data_PCOD9474504
_publ_section_title
;
Structure prediction by ZEFSAII (Michael W. Deem and Ramdas Pophale) SiO2 
 PCOD9474504
Probable space group: C M C M
;
_chemical_formula_sum "Si O2"
_cell_formula_units_Z 80
_cell_length_a 8.409978
_cell_length_b 20.876399
_cell_length_c 23.665997
_cell_angle_alpha 90.000000
_cell_angle_beta 90.000000
_cell_angle_gamma 90.000000
_cell_volume 4155.040426
_symmetry_space_group_name_H-M "C M C M"
_symmetry_group_IT_number 63
_symmetry_cell_setting 'orthorhombic'
loop_
_space_group_symop_operation_xyz
x,y,z
-x,-y,1/2+z
x,-y,-z
-x,y,1/2-z
-x,-y,-z
x,y,1/2-z
-x,y,z
x,-y,1/2+z
1/2+x,1/2+y,z
1/2-x,1/2-y,1/2+z
1/2+x,1/2-y,-z
1/2-x,1/2+y,1/2-z
1/2-x,1/2-y,-z
1/2+x,1/2+y,1/2-z
1/2-x,1/2+y,z
1/2+x,1/2-y,1/2+z
loop_
_atom_site_type_symbol
_atom_site_label
_atom_site_fract_x
_atom_site_fract_y
_atom_site_fract_z
Si Si1 0.309130 0.118166 0.369378
Si Si2 0.190772 0.757252 0.935479
Si Si3 0.809828 0.075029 0.750000
Si Si4 0.693835 0.007867 0.936253
Si Si5 0.192439 0.631592 0.867407
Si Si6 0.690388 0.574915 0.250000
O O1 0.500000 0.120246 0.369436
O O2 0.247221 0.177854 0.405429
O O3 0.249262 0.111893 0.305490
O O4 0.255641 0.052566 0.399495
O O5 0.244931 0.697998 0.895800
O O6 0.000000 0.756131 0.937206
O O7 0.250000 0.750000 0.000000
O O8 0.752462 0.112728 0.805484
O O9 0.000000 0.072838 0.750000
O O10 0.752360 0.000126 0.750000
O O11 0.500000 0.008187 0.936886
O O12 0.744723 0.073935 0.908319
O O13 0.749429 0.000000 0.000000
O O14 0.000000 0.632326 0.865319
O O15 0.500000 0.573336 0.250000
#
# Coordination Sequence:
#
# PCOD9474504 Si02
#       6
#    16  16   8  16  16   8
#     4  11  22  38  64  91 121 162 207 255 307 362
#     4  11  24  42  64  91 127 166 204 253 308 367
#     4  11  23  38  61  92 127 157 195 260 317 358
#     4   9  17  32  57  87 114 148 201 252 295 355
#     4  10  21  39  63  87 118 163 208 248 298 363
#     4  11  23  40  61  90 129 161 199 254 315 370
#
# _framework density 19.253723999999998
#
# number of rings (size 3 to 8) (size 9 to 14) (size 15 to 20)
#    0.000    1.600    2.000    3.000    0.000    6.400 
#    0.000    1.000    0.000    3.000    0.000    0.000 
#    0.000    0.000    0.000    0.000    0.000    0.000 
#
# Total GULP energy -223460.146711 kJ/mol
# GULP energy per Si atom -5586.503668 kJ/mol
# Density = 1.920990 g / cm^3
# Si number density = 19.253724 Si / 1000 Ang^3
#
#
#
# Elastic Constant Matrix: (Units=GPa)
#
#
# Indices 1 2 3 4 5 6 
#
# 1 35.7447 12.5605 10.8471 0.0000 0.0000 0.0000
# 2 12.5605 49.8414 -31.0663 0.0000 0.0000 0.0000
# 3 10.8471 -31.0663 74.6758 0.0000 0.0000 0.0000
# 4 0.0000 0.0000 0.0000 34.9376 0.0000 0.0000
# 5 0.0000 0.0000 0.0000 0.0000 24.2905 0.0000
# 6 0.0000 0.0000 0.0000 0.0000 0.0000 27.6108
#
#
#
# Elastic Compliance Matrix: (Units=1/GPa)
#
#
# Indices 1 2 3 4 5 6 
#
# 1 0.038061 -0.017602 -0.012851 0.000000 0.000000 0.000000
# 2 -0.017602 0.035228 0.017212 0.000000 0.000000 0.000000
# 3 -0.012851 0.017212 0.022419 0.000000 0.000000 0.000000
# 4 0.000000 0.000000 0.000000 0.028622 0.000000 0.000000
# 5 0.000000 0.000000 0.000000 0.000000 0.041168 0.000000
# 6 0.000000 0.000000 0.000000 0.000000 0.000000 0.036218
#
#
# Mechanical properties :
#
#
# Convention : Reuss Voigt Hill
#
# Bulk Modulus (GPa) = 14.44560 16.10494 15.27527
# Shear Modulus (GPa) = 19.89858 28.56249 24.23053
#
# Velocity S-wave (km/s) = 3.21829 3.85577 3.55136
# Velocity P-wave (km/s) = 4.61832 5.31088 4.97666
#
# Compressibility (1/GPa) = 0.06922524
#
# Stress axis : x y z
#
# Youngs Moduli (GPa) = 26.27337 28.38649 44.60589
#
# Poissons Ratio (x) = 0.49966 0.57325
# Poissons Ratio (y) = 0.46247 -0.76777
# Poissons Ratio (z) = 0.33765 -0.48860
#
# Static dielectric constant tensor:
#      x y z
#    x 1.661740 0.000000 0.000000 
#    y 0.000000 1.657570 0.000000 
#    z 0.000000 0.000000 1.652760 
# 
# From -- ./inp_files/59483.got.cif
#   From: 2010.05.17/outbox.cif.g08.bks.cpg/sg63_30_cif.got.tgz:59483.got - 2010.06.03 15:47:04.
