data_PCOD9474910
_publ_section_title
;
Structure prediction by ZEFSAII (Michael W. Deem and Ramdas Pophale) SiO2 
 PCOD9474910
Probable space group: C M C M
;
_chemical_formula_sum "Si O2"
_cell_formula_units_Z 88
_cell_length_a 12.734340
_cell_length_b 22.450799
_cell_length_c 14.947387
_cell_angle_alpha 90.000000
_cell_angle_beta 90.000000
_cell_angle_gamma 90.000000
_cell_volume 4273.399764
_symmetry_space_group_name_H-M "C M C M"
_symmetry_group_IT_number 63
_symmetry_cell_setting 'orthorhombic'
loop_
_space_group_symop_operation_xyz
x,y,z
-x,-y,1/2+z
x,-y,-z
-x,y,1/2-z
-x,-y,-z
x,y,1/2-z
-x,y,z
x,-y,1/2+z
1/2+x,1/2+y,z
1/2-x,1/2-y,1/2+z
1/2+x,1/2-y,-z
1/2-x,1/2+y,1/2-z
1/2-x,1/2-y,-z
1/2+x,1/2+y,1/2-z
1/2-x,1/2+y,z
1/2+x,1/2-y,1/2+z
loop_
_atom_site_type_symbol
_atom_site_label
_atom_site_fract_x
_atom_site_fract_y
_atom_site_fract_z
Si Si1 0.876824 0.296046 0.750000
Si Si2 0.719174 0.755350 0.396627
Si Si3 0.615925 0.363233 0.595178
Si Si4 0.813082 0.059225 0.939252
Si Si5 0.381169 0.521530 0.750000
Si Si6 0.877080 0.615736 0.855650
Si Si7 0.741580 0.912467 0.750000
O O1 0.815113 0.267240 0.665574
O O2 0.858892 0.368467 0.750000
O O3 0.000000 0.282993 0.750000
O O4 0.750000 0.750000 0.500000
O O5 0.627473 0.706498 0.387021
O O6 0.676622 0.819781 0.370296
O O7 0.500000 0.384154 0.616438
O O8 0.644506 0.385161 0.496377
O O9 0.698430 0.392675 0.660919
O O10 0.871382 0.055429 0.844151
O O11 0.691326 0.070665 0.915264
O O12 0.828578 0.000000 0.000000
O O13 0.500000 0.494339 0.750000
O O14 0.273632 0.481644 0.750000
O O15 0.869337 0.601529 0.750000
O O16 0.000000 0.617172 0.879771
#
# Coordination Sequence:
#
# PCOD9474910 Si02
#       7
#     8  16  16  16   8  16   8
#     4  10  24  43  65  96 138 172 209 274 339 395
#     4  11  22  42  66  97 128 167 216 267 321 404
#     4  11  22  38  63  94 129 168 210 267 330 386
#     4  12  25  42  64  96 133 168 223 275 324 395
#     4  12  24  41  65  92 132 176 217 276 329 381
#     4  11  24  46  69  91 130 178 221 272 331 388
#     4  10  22  40  60  90 128 168 220 262 316 384
#
# _framework density 20.592503000000001
#
# number of rings (size 3 to 8) (size 9 to 14) (size 15 to 20)
#    0.000    0.909    5.455    1.909    0.000    2.545 
#    0.000    1.818    0.000    0.000    0.000    0.000 
#    0.000    0.000    0.000    0.000    0.000    0.000 
#
# Total GULP energy -245411.191177 kJ/mol
# GULP energy per Si atom -5577.527072 kJ/mol
# Density = 2.054563 g / cm^3
# Si number density = 20.592503 Si / 1000 Ang^3
#
#
#
# Elastic Constant Matrix: (Units=GPa)
#
#
# Indices 1 2 3 4 5 6 
#
# 1 128.5155 19.6762 32.0777 0.0000 0.0000 0.0000
# 2 19.6762 49.7034 17.6994 0.0000 0.0000 0.0000
# 3 32.0777 17.6994 122.8403 0.0000 0.0000 0.0000
# 4 0.0000 0.0000 0.0000 451.3953 0.0000 0.0000
# 5 0.0000 0.0000 0.0000 0.0000 23.0056 0.0000
# 6 0.0000 0.0000 0.0000 0.0000 0.0000 9.7914
#
#
#
# Elastic Compliance Matrix: (Units=1/GPa)
#
#
# Indices 1 2 3 4 5 6 
#
# 1 0.008671 -0.002768 -0.001865 0.000000 0.000000 0.000000
# 2 -0.002768 0.022091 -0.002460 0.000000 0.000000 0.000000
# 3 -0.001865 -0.002460 0.008982 0.000000 0.000000 0.000000
# 4 0.000000 0.000000 0.000000 0.002215 0.000000 0.000000
# 5 0.000000 0.000000 0.000000 0.000000 0.043468 0.000000
# 6 0.000000 0.000000 0.000000 0.000000 0.000000 0.102130
#
#
# Mechanical properties :
#
#
# Convention : Reuss Voigt Hill
#
# Bulk Modulus (GPa) = 39.12862 48.88507 44.00685
# Shear Modulus (GPa) = 23.77966 112.27884 68.02925
#
# Velocity S-wave (km/s) = 3.40188 7.39206 5.75392
# Velocity P-wave (km/s) = 5.87137 9.83094 8.09693
#
# Compressibility (1/GPa) = 0.02555674
#
# Stress axis : x y z
#
# Youngs Moduli (GPa) = 115.33260 45.26677 111.33106
#
# Poissons Ratio (x) = 0.12531 0.20767
# Poissons Ratio (y) = 0.31926 0.27389
# Poissons Ratio (z) = 0.21513 0.11136
#
# Static dielectric constant tensor:
#      x y z
#    x 1.721110 0.000000 0.000000 
#    y 0.000000 1.820860 0.000000 
#    z 0.000000 0.000000 1.756780 
# 
# From -- ./inp_files/29922.got.cif
#   From: 2010.05.17/outbox.cif.g08.bks.cpg/sg63_15_cif.got.tgz:29922.got - 2010.06.03 15:47:04.
