data_PCOD9474572
_publ_section_title
;
Structure prediction by ZEFSAII (Michael W. Deem and Ramdas Pophale) SiO2 
 PCOD9474572
Probable space group: C M C M
;
_chemical_formula_sum "Si O2"
_cell_formula_units_Z 96
_cell_length_a 24.210795
_cell_length_b 14.677782
_cell_length_c 14.805140
_cell_angle_alpha 90.000000
_cell_angle_beta 90.000000
_cell_angle_gamma 90.000000
_cell_volume 5261.165966
_symmetry_space_group_name_H-M "C M C M"
_symmetry_group_IT_number 63
_symmetry_cell_setting 'orthorhombic'
loop_
_space_group_symop_operation_xyz
x,y,z
-x,-y,1/2+z
x,-y,-z
-x,y,1/2-z
-x,-y,-z
x,y,1/2-z
-x,y,z
x,-y,1/2+z
1/2+x,1/2+y,z
1/2-x,1/2-y,1/2+z
1/2+x,1/2-y,-z
1/2-x,1/2+y,1/2-z
1/2-x,1/2-y,-z
1/2+x,1/2+y,1/2-z
1/2-x,1/2+y,z
1/2+x,1/2-y,1/2+z
loop_
_atom_site_type_symbol
_atom_site_label
_atom_site_fract_x
_atom_site_fract_y
_atom_site_fract_z
Si Si1 0.933694 0.357476 0.250000
Si Si2 0.832264 0.881567 0.353360
Si Si3 0.935521 0.003493 0.891853
Si Si4 0.740226 0.978536 0.644117
Si Si5 0.630458 0.074514 0.576942
Si Si6 0.801706 0.702188 0.045525
Si Si7 0.933451 0.148663 0.250000
O O1 0.911866 0.403434 0.157317
O O2 0.912826 0.252008 0.250000
O O3 0.000000 0.358843 0.250000
O O4 0.814554 0.872273 0.250000
O O5 0.893962 0.919421 0.359324
O O6 0.827843 0.782621 0.396065
O O7 0.791198 0.960170 0.392258
O O8 0.000000 0.020249 0.869886
O O9 0.918525 0.911251 0.838290
O O10 0.930795 0.000000 0.000000
O O11 0.749512 0.961835 0.750000
O O12 0.725334 0.883363 0.597496
O O13 0.685291 0.036929 0.626143
O O14 0.652261 0.162276 0.522164
O O15 0.613203 0.000000 0.500000
O O16 0.750000 0.750000 0.000000
O O17 0.000000 0.155231 0.250000
#
# Coordination Sequence:
#
# PCOD9474572 Si02
#       7
#     8  16  16  16  16  16   8
#     4  11  24  42  67  93 121 163 218 265 310 382
#     4  11  23  38  60  91 119 164 210 246 308 377
#     4  10  22  39  60  85 124 165 198 251 311 365
#     4  10  21  40  59  85 125 158 199 254 317 367
#     4  10  22  41  64  90 123 162 199 264 326 367
#     4  11  23  37  59  90 125 157 202 255 306 378
#     4   9  20  40  59  87 121 155 203 253 302 358
#
# _framework density 18.246905999999999
#
# number of rings (size 3 to 8) (size 9 to 14) (size 15 to 20)
#    0.000    1.667    3.333    0.500    4.667    0.333 
#    1.500    0.000    0.000    1.000    0.000    0.000 
#    0.000    0.000    0.000    0.000    0.000    0.000 
#
# Total GULP energy -267642.936203 kJ/mol
# GULP energy per Si atom -5575.894504 kJ/mol
# Density = 1.820537 g / cm^3
# Si number density = 18.246906 Si / 1000 Ang^3
#
#
#
# Elastic Constant Matrix: (Units=GPa)
#
#
# Indices 1 2 3 4 5 6 
#
# 1 74.4576 55.9147 37.3241 0.0000 0.0000 0.0000
# 2 55.9147 109.6881 48.4192 0.0000 0.0000 0.0000
# 3 37.3241 48.4192 106.4168 0.0000 0.0000 0.0000
# 4 0.0000 0.0000 0.0000 24.3747 0.0000 0.0000
# 5 0.0000 0.0000 0.0000 0.0000 18.0770 0.0000
# 6 0.0000 0.0000 0.0000 0.0000 0.0000 24.8444
#
#
#
# Elastic Compliance Matrix: (Units=1/GPa)
#
#
# Indices 1 2 3 4 5 6 
#
# 1 0.022688 -0.010077 -0.003373 0.000000 0.000000 0.000000
# 2 -0.010077 0.015884 -0.003693 0.000000 0.000000 0.000000
# 3 -0.003373 -0.003693 0.012260 0.000000 0.000000 0.000000
# 4 0.000000 0.000000 0.000000 0.041026 0.000000 0.000000
# 5 0.000000 0.000000 0.000000 0.000000 0.055319 0.000000
# 6 0.000000 0.000000 0.000000 0.000000 0.000000 0.040251
#
#
# Mechanical properties :
#
#
# Convention : Reuss Voigt Hill
#
# Bulk Modulus (GPa) = 60.43151 63.76428 62.09789
# Shear Modulus (GPa) = 22.00432 23.38618 22.69525
#
# Velocity S-wave (km/s) = 3.47640 3.58390 3.53056
# Velocity P-wave (km/s) = 7.02172 7.22128 7.12220
#
# Compressibility (1/GPa) = 0.01654766
#
# Stress axis : x y z
#
# Youngs Moduli (GPa) = 44.07521 62.95796 81.56553
#
# Poissons Ratio (x) = 0.63442 0.27510
# Poissons Ratio (y) = 0.44414 0.30119
# Poissons Ratio (z) = 0.14865 0.23248
#
# Static dielectric constant tensor:
#      x y z
#    x 1.626670 0.000000 0.000000 
#    y 0.000000 1.650760 0.000000 
#    z 0.000000 0.000000 1.668970 
# 
# From -- ./inp_files/36832.got.cif
#   From: 2010.05.17/outbox.cif.g08.bks.cpg/sg63_19_cif.got.tgz:36832.got - 2010.06.03 15:47:04.
