data_PCOD9474412
_publ_section_title
;
Structure prediction by ZEFSAII (Michael W. Deem and Ramdas Pophale) SiO2 
 PCOD9474412
Probable space group: C M C M
;
_chemical_formula_sum "Si O2"
_cell_formula_units_Z 64
_cell_length_a 23.682139
_cell_length_b 7.163064
_cell_length_c 16.074926
_cell_angle_alpha 90.000000
_cell_angle_beta 90.000000
_cell_angle_gamma 90.000000
_cell_volume 2726.897035
_symmetry_space_group_name_H-M "C M C M"
_symmetry_group_IT_number 63
_symmetry_cell_setting 'orthorhombic'
loop_
_space_group_symop_operation_xyz
x,y,z
-x,-y,1/2+z
x,-y,-z
-x,y,1/2-z
-x,-y,-z
x,y,1/2-z
-x,y,z
x,-y,1/2+z
1/2+x,1/2+y,z
1/2-x,1/2-y,1/2+z
1/2+x,1/2-y,-z
1/2-x,1/2+y,1/2-z
1/2-x,1/2-y,-z
1/2+x,1/2+y,1/2-z
1/2-x,1/2+y,z
1/2+x,1/2-y,1/2+z
loop_
_atom_site_type_symbol
_atom_site_label
_atom_site_fract_x
_atom_site_fract_y
_atom_site_fract_z
Si Si1 0.620525 0.868322 0.341519
Si Si2 0.316612 0.776628 0.494292
Si Si3 0.000000 0.352902 0.076956
Si Si4 0.500000 0.535593 0.846944
Si Si5 0.374807 0.697222 0.657572
O O1 0.620455 0.786950 0.250000
O O2 0.656474 0.742634 0.403961
O O3 0.557371 0.888999 0.374659
O O4 0.639460 0.082227 0.335885
O O5 0.250000 0.750000 0.500000
O O6 0.344766 0.661530 0.569173
O O7 0.328958 0.000000 0.500000
O O8 0.000000 0.124630 0.081817
O O9 0.000000 0.500000 0.000000
O O10 0.500000 0.461100 0.750000
O O11 0.558248 0.652689 0.853339
O O12 0.358560 0.622687 0.750000
#
# Coordination Sequence:
#
# PCOD9474412 Si02
#       5
#    16  16   8   8  16
#     4  10  21  40  62  85 122 172 217 265 326 391
#     4  10  22  39  58  87 123 164 218 272 325 387
#     4  12  23  38  61  93 130 163 202 254 320 392
#     4  10  21  38  63  97 127 159 211 270 325 392
#     4   9  19  38  63  89 123 165 212 268 328 383
#
# _framework density 23.469901
#
# number of rings (size 3 to 8) (size 9 to 14) (size 15 to 20)
#    0.000    2.000    0.000    4.125    0.000    6.000 
#    0.000    9.375    0.000    0.000    0.000    1.750 
#    0.000    0.000    0.000    0.000    0.000    0.000 
#
# Total GULP energy -178388.223348 kJ/mol
# GULP energy per Si atom -5574.631980 kJ/mol
# Density = 2.341648 g / cm^3
# Si number density = 23.469901 Si / 1000 Ang^3
#
#
#
# Elastic Constant Matrix: (Units=GPa)
#
#
# Indices 1 2 3 4 5 6 
#
# 1 118.5639 -12.1279 122.8949 0.0000 0.0000 0.0000
# 2 -12.1279 123.8395 53.0598 0.0000 0.0000 0.0000
# 3 122.8949 53.0598 274.7931 0.0000 0.0000 0.0000
# 4 0.0000 0.0000 0.0000 17.6200 0.0000 0.0000
# 5 0.0000 0.0000 0.0000 0.0000-1017.1457 0.0000
# 6 0.0000 0.0000 0.0000 0.0000 0.0000 20.1569
#
#
#
# Elastic Compliance Matrix: (Units=1/GPa)
#
#
# Indices 1 2 3 4 5 6 
#
# 1 0.019127 0.006038 -0.009720 0.000000 0.000000 0.000000
# 2 0.006038 0.010709 -0.004768 0.000000 0.000000 0.000000
# 3 -0.009720 -0.004768 0.008907 0.000000 0.000000 0.000000
# 4 0.000000 0.000000 0.000000 0.056754 0.000000 0.000000
# 5 0.000000 0.000000 0.000000 0.000000 -0.000983 0.000000
# 6 0.000000 0.000000 0.000000 0.000000 0.000000 0.049611
#
#
# Mechanical properties :
#
#
# Convention : Reuss Voigt Hill
#
# Bulk Modulus (GPa) = 45.78298 93.87221 69.82759
# Shear Modulus (GPa) = 29.70800 -172.31577 -71.30388
#
# Velocity S-wave (km/s) = 3.56166 -8.57784 -5.51787
# Velocity P-wave (km/s) = 6.03849 7.61722 3.28319
#
# Compressibility (1/GPa) = 0.02184218
#
# Stress axis : x y z
#
# Youngs Moduli (GPa) = 52.28304 93.37827 112.27510
#
# Poissons Ratio (x) = -0.56378 1.09129
# Poissons Ratio (y) = -0.31566 0.53533
# Poissons Ratio (z) = 0.50818 0.44523
#
# Static dielectric constant tensor:
#      x y z
#    x 1.791240 0.000000 0.000000 
#    y 0.000000 2.418200 0.000000 
#    z 0.000000 0.000000 2.051480 
# 
# From -- ./inp_files/37460.got.cif
#   From: 2010.05.17/outbox.cif.g08.bks.cpg/sg63_19_cif.got.tgz:37460.got - 2010.06.03 15:47:04.
