data_PCOD9474301
_publ_section_title
;
Structure prediction by ZEFSAII (Michael W. Deem and Ramdas Pophale) SiO2 
 PCOD9474301
Probable space group: C M C M
;
_chemical_formula_sum "Si O2"
_cell_formula_units_Z 96
_cell_length_a 11.796193
_cell_length_b 18.216188
_cell_length_c 22.518016
_cell_angle_alpha 90.000000
_cell_angle_beta 90.000000
_cell_angle_gamma 90.000000
_cell_volume 4838.708869
_symmetry_space_group_name_H-M "C M C M"
_symmetry_group_IT_number 63
_symmetry_cell_setting 'orthorhombic'
loop_
_space_group_symop_operation_xyz
x,y,z
-x,-y,1/2+z
x,-y,-z
-x,y,1/2-z
-x,-y,-z
x,y,1/2-z
-x,y,z
x,-y,1/2+z
1/2+x,1/2+y,z
1/2-x,1/2-y,1/2+z
1/2+x,1/2-y,-z
1/2-x,1/2+y,1/2-z
1/2-x,1/2-y,-z
1/2+x,1/2+y,1/2-z
1/2-x,1/2+y,z
1/2+x,1/2-y,1/2+z
loop_
_atom_site_type_symbol
_atom_site_label
_atom_site_fract_x
_atom_site_fract_y
_atom_site_fract_z
Si Si1 0.811604 0.537091 0.872403
Si Si2 0.129627 0.461208 0.750000
Si Si3 0.866471 0.863113 0.750000
Si Si4 0.635383 0.889453 0.929894
Si Si5 0.243503 0.775678 0.853078
Si Si6 0.872996 0.324471 0.053546
Si Si7 0.628286 0.630592 0.681924
O O1 0.863673 0.509608 0.810054
O O2 0.812153 0.468412 0.916263
O O3 0.874277 0.605330 0.902690
O O4 0.688721 0.569648 0.857520
O O5 0.250752 0.415207 0.750000
O O6 0.000000 0.426376 0.750000
O O7 0.845462 0.813197 0.691493
O O8 0.000000 0.890332 0.750000
O O9 0.500000 0.899197 0.933296
O O10 0.668540 0.836681 0.875584
O O11 0.676000 0.853576 0.991457
O O12 0.189456 0.739610 0.911619
O O13 0.305498 0.707367 0.822131
O O14 0.000000 0.299533 0.040700
O O15 0.631079 0.605279 0.750000
O O16 0.500000 0.643074 0.663307
#
# Coordination Sequence:
#
# PCOD9474301 Si02
#       7
#    16   8   8  16  16  16  16
#     4  11  22  38  60  91 123 157 207 262 314 374
#     4  12  24  39  62  95 127 165 215 263 318 380
#     4  12  26  41  62  97 137 169 203 257 330 386
#     4  11  22  39  62  90 120 161 212 262 314 370
#     4  11  22  40  62  91 123 162 208 257 310 385
#     4  10  22  39  62  87 120 160 205 262 319 375
#     4  10  21  38  59  88 125 166 204 250 313 379
#
# _framework density 19.840002999999999
#
# number of rings (size 3 to 8) (size 9 to 14) (size 15 to 20)
#    0.000    1.167    3.333    3.500    0.000    2.667 
#    0.000    2.500    0.000   10.000    0.000    0.000 
#    0.000    0.000    0.000    0.000    0.000    0.000 
#
# Total GULP energy -267741.688171 kJ/mol
# GULP energy per Si atom -5577.951837 kJ/mol
# Density = 1.979485 g / cm^3
# Si number density = 19.840003 Si / 1000 Ang^3
#
#
#
# Elastic Constant Matrix: (Units=GPa)
#
#
# Indices 1 2 3 4 5 6 
#
# 1 96.2200 26.5611 23.3065 0.0000 0.0000 0.0000
# 2 26.5611 73.7168 12.5447 0.0000 0.0000 0.0000
# 3 23.3065 12.5447 75.2020 0.0000 0.0000 0.0000
# 4 0.0000 0.0000 0.0000 37.9980 0.0000 0.0000
# 5 0.0000 0.0000 0.0000 0.0000 23.5522 0.0000
# 6 0.0000 0.0000 0.0000 0.0000 0.0000 10.4012
#
#
#
# Elastic Compliance Matrix: (Units=1/GPa)
#
#
# Indices 1 2 3 4 5 6 
#
# 1 0.012222 -0.003869 -0.003142 0.000000 0.000000 0.000000
# 2 -0.003869 0.015187 -0.001334 0.000000 0.000000 0.000000
# 3 -0.003142 -0.001334 0.014494 0.000000 0.000000 0.000000
# 4 0.000000 0.000000 0.000000 0.026317 0.000000 0.000000
# 5 0.000000 0.000000 0.000000 0.000000 0.042459 0.000000
# 6 0.000000 0.000000 0.000000 0.000000 0.000000 0.096143
#
#
# Mechanical properties :
#
#
# Convention : Reuss Voigt Hill
#
# Bulk Modulus (GPa) = 39.66490 41.10705 40.38598
# Shear Modulus (GPa) = 21.55951 26.57205 24.06578
#
# Velocity S-wave (km/s) = 3.30004 3.66364 3.48658
# Velocity P-wave (km/s) = 5.87845 6.21776 6.05048
#
# Compressibility (1/GPa) = 0.02521121
#
# Stress axis : x y z
#
# Youngs Moduli (GPa) = 81.81945 65.84783 68.99407
#
# Poissons Ratio (x) = 0.25476 0.21681
# Poissons Ratio (y) = 0.31656 0.09205
# Poissons Ratio (z) = 0.25711 0.08786
#
# Static dielectric constant tensor:
#      x y z
#    x 1.717120 0.000000 0.000000 
#    y 0.000000 1.694060 0.000000 
#    z 0.000000 0.000000 1.712130 
# 
# From -- ./inp_files/61534.got.cif
#   From: 2010.05.17/outbox.cif.g08.bks.cpg/sg63_31_cif.got.tgz:61534.got - 2010.06.03 15:47:04.
