data_PCOD9474563
_publ_section_title
;
Structure prediction by ZEFSAII (Michael W. Deem and Ramdas Pophale) SiO2 
 PCOD9474563
Probable space group: C M C M
;
_chemical_formula_sum "Si O2"
_cell_formula_units_Z 68
_cell_length_a 8.764932
_cell_length_b 25.976510
_cell_length_c 14.954385
_cell_angle_alpha 90.000000
_cell_angle_beta 90.000000
_cell_angle_gamma 90.000000
_cell_volume 3404.849426
_symmetry_space_group_name_H-M "C M C M"
_symmetry_group_IT_number 63
_symmetry_cell_setting 'orthorhombic'
loop_
_space_group_symop_operation_xyz
x,y,z
-x,-y,1/2+z
x,-y,-z
-x,y,1/2-z
-x,-y,-z
x,y,1/2-z
-x,y,z
x,-y,1/2+z
1/2+x,1/2+y,z
1/2-x,1/2-y,1/2+z
1/2+x,1/2-y,-z
1/2-x,1/2+y,1/2-z
1/2-x,1/2-y,-z
1/2+x,1/2+y,1/2-z
1/2-x,1/2+y,z
1/2+x,1/2-y,1/2+z
loop_
_atom_site_type_symbol
_atom_site_label
_atom_site_fract_x
_atom_site_fract_y
_atom_site_fract_z
Si Si1 0.184458 0.574115 0.750000
Si Si2 0.184442 0.551927 0.552252
Si Si3 0.668853 0.628443 0.413991
Si Si4 0.500000 0.414753 0.750000
Si Si5 0.681411 0.764294 0.904501
Si Si6 0.817195 0.305019 0.250000
O O1 0.238834 0.551360 0.655358
O O2 0.220310 0.634718 0.750000
O O3 0.000000 0.568829 0.750000
O O4 0.225936 0.500000 0.500000
O O5 0.251989 0.598947 0.495299
O O6 0.000000 0.556511 0.552710
O O7 0.500000 0.647306 0.443320
O O8 0.631063 0.591688 0.329836
O O9 0.763045 0.677905 0.382928
O O10 0.500000 0.762301 0.904761
O O11 0.749153 0.723946 0.834809
O O12 0.750000 0.750000 0.000000
O O13 0.000000 0.300075 0.250000
#
# Coordination Sequence:
#
# PCOD9474563 Si02
#       6
#     8  16  16   4  16   8
#     4   9  20  39  60  90 128 166 204 264 330 380
#     4  10  21  39  66  96 129 169 218 271 329 401
#     4  10  21  40  62  86 127 169 214 265 333 382
#     4   8  22  38  60  82 120 168 198 278 320 372
#     4  12  24  38  60  92 125 168 217 268 324 394
#     4  11  22  38  62  88 128 172 217 267 325 391
#
# _framework density 19.971513999999999
#
# number of rings (size 3 to 8) (size 9 to 14) (size 15 to 20)
#    0.706    0.941    0.000    5.294    1.647    3.294 
#    0.000    4.706    0.000    0.000    0.000    0.000 
#    0.000    0.000    0.000    0.000    0.000    0.000 
#
# Total GULP energy -189269.286061 kJ/mol
# GULP energy per Si atom -5566.743708 kJ/mol
# Density = 1.992606 g / cm^3
# Si number density = 19.971514 Si / 1000 Ang^3
#
#
#
# Elastic Constant Matrix: (Units=GPa)
#
#
# Indices 1 2 3 4 5 6 
#
# 1 76.2057 47.1008 30.1225 0.0000 0.0000 0.0000
# 2 47.1008 66.0899 51.1655 0.0000 0.0000 0.0000
# 3 30.1225 51.1655 182.5833 0.0000 0.0000 0.0000
# 4 0.0000 0.0000 0.0000 33.3003 0.0000 0.0000
# 5 0.0000 0.0000 0.0000 0.0000 37.4381 0.0000
# 6 0.0000 0.0000 0.0000 0.0000 0.0000 21.7826
#
#
#
# Elastic Compliance Matrix: (Units=1/GPa)
#
#
# Indices 1 2 3 4 5 6 
#
# 1 0.023609 -0.017636 0.001047 0.000000 0.000000 0.000000
# 2 -0.017636 0.032498 -0.006197 0.000000 0.000000 0.000000
# 3 0.001047 -0.006197 0.007041 0.000000 0.000000 0.000000
# 4 0.000000 0.000000 0.000000 0.030030 0.000000 0.000000
# 5 0.000000 0.000000 0.000000 0.000000 0.026711 0.000000
# 6 0.000000 0.000000 0.000000 0.000000 0.000000 0.045908
#
#
# Mechanical properties :
#
#
# Convention : Reuss Voigt Hill
#
# Bulk Modulus (GPa) = 56.89942 64.62849 60.76395
# Shear Modulus (GPa) = 23.01738 31.60354 27.31046
#
# Velocity S-wave (km/s) = 3.39855 3.98229 3.70194
# Velocity P-wave (km/s) = 6.62965 7.31953 6.98311
#
# Compressibility (1/GPa) = 0.01757487
#
# Stress axis : x y z
#
# Youngs Moduli (GPa) = 42.35679 30.77142 142.02870
#
# Poissons Ratio (x) = 0.54270 -0.14874
# Poissons Ratio (y) = 0.74702 0.88018
# Poissons Ratio (z) = -0.04436 0.19070
#
# Static dielectric constant tensor:
#      x y z
#    x 1.684250 0.000000 0.000000 
#    y 0.000000 1.708120 0.000000 
#    z 0.000000 0.000000 1.693880 
# 
# From -- ./inp_files/27801.got.cif
#   From: 2010.05.17/outbox.cif.g08.bks.cpg/sg63_14_cif.got.tgz:27801.got - 2010.06.03 15:47:04.
