data_PCOD9474168
_publ_section_title
;
Structure prediction by ZEFSAII (Michael W. Deem and Ramdas Pophale) SiO2 
 PCOD9474168
Probable space group: C M C M
;
_chemical_formula_sum "Si O2"
_cell_formula_units_Z 80
_cell_length_a 8.946789
_cell_length_b 18.836117
_cell_length_c 25.753593
_cell_angle_alpha 90.000000
_cell_angle_beta 90.000000
_cell_angle_gamma 90.000000
_cell_volume 4340.066685
_symmetry_space_group_name_H-M "C M C M"
_symmetry_group_IT_number 63
_symmetry_cell_setting 'orthorhombic'
loop_
_space_group_symop_operation_xyz
x,y,z
-x,-y,1/2+z
x,-y,-z
-x,y,1/2-z
-x,-y,-z
x,y,1/2-z
-x,y,z
x,-y,1/2+z
1/2+x,1/2+y,z
1/2-x,1/2-y,1/2+z
1/2+x,1/2-y,-z
1/2-x,1/2+y,1/2-z
1/2-x,1/2-y,-z
1/2+x,1/2+y,1/2-z
1/2-x,1/2+y,z
1/2+x,1/2-y,1/2+z
loop_
_atom_site_type_symbol
_atom_site_label
_atom_site_fract_x
_atom_site_fract_y
_atom_site_fract_z
Si Si1 0.179424 0.668282 0.101221
Si Si2 0.678891 0.666299 0.599141
Si Si3 0.179939 0.417199 0.003125
Si Si4 0.678163 0.424225 0.810479
Si Si5 0.678046 0.922714 0.310874
O O1 0.218332 0.750726 0.093753
O O2 0.219166 0.623055 0.050141
O O3 0.259100 0.634621 0.150889
O O4 0.000000 0.663210 0.108148
O O5 0.500000 0.660209 0.600119
O O6 0.743787 0.621642 0.551293
O O7 0.746827 0.634139 0.651673
O O8 0.000000 0.413419 0.009589
O O9 0.221732 0.500000 0.000000
O O10 0.711071 0.407834 0.750000
O O11 0.500000 0.431208 0.816041
O O12 0.755262 0.499581 0.822852
O O13 0.707581 0.908275 0.250000
O O14 0.500000 0.923895 0.318908
#
# Coordination Sequence:
#
# PCOD9474168 Si02
#       5
#    16  16  16  16  16
#     4  10  22  38  56  83 118 153 188 229 281 336
#     4  11  23  37  56  84 117 151 188 233 283 333
#     4  10  21  38  60  83 109 146 192 237 281 336
#     4  10  21  37  59  87 116 147 187 234 281 333
#     4  10  21  38  60  83 110 148 191 234 282 335
#
# _framework density 18.432896
#
# number of rings (size 3 to 8) (size 9 to 14) (size 15 to 20)
#    0.000    1.800    0.000    3.600    0.000    7.600 
#    0.000    4.000    0.000    0.000    0.000    0.000 
#    0.000    0.000    0.000    0.000    0.000    0.000 
#
# Total GULP energy -223577.374112 kJ/mol
# GULP energy per Si atom -5589.434353 kJ/mol
# Density = 1.839094 g / cm^3
# Si number density = 18.432896 Si / 1000 Ang^3
#
#
#
# Elastic Constant Matrix: (Units=GPa)
#
#
# Indices 1 2 3 4 5 6 
#
# 1 46.4792 69.4608 56.3529 0.0000 0.0000 0.0000
# 2 69.4608 185.5586 106.0438 0.0000 0.0000 0.0000
# 3 56.3529 106.0438 105.3476 0.0000 0.0000 0.0000
# 4 0.0000 0.0000 0.0000 -90.6842 0.0000 0.0000
# 5 0.0000 0.0000 0.0000 0.0000 35.3920 0.0000
# 6 0.0000 0.0000 0.0000 0.0000 0.0000 29.2327
#
#
#
# Elastic Compliance Matrix: (Units=1/GPa)
#
#
# Indices 1 2 3 4 5 6 
#
# 1 0.070043 -0.011318 -0.026075 0.000000 0.000000 0.000000
# 2 -0.011318 0.014517 -0.008559 0.000000 0.000000 0.000000
# 3 -0.026075 -0.008559 0.032055 0.000000 0.000000 0.000000
# 4 0.000000 0.000000 0.000000 -0.011027 0.000000 0.000000
# 5 0.000000 0.000000 0.000000 0.000000 0.028255 0.000000
# 6 0.000000 0.000000 0.000000 0.000000 0.000000 0.034208
#
#
# Mechanical properties :
#
#
# Convention : Reuss Voigt Hill
#
# Bulk Modulus (GPa) = 40.46496 89.01115 64.73805
# Shear Modulus (GPa) = 18.64332 1.82331 10.23332
#
# Velocity S-wave (km/s) = 3.18373 0.99564 2.35875
# Velocity P-wave (km/s) = 5.95945 7.05095 6.52805
#
# Compressibility (1/GPa) = 0.02471274
#
# Stress axis : x y z
#
# Youngs Moduli (GPa) = 14.27686 68.88466 31.19596
#
# Poissons Ratio (x) = 0.77966 0.81343
# Poissons Ratio (y) = 0.16159 0.26699
# Poissons Ratio (z) = 0.37227 0.58955
#
# Static dielectric constant tensor:
#      x y z
#    x 1.615630 0.000000 0.000000 
#    y 0.000000 1.605520 0.000000 
#    z 0.000000 0.000000 1.611830 
# 
# From -- ./inp_files/66591.got.cif
#   From: 2010.05.17/outbox.cif.g08.bks.cpg/sg63_34_cif.got.tgz:66591.got - 2010.06.03 15:47:04.
