data_PCOD9474283
_publ_section_title
;
Structure prediction by ZEFSAII (Michael W. Deem and Ramdas Pophale) SiO2 
 PCOD9474283
Probable space group: C M C M
;
_chemical_formula_sum "Si O2"
_cell_formula_units_Z 80
_cell_length_a 8.956269
_cell_length_b 26.202061
_cell_length_c 18.722698
_cell_angle_alpha 90.000000
_cell_angle_beta 90.000000
_cell_angle_gamma 90.000000
_cell_volume 4393.706216
_symmetry_space_group_name_H-M "C M C M"
_symmetry_group_IT_number 63
_symmetry_cell_setting 'orthorhombic'
loop_
_space_group_symop_operation_xyz
x,y,z
-x,-y,1/2+z
x,-y,-z
-x,y,1/2-z
-x,-y,-z
x,y,1/2-z
-x,y,z
x,-y,1/2+z
1/2+x,1/2+y,z
1/2-x,1/2-y,1/2+z
1/2+x,1/2-y,-z
1/2-x,1/2+y,1/2-z
1/2-x,1/2-y,-z
1/2+x,1/2+y,1/2-z
1/2-x,1/2+y,z
1/2+x,1/2-y,1/2+z
loop_
_atom_site_type_symbol
_atom_site_label
_atom_site_fract_x
_atom_site_fract_y
_atom_site_fract_z
Si Si1 0.180196 0.751749 0.833381
Si Si2 0.321207 0.153031 0.084335
Si Si3 0.178731 0.940628 0.834387
Si Si4 0.820205 0.942228 0.332823
Si Si5 0.679791 0.149885 0.581539
O O1 0.221813 0.750130 0.750000
O O2 0.251404 0.800090 0.872254
O O3 0.225209 0.699707 0.873302
O O4 0.000000 0.755911 0.837473
O O5 0.500000 0.155424 0.088560
O O6 0.263155 0.100625 0.118702
O O7 0.276730 0.155795 0.001129
O O8 0.208024 0.932083 0.750000
O O9 0.000000 0.935420 0.844566
O O10 0.220409 0.999259 0.850927
O O11 0.776886 0.932957 0.250000
O O12 0.748340 0.900521 0.383585
O O13 0.000000 0.938987 0.336458
O O14 0.500000 0.146321 0.584810
#
# Coordination Sequence:
#
# PCOD9474283 Si02
#       5
#    16  16  16  16  16
#     4  10  21  38  59  79 102 139 183 221 265 324
#     4  11  23  36  53  81 113 142 177 222 268 315
#     4   9  19  37  58  79 107 144 183 221 265 319
#     4   9  19  36  58  83 108 138 181 227 266 310
#     4  10  22  38  55  79 112 146 177 214 267 326
#
# _framework density 18.207864000000001
#
# number of rings (size 3 to 8) (size 9 to 14) (size 15 to 20)
#    0.000    2.200    0.000    3.600    0.000    8.400 
#    0.000    6.000    0.000    0.000    0.000    0.000 
#    0.000    0.000    0.000    0.000    0.000    0.000 
#
# Total GULP energy -223407.470113 kJ/mol
# GULP energy per Si atom -5585.186753 kJ/mol
# Density = 1.816642 g / cm^3
# Si number density = 18.207864 Si / 1000 Ang^3
#
#
#
# Elastic Constant Matrix: (Units=GPa)
#
#
# Indices 1 2 3 4 5 6 
#
# 1 19.6462 46.9978 53.5937 0.0000 0.0000 0.0000
# 2 46.9978 163.5748 129.3663 0.0000 0.0000 0.0000
# 3 53.5937 129.3663 171.7203 0.0000 0.0000 0.0000
# 4 0.0000 0.0000 0.0000 -9.8699 0.0000 0.0000
# 5 0.0000 0.0000 0.0000 0.0000 30.9502 0.0000
# 6 0.0000 0.0000 0.0000 0.0000 0.0000 30.1230
#
#
#
# Elastic Compliance Matrix: (Units=1/GPa)
#
#
# Indices 1 2 3 4 5 6 
#
# 1 0.443213 -0.044396 -0.104881 0.000000 0.000000 0.000000
# 2 -0.044396 0.019572 -0.000889 0.000000 0.000000 0.000000
# 3 -0.104881 -0.000889 0.039226 0.000000 0.000000 0.000000
# 4 0.000000 0.000000 0.000000 -0.101318 0.000000 0.000000
# 5 0.000000 0.000000 0.000000 0.000000 0.032310 0.000000
# 6 0.000000 0.000000 0.000000 0.000000 0.000000 0.033197
#
#
# Mechanical properties :
#
#
# Convention : Reuss Voigt Hill
#
# Bulk Modulus (GPa) = 4.95832 90.53964 47.74898
# Shear Modulus (GPa) = 5.99695 18.57289 12.28492
#
# Velocity S-wave (km/s) = 1.81680 3.19728 2.60032
# Velocity P-wave (km/s) = 2.67022 7.96641 5.94112
#
# Compressibility (1/GPa) = 0.20168113
#
# Stress axis : x y z
#
# Youngs Moduli (GPa) = 2.25625 51.09358 25.49324
#
# Poissons Ratio (x) = 2.26833 2.67375
# Poissons Ratio (y) = 0.10017 0.02266
# Poissons Ratio (z) = 0.23664 0.04541
#
# Static dielectric constant tensor:
#      x y z
#    x 1.608670 0.000000 0.000000 
#    y 0.000000 1.594700 0.000000 
#    z 0.000000 0.000000 1.608070 
# 
# From -- ./inp_files/40434.got.cif
#   From: 2010.05.17/outbox.cif.g08.bks.cpg/sg63_21_cif.got.tgz:40434.got - 2010.06.03 15:47:04.
