data_PCOD9474559
_publ_section_title
;
Structure prediction by ZEFSAII (Michael W. Deem and Ramdas Pophale) SiO2 
 PCOD9474559
Probable space group: C M C M
;
_chemical_formula_sum "Si O2"
_cell_formula_units_Z 96
_cell_length_a 23.075536
_cell_length_b 14.349711
_cell_length_c 14.924129
_cell_angle_alpha 90.000000
_cell_angle_beta 90.000000
_cell_angle_gamma 90.000000
_cell_volume 4941.786134
_symmetry_space_group_name_H-M "C M C M"
_symmetry_group_IT_number 63
_symmetry_cell_setting 'orthorhombic'
loop_
_space_group_symop_operation_xyz
x,y,z
-x,-y,1/2+z
x,-y,-z
-x,y,1/2-z
-x,-y,-z
x,y,1/2-z
-x,y,z
x,-y,1/2+z
1/2+x,1/2+y,z
1/2-x,1/2-y,1/2+z
1/2+x,1/2-y,-z
1/2-x,1/2+y,1/2-z
1/2-x,1/2-y,-z
1/2+x,1/2+y,1/2-z
1/2-x,1/2+y,z
1/2+x,1/2-y,1/2+z
loop_
_atom_site_type_symbol
_atom_site_label
_atom_site_fract_x
_atom_site_fract_y
_atom_site_fract_z
Si Si1 0.569653 0.917609 0.250000
Si Si2 0.933410 0.771138 0.407196
Si Si3 0.311148 0.625324 0.147817
Si Si4 0.929959 0.630334 0.250000
Si Si5 0.771305 0.389806 0.487882
Si Si6 0.666901 0.590572 0.856198
Si Si7 0.114884 0.294056 0.086729
O O1 0.500000 0.918441 0.250000
O O2 0.591024 0.863382 0.161871
O O3 0.592004 0.024458 0.250000
O O4 0.914449 0.690178 0.337638
O O5 0.888969 0.856085 0.393925
O O6 0.928903 0.733028 0.507895
O O7 0.000000 0.796595 0.386093
O O8 0.290512 0.628431 0.250000
O O9 0.334828 0.521077 0.129550
O O10 0.361088 0.700548 0.132751
O O11 0.259410 0.644213 0.078583
O O12 0.000000 0.623819 0.250000
O O13 0.781788 0.500000 0.500000
O O14 0.723849 0.376859 0.409412
O O15 0.830086 0.339946 0.462439
O O16 0.671512 0.607881 0.750000
#
# Coordination Sequence:
#
# PCOD9474559 Si02
#       7
#     8  16  16   8  16  16  16
#     4  11  26  46  64  89 133 171 211 267 317 378
#     4  11  23  41  67  96 125 165 219 267 318 381
#     4  10  21  41  62  91 132 171 201 264 322 378
#     4   9  22  44  64  89 123 161 210 271 317 364
#     4  10  23  41  62  95 130 165 213 265 315 381
#     4  10  21  39  66  91 130 165 207 263 328 370
#     4  12  24  41  65  95 128 169 218 256 320 382
#
# _framework density 19.426172999999999
#
# number of rings (size 3 to 8) (size 9 to 14) (size 15 to 20)
#    0.000    1.500    3.333    1.000    3.500    0.000 
#    1.500    5.000    0.000    0.000    0.000    0.000 
#    0.000    0.000    0.000    0.000    0.000    0.000 
#
# Total GULP energy -268281.356113 kJ/mol
# GULP energy per Si atom -5589.194919 kJ/mol
# Density = 1.938196 g / cm^3
# Si number density = 19.426173 Si / 1000 Ang^3
#
#
#
# Elastic Constant Matrix: (Units=GPa)
#
#
# Indices 1 2 3 4 5 6 
#
# 1 86.1317 40.1437 33.0753 0.0000 0.0000 0.0000
# 2 40.1437 82.6102 36.3122 0.0000 0.0000 0.0000
# 3 33.0753 36.3122 100.5587 0.0000 0.0000 0.0000
# 4 0.0000 0.0000 0.0000 26.7106 0.0000 0.0000
# 5 0.0000 0.0000 0.0000 0.0000 22.6897 0.0000
# 6 0.0000 0.0000 0.0000 0.0000 0.0000 27.9194
#
#
#
# Elastic Compliance Matrix: (Units=1/GPa)
#
#
# Indices 1 2 3 4 5 6 
#
# 1 0.015672 -0.006359 -0.002858 0.000000 0.000000 0.000000
# 2 -0.006359 0.016969 -0.004036 0.000000 0.000000 0.000000
# 3 -0.002858 -0.004036 0.012342 0.000000 0.000000 0.000000
# 4 0.000000 0.000000 0.000000 0.037438 0.000000 0.000000
# 5 0.000000 0.000000 0.000000 0.000000 0.044073 0.000000
# 6 0.000000 0.000000 0.000000 0.000000 0.000000 0.035817
#
#
# Mechanical properties :
#
#
# Convention : Reuss Voigt Hill
#
# Bulk Modulus (GPa) = 54.12449 54.26255 54.19352
# Shear Modulus (GPa) = 25.64407 26.11524 25.87966
#
# Velocity S-wave (km/s) = 3.63723 3.67049 3.65390
# Velocity P-wave (km/s) = 6.74992 6.77914 6.76454
#
# Compressibility (1/GPa) = 0.01847592
#
# Stress axis : x y z
#
# Youngs Moduli (GPa) = 63.81006 58.93013 81.02390
#
# Poissons Ratio (x) = 0.37474 0.23159
# Poissons Ratio (y) = 0.40577 0.32702
# Poissons Ratio (z) = 0.18239 0.23785
#
# Static dielectric constant tensor:
#      x y z
#    x 1.637650 0.000000 0.000000 
#    y 0.000000 1.687990 0.000000 
#    z 0.000000 0.000000 1.680180 
# 
# From -- ./inp_files/35416.got.cif
#   From: 2010.05.17/outbox.cif.g08.bks.cpg/sg63_18_cif.got.tgz:35416.got - 2010.06.03 15:47:04.
