data_PCOD9474072
_publ_section_title
;
Structure prediction by ZEFSAII (Michael W. Deem and Ramdas Pophale) SiO2 
 PCOD9474072
Probable space group: C M C M
;
_chemical_formula_sum "Si O2"
_cell_formula_units_Z 96
_cell_length_a 21.874227
_cell_length_b 12.488195
_cell_length_c 17.949533
_cell_angle_alpha 90.000000
_cell_angle_beta 90.000000
_cell_angle_gamma 90.000000
_cell_volume 4903.266970
_symmetry_space_group_name_H-M "C M C M"
_symmetry_group_IT_number 63
_symmetry_cell_setting 'orthorhombic'
loop_
_space_group_symop_operation_xyz
x,y,z
-x,-y,1/2+z
x,-y,-z
-x,y,1/2-z
-x,-y,-z
x,y,1/2-z
-x,y,z
x,-y,1/2+z
1/2+x,1/2+y,z
1/2-x,1/2-y,1/2+z
1/2+x,1/2-y,-z
1/2-x,1/2+y,1/2-z
1/2-x,1/2-y,-z
1/2+x,1/2+y,1/2-z
1/2-x,1/2+y,z
1/2+x,1/2-y,1/2+z
loop_
_atom_site_type_symbol
_atom_site_label
_atom_site_fract_x
_atom_site_fract_y
_atom_site_fract_z
Si Si1 0.251232 0.805764 0.421933
Si Si2 0.768615 0.108370 0.333597
Si Si3 0.838969 0.430996 0.333523
Si Si4 0.573872 0.721224 0.662407
Si Si5 0.858822 0.030236 0.918839
Si Si6 0.926951 0.438540 0.923096
O O1 0.250000 0.750000 0.500000
O O2 0.237119 0.716816 0.360556
O O3 0.201519 0.897333 0.428745
O O4 0.316818 0.848802 0.396042
O O5 0.790020 0.119151 0.250000
O O6 0.715665 0.018717 0.335325
O O7 0.827990 0.073830 0.380978
O O8 0.841260 0.386621 0.250000
O O9 0.900886 0.487348 0.357454
O O10 0.593052 0.739396 0.750000
O O11 0.500000 0.719017 0.662686
O O12 0.598942 0.607092 0.631859
O O13 0.591862 0.817670 0.604145
O O14 0.884914 0.000000 0.000000
O O15 0.000000 0.437073 0.926280
O O16 0.905933 0.500000 0.000000
#
# Coordination Sequence:
#
# PCOD9474072 Si02
#       6
#    16  16  16  16  16  16
#     4  11  22  35  55  81 115 155 187 230 290 355
#     4  10  21  37  56  83 116 149 192 241 288 347
#     4  10  22  35  56  84 112 151 194 237 286 349
#     4  10  22  41  63  86 116 156 200 245 295 352
#     4  11  22  36  59  88 116 153 196 245 298 346
#     4  10  22  37  59  89 119 152 192 243 295 349
#
# _framework density 19.578782
#
# number of rings (size 3 to 8) (size 9 to 14) (size 15 to 20)
#    0.000    1.667    1.667    2.500    4.667    4.667 
#    0.000    0.000    0.000    1.000    0.000    0.000 
#    0.000    0.000    0.000    0.000    0.000    0.000 
#
# Total GULP energy -267324.514122 kJ/mol
# GULP energy per Si atom -5569.260711 kJ/mol
# Density = 1.953422 g / cm^3
# Si number density = 19.578782 Si / 1000 Ang^3
#
#
#
# Elastic Constant Matrix: (Units=GPa)
#
#
# Indices 1 2 3 4 5 6 
#
# 1 16.7605 6.3709 9.1543 0.0000 0.0000 0.0000
# 2 6.3709 62.8010 28.1943 0.0000 0.0000 0.0000
# 3 9.1543 28.1943 97.3108 0.0000 0.0000 0.0000
# 4 0.0000 0.0000 0.0000 33.3010 0.0000 0.0000
# 5 0.0000 0.0000 0.0000 0.0000 11.3399 0.0000
# 6 0.0000 0.0000 0.0000 0.0000 0.0000 17.5759
#
#
#
# Elastic Compliance Matrix: (Units=1/GPa)
#
#
# Indices 1 2 3 4 5 6 
#
# 1 0.063913 -0.004350 -0.004752 0.000000 0.000000 0.000000
# 2 -0.004350 0.018600 -0.004980 0.000000 0.000000 0.000000
# 3 -0.004752 -0.004980 0.012166 0.000000 0.000000 0.000000
# 4 0.000000 0.000000 0.000000 0.030029 0.000000 0.000000
# 5 0.000000 0.000000 0.000000 0.000000 0.088184 0.000000
# 6 0.000000 0.000000 0.000000 0.000000 0.000000 0.056896
#
#
# Mechanical properties :
#
#
# Convention : Reuss Voigt Hill
#
# Bulk Modulus (GPa) = 15.03416 29.36792 22.20104
# Shear Modulus (GPa) = 15.61888 21.32021 18.46954
#
# Velocity S-wave (km/s) = 2.82750 3.30350 3.07472
# Velocity P-wave (km/s) = 4.28429 5.43905 4.89583
#
# Compressibility (1/GPa) = 0.06651520
#
# Stress axis : x y z
#
# Youngs Moduli (GPa) = 15.64622 53.76238 82.19458
#
# Poissons Ratio (x) = 0.23388 0.39059
# Poissons Ratio (y) = 0.06807 0.40932
# Poissons Ratio (z) = 0.07435 0.26773
#
# Static dielectric constant tensor:
#      x y z
#    x 1.654330 0.000000 0.000000 
#    y 0.000000 1.733830 0.000000 
#    z 0.000000 0.000000 1.721090 
# 
# From -- ./inp_files/48039.got.cif
#   From: 2010.05.17/outbox.cif.g08.bks.cpg/sg63_25_cif.got.tgz:48039.got - 2010.06.03 15:47:04.
