data_PCOD9474403
_publ_section_title
;
Structure prediction by ZEFSAII (Michael W. Deem and Ramdas Pophale) SiO2 
 PCOD9474403
Probable space group: C M C M
;
_chemical_formula_sum "Si O2"
_cell_formula_units_Z 100
_cell_length_a 33.515422
_cell_length_b 19.317315
_cell_length_c 7.382917
_cell_angle_alpha 90.000000
_cell_angle_beta 90.000000
_cell_angle_gamma 90.000000
_cell_volume 4779.906923
_symmetry_space_group_name_H-M "C M C M"
_symmetry_group_IT_number 63
_symmetry_cell_setting 'orthorhombic'
loop_
_space_group_symop_operation_xyz
x,y,z
-x,-y,1/2+z
x,-y,-z
-x,y,1/2-z
-x,-y,-z
x,y,1/2-z
-x,y,z
x,-y,1/2+z
1/2+x,1/2+y,z
1/2-x,1/2-y,1/2+z
1/2+x,1/2-y,-z
1/2-x,1/2+y,1/2-z
1/2-x,1/2-y,-z
1/2+x,1/2+y,1/2-z
1/2-x,1/2+y,z
1/2+x,1/2-y,1/2+z
loop_
_atom_site_type_symbol
_atom_site_label
_atom_site_fract_x
_atom_site_fract_y
_atom_site_fract_z
Si Si1 0.794746 0.676984 0.968153
Si Si2 0.500000 0.279201 0.250000
Si Si3 0.368749 0.418715 0.965900
Si Si4 0.381100 0.836953 0.032884
Si Si5 0.543032 0.918220 0.033508
Si Si6 0.072622 0.801462 0.967446
Si Si7 0.207402 0.835443 0.964082
O O1 0.796226 0.679115 0.750000
O O2 0.836794 0.646703 0.033795
O O3 0.793669 0.756698 0.036481
O O4 0.753118 0.640615 0.013834
O O5 0.464851 0.282972 0.409396
O O6 0.368282 0.410126 0.750000
O O7 0.406948 0.373809 0.024646
O O8 0.327512 0.384614 0.036443
O O9 0.371296 0.500000 0.000000
O O10 0.380349 0.848354 0.250000
O O11 0.417975 0.881215 0.959568
O O12 0.393263 0.757136 0.006724
O O13 0.542271 0.907130 0.250000
O O14 0.500000 0.892718 0.961794
O O15 0.545075 0.000000 0.000000
O O16 0.063150 0.801787 0.750000
O O17 0.200418 0.829261 0.750000
#
# Coordination Sequence:
#
# PCOD9474403 Si02
#       7
#    16   4  16  16  16  16  16
#     4   9  16  30  53  81 110 145 186 230 284 344
#     4  12  26  40  62  98 120 148 208 252 312 380
#     4  10  21  38  63  84 115 158 200 247 305 359
#     4   9  17  34  59  80 111 155 194 234 297 360
#     4   9  18  33  52  76 102 141 187 230 281 346
#     4  10  22  43  63  87 123 158 197 255 310 362
#     4   9  17  32  51  81 113 145 185 231 287 341
#
# _framework density 20.920909999999999
#
# number of rings (size 3 to 8) (size 9 to 14) (size 15 to 20)
#    0.000    2.560    1.600    0.240    2.240    0.640 
#    2.880    1.200    0.000    3.840    0.000    0.000 
#    0.000    0.000    0.000    0.000    0.000    0.000 
#
# Total GULP energy -278370.288118 kJ/mol
# GULP energy per Si atom -5567.405762 kJ/mol
# Density = 2.087329 g / cm^3
# Si number density = 20.920910 Si / 1000 Ang^3
#
#
#
# Elastic Constant Matrix: (Units=GPa)
#
#
# Indices 1 2 3 4 5 6 
#
# 1 107.3457 -0.2811 6.4286 0.0000 0.0000 0.0000
# 2 -0.2811 25.7035 -9.5222 0.0000 0.0000 0.0000
# 3 6.4286 -9.5222 90.1288 0.0000 0.0000 0.0000
# 4 0.0000 0.0000 0.0000 14.3186 0.0000 0.0000
# 5 0.0000 0.0000 0.0000 0.0000 12.0346 0.0000
# 6 0.0000 0.0000 0.0000 0.0000 0.0000 21.5442
#
#
#
# Elastic Compliance Matrix: (Units=1/GPa)
#
#
# Indices 1 2 3 4 5 6 
#
# 1 0.009356 -0.000151 -0.000683 0.000000 0.000000 0.000000
# 2 -0.000151 0.040492 0.004289 0.000000 0.000000 0.000000
# 3 -0.000683 0.004289 0.011597 0.000000 0.000000 0.000000
# 4 0.000000 0.000000 0.000000 0.069839 0.000000 0.000000
# 5 0.000000 0.000000 0.000000 0.000000 0.083094 0.000000
# 6 0.000000 0.000000 0.000000 0.000000 0.000000 0.046416
#
#
# Mechanical properties :
#
#
# Convention : Reuss Voigt Hill
#
# Bulk Modulus (GPa) = 14.62947 24.04761 19.33854
# Shear Modulus (GPa) = 18.07205 24.68300 21.37752
#
# Velocity S-wave (km/s) = 2.94228 3.43858 3.20007
# Velocity P-wave (km/s) = 4.30704 5.22347 4.78724
#
# Compressibility (1/GPa) = 0.06835519
#
# Stress axis : x y z
#
# Youngs Moduli (GPa) = 106.88075 24.69600 86.22851
#
# Poissons Ratio (x) = 0.00372 0.05892
# Poissons Ratio (y) = 0.01612 -0.36982
# Poissons Ratio (z) = 0.07303 -0.10592
#
# Static dielectric constant tensor:
#      x y z
#    x 1.786860 0.000000 0.000000 
#    y 0.000000 1.753820 0.000000 
#    z 0.000000 0.000000 1.845270 
# 
# From -- ./inp_files/14452.got.cif
#   From: 2010.05.17/outbox.cif.g08.bks.cpg/sg63_8_cif.got.tgz:14452.got - 2010.06.03 15:47:04.
