data_PCOD9474232
_publ_section_title
;
Structure prediction by ZEFSAII (Michael W. Deem and Ramdas Pophale) SiO2 
 PCOD9474232
Probable space group: C M C M
;
_chemical_formula_sum "Si O2"
_cell_formula_units_Z 116
_cell_length_a 17.118529
_cell_length_b 15.908564
_cell_length_c 22.877719
_cell_angle_alpha 90.000000
_cell_angle_beta 90.000000
_cell_angle_gamma 90.000000
_cell_volume 6230.316993
_symmetry_space_group_name_H-M "C M C M"
_symmetry_group_IT_number 63
_symmetry_cell_setting 'orthorhombic'
loop_
_space_group_symop_operation_xyz
x,y,z
-x,-y,1/2+z
x,-y,-z
-x,y,1/2-z
-x,-y,-z
x,y,1/2-z
-x,y,z
x,-y,1/2+z
1/2+x,1/2+y,z
1/2-x,1/2-y,1/2+z
1/2+x,1/2-y,-z
1/2-x,1/2+y,1/2-z
1/2-x,1/2-y,-z
1/2+x,1/2+y,1/2-z
1/2-x,1/2+y,z
1/2+x,1/2-y,1/2+z
loop_
_atom_site_type_symbol
_atom_site_label
_atom_site_fract_x
_atom_site_fract_y
_atom_site_fract_z
Si Si1 0.592580 0.907041 0.517512
Si Si2 0.411918 0.362893 0.041353
Si Si3 0.355436 0.362291 0.918936
Si Si4 0.133893 0.026017 0.650104
Si Si5 0.088191 0.315233 0.393946
Si Si6 0.242459 0.668016 0.681265
Si Si7 0.809561 0.287728 0.587813
Si Si8 0.500000 0.480527 0.250000
O O1 0.500000 0.912152 0.528599
O O2 0.604036 0.850101 0.459415
O O3 0.634296 0.866301 0.573624
O O4 0.621547 0.000000 0.500000
O O5 0.500000 0.328454 0.041925
O O6 0.401465 0.428720 0.092967
O O7 0.351140 0.288554 0.054433
O O8 0.393393 0.398128 0.977590
O O9 0.341902 0.433390 0.870928
O O10 0.408372 0.285902 0.896275
O O11 0.273654 0.318673 0.935088
O O12 0.205322 0.085085 0.670480
O O13 0.068465 0.021076 0.699275
O O14 0.159225 0.341056 0.351649
O O15 0.000000 0.342583 0.377580
O O16 0.232125 0.682023 0.750000
O O17 0.288663 0.746564 0.650820
#
# Coordination Sequence:
#
# PCOD9474232 Si02
#       8
#    16  16  16  16  16  16  16   4
#     4  10  21  37  62  96 129 162 204 259 324 390
#     4  11  21  36  62  90 123 155 204 253 318 373
#     4  11  23  37  58  94 131 158 201 258 316 386
#     4  11  25  40  62  90 121 173 203 261 308 376
#     4  10  22  40  64  93 126 163 207 258 320 381
#     4  10  23  44  61  87 125 163 220 263 306 371
#     4  10  22  38  61  90 122 166 201 254 321 371
#     4  12  24  48  58  88 134 164 230 242 320 360
#
# _framework density 18.618635000000001
#
# number of rings (size 3 to 8) (size 9 to 14) (size 15 to 20)
#    0.000    1.517    2.759    1.655    7.724    0.828 
#    4.966    0.000    0.000    0.000    0.000    0.000 
#    0.000    0.000    0.000    0.000    0.000    0.000 
#
# Total GULP energy -322959.095177 kJ/mol
# GULP energy per Si atom -5568.260262 kJ/mol
# Density = 1.857626 g / cm^3
# Si number density = 18.618635 Si / 1000 Ang^3
#
#
#
# Elastic Constant Matrix: (Units=GPa)
#
#
# Indices 1 2 3 4 5 6 
#
# 1 127.5604 33.3717 58.0721 0.0000 0.0000 0.0000
# 2 33.3717 84.8728 26.0173 0.0000 0.0000 0.0000
# 3 58.0721 26.0173 100.4764 0.0000 0.0000 0.0000
# 4 0.0000 0.0000 0.0000 10.9317 0.0000 0.0000
# 5 0.0000 0.0000 0.0000 0.0000 20.6649 0.0000
# 6 0.0000 0.0000 0.0000 0.0000 0.0000 27.7663
#
#
#
# Elastic Compliance Matrix: (Units=1/GPa)
#
#
# Indices 1 2 3 4 5 6 
#
# 1 0.011149 -0.002616 -0.005766 0.000000 0.000000 0.000000
# 2 -0.002616 0.013412 -0.001961 0.000000 0.000000 0.000000
# 3 -0.005766 -0.001961 0.013793 0.000000 0.000000 0.000000
# 4 0.000000 0.000000 0.000000 0.091477 0.000000 0.000000
# 5 0.000000 0.000000 0.000000 0.000000 0.048391 0.000000
# 6 0.000000 0.000000 0.000000 0.000000 0.000000 0.036015
#
#
# Mechanical properties :
#
#
# Convention : Reuss Voigt Hill
#
# Bulk Modulus (GPa) = 56.60112 60.87019 58.73565
# Shear Modulus (GPa) = 20.76297 24.90248 22.83272
#
# Velocity S-wave (km/s) = 3.34304 3.66116 3.50571
# Velocity P-wave (km/s) = 6.73554 7.11591 6.92834
#
# Compressibility (1/GPa) = 0.01766749
#
# Stress axis : x y z
#
# Youngs Moduli (GPa) = 89.69442 74.55966 72.50005
#
# Poissons Ratio (x) = 0.19506 0.41806
# Poissons Ratio (y) = 0.23465 0.14216
# Poissons Ratio (z) = 0.51721 0.14620
#
# Static dielectric constant tensor:
#      x y z
#    x 1.654220 0.000000 0.000000 
#    y 0.000000 1.672930 0.000000 
#    z 0.000000 0.000000 1.617400 
# 
# From -- ./inp_files/63952.got.cif
#   From: 2010.05.17/outbox.cif.g08.bks.cpg/sg63_32_cif.got.tgz:63952.got - 2010.06.03 15:47:04.
