data_PCOD9474528
_publ_section_title
;
Structure prediction by ZEFSAII (Michael W. Deem and Ramdas Pophale) SiO2 
 PCOD9474528
Probable space group: C M C M
;
_chemical_formula_sum "Si O2"
_cell_formula_units_Z 84
_cell_length_a 12.394966
_cell_length_b 14.142496
_cell_length_c 22.391756
_cell_angle_alpha 90.000000
_cell_angle_beta 90.000000
_cell_angle_gamma 90.000000
_cell_volume 3925.179820
_symmetry_space_group_name_H-M "C M C M"
_symmetry_group_IT_number 63
_symmetry_cell_setting 'orthorhombic'
loop_
_space_group_symop_operation_xyz
x,y,z
-x,-y,1/2+z
x,-y,-z
-x,y,1/2-z
-x,-y,-z
x,y,1/2-z
-x,y,z
x,-y,1/2+z
1/2+x,1/2+y,z
1/2-x,1/2-y,1/2+z
1/2+x,1/2-y,-z
1/2-x,1/2+y,1/2-z
1/2-x,1/2-y,-z
1/2+x,1/2+y,1/2-z
1/2-x,1/2+y,z
1/2+x,1/2-y,1/2+z
loop_
_atom_site_type_symbol
_atom_site_label
_atom_site_fract_x
_atom_site_fract_y
_atom_site_fract_z
Si Si1 0.500000 0.510577 0.750000
Si Si2 0.276399 0.212037 0.318458
Si Si3 0.119427 0.512760 0.178245
Si Si4 0.839666 0.084576 0.652736
Si Si5 0.204890 0.898514 0.476578
Si Si6 0.125020 0.752911 0.571508
O O1 0.406818 0.519358 0.697101
O O2 0.239108 0.202242 0.250000
O O3 0.347318 0.120841 0.334529
O O4 0.345852 0.307966 0.323683
O O5 0.179451 0.221964 0.365113
O O6 0.117198 0.502732 0.250000
O O7 0.214951 0.447248 0.155598
O O8 0.000000 0.491138 0.155061
O O9 0.866222 0.085471 0.582936
O O10 0.141764 0.842108 0.527698
O O11 0.304479 0.831496 0.457318
O O12 0.241479 0.000000 0.500000
O O13 0.000000 0.729756 0.577462
#
# Coordination Sequence:
#
# PCOD9474528 Si02
#       6
#     4  16  16  16  16  16
#     4  12  24  40  64 100 140 166 208 274 326 392
#     4  10  21  40  64  96 129 167 217 260 326 388
#     4  10  21  39  63  91 128 168 218 267 317 383
#     4  11  23  41  65  98 131 168 214 269 323 385
#     4  10  23  45  65  90 126 170 224 261 313 399
#     4  10  23  43  64  95 132 166 216 276 321 379
#
# _framework density 21.400292
#
# number of rings (size 3 to 8) (size 9 to 14) (size 15 to 20)
#    0.000    1.714    1.905    1.143    2.667    4.190 
#    5.143    6.667    0.000    0.000    0.000    0.000 
#    0.000    0.000    0.000    0.000    0.000    0.000 
#
# Total GULP energy -234270.988431 kJ/mol
# GULP energy per Si atom -5577.880677 kJ/mol
# Density = 2.135158 g / cm^3
# Si number density = 21.400292 Si / 1000 Ang^3
#
#
#
# Elastic Constant Matrix: (Units=GPa)
#
#
# Indices 1 2 3 4 5 6 
#
# 1 116.1453 7.0382 36.1475 0.0000 0.0000 0.0000
# 2 7.0382 88.7458 18.9790 0.0000 0.0000 0.0000
# 3 36.1475 18.9790 115.8294 0.0000 0.0000 0.0000
# 4 0.0000 0.0000 0.0000 38.2810 0.0000 0.0000
# 5 0.0000 0.0000 0.0000 0.0000 87.7665 0.0000
# 6 0.0000 0.0000 0.0000 0.0000 0.0000 -13.9736
#
#
#
# Elastic Compliance Matrix: (Units=1/GPa)
#
#
# Indices 1 2 3 4 5 6 
#
# 1 0.009537 -0.000124 -0.002956 0.000000 0.000000 0.000000
# 2 -0.000124 0.011679 -0.001875 0.000000 0.000000 0.000000
# 3 -0.002956 -0.001875 0.009863 0.000000 0.000000 0.000000
# 4 0.000000 0.000000 0.000000 0.026123 0.000000 0.000000
# 5 0.000000 0.000000 0.000000 0.000000 0.011394 0.000000
# 6 0.000000 0.000000 0.000000 0.000000 0.000000 -0.071564
#
#
# Mechanical properties :
#
#
# Convention : Reuss Voigt Hill
#
# Bulk Modulus (GPa) = 47.23838 49.44998 48.34418
# Shear Modulus (GPa) = 357.16954 39.65184 198.41069
#
# Velocity S-wave (km/s) = 12.93297 4.30916 9.63926
# Velocity P-wave (km/s) = 15.65686 6.92212 12.10481
#
# Compressibility (1/GPa) = 0.02116923
#
# Stress axis : x y z
#
# Youngs Moduli (GPa) = 104.85006 85.62419 101.38803
#
# Poissons Ratio (x) = 0.01064 0.29971
# Poissons Ratio (y) = 0.01302 0.19009
# Poissons Ratio (z) = 0.30994 0.16053
#
# Static dielectric constant tensor:
#      x y z
#    x 1.754770 0.000000 0.000000 
#    y 0.000000 1.791280 0.000000 
#    z 0.000000 0.000000 1.794580 
# 
# From -- ./inp_files/61246.got.cif
#   From: 2010.05.17/outbox.cif.g08.bks.cpg/sg63_31_cif.got.tgz:61246.got - 2010.06.03 15:47:04.
