data_PCOD9474252
_publ_section_title
;
Structure prediction by ZEFSAII (Michael W. Deem and Ramdas Pophale) SiO2 
 PCOD9474252
Probable space group: C M C M
;
_chemical_formula_sum "Si O2"
_cell_formula_units_Z 80
_cell_length_a 18.540328
_cell_length_b 28.300480
_cell_length_c 8.693499
_cell_angle_alpha 90.000000
_cell_angle_beta 90.000000
_cell_angle_gamma 90.000000
_cell_volume 4561.480505
_symmetry_space_group_name_H-M "C M C M"
_symmetry_group_IT_number 63
_symmetry_cell_setting 'orthorhombic'
loop_
_space_group_symop_operation_xyz
x,y,z
-x,-y,1/2+z
x,-y,-z
-x,y,1/2-z
-x,-y,-z
x,y,1/2-z
-x,y,z
x,-y,1/2+z
1/2+x,1/2+y,z
1/2-x,1/2-y,1/2+z
1/2+x,1/2-y,-z
1/2-x,1/2+y,1/2-z
1/2-x,1/2-y,-z
1/2+x,1/2+y,1/2-z
1/2-x,1/2+y,z
1/2+x,1/2-y,1/2+z
loop_
_atom_site_type_symbol
_atom_site_label
_atom_site_fract_x
_atom_site_fract_y
_atom_site_fract_z
Si Si1 0.208128 0.150051 0.565123
Si Si2 0.228125 0.549926 0.934400
Si Si3 0.853936 0.308703 0.566186
Si Si4 0.919385 0.403717 0.064108
Si Si5 0.583937 0.288750 0.934408
O O1 0.209897 0.153237 0.750000
O O2 0.225357 0.095844 0.520378
O O3 0.273927 0.181220 0.498647
O O4 0.133749 0.169881 0.501036
O O5 0.229103 0.547375 0.750000
O O6 0.145693 0.561858 0.983277
O O7 0.251967 0.500000 0.000000
O O8 0.852044 0.307368 0.750000
O O9 0.901851 0.352811 0.508284
O O10 0.885854 0.260328 0.501218
O O11 0.915742 0.398798 0.250000
O O12 0.000000 0.419332 0.022536
O O13 0.589914 0.287670 0.750000
O O14 0.500000 0.294098 0.975779
#
# Coordination Sequence:
#
# PCOD9474252 Si02
#       5
#    16  16  16  16  16
#     4  10  21  38  57  77 104 137 174 214 256 303
#     4   9  19  34  53  76 100 131 170 214 263 310
#     4  11  21  33  52  78 108 142 179 213 248 297
#     4   9  18  33  50  71 105 144 178 214 256 300
#     4  11  23  37  54  78 108 139 170 209 258 307
#
# _framework density 17.538164999999999
#
# number of rings (size 3 to 8) (size 9 to 14) (size 15 to 20)
#    0.000    2.000    0.000    5.400    0.000    8.800 
#    0.000    0.000    0.000    0.600    0.000    0.000 
#    0.000    0.000    0.000    0.000    0.000    0.000 
#
# Total GULP energy -223380.864857 kJ/mol
# GULP energy per Si atom -5584.521621 kJ/mol
# Density = 1.749825 g / cm^3
# Si number density = 17.538165 Si / 1000 Ang^3
#
#
#
# Elastic Constant Matrix: (Units=GPa)
#
#
# Indices 1 2 3 4 5 6 
#
# 1 106.0788 57.5104 31.1436 0.0000 0.0000 0.0000
# 2 57.5104 87.3342 15.7903 0.0000 0.0000 0.0000
# 3 31.1436 15.7903 38.1130 0.0000 0.0000 0.0000
# 4 0.0000 0.0000 0.0000 24.3828 0.0000 0.0000
# 5 0.0000 0.0000 0.0000 0.0000 26.2257 0.0000
# 6 0.0000 0.0000 0.0000 0.0000 0.0000 4.8924
#
#
#
# Elastic Compliance Matrix: (Units=1/GPa)
#
#
# Indices 1 2 3 4 5 6 
#
# 1 0.017857 -0.009859 -0.010507 0.000000 0.000000 0.000000
# 2 -0.009859 0.017821 0.000673 0.000000 0.000000 0.000000
# 3 -0.010507 0.000673 0.034544 0.000000 0.000000 0.000000
# 4 0.000000 0.000000 0.000000 0.041013 0.000000 0.000000
# 5 0.000000 0.000000 0.000000 0.000000 0.038131 0.000000
# 6 0.000000 0.000000 0.000000 0.000000 0.000000 0.204400
#
#
# Mechanical properties :
#
#
# Convention : Reuss Voigt Hill
#
# Bulk Modulus (GPa) = 32.42933 48.93496 40.68214
# Shear Modulus (GPa) = 12.39374 19.57228 15.98301
#
# Velocity S-wave (km/s) = 2.66122 3.34426 3.02210
# Velocity P-wave (km/s) = 5.28901 6.54787 5.95182
#
# Compressibility (1/GPa) = 0.03083629
#
# Stress axis : x y z
#
# Youngs Moduli (GPa) = 56.00132 56.11377 28.94832
#
# Poissons Ratio (x) = 0.55324 0.30415
# Poissons Ratio (y) = 0.55213 -0.01948
# Poissons Ratio (z) = 0.58839 -0.03777
#
# Static dielectric constant tensor:
#      x y z
#    x 1.599770 0.000000 0.000000 
#    y 0.000000 1.577920 0.000000 
#    z 0.000000 0.000000 1.587520 
# 
# From -- ./inp_files/6343.got.cif
#   From: 2010.05.17/outbox.cif.g08.bks.cpg/sg63_4_cif.got.tgz:6343.got - 2010.06.03 15:47:04.
