data_PCOD9474773
_publ_section_title
;
Structure prediction by ZEFSAII (Michael W. Deem and Ramdas Pophale) SiO2 
 PCOD9474773
Probable space group: C M C M
;
_chemical_formula_sum "Si O2"
_cell_formula_units_Z 96
_cell_length_a 21.336742
_cell_length_b 27.237740
_cell_length_c 8.115345
_cell_angle_alpha 90.000000
_cell_angle_beta 90.000000
_cell_angle_gamma 90.000000
_cell_volume 4716.351483
_symmetry_space_group_name_H-M "C M C M"
_symmetry_group_IT_number 63
_symmetry_cell_setting 'orthorhombic'
loop_
_space_group_symop_operation_xyz
x,y,z
-x,-y,1/2+z
x,-y,-z
-x,y,1/2-z
-x,-y,-z
x,y,1/2-z
-x,y,z
x,-y,1/2+z
1/2+x,1/2+y,z
1/2-x,1/2-y,1/2+z
1/2+x,1/2-y,-z
1/2-x,1/2+y,1/2-z
1/2-x,1/2-y,-z
1/2+x,1/2+y,1/2-z
1/2-x,1/2+y,z
1/2+x,1/2-y,1/2+z
loop_
_atom_site_type_symbol
_atom_site_label
_atom_site_fract_x
_atom_site_fract_y
_atom_site_fract_z
Si Si1 0.391048 0.284079 0.556506
Si Si2 0.570678 0.827474 0.447734
Si Si3 0.687481 0.110464 0.434946
Si Si4 0.432561 0.383451 0.447029
Si Si5 0.261591 0.696362 0.934926
Si Si6 0.308740 0.555886 0.447658
O O1 0.372624 0.280361 0.750000
O O2 0.410841 0.228921 0.503566
O O3 0.435745 0.330406 0.535678
O O4 0.335433 0.304593 0.443818
O O5 0.568459 0.826097 0.250000
O O6 0.500000 0.837664 0.509306
O O7 0.621869 0.868958 0.493434
O O8 0.674149 0.093532 0.250000
O O9 0.729387 0.159497 0.441236
O O10 0.739606 0.073713 0.513359
O O11 0.430311 0.376737 0.250000
O O12 0.500000 0.408911 0.484847
O O13 0.369306 0.412551 0.497236
O O14 0.237647 0.687579 0.750000
O O15 0.250000 0.750000 0.000000
O O16 0.318249 0.500000 0.500000
O O17 0.305275 0.560423 0.250000
#
# Coordination Sequence:
#
# PCOD9474773 Si02
#       6
#    16  16  16  16  16  16
#     4  11  21  35  56  85 122 165 207 245 286 341
#     4  10  22  38  58  87 124 166 205 243 293 353
#     4  11  23  39  61  88 117 155 198 246 302 361
#     4  11  24  40  60  88 123 164 207 248 295 351
#     4  12  22  33  54  84 118 158 201 246 290 345
#     4  11  25  44  67  91 116 148 196 252 311 369
#
# _framework density 20.354717999999998
#
# number of rings (size 3 to 8) (size 9 to 14) (size 15 to 20)
#    0.000    1.000    3.333    4.000    0.000    5.333 
#    0.000    0.000    0.000    0.500    0.000    0.000 
#    0.000    0.000    0.000    0.000    0.000    0.000 
#
# Total GULP energy -267340.293825 kJ/mol
# GULP energy per Si atom -5569.589455 kJ/mol
# Density = 2.030839 g / cm^3
# Si number density = 20.354718 Si / 1000 Ang^3
#
#
#
# Elastic Constant Matrix: (Units=GPa)
#
#
# Indices 1 2 3 4 5 6 
#
# 1 161.7886 45.8504 15.2535 0.0000 0.0000 0.0000
# 2 45.8504 83.9318 4.2899 0.0000 0.0000 0.0000
# 3 15.2535 4.2899 56.9305 0.0000 0.0000 0.0000
# 4 0.0000 0.0000 0.0000 20.1455 0.0000 0.0000
# 5 0.0000 0.0000 0.0000 0.0000 6.8939 0.0000
# 6 0.0000 0.0000 0.0000 0.0000 0.0000 17.6378
#
#
#
# Elastic Compliance Matrix: (Units=1/GPa)
#
#
# Indices 1 2 3 4 5 6 
#
# 1 0.007474 -0.003996 -0.001701 0.000000 0.000000 0.000000
# 2 -0.003996 0.014097 0.000008 0.000000 0.000000 0.000000
# 3 -0.001701 0.000008 0.018020 0.000000 0.000000 0.000000
# 4 0.000000 0.000000 0.000000 0.049639 0.000000 0.000000
# 5 0.000000 0.000000 0.000000 0.000000 0.145055 0.000000
# 6 0.000000 0.000000 0.000000 0.000000 0.000000 0.056697
#
#
# Mechanical properties :
#
#
# Convention : Reuss Voigt Hill
#
# Bulk Modulus (GPa) = 35.44405 48.15982 41.80193
# Shear Modulus (GPa) = 16.03781 24.75259 20.39520
#
# Velocity S-wave (km/s) = 2.81003 3.49099 3.16886
# Velocity P-wave (km/s) = 5.28955 6.32147 5.82839
#
# Compressibility (1/GPa) = 0.02821348
#
# Stress axis : x y z
#
# Youngs Moduli (GPa) = 133.80248 70.93793 55.49239
#
# Poissons Ratio (x) = 0.28345 0.09441
# Poissons Ratio (y) = 0.53465 -0.00046
# Poissons Ratio (z) = 0.22764 -0.00059
#
# Static dielectric constant tensor:
#      x y z
#    x 1.947490 0.000000 0.000000 
#    y 0.000000 1.664390 0.000000 
#    z 0.000000 0.000000 1.807570 
# 
# From -- ./inp_files/8548.got.cif
#   From: 2010.05.17/outbox.cif.g08.bks.cpg/sg63_5_cif.got.tgz:8548.got - 2010.06.03 15:47:04.
