data_PCOD9474035
_publ_section_title
;
Structure prediction by ZEFSAII (Michael W. Deem and Ramdas Pophale) SiO2 
 PCOD9474035
Probable space group: C M C M
;
_chemical_formula_sum "Si O2"
_cell_formula_units_Z 80
_cell_length_a 9.271347
_cell_length_b 26.378057
_cell_length_c 17.362578
_cell_angle_alpha 90.000000
_cell_angle_beta 90.000000
_cell_angle_gamma 90.000000
_cell_volume 4246.194153
_symmetry_space_group_name_H-M "C M C M"
_symmetry_group_IT_number 63
_symmetry_cell_setting 'orthorhombic'
loop_
_space_group_symop_operation_xyz
x,y,z
-x,-y,1/2+z
x,-y,-z
-x,y,1/2-z
-x,-y,-z
x,y,1/2-z
-x,y,z
x,-y,1/2+z
1/2+x,1/2+y,z
1/2-x,1/2-y,1/2+z
1/2+x,1/2-y,-z
1/2-x,1/2+y,1/2-z
1/2-x,1/2-y,-z
1/2+x,1/2+y,1/2-z
1/2-x,1/2+y,z
1/2+x,1/2-y,1/2+z
loop_
_atom_site_type_symbol
_atom_site_label
_atom_site_fract_x
_atom_site_fract_y
_atom_site_fract_z
Si Si1 0.835220 0.801917 0.588454
Si Si2 0.671712 0.897429 0.104465
Si Si3 0.166432 0.991909 0.337060
Si Si4 0.665506 0.703741 0.599573
Si Si5 0.827406 0.911970 0.557846
O O1 0.732278 0.758208 0.619644
O O2 0.831398 0.799150 0.494491
O O3 0.797756 0.860320 0.605340
O O4 0.000000 0.791843 0.611976
O O5 0.500000 0.894505 0.104153
O O6 0.731269 0.943809 0.154233
O O7 0.740488 0.843555 0.127978
O O8 0.734299 0.909395 0.019285
O O9 0.172503 0.011559 0.250000
O O10 0.000000 0.976058 0.352613
O O11 0.201997 0.037046 0.395497
O O12 0.500000 0.698896 0.623758
O O13 0.000000 0.910650 0.539232
#
# Coordination Sequence:
#
# PCOD9474035 Si02
#       5
#    16  16  16  16  16
#     4   8  14  25  43  70 101 129 158 198 247 293
#     4  11  21  32  50  76 104 133 167 208 251 293
#     4  10  21  37  55  73  97 132 170 207 250 300
#     4   9  16  27  45  70 100 132 164 200 245 295
#     4   9  18  33  53  76 102 132 167 205 247 299
#
# _framework density 18.840399999999999
#
# number of rings (size 3 to 8) (size 9 to 14) (size 15 to 20)
#    0.000    2.600    0.000    4.200    0.000    8.400 
#    0.000    0.000    0.000    1.200    0.000    2.800 
#    0.000    0.000    0.000    0.000    0.000    0.000 
#
# Total GULP energy -223104.896403 kJ/mol
# GULP energy per Si atom -5577.622410 kJ/mol
# Density = 1.879752 g / cm^3
# Si number density = 18.840400 Si / 1000 Ang^3
#
#
#
# Elastic Constant Matrix: (Units=GPa)
#
#
# Indices 1 2 3 4 5 6 
#
# 1 93.1621 52.6557 13.3388 0.0000 0.0000 0.0000
# 2 52.6557 99.0472 11.2324 0.0000 0.0000 0.0000
# 3 13.3388 11.2324 14.4277 0.0000 0.0000 0.0000
# 4 0.0000 0.0000 0.0000 -2.3066 0.0000 0.0000
# 5 0.0000 0.0000 0.0000 0.0000 2.9244 0.0000
# 6 0.0000 0.0000 0.0000 0.0000 0.0000 35.1247
#
#
#
# Elastic Compliance Matrix: (Units=1/GPa)
#
#
# Indices 1 2 3 4 5 6 
#
# 1 0.016382 -0.007668 -0.009175 0.000000 0.000000 0.000000
# 2 -0.007668 0.014664 -0.004326 0.000000 0.000000 0.000000
# 3 -0.009175 -0.004326 0.081162 0.000000 0.000000 0.000000
# 4 0.000000 0.000000 0.000000 -0.433542 0.000000 0.000000
# 5 0.000000 0.000000 0.000000 0.000000 0.341953 0.000000
# 6 0.000000 0.000000 0.000000 0.000000 0.000000 0.028470
#
#
# Mechanical properties :
#
#
# Convention : Reuss Voigt Hill
#
# Bulk Modulus (GPa) = 14.31288 40.12121 27.21704
# Shear Modulus (GPa) = 43.58529 15.77585 29.68057
#
# Velocity S-wave (km/s) = 4.81499 2.89682 3.97340
# Velocity P-wave (km/s) = 6.20690 5.70354 5.96053
#
# Compressibility (1/GPa) = 0.06986714
#
# Stress axis : x y z
#
# Youngs Moduli (GPa) = 61.04272 68.19625 12.32104
#
# Poissons Ratio (x) = 0.52296 0.11305
# Poissons Ratio (y) = 0.46811 0.05330
# Poissons Ratio (z) = 0.56009 0.29504
#
# Static dielectric constant tensor:
#      x y z
#    x 1.632630 0.000000 0.000000 
#    y 0.000000 1.665320 0.000000 
#    z 0.000000 0.000000 1.659450 
# 
# From -- ./inp_files/40541.got.cif
#   From: 2010.05.17/outbox.cif.g08.bks.cpg/sg63_21_cif.got.tgz:40541.got - 2010.06.03 15:47:04.
