data_PCOD9474990
_publ_section_title
;
Structure prediction by ZEFSAII (Michael W. Deem and Ramdas Pophale) SiO2 
 PCOD9474990
Probable space group: C M C M
;
_chemical_formula_sum "Si O2"
_cell_formula_units_Z 48
_cell_length_a 13.817168
_cell_length_b 7.912052
_cell_length_c 18.132180
_cell_angle_alpha 90.000000
_cell_angle_beta 90.000000
_cell_angle_gamma 90.000000
_cell_volume 1982.248933
_symmetry_space_group_name_H-M "C M C M"
_symmetry_group_IT_number 63
_symmetry_cell_setting 'orthorhombic'
loop_
_space_group_symop_operation_xyz
x,y,z
-x,-y,1/2+z
x,-y,-z
-x,y,1/2-z
-x,-y,-z
x,y,1/2-z
-x,y,z
x,-y,1/2+z
1/2+x,1/2+y,z
1/2-x,1/2-y,1/2+z
1/2+x,1/2-y,-z
1/2-x,1/2+y,1/2-z
1/2-x,1/2-y,-z
1/2+x,1/2+y,1/2-z
1/2-x,1/2+y,z
1/2+x,1/2-y,1/2+z
loop_
_atom_site_type_symbol
_atom_site_label
_atom_site_fract_x
_atom_site_fract_y
_atom_site_fract_z
Si Si1 0.719255 0.033572 0.163088
Si Si2 0.383953 0.641806 0.597613
Si Si3 0.889691 0.675196 0.547730
O O1 0.723250 0.008746 0.250000
O O2 0.655844 0.198590 0.144611
O O3 0.827366 0.019254 0.129187
O O4 0.667995 0.880047 0.119567
O O5 0.500000 0.631108 0.601740
O O6 0.356652 0.311828 0.486897
O O7 0.890558 0.500000 0.500000
O O8 0.000000 0.716655 0.566949
#
# Coordination Sequence:
#
# PCOD9474990 Si02
#       3
#    16  16  16
#     4  11  21  34  58  88 116 149 188 235 289 336
#     4  10  22  41  61  82 114 154 193 232 278 338
#     4   8  16  33  57  82 110 149 191 230 277 334
#
# _framework density 24.214921
#
# number of rings (size 3 to 8) (size 9 to 14) (size 15 to 20)
#    0.000    2.333    0.000    5.000    0.000    4.667 
#    0.000    3.333    0.000   21.000    0.000    0.000 
#    0.000    0.000    0.000    0.000    0.000    0.000 
#
# Total GULP energy -134296.968886 kJ/mol
# GULP energy per Si atom -5595.707037 kJ/mol
# Density = 2.415981 g / cm^3
# Si number density = 24.214921 Si / 1000 Ang^3
#
#
#
# Elastic Constant Matrix: (Units=GPa)
#
#
# Indices 1 2 3 4 5 6 
#
# 1 148.7091 29.0172 69.5079 0.0000 0.0000 0.0000
# 2 29.0172 132.5550 20.1374 0.0000 0.0000 0.0000
# 3 69.5079 20.1374 198.7289 0.0000 0.0000 0.0000
# 4 0.0000 0.0000 0.0000 20.3629 0.0000 0.0000
# 5 0.0000 0.0000 0.0000 0.0000 1.9817 0.0000
# 6 0.0000 0.0000 0.0000 0.0000 0.0000 36.9613
#
#
#
# Elastic Compliance Matrix: (Units=1/GPa)
#
#
# Indices 1 2 3 4 5 6 
#
# 1 0.008285 -0.001395 -0.002756 0.000000 0.000000 0.000000
# 2 -0.001395 0.007897 -0.000312 0.000000 0.000000 0.000000
# 3 -0.002756 -0.000312 0.006028 0.000000 0.000000 0.000000
# 4 0.000000 0.000000 0.000000 0.049109 0.000000 0.000000
# 5 0.000000 0.000000 0.000000 0.000000 0.504627 0.000000
# 6 0.000000 0.000000 0.000000 0.000000 0.000000 0.027055
#
#
# Mechanical properties :
#
#
# Convention : Reuss Voigt Hill
#
# Bulk Modulus (GPa) = 75.28811 79.70199 77.49505
# Shear Modulus (GPa) = 8.11220 35.94987 22.03104
#
# Velocity S-wave (km/s) = 1.83231 3.85725 3.01958
# Velocity P-wave (km/s) = 5.96956 7.26799 6.65054
#
# Compressibility (1/GPa) = 0.01328231
#
# Stress axis : x y z
#
# Youngs Moduli (GPa) = 120.69827 126.63295 165.89968
#
# Poissons Ratio (x) = 0.17664 0.45730
# Poissons Ratio (y) = 0.16836 0.05181
# Poissons Ratio (z) = 0.33270 0.03955
#
# Static dielectric constant tensor:
#      x y z
#    x 1.945970 0.000000 0.000000 
#    y 0.000000 2.100830 0.000000 
#    z 0.000000 0.000000 1.858910 
# 
# From -- ./inp_files/43138.got.cif
#   From: 2010.05.17/outbox.cif.g08.bks.cpg/sg63_22_cif.got.tgz:43138.got - 2010.06.03 15:47:04.
