data_PCOD9474930
_publ_section_title
;
Structure prediction by ZEFSAII (Michael W. Deem and Ramdas Pophale) SiO2 
 PCOD9474930
Probable space group: C M C M
;
_chemical_formula_sum "Si O2"
_cell_formula_units_Z 72
_cell_length_a 17.988224
_cell_length_b 9.728144
_cell_length_c 17.859014
_cell_angle_alpha 90.000000
_cell_angle_beta 90.000000
_cell_angle_gamma 90.000000
_cell_volume 3125.185174
_symmetry_space_group_name_H-M "C M C M"
_symmetry_group_IT_number 63
_symmetry_cell_setting 'orthorhombic'
loop_
_space_group_symop_operation_xyz
x,y,z
-x,-y,1/2+z
x,-y,-z
-x,y,1/2-z
-x,-y,-z
x,y,1/2-z
-x,y,z
x,-y,1/2+z
1/2+x,1/2+y,z
1/2-x,1/2-y,1/2+z
1/2+x,1/2-y,-z
1/2-x,1/2+y,1/2-z
1/2-x,1/2-y,-z
1/2+x,1/2+y,1/2-z
1/2-x,1/2+y,z
1/2+x,1/2-y,1/2+z
loop_
_atom_site_type_symbol
_atom_site_label
_atom_site_fract_x
_atom_site_fract_y
_atom_site_fract_z
Si Si1 0.579806 0.240858 0.517491
Si Si2 0.805354 0.500000 0.000000
Si Si3 0.785839 0.393850 0.834666
Si Si4 0.378627 0.357105 0.671515
Si Si5 0.087236 0.166194 0.640044
O O1 0.500000 0.171666 0.504603
O O2 0.581545 0.306060 0.598280
O O3 0.589161 0.347015 0.450062
O O4 0.645242 0.134034 0.510769
O O5 0.774708 0.523587 0.085760
O O6 0.791260 0.460227 0.750000
O O7 0.707563 0.314125 0.832195
O O8 0.857438 0.292696 0.841124
O O9 0.410275 0.305675 0.750000
O O10 0.384154 0.522618 0.671573
O O11 0.000000 0.189207 0.660780
#
# Coordination Sequence:
#
# PCOD9474930 Si02
#       5
#    16   8  16  16  16
#     4  10  22  40  62  91 125 162 211 263 316 384
#     4  10  23  40  66  88 127 172 214 256 321 384
#     4  10  24  41  62  94 129 168 216 265 317 388
#     4  11  24  38  61  95 129 161 208 267 323 378
#     4  10  22  42  67  91 122 168 218 264 320 387
#
# _framework density 23.038636
#
# number of rings (size 3 to 8) (size 9 to 14) (size 15 to 20)
#    0.000    1.778    0.000    2.333    6.222    8.444 
#    0.000    0.000    0.000    0.000    0.000    0.000 
#    0.000    0.000    0.000    0.000    0.000    0.000 
#
# Total GULP energy -200587.023633 kJ/mol
# GULP energy per Si atom -5571.861768 kJ/mol
# Density = 2.298620 g / cm^3
# Si number density = 23.038636 Si / 1000 Ang^3
#
#
#
# Elastic Constant Matrix: (Units=GPa)
#
#
# Indices 1 2 3 4 5 6 
#
# 1 109.0019 3.5764 17.9287 0.0000 0.0000 0.0000
# 2 3.5764 29.5941 22.8037 0.0000 0.0000 0.0000
# 3 17.9287 22.8037 243.4936 0.0000 0.0000 0.0000
# 4 0.0000 0.0000 0.0000 15.2524 0.0000 0.0000
# 5 0.0000 0.0000 0.0000 0.0000 21.3997 0.0000
# 6 0.0000 0.0000 0.0000 0.0000 0.0000 11.8873
#
#
#
# Elastic Compliance Matrix: (Units=1/GPa)
#
#
# Indices 1 2 3 4 5 6 
#
# 1 0.009298 -0.000642 -0.000624 0.000000 0.000000 0.000000
# 2 -0.000642 0.036463 -0.003368 0.000000 0.000000 0.000000
# 3 -0.000624 -0.003368 0.004468 0.000000 0.000000 0.000000
# 4 0.000000 0.000000 0.000000 0.065563 0.000000 0.000000
# 5 0.000000 0.000000 0.000000 0.000000 0.046730 0.000000
# 6 0.000000 0.000000 0.000000 0.000000 0.000000 0.084123
#
#
# Mechanical properties :
#
#
# Convention : Reuss Voigt Hill
#
# Bulk Modulus (GPa) = 24.41389 52.30083 38.35736
# Shear Modulus (GPa) = 18.54822 32.22661 25.38741
#
# Velocity S-wave (km/s) = 2.84049 3.74412 3.32316
# Velocity P-wave (km/s) = 4.62361 6.43754 5.60445
#
# Compressibility (1/GPa) = 0.04096028
#
# Stress axis : x y z
#
# Youngs Moduli (GPa) = 107.55072 27.42502 223.80170
#
# Poissons Ratio (x) = 0.01762 0.13975
# Poissons Ratio (y) = 0.06910 0.75366
# Poissons Ratio (z) = 0.06716 0.09235
#
# Static dielectric constant tensor:
#      x y z
#    x 1.847160 0.000000 0.000000 
#    y 0.000000 1.836990 0.000000 
#    z 0.000000 0.000000 1.959200 
# 
# From -- ./inp_files/45283.got.cif
#   From: 2010.05.17/outbox.cif.g08.bks.cpg/sg63_23_cif.got.tgz:45283.got - 2010.06.03 15:47:04.
