data_PCOD9474846
_publ_section_title
;
Structure prediction by ZEFSAII (Michael W. Deem and Ramdas Pophale) SiO2 
 PCOD9474846
Probable space group: C M C M
;
_chemical_formula_sum "Si O2"
_cell_formula_units_Z 80
_cell_length_a 12.632465
_cell_length_b 24.827342
_cell_length_c 13.581769
_cell_angle_alpha 90.000000
_cell_angle_beta 90.000000
_cell_angle_gamma 90.000000
_cell_volume 4259.657394
_symmetry_space_group_name_H-M "C M C M"
_symmetry_group_IT_number 63
_symmetry_cell_setting 'orthorhombic'
loop_
_space_group_symop_operation_xyz
x,y,z
-x,-y,1/2+z
x,-y,-z
-x,y,1/2-z
-x,-y,-z
x,y,1/2-z
-x,y,z
x,-y,1/2+z
1/2+x,1/2+y,z
1/2-x,1/2-y,1/2+z
1/2+x,1/2-y,-z
1/2-x,1/2+y,1/2-z
1/2-x,1/2-y,-z
1/2+x,1/2+y,1/2-z
1/2-x,1/2+y,z
1/2+x,1/2-y,1/2+z
loop_
_atom_site_type_symbol
_atom_site_label
_atom_site_fract_x
_atom_site_fract_y
_atom_site_fract_z
Si Si1 0.000000 0.562555 0.016496
Si Si2 0.217131 0.689348 0.523093
Si Si3 0.500000 0.841569 0.369685
Si Si4 0.380189 0.485000 0.631455
Si Si5 0.374845 0.607569 0.868315
Si Si6 0.797570 0.397873 0.633140
O O1 0.898568 0.576958 0.080715
O O2 0.000000 0.500000 0.000000
O O3 0.000000 0.597989 0.916404
O O4 0.250000 0.750000 0.500000
O O5 0.106170 0.684979 0.583301
O O6 0.302587 0.652909 0.582153
O O7 0.210900 0.659843 0.417699
O O8 0.500000 0.840786 0.250000
O O9 0.384012 0.487991 0.750000
O O10 0.500000 0.474017 0.597945
O O11 0.347145 0.545676 0.601196
O O12 0.301077 0.436739 0.609619
O O13 0.361455 0.610839 0.750000
O O14 0.500000 0.614950 0.889410
O O15 0.809096 0.394719 0.750000
#
# Coordination Sequence:
#
# PCOD9474846 Si02
#       6
#     8  16   8  16  16  16
#     4  10  23  39  62  93 123 158 204 251 304 368
#     4  11  25  41  63  87 124 160 215 259 303 362
#     4  10  24  45  66  91 122 161 207 261 313 365
#     4   8  16  33  58  91 123 151 190 241 303 372
#     4   9  19  37  63  91 119 156 204 256 312 370
#     4  10  22  39  60  88 124 163 200 248 308 368
#
# _framework density 18.780851999999999
#
# number of rings (size 3 to 8) (size 9 to 14) (size 15 to 20)
#    0.000    2.400    0.000    2.100    7.000    3.200 
#    0.000    2.000    0.000    0.000    0.000    0.000 
#    0.000    0.000    0.000    0.000    0.000    0.000 
#
# Total GULP energy -223225.400051 kJ/mol
# GULP energy per Si atom -5580.635001 kJ/mol
# Density = 1.873811 g / cm^3
# Si number density = 18.780852 Si / 1000 Ang^3
#
#
#
# Elastic Constant Matrix: (Units=GPa)
#
#
# Indices 1 2 3 4 5 6 
#
# 1 90.5746 90.0735 37.9986 0.0000 0.0000 0.0000
# 2 90.0735 192.5655 62.7995 0.0000 0.0000 0.0000
# 3 37.9986 62.7995 119.6163 0.0000 0.0000 0.0000
# 4 0.0000 0.0000 0.0000 107.4141 0.0000 0.0000
# 5 0.0000 0.0000 0.0000 0.0000 -735.2707 0.0000
# 6 0.0000 0.0000 0.0000 0.0000 0.0000 19.8745
#
#
#
# Elastic Compliance Matrix: (Units=1/GPa)
#
#
# Indices 1 2 3 4 5 6 
#
# 1 0.020968 -0.009213 -0.001824 0.000000 0.000000 0.000000
# 2 -0.009213 0.010314 -0.002488 0.000000 0.000000 0.000000
# 3 -0.001824 -0.002488 0.010246 0.000000 0.000000 0.000000
# 4 0.000000 0.000000 0.000000 0.009310 0.000000 0.000000
# 5 0.000000 0.000000 0.000000 0.000000 -0.001360 0.000000
# 6 0.000000 0.000000 0.000000 0.000000 0.000000 0.050316
#
#
# Mechanical properties :
#
#
# Convention : Reuss Voigt Hill
#
# Bulk Modulus (GPa) = 69.07388 87.16661 78.12025
# Shear Modulus (GPa) = 37.97401 -107.47077 -34.74838
#
# Velocity S-wave (km/s) = 4.50149 -7.57283 -4.30606
# Velocity P-wave (km/s) = 7.99229 5.47270 4.11862
#
# Compressibility (1/GPa) = 0.01447725
#
# Stress axis : x y z
#
# Youngs Moduli (GPa) = 47.69211 96.95655 97.60090
#
# Poissons Ratio (x) = 0.89326 0.17802
# Poissons Ratio (y) = 0.43939 0.24285
# Poissons Ratio (z) = 0.08699 0.24125
#
# Static dielectric constant tensor:
#      x y z
#    x 1.638500 0.000000 0.000000 
#    y 0.000000 1.836180 0.000000 
#    z 0.000000 0.000000 1.677580 
# 
# From -- ./inp_files/29765.got.cif
#   From: 2010.05.17/outbox.cif.g08.bks.cpg/sg63_15_cif.got.tgz:29765.got - 2010.06.03 15:47:04.
