data_PCOD9474799
_publ_section_title
;
Structure prediction by ZEFSAII (Michael W. Deem and Ramdas Pophale) SiO2 
 PCOD9474799
Probable space group: C M C M
;
_chemical_formula_sum "Si O2"
_cell_formula_units_Z 76
_cell_length_a 7.653313
_cell_length_b 26.989285
_cell_length_c 19.984927
_cell_angle_alpha 90.000000
_cell_angle_beta 90.000000
_cell_angle_gamma 90.000000
_cell_volume 4128.035475
_symmetry_space_group_name_H-M "C M C M"
_symmetry_group_IT_number 63
_symmetry_cell_setting 'orthorhombic'
loop_
_space_group_symop_operation_xyz
x,y,z
-x,-y,1/2+z
x,-y,-z
-x,y,1/2-z
-x,-y,-z
x,y,1/2-z
-x,y,z
x,-y,1/2+z
1/2+x,1/2+y,z
1/2-x,1/2-y,1/2+z
1/2+x,1/2-y,-z
1/2-x,1/2+y,1/2-z
1/2-x,1/2-y,-z
1/2+x,1/2+y,1/2-z
1/2-x,1/2+y,z
1/2+x,1/2-y,1/2+z
loop_
_atom_site_type_symbol
_atom_site_label
_atom_site_fract_x
_atom_site_fract_y
_atom_site_fract_z
Si Si1 0.211042 0.694223 0.173099
Si Si2 0.500000 0.952325 0.250000
Si Si3 0.500000 0.058511 0.013763
Si Si4 0.300625 0.592846 0.387381
Si Si5 0.793688 0.965296 0.750000
Si Si6 0.293442 0.692053 0.830313
Si Si7 0.000000 0.619597 0.877136
O O1 0.269794 0.685880 0.250000
O O2 0.282748 0.651486 0.125975
O O3 0.254325 0.750741 0.154673
O O4 0.000000 0.690721 0.172880
O O5 0.500000 0.918339 0.315323
O O6 0.330243 0.987348 0.250000
O O7 0.332452 0.073809 0.057520
O O8 0.500000 0.089119 0.945246
O O9 0.500000 0.000000 0.000000
O O10 0.500000 0.580699 0.404567
O O11 0.257719 0.566827 0.316342
O O12 0.000000 0.977941 0.750000
O O13 0.268299 0.685460 0.750000
O O14 0.500000 0.685138 0.843775
O O15 0.169585 0.654464 0.868842
#
# Coordination Sequence:
#
# PCOD9474799 Si02
#       7
#    16   4   8  16   8  16   8
#     4   9  17  32  63 100 130 164 193 249 320 376
#     4  12  24  40  66  88 120 158 220 278 312 358
#     4  12  28  47  63  84 128 175 221 268 311 370
#     4  11  22  39  65  96 126 163 208 259 324 376
#     4  10  22  38  61  97 123 153 206 272 322 371
#     4   9  19  37  62  96 131 156 200 255 313 380
#     4  12  24  42  65  91 115 179 217 251 322 376
#
# _framework density 18.410696000000002
#
# number of rings (size 3 to 8) (size 9 to 14) (size 15 to 20)
#    0.000    1.684    3.158    3.158    1.474    2.105 
#    0.000    1.053    0.000    0.000    0.000    0.000 
#    0.000    0.000    0.000    0.000    0.000    0.000 
#
# Total GULP energy -212338.881999 kJ/mol
# GULP energy per Si atom -5587.865316 kJ/mol
# Density = 1.836879 g / cm^3
# Si number density = 18.410696 Si / 1000 Ang^3
#
#
#
# Elastic Constant Matrix: (Units=GPa)
#
#
# Indices 1 2 3 4 5 6 
#
# 1 95.1547 78.6995 77.5721 0.0000 0.0000 0.0000
# 2 78.6995 153.0026 83.6391 0.0000 0.0000 0.0000
# 3 77.5721 83.6391 127.0006 0.0000 0.0000 0.0000
# 4 0.0000 0.0000 0.0000 18.9907 0.0000 0.0000
# 5 0.0000 0.0000 0.0000 0.0000 19.6117 0.0000
# 6 0.0000 0.0000 0.0000 0.0000 0.0000 -52.2930
#
#
#
# Elastic Compliance Matrix: (Units=1/GPa)
#
#
# Indices 1 2 3 4 5 6 
#
# 1 0.025008 -0.007052 -0.010631 0.000000 0.000000 0.000000
# 2 -0.007052 0.012201 -0.003728 0.000000 0.000000 0.000000
# 3 -0.010631 -0.003728 0.016822 0.000000 0.000000 0.000000
# 4 0.000000 0.000000 0.000000 0.052657 0.000000 0.000000
# 5 0.000000 0.000000 0.000000 0.000000 0.050990 0.000000
# 6 0.000000 0.000000 0.000000 0.000000 0.000000 -0.019123
#
#
# Mechanical properties :
#
#
# Convention : Reuss Voigt Hill
#
# Bulk Modulus (GPa) = 89.20444 94.99770 92.10107
# Shear Modulus (GPa) = 27.01042 6.27835 16.64439
#
# Velocity S-wave (km/s) = 3.83444 1.84867 3.01002
# Velocity P-wave (km/s) = 8.25600 7.50120 7.88763
#
# Compressibility (1/GPa) = 0.01121020
#
# Stress axis : x y z
#
# Youngs Moduli (GPa) = 39.98697 81.96030 59.44496
#
# Poissons Ratio (x) = 0.57799 0.63194
# Poissons Ratio (y) = 0.28199 0.22160
# Poissons Ratio (z) = 0.42509 0.30553
#
# Static dielectric constant tensor:
#      x y z
#    x 1.636650 0.000000 0.000000 
#    y 0.000000 1.623800 0.000000 
#    z 0.000000 0.000000 1.601600 
# 
# From -- ./inp_files/40646.got.cif
#   From: 2010.05.17/outbox.cif.g08.bks.cpg/sg63_21_cif.got.tgz:40646.got - 2010.06.03 15:47:04.
