data_PCOD9474201
_publ_section_title
;
Structure prediction by ZEFSAII (Michael W. Deem and Ramdas Pophale) SiO2 
 PCOD9474201
Probable space group: C M C M
;
_chemical_formula_sum "Si O2"
_cell_formula_units_Z 112
_cell_length_a 16.060080
_cell_length_b 24.161275
_cell_length_c 14.097073
_cell_angle_alpha 90.000000
_cell_angle_beta 90.000000
_cell_angle_gamma 90.000000
_cell_volume 5470.115563
_symmetry_space_group_name_H-M "C M C M"
_symmetry_group_IT_number 63
_symmetry_cell_setting 'orthorhombic'
loop_
_space_group_symop_operation_xyz
x,y,z
-x,-y,1/2+z
x,-y,-z
-x,y,1/2-z
-x,-y,-z
x,y,1/2-z
-x,y,z
x,-y,1/2+z
1/2+x,1/2+y,z
1/2-x,1/2-y,1/2+z
1/2+x,1/2-y,-z
1/2-x,1/2+y,1/2-z
1/2-x,1/2-y,-z
1/2+x,1/2+y,1/2-z
1/2-x,1/2+y,z
1/2+x,1/2-y,1/2+z
loop_
_atom_site_type_symbol
_atom_site_label
_atom_site_fract_x
_atom_site_fract_y
_atom_site_fract_z
Si Si1 0.754178 0.104578 0.861321
Si Si2 0.854840 0.943407 0.970046
Si Si3 0.405687 0.657691 0.359597
Si Si4 0.405132 0.185680 0.135487
Si Si5 0.405906 0.027038 0.603927
Si Si6 0.182059 0.211508 0.956068
Si Si7 0.191562 0.423515 0.854966
O O1 0.767460 0.095348 0.750000
O O2 0.665218 0.074515 0.885084
O O3 0.768176 0.168890 0.888199
O O4 0.827022 0.080704 0.928178
O O5 0.903633 0.905785 0.895583
O O6 0.764854 0.948688 0.918298
O O7 0.896419 0.000000 0.000000
O O8 0.375127 0.664485 0.250000
O O9 0.500000 0.678460 0.359901
O O10 0.358500 0.684354 0.449541
O O11 0.402038 0.185786 0.250000
O O12 0.500000 0.173304 0.105981
O O13 0.379108 0.246229 0.098590
O O14 0.345872 0.134130 0.105081
O O15 0.500000 0.045485 0.628768
O O16 0.408098 0.000000 0.500000
O O17 0.376590 0.971262 0.655887
O O18 0.250000 0.250000 0.000000
O O19 0.224745 0.411198 0.750000
#
# Coordination Sequence:
#
# PCOD9474201 Si02
#       7
#    16  16  16  16  16  16  16
#     4  11  22  38  59  86 120 160 206 252 309 372
#     4  11  21  37  59  90 123 160 201 248 309 365
#     4  10  23  43  66  92 122 160 206 259 318 376
#     4  10  21  37  60  91 124 162 209 258 308 361
#     4  11  22  37  59  88 129 170 207 255 315 380
#     4  11  24  41  64  88 121 161 208 259 311 365
#     4  11  20  35  60  91 126 165 209 255 308 371
#
# _framework density 20.474886999999999
#
# number of rings (size 3 to 8) (size 9 to 14) (size 15 to 20)
#    0.000    1.286    2.857    3.857    0.000    4.857 
#    0.000    0.714    0.000    3.857    0.000    0.000 
#    0.000    0.000    0.000    0.000    0.000    0.000 
#
# Total GULP energy -311757.267576 kJ/mol
# GULP energy per Si atom -5567.094064 kJ/mol
# Density = 2.042828 g / cm^3
# Si number density = 20.474887 Si / 1000 Ang^3
#
#
#
# Elastic Constant Matrix: (Units=GPa)
#
#
# Indices 1 2 3 4 5 6 
#
# 1 74.1111 18.2490 22.7159 0.0000 0.0000 0.0000
# 2 18.2490 82.1383 12.3160 0.0000 0.0000 0.0000
# 3 22.7159 12.3160 120.0579 0.0000 0.0000 0.0000
# 4 0.0000 0.0000 0.0000 27.9578 0.0000 0.0000
# 5 0.0000 0.0000 0.0000 0.0000 21.5678 0.0000
# 6 0.0000 0.0000 0.0000 0.0000 0.0000 23.8802
#
#
#
# Elastic Compliance Matrix: (Units=1/GPa)
#
#
# Indices 1 2 3 4 5 6 
#
# 1 0.014997 -0.002952 -0.002535 0.000000 0.000000 0.000000
# 2 -0.002952 0.012946 -0.000770 0.000000 0.000000 0.000000
# 3 -0.002535 -0.000770 0.008888 0.000000 0.000000 0.000000
# 4 0.000000 0.000000 0.000000 0.035768 0.000000 0.000000
# 5 0.000000 0.000000 0.000000 0.000000 0.046365 0.000000
# 6 0.000000 0.000000 0.000000 0.000000 0.000000 0.041876
#
#
# Mechanical properties :
#
#
# Convention : Reuss Voigt Hill
#
# Bulk Modulus (GPa) = 41.12111 42.54103 41.83107
# Shear Modulus (GPa) = 27.55451 29.54958 28.55204
#
# Velocity S-wave (km/s) = 3.67246 3.80308 3.73834
# Velocity P-wave (km/s) = 6.17332 6.33300 6.25367
#
# Compressibility (1/GPa) = 0.02431841
#
# Stress axis : x y z
#
# Youngs Moduli (GPa) = 66.67980 77.24512 112.51314
#
# Poissons Ratio (x) = 0.22802 0.28519
# Poissons Ratio (y) = 0.19683 0.08658
# Poissons Ratio (z) = 0.16902 0.05944
#
# Static dielectric constant tensor:
#      x y z
#    x 1.791130 0.000000 0.000000 
#    y 0.000000 1.769040 0.000000 
#    z 0.000000 0.000000 1.885770 
# 
# From -- ./inp_files/32255.got.cif
#   From: 2010.05.17/outbox.cif.g08.bks.cpg/sg63_17_cif.got.tgz:32255.got - 2010.06.03 15:47:04.
