data_PCOD9474880
_publ_section_title
;
Structure prediction by ZEFSAII (Michael W. Deem and Ramdas Pophale) SiO2 
 PCOD9474880
Probable space group: C M C M
;
_chemical_formula_sum "Si O2"
_cell_formula_units_Z 116
_cell_length_a 16.656789
_cell_length_b 11.317612
_cell_length_c 29.321793
_cell_angle_alpha 90.000000
_cell_angle_beta 90.000000
_cell_angle_gamma 90.000000
_cell_volume 5527.600009
_symmetry_space_group_name_H-M "C M C M"
_symmetry_group_IT_number 63
_symmetry_cell_setting 'orthorhombic'
loop_
_space_group_symop_operation_xyz
x,y,z
-x,-y,1/2+z
x,-y,-z
-x,y,1/2-z
-x,-y,-z
x,y,1/2-z
-x,y,z
x,-y,1/2+z
1/2+x,1/2+y,z
1/2-x,1/2-y,1/2+z
1/2+x,1/2-y,-z
1/2-x,1/2+y,1/2-z
1/2-x,1/2-y,-z
1/2+x,1/2+y,1/2-z
1/2-x,1/2+y,z
1/2+x,1/2-y,1/2+z
loop_
_atom_site_type_symbol
_atom_site_label
_atom_site_fract_x
_atom_site_fract_y
_atom_site_fract_z
Si Si1 0.407420 0.629594 0.011740
Si Si2 0.000000 0.394545 0.250000
Si Si3 0.589742 0.462762 0.799161
Si Si4 0.140487 0.387531 0.326859
Si Si5 0.634425 0.683424 0.112902
Si Si6 0.810806 0.802341 0.200355
Si Si7 0.679411 0.126718 0.375606
Si Si8 0.902945 0.381989 0.972349
O O1 0.500000 0.624634 0.995460
O O2 0.373642 0.753715 0.991757
O O3 0.370829 0.500000 0.000000
O O4 0.404649 0.644601 0.066040
O O5 0.070166 0.395160 0.290389
O O6 0.596190 0.397838 0.750000
O O7 0.500000 0.513897 0.800418
O O8 0.601148 0.383763 0.842955
O O9 0.652803 0.567389 0.799521
O O10 0.118523 0.318816 0.373625
O O11 0.215569 0.314283 0.306434
O O12 0.173211 0.513420 0.343115
O O13 0.729034 0.653673 0.109847
O O14 0.828156 0.747124 0.250000
O O15 0.846085 0.733553 0.157447
O O16 0.626793 0.111330 0.420470
O O17 0.000000 0.381022 0.974506
O O18 0.876106 0.500000 0.000000
#
# Coordination Sequence:
#
# PCOD9474880 Si02
#       8
#    16   4  16  16  16  16  16  16
#     4  10  23  41  64  96 129 168 219 285 342 392
#     4  12  28  40  68  96 132 188 226 276 314 402
#     4  10  22  39  64  94 126 171 218 260 322 397
#     4  11  25  43  61  99 132 174 227 268 329 388
#     4  11  24  40  69  93 134 169 214 277 331 401
#     4  10  22  43  63  89 137 174 210 271 330 387
#     4  11  25  41  67  96 128 174 219 270 337 398
#     4  10  23  44  67  93 133 179 224 278 344 414
#
# _framework density 20.985599000000001
#
# number of rings (size 3 to 8) (size 9 to 14) (size 15 to 20)
#    0.000    1.517    2.069    1.241    6.759    2.207 
#    0.000    0.000    0.000    0.000    0.000    0.000 
#    0.000    0.000    0.000    0.000    0.000    0.000 
#
# Total GULP energy -323217.115735 kJ/mol
# GULP energy per Si atom -5572.708892 kJ/mol
# Density = 2.093784 g / cm^3
# Si number density = 20.985599 Si / 1000 Ang^3
#
#
#
# Elastic Constant Matrix: (Units=GPa)
#
#
# Indices 1 2 3 4 5 6 
#
# 1 41.5426 13.3222 8.2258 0.0000 0.0000 0.0000
# 2 13.3222 92.2120 35.7622 0.0000 0.0000 0.0000
# 3 8.2258 35.7622 106.8382 0.0000 0.0000 0.0000
# 4 0.0000 0.0000 0.0000 33.3642 0.0000 0.0000
# 5 0.0000 0.0000 0.0000 0.0000 94.5922 0.0000
# 6 0.0000 0.0000 0.0000 0.0000 0.0000 -17.9697
#
#
#
# Elastic Compliance Matrix: (Units=1/GPa)
#
#
# Indices 1 2 3 4 5 6 
#
# 1 0.025305 -0.003333 -0.000833 0.000000 0.000000 0.000000
# 2 -0.003333 0.012901 -0.004062 0.000000 0.000000 0.000000
# 3 -0.000833 -0.004062 0.010784 0.000000 0.000000 0.000000
# 4 0.000000 0.000000 0.000000 0.029972 0.000000 0.000000
# 5 0.000000 0.000000 0.000000 0.000000 0.010572 0.000000
# 6 0.000000 0.000000 0.000000 0.000000 0.000000 -0.055649
#
#
# Mechanical properties :
#
#
# Convention : Reuss Voigt Hill
#
# Bulk Modulus (GPa) = 30.73583 39.46815 35.10199
# Shear Modulus (GPa) = 81.71856 34.21617 57.96736
#
# Velocity S-wave (km/s) = 6.24699 4.04228 5.26141
# Velocity P-wave (km/s) = 8.16768 6.37454 7.32618
#
# Compressibility (1/GPa) = 0.03253532
#
# Stress axis : x y z
#
# Youngs Moduli (GPa) = 39.51724 77.51082 92.73243
#
# Poissons Ratio (x) = 0.25835 0.07722
# Poissons Ratio (y) = 0.13171 0.37667
# Poissons Ratio (z) = 0.03291 0.31484
#
# Static dielectric constant tensor:
#      x y z
#    x 1.746630 0.000000 0.000000 
#    y 0.000000 1.828360 0.000000 
#    z 0.000000 0.000000 1.728490 
# 
# From -- ./inp_files/70009.got.cif
#   From: 2010.05.17/outbox.cif.g08.bks.cpg/sg63_36_cif.got.tgz:70009.got - 2010.06.03 15:47:04.
