data_PCOD9474276
_publ_section_title
;
Structure prediction by ZEFSAII (Michael W. Deem and Ramdas Pophale) SiO2 
 PCOD9474276
Probable space group: C M C M
;
_chemical_formula_sum "Si O2"
_cell_formula_units_Z 80
_cell_length_a 23.812775
_cell_length_b 12.422695
_cell_length_c 14.395581
_cell_angle_alpha 90.000000
_cell_angle_beta 90.000000
_cell_angle_gamma 90.000000
_cell_volume 4258.484086
_symmetry_space_group_name_H-M "C M C M"
_symmetry_group_IT_number 63
_symmetry_cell_setting 'orthorhombic'
loop_
_space_group_symop_operation_xyz
x,y,z
-x,-y,1/2+z
x,-y,-z
-x,y,1/2-z
-x,-y,-z
x,y,1/2-z
-x,y,z
x,-y,1/2+z
1/2+x,1/2+y,z
1/2-x,1/2-y,1/2+z
1/2+x,1/2-y,-z
1/2-x,1/2+y,1/2-z
1/2-x,1/2-y,-z
1/2+x,1/2+y,1/2-z
1/2-x,1/2+y,z
1/2+x,1/2-y,1/2+z
loop_
_atom_site_type_symbol
_atom_site_label
_atom_site_fract_x
_atom_site_fract_y
_atom_site_fract_z
Si Si1 0.434932 0.350042 0.250000
Si Si2 0.565176 0.383583 0.045863
Si Si3 0.655019 0.045718 0.400722
Si Si4 0.934878 0.590752 0.250000
Si Si5 0.238812 0.355673 0.358889
Si Si6 0.826358 0.770484 0.489187
O O1 0.500000 0.383037 0.250000
O O2 0.413069 0.390679 0.347939
O O3 0.431718 0.220818 0.250000
O O4 0.500000 0.344521 0.046280
O O5 0.609573 0.305647 0.997286
O O6 0.565842 0.500000 0.000000
O O7 0.600817 0.049719 0.336628
O O8 0.675870 0.166285 0.421451
O O9 0.638320 0.000000 0.500000
O O10 0.703342 0.966573 0.363011
O O11 0.000000 0.560180 0.250000
O O12 0.251492 0.332137 0.250000
O O13 0.201067 0.265559 0.413136
O O14 0.291374 0.358944 0.430552
#
# Coordination Sequence:
#
# PCOD9474276 Si02
#       6
#     8  16  16   8  16  16
#     4   9  18  34  57  84 110 148 198 233 278 347
#     4  10  21  38  60  86 118 150 192 245 293 348
#     4  10  21  38  58  84 120 152 193 246 287 344
#     4  11  20  34  61  88 114 154 199 237 290 347
#     4  10  22  38  59  85 119 154 194 243 288 346
#     4  10  22  38  61  87 117 154 197 236 297 347
#
# _framework density 18.786028000000002
#
# number of rings (size 3 to 8) (size 9 to 14) (size 15 to 20)
#    0.000    2.000    3.000    0.000    2.800    4.400 
#    1.800    3.000    0.000    0.000    0.000    0.000 
#    0.000    0.000    0.000    0.000    0.000    0.000 
#
# Total GULP energy -222852.151291 kJ/mol
# GULP energy per Si atom -5571.303782 kJ/mol
# Density = 1.874327 g / cm^3
# Si number density = 18.786028 Si / 1000 Ang^3
#
#
#
# Elastic Constant Matrix: (Units=GPa)
#
#
# Indices 1 2 3 4 5 6 
#
# 1 94.9166 31.8281 14.2956 0.0000 0.0000 0.0000
# 2 31.8281 46.0296 3.0460 0.0000 0.0000 0.0000
# 3 14.2956 3.0460 64.8608 0.0000 0.0000 0.0000
# 4 0.0000 0.0000 0.0000 11.4390 0.0000 0.0000
# 5 0.0000 0.0000 0.0000 0.0000 -150.6083 0.0000
# 6 0.0000 0.0000 0.0000 0.0000 0.0000 22.4767
#
#
#
# Elastic Compliance Matrix: (Units=1/GPa)
#
#
# Indices 1 2 3 4 5 6 
#
# 1 0.014162 -0.009616 -0.002670 0.000000 0.000000 0.000000
# 2 -0.009616 0.028322 0.000789 0.000000 0.000000 0.000000
# 3 -0.002670 0.000789 0.015969 0.000000 0.000000 0.000000
# 4 0.000000 0.000000 0.000000 0.087420 0.000000 0.000000
# 5 0.000000 0.000000 0.000000 0.000000 -0.006640 0.000000
# 6 0.000000 0.000000 0.000000 0.000000 0.000000 0.044491
#
#
# Mechanical properties :
#
#
# Convention : Reuss Voigt Hill
#
# Bulk Modulus (GPa) = 28.20060 33.79405 30.99732
# Shear Modulus (GPa) = 22.87939 -12.89602 4.99168
#
# Velocity S-wave (km/s) = 3.49362 -2.62290 1.63184
# Velocity P-wave (km/s) = 5.59624 2.97577 4.48180
#
# Compressibility (1/GPa) = 0.03546024
#
# Stress axis : x y z
#
# Youngs Moduli (GPa) = 70.61058 35.30811 62.62138
#
# Poissons Ratio (x) = 0.33952 0.16719
# Poissons Ratio (y) = 0.67899 -0.04943
# Poissons Ratio (z) = 0.18852 -0.02787
#
# Static dielectric constant tensor:
#      x y z
#    x 1.675970 0.000000 0.000000 
#    y 0.000000 1.684460 0.000000 
#    z 0.000000 0.000000 1.674570 
# 
# From -- ./inp_files/36517.got.cif
#   From: 2010.05.17/outbox.cif.g08.bks.cpg/sg63_19_cif.got.tgz:36517.got - 2010.06.03 15:47:04.
