data_PCOD9474508
_publ_section_title
;
Structure prediction by ZEFSAII (Michael W. Deem and Ramdas Pophale) SiO2 
 PCOD9474508
Probable space group: C M C M
;
_chemical_formula_sum "Si O2"
_cell_formula_units_Z 80
_cell_length_a 9.075903
_cell_length_b 30.362314
_cell_length_c 14.447971
_cell_angle_alpha 90.000000
_cell_angle_beta 90.000000
_cell_angle_gamma 90.000000
_cell_volume 3981.361149
_symmetry_space_group_name_H-M "C M C M"
_symmetry_group_IT_number 63
_symmetry_cell_setting 'orthorhombic'
loop_
_space_group_symop_operation_xyz
x,y,z
-x,-y,1/2+z
x,-y,-z
-x,y,1/2-z
-x,-y,-z
x,y,1/2-z
-x,y,z
x,-y,1/2+z
1/2+x,1/2+y,z
1/2-x,1/2-y,1/2+z
1/2+x,1/2-y,-z
1/2-x,1/2+y,1/2-z
1/2-x,1/2-y,-z
1/2+x,1/2+y,1/2-z
1/2-x,1/2+y,z
1/2+x,1/2-y,1/2+z
loop_
_atom_site_type_symbol
_atom_site_label
_atom_site_fract_x
_atom_site_fract_y
_atom_site_fract_z
Si Si1 0.830019 0.638456 0.138881
Si Si2 0.323199 0.137331 0.640419
Si Si3 0.331171 0.038313 0.637155
Si Si4 0.324417 0.297689 0.502454
Si Si5 0.166908 0.950666 0.637156
O O1 0.823703 0.641510 0.250000
O O2 0.769565 0.590353 0.111712
O O3 0.000000 0.643353 0.109712
O O4 0.730969 0.675556 0.092148
O O5 0.296268 0.141982 0.750000
O O6 0.500000 0.141501 0.626352
O O7 0.281086 0.087422 0.611666
O O8 0.235798 0.173126 0.582534
O O9 0.333764 0.038050 0.750000
O O10 0.500000 0.032055 0.606499
O O11 0.232232 0.997496 0.607523
O O12 0.500000 0.294053 0.500580
O O13 0.250000 0.250000 0.500000
O O14 0.164093 0.951290 0.750000
O O15 0.000000 0.944125 0.604646
#
# Coordination Sequence:
#
# PCOD9474508 Si02
#       5
#    16  16  16  16  16
#     4  10  21  39  63  88 116 152 194 239 288 344
#     4   9  19  38  63  89 119 155 194 237 286 341
#     4   8  14  27  50  80 114 153 192 228 273 331
#     4  12  26  43  63  86 115 149 189 241 295 349
#     4   9  16  27  48  81 119 155 190 230 278 333
#
# _framework density 20.093630000000001
#
# number of rings (size 3 to 8) (size 9 to 14) (size 15 to 20)
#    0.000    2.400    0.000    4.200    0.000    5.600 
#    0.000    3.000    0.000    6.000    0.000    0.000 
#    0.000    0.000    0.000    0.000    0.000    0.000 
#
# Total GULP energy -223551.638415 kJ/mol
# GULP energy per Si atom -5588.790960 kJ/mol
# Density = 2.004790 g / cm^3
# Si number density = 20.093630 Si / 1000 Ang^3
#
#
#
# Elastic Constant Matrix: (Units=GPa)
#
#
# Indices 1 2 3 4 5 6 
#
# 1 118.9945 84.5921 27.3938 0.0000 0.0000 0.0000
# 2 84.5921 172.8571 35.5306 0.0000 0.0000 0.0000
# 3 27.3938 35.5306 75.1685 0.0000 0.0000 0.0000
# 4 0.0000 0.0000 0.0000 30.9009 0.0000 0.0000
# 5 0.0000 0.0000 0.0000 0.0000 24.5434 0.0000
# 6 0.0000 0.0000 0.0000 0.0000 0.0000 37.7266
#
#
#
# Elastic Compliance Matrix: (Units=1/GPa)
#
#
# Indices 1 2 3 4 5 6 
#
# 1 0.013137 -0.006031 -0.001937 0.000000 0.000000 0.000000
# 2 -0.006031 0.009176 -0.002140 0.000000 0.000000 0.000000
# 3 -0.001937 -0.002140 0.015021 0.000000 0.000000 0.000000
# 4 0.000000 0.000000 0.000000 0.032361 0.000000 0.000000
# 5 0.000000 0.000000 0.000000 0.000000 0.040744 0.000000
# 6 0.000000 0.000000 0.000000 0.000000 0.000000 0.026506
#
#
# Mechanical properties :
#
#
# Convention : Reuss Voigt Hill
#
# Bulk Modulus (GPa) = 58.41375 73.56144 65.98760
# Shear Modulus (GPa) = 30.69997 33.26777 31.98387
#
# Velocity S-wave (km/s) = 3.91301 4.07337 3.99399
# Velocity P-wave (km/s) = 7.03913 7.66889 7.36075
#
# Compressibility (1/GPa) = 0.01711926
#
# Stress axis : x y z
#
# Youngs Moduli (GPa) = 76.12189 108.97739 66.57501
#
# Poissons Ratio (x) = 0.65721 0.12895
# Poissons Ratio (y) = 0.45907 0.14245
# Poissons Ratio (z) = 0.14744 0.23317
#
# Static dielectric constant tensor:
#      x y z
#    x 1.670770 0.000000 0.000000 
#    y 0.000000 1.669950 0.000000 
#    z 0.000000 0.000000 1.764590 
# 
# From -- ./inp_files/40542.got.cif
#   From: 2010.05.17/outbox.cif.g08.bks.cpg/sg63_21_cif.got.tgz:40542.got - 2010.06.03 15:47:04.
