data_PCOD9474346
_publ_section_title
;
Structure prediction by ZEFSAII (Michael W. Deem and Ramdas Pophale) SiO2 
 PCOD9474346
Probable space group: C M C M
;
_chemical_formula_sum "Si O2"
_cell_formula_units_Z 96
_cell_length_a 24.218839
_cell_length_b 11.845416
_cell_length_c 14.420217
_cell_angle_alpha 90.000000
_cell_angle_beta 90.000000
_cell_angle_gamma 90.000000
_cell_volume 4136.903909
_symmetry_space_group_name_H-M "C M C M"
_symmetry_group_IT_number 63
_symmetry_cell_setting 'orthorhombic'
loop_
_space_group_symop_operation_xyz
x,y,z
-x,-y,1/2+z
x,-y,-z
-x,y,1/2-z
-x,-y,-z
x,y,1/2-z
-x,y,z
x,-y,1/2+z
1/2+x,1/2+y,z
1/2-x,1/2-y,1/2+z
1/2+x,1/2-y,-z
1/2-x,1/2+y,1/2-z
1/2-x,1/2-y,-z
1/2+x,1/2+y,1/2-z
1/2-x,1/2+y,z
1/2+x,1/2-y,1/2+z
loop_
_atom_site_type_symbol
_atom_site_label
_atom_site_fract_x
_atom_site_fract_y
_atom_site_fract_z
Si Si1 0.222288 0.548075 0.144862
Si Si2 0.660721 0.168916 0.637685
Si Si3 0.369965 0.211055 0.363097
Si Si4 0.563139 0.430786 0.360675
Si Si5 0.061200 0.492839 0.361304
Si Si6 0.158761 0.917788 0.914222
O O1 0.200615 0.537623 0.250000
O O2 0.203319 0.427918 0.104056
O O3 0.190440 0.660695 0.110178
O O4 0.287529 0.555628 0.147313
O O5 0.667855 0.192934 0.750000
O O6 0.601802 0.110375 0.622311
O O7 0.662231 0.283590 0.580880
O O8 0.368915 0.223097 0.250000
O O9 0.398032 0.327534 0.395763
O O10 0.410418 0.109030 0.391914
O O11 0.558885 0.418206 0.250000
O O12 0.500000 0.429711 0.396986
O O13 0.598638 0.543207 0.379088
O O14 0.058076 0.503844 0.250000
O O15 0.000000 0.476987 0.397372
O O16 0.169306 0.000000 0.000000
#
# Coordination Sequence:
#
# PCOD9474346 Si02
#       6
#    16  16  16  16  16  16
#     4   9  19  37  61  86 112 143 188 243 293 341
#     4   9  19  36  57  82 109 143 192 240 285 339
#     4   8  15  30  56  89 115 139 175 233 294 337
#     4  10  21  38  61  87 114 149 196 241 284 341
#     4   8  13  25  51  85 113 135 170 229 292 338
#     4  12  26  39  54  81 117 161 193 231 285 351
#
# _framework density 23.205760999999999
#
# number of rings (size 3 to 8) (size 9 to 14) (size 15 to 20)
#    0.000    2.667    0.000    4.000    2.333    3.667 
#    0.000    1.667    0.000    0.000    0.000    3.500 
#    0.000    0.000    0.000    0.000    0.000    0.000 
#
# Total GULP energy -267735.989439 kJ/mol
# GULP energy per Si atom -5577.833113 kJ/mol
# Density = 2.315294 g / cm^3
# Si number density = 23.205761 Si / 1000 Ang^3
#
#
#
# Elastic Constant Matrix: (Units=GPa)
#
#
# Indices 1 2 3 4 5 6 
#
# 1 112.2931 35.9850 10.9730 0.0000 0.0000 0.0000
# 2 35.9850 132.2144 15.7919 0.0000 0.0000 0.0000
# 3 10.9730 15.7919 55.3739 0.0000 0.0000 0.0000
# 4 0.0000 0.0000 0.0000 28.6949 0.0000 0.0000
# 5 0.0000 0.0000 0.0000 0.0000 -13.6459 0.0000
# 6 0.0000 0.0000 0.0000 0.0000 0.0000 1.9498
#
#
#
# Elastic Compliance Matrix: (Units=1/GPa)
#
#
# Indices 1 2 3 4 5 6 
#
# 1 0.009836 -0.002530 -0.001227 0.000000 0.000000 0.000000
# 2 -0.002530 0.008481 -0.001917 0.000000 0.000000 0.000000
# 3 -0.001227 -0.001917 0.018849 0.000000 0.000000 0.000000
# 4 0.000000 0.000000 0.000000 0.034849 0.000000 0.000000
# 5 0.000000 0.000000 0.000000 0.000000 -0.073282 0.000000
# 6 0.000000 0.000000 0.000000 0.000000 0.000000 0.512876
#
#
# Mechanical properties :
#
#
# Convention : Reuss Voigt Hill
#
# Bulk Modulus (GPa) = 38.73586 47.26458 43.00022
# Shear Modulus (GPa) = 9.40618 19.20852 14.30735
#
# Velocity S-wave (km/s) = 2.01548 2.88018 2.48572
# Velocity P-wave (km/s) = 4.70583 5.61003 5.17770
#
# Compressibility (1/GPa) = 0.02581587
#
# Stress axis : x y z
#
# Youngs Moduli (GPa) = 101.66601 117.90774 53.05304
#
# Poissons Ratio (x) = 0.29837 0.06512
# Poissons Ratio (y) = 0.25727 0.10172
# Poissons Ratio (z) = 0.12479 0.22606
#
# Static dielectric constant tensor:
#      x y z
#    x 1.868300 0.000000 0.000000 
#    y 0.000000 1.846980 0.000000 
#    z 0.000000 0.000000 1.972530 
# 
# From -- ./inp_files/47992.got.cif
#   From: 2010.05.17/outbox.cif.g08.bks.cpg/sg63_24_cif.got.tgz:47992.got - 2010.06.03 15:47:04.
