data_PCOD9474111
_publ_section_title
;
Structure prediction by ZEFSAII (Michael W. Deem and Ramdas Pophale) SiO2 
 PCOD9474111
Probable space group: C M C M
;
_chemical_formula_sum "Si O2"
_cell_formula_units_Z 84
_cell_length_a 14.469410
_cell_length_b 19.477374
_cell_length_c 15.234981
_cell_angle_alpha 90.000000
_cell_angle_beta 90.000000
_cell_angle_gamma 90.000000
_cell_volume 4293.615433
_symmetry_space_group_name_H-M "C M C M"
_symmetry_group_IT_number 63
_symmetry_cell_setting 'orthorhombic'
loop_
_space_group_symop_operation_xyz
x,y,z
-x,-y,1/2+z
x,-y,-z
-x,y,1/2-z
-x,-y,-z
x,y,1/2-z
-x,y,z
x,-y,1/2+z
1/2+x,1/2+y,z
1/2-x,1/2-y,1/2+z
1/2+x,1/2-y,-z
1/2-x,1/2+y,1/2-z
1/2-x,1/2-y,-z
1/2+x,1/2+y,1/2-z
1/2-x,1/2+y,z
1/2+x,1/2-y,1/2+z
loop_
_atom_site_type_symbol
_atom_site_label
_atom_site_fract_x
_atom_site_fract_y
_atom_site_fract_z
Si Si1 0.105706 0.368934 0.357149
Si Si2 0.000000 0.113394 0.250000
Si Si3 0.253035 0.749979 0.355427
Si Si4 0.255299 0.524685 0.648839
Si Si5 0.844514 0.887282 0.594391
Si Si6 0.104665 0.141948 0.601477
O O1 0.105590 0.369592 0.250000
O O2 0.163248 0.301240 0.382680
O O3 0.164623 0.435407 0.384804
O O4 0.000000 0.367668 0.386811
O O5 0.081155 0.113781 0.172903
O O6 0.253941 0.746155 0.250000
O O7 0.273726 0.675586 0.392998
O O8 0.159336 0.787199 0.384173
O O9 0.239552 0.503668 0.750000
O O10 0.290088 0.458904 0.597155
O O11 0.335358 0.582531 0.647602
O O12 0.892287 0.876832 0.501002
O O13 0.000000 0.144240 0.633223
#
# Coordination Sequence:
#
# PCOD9474111 Si02
#       6
#    16   4  16  16  16  16
#     4   8  16  31  55  81 107 142 188 232 280 335
#     4  12  24  36  62  88 112 152 194 242 298 332
#     4  10  21  38  59  85 113 148 188 239 287 345
#     4  10  21  37  57  85 119 155 194 241 288 343
#     4  12  23  39  58  87 116 146 198 247 288 336
#     4  11  24  38  58  84 119 156 190 234 293 348
#
# _framework density 19.563932000000001
#
# number of rings (size 3 to 8) (size 9 to 14) (size 15 to 20)
#    0.000    1.714    2.857    2.857    2.667    2.286 
#    0.000    0.952    0.000   11.429    0.000    0.000 
#    0.000    0.000    0.000    0.000    0.000    0.000 
#
# Total GULP energy -234094.191496 kJ/mol
# GULP energy per Si atom -5573.671226 kJ/mol
# Density = 1.951940 g / cm^3
# Si number density = 19.563932 Si / 1000 Ang^3
#
#
#
# Elastic Constant Matrix: (Units=GPa)
#
#
# Indices 1 2 3 4 5 6 
#
# 1 122.2099 30.9303 -5.1756 0.0000 0.0000 0.0000
# 2 30.9303 88.1782 4.2025 0.0000 0.0000 0.0000
# 3 -5.1756 4.2025 49.2926 0.0000 0.0000 0.0000
# 4 0.0000 0.0000 0.0000 16.0811 0.0000 0.0000
# 5 0.0000 0.0000 0.0000 0.0000 9.9460 0.0000
# 6 0.0000 0.0000 0.0000 0.0000 0.0000 0.7493
#
#
#
# Elastic Compliance Matrix: (Units=1/GPa)
#
#
# Indices 1 2 3 4 5 6 
#
# 1 0.009053 -0.003234 0.001226 0.000000 0.000000 0.000000
# 2 -0.003234 0.012542 -0.001409 0.000000 0.000000 0.000000
# 3 0.001226 -0.001409 0.020536 0.000000 0.000000 0.000000
# 4 0.000000 0.000000 0.000000 0.062185 0.000000 0.000000
# 5 0.000000 0.000000 0.000000 0.000000 0.100543 0.000000
# 6 0.000000 0.000000 0.000000 0.000000 0.000000 1.334505
#
#
# Mechanical properties :
#
#
# Convention : Reuss Voigt Hill
#
# Bulk Modulus (GPa) = 28.33019 35.51054 31.92037
# Shear Modulus (GPa) = 3.20932 20.67019 11.93975
#
# Velocity S-wave (km/s) = 1.28218 3.25398 2.47309
# Velocity P-wave (km/s) = 4.08708 5.68404 4.95038
#
# Compressibility (1/GPa) = 0.03529803
#
# Stress axis : x y z
#
# Youngs Moduli (GPa) = 110.45973 79.73082 48.69520
#
# Poissons Ratio (x) = 0.25785 -0.05971
# Poissons Ratio (y) = 0.35723 0.06860
# Poissons Ratio (z) = -0.13545 0.11233
#
# Static dielectric constant tensor:
#      x y z
#    x 1.664250 0.000000 0.000000 
#    y 0.000000 1.672220 0.000000 
#    z 0.000000 0.000000 1.716180 
# 
# From -- ./inp_files/31782.got.cif
#   From: 2010.05.17/outbox.cif.g08.bks.cpg/sg63_16_cif.got.tgz:31782.got - 2010.06.03 15:47:04.
