data_PCOD9474030
_publ_section_title
;
Structure prediction by ZEFSAII (Michael W. Deem and Ramdas Pophale) SiO2 
 PCOD9474030
Probable space group: C M C M
;
_chemical_formula_sum "Si O2"
_cell_formula_units_Z 96
_cell_length_a 21.037766
_cell_length_b 29.903326
_cell_length_c 7.591266
_cell_angle_alpha 90.000000
_cell_angle_beta 90.000000
_cell_angle_gamma 90.000000
_cell_volume 4775.659178
_symmetry_space_group_name_H-M "C M C M"
_symmetry_group_IT_number 63
_symmetry_cell_setting 'orthorhombic'
loop_
_space_group_symop_operation_xyz
x,y,z
-x,-y,1/2+z
x,-y,-z
-x,y,1/2-z
-x,-y,-z
x,y,1/2-z
-x,y,z
x,-y,1/2+z
1/2+x,1/2+y,z
1/2-x,1/2-y,1/2+z
1/2+x,1/2-y,-z
1/2-x,1/2+y,1/2-z
1/2-x,1/2-y,-z
1/2+x,1/2+y,1/2-z
1/2-x,1/2+y,z
1/2+x,1/2-y,1/2+z
loop_
_atom_site_type_symbol
_atom_site_label
_atom_site_fract_x
_atom_site_fract_y
_atom_site_fract_z
Si Si1 0.067610 0.947652 0.038799
Si Si2 0.292202 0.306249 0.464436
Si Si3 0.699463 0.409201 0.034670
Si Si4 0.148678 0.719396 0.046458
Si Si5 0.666680 0.051815 0.958528
Si Si6 0.572420 0.133395 0.038877
O O1 0.068396 0.940978 0.250000
O O2 0.134175 0.930177 0.968732
O O3 0.000000 0.928541 0.973190
O O4 0.066467 0.000000 0.000000
O O5 0.288923 0.303056 0.250000
O O6 0.303494 0.357223 0.511727
O O7 0.222346 0.295288 0.536853
O O8 0.344469 0.269936 0.526532
O O9 0.700526 0.412018 0.250000
O O10 0.764049 0.432962 0.970008
O O11 0.128645 0.723883 0.250000
O O12 0.107226 0.678611 0.969472
O O13 0.671259 0.054381 0.750000
O O14 0.614323 0.088962 0.008284
O O15 0.652054 0.000000 0.000000
O O16 0.569624 0.138091 0.250000
O O17 0.500000 0.129259 0.973052
#
# Coordination Sequence:
#
# PCOD9474030 Si02
#       6
#    16  16  16  16  16  16
#     4   9  17  30  47  67  94 129 165 198 238 290
#     4   9  16  29  50  74 101 128 158 200 246 293
#     4   9  17  30  49  75 103 131 163 205 250 295
#     4   9  17  30  50  75  99 127 163 201 243 293
#     4  11  22  36  54  76 102 133 173 220 265 310
#     4  10  21  37  54  74 104 138 173 215 261 311
#
# _framework density 20.101937
#
# number of rings (size 3 to 8) (size 9 to 14) (size 15 to 20)
#    0.000    2.500    1.667    1.000    0.000    0.667 
#    0.000    2.500    0.000    5.000    0.000    0.000 
#    0.000    4.000    0.000    0.000    0.000    0.000 
#
# Total GULP energy -267417.853423 kJ/mol
# GULP energy per Si atom -5571.205280 kJ/mol
# Density = 2.005618 g / cm^3
# Si number density = 20.101937 Si / 1000 Ang^3
#
#
#
# Elastic Constant Matrix: (Units=GPa)
#
#
# Indices 1 2 3 4 5 6 
#
# 1 149.8799 68.0783 4.4214 0.0000 0.0000 0.0000
# 2 68.0783 111.5729 -1.1541 0.0000 0.0000 0.0000
# 3 4.4214 -1.1541 48.1650 0.0000 0.0000 0.0000
# 4 0.0000 0.0000 0.0000 1.4510 0.0000 0.0000
# 5 0.0000 0.0000 0.0000 0.0000 -1.0801 0.0000
# 6 0.0000 0.0000 0.0000 0.0000 0.0000 29.4011
#
#
#
# Elastic Compliance Matrix: (Units=1/GPa)
#
#
# Indices 1 2 3 4 5 6 
#
# 1 0.009277 -0.005671 -0.000987 0.000000 0.000000 0.000000
# 2 -0.005671 0.012431 0.000818 0.000000 0.000000 0.000000
# 3 -0.000987 0.000818 0.020872 0.000000 0.000000 0.000000
# 4 0.000000 0.000000 0.000000 0.689201 0.000000 0.000000
# 5 0.000000 0.000000 0.000000 0.000000 -0.925837 0.000000
# 6 0.000000 0.000000 0.000000 0.000000 0.000000 0.034012
#
#
# Mechanical properties :
#
#
# Convention : Reuss Voigt Hill
#
# Bulk Modulus (GPa) = 32.36146 50.25654 41.30900
# Shear Modulus (GPa) = -36.21500 21.83920 -7.18790
#
# Velocity S-wave (km/s) = -4.24909 3.29967 -1.89301
# Velocity P-wave (km/s) = 2.81770 6.29064 3.97698
#
# Compressibility (1/GPa) = 0.03090096
#
# Stress axis : x y z
#
# Youngs Moduli (GPa) = 107.79514 80.44233 47.91057
#
# Poissons Ratio (x) = 0.45616 0.04731
# Poissons Ratio (y) = 0.61127 -0.03921
# Poissons Ratio (z) = 0.10644 -0.06584
#
# Static dielectric constant tensor:
#      x y z
#    x 1.718400 0.000000 0.000000 
#    y 0.000000 1.818440 0.000000 
#    z 0.000000 0.000000 1.742300 
# 
# From -- ./inp_files/8578.got.cif
#   From: 2010.05.17/outbox.cif.g08.bks.cpg/sg63_5_cif.got.tgz:8578.got - 2010.06.03 15:47:04.
