data_PCOD9474613
_publ_section_title
;
Structure prediction by ZEFSAII (Michael W. Deem and Ramdas Pophale) SiO2 
 PCOD9474613
Probable space group: C M C M
;
_chemical_formula_sum "Si O2"
_cell_formula_units_Z 116
_cell_length_a 26.660805
_cell_length_b 25.366872
_cell_length_c 8.032949
_cell_angle_alpha 90.000000
_cell_angle_beta 90.000000
_cell_angle_gamma 90.000000
_cell_volume 5432.693272
_symmetry_space_group_name_H-M "C M C M"
_symmetry_group_IT_number 63
_symmetry_cell_setting 'orthorhombic'
loop_
_space_group_symop_operation_xyz
x,y,z
-x,-y,1/2+z
x,-y,-z
-x,y,1/2-z
-x,-y,-z
x,y,1/2-z
-x,y,z
x,-y,1/2+z
1/2+x,1/2+y,z
1/2-x,1/2-y,1/2+z
1/2+x,1/2-y,-z
1/2-x,1/2+y,1/2-z
1/2-x,1/2-y,-z
1/2+x,1/2+y,1/2-z
1/2-x,1/2+y,z
1/2+x,1/2-y,1/2+z
loop_
_atom_site_type_symbol
_atom_site_label
_atom_site_fract_x
_atom_site_fract_y
_atom_site_fract_z
Si Si1 0.500000 0.088824 0.250000
Si Si2 0.734209 0.597595 0.442082
Si Si3 0.832046 0.553632 0.556205
Si Si4 0.785960 0.703123 0.051946
Si Si5 0.056979 0.844104 0.551031
Si Si6 0.572119 0.879731 0.450120
Si Si7 0.102011 0.734011 0.948973
Si Si8 0.873482 0.060207 0.557092
O O1 0.542522 0.091510 0.402268
O O2 0.719929 0.606785 0.250000
O O3 0.781213 0.558501 0.452661
O O4 0.759272 0.650415 0.517232
O O5 0.684446 0.576519 0.528003
O O6 0.858762 0.500000 0.500000
O O7 0.819136 0.551433 0.750000
O O8 0.870316 0.601588 0.532856
O O9 0.787246 0.696136 0.250000
O O10 0.750000 0.750000 0.000000
O O11 0.841714 0.718995 0.999533
O O12 0.053600 0.837492 0.750000
O O13 0.082416 0.790032 0.483959
O O14 0.090987 0.895415 0.522606
O O15 0.000000 0.850058 0.486846
O O16 0.559448 0.888630 0.250000
O O17 0.568185 0.817218 0.487261
O O18 0.102446 0.737828 0.750000
O O19 0.884701 0.061899 0.750000
O O20 0.880962 0.000000 0.500000
#
# Coordination Sequence:
#
# PCOD9474613 Si02
#       8
#     4  16  16  16  16  16  16  16
#     4  12  26  40  74  94 134 176 228 290 336 408
#     4  11  23  40  64  96 133 173 222 269 333 406
#     4  11  23  40  67  95 132 172 219 278 335 406
#     4  11  23  36  58  90 131 176 216 261 324 396
#     4  10  23  44  70  98 130 176 223 277 342 400
#     4  10  24  44  67  99 131 177 227 281 349 409
#     4  10  21  40  65  94 134 170 217 274 330 401
#     4  12  26  45  68  96 134 173 222 280 336 406
#
# _framework density 21.352209999999999
#
# number of rings (size 3 to 8) (size 9 to 14) (size 15 to 20)
#    0.000    1.241    1.379    3.931    3.862    6.069 
#    0.000    0.345    0.000    0.000    0.000    0.000 
#    0.000    0.000    0.000    0.000    0.000    0.000 
#
# Total GULP energy -323283.591861 kJ/mol
# GULP energy per Si atom -5573.855032 kJ/mol
# Density = 2.130361 g / cm^3
# Si number density = 21.352210 Si / 1000 Ang^3
#
#
#
# Elastic Constant Matrix: (Units=GPa)
#
#
# Indices 1 2 3 4 5 6 
#
# 1 92.6112 43.0245 12.3037 0.0000 0.0000 0.0000
# 2 43.0245 131.1576 1.5703 0.0000 0.0000 0.0000
# 3 12.3037 1.5703 41.9936 0.0000 0.0000 0.0000
# 4 0.0000 0.0000 0.0000 22.8737 0.0000 0.0000
# 5 0.0000 0.0000 0.0000 0.0000 143.0156 0.0000
# 6 0.0000 0.0000 0.0000 0.0000 0.0000 -26.8356
#
#
#
# Elastic Compliance Matrix: (Units=1/GPa)
#
#
# Indices 1 2 3 4 5 6 
#
# 1 0.013300 -0.004318 -0.003735 0.000000 0.000000 0.000000
# 2 -0.004318 0.009030 0.000928 0.000000 0.000000 0.000000
# 3 -0.003735 0.000928 0.024873 0.000000 0.000000 0.000000
# 4 0.000000 0.000000 0.000000 0.043718 0.000000 0.000000
# 5 0.000000 0.000000 0.000000 0.000000 0.006992 0.000000
# 6 0.000000 0.000000 0.000000 0.000000 0.000000 -0.037264
#
#
# Mechanical properties :
#
#
# Convention : Reuss Voigt Hill
#
# Bulk Modulus (GPa) = 30.34826 42.17327 36.26076
# Shear Modulus (GPa) = 58.21721 41.73500 49.97610
#
# Velocity S-wave (km/s) = 5.22727 4.42588 4.84318
# Velocity P-wave (km/s) = 7.11875 6.77584 6.94941
#
# Compressibility (1/GPa) = 0.03295082
#
# Stress axis : x y z
#
# Youngs Moduli (GPa) = 75.18675 110.74379 40.20445
#
# Poissons Ratio (x) = 0.47822 0.15018
# Poissons Ratio (y) = 0.32467 -0.03729
# Poissons Ratio (z) = 0.28085 -0.10272
#
# Static dielectric constant tensor:
#      x y z
#    x 1.743880 0.000000 0.000000 
#    y 0.000000 1.204670 0.000000 
#    z 0.000000 0.000000 1.770250 
# 
# From -- ./inp_files/12954.got.cif
#   From: 2010.05.17/outbox.cif.g08.bks.cpg/sg63_7_cif.got.tgz:12954.got - 2010.06.03 15:47:04.
