data_PCOD9474999
_publ_section_title
;
Structure prediction by ZEFSAII (Michael W. Deem and Ramdas Pophale) SiO2 
 PCOD9474999
Probable space group: C M C M
;
_chemical_formula_sum "Si O2"
_cell_formula_units_Z 100
_cell_length_a 7.618174
_cell_length_b 23.628444
_cell_length_c 23.743186
_cell_angle_alpha 90.000000
_cell_angle_beta 90.000000
_cell_angle_gamma 90.000000
_cell_volume 4273.906388
_symmetry_space_group_name_H-M "C M C M"
_symmetry_group_IT_number 63
_symmetry_cell_setting 'orthorhombic'
loop_
_space_group_symop_operation_xyz
x,y,z
-x,-y,1/2+z
x,-y,-z
-x,y,1/2-z
-x,-y,-z
x,y,1/2-z
-x,y,z
x,-y,1/2+z
1/2+x,1/2+y,z
1/2-x,1/2-y,1/2+z
1/2+x,1/2-y,-z
1/2-x,1/2+y,1/2-z
1/2-x,1/2-y,-z
1/2+x,1/2+y,1/2-z
1/2-x,1/2+y,z
1/2+x,1/2-y,1/2+z
loop_
_atom_site_type_symbol
_atom_site_label
_atom_site_fract_x
_atom_site_fract_y
_atom_site_fract_z
Si Si1 0.000000 0.211586 0.250000
Si Si2 0.702888 0.819600 0.660193
Si Si3 0.213198 0.729136 0.919681
Si Si4 0.711028 0.931704 0.896168
Si Si5 0.206626 0.342641 0.188317
Si Si6 0.203337 0.938354 0.113456
Si Si7 0.796216 0.631964 0.504966
O O1 0.155092 0.207534 0.201157
O O2 0.500000 0.813669 0.677862
O O3 0.721504 0.790731 0.598191
O O4 0.746371 0.885891 0.652399
O O5 0.273937 0.693208 0.864398
O O6 0.278662 0.692096 0.972643
O O7 0.000000 0.729222 0.921790
O O8 0.500000 0.936195 0.901306
O O9 0.776904 0.994555 0.886257
O O10 0.782645 0.903634 0.953730
O O11 0.284059 0.332480 0.250000
O O12 0.224644 0.407479 0.168998
O O13 0.000000 0.329009 0.192586
O O14 0.292667 0.909434 0.059397
O O15 0.000000 0.923819 0.109252
O O16 0.000000 0.642432 0.491472
#
# Coordination Sequence:
#
# PCOD9474999 Si02
#       7
#     4  16  16  16  16  16  16
#     4  12  26  48  68  86 130 168 208 276 306 360
#     4  11  25  43  67  96 123 166 217 254 311 374
#     4   9  18  35  62  92 126 158 198 251 315 378
#     4  10  22  41  62  87 120 162 211 253 302 377
#     4   9  19  36  60  84 114 156 200 253 318 371
#     4  11  22  35  55  88 123 158 206 255 309 373
#     4   9  19  38  64  89 123 164 197 249 316 370
#
# _framework density 23.397798000000002
#
# number of rings (size 3 to 8) (size 9 to 14) (size 15 to 20)
#    0.000    2.080    0.800    3.120    2.240    6.080 
#    1.440    0.000    0.000    0.000    0.000    0.000 
#    0.000    0.000    0.000    0.000    0.000    0.000 
#
# Total GULP energy -278951.757959 kJ/mol
# GULP energy per Si atom -5579.035159 kJ/mol
# Density = 2.334454 g / cm^3
# Si number density = 23.397798 Si / 1000 Ang^3
#
#
#
# Elastic Constant Matrix: (Units=GPa)
#
#
# Indices 1 2 3 4 5 6 
#
# 1 96.3580 8.9091 23.6711 0.0000 0.0000 0.0000
# 2 8.9091 130.2269 4.6621 0.0000 0.0000 0.0000
# 3 23.6711 4.6621 75.9690 0.0000 0.0000 0.0000
# 4 0.0000 0.0000 0.0000 -45.9917 0.0000 0.0000
# 5 0.0000 0.0000 0.0000 0.0000 -377.0372 0.0000
# 6 0.0000 0.0000 0.0000 0.0000 0.0000 22.5828
#
#
#
# Elastic Compliance Matrix: (Units=1/GPa)
#
#
# Indices 1 2 3 4 5 6 
#
# 1 0.011292 -0.000648 -0.003479 0.000000 0.000000 0.000000
# 2 -0.000648 0.007733 -0.000273 0.000000 0.000000 0.000000
# 3 -0.003479 -0.000273 0.014264 0.000000 0.000000 0.000000
# 4 0.000000 0.000000 0.000000 -0.021743 0.000000 0.000000
# 5 0.000000 0.000000 0.000000 0.000000 -0.002652 0.000000
# 6 0.000000 0.000000 0.000000 0.000000 0.000000 0.044282
#
#
# Mechanical properties :
#
#
# Convention : Reuss Voigt Hill
#
# Bulk Modulus (GPa) = 40.83225 41.89317 41.36271
# Shear Modulus (GPa) = 71.28784 -62.40179 4.44303
#
# Velocity S-wave (km/s) = 5.52575 -5.16990 1.37950
# Velocity P-wave (km/s) = 7.62896 4.20636 4.50042
#
# Compressibility (1/GPa) = 0.02449044
#
# Stress axis : x y z
#
# Youngs Moduli (GPa) = 88.55445 129.31593 70.10675
#
# Poissons Ratio (x) = 0.08380 0.24389
# Poissons Ratio (y) = 0.05738 0.01911
# Poissons Ratio (z) = 0.30807 0.03526
#
# Static dielectric constant tensor:
#      x y z
#    x 1.839090 0.000000 0.000000 
#    y 0.000000 1.935170 0.000000 
#    z 0.000000 0.000000 1.862900 
# 
# From -- ./inp_files/67096.got.cif
#   From: 2010.05.17/outbox.cif.g08.bks.cpg/sg63_34_cif.got.tgz:67096.got - 2010.06.03 15:47:04.
