data_PCOD9474541
_publ_section_title
;
Structure prediction by ZEFSAII (Michael W. Deem and Ramdas Pophale) SiO2 
 PCOD9474541
Probable space group: C M C M
;
_chemical_formula_sum "Si O2"
_cell_formula_units_Z 96
_cell_length_a 17.212849
_cell_length_b 15.074381
_cell_length_c 18.610851
_cell_angle_alpha 90.000000
_cell_angle_beta 90.000000
_cell_angle_gamma 90.000000
_cell_volume 4829.014159
_symmetry_space_group_name_H-M "C M C M"
_symmetry_group_IT_number 63
_symmetry_cell_setting 'orthorhombic'
loop_
_space_group_symop_operation_xyz
x,y,z
-x,-y,1/2+z
x,-y,-z
-x,y,1/2-z
-x,-y,-z
x,y,1/2-z
-x,y,z
x,-y,1/2+z
1/2+x,1/2+y,z
1/2-x,1/2-y,1/2+z
1/2+x,1/2-y,-z
1/2-x,1/2+y,1/2-z
1/2-x,1/2-y,-z
1/2+x,1/2+y,1/2-z
1/2-x,1/2+y,z
1/2+x,1/2-y,1/2+z
loop_
_atom_site_type_symbol
_atom_site_label
_atom_site_fract_x
_atom_site_fract_y
_atom_site_fract_z
Si Si1 0.591958 0.732702 0.832021
Si Si2 0.655781 0.125376 0.062335
Si Si3 0.908981 0.306587 0.416130
Si Si4 0.908180 0.946643 0.096779
Si Si5 0.093744 0.476149 0.331798
Si Si6 0.337004 0.619433 0.052877
O O1 0.606355 0.758642 0.750000
O O2 0.500000 0.748755 0.847621
O O3 0.641925 0.789594 0.886969
O O4 0.605728 0.628413 0.843980
O O5 0.745289 0.117007 0.040649
O O6 0.629848 0.042104 0.109970
O O7 0.606116 0.141566 0.990826
O O8 0.886902 0.375288 0.353663
O O9 0.861953 0.215337 0.418935
O O10 0.000000 0.285263 0.410262
O O11 0.000000 0.965338 0.093375
O O12 0.862257 0.038317 0.104123
O O13 0.881425 0.901819 0.021641
O O14 0.117293 0.496454 0.250000
O O15 0.000000 0.485018 0.335992
#
# Coordination Sequence:
#
# PCOD9474541 Si02
#       6
#    16  16  16  16  16  16
#     4  10  21  39  64  91 122 163 210 255 301 360
#     4  12  23  36  61  92 126 155 199 256 311 355
#     4  11  22  39  63  89 116 158 206 249 296 363
#     4  10  21  40  64  88 118 162 204 249 303 363
#     4  10  23  42  62  85 120 166 208 248 300 365
#     4  11  23  36  61  89 124 151 195 253 308 359
#
# _framework density 19.879835
#
# number of rings (size 3 to 8) (size 9 to 14) (size 15 to 20)
#    0.000    1.333    1.667    5.000    4.667    2.667 
#    0.000    5.833    0.000    4.000    0.000    0.000 
#    0.000    0.000    0.000    0.000    0.000    0.000 
#
# Total GULP energy -268313.784747 kJ/mol
# GULP energy per Si atom -5589.870516 kJ/mol
# Density = 1.983459 g / cm^3
# Si number density = 19.879835 Si / 1000 Ang^3
#
#
#
# Elastic Constant Matrix: (Units=GPa)
#
#
# Indices 1 2 3 4 5 6 
#
# 1 19.7605 6.0324 -5.3282 0.0000 0.0000 0.0000
# 2 6.0324 92.5988 3.1007 0.0000 0.0000 0.0000
# 3 -5.3282 3.1007 33.1752 0.0000 0.0000 0.0000
# 4 0.0000 0.0000 0.0000 8.7360 0.0000 0.0000
# 5 0.0000 0.0000 0.0000 0.0000 -7.4388 0.0000
# 6 0.0000 0.0000 0.0000 0.0000 0.0000 78.1520
#
#
#
# Elastic Compliance Matrix: (Units=1/GPa)
#
#
# Indices 1 2 3 4 5 6 
#
# 1 0.054222 -0.003836 0.009067 0.000000 0.000000 0.000000
# 2 -0.003836 0.011105 -0.001654 0.000000 0.000000 0.000000
# 3 0.009067 -0.001654 0.031754 0.000000 0.000000 0.000000
# 4 0.000000 0.000000 0.000000 0.114469 0.000000 0.000000
# 5 0.000000 0.000000 0.000000 0.000000 -0.134430 0.000000
# 6 0.000000 0.000000 0.000000 0.000000 0.000000 0.012796
#
#
# Mechanical properties :
#
#
# Convention : Reuss Voigt Hill
#
# Bulk Modulus (GPa) = 9.59376 17.01603 13.30489
# Shear Modulus (GPa) = 42.55137 25.33847 33.94492
#
# Velocity S-wave (km/s) = 4.63150 3.57400 4.13668
# Velocity P-wave (km/s) = 5.78250 5.06057 5.43354
#
# Compressibility (1/GPa) = 0.10423446
#
# Stress axis : x y z
#
# Youngs Moduli (GPa) = 18.44275 90.05320 31.49225
#
# Poissons Ratio (x) = 0.34544 -0.28554
# Poissons Ratio (y) = 0.07074 0.05209
# Poissons Ratio (z) = -0.16722 0.14894
#
# Static dielectric constant tensor:
#      x y z
#    x 1.670960 0.000000 0.000000 
#    y 0.000000 1.729040 0.000000 
#    z 0.000000 0.000000 1.678730 
# 
# From -- ./inp_files/54190.got.cif
#   From: 2010.05.17/outbox.cif.g08.bks.cpg/sg63_28_cif.got.tgz:54190.got - 2010.06.03 15:47:04.
