data_PCOD9474234
_publ_section_title
;
Structure prediction by ZEFSAII (Michael W. Deem and Ramdas Pophale) SiO2 
 PCOD9474234
Probable space group: C M C M
;
_chemical_formula_sum "Si O2"
_cell_formula_units_Z 52
_cell_length_a 7.423358
_cell_length_b 10.442883
_cell_length_c 31.761444
_cell_angle_alpha 90.000000
_cell_angle_beta 90.000000
_cell_angle_gamma 90.000000
_cell_volume 2462.187128
_symmetry_space_group_name_H-M "C M C M"
_symmetry_group_IT_number 63
_symmetry_cell_setting 'orthorhombic'
loop_
_space_group_symop_operation_xyz
x,y,z
-x,-y,1/2+z
x,-y,-z
-x,y,1/2-z
-x,-y,-z
x,y,1/2-z
-x,y,z
x,-y,1/2+z
1/2+x,1/2+y,z
1/2-x,1/2-y,1/2+z
1/2+x,1/2-y,-z
1/2-x,1/2+y,1/2-z
1/2-x,1/2-y,-z
1/2+x,1/2+y,1/2-z
1/2-x,1/2+y,z
1/2+x,1/2-y,1/2+z
loop_
_atom_site_type_symbol
_atom_site_label
_atom_site_fract_x
_atom_site_fract_y
_atom_site_fract_z
Si Si1 0.292214 0.134244 0.824894
Si Si2 0.000000 0.107194 0.750000
Si Si3 0.781946 0.115271 0.378126
Si Si4 0.715395 0.621609 0.025892
O O1 0.500000 0.152212 0.810832
O O2 0.157581 0.109376 0.786782
O O3 0.234132 0.261196 0.850324
O O4 0.285432 0.013608 0.856292
O O5 0.717621 0.127718 0.426181
O O6 0.000000 0.109848 0.378425
O O7 0.500000 0.606613 0.029020
O O8 0.786207 0.500000 0.000000
O O9 0.750000 0.750000 0.000000
#
# Coordination Sequence:
#
# PCOD9474234 Si02
#       4
#    16   4  16  16
#     4  11  25  44  68  97 127 176 215 268 334 393
#     4  12  26  48  68  96 132 164 220 282 326 390
#     4  10  22  43  64  96 138 172 220 272 324 391
#     4  10  21  37  62  97 133 173 217 265 315 381
#
# _framework density 21.119434999999999
#
# number of rings (size 3 to 8) (size 9 to 14) (size 15 to 20)
#    0.000    1.538    1.538    2.308    2.154    3.077 
#    0.000    0.000    0.000    0.000    0.000    0.000 
#    0.000    0.000    0.000    0.000    0.000    0.000 
#
# Total GULP energy -144878.555578 kJ/mol
# GULP energy per Si atom -5572.252138 kJ/mol
# Density = 2.107137 g / cm^3
# Si number density = 21.119435 Si / 1000 Ang^3
#
#
#
# Elastic Constant Matrix: (Units=GPa)
#
#
# Indices 1 2 3 4 5 6 
#
# 1 97.5175 -10.3998 31.0280 0.0000 0.0000 0.0000
# 2 -10.3998 88.4130 -9.1963 0.0000 0.0000 0.0000
# 3 31.0280 -9.1963 103.9935 0.0000 0.0000 0.0000
# 4 0.0000 0.0000 0.0000 -20.2296 0.0000 0.0000
# 5 0.0000 0.0000 0.0000 0.0000 23.6630 0.0000
# 6 0.0000 0.0000 0.0000 0.0000 0.0000 -12.8351
#
#
#
# Elastic Compliance Matrix: (Units=1/GPa)
#
#
# Indices 1 2 3 4 5 6 
#
# 1 0.011417 0.000998 -0.003318 0.000000 0.000000 0.000000
# 2 0.000998 0.011503 0.000720 0.000000 0.000000 0.000000
# 3 -0.003318 0.000720 0.010670 0.000000 0.000000 0.000000
# 4 0.000000 0.000000 0.000000 -0.049433 0.000000 0.000000
# 5 0.000000 0.000000 0.000000 0.000000 0.042260 0.000000
# 6 0.000000 0.000000 0.000000 0.000000 0.000000 -0.077911
#
#
# Mechanical properties :
#
#
# Convention : Reuss Voigt Hill
#
# Bulk Modulus (GPa) = 32.90829 34.75418 33.83124
# Shear Modulus (GPa) = -131.01414 16.68580 -57.16417
#
# Velocity S-wave (km/s) = -7.88477 2.81387 -5.20825
# Velocity P-wave (km/s) = 8.20225 5.20085 4.48487
#
# Compressibility (1/GPa) = 0.03038748
#
# Stress axis : x y z
#
# Youngs Moduli (GPa) = 87.59072 86.93561 93.72406
#
# Poissons Ratio (x) = -0.08674 0.31099
# Poissons Ratio (y) = -0.08740 -0.06744
# Poissons Ratio (z) = 0.29064 -0.06255
#
# Static dielectric constant tensor:
#      x y z
#    x 1.786010 0.000000 0.000000 
#    y 0.000000 1.720270 0.000000 
#    z 0.000000 0.000000 1.712820 
# 
# From -- ./inp_files/66034.got.cif
#   From: 2010.05.17/outbox.cif.g08.bks.cpg/sg63_34_cif.got.tgz:66034.got - 2010.06.03 15:47:04.
