data_PCOD9474538
_publ_section_title
;
Structure prediction by ZEFSAII (Michael W. Deem and Ramdas Pophale) SiO2 
 PCOD9474538
Probable space group: C M C M
;
_chemical_formula_sum "Si O2"
_cell_formula_units_Z 56
_cell_length_a 15.632202
_cell_length_b 17.648909
_cell_length_c 9.631188
_cell_angle_alpha 90.000000
_cell_angle_beta 90.000000
_cell_angle_gamma 90.000000
_cell_volume 2657.161080
_symmetry_space_group_name_H-M "C M C M"
_symmetry_group_IT_number 63
_symmetry_cell_setting 'orthorhombic'
loop_
_space_group_symop_operation_xyz
x,y,z
-x,-y,1/2+z
x,-y,-z
-x,y,1/2-z
-x,-y,-z
x,y,1/2-z
-x,y,z
x,-y,1/2+z
1/2+x,1/2+y,z
1/2-x,1/2-y,1/2+z
1/2+x,1/2-y,-z
1/2-x,1/2+y,1/2-z
1/2-x,1/2-y,-z
1/2+x,1/2+y,1/2-z
1/2-x,1/2+y,z
1/2+x,1/2-y,1/2+z
loop_
_atom_site_type_symbol
_atom_site_label
_atom_site_fract_x
_atom_site_fract_y
_atom_site_fract_z
Si Si1 0.362416 0.567845 0.906505
Si Si2 0.602893 0.852347 0.904936
Si Si3 0.396242 0.285925 0.591332
Si Si4 0.304087 0.000000 0.500000
O O1 0.396036 0.573552 0.750000
O O2 0.401774 0.500000 0.000000
O O3 0.370722 0.644357 0.993765
O O4 0.262849 0.543469 0.901231
O O5 0.626154 0.825477 0.750000
O O6 0.500000 0.856192 0.912659
O O7 0.632786 0.792149 0.019719
O O8 0.640246 0.935467 0.928822
O O9 0.365789 0.294686 0.750000
O O10 0.500000 0.284682 0.594570
#
# Coordination Sequence:
#
# PCOD9474538 Si02
#       4
#    16  16  16   8
#     4  10  22  39  61  88 119 157 198 240 294 351
#     4  10  21  39  64  90 118 155 198 244 294 349
#     4  10  22  40  62  89 120 154 197 246 295 348
#     4  10  23  38  61  86 124 154 196 240 295 350
#
# _framework density 21.075123000000001
#
# number of rings (size 3 to 8) (size 9 to 14) (size 15 to 20)
#    0.857    1.143    0.000    3.000    0.000    5.714 
#    0.000    2.857    0.000    0.000    0.000    0.000 
#    0.000    0.000    0.000    0.000    0.000    0.000 
#
# Total GULP energy -156227.322637 kJ/mol
# GULP energy per Si atom -5579.547237 kJ/mol
# Density = 2.102716 g / cm^3
# Si number density = 21.075123 Si / 1000 Ang^3
#
#
#
# Elastic Constant Matrix: (Units=GPa)
#
#
# Indices 1 2 3 4 5 6 
#
# 1 25.8166 27.6155 33.0204 0.0000 0.0000 0.0000
# 2 27.6155 146.2340 84.5139 0.0000 0.0000 0.0000
# 3 33.0204 84.5139 208.6037 0.0000 0.0000 0.0000
# 4 0.0000 0.0000 0.0000 17.2861 0.0000 0.0000
# 5 0.0000 0.0000 0.0000 0.0000 21.0685 0.0000
# 6 0.0000 0.0000 0.0000 0.0000 0.0000 34.2105
#
#
#
# Elastic Compliance Matrix: (Units=1/GPa)
#
#
# Indices 1 2 3 4 5 6 
#
# 1 0.053249 -0.006769 -0.005686 0.000000 0.000000 0.000000
# 2 -0.006769 0.009790 -0.002895 0.000000 0.000000 0.000000
# 3 -0.005686 -0.002895 0.006867 0.000000 0.000000 0.000000
# 4 0.000000 0.000000 0.000000 0.057850 0.000000 0.000000
# 5 0.000000 0.000000 0.000000 0.000000 0.047464 0.000000
# 6 0.000000 0.000000 0.000000 0.000000 0.000000 0.029231
#
#
# Mechanical properties :
#
#
# Convention : Reuss Voigt Hill
#
# Bulk Modulus (GPa) = 25.50740 74.55044 50.02892
# Shear Modulus (GPa) = 20.14351 30.21332 25.17842
#
# Velocity S-wave (km/s) = 3.09495 3.79040 3.46019
# Velocity P-wave (km/s) = 4.99009 7.38963 6.30506
#
# Compressibility (1/GPa) = 0.03920430
#
# Stress axis : x y z
#
# Youngs Moduli (GPa) = 18.77976 102.14879 145.63219
#
# Poissons Ratio (x) = 0.69149 0.82811
# Poissons Ratio (y) = 0.12713 0.42155
# Poissons Ratio (z) = 0.10679 0.29568
#
# Static dielectric constant tensor:
#      x y z
#    x 1.791680 0.000000 0.000000 
#    y 0.000000 1.708490 0.000000 
#    z 0.000000 0.000000 1.742160 
# 
# From -- ./inp_files/5531.got.cif
#   From: 2010.05.17/outbox.cif.g08.bks.cpg/sg63_3_cif.got.tgz:5531.got - 2010.06.03 15:47:04.
