data_PCOD9474867
_publ_section_title
;
Structure prediction by ZEFSAII (Michael W. Deem and Ramdas Pophale) SiO2 
 PCOD9474867
Probable space group: C M C M
;
_chemical_formula_sum "Si O2"
_cell_formula_units_Z 64
_cell_length_a 12.434147
_cell_length_b 17.658571
_cell_length_c 15.292073
_cell_angle_alpha 90.000000
_cell_angle_beta 90.000000
_cell_angle_gamma 90.000000
_cell_volume 3357.669269
_symmetry_space_group_name_H-M "C M C M"
_symmetry_group_IT_number 63
_symmetry_cell_setting 'orthorhombic'
loop_
_space_group_symop_operation_xyz
x,y,z
-x,-y,1/2+z
x,-y,-z
-x,y,1/2-z
-x,-y,-z
x,y,1/2-z
-x,y,z
x,-y,1/2+z
1/2+x,1/2+y,z
1/2-x,1/2-y,1/2+z
1/2+x,1/2-y,-z
1/2-x,1/2+y,1/2-z
1/2-x,1/2-y,-z
1/2+x,1/2+y,1/2-z
1/2-x,1/2+y,z
1/2+x,1/2-y,1/2+z
loop_
_atom_site_type_symbol
_atom_site_label
_atom_site_fract_x
_atom_site_fract_y
_atom_site_fract_z
Si Si1 0.234941 0.959021 0.750000
Si Si2 0.872772 0.462059 0.404316
Si Si3 0.500000 0.654320 0.602383
Si Si4 0.000000 0.718213 0.250000
Si Si5 0.765124 0.810482 0.076044
Si Si6 0.000000 0.968731 0.250000
Si Si7 0.270311 0.208707 0.250000
O O1 0.208122 0.869278 0.750000
O O2 0.302760 0.990150 0.666158
O O3 0.115460 0.992696 0.750000
O O4 0.866758 0.500000 0.500000
O O5 0.819515 0.378734 0.414702
O O6 0.000000 0.457985 0.379631
O O7 0.500000 0.728042 0.665493
O O8 0.615519 0.656281 0.557537
O O9 0.500000 0.583360 0.665057
O O10 0.108947 0.673768 0.250000
O O11 0.760082 0.762840 0.166384
O O12 0.750000 0.750000 0.000000
#
# Coordination Sequence:
#
# PCOD9474867 Si02
#       7
#     8  16   8   4  16   4   8
#     4  12  23  43  66  95 128 172 211 263 324 387
#     4  11  25  43  65  95 130 170 218 268 320 382
#     4   9  18  38  64  88 117 165 207 254 318 370
#     4   7  16  32  62  84 111 148 204 256 291 360
#     4  11  22  41  66  92 126 166 211 265 318 381
#     4  11  20  42  66  90 127 166 214 262 317 404
#     4  10  22  39  61  94 122 160 209 256 315 375
#
# _framework density 19.060841
#
# number of rings (size 3 to 8) (size 9 to 14) (size 15 to 20)
#    0.000    1.500    2.500    3.375    3.500    0.000 
#    2.250    5.000    0.000    0.000    0.000    0.000 
#    0.000    0.000    0.000    0.000    0.000    0.000 
#
# Total GULP energy -178328.489780 kJ/mol
# GULP energy per Si atom -5572.765306 kJ/mol
# Density = 1.901746 g / cm^3
# Si number density = 19.060841 Si / 1000 Ang^3
#
#
#
# Elastic Constant Matrix: (Units=GPa)
#
#
# Indices 1 2 3 4 5 6 
#
# 1 163.6013 60.5218 40.6235 0.0000 0.0000 0.0000
# 2 60.5218 118.5321 40.0268 0.0000 0.0000 0.0000
# 3 40.6235 40.0268 104.8338 0.0000 0.0000 0.0000
# 4 0.0000 0.0000 0.0000 25.0604 0.0000 0.0000
# 5 0.0000 0.0000 0.0000 0.0000 24.5108 0.0000
# 6 0.0000 0.0000 0.0000 0.0000 0.0000 34.0475
#
#
#
# Elastic Compliance Matrix: (Units=1/GPa)
#
#
# Indices 1 2 3 4 5 6 
#
# 1 0.007798 -0.003400 -0.001724 0.000000 0.000000 0.000000
# 2 -0.003400 0.011167 -0.002946 0.000000 0.000000 0.000000
# 3 -0.001724 -0.002946 0.011332 0.000000 0.000000 0.000000
# 4 0.000000 0.000000 0.000000 0.039904 0.000000 0.000000
# 5 0.000000 0.000000 0.000000 0.000000 0.040798 0.000000
# 6 0.000000 0.000000 0.000000 0.000000 0.000000 0.029371
#
#
# Mechanical properties :
#
#
# Convention : Reuss Voigt Hill
#
# Bulk Modulus (GPa) = 70.63326 74.36793 72.50059
# Shear Modulus (GPa) = 31.01184 33.11008 32.06096
#
# Velocity S-wave (km/s) = 4.03798 4.17234 4.10571
# Velocity P-wave (km/s) = 7.67317 7.89380 7.78426
#
# Compressibility (1/GPa) = 0.01415764
#
# Stress axis : x y z
#
# Youngs Moduli (GPa) = 128.23697 89.54708 88.24658
#
# Poissons Ratio (x) = 0.30442 0.15212
# Poissons Ratio (y) = 0.43595 0.26002
# Poissons Ratio (z) = 0.22105 0.26385
#
# Static dielectric constant tensor:
#      x y z
#    x 1.712230 0.000000 0.000000 
#    y 0.000000 1.628890 0.000000 
#    z 0.000000 0.000000 1.761040 
# 
# From -- ./inp_files/29248.got.cif
#   From: 2010.05.17/outbox.cif.g08.bks.cpg/sg63_15_cif.got.tgz:29248.got - 2010.06.03 15:47:04.
