data_PCOD9474952
_publ_section_title
;
Structure prediction by ZEFSAII (Michael W. Deem and Ramdas Pophale) SiO2 
 PCOD9474952
Probable space group: C M C M
;
_chemical_formula_sum "Si O2"
_cell_formula_units_Z 112
_cell_length_a 15.065895
_cell_length_b 16.111605
_cell_length_c 23.448262
_cell_angle_alpha 90.000000
_cell_angle_beta 90.000000
_cell_angle_gamma 90.000000
_cell_volume 5691.731444
_symmetry_space_group_name_H-M "C M C M"
_symmetry_group_IT_number 63
_symmetry_cell_setting 'orthorhombic'
loop_
_space_group_symop_operation_xyz
x,y,z
-x,-y,1/2+z
x,-y,-z
-x,y,1/2-z
-x,-y,-z
x,y,1/2-z
-x,y,z
x,-y,1/2+z
1/2+x,1/2+y,z
1/2-x,1/2-y,1/2+z
1/2+x,1/2-y,-z
1/2-x,1/2+y,1/2-z
1/2-x,1/2-y,-z
1/2+x,1/2+y,1/2-z
1/2-x,1/2+y,z
1/2+x,1/2-y,1/2+z
loop_
_atom_site_type_symbol
_atom_site_label
_atom_site_fract_x
_atom_site_fract_y
_atom_site_fract_z
Si Si1 0.899757 0.420180 0.123373
Si Si2 0.355657 0.102949 0.084355
Si Si3 0.213074 0.100158 0.816887
Si Si4 0.902602 0.290116 0.478208
Si Si5 0.169850 0.885395 0.524416
Si Si6 0.100934 0.970698 0.087666
Si Si7 0.394083 0.770955 0.682478
O O1 0.895140 0.513246 0.098237
O O2 0.816033 0.405174 0.164613
O O3 0.887168 0.356463 0.071272
O O4 0.000000 0.407729 0.147033
O O5 0.261614 0.088825 0.053601
O O6 0.357714 0.155684 0.142579
O O7 0.402088 0.160986 0.037532
O O8 0.205183 0.083795 0.750000
O O9 0.156416 0.036357 0.854739
O O10 0.165116 0.188917 0.828494
O O11 0.837180 0.213063 0.474835
O O12 0.000000 0.252502 0.470406
O O13 0.152635 0.916583 0.460206
O O14 0.100361 0.936655 0.562421
O O15 0.000000 0.940614 0.094077
O O16 0.386897 0.790335 0.750000
O O17 0.500000 0.757767 0.670636
#
# Coordination Sequence:
#
# PCOD9474952 Si02
#       7
#    16  16  16  16  16  16  16
#     4  11  24  41  61  90 130 171 210 258 315 382
#     4  12  22  38  62  90 129 168 214 255 311 374
#     4  11  23  42  65  91 123 162 213 267 316 372
#     4  11  22  36  58  89 123 164 210 255 311 375
#     4  11  22  38  61  93 130 165 209 256 316 379
#     4  11  22  39  64  94 131 168 207 260 320 382
#     4  10  22  40  64  94 125 162 214 272 322 370
#
# _framework density 19.677668000000001
#
# number of rings (size 3 to 8) (size 9 to 14) (size 15 to 20)
#    0.000    1.000    1.429    6.857    2.000    2.857 
#    0.000    0.000    0.000    0.000    0.000    2.000 
#    0.000    0.000    0.000    0.000    0.000    0.000 
#
# Total GULP energy -312740.387834 kJ/mol
# GULP energy per Si atom -5584.649783 kJ/mol
# Density = 1.963288 g / cm^3
# Si number density = 19.677668 Si / 1000 Ang^3
#
#
#
# Elastic Constant Matrix: (Units=GPa)
#
#
# Indices 1 2 3 4 5 6 
#
# 1 133.5614 31.5104 52.2251 0.0000 0.0000 0.0000
# 2 31.5104 95.2832 37.4027 0.0000 0.0000 0.0000
# 3 52.2251 37.4027 90.8304 0.0000 0.0000 0.0000
# 4 0.0000 0.0000 0.0000 22.8314 0.0000 0.0000
# 5 0.0000 0.0000 0.0000 0.0000 -7.8371 0.0000
# 6 0.0000 0.0000 0.0000 0.0000 0.0000 25.8626
#
#
#
# Elastic Compliance Matrix: (Units=1/GPa)
#
#
# Indices 1 2 3 4 5 6 
#
# 1 0.009777 -0.001225 -0.005117 0.000000 0.000000 0.000000
# 2 -0.001225 0.012672 -0.004514 0.000000 0.000000 0.000000
# 3 -0.005117 -0.004514 0.015811 0.000000 0.000000 0.000000
# 4 0.000000 0.000000 0.000000 0.043799 0.000000 0.000000
# 5 0.000000 0.000000 0.000000 0.000000 -0.127598 0.000000
# 6 0.000000 0.000000 0.000000 0.000000 0.000000 0.038666
#
#
# Mechanical properties :
#
#
# Convention : Reuss Voigt Hill
#
# Bulk Modulus (GPa) = 60.43070 62.43905 61.43488
# Shear Modulus (GPa) = 245.64108 21.40716 133.52412
#
# Velocity S-wave (km/s) = 11.18496 3.30190 8.24639
# Velocity P-wave (km/s) = 14.05637 6.80709 11.04351
#
# Compressibility (1/GPa) = 0.01654788
#
# Stress axis : x y z
#
# Youngs Moduli (GPa) = 102.28033 78.91449 63.24840
#
# Poissons Ratio (x) = 0.09663 0.32366
# Poissons Ratio (y) = 0.12525 0.28551
# Poissons Ratio (z) = 0.52340 0.35622
#
# Static dielectric constant tensor:
#      x y z
#    x 1.790480 0.000000 0.000000 
#    y 0.000000 1.691930 0.000000 
#    z 0.000000 0.000000 1.656790 
# 
# From -- ./inp_files/63017.got.cif
#   From: 2010.05.17/outbox.cif.g08.bks.cpg/sg63_32_cif.got.tgz:63017.got - 2010.06.03 15:47:04.
