data_PCOD9474340
_publ_section_title
;
Structure prediction by ZEFSAII (Michael W. Deem and Ramdas Pophale) SiO2 
 PCOD9474340
Probable space group: C M C M
;
_chemical_formula_sum "Si O2"
_cell_formula_units_Z 96
_cell_length_a 22.831326
_cell_length_b 11.980598
_cell_length_c 18.157047
_cell_angle_alpha 90.000000
_cell_angle_beta 90.000000
_cell_angle_gamma 90.000000
_cell_volume 4966.550422
_symmetry_space_group_name_H-M "C M C M"
_symmetry_group_IT_number 63
_symmetry_cell_setting 'orthorhombic'
loop_
_space_group_symop_operation_xyz
x,y,z
-x,-y,1/2+z
x,-y,-z
-x,y,1/2-z
-x,-y,-z
x,y,1/2-z
-x,y,z
x,-y,1/2+z
1/2+x,1/2+y,z
1/2-x,1/2-y,1/2+z
1/2+x,1/2-y,-z
1/2-x,1/2+y,1/2-z
1/2-x,1/2-y,-z
1/2+x,1/2+y,1/2-z
1/2-x,1/2+y,z
1/2+x,1/2-y,1/2+z
loop_
_atom_site_type_symbol
_atom_site_label
_atom_site_fract_x
_atom_site_fract_y
_atom_site_fract_z
Si Si1 0.267948 0.754683 0.085512
Si Si2 0.351791 0.802920 0.662787
Si Si3 0.383760 0.386962 0.907919
Si Si4 0.429127 0.632349 0.925930
Si Si5 0.431643 0.814672 0.330257
Si Si6 0.650731 0.961973 0.084393
O O1 0.211186 0.741672 0.135562
O O2 0.316753 0.657207 0.096523
O O3 0.297002 0.875084 0.099196
O O4 0.250000 0.750000 0.000000
O O5 0.358582 0.794301 0.750000
O O6 0.402289 0.733433 0.620915
O O7 0.351374 0.930255 0.635404
O O8 0.397871 0.517358 0.899560
O O9 0.417564 0.313287 0.848231
O O10 0.409013 0.355679 0.988915
O O11 0.500000 0.623992 0.922003
O O12 0.405853 0.844634 0.250000
O O13 0.500000 0.832018 0.327721
O O14 0.405151 0.887812 0.395319
O O15 0.652865 0.000000 0.000000
#
# Coordination Sequence:
#
# PCOD9474340 Si02
#       6
#    16  16  16  16  16  16
#     4  11  22  42  68  93 126 167 218 275 335 396
#     4  12  27  42  62  97 136 176 217 269 336 405
#     4  10  21  39  69  95 125 168 227 280 326 389
#     4  11  23  41  66  99 135 177 226 278 333 399
#     4  10  21  38  60  89 125 162 205 259 318 379
#     4  11  23  41  68  91 120 165 212 263 320 389
#
# _framework density 19.329311000000001
#
# number of rings (size 3 to 8) (size 9 to 14) (size 15 to 20)
#    0.000    1.167    3.333    3.500    2.333    5.333 
#    0.000    0.000    0.000    0.000    0.000    0.000 
#    0.000    0.000    0.000    0.000    0.000    0.000 
#
# Total GULP energy -268050.678501 kJ/mol
# GULP energy per Si atom -5584.389135 kJ/mol
# Density = 1.928532 g / cm^3
# Si number density = 19.329311 Si / 1000 Ang^3
#
#
#
# Elastic Constant Matrix: (Units=GPa)
#
#
# Indices 1 2 3 4 5 6 
#
# 1 67.9316 30.7797 1.6588 0.0000 0.0000 0.0000
# 2 30.7797 102.1124 15.9057 0.0000 0.0000 0.0000
# 3 1.6588 15.9057 34.9453 0.0000 0.0000 0.0000
# 4 0.0000 0.0000 0.0000 22.0038 0.0000 0.0000
# 5 0.0000 0.0000 0.0000 0.0000 18.3316 0.0000
# 6 0.0000 0.0000 0.0000 0.0000 0.0000 -2.2413
#
#
#
# Elastic Compliance Matrix: (Units=1/GPa)
#
#
# Indices 1 2 3 4 5 6 
#
# 1 0.017138 -0.005424 0.001655 0.000000 0.000000 0.000000
# 2 -0.005424 0.012257 -0.005321 0.000000 0.000000 0.000000
# 3 0.001655 -0.005321 0.030960 0.000000 0.000000 0.000000
# 4 0.000000 0.000000 0.000000 0.045447 0.000000 0.000000
# 5 0.000000 0.000000 0.000000 0.000000 0.054551 0.000000
# 6 0.000000 0.000000 0.000000 0.000000 0.000000 -0.446179
#
#
# Mechanical properties :
#
#
# Convention : Reuss Voigt Hill
#
# Bulk Modulus (GPa) = 23.71101 33.51976 28.61539
# Shear Modulus (GPa) = -19.71694 18.06184 -0.82755
#
# Velocity S-wave (km/s) = -3.19729 3.06016 -0.65503
# Velocity P-wave (km/s) = 1.15618 5.46490 3.77680
#
# Compressibility (1/GPa) = 0.04217449
#
# Stress axis : x y z
#
# Youngs Moduli (GPa) = 58.35087 81.58688 32.30004
#
# Poissons Ratio (x) = 0.44250 -0.05346
# Poissons Ratio (y) = 0.31647 0.17188
# Poissons Ratio (z) = -0.09658 0.43416
#
# Static dielectric constant tensor:
#      x y z
#    x 1.677090 0.000000 0.000000 
#    y 0.000000 1.710840 0.000000 
#    z 0.000000 0.000000 1.676750 
# 
# From -- ./inp_files/47986.got.cif
#   From: 2010.05.17/outbox.cif.g08.bks.cpg/sg63_24_cif.got.tgz:47986.got - 2010.06.03 15:47:04.
