data_PCOD9474591
_publ_section_title
;
Structure prediction by ZEFSAII (Michael W. Deem and Ramdas Pophale) SiO2 
 PCOD9474591
Probable space group: C M C M
;
_chemical_formula_sum "Si O2"
_cell_formula_units_Z 80
_cell_length_a 9.553557
_cell_length_b 16.614124
_cell_length_c 25.776905
_cell_angle_alpha 90.000000
_cell_angle_beta 90.000000
_cell_angle_gamma 90.000000
_cell_volume 4091.412970
_symmetry_space_group_name_H-M "C M C M"
_symmetry_group_IT_number 63
_symmetry_cell_setting 'orthorhombic'
loop_
_space_group_symop_operation_xyz
x,y,z
-x,-y,1/2+z
x,-y,-z
-x,y,1/2-z
-x,-y,-z
x,y,1/2-z
-x,y,z
x,-y,1/2+z
1/2+x,1/2+y,z
1/2-x,1/2-y,1/2+z
1/2+x,1/2-y,-z
1/2-x,1/2+y,1/2-z
1/2-x,1/2-y,-z
1/2+x,1/2+y,1/2-z
1/2-x,1/2+y,z
1/2+x,1/2-y,1/2+z
loop_
_atom_site_type_symbol
_atom_site_label
_atom_site_fract_x
_atom_site_fract_y
_atom_site_fract_z
Si Si1 0.845202 0.442481 0.048693
Si Si2 0.835580 0.827642 0.862121
Si Si3 0.166580 0.005340 0.643679
Si Si4 0.834679 0.816933 0.310440
Si Si5 0.336148 0.326747 0.984403
O O1 0.780022 0.485112 0.098219
O O2 0.000000 0.405459 0.059732
O O3 0.865348 0.500000 0.000000
O O4 0.721304 0.388030 0.026744
O O5 0.809760 0.914597 0.834423
O O6 0.749203 0.750141 0.843118
O O7 0.809771 0.843896 0.923574
O O8 0.000000 0.808869 0.856100
O O9 0.000000 0.005135 0.627576
O O10 0.187172 0.088276 0.675817
O O11 0.800324 0.805379 0.250000
O O12 0.000000 0.802221 0.318297
O O13 0.500000 0.315667 0.990389
O O14 0.250000 0.250000 0.000000
#
# Coordination Sequence:
#
# PCOD9474591 Si02
#       5
#    16  16  16  16  16
#     4  11  22  35  55  86 122 158 196 239 290 352
#     4  10  22  39  61  88 117 154 201 247 294 355
#     4  10  21  40  64  88 118 161 205 248 299 358
#     4  10  23  42  63  88 117 150 194 250 310 366
#     4  11  22  36  56  84 120 158 202 246 294 354
#
# _framework density 19.553148
#
# number of rings (size 3 to 8) (size 9 to 14) (size 15 to 20)
#    0.000    1.600    2.000    2.400    0.000    8.400 
#    0.000    2.000    0.000    0.000    0.000    0.000 
#    0.000    0.000    0.000    0.000    0.000    0.000 
#
# Total GULP energy -222701.716524 kJ/mol
# GULP energy per Si atom -5567.542913 kJ/mol
# Density = 1.950864 g / cm^3
# Si number density = 19.553148 Si / 1000 Ang^3
#
#
#
# Elastic Constant Matrix: (Units=GPa)
#
#
# Indices 1 2 3 4 5 6 
#
# 1 82.7690 49.8676 42.6721 0.0000 0.0000 0.0000
# 2 49.8676 110.3222 16.9861 0.0000 0.0000 0.0000
# 3 42.6721 16.9861 31.8442 0.0000 0.0000 0.0000
# 4 0.0000 0.0000 0.0000 21.6234 0.0000 0.0000
# 5 0.0000 0.0000 0.0000 0.0000 32.9513 0.0000
# 6 0.0000 0.0000 0.0000 0.0000 0.0000 34.3885
#
#
#
# Elastic Compliance Matrix: (Units=1/GPa)
#
#
# Indices 1 2 3 4 5 6 
#
# 1 0.054551 -0.014602 -0.065311 0.000000 0.000000 0.000000
# 2 -0.014602 0.013784 0.012215 0.000000 0.000000 0.000000
# 3 -0.065311 0.012215 0.112406 0.000000 0.000000 0.000000
# 4 0.000000 0.000000 0.000000 0.046246 0.000000 0.000000
# 5 0.000000 0.000000 0.000000 0.000000 0.030348 0.000000
# 6 0.000000 0.000000 0.000000 0.000000 0.000000 0.029079
#
#
# Mechanical properties :
#
#
# Convention : Reuss Voigt Hill
#
# Bulk Modulus (GPa) = 22.05352 49.33188 35.69270
# Shear Modulus (GPa) = 11.44361 25.48661 18.46511
#
# Velocity S-wave (km/s) = 2.42183 3.61425 3.07637
# Velocity P-wave (km/s) = 4.37305 6.53464 5.55991
#
# Compressibility (1/GPa) = 0.04534424
#
# Stress axis : x y z
#
# Youngs Moduli (GPa) = 18.33154 72.54720 8.89636
#
# Poissons Ratio (x) = 1.05935 0.58103
# Poissons Ratio (y) = 0.26768 -0.10867
# Poissons Ratio (z) = 1.19724 -0.88614
#
# Static dielectric constant tensor:
#      x y z
#    x 1.658780 0.000000 0.000000 
#    y 0.000000 1.689980 0.000000 
#    z 0.000000 0.000000 1.745410 
# 
# From -- ./inp_files/66625.got.cif
#   From: 2010.05.17/outbox.cif.g08.bks.cpg/sg63_34_cif.got.tgz:66625.got - 2010.06.03 15:47:04.
