data_PCOD9474567
_publ_section_title
;
Structure prediction by ZEFSAII (Michael W. Deem and Ramdas Pophale) SiO2 
 PCOD9474567
Probable space group: C M C M
;
_chemical_formula_sum "Si O2"
_cell_formula_units_Z 64
_cell_length_a 7.850916
_cell_length_b 28.972168
_cell_length_c 13.909419
_cell_angle_alpha 90.000000
_cell_angle_beta 90.000000
_cell_angle_gamma 90.000000
_cell_volume 3163.809424
_symmetry_space_group_name_H-M "C M C M"
_symmetry_group_IT_number 63
_symmetry_cell_setting 'orthorhombic'
loop_
_space_group_symop_operation_xyz
x,y,z
-x,-y,1/2+z
x,-y,-z
-x,y,1/2-z
-x,-y,-z
x,y,1/2-z
-x,y,z
x,-y,1/2+z
1/2+x,1/2+y,z
1/2-x,1/2-y,1/2+z
1/2+x,1/2-y,-z
1/2-x,1/2+y,1/2-z
1/2-x,1/2-y,-z
1/2+x,1/2+y,1/2-z
1/2-x,1/2+y,z
1/2+x,1/2-y,1/2+z
loop_
_atom_site_type_symbol
_atom_site_label
_atom_site_fract_x
_atom_site_fract_y
_atom_site_fract_z
Si Si1 0.000000 0.554057 0.980334
Si Si2 0.802284 0.697468 0.633890
Si Si3 0.000000 0.631892 0.365954
Si Si4 0.803792 0.799993 0.866719
Si Si5 0.690021 0.597345 0.865617
O O1 0.835171 0.569464 0.919624
O O2 0.000000 0.500000 0.000000
O O3 0.000000 0.584052 0.077818
O O4 0.798783 0.697891 0.750000
O O5 0.743025 0.748456 0.605078
O O6 0.704569 0.651430 0.605866
O O7 0.000000 0.692484 0.605390
O O8 0.833230 0.661697 0.393896
O O9 0.000000 0.626237 0.250000
O O10 0.808635 0.800442 0.750000
O O11 0.000000 0.806778 0.898684
O O12 0.716292 0.594970 0.750000
O O13 0.500000 0.580668 0.887198
#
# Coordination Sequence:
#
# PCOD9474567 Si02
#       5
#     8  16   8  16  16
#     4  12  27  45  64  85 121 162 209 272 322 352
#     4   8  13  26  54  89 123 158 190 230 293 363
#     4  10  22  39  60  87 118 164 215 246 296 372
#     4   8  15  29  53  85 121 160 197 236 288 358
#     4  10  21  39  67  97 123 155 199 252 313 375
#
# _framework density 20.228777999999998
#
# number of rings (size 3 to 8) (size 9 to 14) (size 15 to 20)
#    0.000    2.750    1.250    1.875    1.750    2.500 
#    0.000    1.250    0.000    3.000    0.000    0.000 
#    0.000    0.000    0.000    0.000    0.000    0.000 
#
# Total GULP energy -178736.930959 kJ/mol
# GULP energy per Si atom -5585.529092 kJ/mol
# Density = 2.018274 g / cm^3
# Si number density = 20.228778 Si / 1000 Ang^3
#
#
#
# Elastic Constant Matrix: (Units=GPa)
#
#
# Indices 1 2 3 4 5 6 
#
# 1 128.5392 96.7796 56.0326 0.0000 0.0000 0.0000
# 2 96.7796 169.3564 42.3312 0.0000 0.0000 0.0000
# 3 56.0326 42.3312 98.0373 0.0000 0.0000 0.0000
# 4 0.0000 0.0000 0.0000 30.3336 0.0000 0.0000
# 5 0.0000 0.0000 0.0000 0.0000 15.9033 0.0000
# 6 0.0000 0.0000 0.0000 0.0000 0.0000 -36.4517
#
#
#
# Elastic Compliance Matrix: (Units=1/GPa)
#
#
# Indices 1 2 3 4 5 6 
#
# 1 0.016223 -0.007794 -0.005907 0.000000 0.000000 0.000000
# 2 -0.007794 0.010364 -0.000020 0.000000 0.000000 0.000000
# 3 -0.005907 -0.000020 0.013585 0.000000 0.000000 0.000000
# 4 0.000000 0.000000 0.000000 0.032967 0.000000 0.000000
# 5 0.000000 0.000000 0.000000 0.000000 0.062880 0.000000
# 6 0.000000 0.000000 0.000000 0.000000 0.000000 -0.027434
#
#
# Mechanical properties :
#
#
# Convention : Reuss Voigt Hill
#
# Bulk Modulus (GPa) = 78.55863 87.35776 82.95819
# Shear Modulus (GPa) = 35.64536 15.34300 25.49418
#
# Velocity S-wave (km/s) = 4.20230 2.75703 3.55391
# Velocity P-wave (km/s) = 7.90349 7.30846 7.61179
#
# Compressibility (1/GPa) = 0.01272935
#
# Stress axis : x y z
#
# Youngs Moduli (GPa) = 61.64042 96.48883 73.61144
#
# Poissons Ratio (x) = 0.75207 0.43480
# Poissons Ratio (y) = 0.48045 0.00148
# Poissons Ratio (z) = 0.36409 0.00194
#
# Static dielectric constant tensor:
#      x y z
#    x 1.705190 0.000000 0.000000 
#    y 0.000000 1.676150 0.000000 
#    z 0.000000 0.000000 1.787240 
# 
# From -- ./inp_files/27759.got.cif
#   From: 2010.05.17/outbox.cif.g08.bks.cpg/sg63_14_cif.got.tgz:27759.got - 2010.06.03 15:47:04.
