data_PCOD9474269
_publ_section_title
;
Structure prediction by ZEFSAII (Michael W. Deem and Ramdas Pophale) SiO2 
 PCOD9474269
Probable space group: C M C M
;
_chemical_formula_sum "Si O2"
_cell_formula_units_Z 96
_cell_length_a 21.201945
_cell_length_b 27.306306
_cell_length_c 8.439957
_cell_angle_alpha 90.000000
_cell_angle_beta 90.000000
_cell_angle_gamma 90.000000
_cell_volume 4886.286080
_symmetry_space_group_name_H-M "C M C M"
_symmetry_group_IT_number 63
_symmetry_cell_setting 'orthorhombic'
loop_
_space_group_symop_operation_xyz
x,y,z
-x,-y,1/2+z
x,-y,-z
-x,y,1/2-z
-x,-y,-z
x,y,1/2-z
-x,y,z
x,-y,1/2+z
1/2+x,1/2+y,z
1/2-x,1/2-y,1/2+z
1/2+x,1/2-y,-z
1/2-x,1/2+y,1/2-z
1/2-x,1/2-y,-z
1/2+x,1/2+y,1/2-z
1/2-x,1/2+y,z
1/2+x,1/2-y,1/2+z
loop_
_atom_site_type_symbol
_atom_site_label
_atom_site_fract_x
_atom_site_fract_y
_atom_site_fract_z
Si Si1 0.306475 0.554911 0.942505
Si Si2 0.313074 0.112846 0.567844
Si Si3 0.932202 0.112589 0.938314
Si Si4 0.261344 0.697660 0.071996
Si Si5 0.592935 0.284636 0.571136
Si Si6 0.927890 0.674711 0.439357
O O1 0.304377 0.557557 0.750000
O O2 0.236354 0.572512 0.999463
O O3 0.366790 0.587743 0.997519
O O4 0.317203 0.500000 0.000000
O O5 0.326749 0.101016 0.750000
O O6 0.267885 0.159818 0.549456
O O7 0.377901 0.132954 0.491442
O O8 0.931390 0.104734 0.750000
O O9 0.000000 0.092654 0.000795
O O10 0.934320 0.170875 0.969816
O O11 0.234369 0.690780 0.250000
O O12 0.335607 0.697125 0.082811
O O13 0.250000 0.750000 0.000000
O O14 0.567783 0.283512 0.750000
O O15 0.588788 0.229410 0.503638
O O16 0.926714 0.677545 0.250000
O O17 0.000000 0.663851 0.490571
#
# Coordination Sequence:
#
# PCOD9474269 Si02
#       6
#    16  16  16  16  16  16
#     4  10  23  41  62  87 112 142 187 239 295 348
#     4  11  22  38  60  84 112 149 191 240 290 341
#     4  10  21  38  58  81 116 159 197 236 282 334
#     4  11  21  32  52  82 114 152 194 235 280 333
#     4  11  22  34  53  83 119 158 198 237 275 325
#     4  11  24  39  57  84 119 158 194 232 283 344
#
# _framework density 19.646823000000001
#
# number of rings (size 3 to 8) (size 9 to 14) (size 15 to 20)
#    0.000    1.333    3.333    2.500    0.000    7.333 
#    0.000    0.000    0.000    0.500    0.000    0.000 
#    0.000    0.000    0.000    0.000    0.000    0.000 
#
# Total GULP energy -267299.276169 kJ/mol
# GULP energy per Si atom -5568.734920 kJ/mol
# Density = 1.960211 g / cm^3
# Si number density = 19.646823 Si / 1000 Ang^3
#
#
#
# Elastic Constant Matrix: (Units=GPa)
#
#
# Indices 1 2 3 4 5 6 
#
# 1 153.8445 37.8748 21.0953 0.0000 0.0000 0.0000
# 2 37.8748 79.8291 7.2201 0.0000 0.0000 0.0000
# 3 21.0953 7.2201 24.1909 0.0000 0.0000 0.0000
# 4 0.0000 0.0000 0.0000 22.2712 0.0000 0.0000
# 5 0.0000 0.0000 0.0000 0.0000 13.0780 0.0000
# 6 0.0000 0.0000 0.0000 0.0000 0.0000 -8.5118
#
#
#
# Elastic Compliance Matrix: (Units=1/GPa)
#
#
# Indices 1 2 3 4 5 6 
#
# 1 0.008156 -0.003316 -0.006123 0.000000 0.000000 0.000000
# 2 -0.003316 0.014222 -0.001353 0.000000 0.000000 0.000000
# 3 -0.006123 -0.001353 0.047081 0.000000 0.000000 0.000000
# 4 0.000000 0.000000 0.000000 0.044901 0.000000 0.000000
# 5 0.000000 0.000000 0.000000 0.000000 0.076464 0.000000
# 6 0.000000 0.000000 0.000000 0.000000 0.000000 -0.117484
#
#
# Mechanical properties :
#
#
# Convention : Reuss Voigt Hill
#
# Bulk Modulus (GPa) = 20.88742 43.36055 32.12398
# Shear Modulus (GPa) = 45.09274 18.14577 31.61925
#
# Velocity S-wave (km/s) = 4.79599 3.04237 4.01606
# Velocity P-wave (km/s) = 6.42831 5.87020 6.15559
#
# Compressibility (1/GPa) = 0.04787571
#
# Stress axis : x y z
#
# Youngs Moduli (GPa) = 122.61026 70.31189 21.23998
#
# Poissons Ratio (x) = 0.23314 0.13004
# Poissons Ratio (y) = 0.40655 0.02875
# Poissons Ratio (z) = 0.75069 0.09516
#
# Static dielectric constant tensor:
#      x y z
#    x 1.791940 0.000000 0.000000 
#    y 0.000000 1.657550 0.000000 
#    z 0.000000 0.000000 1.691710 
# 
# From -- ./inp_files/8653.got.cif
#   From: 2010.05.17/outbox.cif.g08.bks.cpg/sg63_5_cif.got.tgz:8653.got - 2010.06.03 15:47:04.
