data_PCOD9474327
_publ_section_title
;
Structure prediction by ZEFSAII (Michael W. Deem and Ramdas Pophale) SiO2 
 PCOD9474327
Probable space group: C M C M
;
_chemical_formula_sum "Si O2"
_cell_formula_units_Z 112
_cell_length_a 13.463659
_cell_length_b 28.168215
_cell_length_c 15.208674
_cell_angle_alpha 90.000000
_cell_angle_beta 90.000000
_cell_angle_gamma 90.000000
_cell_volume 5767.847660
_symmetry_space_group_name_H-M "C M C M"
_symmetry_group_IT_number 63
_symmetry_cell_setting 'orthorhombic'
loop_
_space_group_symop_operation_xyz
x,y,z
-x,-y,1/2+z
x,-y,-z
-x,y,1/2-z
-x,-y,-z
x,y,1/2-z
-x,y,z
x,-y,1/2+z
1/2+x,1/2+y,z
1/2-x,1/2-y,1/2+z
1/2+x,1/2-y,-z
1/2-x,1/2+y,1/2-z
1/2-x,1/2-y,-z
1/2+x,1/2+y,1/2-z
1/2-x,1/2+y,z
1/2+x,1/2-y,1/2+z
loop_
_atom_site_type_symbol
_atom_site_label
_atom_site_fract_x
_atom_site_fract_y
_atom_site_fract_z
Si Si1 0.386779 0.016651 0.601571
Si Si2 0.210472 0.211656 0.431019
Si Si3 0.252841 0.933023 0.850609
Si Si4 0.118047 0.887212 0.994131
Si Si5 0.228639 0.610001 0.855802
Si Si6 0.389486 0.846603 0.644755
Si Si7 0.109113 0.701771 0.853800
O O1 0.500000 0.009616 0.634295
O O2 0.352219 0.070490 0.616962
O O3 0.385675 0.000000 0.500000
O O4 0.302093 0.984497 0.645963
O O5 0.250000 0.250000 0.500000
O O6 0.148758 0.166718 0.466757
O O7 0.308746 0.190896 0.386154
O O8 0.144260 0.244682 0.368656
O O9 0.222652 0.921886 0.750000
O O10 0.343000 0.897712 0.877102
O O11 0.166351 0.921487 0.919716
O O12 0.173007 0.898081 0.086293
O O13 0.000000 0.891874 0.998886
O O14 0.244228 0.608749 0.750000
O O15 0.185294 0.661368 0.884537
O O16 0.395268 0.844230 0.750000
O O17 0.500000 0.840252 0.608675
O O18 0.102723 0.693535 0.750000
O O19 0.000000 0.694837 0.893468
#
# Coordination Sequence:
#
# PCOD9474327 Si02
#       7
#    16  16  16  16  16  16  16
#     4  11  22  38  66  99 129 163 201 249 312 370
#     4  11  21  37  57  85 118 154 199 248 299 359
#     4  10  21  40  64  92 125 157 196 249 309 370
#     4  11  24  43  63  90 124 161 209 260 309 363
#     4  11  23  42  63  90 126 164 210 255 304 369
#     4   9  19  35  56  83 115 150 187 235 295 357
#     4  10  21  38  60  86 119 158 199 248 305 367
#
# _framework density 19.41799
#
# number of rings (size 3 to 8) (size 9 to 14) (size 15 to 20)
#    0.000    1.571    2.857    2.143    0.000    4.571 
#    0.000    1.429    0.000    1.714    0.000    0.000 
#    0.000    0.000    0.000    0.000    0.000    0.000 
#
# Total GULP energy -312536.393841 kJ/mol
# GULP energy per Si atom -5581.007033 kJ/mol
# Density = 1.937379 g / cm^3
# Si number density = 19.417990 Si / 1000 Ang^3
#
#
#
# Elastic Constant Matrix: (Units=GPa)
#
#
# Indices 1 2 3 4 5 6 
#
# 1 137.6570 10.3136 42.3356 0.0000 0.0000 0.0000
# 2 10.3136 67.2063 6.7015 0.0000 0.0000 0.0000
# 3 42.3356 6.7015 67.8350 0.0000 0.0000 0.0000
# 4 0.0000 0.0000 0.0000 24.7733 0.0000 0.0000
# 5 0.0000 0.0000 0.0000 0.0000 17.2164 0.0000
# 6 0.0000 0.0000 0.0000 0.0000 0.0000 16.6532
#
#
#
# Elastic Compliance Matrix: (Units=1/GPa)
#
#
# Indices 1 2 3 4 5 6 
#
# 1 0.009036 -0.000833 -0.005557 0.000000 0.000000 0.000000
# 2 -0.000833 0.015104 -0.000973 0.000000 0.000000 0.000000
# 3 -0.005557 -0.000973 0.018306 0.000000 0.000000 0.000000
# 4 0.000000 0.000000 0.000000 0.040366 0.000000 0.000000
# 5 0.000000 0.000000 0.000000 0.000000 0.058084 0.000000
# 6 0.000000 0.000000 0.000000 0.000000 0.000000 0.060049
#
#
# Mechanical properties :
#
#
# Convention : Reuss Voigt Hill
#
# Bulk Modulus (GPa) = 36.07277 43.48886 39.78081
# Shear Modulus (GPa) = 22.23115 25.95174 24.09145
#
# Velocity S-wave (km/s) = 3.38727 3.65976 3.52615
# Velocity P-wave (km/s) = 5.82370 6.34848 6.09174
#
# Compressibility (1/GPa) = 0.02772174
#
# Stress axis : x y z
#
# Youngs Moduli (GPa) = 110.67064 66.20629 54.62739
#
# Poissons Ratio (x) = 0.05512 0.30356
# Poissons Ratio (y) = 0.09214 0.05313
# Poissons Ratio (z) = 0.61499 0.06439
#
# Static dielectric constant tensor:
#      x y z
#    x 1.654510 0.000000 0.000000 
#    y 0.000000 1.755250 0.000000 
#    z 0.000000 0.000000 1.704000 
# 
# From -- ./inp_files/30413.got.cif
#   From: 2010.05.17/outbox.cif.g08.bks.cpg/sg63_16_cif.got.tgz:30413.got - 2010.06.03 15:47:04.
