data_PCOD9474604
_publ_section_title
;
Structure prediction by ZEFSAII (Michael W. Deem and Ramdas Pophale) SiO2 
 PCOD9474604
Probable space group: C M C M
;
_chemical_formula_sum "Si O2"
_cell_formula_units_Z 96
_cell_length_a 14.334362
_cell_length_b 18.254512
_cell_length_c 17.670513
_cell_angle_alpha 90.000000
_cell_angle_beta 90.000000
_cell_angle_gamma 90.000000
_cell_volume 4623.786293
_symmetry_space_group_name_H-M "C M C M"
_symmetry_group_IT_number 63
_symmetry_cell_setting 'orthorhombic'
loop_
_space_group_symop_operation_xyz
x,y,z
-x,-y,1/2+z
x,-y,-z
-x,y,1/2-z
-x,-y,-z
x,y,1/2-z
-x,y,z
x,-y,1/2+z
1/2+x,1/2+y,z
1/2-x,1/2-y,1/2+z
1/2+x,1/2-y,-z
1/2-x,1/2+y,1/2-z
1/2-x,1/2-y,-z
1/2+x,1/2+y,1/2-z
1/2-x,1/2+y,z
1/2+x,1/2-y,1/2+z
loop_
_atom_site_type_symbol
_atom_site_label
_atom_site_fract_x
_atom_site_fract_y
_atom_site_fract_z
Si Si1 0.103122 0.710135 0.159157
Si Si2 0.602275 0.428870 0.053744
Si Si3 0.754559 0.805643 0.430304
Si Si4 0.308851 0.060705 0.158033
Si Si5 0.611825 0.099587 0.840883
Si Si6 0.398230 0.550048 0.339460
O O1 0.102742 0.708926 0.250000
O O2 0.182160 0.764685 0.131589
O O3 0.126605 0.627532 0.132545
O O4 0.000000 0.731708 0.132653
O O5 0.500000 0.395261 0.043235
O O6 0.685634 0.374750 0.042215
O O7 0.605803 0.464738 0.137188
O O8 0.608179 0.500000 0.000000
O O9 0.750000 0.750000 0.500000
O O10 0.661922 0.837655 0.390593
O O11 0.309915 0.060126 0.250000
O O12 0.202273 0.078728 0.134170
O O13 0.344671 0.979916 0.136342
O O14 0.629522 0.109772 0.750000
O O15 0.500000 0.098409 0.851154
O O16 0.399760 0.559341 0.250000
O O17 0.500000 0.577668 0.368095
#
# Coordination Sequence:
#
# PCOD9474604 Si02
#       6
#    16  16  16  16  16  16
#     4  10  22  41  65  93 123 157 198 247 307 368
#     4  10  22  40  61  83 114 156 204 251 298 350
#     4  12  26  39  60  87 126 166 199 247 304 369
#     4   9  17  34  62  92 121 150 194 252 304 356
#     4  10  21  40  65  90 118 157 206 254 301 360
#     4   9  17  31  58  92 116 141 190 253 304 346
#
# _framework density 20.762205000000002
#
# number of rings (size 3 to 8) (size 9 to 14) (size 15 to 20)
#    0.000    2.000    1.667    1.500    2.333    4.000 
#    0.000    2.500    0.000    5.500    0.000    0.000 
#    0.000    0.000    0.000    0.000    0.000    0.000 
#
# Total GULP energy -267650.784222 kJ/mol
# GULP energy per Si atom -5576.058005 kJ/mol
# Density = 2.071495 g / cm^3
# Si number density = 20.762205 Si / 1000 Ang^3
#
#
#
# Elastic Constant Matrix: (Units=GPa)
#
#
# Indices 1 2 3 4 5 6 
#
# 1 140.9399 45.2882 27.8323 0.0000 0.0000 0.0000
# 2 45.2882 75.3767 17.5914 0.0000 0.0000 0.0000
# 3 27.8323 17.5914 34.1972 0.0000 0.0000 0.0000
# 4 0.0000 0.0000 0.0000 30.5788 0.0000 0.0000
# 5 0.0000 0.0000 0.0000 0.0000 11.8619 0.0000
# 6 0.0000 0.0000 0.0000 0.0000 0.0000 13.8462
#
#
#
# Elastic Compliance Matrix: (Units=1/GPa)
#
#
# Indices 1 2 3 4 5 6 
#
# 1 0.009631 -0.004497 -0.005525 0.000000 0.000000 0.000000
# 2 -0.004497 0.017177 -0.005176 0.000000 0.000000 0.000000
# 3 -0.005525 -0.005176 0.036402 0.000000 0.000000 0.000000
# 4 0.000000 0.000000 0.000000 0.032702 0.000000 0.000000
# 5 0.000000 0.000000 0.000000 0.000000 0.084304 0.000000
# 6 0.000000 0.000000 0.000000 0.000000 0.000000 0.072222
#
#
# Mechanical properties :
#
#
# Convention : Reuss Voigt Hill
#
# Bulk Modulus (GPa) = 30.47566 47.99309 39.23438
# Shear Modulus (GPa) = 17.01999 21.91082 19.46540
#
# Velocity S-wave (km/s) = 2.86625 3.25210 3.06525
# Velocity P-wave (km/s) = 5.06598 6.10469 5.60943
#
# Compressibility (1/GPa) = 0.03281307
#
# Stress axis : x y z
#
# Youngs Moduli (GPa) = 103.82627 58.21841 27.47138
#
# Poissons Ratio (x) = 0.26183 0.15179
# Poissons Ratio (y) = 0.46694 0.14218
# Poissons Ratio (z) = 0.57368 0.30132
#
# Static dielectric constant tensor:
#      x y z
#    x 1.770580 0.000000 0.000000 
#    y 0.000000 1.727310 0.000000 
#    z 0.000000 0.000000 1.799700 
# 
# From -- ./inp_files/54207.got.cif
#   From: 2010.05.17/outbox.cif.g08.bks.cpg/sg63_28_cif.got.tgz:54207.got - 2010.06.03 15:47:04.
