data_PCOD9474869
_publ_section_title
;
Structure prediction by ZEFSAII (Michael W. Deem and Ramdas Pophale) SiO2 
 PCOD9474869
Probable space group: C M C M
;
_chemical_formula_sum "Si O2"
_cell_formula_units_Z 96
_cell_length_a 15.084844
_cell_length_b 17.529292
_cell_length_c 14.904597
_cell_angle_alpha 90.000000
_cell_angle_beta 90.000000
_cell_angle_gamma 90.000000
_cell_volume 3941.172434
_symmetry_space_group_name_H-M "C M C M"
_symmetry_group_IT_number 63
_symmetry_cell_setting 'orthorhombic'
loop_
_space_group_symop_operation_xyz
x,y,z
-x,-y,1/2+z
x,-y,-z
-x,y,1/2-z
-x,-y,-z
x,y,1/2-z
-x,y,z
x,-y,1/2+z
1/2+x,1/2+y,z
1/2-x,1/2-y,1/2+z
1/2+x,1/2-y,-z
1/2-x,1/2+y,1/2-z
1/2-x,1/2-y,-z
1/2+x,1/2+y,1/2-z
1/2-x,1/2+y,z
1/2+x,1/2-y,1/2+z
loop_
_atom_site_type_symbol
_atom_site_label
_atom_site_fract_x
_atom_site_fract_y
_atom_site_fract_z
Si Si1 0.901600 0.338352 0.115239
Si Si2 0.093767 0.567213 0.352092
Si Si3 0.246257 0.463014 0.146785
Si Si4 0.836461 0.177867 0.148621
Si Si5 0.101633 0.889658 0.031605
Si Si6 0.357752 0.782985 0.582428
O O1 0.823690 0.392853 0.147706
O O2 0.896219 0.253316 0.153894
O O3 0.000000 0.369610 0.130847
O O4 0.883442 0.324086 0.010329
O O5 0.092945 0.538259 0.250000
O O6 0.185096 0.532696 0.389409
O O7 0.098803 0.658451 0.348975
O O8 0.000000 0.545751 0.395936
O O9 0.275342 0.475747 0.250000
O O10 0.327778 0.441331 0.083512
O O11 0.822503 0.148610 0.250000
O O12 0.745678 0.210697 0.105550
O O13 0.875928 0.121333 0.074077
O O14 0.112673 0.804050 0.073919
O O15 0.000000 0.913810 0.042578
#
# Coordination Sequence:
#
# PCOD9474869 Si02
#       6
#    16  16  16  16  16  16
#     4  11  21  36  61  93 130 169 214 266 325 393
#     4  10  22  39  62  96 136 176 218 267 331 405
#     4  11  23  41  61  92 133 176 224 271 326 392
#     4  11  21  37  63  94 134 177 215 270 337 394
#     4  11  23  42  67  99 132 169 226 281 330 395
#     4  11  20  39  63  97 133 167 209 269 334 398
#
# _framework density 24.358233999999999
#
# number of rings (size 3 to 8) (size 9 to 14) (size 15 to 20)
#    0.000    1.167    3.333    5.500    0.000    4.667 
#    0.000    1.667    0.000    3.000    0.000    4.667 
#    0.000    0.000    0.000    0.000    0.000    0.000 
#
# Total GULP energy -268551.146361 kJ/mol
# GULP energy per Si atom -5594.815549 kJ/mol
# Density = 2.430279 g / cm^3
# Si number density = 24.358234 Si / 1000 Ang^3
#
#
#
# Elastic Constant Matrix: (Units=GPa)
#
#
# Indices 1 2 3 4 5 6 
#
# 1 202.7027 35.8951 56.3770 0.0000 0.0000 0.0000
# 2 35.8951 118.3555 31.8849 0.0000 0.0000 0.0000
# 3 56.3770 31.8849 145.5868 0.0000 0.0000 0.0000
# 4 0.0000 0.0000 0.0000 -54.1960 0.0000 0.0000
# 5 0.0000 0.0000 0.0000 0.0000 -16.2447 0.0000
# 6 0.0000 0.0000 0.0000 0.0000 0.0000 -2.7412
#
#
#
# Elastic Compliance Matrix: (Units=1/GPa)
#
#
# Indices 1 2 3 4 5 6 
#
# 1 0.005685 -0.001202 -0.001938 0.000000 0.000000 0.000000
# 2 -0.001202 0.009233 -0.001557 0.000000 0.000000 0.000000
# 3 -0.001938 -0.001557 0.007960 0.000000 0.000000 0.000000
# 4 0.000000 0.000000 0.000000 -0.018452 0.000000 0.000000
# 5 0.000000 0.000000 0.000000 0.000000 -0.061559 0.000000
# 6 0.000000 0.000000 0.000000 0.000000 0.000000 -0.364801
#
#
# Mechanical properties :
#
#
# Convention : Reuss Voigt Hill
#
# Bulk Modulus (GPa) = 74.15879 79.43988 76.79933
# Shear Modulus (GPa) = -12.25358 8.19615 -2.02872
#
# Velocity S-wave (km/s) = -2.24533 1.83634 -0.91361
# Velocity P-wave (km/s) = 4.87741 6.09755 5.52129
#
# Compressibility (1/GPa) = 0.01348458
#
# Stress axis : x y z
#
# Youngs Moduli (GPa) = 175.89242 108.30663 125.62396
#
# Poissons Ratio (x) = 0.13019 0.24350
# Poissons Ratio (y) = 0.21143 0.19555
# Poissons Ratio (z) = 0.34093 0.16859
#
# Static dielectric constant tensor:
#      x y z
#    x 1.972760 0.000000 0.000000 
#    y 0.000000 1.965830 0.000000 
#    z 0.000000 0.000000 1.975050 
# 
# From -- ./inp_files/31929.got.cif
#   From: 2010.05.17/outbox.cif.g08.bks.cpg/sg63_16_cif.got.tgz:31929.got - 2010.06.03 15:47:04.
