data_PCOD9474967
_publ_section_title
;
Structure prediction by ZEFSAII (Michael W. Deem and Ramdas Pophale) SiO2 
 PCOD9474967
Probable space group: C M C M
;
_chemical_formula_sum "Si O2"
_cell_formula_units_Z 60
_cell_length_a 10.705283
_cell_length_b 18.741404
_cell_length_c 13.951331
_cell_angle_alpha 90.000000
_cell_angle_beta 90.000000
_cell_angle_gamma 90.000000
_cell_volume 2799.083910
_symmetry_space_group_name_H-M "C M C M"
_symmetry_group_IT_number 63
_symmetry_cell_setting 'orthorhombic'
loop_
_space_group_symop_operation_xyz
x,y,z
-x,-y,1/2+z
x,-y,-z
-x,y,1/2-z
-x,-y,-z
x,y,1/2-z
-x,y,z
x,-y,1/2+z
1/2+x,1/2+y,z
1/2-x,1/2-y,1/2+z
1/2+x,1/2-y,-z
1/2-x,1/2+y,1/2-z
1/2-x,1/2-y,-z
1/2+x,1/2+y,1/2-z
1/2-x,1/2+y,z
1/2+x,1/2-y,1/2+z
loop_
_atom_site_type_symbol
_atom_site_label
_atom_site_fract_x
_atom_site_fract_y
_atom_site_fract_z
Si Si1 0.500000 0.580119 0.545381
Si Si2 0.000000 0.145922 0.750000
Si Si3 0.250827 0.923407 0.546653
Si Si4 0.770551 0.718870 0.750000
Si Si5 0.862649 0.703282 0.540873
Si Si6 0.152706 0.113375 0.250000
O O1 0.500000 0.500000 0.500000
O O2 0.500000 0.594180 0.657805
O O3 0.628706 0.609619 0.505509
O O4 0.124901 0.195085 0.750000
O O5 0.358751 0.868727 0.521117
O O6 0.209270 0.924799 0.656613
O O7 0.275053 0.000000 0.500000
O O8 0.833185 0.690031 0.652738
O O9 0.798307 0.804365 0.750000
O O10 0.750000 0.750000 0.500000
O O11 0.000000 0.736693 0.532916
O O12 0.000000 0.112528 0.250000
#
# Coordination Sequence:
#
# PCOD9474967 Si02
#       6
#     8   4  16   8  16   8
#     4  10  22  40  66 104 144 184 236 300 364 425
#     4  12  24  42  74 112 142 186 254 306 354 452
#     4  11  25  44  69 105 142 191 238 298 366 436
#     4  12  26  41  73 103 148 187 242 296 371 436
#     4  12  27  46  73 104 146 190 245 302 364 434
#     4  12  24  42  68 101 145 187 240 299 369 443
#
# _framework density 21.435583999999999
#
# number of rings (size 3 to 8) (size 9 to 14) (size 15 to 20)
#    0.000    0.533    6.667    1.200    3.733    5.867 
#    0.000    0.000    0.000    0.000    0.000    0.000 
#    0.000    0.000    0.000    0.000    0.000    0.000 
#
# Total GULP energy -167611.566087 kJ/mol
# GULP energy per Si atom -5587.052203 kJ/mol
# Density = 2.138680 g / cm^3
# Si number density = 21.435584 Si / 1000 Ang^3
#
#
#
# Elastic Constant Matrix: (Units=GPa)
#
#
# Indices 1 2 3 4 5 6 
#
# 1 157.7184 43.3500 42.4879 0.0000 0.0000 0.0000
# 2 43.3500 120.9979 44.3070 0.0000 0.0000 0.0000
# 3 42.4879 44.3070 202.2423 0.0000 0.0000 0.0000
# 4 0.0000 0.0000 0.0000 28.4231 0.0000 0.0000
# 5 0.0000 0.0000 0.0000 0.0000 15.6141 0.0000
# 6 0.0000 0.0000 0.0000 0.0000 0.0000 22.8612
#
#
#
# Elastic Compliance Matrix: (Units=1/GPa)
#
#
# Indices 1 2 3 4 5 6 
#
# 1 0.007226 -0.002210 -0.001034 0.000000 0.000000 0.000000
# 2 -0.002210 0.009662 -0.001652 0.000000 0.000000 0.000000
# 3 -0.001034 -0.001652 0.005524 0.000000 0.000000 0.000000
# 4 0.000000 0.000000 0.000000 0.035183 0.000000 0.000000
# 5 0.000000 0.000000 0.000000 0.000000 0.064045 0.000000
# 6 0.000000 0.000000 0.000000 0.000000 0.000000 0.043742
#
#
# Mechanical properties :
#
#
# Convention : Reuss Voigt Hill
#
# Bulk Modulus (GPa) = 79.24826 82.36093 80.80460
# Shear Modulus (GPa) = 27.87363 36.76725 32.32044
#
# Velocity S-wave (km/s) = 3.60994 4.14604 3.88724
# Velocity P-wave (km/s) = 7.37741 7.83744 7.61090
#
# Compressibility (1/GPa) = 0.01261857
#
# Stress axis : x y z
#
# Youngs Moduli (GPa) = 138.37960 103.50285 181.03647
#
# Poissons Ratio (x) = 0.22879 0.18718
# Poissons Ratio (y) = 0.30588 0.29912
# Poissons Ratio (z) = 0.14307 0.17101
#
# Static dielectric constant tensor:
#      x y z
#    x 1.804740 0.000000 0.000000 
#    y 0.000000 1.847960 0.000000 
#    z 0.000000 0.000000 1.782040 
# 
# From -- ./inp_files/17178.got.cif
#   From: 2010.05.17/outbox.cif.g08.bks.cpg/sg63_9_cif.got.tgz:17178.got - 2010.06.03 15:47:04.
