data_PCOD9474750
_publ_section_title
;
Structure prediction by ZEFSAII (Michael W. Deem and Ramdas Pophale) SiO2 
 PCOD9474750
Probable space group: C M C M
;
_chemical_formula_sum "Si O2"
_cell_formula_units_Z 88
_cell_length_a 14.510376
_cell_length_b 31.094602
_cell_length_c 9.595422
_cell_angle_alpha 90.000000
_cell_angle_beta 90.000000
_cell_angle_gamma 90.000000
_cell_volume 4329.400351
_symmetry_space_group_name_H-M "C M C M"
_symmetry_group_IT_number 63
_symmetry_cell_setting 'orthorhombic'
loop_
_space_group_symop_operation_xyz
x,y,z
-x,-y,1/2+z
x,-y,-z
-x,y,1/2-z
-x,-y,-z
x,y,1/2-z
-x,y,z
x,-y,1/2+z
1/2+x,1/2+y,z
1/2-x,1/2-y,1/2+z
1/2+x,1/2-y,-z
1/2-x,1/2+y,1/2-z
1/2-x,1/2-y,-z
1/2+x,1/2+y,1/2-z
1/2-x,1/2+y,z
1/2+x,1/2-y,1/2+z
loop_
_atom_site_type_symbol
_atom_site_label
_atom_site_fract_x
_atom_site_fract_y
_atom_site_fract_z
Si Si1 0.000000 0.954715 0.416597
Si Si2 0.860831 0.289177 0.589601
Si Si3 0.136282 0.206546 0.089066
Si Si4 0.354784 0.870963 0.412191
Si Si5 0.607477 0.035617 0.903971
Si Si6 0.633148 0.376365 0.411337
O O1 0.086559 0.922290 0.446059
O O2 0.000000 0.963730 0.250000
O O3 0.000000 0.000000 0.500000
O O4 0.890464 0.288310 0.750000
O O5 0.891232 0.247204 0.504720
O O6 0.748505 0.291046 0.590246
O O7 0.887459 0.331790 0.505747
O O8 0.106983 0.209299 0.250000
O O9 0.106704 0.162291 0.014969
O O10 0.381728 0.864575 0.250000
O O11 0.390390 0.916728 0.463584
O O12 0.244031 0.876093 0.416074
O O13 0.650117 0.037159 0.750000
O O14 0.500000 0.024254 0.887630
O O15 0.652687 0.000000 0.000000
O O16 0.607693 0.366554 0.250000
#
# Coordination Sequence:
#
# PCOD9474750 Si02
#       6
#     8  16  16  16  16  16
#     4  10  22  38  54  72  98 132 168 212 263 306
#     4   9  16  26  44  72 102 129 158 195 239 286
#     4   9  16  27  46  72  99 127 160 197 238 288
#     4   9  17  30  49  72  98 128 163 202 243 290
#     4   9  18  32  49  69  94 125 158 194 238 286
#     4   9  18  33  51  71  96 128 164 203 248 294
#
# _framework density 20.326139999999999
#
# number of rings (size 3 to 8) (size 9 to 14) (size 15 to 20)
#    0.000    2.909    0.000    1.091    0.000    6.545 
#    0.000    0.000    2.000    0.000    0.000    0.000 
#    0.000    0.000    0.000    0.000    0.000    0.000 
#
# Total GULP energy -245355.554506 kJ/mol
# GULP energy per Si atom -5576.262602 kJ/mol
# Density = 2.027988 g / cm^3
# Si number density = 20.326140 Si / 1000 Ang^3
#
#
#
# Elastic Constant Matrix: (Units=GPa)
#
#
# Indices 1 2 3 4 5 6 
#
# 1 67.0885 8.5117 12.9565 0.0000 0.0000 0.0000
# 2 8.5117 206.1147 127.9518 0.0000 0.0000 0.0000
# 3 12.9565 127.9518 146.6698 0.0000 0.0000 0.0000
# 4 0.0000 0.0000 0.0000 45.0099 0.0000 0.0000
# 5 0.0000 0.0000 0.0000 0.0000 40.4295 0.0000
# 6 0.0000 0.0000 0.0000 0.0000 0.0000 33.3892
#
#
#
# Elastic Compliance Matrix: (Units=1/GPa)
#
#
# Indices 1 2 3 4 5 6 
#
# 1 0.015183 0.000449 -0.001733 0.000000 0.000000 0.000000
# 2 0.000449 0.010596 -0.009283 0.000000 0.000000 0.000000
# 3 -0.001733 -0.009283 0.015070 0.000000 0.000000 0.000000
# 4 0.000000 0.000000 0.000000 0.022217 0.000000 0.000000
# 5 0.000000 0.000000 0.000000 0.000000 0.024734 0.000000
# 6 0.000000 0.000000 0.000000 0.000000 0.000000 0.029950
#
#
# Mechanical properties :
#
#
# Convention : Reuss Voigt Hill
#
# Bulk Modulus (GPa) = 50.72456 79.85699 65.29078
# Shear Modulus (GPa) = 34.37433 41.79590 38.08512
#
# Velocity S-wave (km/s) = 4.11681 4.53952 4.33332
# Velocity P-wave (km/s) = 6.89978 8.17615 7.56493
#
# Compressibility (1/GPa) = 0.01971432
#
# Stress axis : x y z
#
# Youngs Moduli (GPa) = 65.86147 94.37398 66.35787
#
# Poissons Ratio (x) = -0.04233 0.11497
# Poissons Ratio (y) = -0.02954 0.61603
# Poissons Ratio (z) = 0.11411 0.87612
#
# Static dielectric constant tensor:
#      x y z
#    x 2.167950 0.000000 0.000000 
#    y 0.000000 1.685020 0.000000 
#    z 0.000000 0.000000 1.721150 
# 
# From -- ./inp_files/8210.got.cif
#   From: 2010.05.17/outbox.cif.g08.bks.cpg/sg63_5_cif.got.tgz:8210.got - 2010.06.03 15:47:04.
