data_PCOD9474569
_publ_section_title
;
Structure prediction by ZEFSAII (Michael W. Deem and Ramdas Pophale) SiO2 
 PCOD9474569
Probable space group: C M C M
;
_chemical_formula_sum "Si O2"
_cell_formula_units_Z 96
_cell_length_a 14.683211
_cell_length_b 20.396394
_cell_length_c 17.095778
_cell_angle_alpha 90.000000
_cell_angle_beta 90.000000
_cell_angle_gamma 90.000000
_cell_volume 5119.921496
_symmetry_space_group_name_H-M "C M C M"
_symmetry_group_IT_number 63
_symmetry_cell_setting 'orthorhombic'
loop_
_space_group_symop_operation_xyz
x,y,z
-x,-y,1/2+z
x,-y,-z
-x,y,1/2-z
-x,-y,-z
x,y,1/2-z
-x,y,z
x,-y,1/2+z
1/2+x,1/2+y,z
1/2-x,1/2-y,1/2+z
1/2+x,1/2-y,-z
1/2-x,1/2+y,1/2-z
1/2-x,1/2-y,-z
1/2+x,1/2+y,1/2-z
1/2-x,1/2+y,z
1/2+x,1/2-y,1/2+z
loop_
_atom_site_type_symbol
_atom_site_label
_atom_site_fract_x
_atom_site_fract_y
_atom_site_fract_z
Si Si1 0.000000 0.658818 0.656773
Si Si2 0.194016 0.275971 0.158119
Si Si3 0.000000 0.904121 0.843077
Si Si4 0.305945 0.603946 0.593409
Si Si5 0.305034 0.980729 0.842518
Si Si6 0.500000 0.561274 0.843223
Si Si7 0.306720 0.637496 0.089062
Si Si8 0.500000 0.986962 0.407769
O O1 0.908493 0.699240 0.640097
O O2 0.000000 0.643317 0.750000
O O3 0.000000 0.590682 0.610570
O O4 0.197123 0.258982 0.250000
O O5 0.260869 0.336068 0.140086
O O6 0.217345 0.212326 0.107740
O O7 0.909230 0.874811 0.880590
O O8 0.000000 0.891571 0.750000
O O9 0.000000 0.982645 0.855551
O O10 0.249089 0.538614 0.613490
O O11 0.409237 0.590934 0.619362
O O12 0.300730 0.620222 0.501994
O O13 0.297986 0.992752 0.750000
O O14 0.409155 0.983613 0.869646
O O15 0.258159 0.912455 0.864571
O O16 0.500000 0.572353 0.750000
O O17 0.500000 0.000000 0.500000
#
# Coordination Sequence:
#
# PCOD9474569 Si02
#       8
#     8  16   8  16  16   8  16   8
#     4  10  21  39  68  95 123 165 220 270 313 370
#     4  11  23  42  66  92 128 170 215 262 319 385
#     4  11  22  39  66  95 128 166 208 261 322 376
#     4  12  24  41  64  94 129 171 212 263 316 377
#     4  12  24  42  67  94 129 170 213 257 315 387
#     4  11  23  39  63  94 127 169 216 253 308 388
#     4  12  25  41  64 100 132 162 209 272 329 369
#     4  12  24  41  65 100 127 160 212 271 320 369
#
# _framework density 18.750287
#
# number of rings (size 3 to 8) (size 9 to 14) (size 15 to 20)
#    0.000    0.500    3.333    6.750    0.000    1.333 
#    0.000    0.833    0.000    0.000    0.000    0.000 
#    0.000    0.000    0.000    0.000    0.000    0.000 
#
# Total GULP energy -268705.718986 kJ/mol
# GULP energy per Si atom -5598.035812 kJ/mol
# Density = 1.870761 g / cm^3
# Si number density = 18.750287 Si / 1000 Ang^3
#
#
#
# Elastic Constant Matrix: (Units=GPa)
#
#
# Indices 1 2 3 4 5 6 
#
# 1 115.2578 23.8132 -3.3726 0.0000 0.0000 0.0000
# 2 23.8132 95.5754 6.1032 0.0000 0.0000 0.0000
# 3 -3.3726 6.1032 58.4000 0.0000 0.0000 0.0000
# 4 0.0000 0.0000 0.0000 48.5682 0.0000 0.0000
# 5 0.0000 0.0000 0.0000 0.0000 20.6586 0.0000
# 6 0.0000 0.0000 0.0000 0.0000 0.0000 10.8241
#
#
#
# Elastic Compliance Matrix: (Units=1/GPa)
#
#
# Indices 1 2 3 4 5 6 
#
# 1 0.009182 -0.002337 0.000774 0.000000 0.000000 0.000000
# 2 -0.002337 0.011128 -0.001298 0.000000 0.000000 0.000000
# 3 0.000774 -0.001298 0.017304 0.000000 0.000000 0.000000
# 4 0.000000 0.000000 0.000000 0.020590 0.000000 0.000000
# 5 0.000000 0.000000 0.000000 0.000000 0.048406 0.000000
# 6 0.000000 0.000000 0.000000 0.000000 0.000000 0.092387
#
#
# Mechanical properties :
#
#
# Convention : Reuss Voigt Hill
#
# Bulk Modulus (GPa) = 31.35545 35.81342 33.58443
# Shear Modulus (GPa) = 23.21827 32.18948 27.70387
#
# Velocity S-wave (km/s) = 3.52275 4.14786 3.84802
# Velocity P-wave (km/s) = 5.77108 6.48701 6.13949
#
# Compressibility (1/GPa) = 0.03189238
#
# Stress axis : x y z
#
# Youngs Moduli (GPa) = 108.91188 89.86230 57.79121
#
# Poissons Ratio (x) = 0.21002 -0.04476
# Poissons Ratio (y) = 0.25454 0.07501
# Poissons Ratio (z) = -0.08435 0.11664
#
# Static dielectric constant tensor:
#      x y z
#    x 1.628000 0.000000 0.000000 
#    y 0.000000 1.621920 0.000000 
#    z 0.000000 0.000000 1.631590 
# 
# From -- ./inp_files/32033.got.cif
#   From: 2010.05.17/outbox.cif.g08.bks.cpg/sg63_17_cif.got.tgz:32033.got - 2010.06.03 15:47:04.
