data_PCOD9474769
_publ_section_title
;
Structure prediction by ZEFSAII (Michael W. Deem and Ramdas Pophale) SiO2 
 PCOD9474769
Probable space group: C M C M
;
_chemical_formula_sum "Si O2"
_cell_formula_units_Z 112
_cell_length_a 26.091360
_cell_length_b 11.264810
_cell_length_c 17.541093
_cell_angle_alpha 90.000000
_cell_angle_beta 90.000000
_cell_angle_gamma 90.000000
_cell_volume 5155.576545
_symmetry_space_group_name_H-M "C M C M"
_symmetry_group_IT_number 63
_symmetry_cell_setting 'orthorhombic'
loop_
_space_group_symop_operation_xyz
x,y,z
-x,-y,1/2+z
x,-y,-z
-x,y,1/2-z
-x,-y,-z
x,y,1/2-z
-x,y,z
x,-y,1/2+z
1/2+x,1/2+y,z
1/2-x,1/2-y,1/2+z
1/2+x,1/2-y,-z
1/2-x,1/2+y,1/2-z
1/2-x,1/2-y,-z
1/2+x,1/2+y,1/2-z
1/2-x,1/2+y,z
1/2+x,1/2-y,1/2+z
loop_
_atom_site_type_symbol
_atom_site_label
_atom_site_fract_x
_atom_site_fract_y
_atom_site_fract_z
Si Si1 0.802121 0.294807 0.042213
Si Si2 0.788454 0.105077 0.334842
Si Si3 0.879556 0.045572 0.838801
Si Si4 0.942358 0.616716 0.537863
Si Si5 0.561813 0.307249 0.840267
Si Si6 0.177319 0.492788 0.838058
Si Si7 0.111907 0.700501 0.087930
O O1 0.809970 0.192222 0.103238
O O2 0.808026 0.413077 0.095048
O O3 0.750000 0.250000 0.000000
O O4 0.844216 0.300477 0.976851
O O5 0.802124 0.146821 0.250000
O O6 0.818893 0.982673 0.346604
O O7 0.727799 0.090871 0.338548
O O8 0.892141 0.051224 0.750000
O O9 0.888939 0.173328 0.872395
O O10 0.911175 0.929819 0.866698
O O11 0.916580 0.500000 0.500000
O O12 0.921674 0.693776 0.608414
O O13 0.939818 0.694761 0.461664
O O14 0.000000 0.583023 0.560305
O O15 0.572419 0.288852 0.750000
O O16 0.500000 0.318302 0.849056
O O17 0.173311 0.539014 0.750000
O O18 0.128333 0.409725 0.857908
#
# Coordination Sequence:
#
# PCOD9474769 Si02
#       7
#    16  16  16  16  16  16  16
#     4  12  23  37  60  89 120 154 208 265 317 377
#     4  10  22  38  58  83 116 161 206 254 311 370
#     4  10  22  40  61  89 124 164 213 263 314 376
#     4  10  22  41  64  94 129 163 206 261 320 382
#     4   9  19  39  68  97 126 165 212 260 312 377
#     4  11  24  41  60  83 119 165 211 259 320 392
#     4  12  24  39  61  89 126 166 208 262 327 381
#
# _framework density 21.724049000000001
#
# number of rings (size 3 to 8) (size 9 to 14) (size 15 to 20)
#    0.000    1.429    1.429    3.857    0.000    4.000 
#    0.000    6.429    0.000    3.000    0.000    0.000 
#    0.000    0.000    0.000    0.000    0.000    0.000 
#
# Total GULP energy -312101.391681 kJ/mol
# GULP energy per Si atom -5573.239137 kJ/mol
# Density = 2.167460 g / cm^3
# Si number density = 21.724049 Si / 1000 Ang^3
#
#
#
# Elastic Constant Matrix: (Units=GPa)
#
#
# Indices 1 2 3 4 5 6 
#
# 1 67.8667 9.5964 15.5501 0.0000 0.0000 0.0000
# 2 9.5964 124.9154 70.2083 0.0000 0.0000 0.0000
# 3 15.5501 70.2083 85.3351 0.0000 0.0000 0.0000
# 4 0.0000 0.0000 0.0000 68.2075 0.0000 0.0000
# 5 0.0000 0.0000 0.0000 0.0000 28.4679 0.0000
# 6 0.0000 0.0000 0.0000 0.0000 0.0000 21.2630
#
#
#
# Elastic Compliance Matrix: (Units=1/GPa)
#
#
# Indices 1 2 3 4 5 6 
#
# 1 0.015413 0.000734 -0.003412 0.000000 0.000000 0.000000
# 2 0.000734 0.014926 -0.012414 0.000000 0.000000 0.000000
# 3 -0.003412 -0.012414 0.022554 0.000000 0.000000 0.000000
# 4 0.000000 0.000000 0.000000 0.014661 0.000000 0.000000
# 5 0.000000 0.000000 0.000000 0.000000 0.035127 0.000000
# 6 0.000000 0.000000 0.000000 0.000000 0.000000 0.047030
#
#
# Mechanical properties :
#
#
# Convention : Reuss Voigt Hill
#
# Bulk Modulus (GPa) = 44.03783 52.09186 48.06485
# Shear Modulus (GPa) = 26.67144 35.77184 31.22164
#
# Velocity S-wave (km/s) = 3.50771 4.06229 3.79514
# Velocity P-wave (km/s) = 6.05977 6.78483 6.43252
#
# Compressibility (1/GPa) = 0.02270775
#
# Stress axis : x y z
#
# Youngs Moduli (GPa) = 64.88086 66.99538 44.33814
#
# Poissons Ratio (x) = -0.04916 0.15130
# Poissons Ratio (y) = -0.04761 0.55042
# Poissons Ratio (z) = 0.22140 0.83169
#
# Static dielectric constant tensor:
#      x y z
#    x 1.905890 0.000000 0.000000 
#    y 0.000000 1.849150 0.000000 
#    z 0.000000 0.000000 1.862320 
# 
# From -- ./inp_files/38553.got.cif
#   From: 2010.05.17/outbox.cif.g08.bks.cpg/sg63_20_cif.got.tgz:38553.got - 2010.06.03 15:47:04.
