data_PCOD9474438
_publ_section_title
;
Structure prediction by ZEFSAII (Michael W. Deem and Ramdas Pophale) SiO2 
 PCOD9474438
Probable space group: C M C M
;
_chemical_formula_sum "Si O2"
_cell_formula_units_Z 72
_cell_length_a 14.065637
_cell_length_b 16.310868
_cell_length_c 14.706427
_cell_angle_alpha 90.000000
_cell_angle_beta 90.000000
_cell_angle_gamma 90.000000
_cell_volume 3373.988902
_symmetry_space_group_name_H-M "C M C M"
_symmetry_group_IT_number 63
_symmetry_cell_setting 'orthorhombic'
loop_
_space_group_symop_operation_xyz
x,y,z
-x,-y,1/2+z
x,-y,-z
-x,y,1/2-z
-x,-y,-z
x,y,1/2-z
-x,y,z
x,-y,1/2+z
1/2+x,1/2+y,z
1/2-x,1/2-y,1/2+z
1/2+x,1/2-y,-z
1/2-x,1/2+y,1/2-z
1/2-x,1/2-y,-z
1/2+x,1/2+y,1/2-z
1/2-x,1/2+y,z
1/2+x,1/2-y,1/2+z
loop_
_atom_site_type_symbol
_atom_site_label
_atom_site_fract_x
_atom_site_fract_y
_atom_site_fract_z
Si Si1 0.395038 0.289564 0.443008
Si Si2 0.888916 0.995573 0.750000
Si Si3 0.110452 0.317516 0.388515
Si Si4 0.234882 0.062421 0.918176
Si Si5 0.394848 0.795406 0.750000
Si Si6 0.816314 0.816506 0.750000
O O1 0.500000 0.324070 0.462622
O O2 0.384505 0.210559 0.506557
O O3 0.318346 0.358579 0.459783
O O4 0.390961 0.261253 0.339042
O O5 0.833727 0.027705 0.660554
O O6 0.000000 0.020438 0.750000
O O7 0.879822 0.897131 0.750000
O O8 0.168861 0.400606 0.375824
O O9 0.159266 0.243039 0.334054
O O10 0.000000 0.324009 0.362677
O O11 0.252478 0.000000 0.000000
O O12 0.500000 0.836615 0.750000
O O13 0.294732 0.843056 0.750000
#
# Coordination Sequence:
#
# PCOD9474438 Si02
#       6
#    16   8  16  16   8   8
#     4  10  21  40  67  94 126 169 217 266 313 382
#     4  12  28  45  65  99 133 169 212 268 334 391
#     4  11  24  43  67  95 127 174 227 266 313 380
#     4  12  25  41  65  96 137 172 207 266 332 387
#     4  10  21  38  67  98 124 159 215 269 316 372
#     4  12  23  43  72  93 127 170 217 271 318 377
#
# _framework density 21.339725999999999
#
# number of rings (size 3 to 8) (size 9 to 14) (size 15 to 20)
#    0.000    0.889    2.222    5.000    3.111    4.889 
#    0.000    1.111    0.000    0.000    0.000    0.000 
#    0.000    0.000    0.000    0.000    0.000    0.000 
#
# Total GULP energy -201257.170211 kJ/mol
# GULP energy per Si atom -5590.476950 kJ/mol
# Density = 2.129116 g / cm^3
# Si number density = 21.339726 Si / 1000 Ang^3
#
#
#
# Elastic Constant Matrix: (Units=GPa)
#
#
# Indices 1 2 3 4 5 6 
#
# 1 167.0890 36.4690 28.8250 0.0000 0.0000 0.0000
# 2 36.4690 52.6451 38.8213 0.0000 0.0000 0.0000
# 3 28.8250 38.8213 99.2088 0.0000 0.0000 0.0000
# 4 0.0000 0.0000 0.0000 13.4133 0.0000 0.0000
# 5 0.0000 0.0000 0.0000 0.0000 17.3278 0.0000
# 6 0.0000 0.0000 0.0000 0.0000 0.0000 28.0341
#
#
#
# Elastic Compliance Matrix: (Units=1/GPa)
#
#
# Indices 1 2 3 4 5 6 
#
# 1 0.007054 -0.004744 -0.000193 0.000000 0.000000 0.000000
# 2 -0.004744 0.029890 -0.010318 0.000000 0.000000 0.000000
# 3 -0.000193 -0.010318 0.014173 0.000000 0.000000 0.000000
# 4 0.000000 0.000000 0.000000 0.074553 0.000000 0.000000
# 5 0.000000 0.000000 0.000000 0.000000 0.057711 0.000000
# 6 0.000000 0.000000 0.000000 0.000000 0.000000 0.035671
#
#
# Mechanical properties :
#
#
# Convention : Reuss Voigt Hill
#
# Bulk Modulus (GPa) = 48.52680 58.57482 53.55081
# Shear Modulus (GPa) = 19.49853 26.07688 22.78770
#
# Velocity S-wave (km/s) = 3.02606 3.49949 3.27135
# Velocity P-wave (km/s) = 5.91598 6.62094 6.27836
#
# Compressibility (1/GPa) = 0.02060717
#
# Stress axis : x y z
#
# Youngs Moduli (GPa) = 141.77284 33.45616 70.55507
#
# Poissons Ratio (x) = 0.15871 0.01362
# Poissons Ratio (y) = 0.67254 0.72798
# Poissons Ratio (z) = 0.02738 0.34520
#
# Static dielectric constant tensor:
#      x y z
#    x 1.844620 0.000000 0.000000 
#    y 0.000000 1.721760 0.000000 
#    z 0.000000 0.000000 2.057090 
# 
# From -- ./inp_files/31499.got.cif
#   From: 2010.05.17/outbox.cif.g08.bks.cpg/sg63_16_cif.got.tgz:31499.got - 2010.06.03 15:47:04.
