data_PCOD9474144
_publ_section_title
;
Structure prediction by ZEFSAII (Michael W. Deem and Ramdas Pophale) SiO2 
 PCOD9474144
Probable space group: C M C M
;
_chemical_formula_sum "Si O2"
_cell_formula_units_Z 80
_cell_length_a 8.602749
_cell_length_b 18.778823
_cell_length_c 26.233952
_cell_angle_alpha 90.000000
_cell_angle_beta 90.000000
_cell_angle_gamma 90.000000
_cell_volume 4238.081849
_symmetry_space_group_name_H-M "C M C M"
_symmetry_group_IT_number 63
_symmetry_cell_setting 'orthorhombic'
loop_
_space_group_symop_operation_xyz
x,y,z
-x,-y,1/2+z
x,-y,-z
-x,y,1/2-z
-x,-y,-z
x,y,1/2-z
-x,y,z
x,-y,1/2+z
1/2+x,1/2+y,z
1/2-x,1/2-y,1/2+z
1/2+x,1/2-y,-z
1/2-x,1/2+y,1/2-z
1/2-x,1/2-y,-z
1/2+x,1/2+y,1/2-z
1/2-x,1/2+y,z
1/2+x,1/2-y,1/2+z
loop_
_atom_site_type_symbol
_atom_site_label
_atom_site_fract_x
_atom_site_fract_y
_atom_site_fract_z
Si Si1 0.815206 0.829825 0.499265
Si Si2 0.810887 0.330319 0.692677
Si Si3 0.811673 0.418268 0.905269
Si Si4 0.187167 0.165220 0.808816
Si Si5 0.314330 0.916916 0.095903
O O1 0.750000 0.750000 0.500000
O O2 0.751083 0.873648 0.547352
O O3 0.762625 0.869799 0.448038
O O4 0.000000 0.827078 0.501433
O O5 0.758400 0.349272 0.750000
O O6 0.758940 0.381933 0.647626
O O7 0.768298 0.248026 0.682252
O O8 0.000000 0.332072 0.693385
O O9 0.764890 0.500727 0.908358
O O10 0.000000 0.415675 0.906514
O O11 0.225081 0.148110 0.750000
O O12 0.267491 0.114923 0.849555
O O13 0.000000 0.160582 0.814430
O O14 0.500000 0.913907 0.089686
#
# Coordination Sequence:
#
# PCOD9474144 Si02
#       5
#    16  16  16  16  16
#     4  12  25  41  62  84 110 146 189 236 288 347
#     4   8  15  31  56  82 107 142 188 232 276 327
#     4  10  21  37  58  85 117 150 188 235 283 337
#     4   9  18  34  57  83 112 151 199 245 286 332
#     4  11  23  37  56  85 119 152 190 237 286 339
#
# _framework density 18.876465
#
# number of rings (size 3 to 8) (size 9 to 14) (size 15 to 20)
#    0.000    2.000    0.000    5.400    0.000    6.800 
#    0.000    2.000    0.000    1.800    0.000    0.000 
#    0.000    0.000    0.000    0.000    0.000    0.000 
#
# Total GULP energy -223472.701949 kJ/mol
# GULP energy per Si atom -5586.817549 kJ/mol
# Density = 1.883350 g / cm^3
# Si number density = 18.876465 Si / 1000 Ang^3
#
#
#
# Elastic Constant Matrix: (Units=GPa)
#
#
# Indices 1 2 3 4 5 6 
#
# 1 32.0754 42.5834 31.3377 0.0000 0.0000 0.0000
# 2 42.5834 170.2080 104.5102 0.0000 0.0000 0.0000
# 3 31.3377 104.5102 126.5091 0.0000 0.0000 0.0000
# 4 0.0000 0.0000 0.0000 -117.9469 0.0000 0.0000
# 5 0.0000 0.0000 0.0000 0.0000 31.7081 0.0000
# 6 0.0000 0.0000 0.0000 0.0000 0.0000 23.1449
#
#
#
# Elastic Compliance Matrix: (Units=1/GPa)
#
#
# Indices 1 2 3 4 5 6 
#
# 1 0.047643 -0.009484 -0.003967 0.000000 0.000000 0.000000
# 2 -0.009484 0.013811 -0.009060 0.000000 0.000000 0.000000
# 3 -0.003967 -0.009060 0.016372 0.000000 0.000000 0.000000
# 4 0.000000 0.000000 0.000000 -0.008478 0.000000 0.000000
# 5 0.000000 0.000000 0.000000 0.000000 0.031538 0.000000
# 6 0.000000 0.000000 0.000000 0.000000 0.000000 0.043206
#
#
# Mechanical properties :
#
#
# Convention : Reuss Voigt Hill
#
# Bulk Modulus (GPa) = 30.48413 76.18391 53.33402
# Shear Modulus (GPa) = 24.99409 -2.59471 11.19969
#
# Velocity S-wave (km/s) = 3.64275 -1.17369 2.43845
# Velocity P-wave (km/s) = 5.82041 6.21370 6.02027
#
# Compressibility (1/GPa) = 0.03280395
#
# Stress axis : x y z
#
# Youngs Moduli (GPa) = 20.98945 72.40702 61.08046
#
# Poissons Ratio (x) = 0.68668 0.24232
# Poissons Ratio (y) = 0.19906 0.55339
# Poissons Ratio (z) = 0.08327 0.65601
#
# Static dielectric constant tensor:
#      x y z
#    x 1.645810 0.000000 0.000000 
#    y 0.000000 1.629890 0.000000 
#    z 0.000000 0.000000 1.637390 
# 
# From -- ./inp_files/66596.got.cif
#   From: 2010.05.17/outbox.cif.g08.bks.cpg/sg63_34_cif.got.tgz:66596.got - 2010.06.03 15:47:04.
