data_PCOD9474050
_publ_section_title
;
Structure prediction by ZEFSAII (Michael W. Deem and Ramdas Pophale) SiO2 
 PCOD9474050
Probable space group: C M C M
;
_chemical_formula_sum "Si O2"
_cell_formula_units_Z 88
_cell_length_a 28.756725
_cell_length_b 17.929809
_cell_length_c 8.547061
_cell_angle_alpha 90.000000
_cell_angle_beta 90.000000
_cell_angle_gamma 90.000000
_cell_volume 4406.886760
_symmetry_space_group_name_H-M "C M C M"
_symmetry_group_IT_number 63
_symmetry_cell_setting 'orthorhombic'
loop_
_space_group_symop_operation_xyz
x,y,z
-x,-y,1/2+z
x,-y,-z
-x,y,1/2-z
-x,-y,-z
x,y,1/2-z
-x,y,z
x,-y,1/2+z
1/2+x,1/2+y,z
1/2-x,1/2-y,1/2+z
1/2+x,1/2-y,-z
1/2-x,1/2+y,1/2-z
1/2-x,1/2-y,-z
1/2+x,1/2+y,1/2-z
1/2-x,1/2+y,z
1/2+x,1/2-y,1/2+z
loop_
_atom_site_type_symbol
_atom_site_label
_atom_site_fract_x
_atom_site_fract_y
_atom_site_fract_z
Si Si1 0.354069 0.847670 0.061180
Si Si2 0.552519 0.915763 0.937381
Si Si3 0.099965 0.083929 0.061187
Si Si4 0.000000 0.915052 0.938690
Si Si5 0.761681 0.420765 0.436639
Si Si6 0.684937 0.686468 0.060838
O O1 0.357392 0.847382 0.250000
O O2 0.315218 0.908254 0.013572
O O3 0.331385 0.768753 0.013198
O O4 0.404924 0.865428 0.996253
O O5 0.553613 0.917677 0.750000
O O6 0.500000 0.892043 0.986532
O O7 0.559382 0.000000 0.000000
O O8 0.100687 0.082067 0.250000
O O9 0.143183 0.132300 0.009426
O O10 0.049722 0.116927 0.010993
O O11 0.103528 0.000000 0.000000
O O12 0.000000 0.916178 0.750000
O O13 0.000000 0.000000 0.000000
O O14 0.743876 0.500000 0.500000
O O15 0.759892 0.422368 0.250000
O O16 0.731317 0.350599 0.493651
O O17 0.688713 0.686191 0.250000
#
# Coordination Sequence:
#
# PCOD9474050 Si02
#       6
#    16  16  16   8  16  16
#     4  10  22  39  58  85 118 152 191 234 288 348
#     4  10  21  38  62  90 119 152 193 239 287 340
#     4   9  17  30  49  72 100 134 178 227 272 325
#     4   8  14  26  44  66  92 124 165 212 263 310
#     4  11  23  38  58  83 111 147 192 239 288 344
#     4  10  21  37  55  81 114 147 187 234 284 341
#
# _framework density 19.968744999999998
#
# number of rings (size 3 to 8) (size 9 to 14) (size 15 to 20)
#    0.000    2.182    0.000    2.727    0.000    6.909 
#    1.636    0.000    0.000    0.000    0.000    0.000 
#    0.000    0.000    0.000    0.000    0.000    0.000 
#
# Total GULP energy -245474.434325 kJ/mol
# GULP energy per Si atom -5578.964416 kJ/mol
# Density = 1.992330 g / cm^3
# Si number density = 19.968745 Si / 1000 Ang^3
#
#
#
# Elastic Constant Matrix: (Units=GPa)
#
#
# Indices 1 2 3 4 5 6 
#
# 1 160.6829 56.9886 31.5756 0.0000 0.0000 0.0000
# 2 56.9886 92.1753 20.1375 0.0000 0.0000 0.0000
# 3 31.5756 20.1375 21.7311 0.0000 0.0000 0.0000
# 4 0.0000 0.0000 0.0000 21.7199 0.0000 0.0000
# 5 0.0000 0.0000 0.0000 0.0000 33.2167 0.0000
# 6 0.0000 0.0000 0.0000 0.0000 0.0000 -52.2351
#
#
#
# Elastic Compliance Matrix: (Units=1/GPa)
#
#
# Indices 1 2 3 4 5 6 
#
# 1 0.009584 -0.003615 -0.010575 0.000000 0.000000 0.000000
# 2 -0.003615 0.014966 -0.008616 0.000000 0.000000 0.000000
# 3 -0.010575 -0.008616 0.069368 0.000000 0.000000 0.000000
# 4 0.000000 0.000000 0.000000 0.046041 0.000000 0.000000
# 5 0.000000 0.000000 0.000000 0.000000 0.030105 0.000000
# 6 0.000000 0.000000 0.000000 0.000000 0.000000 -0.019144
#
#
# Mechanical properties :
#
#
# Convention : Reuss Voigt Hill
#
# Bulk Modulus (GPa) = 20.70201 54.66586 37.68393
# Shear Modulus (GPa) = 23.51452 11.59946 17.55699
#
# Velocity S-wave (km/s) = 3.43529 2.41276 2.96839
# Velocity P-wave (km/s) = 5.11123 5.93271 5.53722
#
# Compressibility (1/GPa) = 0.04830450
#
# Stress axis : x y z
#
# Youngs Moduli (GPa) = 104.34433 66.81718 14.41588
#
# Poissons Ratio (x) = 0.24153 0.15245
# Poissons Ratio (y) = 0.37718 0.12421
# Poissons Ratio (z) = 1.10349 0.57572
#
# Static dielectric constant tensor:
#      x y z
#    x 1.747540 0.000000 0.000000 
#    y 0.000000 1.683030 0.000000 
#    z 0.000000 0.000000 1.676470 
# 
# From -- ./inp_files/14169.got.cif
#   From: 2010.05.17/outbox.cif.g08.bks.cpg/sg63_8_cif.got.tgz:14169.got - 2010.06.03 15:47:04.
