data_PCOD9474293
_publ_section_title
;
Structure prediction by ZEFSAII (Michael W. Deem and Ramdas Pophale) SiO2 
 PCOD9474293
Probable space group: C M C M
;
_chemical_formula_sum "Si O2"
_cell_formula_units_Z 72
_cell_length_a 24.375576
_cell_length_b 4.893351
_cell_length_c 24.619792
_cell_angle_alpha 90.000000
_cell_angle_beta 90.000000
_cell_angle_gamma 90.000000
_cell_volume 2936.605685
_symmetry_space_group_name_H-M "C M C M"
_symmetry_group_IT_number 63
_symmetry_cell_setting 'orthorhombic'
loop_
_space_group_symop_operation_xyz
x,y,z
-x,-y,1/2+z
x,-y,-z
-x,y,1/2-z
-x,-y,-z
x,y,1/2-z
-x,y,z
x,-y,1/2+z
1/2+x,1/2+y,z
1/2-x,1/2-y,1/2+z
1/2+x,1/2-y,-z
1/2-x,1/2+y,1/2-z
1/2-x,1/2-y,-z
1/2+x,1/2+y,1/2-z
1/2-x,1/2+y,z
1/2+x,1/2-y,1/2+z
loop_
_atom_site_type_symbol
_atom_site_label
_atom_site_fract_x
_atom_site_fract_y
_atom_site_fract_z
Si Si1 0.713942 0.465618 0.365549
Si Si2 0.144135 0.258924 0.535766
Si Si3 0.934182 0.976995 0.311320
Si Si4 0.564124 0.041275 0.617789
Si Si5 0.711746 0.681731 0.750000
O O1 0.730372 0.781574 0.365327
O O2 0.683043 0.366303 0.418401
O O3 0.685508 0.386707 0.308145
O O4 0.171627 0.500000 0.500000
O O5 0.095841 0.415975 0.567217
O O6 0.125645 0.000000 0.500000
O O7 0.914796 0.022585 0.250000
O O8 0.912604 0.175920 0.358714
O O9 0.000000 0.037497 0.310012
O O10 0.930254 0.668569 0.332041
O O11 0.500000 0.067648 0.603767
O O12 0.766460 0.489788 0.750000
#
# Coordination Sequence:
#
# PCOD9474293 Si02
#       5
#    16  16  16  16   8
#     4  10  21  40  65  89 119 153 195 245 308 359
#     4  12  26  41  60  87 124 161 210 255 288 354
#     4   9  17  33  58  86 117 152 193 247 305 360
#     4  10  21  38  59  84 121 162 204 249 298 351
#     4   8  16  34  60  86 113 146 181 236 292 360
#
# _framework density 24.518101999999999
#
# number of rings (size 3 to 8) (size 9 to 14) (size 15 to 20)
#    0.000    2.000    0.000    3.333    0.000    6.222 
#    4.000    0.000    4.889    0.000    0.000    0.000 
#    0.000    0.000    0.000    0.000    0.000    0.000 
#
# Total GULP energy -201524.437361 kJ/mol
# GULP energy per Si atom -5597.901038 kJ/mol
# Density = 2.446230 g / cm^3
# Si number density = 24.518102 Si / 1000 Ang^3
#
#
#
# Elastic Constant Matrix: (Units=GPa)
#
#
# Indices 1 2 3 4 5 6 
#
# 1 41.7209 -4.4342 26.1603 0.0000 0.0000 0.0000
# 2 -4.4342 101.8567 23.1514 0.0000 0.0000 0.0000
# 3 26.1603 23.1514 142.8633 0.0000 0.0000 0.0000
# 4 0.0000 0.0000 0.0000 30.3038 0.0000 0.0000
# 5 0.0000 0.0000 0.0000 0.0000 20.6191 0.0000
# 6 0.0000 0.0000 0.0000 0.0000 0.0000 28.5532
#
#
#
# Elastic Compliance Matrix: (Units=1/GPa)
#
#
# Indices 1 2 3 4 5 6 
#
# 1 0.027652 0.002445 -0.005460 0.000000 0.000000 0.000000
# 2 0.002445 0.010409 -0.002135 0.000000 0.000000 0.000000
# 3 -0.005460 -0.002135 0.008345 0.000000 0.000000 0.000000
# 4 0.000000 0.000000 0.000000 0.032999 0.000000 0.000000
# 5 0.000000 0.000000 0.000000 0.000000 0.048499 0.000000
# 6 0.000000 0.000000 0.000000 0.000000 0.000000 0.035022
#
#
# Mechanical properties :
#
#
# Convention : Reuss Voigt Hill
#
# Bulk Modulus (GPa) = 27.69487 41.79956 34.74722
# Shear Modulus (GPa) = 26.98882 31.99942 29.49412
#
# Velocity S-wave (km/s) = 3.32139 3.61658 3.47212
# Velocity P-wave (km/s) = 5.10186 5.87580 5.50246
#
# Compressibility (1/GPa) = 0.03610777
#
# Stress axis : x y z
#
# Youngs Moduli (GPa) = 36.16377 96.06782 119.82725
#
# Poissons Ratio (x) = -0.23486 0.65422
# Poissons Ratio (y) = -0.08841 0.25577
# Poissons Ratio (z) = 0.19744 0.20506
#
# Static dielectric constant tensor:
#      x y z
#    x 2.005770 0.000000 0.000000 
#    y 0.000000 1.875710 0.000000 
#    z 0.000000 0.000000 1.948480 
# 
# From -- ./inp_files/65282.got.cif
#   From: 2010.05.17/outbox.cif.g08.bks.cpg/sg63_33_cif.got.tgz:65282.got - 2010.06.03 15:47:04.
