data_PCOD9474754
_publ_section_title
;
Structure prediction by ZEFSAII (Michael W. Deem and Ramdas Pophale) SiO2 
 PCOD9474754
Probable space group: C M C M
;
_chemical_formula_sum "Si O2"
_cell_formula_units_Z 72
_cell_length_a 18.390521
_cell_length_b 24.259492
_cell_length_c 8.594576
_cell_angle_alpha 90.000000
_cell_angle_beta 90.000000
_cell_angle_gamma 90.000000
_cell_volume 3834.424506
_symmetry_space_group_name_H-M "C M C M"
_symmetry_group_IT_number 63
_symmetry_cell_setting 'orthorhombic'
loop_
_space_group_symop_operation_xyz
x,y,z
-x,-y,1/2+z
x,-y,-z
-x,y,1/2-z
-x,-y,-z
x,y,1/2-z
-x,y,z
x,-y,1/2+z
1/2+x,1/2+y,z
1/2-x,1/2-y,1/2+z
1/2+x,1/2-y,-z
1/2-x,1/2+y,1/2-z
1/2-x,1/2-y,-z
1/2+x,1/2+y,1/2-z
1/2-x,1/2+y,z
1/2+x,1/2-y,1/2+z
loop_
_atom_site_type_symbol
_atom_site_label
_atom_site_fract_x
_atom_site_fract_y
_atom_site_fract_z
Si Si1 0.500000 0.561845 0.064755
Si Si2 0.714475 0.938139 0.438258
Si Si3 0.639918 0.625803 0.935981
Si Si4 0.917194 0.361992 0.060329
Si Si5 0.085355 0.236487 0.062879
O O1 0.500000 0.560601 0.250000
O O2 0.500000 0.500000 0.000000
O O3 0.571375 0.593713 0.006923
O O4 0.713629 0.939681 0.250000
O O5 0.785637 0.903605 0.486208
O O6 0.642183 0.905964 0.491691
O O7 0.717617 0.000000 0.500000
O O8 0.635355 0.622654 0.750000
O O9 0.633469 0.689178 0.987376
O O10 0.917734 0.362252 0.250000
O O11 0.897613 0.299228 0.015049
O O12 0.000000 0.373554 0.009671
O O13 0.091528 0.232947 0.250000
O O14 0.000000 0.226565 0.024423
#
# Coordination Sequence:
#
# PCOD9474754 Si02
#       5
#     8  16  16  16  16
#     4  12  24  38  56  78 106 146 193 230 269 326
#     4  10  22  38  55  79 111 146 186 229 275 327
#     4  11  22  35  53  80 114 148 181 227 278 322
#     4   8  16  34  59  83 109 144 183 223 274 333
#     4   9  17  32  56  83 109 143 185 224 266 329
#
# _framework density 18.777263999999999
#
# number of rings (size 3 to 8) (size 9 to 14) (size 15 to 20)
#    0.000    2.222    1.111    3.667    0.000    4.889 
#    0.000    1.111    0.000    1.333    0.000    0.000 
#    0.000    0.000    0.000    0.000    0.000    0.000 
#
# Total GULP energy -200997.014280 kJ/mol
# GULP energy per Si atom -5583.250397 kJ/mol
# Density = 1.873453 g / cm^3
# Si number density = 18.777264 Si / 1000 Ang^3
#
#
#
# Elastic Constant Matrix: (Units=GPa)
#
#
# Indices 1 2 3 4 5 6 
#
# 1 144.9230 97.4138 32.5770 0.0000 0.0000 0.0000
# 2 97.4138 132.1441 28.5070 0.0000 0.0000 0.0000
# 3 32.5770 28.5070 26.3159 0.0000 0.0000 0.0000
# 4 0.0000 0.0000 0.0000 15.9907 0.0000 0.0000
# 5 0.0000 0.0000 0.0000 0.0000 4.7962 0.0000
# 6 0.0000 0.0000 0.0000 0.0000 0.0000 29.2598
#
#
#
# Elastic Compliance Matrix: (Units=1/GPa)
#
#
# Indices 1 2 3 4 5 6 
#
# 1 0.015042 -0.009228 -0.008624 0.000000 0.000000 0.000000
# 2 -0.009228 0.015536 -0.005407 0.000000 0.000000 0.000000
# 3 -0.008624 -0.005407 0.054533 0.000000 0.000000 0.000000
# 4 0.000000 0.000000 0.000000 0.062537 0.000000 0.000000
# 5 0.000000 0.000000 0.000000 0.000000 0.208500 0.000000
# 6 0.000000 0.000000 0.000000 0.000000 0.000000 0.034177
#
#
# Mechanical properties :
#
#
# Convention : Reuss Voigt Hill
#
# Bulk Modulus (GPa) = 25.91118 68.93095 47.42106
# Shear Modulus (GPa) = 11.11840 19.66835 15.39338
#
# Velocity S-wave (km/s) = 2.43599 3.23995 2.86630
# Velocity P-wave (km/s) = 4.66275 7.12642 6.02192
#
# Compressibility (1/GPa) = 0.03859338
#
# Stress axis : x y z
#
# Youngs Moduli (GPa) = 66.48241 64.36475 18.33768
#
# Poissons Ratio (x) = 0.59395 0.15815
# Poissons Ratio (y) = 0.61349 0.09914
# Poissons Ratio (z) = 0.57335 0.34800
#
# Static dielectric constant tensor:
#      x y z
#    x 1.642610 0.000000 0.000000 
#    y 0.000000 1.633240 0.000000 
#    z 0.000000 0.000000 1.635560 
# 
# From -- ./inp_files/6117.got.cif
#   From: 2010.05.17/outbox.cif.g08.bks.cpg/sg63_4_cif.got.tgz:6117.got - 2010.06.03 15:47:04.
