data_PCOD9474222
_publ_section_title
;
Structure prediction by ZEFSAII (Michael W. Deem and Ramdas Pophale) SiO2 
 PCOD9474222
Probable space group: C M C M
;
_chemical_formula_sum "Si O2"
_cell_formula_units_Z 116
_cell_length_a 25.031461
_cell_length_b 29.533742
_cell_length_c 8.135639
_cell_angle_alpha 90.000000
_cell_angle_beta 90.000000
_cell_angle_gamma 90.000000
_cell_volume 6014.455900
_symmetry_space_group_name_H-M "C M C M"
_symmetry_group_IT_number 63
_symmetry_cell_setting 'orthorhombic'
loop_
_space_group_symop_operation_xyz
x,y,z
-x,-y,1/2+z
x,-y,-z
-x,y,1/2-z
-x,-y,-z
x,y,1/2-z
-x,y,z
x,-y,1/2+z
1/2+x,1/2+y,z
1/2-x,1/2-y,1/2+z
1/2+x,1/2-y,-z
1/2-x,1/2+y,1/2-z
1/2-x,1/2-y,-z
1/2+x,1/2+y,1/2-z
1/2-x,1/2+y,z
1/2+x,1/2-y,1/2+z
loop_
_atom_site_type_symbol
_atom_site_label
_atom_site_fract_x
_atom_site_fract_y
_atom_site_fract_z
Si Si1 0.717113 0.207010 0.439689
Si Si2 0.347357 0.950117 0.944253
Si Si3 0.079983 0.188869 0.552996
Si Si4 0.442385 0.887439 0.057291
Si Si5 0.500000 0.667760 0.250000
Si Si6 0.774164 0.949545 0.947084
Si Si7 0.402435 0.794749 0.945838
Si Si8 0.195007 0.143572 0.559485
O O1 0.706557 0.215586 0.250000
O O2 0.750000 0.250000 0.500000
O O3 0.658285 0.202090 0.513891
O O4 0.755288 0.164115 0.460640
O O5 0.341812 0.950960 0.750000
O O6 0.287097 0.942448 0.010175
O O7 0.390911 0.912778 0.987251
O O8 0.365118 0.000000 0.000000
O O9 0.066279 0.179342 0.750000
O O10 0.045703 0.169382 0.401175
O O11 0.078118 0.243382 0.533984
O O12 0.140603 0.171060 0.530698
O O13 0.442639 0.897075 0.250000
O O14 0.500000 0.902152 0.986768
O O15 0.436163 0.833890 0.029698
O O16 0.775059 0.946825 0.750000
O O17 0.809754 0.909223 0.018056
O O18 0.790188 0.000000 0.000000
O O19 0.403353 0.804663 0.750000
O O20 0.208665 0.149495 0.750000
#
# Coordination Sequence:
#
# PCOD9474222 Si02
#       8
#    16  16  16  16   4  16  16  16
#     4  11  21  34  55  83 118 159 200 244 299 369
#     4  10  21  39  61  84 113 151 192 243 305 364
#     4  10  24  42  61  90 123 160 210 258 305 364
#     4  11  25  39  55  80 108 147 206 259 304 361
#     4  12  26  40  68  86 118 168 210 256 310 350
#     4  10  21  37  61  93 126 157 194 237 296 371
#     4  10  22  39  55  79 118 157 201 254 308 357
#     4  11  22  38  59  89 128 162 198 249 303 361
#
# _framework density 19.286864999999999
#
# number of rings (size 3 to 8) (size 9 to 14) (size 15 to 20)
#    0.000    1.517    1.379    3.103    3.862    7.448 
#    0.000    0.000    0.000    0.000    0.000    0.483 
#    0.000    0.000    0.000    0.000    0.000    0.000 
#
# Total GULP energy -323210.271382 kJ/mol
# GULP energy per Si atom -5572.590886 kJ/mol
# Density = 1.924297 g / cm^3
# Si number density = 19.286865 Si / 1000 Ang^3
#
#
#
# Elastic Constant Matrix: (Units=GPa)
#
#
# Indices 1 2 3 4 5 6 
#
# 1 35.5213 -1.9174 10.0205 0.0000 0.0000 0.0000
# 2 -1.9174 71.1818 -9.2737 0.0000 0.0000 0.0000
# 3 10.0205 -9.2737 51.7252 0.0000 0.0000 0.0000
# 4 0.0000 0.0000 0.0000 30.6584 0.0000 0.0000
# 5 0.0000 0.0000 0.0000 0.0000 36.0622 0.0000
# 6 0.0000 0.0000 0.0000 0.0000 0.0000 -9.1511
#
#
#
# Elastic Compliance Matrix: (Units=1/GPa)
#
#
# Indices 1 2 3 4 5 6 
#
# 1 0.029780 0.000052 -0.005760 0.000000 0.000000 0.000000
# 2 0.000052 0.014385 0.002569 0.000000 0.000000 0.000000
# 3 -0.005760 0.002569 0.020909 0.000000 0.000000 0.000000
# 4 0.000000 0.000000 0.000000 0.032617 0.000000 0.000000
# 5 0.000000 0.000000 0.000000 0.000000 0.027730 0.000000
# 6 0.000000 0.000000 0.000000 0.000000 0.000000 -0.109277
#
#
# Mechanical properties :
#
#
# Convention : Reuss Voigt Hill
#
# Bulk Modulus (GPa) = 17.00812 17.34303 17.17557
# Shear Modulus (GPa) = 118.98824 22.15383 70.57103
#
# Velocity S-wave (km/s) = 7.86307 3.39285 6.05555
# Velocity P-wave (km/s) = 9.55378 4.93561 7.60378
#
# Compressibility (1/GPa) = 0.05879546
#
# Stress axis : x y z
#
# Youngs Moduli (GPa) = 33.57991 69.51870 47.82557
#
# Poissons Ratio (x) = -0.00360 0.27547
# Poissons Ratio (y) = -0.00174 -0.12286
# Poissons Ratio (z) = 0.19341 -0.17859
#
# Static dielectric constant tensor:
#      x y z
#    x 1.753380 0.000000 0.000000 
#    y 0.000000 1.664730 0.000000 
#    z 0.000000 0.000000 1.680990 
# 
# From -- ./inp_files/10946.got.cif
#   From: 2010.05.17/outbox.cif.g08.bks.cpg/sg63_6_cif.got.tgz:10946.got - 2010.06.03 15:47:04.
