data_PCOD9474873
_publ_section_title
;
Structure prediction by ZEFSAII (Michael W. Deem and Ramdas Pophale) SiO2 
 PCOD9474873
Probable space group: C M C M
;
_chemical_formula_sum "Si O2"
_cell_formula_units_Z 52
_cell_length_a 11.421943
_cell_length_b 12.310089
_cell_length_c 17.433190
_cell_angle_alpha 90.000000
_cell_angle_beta 90.000000
_cell_angle_gamma 90.000000
_cell_volume 2451.196031
_symmetry_space_group_name_H-M "C M C M"
_symmetry_group_IT_number 63
_symmetry_cell_setting 'orthorhombic'
loop_
_space_group_symop_operation_xyz
x,y,z
-x,-y,1/2+z
x,-y,-z
-x,y,1/2-z
-x,-y,-z
x,y,1/2-z
-x,y,z
x,-y,1/2+z
1/2+x,1/2+y,z
1/2-x,1/2-y,1/2+z
1/2+x,1/2-y,-z
1/2-x,1/2+y,1/2-z
1/2-x,1/2-y,-z
1/2+x,1/2+y,1/2-z
1/2-x,1/2+y,z
1/2+x,1/2-y,1/2+z
loop_
_atom_site_type_symbol
_atom_site_label
_atom_site_fract_x
_atom_site_fract_y
_atom_site_fract_z
Si Si1 0.363511 0.888225 0.466795
Si Si2 0.500000 0.442066 0.585336
Si Si3 0.369684 0.797381 0.750000
Si Si4 0.000000 0.922052 0.250000
Si Si5 0.234102 0.796809 0.898544
O O1 0.500000 0.900715 0.452286
O O2 0.334237 0.807461 0.536553
O O3 0.302060 0.829933 0.396345
O O4 0.314864 0.000000 0.500000
O O5 0.500000 0.500000 0.500000
O O6 0.500000 0.512053 0.667225
O O7 0.383404 0.366344 0.587427
O O8 0.500000 0.845269 0.750000
O O9 0.393343 0.666468 0.750000
O O10 0.296733 0.832893 0.822500
#
# Coordination Sequence:
#
# PCOD9474873 Si02
#       5
#    16   8   8   4  16
#     4  10  22  39  63  95 128 168 223 282 335 413
#     4  12  26  44  75 108 139 186 238 290 359 418
#     4  10  25  42  67  91 135 183 230 291 359 406
#     4  10  28  44  68 104 138 176 248 288 348 426
#     4  11  23  41  66  93 136 176 225 284 350 413
#
# _framework density 21.214134000000001
#
# number of rings (size 3 to 8) (size 9 to 14) (size 15 to 20)
#    0.462    0.923    1.538    2.769   12.923    0.000 
#    0.000    0.000    0.000    0.000    0.000    0.000 
#    0.000    0.000    0.000    0.000    0.000    0.000 
#
# Total GULP energy -144736.963168 kJ/mol
# GULP energy per Si atom -5566.806276 kJ/mol
# Density = 2.116585 g / cm^3
# Si number density = 21.214134 Si / 1000 Ang^3
#
#
#
# Elastic Constant Matrix: (Units=GPa)
#
#
# Indices 1 2 3 4 5 6 
#
# 1 103.6109 19.6491 29.5288 0.0000 0.0000 0.0000
# 2 19.6491 56.1234 -9.7208 0.0000 0.0000 0.0000
# 3 29.5288 -9.7208 81.6529 0.0000 0.0000 0.0000
# 4 0.0000 0.0000 0.0000 30.7924 0.0000 0.0000
# 5 0.0000 0.0000 0.0000 0.0000 33.7841 0.0000
# 6 0.0000 0.0000 0.0000 0.0000 0.0000 9.6372
#
#
#
# Elastic Compliance Matrix: (Units=1/GPa)
#
#
# Indices 1 2 3 4 5 6 
#
# 1 0.012024 -0.005067 -0.004951 0.000000 0.000000 0.000000
# 2 -0.005067 0.020328 0.004253 0.000000 0.000000 0.000000
# 3 -0.004951 0.004253 0.014544 0.000000 0.000000 0.000000
# 4 0.000000 0.000000 0.000000 0.032476 0.000000 0.000000
# 5 0.000000 0.000000 0.000000 0.000000 0.029600 0.000000
# 6 0.000000 0.000000 0.000000 0.000000 0.000000 0.103765
#
#
# Mechanical properties :
#
#
# Convention : Reuss Voigt Hill
#
# Bulk Modulus (GPa) = 28.27737 35.58904 31.93321
# Shear Modulus (GPa) = 21.18139 28.30472 24.74306
#
# Velocity S-wave (km/s) = 3.16326 3.65669 3.41889
# Velocity P-wave (km/s) = 5.16721 5.88566 5.53810
#
# Compressibility (1/GPa) = 0.03536397
#
# Stress axis : x y z
#
# Youngs Moduli (GPa) = 83.16985 49.19206 68.75751
#
# Poissons Ratio (x) = 0.24926 0.34045
# Poissons Ratio (y) = 0.42143 -0.29240
# Poissons Ratio (z) = 0.41181 -0.20919
#
# Static dielectric constant tensor:
#      x y z
#    x 1.722200 0.000000 0.000000 
#    y 0.000000 1.906620 0.000000 
#    z 0.000000 0.000000 3.399630 
# 
# From -- ./inp_files/41316.got.cif
#   From: 2010.05.17/outbox.cif.g08.bks.cpg/sg63_21_cif.got.tgz:41316.got - 2010.06.03 15:47:04.
