data_PCOD9474463
_publ_section_title
;
Structure prediction by ZEFSAII (Michael W. Deem and Ramdas Pophale) SiO2 
 PCOD9474463
Probable space group: C M C M
;
_chemical_formula_sum "Si O2"
_cell_formula_units_Z 48
_cell_length_a 8.055449
_cell_length_b 22.414799
_cell_length_c 14.881915
_cell_angle_alpha 90.000000
_cell_angle_beta 90.000000
_cell_angle_gamma 90.000000
_cell_volume 2687.097475
_symmetry_space_group_name_H-M "C M C M"
_symmetry_group_IT_number 63
_symmetry_cell_setting 'orthorhombic'
loop_
_space_group_symop_operation_xyz
x,y,z
-x,-y,1/2+z
x,-y,-z
-x,y,1/2-z
-x,-y,-z
x,y,1/2-z
-x,y,z
x,-y,1/2+z
1/2+x,1/2+y,z
1/2-x,1/2-y,1/2+z
1/2+x,1/2-y,-z
1/2-x,1/2+y,1/2-z
1/2-x,1/2-y,-z
1/2+x,1/2+y,1/2-z
1/2-x,1/2+y,z
1/2+x,1/2-y,1/2+z
loop_
_atom_site_type_symbol
_atom_site_label
_atom_site_fract_x
_atom_site_fract_y
_atom_site_fract_z
Si Si1 0.000000 0.369210 0.851982
Si Si2 0.500000 0.993219 0.392796
Si Si3 0.686683 0.816827 0.010083
Si Si4 0.185102 0.089351 0.852400
O O1 0.000000 0.440605 0.853318
O O2 0.000000 0.347312 0.750000
O O3 0.155323 0.345927 0.911780
O O4 0.664948 0.956949 0.366186
O O5 0.500000 0.000000 0.500000
O O6 0.500000 0.815980 0.050065
O O7 0.793289 0.858445 0.074688
O O8 0.750000 0.750000 0.000000
O O9 0.197137 0.112456 0.750000
O O10 0.000000 0.062689 0.862750
#
# Coordination Sequence:
#
# PCOD9474463 Si02
#       4
#     8   8  16  16
#     4  10  22  39  64  89 126 171 206 256 320 368
#     4  12  20  43  65  94 125 169 204 263 318 376
#     4  10  21  39  60  88 127 164 208 258 310 365
#     4  11  23  39  65  97 125 162 210 259 314 380
#
# _framework density 17.863140999999999
#
# number of rings (size 3 to 8) (size 9 to 14) (size 15 to 20)
#    1.000    0.333    5.000    2.500    0.000    2.000 
#    0.000    0.000    0.000    5.000    0.000    0.000 
#    0.000    0.000    0.000    0.000    0.000    0.000 
#
# Total GULP energy -133722.795668 kJ/mol
# GULP energy per Si atom -5571.783153 kJ/mol
# Density = 1.782248 g / cm^3
# Si number density = 17.863141 Si / 1000 Ang^3
#
#
#
# Elastic Constant Matrix: (Units=GPa)
#
#
# Indices 1 2 3 4 5 6 
#
# 1 125.7239 45.0097 39.7745 0.0000 0.0000 0.0000
# 2 45.0097 120.9764 46.0281 0.0000 0.0000 0.0000
# 3 39.7745 46.0281 153.6653 0.0000 0.0000 0.0000
# 4 0.0000 0.0000 0.0000 -0.8294 0.0000 0.0000
# 5 0.0000 0.0000 0.0000 0.0000 25.0407 0.0000
# 6 0.0000 0.0000 0.0000 0.0000 0.0000 30.0513
#
#
#
# Elastic Compliance Matrix: (Units=1/GPa)
#
#
# Indices 1 2 3 4 5 6 
#
# 1 0.009505 -0.002935 -0.001581 0.000000 0.000000 0.000000
# 2 -0.002935 0.010235 -0.002306 0.000000 0.000000 0.000000
# 3 -0.001581 -0.002306 0.007608 0.000000 0.000000 0.000000
# 4 0.000000 0.000000 0.000000 -1.205674 0.000000 0.000000
# 5 0.000000 0.000000 0.000000 0.000000 0.039935 0.000000
# 6 0.000000 0.000000 0.000000 0.000000 0.000000 0.033276
#
#
# Mechanical properties :
#
#
# Convention : Reuss Voigt Hill
#
# Bulk Modulus (GPa) = 72.97304 73.55447 73.26376
# Shear Modulus (GPa) = -4.60023 28.82272 12.11124
#
# Velocity S-wave (km/s) = -1.60650 4.02124 2.60667
# Velocity P-wave (km/s) = 6.12362 7.92632 7.08256
#
# Compressibility (1/GPa) = 0.01370369
#
# Stress axis : x y z
#
# Youngs Moduli (GPa) = 105.20996 97.70008 131.44550
#
# Poissons Ratio (x) = 0.28672 0.20784
# Poissons Ratio (y) = 0.30876 0.30315
# Poissons Ratio (z) = 0.16635 0.22532
#
# Static dielectric constant tensor:
#      x y z
#    x 1.635290 0.000000 0.000000 
#    y 0.000000 1.596170 0.000000 
#    z 0.000000 0.000000 1.625420 
# 
# From -- ./inp_files/27055.got.cif
#   From: 2010.05.17/outbox.cif.g08.bks.cpg/sg63_14_cif.got.tgz:27055.got - 2010.06.03 15:47:04.
