data_PCOD9474446
_publ_section_title
;
Structure prediction by ZEFSAII (Michael W. Deem and Ramdas Pophale) SiO2 
 PCOD9474446
Probable space group: C M C M
;
_chemical_formula_sum "Si O2"
_cell_formula_units_Z 60
_cell_length_a 11.951799
_cell_length_b 18.061028
_cell_length_c 15.605098
_cell_angle_alpha 90.000000
_cell_angle_beta 90.000000
_cell_angle_gamma 90.000000
_cell_volume 3368.544175
_symmetry_space_group_name_H-M "C M C M"
_symmetry_group_IT_number 63
_symmetry_cell_setting 'orthorhombic'
loop_
_space_group_symop_operation_xyz
x,y,z
-x,-y,1/2+z
x,-y,-z
-x,y,1/2-z
-x,-y,-z
x,y,1/2-z
-x,y,z
x,-y,1/2+z
1/2+x,1/2+y,z
1/2-x,1/2-y,1/2+z
1/2+x,1/2-y,-z
1/2-x,1/2+y,1/2-z
1/2-x,1/2-y,-z
1/2+x,1/2+y,1/2-z
1/2-x,1/2+y,z
1/2+x,1/2-y,1/2+z
loop_
_atom_site_type_symbol
_atom_site_label
_atom_site_fract_x
_atom_site_fract_y
_atom_site_fract_z
Si Si1 0.633267 0.186371 0.250000
Si Si2 0.500000 0.806554 0.145849
Si Si3 0.366787 0.545726 0.412765
Si Si4 0.785597 0.215205 0.410384
Si Si5 0.720121 0.017230 0.250000
Si Si6 0.500000 0.919231 0.250000
O O1 0.500000 0.196700 0.250000
O O2 0.692075 0.218504 0.335716
O O3 0.665767 0.099526 0.250000
O O4 0.500000 0.815690 0.250000
O O5 0.607993 0.762642 0.119396
O O6 0.500000 0.894147 0.141795
O O7 0.349420 0.500000 0.500000
O O8 0.500000 0.547278 0.394463
O O9 0.323855 0.630200 0.421495
O O10 0.298598 0.511474 0.333607
O O11 0.750000 0.250000 0.500000
O O12 0.618739 0.960611 0.250000
#
# Coordination Sequence:
#
# PCOD9474446 Si02
#       6
#     8   8  16  16   8   4
#     4  10  21  39  58  89 119 155 192 244 307 349
#     4  10  22  40  62  84 116 163 206 236 294 353
#     4  10  22  39  62  88 117 156 203 247 300 354
#     4  11  23  39  63  88 121 160 203 248 295 363
#     4  10  21  39  60  84 121 154 192 246 299 351
#     4  10  22  38  62  88 120 150 208 238 294 366
#
# _framework density 17.811848999999999
#
# number of rings (size 3 to 8) (size 9 to 14) (size 15 to 20)
#    0.400    1.333    3.333    0.400    5.600    0.000 
#    0.000    0.667    0.000    0.000    0.000    0.000 
#    0.000    0.000    0.000    0.000    0.000    0.000 
#
# Total GULP energy -167020.791041 kJ/mol
# GULP energy per Si atom -5567.359701 kJ/mol
# Density = 1.777131 g / cm^3
# Si number density = 17.811849 Si / 1000 Ang^3
#
#
#
# Elastic Constant Matrix: (Units=GPa)
#
#
# Indices 1 2 3 4 5 6 
#
# 1 187.0429 61.0974 106.8589 0.0000 0.0000 0.0000
# 2 61.0974 69.2906 59.4598 0.0000 0.0000 0.0000
# 3 106.8589 59.4598 145.2501 0.0000 0.0000 0.0000
# 4 0.0000 0.0000 0.0000 31.5848 0.0000 0.0000
# 5 0.0000 0.0000 0.0000 0.0000 19.2301 0.0000
# 6 0.0000 0.0000 0.0000 0.0000 0.0000 -87.6754
#
#
#
# Elastic Compliance Matrix: (Units=1/GPa)
#
#
# Indices 1 2 3 4 5 6 
#
# 1 0.009830 -0.003795 -0.005678 0.000000 0.000000 0.000000
# 2 -0.003795 0.023712 -0.006915 0.000000 0.000000 0.000000
# 3 -0.005678 -0.006915 0.013893 0.000000 0.000000 0.000000
# 4 0.000000 0.000000 0.000000 0.031661 0.000000 0.000000
# 5 0.000000 0.000000 0.000000 0.000000 0.052002 0.000000
# 6 0.000000 0.000000 0.000000 0.000000 0.000000 -0.011406
#
#
# Mechanical properties :
#
#
# Convention : Reuss Voigt Hill
#
# Bulk Modulus (GPa) = 68.21957 95.15730 81.68843
# Shear Modulus (GPa) = 31.77542 4.23907 18.00724
#
# Velocity S-wave (km/s) = 4.22826 1.54437 3.18302
# Velocity P-wave (km/s) = 7.88802 7.53125 7.71170
#
# Compressibility (1/GPa) = 0.01465855
#
# Stress axis : x y z
#
# Youngs Moduli (GPa) = 101.72847 42.17267 71.97948
#
# Poissons Ratio (x) = 0.16005 0.40873
# Poissons Ratio (y) = 0.38606 0.49773
# Poissons Ratio (z) = 0.57765 0.29162
#
# Static dielectric constant tensor:
#      x y z
#    x 1.569000 0.000000 0.000000 
#    y 0.000000 1.620150 0.000000 
#    z 0.000000 0.000000 1.631670 
# 
# From -- ./inp_files/17181.got.cif
#   From: 2010.05.17/outbox.cif.g08.bks.cpg/sg63_9_cif.got.tgz:17181.got - 2010.06.03 15:47:04.
