data_PCOD9474957
_publ_section_title
;
Structure prediction by ZEFSAII (Michael W. Deem and Ramdas Pophale) SiO2 
 PCOD9474957
Probable space group: C M C M
;
_chemical_formula_sum "Si O2"
_cell_formula_units_Z 48
_cell_length_a 16.077266
_cell_length_b 8.583231
_cell_length_c 16.024589
_cell_angle_alpha 90.000000
_cell_angle_beta 90.000000
_cell_angle_gamma 90.000000
_cell_volume 2211.311363
_symmetry_space_group_name_H-M "C M C M"
_symmetry_group_IT_number 63
_symmetry_cell_setting 'orthorhombic'
loop_
_space_group_symop_operation_xyz
x,y,z
-x,-y,1/2+z
x,-y,-z
-x,y,1/2-z
-x,-y,-z
x,y,1/2-z
-x,y,z
x,-y,1/2+z
1/2+x,1/2+y,z
1/2-x,1/2-y,1/2+z
1/2+x,1/2-y,-z
1/2-x,1/2+y,1/2-z
1/2-x,1/2-y,-z
1/2+x,1/2+y,1/2-z
1/2-x,1/2+y,z
1/2+x,1/2-y,1/2+z
loop_
_atom_site_type_symbol
_atom_site_label
_atom_site_fract_x
_atom_site_fract_y
_atom_site_fract_z
Si Si1 0.334639 0.403403 0.655199
Si Si2 0.827723 0.567672 0.593542
Si Si3 0.500000 0.061886 0.404402
Si Si4 0.000000 0.933919 0.406124
O O1 0.335737 0.344670 0.750000
O O2 0.253576 0.508094 0.640774
O O3 0.331459 0.254099 0.594815
O O4 0.417312 0.501141 0.637331
O O5 0.821709 0.500000 0.500000
O O6 0.913976 0.503520 0.632094
O O7 0.500000 0.247611 0.405111
O O8 0.500000 0.000000 0.500000
O O9 0.000000 0.000000 0.500000
#
# Coordination Sequence:
#
# PCOD9474957 Si02
#       4
#    16  16   8   8
#     4  12  25  42  64  98 136 173 218 279 339 391
#     4  11  22  42  67  95 130 175 225 271 327 401
#     4  10  22  40  65  95 123 160 216 268 316 378
#     4  12  23  42  69  95 126 168 217 268 324 396
#
# _framework density 21.706575000000001
#
# number of rings (size 3 to 8) (size 9 to 14) (size 15 to 20)
#    0.000    0.667    0.000   10.500    0.000    0.000 
#    0.000    7.500    0.000    0.000    0.000    0.000 
#    0.000    0.000    0.000    0.000    0.000    0.000 
#
# Total GULP energy -134387.709308 kJ/mol
# GULP energy per Si atom -5599.487888 kJ/mol
# Density = 2.165717 g / cm^3
# Si number density = 21.706575 Si / 1000 Ang^3
#
#
#
# Elastic Constant Matrix: (Units=GPa)
#
#
# Indices 1 2 3 4 5 6 
#
# 1 220.6812 65.8809 12.3636 0.0000 0.0000 0.0000
# 2 65.8809 162.2452 -14.1660 0.0000 0.0000 0.0000
# 3 12.3636 -14.1660 54.1063 0.0000 0.0000 0.0000
# 4 0.0000 0.0000 0.0000 21.8145 0.0000 0.0000
# 5 0.0000 0.0000 0.0000 0.0000 -12.3413 0.0000
# 6 0.0000 0.0000 0.0000 0.0000 0.0000 36.2991
#
#
#
# Elastic Compliance Matrix: (Units=1/GPa)
#
#
# Indices 1 2 3 4 5 6 
#
# 1 0.005327 -0.002322 -0.001825 0.000000 0.000000 0.000000
# 2 -0.002322 0.007320 0.002447 0.000000 0.000000 0.000000
# 3 -0.001825 0.002447 0.019540 0.000000 0.000000 0.000000
# 4 0.000000 0.000000 0.000000 0.045841 0.000000 0.000000
# 5 0.000000 0.000000 0.000000 0.000000 -0.081029 0.000000
# 6 0.000000 0.000000 0.000000 0.000000 0.000000 0.027549
#
#
# Mechanical properties :
#
#
# Convention : Reuss Voigt Hill
#
# Bulk Modulus (GPa) = 34.73883 62.79885 48.76884
# Shear Modulus (GPa) = 133.17419 34.01808 83.59613
#
# Velocity S-wave (km/s) = 7.84125 3.96306 6.21253
# Velocity P-wave (km/s) = 9.90045 7.06645 8.60097
#
# Compressibility (1/GPa) = 0.02878623
#
# Stress axis : x y z
#
# Youngs Moduli (GPa) = 187.72229 136.60765 51.17714
#
# Poissons Ratio (x) = 0.31726 0.09341
# Poissons Ratio (y) = 0.43598 -0.12524
# Poissons Ratio (z) = 0.34265 -0.33432
#
# Static dielectric constant tensor:
#      x y z
#    x 1.790780 0.000000 0.000000 
#    y 0.000000 1.723320 0.000000 
#    z 0.000000 0.000000 1.892750 
# 
# From -- ./inp_files/43201.got.cif
#   From: 2010.05.17/outbox.cif.g08.bks.cpg/sg63_22_cif.got.tgz:43201.got - 2010.06.03 15:47:04.
