data_PCOD9474408
_publ_section_title
;
Structure prediction by ZEFSAII (Michael W. Deem and Ramdas Pophale) SiO2 
 PCOD9474408
Probable space group: C M C M
;
_chemical_formula_sum "Si O2"
_cell_formula_units_Z 56
_cell_length_a 26.027022
_cell_length_b 10.909693
_cell_length_c 9.973026
_cell_angle_alpha 90.000000
_cell_angle_beta 90.000000
_cell_angle_gamma 90.000000
_cell_volume 2831.809016
_symmetry_space_group_name_H-M "C M C M"
_symmetry_group_IT_number 63
_symmetry_cell_setting 'orthorhombic'
loop_
_space_group_symop_operation_xyz
x,y,z
-x,-y,1/2+z
x,-y,-z
-x,y,1/2-z
-x,-y,-z
x,y,1/2-z
-x,y,z
x,-y,1/2+z
1/2+x,1/2+y,z
1/2-x,1/2-y,1/2+z
1/2+x,1/2-y,-z
1/2-x,1/2+y,1/2-z
1/2-x,1/2-y,-z
1/2+x,1/2+y,1/2-z
1/2-x,1/2+y,z
1/2+x,1/2-y,1/2+z
loop_
_atom_site_type_symbol
_atom_site_label
_atom_site_fract_x
_atom_site_fract_y
_atom_site_fract_z
Si Si1 0.442104 0.680862 0.897327
Si Si2 0.203202 0.770514 0.598891
Si Si3 0.399988 0.880520 0.408360
Si Si4 0.360083 0.500000 0.500000
O O1 0.436961 0.741826 0.750000
O O2 0.500000 0.631226 0.905686
O O3 0.432762 0.774384 0.018849
O O4 0.398847 0.577045 0.907194
O O5 0.222753 0.765982 0.750000
O O6 0.250000 0.750000 0.500000
O O7 0.158718 0.668535 0.583098
O O8 0.175324 0.900330 0.572804
O O9 0.412179 0.896739 0.250000
O O10 0.406157 0.000000 0.500000
#
# Coordination Sequence:
#
# PCOD9474408 Si02
#       4
#    16  16  16   8
#     4  10  21  38  63  92 121 157 198 246 303 358
#     4  10  23  39  59  87 117 155 199 245 298 352
#     4  10  22  40  60  86 120 160 203 249 298 353
#     4  10  21  40  62  90 120 156 197 248 294 358
#
# _framework density 19.775345999999999
#
# number of rings (size 3 to 8) (size 9 to 14) (size 15 to 20)
#    0.000    2.000    0.000    2.143    2.000    9.143 
#    0.000    0.000    0.000    0.000    0.000    0.000 
#    0.000    0.000    0.000    0.000    0.000    0.000 
#
# Total GULP energy -156252.294778 kJ/mol
# GULP energy per Si atom -5580.439099 kJ/mol
# Density = 1.973034 g / cm^3
# Si number density = 19.775346 Si / 1000 Ang^3
#
#
#
# Elastic Constant Matrix: (Units=GPa)
#
#
# Indices 1 2 3 4 5 6 
#
# 1 101.5943 25.6438 63.8675 0.0000 0.0000 0.0000
# 2 25.6438 86.4725 42.2962 0.0000 0.0000 0.0000
# 3 63.8675 42.2962 166.9271 0.0000 0.0000 0.0000
# 4 0.0000 0.0000 0.0000 24.2257 0.0000 0.0000
# 5 0.0000 0.0000 0.0000 0.0000 23.5419 0.0000
# 6 0.0000 0.0000 0.0000 0.0000 0.0000 5.3069
#
#
#
# Elastic Compliance Matrix: (Units=1/GPa)
#
#
# Indices 1 2 3 4 5 6 
#
# 1 0.013162 -0.001644 -0.004619 0.000000 0.000000 0.000000
# 2 -0.001644 0.013406 -0.002768 0.000000 0.000000 0.000000
# 3 -0.004619 -0.002768 0.008459 0.000000 0.000000 0.000000
# 4 0.000000 0.000000 0.000000 0.041279 0.000000 0.000000
# 5 0.000000 0.000000 0.000000 0.000000 0.042477 0.000000
# 6 0.000000 0.000000 0.000000 0.000000 0.000000 0.188435
#
#
# Mechanical properties :
#
#
# Convention : Reuss Voigt Hill
#
# Bulk Modulus (GPa) = 58.94469 68.73434 63.83951
# Shear Modulus (GPa) = 15.10870 25.49397 20.30133
#
# Velocity S-wave (km/s) = 2.76708 3.59441 3.20753
# Velocity P-wave (km/s) = 6.33095 7.21522 6.78750
#
# Compressibility (1/GPa) = 0.01696506
#
# Stress axis : x y z
#
# Youngs Moduli (GPa) = 75.97655 74.59534 118.21228
#
# Poissons Ratio (x) = 0.12262 0.54607
# Poissons Ratio (y) = 0.12489 0.32719
# Poissons Ratio (z) = 0.35096 0.20647
#
# Static dielectric constant tensor:
#      x y z
#    x 1.665210 0.000000 0.000000 
#    y 0.000000 1.697080 0.000000 
#    z 0.000000 0.000000 1.697790 
# 
# From -- ./inp_files/11438.got.cif
#   From: 2010.05.17/outbox.cif.g08.bks.cpg/sg63_6_cif.got.tgz:11438.got - 2010.06.03 15:47:04.
