data_PCOD9474908
_publ_section_title
;
Structure prediction by ZEFSAII (Michael W. Deem and Ramdas Pophale) SiO2 
 PCOD9474908
Probable space group: C M C M
;
_chemical_formula_sum "Si O2"
_cell_formula_units_Z 112
_cell_length_a 15.447658
_cell_length_b 24.861818
_cell_length_c 14.120279
_cell_angle_alpha 90.000000
_cell_angle_beta 90.000000
_cell_angle_gamma 90.000000
_cell_volume 5422.990039
_symmetry_space_group_name_H-M "C M C M"
_symmetry_group_IT_number 63
_symmetry_cell_setting 'orthorhombic'
loop_
_space_group_symop_operation_xyz
x,y,z
-x,-y,1/2+z
x,-y,-z
-x,y,1/2-z
-x,-y,-z
x,y,1/2-z
-x,y,z
x,-y,1/2+z
1/2+x,1/2+y,z
1/2-x,1/2-y,1/2+z
1/2+x,1/2-y,-z
1/2-x,1/2+y,1/2-z
1/2-x,1/2-y,-z
1/2+x,1/2+y,1/2-z
1/2-x,1/2+y,z
1/2+x,1/2-y,1/2+z
loop_
_atom_site_type_symbol
_atom_site_label
_atom_site_fract_x
_atom_site_fract_y
_atom_site_fract_z
Si Si1 0.101404 0.870584 0.864424
Si Si2 0.728016 0.466298 0.864141
Si Si3 0.240538 0.912967 0.136020
Si Si4 0.652234 0.262869 0.529755
Si Si5 0.403188 0.325119 0.141648
Si Si6 0.902645 0.352027 0.446539
Si Si7 0.598551 0.097458 0.141717
O O1 0.104891 0.868322 0.750000
O O2 0.159068 0.921532 0.896527
O O3 0.140662 0.815697 0.906323
O O4 0.000000 0.875060 0.892011
O O5 0.716333 0.468887 0.750000
O O6 0.719864 0.527181 0.899662
O O7 0.825646 0.444951 0.879282
O O8 0.245843 0.915029 0.250000
O O9 0.166082 0.870057 0.112957
O O10 0.330542 0.890344 0.097271
O O11 0.750000 0.250000 0.500000
O O12 0.603733 0.277058 0.432231
O O13 0.614863 0.209774 0.578660
O O14 0.385424 0.308410 0.250000
O O15 0.500000 0.347841 0.138612
O O16 0.894632 0.357866 0.560549
O O17 0.000000 0.367706 0.419749
O O18 0.611351 0.116713 0.250000
O O19 0.500000 0.075496 0.135957
#
# Coordination Sequence:
#
# PCOD9474908 Si02
#       7
#    16  16  16  16  16  16  16
#     4  10  22  40  63  94 128 163 207 258 313 370
#     4   9  19  37  61  86 117 159 205 254 307 365
#     4  10  22  40  60  88 123 160 205 253 308 373
#     4  12  23  40  64  88 125 168 203 256 306 367
#     4  10  22  41  63  87 119 160 205 252 303 359
#     4  11  23  38  59  90 125 164 206 251 310 374
#     4   9  19  37  59  85 118 156 204 260 311 361
#
# _framework density 20.652812999999998
#
# number of rings (size 3 to 8) (size 9 to 14) (size 15 to 20)
#    0.000    1.857    1.429    2.143    0.000    3.714 
#    0.000    7.143    0.000    1.714    0.000    0.000 
#    0.000    0.000    0.000    0.000    0.000    0.000 
#
# Total GULP energy -312792.930913 kJ/mol
# GULP energy per Si atom -5585.588052 kJ/mol
# Density = 2.060581 g / cm^3
# Si number density = 20.652813 Si / 1000 Ang^3
#
#
#
# Elastic Constant Matrix: (Units=GPa)
#
#
# Indices 1 2 3 4 5 6 
#
# 1 135.2366 41.4556 12.5539 0.0000 0.0000 0.0000
# 2 41.4556 110.2575 17.4250 0.0000 0.0000 0.0000
# 3 12.5539 17.4250 42.8912 0.0000 0.0000 0.0000
# 4 0.0000 0.0000 0.0000 30.2917 0.0000 0.0000
# 5 0.0000 0.0000 0.0000 0.0000 24.7808 0.0000
# 6 0.0000 0.0000 0.0000 0.0000 0.0000 0.8862
#
#
#
# Elastic Compliance Matrix: (Units=1/GPa)
#
#
# Indices 1 2 3 4 5 6 
#
# 1 0.008421 -0.002967 -0.001259 0.000000 0.000000 0.000000
# 2 -0.002967 0.010737 -0.003494 0.000000 0.000000 0.000000
# 3 -0.001259 -0.003494 0.025103 0.000000 0.000000 0.000000
# 4 0.000000 0.000000 0.000000 0.033012 0.000000 0.000000
# 5 0.000000 0.000000 0.000000 0.000000 0.040354 0.000000
# 6 0.000000 0.000000 0.000000 0.000000 0.000000 1.128390
#
#
# Mechanical properties :
#
#
# Convention : Reuss Voigt Hill
#
# Bulk Modulus (GPa) = 34.69725 47.91716 41.30720
# Shear Modulus (GPa) = 3.93371 25.65513 14.79442
#
# Velocity S-wave (km/s) = 1.38160 3.52832 2.67936
# Velocity P-wave (km/s) = 4.40248 6.31272 5.44207
#
# Compressibility (1/GPa) = 0.02882073
#
# Stress axis : x y z
#
# Youngs Moduli (GPa) = 118.75211 93.13211 39.83630
#
# Poissons Ratio (x) = 0.27634 0.05017
# Poissons Ratio (y) = 0.35236 0.13918
# Poissons Ratio (z) = 0.14954 0.32538
#
# Static dielectric constant tensor:
#      x y z
#    x 1.734100 0.000000 0.000000 
#    y 0.000000 1.713580 0.000000 
#    z 0.000000 0.000000 1.774950 
# 
# From -- ./inp_files/32357.got.cif
#   From: 2010.05.17/outbox.cif.g08.bks.cpg/sg63_17_cif.got.tgz:32357.got - 2010.06.03 15:47:04.
