data_PCOD9474573
_publ_section_title
;
Structure prediction by ZEFSAII (Michael W. Deem and Ramdas Pophale) SiO2 
 PCOD9474573
Probable space group: C M C M
;
_chemical_formula_sum "Si O2"
_cell_formula_units_Z 84
_cell_length_a 12.695737
_cell_length_b 26.372639
_cell_length_c 14.233995
_cell_angle_alpha 90.000000
_cell_angle_beta 90.000000
_cell_angle_gamma 90.000000
_cell_volume 4765.827469
_symmetry_space_group_name_H-M "C M C M"
_symmetry_group_IT_number 63
_symmetry_cell_setting 'orthorhombic'
loop_
_space_group_symop_operation_xyz
x,y,z
-x,-y,1/2+z
x,-y,-z
-x,y,1/2-z
-x,-y,-z
x,y,1/2-z
-x,y,z
x,-y,1/2+z
1/2+x,1/2+y,z
1/2-x,1/2-y,1/2+z
1/2+x,1/2-y,-z
1/2-x,1/2+y,1/2-z
1/2-x,1/2-y,-z
1/2+x,1/2+y,1/2-z
1/2-x,1/2+y,z
1/2+x,1/2-y,1/2+z
loop_
_atom_site_type_symbol
_atom_site_label
_atom_site_fract_x
_atom_site_fract_y
_atom_site_fract_z
Si Si1 0.879732 0.450638 0.642575
Si Si2 0.688213 0.525256 0.598287
Si Si3 0.873434 0.702245 0.856683
Si Si4 0.500000 0.520950 0.750000
Si Si5 0.374179 0.678752 0.142009
Si Si6 0.773196 0.622459 0.996806
O O1 0.871367 0.430964 0.750000
O O2 0.792551 0.494461 0.630738
O O3 0.853042 0.408578 0.564188
O O4 0.000000 0.468911 0.629568
O O5 0.656294 0.500000 0.500000
O O6 0.593224 0.521184 0.669503
O O7 0.721533 0.582464 0.574579
O O8 0.840014 0.688275 0.750000
O O9 0.847741 0.761711 0.870507
O O10 0.000000 0.698223 0.859752
O O11 0.825064 0.666750 0.935802
O O12 0.348077 0.664651 0.250000
O O13 0.500000 0.673308 0.131599
O O14 0.313142 0.645387 0.067278
#
# Coordination Sequence:
#
# PCOD9474573 Si02
#       6
#    16  16  16   4  16  16
#     4  10  21  40  60  84 114 147 187 234 284 335
#     4  10  24  39  59  85 110 154 190 232 283 333
#     4   9  19  35  56  80 111 148 185 225 274 330
#     4  12  22  44  58  74 124 148 194 230 280 334
#     4   9  19  37  56  79 111 147 185 228 273 330
#     4  11  21  34  57  87 111 142 186 231 288 326
#
# _framework density 17.625481000000001
#
# number of rings (size 3 to 8) (size 9 to 14) (size 15 to 20)
#    0.000    2.095    0.952    3.143    2.667    4.190 
#    1.714    1.905    0.000    0.000    0.000    5.333 
#    0.000    0.000    0.000    0.000    0.000    0.000 
#
# Total GULP energy -233809.994949 kJ/mol
# GULP energy per Si atom -5566.904642 kJ/mol
# Density = 1.758536 g / cm^3
# Si number density = 17.625481 Si / 1000 Ang^3
#
#
#
# Elastic Constant Matrix: (Units=GPa)
#
#
# Indices 1 2 3 4 5 6 
#
# 1 118.0629 38.8292 66.3007 0.0000 0.0000 0.0000
# 2 38.8292 38.1098 21.8520 0.0000 0.0000 0.0000
# 3 66.3007 21.8520 96.4923 0.0000 0.0000 0.0000
# 4 0.0000 0.0000 0.0000 -21.0884 0.0000 0.0000
# 5 0.0000 0.0000 0.0000 0.0000 71.4171 0.0000
# 6 0.0000 0.0000 0.0000 0.0000 0.0000 7.9993
#
#
#
# Elastic Compliance Matrix: (Units=1/GPa)
#
#
# Indices 1 2 3 4 5 6 
#
# 1 0.018049 -0.012962 -0.009466 0.000000 0.000000 0.000000
# 2 -0.012962 0.039464 -0.000031 0.000000 0.000000 0.000000
# 3 -0.009466 -0.000031 0.016875 0.000000 0.000000 0.000000
# 4 0.000000 0.000000 0.000000 -0.047419 0.000000 0.000000
# 5 0.000000 0.000000 0.000000 0.000000 0.014002 0.000000
# 6 0.000000 0.000000 0.000000 0.000000 0.000000 0.125012
#
#
# Mechanical properties :
#
#
# Convention : Reuss Voigt Hill
#
# Bulk Modulus (GPa) = 33.93283 56.29209 45.11246
# Shear Modulus (GPa) = 22.65271 20.04446 21.34859
#
# Velocity S-wave (km/s) = 3.58889 3.37596 3.48405
# Velocity P-wave (km/s) = 6.03883 6.87047 6.46803
#
# Compressibility (1/GPa) = 0.02946999
#
# Stress axis : x y z
#
# Youngs Moduli (GPa) = 55.40472 25.33935 59.25965
#
# Poissons Ratio (x) = 0.32844 0.56097
# Poissons Ratio (y) = 0.71815 0.00184
# Poissons Ratio (z) = 0.52448 0.00079
#
# Static dielectric constant tensor:
#      x y z
#    x 1.576390 0.000000 0.000000 
#    y 0.000000 1.610310 0.000000 
#    z 0.000000 0.000000 1.600140 
# 
# From -- ./inp_files/29860.got.cif
#   From: 2010.05.17/outbox.cif.g08.bks.cpg/sg63_15_cif.got.tgz:29860.got - 2010.06.03 15:47:04.
