data_PCOD9474818
_publ_section_title
;
Structure prediction by ZEFSAII (Michael W. Deem and Ramdas Pophale) SiO2 
 PCOD9474818
Probable space group: C M C M
;
_chemical_formula_sum "Si O2"
_cell_formula_units_Z 112
_cell_length_a 13.731531
_cell_length_b 16.645799
_cell_length_c 24.554638
_cell_angle_alpha 90.000000
_cell_angle_beta 90.000000
_cell_angle_gamma 90.000000
_cell_volume 5612.510206
_symmetry_space_group_name_H-M "C M C M"
_symmetry_group_IT_number 63
_symmetry_cell_setting 'orthorhombic'
loop_
_space_group_symop_operation_xyz
x,y,z
-x,-y,1/2+z
x,-y,-z
-x,y,1/2-z
-x,-y,-z
x,y,1/2-z
-x,y,z
x,-y,1/2+z
1/2+x,1/2+y,z
1/2-x,1/2-y,1/2+z
1/2+x,1/2-y,-z
1/2-x,1/2+y,1/2-z
1/2-x,1/2-y,-z
1/2+x,1/2+y,1/2-z
1/2-x,1/2+y,z
1/2+x,1/2-y,1/2+z
loop_
_atom_site_type_symbol
_atom_site_label
_atom_site_fract_x
_atom_site_fract_y
_atom_site_fract_z
Si Si1 0.382651 0.783100 0.812729
Si Si2 0.117256 0.015685 0.911343
Si Si3 0.618534 0.097293 0.091583
Si Si4 0.384078 0.914504 0.119916
Si Si5 0.881430 0.874711 0.514223
Si Si6 0.292732 0.607583 0.812737
Si Si7 0.618481 0.190562 0.516230
O O1 0.360840 0.806329 0.750000
O O2 0.500000 0.774236 0.817054
O O3 0.350654 0.848808 0.856886
O O4 0.335207 0.696506 0.823546
O O5 0.158425 0.045755 0.854520
O O6 0.000000 0.016893 0.908219
O O7 0.147275 0.928119 0.933580
O O8 0.146053 0.077900 0.959342
O O9 0.500000 0.099978 0.090936
O O10 0.642108 0.003857 0.098846
O O11 0.651063 0.137263 0.035064
O O12 0.500000 0.911622 0.128930
O O13 0.321247 0.895093 0.172830
O O14 0.356534 0.851771 0.072790
O O15 0.849807 0.782818 0.513455
O O16 0.000000 0.874375 0.514472
O O17 0.311716 0.588235 0.750000
O O18 0.500000 0.191038 0.514028
#
# Coordination Sequence:
#
# PCOD9474818 Si02
#       7
#    16  16  16  16  16  16  16
#     4   9  18  34  58  86 112 138 175 229 288 338
#     4   9  17  33  56  85 121 152 180 222 280 342
#     4   9  17  33  59  85 109 142 183 232 285 333
#     4  10  22  39  56  77 111 152 192 235 279 329
#     4   8  15  30  56  87 118 150 180 219 275 344
#     4  11  23  38  55  81 111 145 192 237 280 331
#     4   9  16  31  56  82 109 142 183 230 281 333
#
# _framework density 19.95542
#
# number of rings (size 3 to 8) (size 9 to 14) (size 15 to 20)
#    0.000    2.714    0.000    2.571    0.000    5.714 
#    7.714    2.857    0.000    0.000    0.000    4.000 
#    0.000    0.000    0.000    0.000    0.000    0.000 
#
# Total GULP energy -312898.881936 kJ/mol
# GULP energy per Si atom -5587.480035 kJ/mol
# Density = 1.991000 g / cm^3
# Si number density = 19.955420 Si / 1000 Ang^3
#
#
#
# Elastic Constant Matrix: (Units=GPa)
#
#
# Indices 1 2 3 4 5 6 
#
# 1 55.9740 15.1977 9.8735 0.0000 0.0000 0.0000
# 2 15.1977 116.9660 55.2156 0.0000 0.0000 0.0000
# 3 9.8735 55.2156 99.3817 0.0000 0.0000 0.0000
# 4 0.0000 0.0000 0.0000 29.2745 0.0000 0.0000
# 5 0.0000 0.0000 0.0000 0.0000 27.9234 0.0000
# 6 0.0000 0.0000 0.0000 0.0000 0.0000 7.3499
#
#
#
# Elastic Compliance Matrix: (Units=1/GPa)
#
#
# Indices 1 2 3 4 5 6 
#
# 1 0.018553 -0.002088 -0.000683 0.000000 0.000000 0.000000
# 2 -0.002088 0.011824 -0.006362 0.000000 0.000000 0.000000
# 3 -0.000683 -0.006362 0.013665 0.000000 0.000000 0.000000
# 4 0.000000 0.000000 0.000000 0.034159 0.000000 0.000000
# 5 0.000000 0.000000 0.000000 0.000000 0.035812 0.000000
# 6 0.000000 0.000000 0.000000 0.000000 0.000000 0.136056
#
#
# Mechanical properties :
#
#
# Convention : Reuss Voigt Hill
#
# Bulk Modulus (GPa) = 38.79667 48.09948 43.44808
# Shear Modulus (GPa) = 18.05528 25.71189 21.88358
#
# Velocity S-wave (km/s) = 3.01122 3.59342 3.31512
# Velocity P-wave (km/s) = 5.61906 6.43216 6.03931
#
# Compressibility (1/GPa) = 0.02577541
#
# Stress axis : x y z
#
# Youngs Moduli (GPa) = 53.90000 84.57350 73.18135
#
# Poissons Ratio (x) = 0.17660 0.04999
# Poissons Ratio (y) = 0.11255 0.46557
# Poissons Ratio (z) = 0.03682 0.53805
#
# Static dielectric constant tensor:
#      x y z
#    x 1.763280 0.000000 0.000000 
#    y 0.000000 1.675140 0.000000 
#    z 0.000000 0.000000 1.659670 
# 
# From -- ./inp_files/62977.got.cif
#   From: 2010.05.17/outbox.cif.g08.bks.cpg/sg63_32_cif.got.tgz:62977.got - 2010.06.03 15:47:04.
