data_PCOD9474462
_publ_section_title
;
Structure prediction by ZEFSAII (Michael W. Deem and Ramdas Pophale) SiO2 
 PCOD9474462
Probable space group: C M C M
;
_chemical_formula_sum "Si O2"
_cell_formula_units_Z 84
_cell_length_a 22.878809
_cell_length_b 8.599287
_cell_length_c 21.805120
_cell_angle_alpha 90.000000
_cell_angle_beta 90.000000
_cell_angle_gamma 90.000000
_cell_volume 4289.970813
_symmetry_space_group_name_H-M "C M C M"
_symmetry_group_IT_number 63
_symmetry_cell_setting 'orthorhombic'
loop_
_space_group_symop_operation_xyz
x,y,z
-x,-y,1/2+z
x,-y,-z
-x,y,1/2-z
-x,-y,-z
x,y,1/2-z
-x,y,z
x,-y,1/2+z
1/2+x,1/2+y,z
1/2-x,1/2-y,1/2+z
1/2+x,1/2-y,-z
1/2-x,1/2+y,1/2-z
1/2-x,1/2-y,-z
1/2+x,1/2+y,1/2-z
1/2-x,1/2+y,z
1/2+x,1/2-y,1/2+z
loop_
_atom_site_type_symbol
_atom_site_label
_atom_site_fract_x
_atom_site_fract_y
_atom_site_fract_z
Si Si1 0.568133 0.810696 0.889974
Si Si2 0.329448 0.640842 0.824373
Si Si3 0.000000 0.262824 0.250000
Si Si4 0.713396 0.696371 0.177410
Si Si5 0.403664 0.836153 0.145190
Si Si6 0.070060 0.828004 0.518929
O O1 0.500000 0.770876 0.880634
O O2 0.609880 0.697840 0.851835
O O3 0.578552 0.986694 0.868724
O O4 0.581613 0.785935 0.961734
O O5 0.333181 0.643886 0.750000
O O6 0.311628 0.467891 0.844676
O O7 0.276510 0.751869 0.846150
O O8 0.051691 0.270830 0.303890
O O9 0.721341 0.678024 0.250000
O O10 0.663200 0.823962 0.167278
O O11 0.407142 0.738614 0.082487
O O12 0.000000 0.838063 0.526027
O O13 0.091362 0.000000 0.500000
#
# Coordination Sequence:
#
# PCOD9474462 Si02
#       6
#    16  16   4  16  16  16
#     4  11  23  38  61  91 125 161 208 251 309 367
#     4  10  22  39  60  87 123 163 211 256 311 368
#     4  12  24  36  60  98 134 160 206 254 310 364
#     4  10  21  39  60  87 121 167 207 256 310 373
#     4  12  22  39  62  93 128 163 209 253 309 369
#     4  10  21  39  61  86 122 168 209 254 307 367
#
# _framework density 19.580552999999998
#
# number of rings (size 3 to 8) (size 9 to 14) (size 15 to 20)
#    0.000    1.333    2.857    2.857    1.333    3.429 
#    1.714    0.952    0.000    1.143    0.000    0.000 
#    0.000    0.000    0.000    0.000    0.000    0.000 
#
# Total GULP energy -234053.661151 kJ/mol
# GULP energy per Si atom -5572.706218 kJ/mol
# Density = 1.953599 g / cm^3
# Si number density = 19.580553 Si / 1000 Ang^3
#
#
#
# Elastic Constant Matrix: (Units=GPa)
#
#
# Indices 1 2 3 4 5 6 
#
# 1 100.1212 44.7150 41.1706 0.0000 0.0000 0.0000
# 2 44.7150 61.2166 29.9543 0.0000 0.0000 0.0000
# 3 41.1706 29.9543 68.9316 0.0000 0.0000 0.0000
# 4 0.0000 0.0000 0.0000 22.6813 0.0000 0.0000
# 5 0.0000 0.0000 0.0000 0.0000 19.0981 0.0000
# 6 0.0000 0.0000 0.0000 0.0000 0.0000 19.3918
#
#
#
# Elastic Compliance Matrix: (Units=1/GPa)
#
#
# Indices 1 2 3 4 5 6 
#
# 1 0.016501 -0.009183 -0.005865 0.000000 0.000000 0.000000
# 2 -0.009183 0.025857 -0.005752 0.000000 0.000000 0.000000
# 3 -0.005865 -0.005752 0.020509 0.000000 0.000000 0.000000
# 4 0.000000 0.000000 0.000000 0.044089 0.000000 0.000000
# 5 0.000000 0.000000 0.000000 0.000000 0.052361 0.000000
# 6 0.000000 0.000000 0.000000 0.000000 0.000000 0.051568
#
#
# Mechanical properties :
#
#
# Convention : Reuss Voigt Hill
#
# Bulk Modulus (GPa) = 47.01782 51.32767 49.17275
# Shear Modulus (GPa) = 19.26226 19.86288 19.56257
#
# Velocity S-wave (km/s) = 3.13987 3.18845 3.16425
# Velocity P-wave (km/s) = 6.09998 6.31074 6.20625
#
# Compressibility (1/GPa) = 0.02126853
#
# Stress axis : x y z
#
# Youngs Moduli (GPa) = 60.60309 38.67353 48.75813
#
# Poissons Ratio (x) = 0.35514 0.28596
# Poissons Ratio (y) = 0.55652 0.28044
# Poissons Ratio (z) = 0.35543 0.22244
#
# Static dielectric constant tensor:
#      x y z
#    x 1.675210 0.000000 0.000000 
#    y 0.000000 1.722530 0.000000 
#    z 0.000000 0.000000 1.665500 
# 
# From -- ./inp_files/57264.got.cif
#   From: 2010.05.17/outbox.cif.g08.bks.cpg/sg63_29_cif.got.tgz:57264.got - 2010.06.03 15:47:04.
