data_PCOD9474598
_publ_section_title
;
Structure prediction by ZEFSAII (Michael W. Deem and Ramdas Pophale) SiO2 
 PCOD9474598
Probable space group: C M C M
;
_chemical_formula_sum "Si O2"
_cell_formula_units_Z 112
_cell_length_a 15.255955
_cell_length_b 12.770941
_cell_length_c 28.387911
_cell_angle_alpha 90.000000
_cell_angle_beta 90.000000
_cell_angle_gamma 90.000000
_cell_volume 5530.899059
_symmetry_space_group_name_H-M "C M C M"
_symmetry_group_IT_number 63
_symmetry_cell_setting 'orthorhombic'
loop_
_space_group_symop_operation_xyz
x,y,z
-x,-y,1/2+z
x,-y,-z
-x,y,1/2-z
-x,-y,-z
x,y,1/2-z
-x,y,z
x,-y,1/2+z
1/2+x,1/2+y,z
1/2-x,1/2-y,1/2+z
1/2+x,1/2-y,-z
1/2-x,1/2+y,1/2-z
1/2-x,1/2-y,-z
1/2+x,1/2+y,1/2-z
1/2-x,1/2+y,z
1/2+x,1/2-y,1/2+z
loop_
_atom_site_type_symbol
_atom_site_label
_atom_site_fract_x
_atom_site_fract_y
_atom_site_fract_z
Si Si1 0.671819 0.600363 0.923992
Si Si2 0.597509 0.928146 0.147611
Si Si3 0.599644 0.400969 0.885418
Si Si4 0.401311 0.290237 0.513653
Si Si5 0.598958 0.151259 0.195126
Si Si6 0.350524 0.927282 0.040616
Si Si7 0.260475 0.240385 0.651979
O O1 0.619827 0.523932 0.889311
O O2 0.617237 0.642404 0.967688
O O3 0.753732 0.534881 0.944769
O O4 0.714216 0.696592 0.895412
O O5 0.500000 0.895508 0.163155
O O6 0.600648 0.921025 0.090585
O O7 0.674417 0.853808 0.166638
O O8 0.610997 0.047224 0.163731
O O9 0.500000 0.381558 0.868489
O O10 0.674474 0.337570 0.857860
O O11 0.603985 0.358195 0.939077
O O12 0.500000 0.247253 0.510949
O O13 0.341324 0.188660 0.519309
O O14 0.600591 0.121358 0.250000
O O15 0.500000 0.192815 0.185004
O O16 0.679683 0.227690 0.184669
O O17 0.388556 0.000000 0.000000
#
# Coordination Sequence:
#
# PCOD9474598 Si02
#       7
#    16  16  16  16  16  16  16
#     4  11  23  34  55  81 117 164 214 253 298 353
#     4  10  21  40  64  92 125 164 206 249 304 367
#     4  11  22  39  58  84 123 165 208 250 296 350
#     4  11  22  35  51  78 119 167 212 254 298 347
#     4  10  24  45  68  94 122 152 194 250 311 378
#     4  11  22  34  56  86 125 167 214 261 303 348
#     4  11  22  39  65  90 120 156 199 252 310 361
#
# _framework density 20.249872
#
# number of rings (size 3 to 8) (size 9 to 14) (size 15 to 20)
#    0.000    1.286    2.857    4.714    4.000    4.000 
#    0.000    0.000    0.000    1.286    0.000    0.000 
#    0.000    0.000    0.000    0.000    0.000    0.000 
#
# Total GULP energy -312631.456424 kJ/mol
# GULP energy per Si atom -5582.704579 kJ/mol
# Density = 2.020378 g / cm^3
# Si number density = 20.249872 Si / 1000 Ang^3
#
#
#
# Elastic Constant Matrix: (Units=GPa)
#
#
# Indices 1 2 3 4 5 6 
#
# 1 114.2198 34.3053 13.9253 0.0000 0.0000 0.0000
# 2 34.3053 55.4718 12.8279 0.0000 0.0000 0.0000
# 3 13.9253 12.8279 24.6940 0.0000 0.0000 0.0000
# 4 0.0000 0.0000 0.0000 9.3996 0.0000 0.0000
# 5 0.0000 0.0000 0.0000 0.0000 18.1847 0.0000
# 6 0.0000 0.0000 0.0000 0.0000 0.0000 28.9361
#
#
#
# Elastic Compliance Matrix: (Units=1/GPa)
#
#
# Indices 1 2 3 4 5 6 
#
# 1 0.010947 -0.006072 -0.003019 0.000000 0.000000 0.000000
# 2 -0.006072 0.023856 -0.008969 0.000000 0.000000 0.000000
# 3 -0.003019 -0.008969 0.046857 0.000000 0.000000 0.000000
# 4 0.000000 0.000000 0.000000 0.106388 0.000000 0.000000
# 5 0.000000 0.000000 0.000000 0.000000 0.054991 0.000000
# 6 0.000000 0.000000 0.000000 0.000000 0.000000 0.034559
#
#
# Mechanical properties :
#
#
# Convention : Reuss Voigt Hill
#
# Bulk Modulus (GPa) = 21.95809 35.16695 28.56252
# Shear Modulus (GPa) = 15.20232 20.19253 17.69743
#
# Velocity S-wave (km/s) = 2.74293 3.16122 2.95948
# Velocity P-wave (km/s) = 4.57151 5.54334 5.08071
#
# Compressibility (1/GPa) = 0.04554131
#
# Stress axis : x y z
#
# Youngs Moduli (GPa) = 91.35185 41.91803 21.34141
#
# Poissons Ratio (x) = 0.25451 0.06443
# Poissons Ratio (y) = 0.55465 0.19141
# Poissons Ratio (z) = 0.27579 0.37595
#
# Static dielectric constant tensor:
#      x y z
#    x 1.772550 0.000000 0.000000 
#    y 0.000000 1.730320 0.000000 
#    z 0.000000 0.000000 1.702510 
# 
# From -- ./inp_files/69398.got.cif
#   From: 2010.05.17/outbox.cif.g08.bks.cpg/sg63_35_cif.got.tgz:69398.got - 2010.06.03 15:47:04.
