data_PCOD9474826
_publ_section_title
;
Structure prediction by ZEFSAII (Michael W. Deem and Ramdas Pophale) SiO2 
 PCOD9474826
Probable space group: C M C M
;
_chemical_formula_sum "Si O2"
_cell_formula_units_Z 80
_cell_length_a 17.252920
_cell_length_b 10.152290
_cell_length_c 22.758783
_cell_angle_alpha 90.000000
_cell_angle_beta 90.000000
_cell_angle_gamma 90.000000
_cell_volume 3986.352124
_symmetry_space_group_name_H-M "C M C M"
_symmetry_group_IT_number 63
_symmetry_cell_setting 'orthorhombic'
loop_
_space_group_symop_operation_xyz
x,y,z
-x,-y,1/2+z
x,-y,-z
-x,y,1/2-z
-x,-y,-z
x,y,1/2-z
-x,y,z
x,-y,1/2+z
1/2+x,1/2+y,z
1/2-x,1/2-y,1/2+z
1/2+x,1/2-y,-z
1/2-x,1/2+y,1/2-z
1/2-x,1/2-y,-z
1/2+x,1/2+y,1/2-z
1/2-x,1/2+y,z
1/2+x,1/2-y,1/2+z
loop_
_atom_site_type_symbol
_atom_site_label
_atom_site_fract_x
_atom_site_fract_y
_atom_site_fract_z
Si Si1 0.909474 0.644244 0.872751
Si Si2 0.700930 0.646666 0.319252
Si Si3 0.131030 0.344670 0.875158
Si Si4 0.322510 0.847815 0.003420
Si Si5 0.083991 0.924738 0.320578
O O1 0.857117 0.731724 0.829590
O O2 0.900368 0.488868 0.859425
O O3 0.000000 0.679052 0.870874
O O4 0.872100 0.667200 0.937318
O O5 0.719667 0.635963 0.250000
O O6 0.778979 0.660940 0.355984
O O7 0.654452 0.516991 0.339994
O O8 0.126262 0.327351 0.945216
O O9 0.091496 0.222630 0.843550
O O10 0.250000 0.750000 0.000000
O O11 0.295111 0.000000 0.000000
O O12 0.087019 0.923640 0.250000
O O13 0.000000 0.979866 0.338362
#
# Coordination Sequence:
#
# PCOD9474826 Si02
#       5
#    16  16  16  16  16
#     4  11  24  41  63  94 126 160 204 256 312 366
#     4  11  23  40  62  89 122 163 207 252 301 361
#     4  11  22  38  65  88 120 160 203 251 300 366
#     4  10  22  39  63  89 122 157 199 250 305 363
#     4  10  22  39  58  85 121 157 197 248 302 354
#
# _framework density 20.068473000000001
#
# number of rings (size 3 to 8) (size 9 to 14) (size 15 to 20)
#    0.000    1.400    2.000    3.000    2.800    8.800 
#    0.000    0.000    0.000    3.000    0.000    0.000 
#    0.000    0.000    0.000    0.000    0.000    0.000 
#
# Total GULP energy -223562.024656 kJ/mol
# GULP energy per Si atom -5589.050616 kJ/mol
# Density = 2.002280 g / cm^3
# Si number density = 20.068473 Si / 1000 Ang^3
#
#
#
# Elastic Constant Matrix: (Units=GPa)
#
#
# Indices 1 2 3 4 5 6 
#
# 1 80.3982 10.8609 10.0405 0.0000 0.0000 0.0000
# 2 10.8609 53.7522 -2.0943 0.0000 0.0000 0.0000
# 3 10.0405 -2.0943 31.4976 0.0000 0.0000 0.0000
# 4 0.0000 0.0000 0.0000 31.4884 0.0000 0.0000
# 5 0.0000 0.0000 0.0000 0.0000 -2.2687 0.0000
# 6 0.0000 0.0000 0.0000 0.0000 0.0000 31.5967
#
#
#
# Elastic Compliance Matrix: (Units=1/GPa)
#
#
# Indices 1 2 3 4 5 6 
#
# 1 0.013384 -0.002878 -0.004458 0.000000 0.000000 0.000000
# 2 -0.002878 0.019271 0.002199 0.000000 0.000000 0.000000
# 3 -0.004458 0.002199 0.033316 0.000000 0.000000 0.000000
# 4 0.000000 0.000000 0.000000 0.031758 0.000000 0.000000
# 5 0.000000 0.000000 0.000000 0.000000 -0.440779 0.000000
# 6 0.000000 0.000000 0.000000 0.000000 0.000000 0.031649
#
#
# Mechanical properties :
#
#
# Convention : Reuss Voigt Hill
#
# Bulk Modulus (GPa) = 17.95438 22.58469 20.26954
# Shear Modulus (GPa) = -17.69515 21.95267 2.12876
#
# Velocity S-wave (km/s) = -2.97263 3.31099 1.03104
# Velocity P-wave (km/s) = 1.67811 5.08872 3.39699
#
# Compressibility (1/GPa) = 0.05569670
#
# Stress axis : x y z
#
# Youngs Moduli (GPa) = 74.71856 51.89133 30.01590
#
# Poissons Ratio (x) = 0.14934 0.13380
# Poissons Ratio (y) = 0.21503 -0.06600
# Poissons Ratio (z) = 0.33307 -0.11410
#
# Static dielectric constant tensor:
#      x y z
#    x 1.676680 0.000000 0.000000 
#    y 0.000000 1.703110 0.000000 
#    z 0.000000 0.000000 1.701410 
# 
# From -- ./inp_files/62572.got.cif
#   From: 2010.05.17/outbox.cif.g08.bks.cpg/sg63_32_cif.got.tgz:62572.got - 2010.06.03 15:47:04.
