data_PCOD9474761
_publ_section_title
;
Structure prediction by ZEFSAII (Michael W. Deem and Ramdas Pophale) SiO2 
 PCOD9474761
Probable space group: C M C M
;
_chemical_formula_sum "Si O2"
_cell_formula_units_Z 112
_cell_length_a 15.949948
_cell_length_b 23.430190
_cell_length_c 15.187629
_cell_angle_alpha 90.000000
_cell_angle_beta 90.000000
_cell_angle_gamma 90.000000
_cell_volume 5675.773574
_symmetry_space_group_name_H-M "C M C M"
_symmetry_group_IT_number 63
_symmetry_cell_setting 'orthorhombic'
loop_
_space_group_symop_operation_xyz
x,y,z
-x,-y,1/2+z
x,-y,-z
-x,y,1/2-z
-x,-y,-z
x,y,1/2-z
-x,y,z
x,-y,1/2+z
1/2+x,1/2+y,z
1/2-x,1/2-y,1/2+z
1/2+x,1/2-y,-z
1/2-x,1/2+y,1/2-z
1/2-x,1/2-y,-z
1/2+x,1/2+y,1/2-z
1/2-x,1/2+y,z
1/2+x,1/2-y,1/2+z
loop_
_atom_site_type_symbol
_atom_site_label
_atom_site_fract_x
_atom_site_fract_y
_atom_site_fract_z
Si Si1 0.408127 0.019486 0.647922
Si Si2 0.720207 0.643208 0.353298
Si Si3 0.221508 0.010994 0.399723
Si Si4 0.329808 0.789411 0.521207
Si Si5 0.595258 0.323238 0.002100
Si Si6 0.599386 0.587578 0.847765
Si Si7 0.096665 0.656858 0.847686
O O1 0.405705 0.000752 0.750000
O O2 0.500000 0.001768 0.611545
O O3 0.405782 0.088254 0.648239
O O4 0.321243 0.000116 0.606413
O O5 0.718413 0.656831 0.250000
O O6 0.710244 0.575464 0.367408
O O7 0.803906 0.667324 0.401625
O O8 0.646379 0.670979 0.411620
O O9 0.195931 0.000000 0.500000
O O10 0.162436 0.965959 0.349650
O O11 0.250000 0.750000 0.500000
O O12 0.398125 0.740844 0.539944
O O13 0.353426 0.821275 0.431404
O O14 0.500000 0.337622 0.983326
O O15 0.625674 0.368197 0.075929
O O16 0.605077 0.613837 0.750000
O O17 0.500000 0.572195 0.860841
O O18 0.129198 0.673052 0.750000
O O19 0.000000 0.676998 0.853753
#
# Coordination Sequence:
#
# PCOD9474761 Si02
#       7
#    16  16  16  16  16  16  16
#     4   9  19  35  56  86 119 153 202 256 304 365
#     4  11  24  41  59  90 130 170 213 256 316 387
#     4  12  22  38  64  89 128 172 209 259 322 379
#     4  10  22  38  56  84 121 158 199 250 311 379
#     4  10  22  42  65  90 121 162 214 268 315 369
#     4  10  22  40  63  93 124 160 212 266 318 380
#     4   9  18  35  61  89 115 148 200 263 317 368
#
# _framework density 19.732993
#
# number of rings (size 3 to 8) (size 9 to 14) (size 15 to 20)
#    0.000    1.857    1.429    3.429    2.000    4.286 
#    0.000    1.429    0.000    3.000    0.000    0.000 
#    0.000    0.000    0.000    0.000    0.000    0.000 
#
# Total GULP energy -312169.653810 kJ/mol
# GULP energy per Si atom -5574.458104 kJ/mol
# Density = 1.968808 g / cm^3
# Si number density = 19.732993 Si / 1000 Ang^3
#
#
#
# Elastic Constant Matrix: (Units=GPa)
#
#
# Indices 1 2 3 4 5 6 
#
# 1 53.7658 5.2973 31.9901 0.0000 0.0000 0.0000
# 2 5.2973 57.3892 35.1485 0.0000 0.0000 0.0000
# 3 31.9901 35.1485 152.1651 0.0000 0.0000 0.0000
# 4 0.0000 0.0000 0.0000 8.7198 0.0000 0.0000
# 5 0.0000 0.0000 0.0000 0.0000 29.9852 0.0000
# 6 0.0000 0.0000 0.0000 0.0000 0.0000 12.8597
#
#
#
# Elastic Compliance Matrix: (Units=1/GPa)
#
#
# Indices 1 2 3 4 5 6 
#
# 1 0.021299 0.000904 -0.004687 0.000000 0.000000 0.000000
# 2 0.000904 0.020335 -0.004887 0.000000 0.000000 0.000000
# 3 -0.004687 -0.004887 0.008686 0.000000 0.000000 0.000000
# 4 0.000000 0.000000 0.000000 0.114682 0.000000 0.000000
# 5 0.000000 0.000000 0.000000 0.000000 0.033350 0.000000
# 6 0.000000 0.000000 0.000000 0.000000 0.000000 0.077762
#
#
# Mechanical properties :
#
#
# Convention : Reuss Voigt Hill
#
# Bulk Modulus (GPa) = 30.32112 45.35465 37.83789
# Shear Modulus (GPa) = 16.42332 23.03854 19.73093
#
# Velocity S-wave (km/s) = 2.88805 3.42060 3.16554
# Velocity P-wave (km/s) = 5.14977 6.21568 5.70767
#
# Compressibility (1/GPa) = 0.03298031
#
# Stress axis : x y z
#
# Youngs Moduli (GPa) = 46.95160 49.17724 115.12822
#
# Poissons Ratio (x) = -0.04447 0.53955
# Poissons Ratio (y) = -0.04246 0.56266
# Poissons Ratio (z) = 0.22004 0.24034
#
# Static dielectric constant tensor:
#      x y z
#    x 1.569700 0.000000 0.000000 
#    y 0.000000 1.709960 0.000000 
#    z 0.000000 0.000000 1.817910 
# 
# From -- ./inp_files/32286.got.cif
#   From: 2010.05.17/outbox.cif.g08.bks.cpg/sg63_17_cif.got.tgz:32286.got - 2010.06.03 15:47:04.
