data_PCOD9474816
_publ_section_title
;
Structure prediction by ZEFSAII (Michael W. Deem and Ramdas Pophale) SiO2 
 PCOD9474816
Probable space group: C M C M
;
_chemical_formula_sum "Si O2"
_cell_formula_units_Z 96
_cell_length_a 14.262696
_cell_length_b 9.449193
_cell_length_c 27.640008
_cell_angle_alpha 90.000000
_cell_angle_beta 90.000000
_cell_angle_gamma 90.000000
_cell_volume 3725.070612
_symmetry_space_group_name_H-M "C M C M"
_symmetry_group_IT_number 63
_symmetry_cell_setting 'orthorhombic'
loop_
_space_group_symop_operation_xyz
x,y,z
-x,-y,1/2+z
x,-y,-z
-x,y,1/2-z
-x,-y,-z
x,y,1/2-z
-x,y,z
x,-y,1/2+z
1/2+x,1/2+y,z
1/2-x,1/2-y,1/2+z
1/2+x,1/2-y,-z
1/2-x,1/2+y,1/2-z
1/2-x,1/2-y,-z
1/2+x,1/2+y,1/2-z
1/2-x,1/2+y,z
1/2+x,1/2-y,1/2+z
loop_
_atom_site_type_symbol
_atom_site_label
_atom_site_fract_x
_atom_site_fract_y
_atom_site_fract_z
Si Si1 0.385357 0.450896 0.250000
Si Si2 0.108363 0.715068 0.750000
Si Si3 0.109496 0.328563 0.354606
Si Si4 0.890578 0.410773 0.921317
Si Si5 0.891798 0.236072 0.495176
Si Si6 0.187399 0.809920 0.348415
Si Si7 0.109459 0.991086 0.576512
O O1 0.500000 0.446144 0.250000
O O2 0.352733 0.619700 0.250000
O O3 0.346391 0.363723 0.203709
O O4 0.119552 0.621149 0.701663
O O5 0.000000 0.752164 0.750000
O O6 0.123864 0.436556 0.398555
O O7 0.208031 0.246550 0.352263
O O8 0.000000 0.279156 0.357587
O O9 0.846403 0.361057 0.972772
O O10 0.000000 0.402006 0.932301
O O11 0.873956 0.304677 0.876815
O O12 0.858786 0.157078 0.446832
O O13 0.000000 0.270621 0.483084
O O14 0.890752 0.109965 0.534758
O O15 0.173418 0.948951 0.381628
O O16 0.000000 0.982376 0.591939
#
# Coordination Sequence:
#
# PCOD9474816 Si02
#       7
#     8   8  16  16  16  16  16
#     4  11  23  37  56  86 117 139 172 228 283 324
#     4   9  21  41  57  70 101 149 187 210 260 336
#     4  10  22  39  56  76 107 149 188 224 263 320
#     4   9  18  34  57  86 113 136 180 236 280 316
#     4   7  11  23  47  77 110 142 169 214 274 329
#     4  11  21  33  56  84 113 141 181 227 279 318
#     4   8  13  25  47  79 114 141 170 214 277 336
#
# _framework density 25.771324
#
# number of rings (size 3 to 8) (size 9 to 14) (size 15 to 20)
#    0.000    2.833    0.000    4.000    2.333    0.667 
#    0.000    2.500    0.000    0.000    0.000    9.333 
#    0.000    0.833    0.000    0.000    0.000    0.000 
#
# Total GULP energy -267267.814078 kJ/mol
# GULP energy per Si atom -5568.079460 kJ/mol
# Density = 2.571267 g / cm^3
# Si number density = 25.771324 Si / 1000 Ang^3
#
#
#
# Elastic Constant Matrix: (Units=GPa)
#
#
# Indices 1 2 3 4 5 6 
#
# 1 125.5712 5.7119 9.4268 0.0000 0.0000 0.0000
# 2 5.7119 105.2325 46.5373 0.0000 0.0000 0.0000
# 3 9.4268 46.5373 109.5602 0.0000 0.0000 0.0000
# 4 0.0000 0.0000 0.0000 22.8526 0.0000 0.0000
# 5 0.0000 0.0000 0.0000 0.0000 1.5425 0.0000
# 6 0.0000 0.0000 0.0000 0.0000 0.0000 -6.1772
#
#
#
# Elastic Compliance Matrix: (Units=1/GPa)
#
#
# Indices 1 2 3 4 5 6 
#
# 1 0.008018 -0.000160 -0.000622 0.000000 0.000000 0.000000
# 2 -0.000160 0.011704 -0.004958 0.000000 0.000000 0.000000
# 3 -0.000622 -0.004958 0.011287 0.000000 0.000000 0.000000
# 4 0.000000 0.000000 0.000000 0.043759 0.000000 0.000000
# 5 0.000000 0.000000 0.000000 0.000000 0.648300 0.000000
# 6 0.000000 0.000000 0.000000 0.000000 0.000000 -0.161886
#
#
# Mechanical properties :
#
#
# Convention : Reuss Voigt Hill
#
# Bulk Modulus (GPa) = 51.20602 51.52398 51.36500
# Shear Modulus (GPa) = 8.63305 22.22279 15.42792
#
# Velocity S-wave (km/s) = 1.83225 2.93969 2.44938
# Velocity P-wave (km/s) = 4.93849 5.61770 5.28901
#
# Compressibility (1/GPa) = 0.01952895
#
# Stress axis : x y z
#
# Youngs Moduli (GPa) = 124.72598 85.44178 88.59971
#
# Poissons Ratio (x) = 0.01369 0.05509
# Poissons Ratio (y) = 0.01998 0.43924
# Poissons Ratio (z) = 0.07755 0.42359
#
# Static dielectric constant tensor:
#      x y z
#    x 2.015720 0.000000 0.000000 
#    y 0.000000 2.140660 0.000000 
#    z 0.000000 0.000000 2.075080 
# 
# From -- ./inp_files/73363.got.cif
#   From: 2010.05.17/outbox.cif.g08.bks.cpg/sg63_37_cif.got.tgz:73363.got - 2010.06.03 15:47:04.
