data_PCOD9474589
_publ_section_title
;
Structure prediction by ZEFSAII (Michael W. Deem and Ramdas Pophale) SiO2 
 PCOD9474589
Probable space group: C M C M
;
_chemical_formula_sum "Si O2"
_cell_formula_units_Z 64
_cell_length_a 24.744399
_cell_length_b 8.604996
_cell_length_c 15.278087
_cell_angle_alpha 90.000000
_cell_angle_beta 90.000000
_cell_angle_gamma 90.000000
_cell_volume 3253.093617
_symmetry_space_group_name_H-M "C M C M"
_symmetry_group_IT_number 63
_symmetry_cell_setting 'orthorhombic'
loop_
_space_group_symop_operation_xyz
x,y,z
-x,-y,1/2+z
x,-y,-z
-x,y,1/2-z
-x,-y,-z
x,y,1/2-z
-x,y,z
x,-y,1/2+z
1/2+x,1/2+y,z
1/2-x,1/2-y,1/2+z
1/2+x,1/2-y,-z
1/2-x,1/2+y,1/2-z
1/2-x,1/2-y,-z
1/2+x,1/2+y,1/2-z
1/2-x,1/2+y,z
1/2+x,1/2-y,1/2+z
loop_
_atom_site_type_symbol
_atom_site_label
_atom_site_fract_x
_atom_site_fract_y
_atom_site_fract_z
Si Si1 0.808688 0.934934 0.750000
Si Si2 0.312532 0.937060 0.250000
Si Si3 0.500000 0.560373 0.099444
Si Si4 0.114014 0.433729 0.594816
Si Si5 0.385288 0.437946 0.099615
Si Si6 0.500000 0.081749 0.854670
O O1 0.810634 0.748908 0.750000
O O2 0.747509 0.994486 0.750000
O O3 0.839745 0.998410 0.835557
O O4 0.345527 0.997405 0.166308
O O5 0.443519 0.496452 0.135799
O O6 0.500000 0.746156 0.104294
O O7 0.500000 0.500000 0.000000
O O8 0.128535 0.500000 0.500000
O O9 0.115433 0.247900 0.596820
O O10 0.053581 0.491751 0.616562
O O11 0.378887 0.500000 0.000000
O O12 0.500000 0.099218 0.750000
#
# Coordination Sequence:
#
# PCOD9474589 Si02
#       6
#     8   8   8  16  16   8
#     4  12  26  45  70  93 136 168 222 278 328 390
#     4  12  26  47  66 101 126 174 222 274 330 390
#     4  10  21  40  63  97 135 171 215 263 321 388
#     4  12  24  44  70  97 135 175 219 272 330 395
#     4  11  24  43  67 100 132 175 220 269 330 393
#     4  12  24  40  67 102 138 178 221 270 331 395
#
# _framework density 19.673580000000001
#
# number of rings (size 3 to 8) (size 9 to 14) (size 15 to 20)
#    0.000    0.500    1.250    9.375    1.750    1.000 
#    0.000    5.000    0.000    0.000    0.000    0.000 
#    0.000    0.000    0.000    0.000    0.000    0.000 
#
# Total GULP energy -179183.978501 kJ/mol
# GULP energy per Si atom -5599.499328 kJ/mol
# Density = 1.962880 g / cm^3
# Si number density = 19.673580 Si / 1000 Ang^3
#
#
#
# Elastic Constant Matrix: (Units=GPa)
#
#
# Indices 1 2 3 4 5 6 
#
# 1 205.4124 99.8922 96.9224 0.0000 0.0000 0.0000
# 2 99.8922 262.2032 82.4337 0.0000 0.0000 0.0000
# 3 96.9224 82.4337 165.1657 0.0000 0.0000 0.0000
# 4 0.0000 0.0000 0.0000 34.0638 0.0000 0.0000
# 5 0.0000 0.0000 0.0000 0.0000-1197.6581 0.0000
# 6 0.0000 0.0000 0.0000 0.0000 0.0000 34.4956
#
#
#
# Elastic Compliance Matrix: (Units=1/GPa)
#
#
# Indices 1 2 3 4 5 6 
#
# 1 0.007324 -0.001707 -0.003446 0.000000 0.000000 0.000000
# 2 -0.001707 0.004921 -0.001455 0.000000 0.000000 0.000000
# 3 -0.003446 -0.001455 0.008803 0.000000 0.000000 0.000000
# 4 0.000000 0.000000 0.000000 0.029357 0.000000 0.000000
# 5 0.000000 0.000000 0.000000 0.000000 -0.000835 0.000000
# 6 0.000000 0.000000 0.000000 0.000000 0.000000 0.028989
#
#
# Mechanical properties :
#
#
# Convention : Reuss Voigt Hill
#
# Bulk Modulus (GPa) = 127.66193 132.36422 130.01308
# Shear Modulus (GPa) = 52.97395 -202.25087 -74.63846
#
# Velocity S-wave (km/s) = 5.19470 -10.15020 -6.16610
# Velocity P-wave (km/s) = 10.05041 8.36316 3.94135
#
# Compressibility (1/GPa) = 0.00783319
#
# Stress axis : x y z
#
# Youngs Moduli (GPa) = 136.53005 203.19205 113.60043
#
# Poissons Ratio (x) = 0.34684 0.39148
# Poissons Ratio (y) = 0.23305 0.16524
# Poissons Ratio (z) = 0.47050 0.29556
#
# Static dielectric constant tensor:
#      x y z
#    x 1.675380 0.000000 0.000000 
#    y 0.000000 1.648290 0.000000 
#    z 0.000000 0.000000 1.676650 
# 
# From -- ./inp_files/36271.got.cif
#   From: 2010.05.17/outbox.cif.g08.bks.cpg/sg63_19_cif.got.tgz:36271.got - 2010.06.03 15:47:04.
