data_PCOD9474733
_publ_section_title
;
Structure prediction by ZEFSAII (Michael W. Deem and Ramdas Pophale) SiO2 
 PCOD9474733
Probable space group: C M C M
;
_chemical_formula_sum "Si O2"
_cell_formula_units_Z 112
_cell_length_a 15.682284
_cell_length_b 11.524003
_cell_length_c 26.755151
_cell_angle_alpha 90.000000
_cell_angle_beta 90.000000
_cell_angle_gamma 90.000000
_cell_volume 4835.262803
_symmetry_space_group_name_H-M "C M C M"
_symmetry_group_IT_number 63
_symmetry_cell_setting 'orthorhombic'
loop_
_space_group_symop_operation_xyz
x,y,z
-x,-y,1/2+z
x,-y,-z
-x,y,1/2-z
-x,-y,-z
x,y,1/2-z
-x,y,z
x,-y,1/2+z
1/2+x,1/2+y,z
1/2-x,1/2-y,1/2+z
1/2+x,1/2-y,-z
1/2-x,1/2+y,1/2-z
1/2-x,1/2-y,-z
1/2+x,1/2+y,1/2-z
1/2-x,1/2+y,z
1/2+x,1/2-y,1/2+z
loop_
_atom_site_type_symbol
_atom_site_label
_atom_site_fract_x
_atom_site_fract_y
_atom_site_fract_z
Si Si1 0.095222 0.954818 0.444155
Si Si2 0.092481 0.363395 0.308505
Si Si3 0.903842 0.105458 0.346477
Si Si4 0.594697 0.099782 0.070145
Si Si5 0.595986 0.168635 0.546924
Si Si6 0.727251 0.273842 0.096006
Si Si7 0.269453 0.571904 0.806970
O O1 0.168154 0.862277 0.435102
O O2 0.000000 0.903715 0.438015
O O3 0.101827 0.000000 0.500000
O O4 0.101993 0.055370 0.402629
O O5 0.091425 0.329006 0.250000
O O6 0.105383 0.243060 0.338282
O O7 0.168902 0.453320 0.313426
O O8 0.000000 0.411068 0.321719
O O9 0.000000 0.077175 0.328592
O O10 0.831741 0.034574 0.317403
O O11 0.500000 0.133431 0.089134
O O12 0.677539 0.152865 0.095937
O O13 0.598258 0.960905 0.069781
O O14 0.599880 0.145394 0.012573
O O15 0.500000 0.218584 0.557244
O O16 0.681498 0.227688 0.568166
O O17 0.720245 0.328547 0.151409
O O18 0.282625 0.612249 0.750000
#
# Coordination Sequence:
#
# PCOD9474733 Si02
#       7
#    16  16  16  16  16  16  16
#     4   9  19  34  52  82 120 149 178 231 288 331
#     4   9  18  35  58  81 107 143 186 233 284 333
#     4   9  18  36  61  83 108 147 191 229 277 340
#     4   9  19  38  59  80 113 153 188 227 279 338
#     4   9  20  38  58  82 115 152 191 233 274 335
#     4  11  21  34  60  85 110 151 195 233 280 339
#     4  10  22  37  55  85 118 146 186 242 290 332
#
# _framework density 23.163167000000001
#
# number of rings (size 3 to 8) (size 9 to 14) (size 15 to 20)
#    0.000    2.571    0.000    2.143    2.000    4.286 
#    2.571    0.000    0.000    1.714    0.000    4.000 
#    0.000    0.000    0.000    0.000    0.000    0.000 
#
# Total GULP energy -313049.157529 kJ/mol
# GULP energy per Si atom -5590.163527 kJ/mol
# Density = 2.311045 g / cm^3
# Si number density = 23.163167 Si / 1000 Ang^3
#
#
#
# Elastic Constant Matrix: (Units=GPa)
#
#
# Indices 1 2 3 4 5 6 
#
# 1 192.6779 63.9151 21.5544 0.0000 0.0000 0.0000
# 2 63.9151 54.4796 -5.2519 0.0000 0.0000 0.0000
# 3 21.5544 -5.2519 63.9280 0.0000 0.0000 0.0000
# 4 0.0000 0.0000 0.0000 8.8676 0.0000 0.0000
# 5 0.0000 0.0000 0.0000 0.0000 8.2148 0.0000
# 6 0.0000 0.0000 0.0000 0.0000 0.0000 35.3630
#
#
#
# Elastic Compliance Matrix: (Units=1/GPa)
#
#
# Indices 1 2 3 4 5 6 
#
# 1 0.009471 -0.011511 -0.004139 0.000000 0.000000 0.000000
# 2 -0.011511 0.032491 0.006550 0.000000 0.000000 0.000000
# 3 -0.004139 0.006550 0.017576 0.000000 0.000000 0.000000
# 4 0.000000 0.000000 0.000000 0.112771 0.000000 0.000000
# 5 0.000000 0.000000 0.000000 0.000000 0.121732 0.000000
# 6 0.000000 0.000000 0.000000 0.000000 0.000000 0.028278
#
#
# Mechanical properties :
#
#
# Convention : Reuss Voigt Hill
#
# Bulk Modulus (GPa) = 24.18968 52.39117 38.29042
# Shear Modulus (GPa) = 14.11239 25.88026 19.99633
#
# Velocity S-wave (km/s) = 2.47100 3.34623 2.94135
# Velocity P-wave (km/s) = 4.31358 6.13165 5.30113
#
# Compressibility (1/GPa) = 0.04133994
#
# Stress axis : x y z
#
# Youngs Moduli (GPa) = 105.58101 30.77744 56.89480
#
# Poissons Ratio (x) = 0.35427 0.23549
# Poissons Ratio (y) = 1.21532 -0.37268
# Poissons Ratio (z) = 0.43701 -0.20160
#
# Static dielectric constant tensor:
#      x y z
#    x 1.906540 0.000000 0.000000 
#    y 0.000000 1.845950 0.000000 
#    z 0.000000 0.000000 1.915000 
# 
# From -- ./inp_files/73433.got.cif
#   From: 2010.05.17/outbox.cif.g08.bks.cpg/sg63_37_cif.got.tgz:73433.got - 2010.06.03 15:47:04.
