data_PCOD9474715
_publ_section_title
;
Structure prediction by ZEFSAII (Michael W. Deem and Ramdas Pophale) SiO2 
 PCOD9474715
Probable space group: C M C M
;
_chemical_formula_sum "Si O2"
_cell_formula_units_Z 48
_cell_length_a 9.121223
_cell_length_b 10.939547
_cell_length_c 19.912465
_cell_angle_alpha 90.000000
_cell_angle_beta 90.000000
_cell_angle_gamma 90.000000
_cell_volume 1986.906533
_symmetry_space_group_name_H-M "C M C M"
_symmetry_group_IT_number 63
_symmetry_cell_setting 'orthorhombic'
loop_
_space_group_symop_operation_xyz
x,y,z
-x,-y,1/2+z
x,-y,-z
-x,y,1/2-z
-x,-y,-z
x,y,1/2-z
-x,y,z
x,-y,1/2+z
1/2+x,1/2+y,z
1/2-x,1/2-y,1/2+z
1/2+x,1/2-y,-z
1/2-x,1/2+y,1/2-z
1/2-x,1/2-y,-z
1/2+x,1/2+y,1/2-z
1/2-x,1/2+y,z
1/2+x,1/2-y,1/2+z
loop_
_atom_site_type_symbol
_atom_site_label
_atom_site_fract_x
_atom_site_fract_y
_atom_site_fract_z
Si Si1 0.747840 0.159289 0.750000
Si Si2 0.000000 0.458292 0.750000
Si Si3 0.000000 0.857068 0.750000
Si Si4 0.000000 0.916077 0.341178
Si Si5 0.249182 0.500000 0.500000
Si Si6 0.000000 0.568930 0.407835
Si Si7 0.500000 0.329270 0.016500
O O1 0.643613 0.274768 0.750000
O O2 0.857027 0.150782 0.812475
O O3 0.643737 0.042473 0.750000
O O4 0.000000 0.405956 0.827367
O O5 0.000000 0.948308 0.812225
O O6 0.000000 0.916210 0.418778
O O7 0.348604 0.621036 0.485325
O O8 0.141304 0.493317 0.435019
O O9 0.000000 0.693424 0.452987
#
# Coordination Sequence:
#
# PCOD9474715 Si02
#       7
#     8   4   4   8   8   8   8
#     4   9  20  38  57  87 132 173 205 256 323 381
#     4  11  22  39  68 102 132 167 216 267 328 394
#     4   9  20  39  56  82 134 175 200 259 326 380
#     4  10  22  36  58  93 122 161 220 260 311 387
#     4  10  24  46  68  94 128 172 226 262 312 394
#     4  11  24  44  68  96 133 172 212 270 327 380
#     4  11  23  41  67  94 124 167 217 269 318 374
#
# _framework density 24.158156000000002
#
# number of rings (size 3 to 8) (size 9 to 14) (size 15 to 20)
#    0.000    2.000    0.000    3.000    0.000   10.000 
#    0.000   21.667    0.000    0.000    0.000    0.000 
#    0.000    0.000    0.000    0.000    0.000    0.000 
#
# Total GULP energy -133997.970657 kJ/mol
# GULP energy per Si atom -5583.248777 kJ/mol
# Density = 2.410317 g / cm^3
# Si number density = 24.158156 Si / 1000 Ang^3
#
#
#
# Elastic Constant Matrix: (Units=GPa)
#
#
# Indices 1 2 3 4 5 6 
#
# 1 163.3698 47.5796 26.5283 0.0000 0.0000 0.0000
# 2 47.5796 115.9409 3.2793 0.0000 0.0000 0.0000
# 3 26.5283 3.2793 94.0021 0.0000 0.0000 0.0000
# 4 0.0000 0.0000 0.0000 -48.6045 0.0000 0.0000
# 5 0.0000 0.0000 0.0000 0.0000 16.0741 0.0000
# 6 0.0000 0.0000 0.0000 0.0000 0.0000 26.2301
#
#
#
# Elastic Compliance Matrix: (Units=1/GPa)
#
#
# Indices 1 2 3 4 5 6 
#
# 1 0.007294 -0.002938 -0.001956 0.000000 0.000000 0.000000
# 2 -0.002938 0.009817 0.000487 0.000000 0.000000 0.000000
# 3 -0.001956 0.000487 0.011173 0.000000 0.000000 0.000000
# 4 0.000000 0.000000 0.000000 -0.020574 0.000000 0.000000
# 5 0.000000 0.000000 0.000000 0.000000 0.062212 0.000000
# 6 0.000000 0.000000 0.000000 0.000000 0.000000 0.038124
#
#
# Mechanical properties :
#
#
# Convention : Reuss Voigt Hill
#
# Bulk Modulus (GPa) = 51.36215 58.67635 55.01925
# Shear Modulus (GPa) = 40.53461 18.46831 29.50146
#
# Velocity S-wave (km/s) = 4.10064 2.76791 3.49833
# Velocity P-wave (km/s) = 6.61266 5.87846 6.25634
#
# Compressibility (1/GPa) = 0.01946959
#
# Stress axis : x y z
#
# Youngs Moduli (GPa) = 137.09121 101.86340 89.50064
#
# Poissons Ratio (x) = 0.29929 0.17507
# Poissons Ratio (y) = 0.40279 -0.04356
# Poissons Ratio (z) = 0.26816 -0.04958
#
# Static dielectric constant tensor:
#      x y z
#    x 1.731050 0.000000 0.000000 
#    y 0.000000 1.981550 0.000000 
#    z 0.000000 0.000000 1.903220 
# 
# From -- ./inp_files/58911.got.cif
#   From: 2010.05.17/outbox.cif.g08.bks.cpg/sg63_30_cif.got.tgz:58911.got - 2010.06.03 15:47:04.
