data_PCOD9474306
_publ_section_title
;
Structure prediction by ZEFSAII (Michael W. Deem and Ramdas Pophale) SiO2 
 PCOD9474306
Probable space group: C M C M
;
_chemical_formula_sum "Si O2"
_cell_formula_units_Z 64
_cell_length_a 19.490860
_cell_length_b 19.159131
_cell_length_c 10.128600
_cell_angle_alpha 90.000000
_cell_angle_beta 90.000000
_cell_angle_gamma 90.000000
_cell_volume 3782.302234
_symmetry_space_group_name_H-M "C M C M"
_symmetry_group_IT_number 63
_symmetry_cell_setting 'orthorhombic'
loop_
_space_group_symop_operation_xyz
x,y,z
-x,-y,1/2+z
x,-y,-z
-x,y,1/2-z
-x,-y,-z
x,y,1/2-z
-x,y,z
x,-y,1/2+z
1/2+x,1/2+y,z
1/2-x,1/2-y,1/2+z
1/2+x,1/2-y,-z
1/2-x,1/2+y,1/2-z
1/2-x,1/2-y,-z
1/2+x,1/2+y,1/2-z
1/2-x,1/2+y,z
1/2+x,1/2-y,1/2+z
loop_
_atom_site_type_symbol
_atom_site_label
_atom_site_fract_x
_atom_site_fract_y
_atom_site_fract_z
Si Si1 0.384830 0.970914 0.750000
Si Si2 0.736907 0.645048 0.595421
Si Si3 0.000000 0.646409 0.250000
Si Si4 0.500000 0.088199 0.750000
Si Si5 0.208946 0.500000 0.000000
Si Si6 0.000000 0.291180 0.463357
Si Si7 0.850286 0.761021 0.902029
O O1 0.433717 0.903843 0.750000
O O2 0.433852 0.038718 0.750000
O O3 0.338394 0.974082 0.620284
O O4 0.718449 0.648623 0.750000
O O5 0.748016 0.565803 0.551349
O O6 0.808355 0.688322 0.579905
O O7 0.682466 0.684534 0.503612
O O8 0.000000 0.691089 0.382574
O O9 0.500000 0.137593 0.877737
O O10 0.930363 0.251494 0.425980
O O11 0.838744 0.782828 0.750000
#
# Coordination Sequence:
#
# PCOD9474306 Si02
#       7
#     8  16   4   4   8   8  16
#     4  11  22  34  52  82 118 157 192 226 276 349
#     4  10  22  38  57  84 116 151 195 244 289 340
#     4  11  24  32  50  86 120 155 190 224 276 353
#     4  11  20  36  54  78 120 155 190 232 278 341
#     4  12  22  37  58  81 116 158 196 238 290 342
#     4  12  22  37  58  83 116 156 194 237 290 343
#     4  10  21  38  60  83 112 152 197 244 290 340
#
# _framework density 16.920911
#
# number of rings (size 3 to 8) (size 9 to 14) (size 15 to 20)
#    0.000    1.250    2.500    4.500    3.500    2.000 
#    0.000    0.000    0.000    0.750    0.000    0.000 
#    0.000    0.000    0.000    0.000    0.000    0.000 
#
# Total GULP energy -178837.764504 kJ/mol
# GULP energy per Si atom -5588.680141 kJ/mol
# Density = 1.688240 g / cm^3
# Si number density = 16.920911 Si / 1000 Ang^3
#
#
#
# Elastic Constant Matrix: (Units=GPa)
#
#
# Indices 1 2 3 4 5 6 
#
# 1 95.4260 39.6733 44.0605 0.0000 0.0000 0.0000
# 2 39.6733 85.6621 52.0050 0.0000 0.0000 0.0000
# 3 44.0605 52.0050 147.1473 0.0000 0.0000 0.0000
# 4 0.0000 0.0000 0.0000 30.4489 0.0000 0.0000
# 5 0.0000 0.0000 0.0000 0.0000 28.3850 0.0000
# 6 0.0000 0.0000 0.0000 0.0000 0.0000 5.2175
#
#
#
# Elastic Compliance Matrix: (Units=1/GPa)
#
#
# Indices 1 2 3 4 5 6 
#
# 1 0.013587 -0.004867 -0.002348 0.000000 0.000000 0.000000
# 2 -0.004867 0.016606 -0.004412 0.000000 0.000000 0.000000
# 3 -0.002348 -0.004412 0.009058 0.000000 0.000000 0.000000
# 4 0.000000 0.000000 0.000000 0.032842 0.000000 0.000000
# 5 0.000000 0.000000 0.000000 0.000000 0.035230 0.000000
# 6 0.000000 0.000000 0.000000 0.000000 0.000000 0.191662
#
#
# Mechanical properties :
#
#
# Convention : Reuss Voigt Hill
#
# Bulk Modulus (GPa) = 62.50958 66.63476 64.57217
# Shear Modulus (GPa) = 15.26385 25.64340 20.45362
#
# Velocity S-wave (km/s) = 3.00671 3.89715 3.48052
# Velocity P-wave (km/s) = 7.00543 7.72761 7.37537
#
# Compressibility (1/GPa) = 0.01599755
#
# Stress axis : x y z
#
# Youngs Moduli (GPa) = 73.59947 60.21862 110.39697
#
# Poissons Ratio (x) = 0.29309 0.25924
# Poissons Ratio (y) = 0.35821 0.48703
# Poissons Ratio (z) = 0.17283 0.26566
#
# Static dielectric constant tensor:
#      x y z
#    x 1.552060 0.000000 0.000000 
#    y 0.000000 1.550080 0.000000 
#    z 0.000000 0.000000 1.571130 
# 
# From -- ./inp_files/7583.got.cif
#   From: 2010.05.17/outbox.cif.g08.bks.cpg/sg63_4_cif.got.tgz:7583.got - 2010.06.03 15:47:04.
