data_PCOD9474684
_publ_section_title
;
Structure prediction by ZEFSAII (Michael W. Deem and Ramdas Pophale) SiO2 
 PCOD9474684
Probable space group: C M C M
;
_chemical_formula_sum "Si O2"
_cell_formula_units_Z 72
_cell_length_a 23.933554
_cell_length_b 9.213553
_cell_length_c 15.121214
_cell_angle_alpha 90.000000
_cell_angle_beta 90.000000
_cell_angle_gamma 90.000000
_cell_volume 3334.425295
_symmetry_space_group_name_H-M "C M C M"
_symmetry_group_IT_number 63
_symmetry_cell_setting 'orthorhombic'
loop_
_space_group_symop_operation_xyz
x,y,z
-x,-y,1/2+z
x,-y,-z
-x,y,1/2-z
-x,-y,-z
x,y,1/2-z
-x,y,z
x,-y,1/2+z
1/2+x,1/2+y,z
1/2-x,1/2-y,1/2+z
1/2+x,1/2-y,-z
1/2-x,1/2+y,1/2-z
1/2-x,1/2-y,-z
1/2+x,1/2+y,1/2-z
1/2-x,1/2+y,z
1/2+x,1/2-y,1/2+z
loop_
_atom_site_type_symbol
_atom_site_label
_atom_site_fract_x
_atom_site_fract_y
_atom_site_fract_z
Si Si1 0.776145 0.256667 0.250000
Si Si2 0.564734 0.341728 0.914305
Si Si3 0.251097 0.113699 0.936125
Si Si4 0.608006 0.186338 0.750000
Si Si5 0.875154 0.865752 0.095491
Si Si6 0.348152 0.143853 0.250000
O O1 0.774816 0.346644 0.158784
O O2 0.839120 0.200326 0.250000
O O3 0.720269 0.158665 0.250000
O O4 0.500000 0.346164 0.939686
O O5 0.574593 0.225168 0.837964
O O6 0.584065 0.501279 0.880477
O O7 0.602784 0.312323 0.000305
O O8 0.187327 0.069423 0.915013
O O9 0.250000 0.250000 0.000000
O O10 0.281097 0.000000 0.000000
O O11 0.629228 0.019907 0.750000
O O12 0.869192 0.736264 0.165405
#
# Coordination Sequence:
#
# PCOD9474684 Si02
#       6
#     8  16  16   8  16   8
#     4  10  26  39  63  94 139 181 216 260 338 410
#     4  11  23  44  71  95 123 172 231 283 335 391
#     4  11  23  39  62  98 135 180 223 269 329 407
#     4  12  26  43  64  99 135 170 219 281 329 399
#     4  10  21  44  66  96 131 171 224 273 329 395
#     4  10  25  42  65  99 138 175 212 263 345 409
#
# _framework density 21.592928000000001
#
# number of rings (size 3 to 8) (size 9 to 14) (size 15 to 20)
#    0.000    1.333    2.222    3.667    6.222    2.667 
#    0.000    7.222    0.000    0.000    0.000    0.000 
#    0.000    0.000    0.000    0.000    0.000    0.000 
#
# Total GULP energy -201068.383681 kJ/mol
# GULP energy per Si atom -5585.232880 kJ/mol
# Density = 2.154378 g / cm^3
# Si number density = 21.592928 Si / 1000 Ang^3
#
#
#
# Elastic Constant Matrix: (Units=GPa)
#
#
# Indices 1 2 3 4 5 6 
#
# 1 66.0706 -30.2605 -1.4362 0.0000 0.0000 0.0000
# 2 -30.2605 86.2725 37.7072 0.0000 0.0000 0.0000
# 3 -1.4362 37.7072 133.1366 0.0000 0.0000 0.0000
# 4 0.0000 0.0000 0.0000 27.9553 0.0000 0.0000
# 5 0.0000 0.0000 0.0000 0.0000 24.8359 0.0000
# 6 0.0000 0.0000 0.0000 0.0000 0.0000 23.0183
#
#
#
# Elastic Compliance Matrix: (Units=1/GPa)
#
#
# Indices 1 2 3 4 5 6 
#
# 1 0.018428 0.007278 -0.001862 0.000000 0.000000 0.000000
# 2 0.007278 0.016103 -0.004482 0.000000 0.000000 0.000000
# 3 -0.001862 -0.004482 0.008760 0.000000 0.000000 0.000000
# 4 0.000000 0.000000 0.000000 0.035771 0.000000 0.000000
# 5 0.000000 0.000000 0.000000 0.000000 0.040264 0.000000
# 6 0.000000 0.000000 0.000000 0.000000 0.000000 0.043444
#
#
# Mechanical properties :
#
#
# Convention : Reuss Voigt Hill
#
# Bulk Modulus (GPa) = 22.14460 33.05561 27.60010
# Shear Modulus (GPa) = 28.41603 33.79320 31.10462
#
# Velocity S-wave (km/s) = 3.63159 3.96032 3.79951
# Velocity P-wave (km/s) = 5.27848 6.02112 5.66199
#
# Compressibility (1/GPa) = 0.04515774
#
# Stress axis : x y z
#
# Youngs Moduli (GPa) = 54.26501 62.10052 114.14942
#
# Poissons Ratio (x) = -0.45195 0.21259
# Poissons Ratio (y) = -0.39493 0.51164
# Poissons Ratio (z) = 0.10106 0.27835
#
# Static dielectric constant tensor:
#      x y z
#    x 1.792310 0.000000 0.000000 
#    y 0.000000 1.813120 0.000000 
#    z 0.000000 0.000000 1.554400 
# 
# From -- ./inp_files/37597.got.cif
#   From: 2010.05.17/outbox.cif.g08.bks.cpg/sg63_19_cif.got.tgz:37597.got - 2010.06.03 15:47:04.
