data_PCOD9474579
_publ_section_title
;
Structure prediction by ZEFSAII (Michael W. Deem and Ramdas Pophale) SiO2 
 PCOD9474579
Probable space group: C M C M
;
_chemical_formula_sum "Si O2"
_cell_formula_units_Z 80
_cell_length_a 13.328680
_cell_length_b 18.940577
_cell_length_c 15.022396
_cell_angle_alpha 90.000000
_cell_angle_beta 90.000000
_cell_angle_gamma 90.000000
_cell_volume 3792.447283
_symmetry_space_group_name_H-M "C M C M"
_symmetry_group_IT_number 63
_symmetry_cell_setting 'orthorhombic'
loop_
_space_group_symop_operation_xyz
x,y,z
-x,-y,1/2+z
x,-y,-z
-x,y,1/2-z
-x,-y,-z
x,y,1/2-z
-x,y,z
x,-y,1/2+z
1/2+x,1/2+y,z
1/2-x,1/2-y,1/2+z
1/2+x,1/2-y,-z
1/2-x,1/2+y,1/2-z
1/2-x,1/2-y,-z
1/2+x,1/2+y,1/2-z
1/2-x,1/2+y,z
1/2+x,1/2-y,1/2+z
loop_
_atom_site_type_symbol
_atom_site_label
_atom_site_fract_x
_atom_site_fract_y
_atom_site_fract_z
Si Si1 0.114480 0.067724 0.844772
Si Si2 0.619432 0.208545 0.538274
Si Si3 0.758399 0.427623 0.500530
Si Si4 0.116283 0.762212 0.344637
Si Si5 0.118393 0.148944 0.143634
O O1 0.156654 0.042822 0.750000
O O2 0.174692 0.048542 0.930222
O O3 0.114862 0.153028 0.843798
O O4 0.000000 0.044016 0.849987
O O5 0.500000 0.194678 0.536360
O O6 0.679782 0.136095 0.544567
O O7 0.651499 0.238943 0.441336
O O8 0.633494 0.269624 0.611788
O O9 0.822998 0.500000 0.500000
O O10 0.800473 0.103567 0.413087
O O11 0.163182 0.738409 0.250000
O O12 0.000000 0.739084 0.341922
O O13 0.128534 0.140923 0.250000
O O14 0.000000 0.132410 0.120260
#
# Coordination Sequence:
#
# PCOD9474579 Si02
#       5
#    16  16  16  16  16
#     4   9  18  34  57  85 115 148 189 239 294 349
#     4  10  21  40  62  85 116 155 203 251 292 336
#     4  12  25  38  56  88 126 161 197 236 289 360
#     4   8  14  28  55  86 109 135 183 244 292 328
#     4  10  22  41  64  90 119 152 194 246 302 356
#
# _framework density 21.094556999999998
#
# number of rings (size 3 to 8) (size 9 to 14) (size 15 to 20)
#    0.000    2.200    2.000    2.400    0.000    4.400 
#    0.000    2.000    0.000    0.000    0.000    8.400 
#    0.000    0.000    0.000    0.000    0.000    0.000 
#
# Total GULP energy -222973.094765 kJ/mol
# GULP energy per Si atom -5574.327369 kJ/mol
# Density = 2.104654 g / cm^3
# Si number density = 21.094557 Si / 1000 Ang^3
#
#
#
# Elastic Constant Matrix: (Units=GPa)
#
#
# Indices 1 2 3 4 5 6 
#
# 1 69.3733 27.3787 24.1809 0.0000 0.0000 0.0000
# 2 27.3787 133.0565 32.8710 0.0000 0.0000 0.0000
# 3 24.1809 32.8710 127.1967 0.0000 0.0000 0.0000
# 4 0.0000 0.0000 0.0000 4.7636 0.0000 0.0000
# 5 0.0000 0.0000 0.0000 0.0000 10.2321 0.0000
# 6 0.0000 0.0000 0.0000 0.0000 0.0000 0.3555
#
#
#
# Elastic Compliance Matrix: (Units=1/GPa)
#
#
# Indices 1 2 3 4 5 6 
#
# 1 0.016342 -0.002772 -0.002390 0.000000 0.000000 0.000000
# 2 -0.002772 0.008498 -0.001669 0.000000 0.000000 0.000000
# 3 -0.002390 -0.001669 0.008748 0.000000 0.000000 0.000000
# 4 0.000000 0.000000 0.000000 0.209927 0.000000 0.000000
# 5 0.000000 0.000000 0.000000 0.000000 0.097732 0.000000
# 6 0.000000 0.000000 0.000000 0.000000 0.000000 2.812998
#
#
# Mechanical properties :
#
#
# Convention : Reuss Voigt Hill
#
# Bulk Modulus (GPa) = 50.18904 55.38753 52.78828
# Shear Modulus (GPa) = 1.57503 19.41661 10.49582
#
# Velocity S-wave (km/s) = 0.86503 3.03719 2.23303
# Velocity P-wave (km/s) = 4.98415 6.21395 5.63271
#
# Compressibility (1/GPa) = 0.01992467
#
# Stress axis : x y z
#
# Youngs Moduli (GPa) = 61.19206 117.66931 114.31676
#
# Poissons Ratio (x) = 0.32620 0.27325
# Poissons Ratio (y) = 0.16963 0.19082
# Poissons Ratio (z) = 0.14627 0.19642
#
# Static dielectric constant tensor:
#      x y z
#    x 1.798480 0.000000 0.000000 
#    y 0.000000 1.891130 0.000000 
#    z 0.000000 0.000000 1.801590 
# 
# From -- ./inp_files/31678.got.cif
#   From: 2010.05.17/outbox.cif.g08.bks.cpg/sg63_16_cif.got.tgz:31678.got - 2010.06.03 15:47:04.
