data_PCOD9474753
_publ_section_title
;
Structure prediction by ZEFSAII (Michael W. Deem and Ramdas Pophale) SiO2 
 PCOD9474753
Probable space group: C M C M
;
_chemical_formula_sum "Si O2"
_cell_formula_units_Z 80
_cell_length_a 10.958764
_cell_length_b 26.627525
_cell_length_c 14.382780
_cell_angle_alpha 90.000000
_cell_angle_beta 90.000000
_cell_angle_gamma 90.000000
_cell_volume 4196.963700
_symmetry_space_group_name_H-M "C M C M"
_symmetry_group_IT_number 63
_symmetry_cell_setting 'orthorhombic'
loop_
_space_group_symop_operation_xyz
x,y,z
-x,-y,1/2+z
x,-y,-z
-x,y,1/2-z
-x,-y,-z
x,y,1/2-z
-x,y,z
x,-y,1/2+z
1/2+x,1/2+y,z
1/2-x,1/2-y,1/2+z
1/2+x,1/2-y,-z
1/2-x,1/2+y,1/2-z
1/2-x,1/2-y,-z
1/2+x,1/2+y,1/2-z
1/2-x,1/2+y,z
1/2+x,1/2-y,1/2+z
loop_
_atom_site_type_symbol
_atom_site_label
_atom_site_fract_x
_atom_site_fract_y
_atom_site_fract_z
Si Si1 0.639146 0.968732 0.144769
Si Si2 0.737946 0.116420 0.992183
Si Si3 0.632793 0.466613 0.592465
Si Si4 0.355461 0.698671 0.639509
Si Si5 0.144508 0.310825 0.853816
O O1 0.644506 0.947401 0.250000
O O2 0.500000 0.987838 0.130613
O O3 0.668261 0.926776 0.066752
O O4 0.745230 0.011020 0.139877
O O5 0.790474 0.155898 0.918910
O O6 0.840743 0.088467 0.053234
O O7 0.664718 0.147880 0.068264
O O8 0.623834 0.500000 0.500000
O O9 0.500000 0.470133 0.640169
O O10 0.340684 0.690617 0.750000
O O11 0.500000 0.696311 0.619017
O O12 0.307880 0.755205 0.619768
O O13 0.191077 0.324482 0.750000
O O14 0.000000 0.303930 0.845062
#
# Coordination Sequence:
#
# PCOD9474753 Si02
#       5
#    16  16  16  16  16
#     4  10  22  38  55  79 111 145 183 227 276 332
#     4  11  19  32  57  82 107 139 183 229 275 320
#     4   9  20  36  53  76 106 138 176 223 273 326
#     4   9  18  33  53  79 111 144 179 220 266 321
#     4   9  19  34  51  76 110 146 184 223 265 318
#
# _framework density 19.061398000000001
#
# number of rings (size 3 to 8) (size 9 to 14) (size 15 to 20)
#    0.000    2.400    0.000    3.600    0.000    6.400 
#    0.000    2.000    0.000    1.800    0.000   11.200 
#    0.000    0.000    0.000    0.000    0.000    0.000 
#
# Total GULP energy -222726.574633 kJ/mol
# GULP energy per Si atom -5568.164366 kJ/mol
# Density = 1.901801 g / cm^3
# Si number density = 19.061398 Si / 1000 Ang^3
#
#
#
# Elastic Constant Matrix: (Units=GPa)
#
#
# Indices 1 2 3 4 5 6 
#
# 1 105.0845 27.7317 29.2798 0.0000 0.0000 0.0000
# 2 27.7317 63.5279 22.8308 0.0000 0.0000 0.0000
# 3 29.2798 22.8308 65.9379 0.0000 0.0000 0.0000
# 4 0.0000 0.0000 0.0000 27.8111 0.0000 0.0000
# 5 0.0000 0.0000 0.0000 0.0000 43.3766 0.0000
# 6 0.0000 0.0000 0.0000 0.0000 0.0000 112.5787
#
#
#
# Elastic Compliance Matrix: (Units=1/GPa)
#
#
# Indices 1 2 3 4 5 6 
#
# 1 0.011558 -0.003656 -0.003867 0.000000 0.000000 0.000000
# 2 -0.003656 0.019135 -0.005002 0.000000 0.000000 0.000000
# 3 -0.003867 -0.005002 0.018615 0.000000 0.000000 0.000000
# 4 0.000000 0.000000 0.000000 0.035957 0.000000 0.000000
# 5 0.000000 0.000000 0.000000 0.000000 0.023054 0.000000
# 6 0.000000 0.000000 0.000000 0.000000 0.000000 0.008883
#
#
# Mechanical properties :
#
#
# Convention : Reuss Voigt Hill
#
# Bulk Modulus (GPa) = 41.22233 43.80389 42.51311
# Shear Modulus (GPa) = 33.25877 47.06714 40.16296
#
# Velocity S-wave (km/s) = 4.18164 4.97453 4.59522
# Velocity P-wave (km/s) = 6.70730 7.48498 7.10679
#
# Compressibility (1/GPa) = 0.02425869
#
# Stress axis : x y z
#
# Youngs Moduli (GPa) = 86.51775 52.26124 53.72108
#
# Poissons Ratio (x) = 0.19106 0.20772
# Poissons Ratio (y) = 0.31630 0.26871
# Poissons Ratio (z) = 0.33453 0.26141
#
# Static dielectric constant tensor:
#      x y z
#    x 1.685560 0.000000 0.000000 
#    y 0.000000 1.705160 0.000000 
#    z 0.000000 0.000000 1.664030 
# 
# From -- ./inp_files/29743.got.cif
#   From: 2010.05.17/outbox.cif.g08.bks.cpg/sg63_15_cif.got.tgz:29743.got - 2010.06.03 15:47:04.
