data_PCOD9474351
_publ_section_title
;
Structure prediction by ZEFSAII (Michael W. Deem and Ramdas Pophale) SiO2 
 PCOD9474351
Probable space group: C M C M
;
_chemical_formula_sum "Si O2"
_cell_formula_units_Z 100
_cell_length_a 21.639344
_cell_length_b 27.217726
_cell_length_c 8.015105
_cell_angle_alpha 90.000000
_cell_angle_beta 90.000000
_cell_angle_gamma 90.000000
_cell_volume 4720.686335
_symmetry_space_group_name_H-M "C M C M"
_symmetry_group_IT_number 63
_symmetry_cell_setting 'orthorhombic'
loop_
_space_group_symop_operation_xyz
x,y,z
-x,-y,1/2+z
x,-y,-z
-x,y,1/2-z
-x,-y,-z
x,y,1/2-z
-x,y,z
x,-y,1/2+z
1/2+x,1/2+y,z
1/2-x,1/2-y,1/2+z
1/2+x,1/2-y,-z
1/2-x,1/2+y,1/2-z
1/2-x,1/2-y,-z
1/2+x,1/2+y,1/2-z
1/2-x,1/2+y,z
1/2+x,1/2-y,1/2+z
loop_
_atom_site_type_symbol
_atom_site_label
_atom_site_fract_x
_atom_site_fract_y
_atom_site_fract_z
Si Si1 0.234919 0.445199 0.556734
Si Si2 0.333400 0.369580 0.444757
Si Si3 0.910891 0.572367 0.447375
Si Si4 0.000000 0.542158 0.750000
Si Si5 0.320668 0.739847 0.952423
Si Si6 0.569057 0.810896 0.950657
Si Si7 0.931141 0.052126 0.053331
O O1 0.251912 0.500000 0.500000
O O2 0.251437 0.440772 0.750000
O O3 0.271089 0.400931 0.469894
O O4 0.161456 0.439099 0.538804
O O5 0.342688 0.363194 0.250000
O O6 0.333464 0.315081 0.517997
O O7 0.388423 0.403019 0.508761
O O8 0.929513 0.561971 0.250000
O O9 0.921071 0.630843 0.475760
O O10 0.947074 0.546536 0.598479
O O11 0.323119 0.740930 0.750000
O O12 0.373054 0.778443 0.012569
O O13 0.250000 0.750000 0.000000
O O14 0.567366 0.804155 0.750000
O O15 0.500000 0.797902 0.015118
O O16 0.936657 0.050539 0.250000
O O17 0.000000 0.055942 0.977781
O O18 0.903455 0.000000 0.000000
#
# Coordination Sequence:
#
# PCOD9474351 Si02
#       7
#    16  16  16   4  16  16  16
#     4  11  24  42  66  88 121 160 204 256 309 365
#     4  11  23  38  60  91 124 157 204 251 304 370
#     4  10  22  40  64  92 125 166 208 255 314 369
#     4  12  22  36  70  90 130 156 212 258 306 374
#     4  10  22  39  59  87 118 157 199 248 304 359
#     4   9  17  36  62  84 116 157 202 243 298 366
#     4  10  21  38  61  87 120 159 201 246 302 362
#
# _framework density 21.183361000000001
#
# number of rings (size 3 to 8) (size 9 to 14) (size 15 to 20)
#    0.000    1.760    0.800    3.120    2.240    4.160 
#    1.440    2.000    0.000    0.000    0.000    0.000 
#    0.000    0.000    0.000    0.000    0.000    0.000 
#
# Total GULP energy -278777.840587 kJ/mol
# GULP energy per Si atom -5575.556812 kJ/mol
# Density = 2.113515 g / cm^3
# Si number density = 21.183361 Si / 1000 Ang^3
#
#
#
# Elastic Constant Matrix: (Units=GPa)
#
#
# Indices 1 2 3 4 5 6 
#
# 1 121.1572 60.1652 26.4711 0.0000 0.0000 0.0000
# 2 60.1652 134.2040 34.1766 0.0000 0.0000 0.0000
# 3 26.4711 34.1766 76.3352 0.0000 0.0000 0.0000
# 4 0.0000 0.0000 0.0000 17.4375 0.0000 0.0000
# 5 0.0000 0.0000 0.0000 0.0000 49.5461 0.0000
# 6 0.0000 0.0000 0.0000 0.0000 0.0000-1261.0668
#
#
#
# Elastic Compliance Matrix: (Units=1/GPa)
#
#
# Indices 1 2 3 4 5 6 
#
# 1 0.010829 -0.004400 -0.001785 0.000000 0.000000 0.000000
# 2 -0.004400 0.010198 -0.003040 0.000000 0.000000 0.000000
# 3 -0.001785 -0.003040 0.015080 0.000000 0.000000 0.000000
# 4 0.000000 0.000000 0.000000 0.057348 0.000000 0.000000
# 5 0.000000 0.000000 0.000000 0.000000 0.020183 0.000000
# 6 0.000000 0.000000 0.000000 0.000000 0.000000 -0.000793
#
#
# Mechanical properties :
#
#
# Convention : Reuss Voigt Hill
#
# Bulk Modulus (GPa) = 56.63599 63.70245 60.16922
# Shear Modulus (GPa) = 36.44812 -224.75774 -94.15481
#
# Velocity S-wave (km/s) = 4.15251 -10.31171 -6.67413
# Velocity P-wave (km/s) = 7.05587 10.56589 5.56115
#
# Compressibility (1/GPa) = 0.01765662
#
# Stress axis : x y z
#
# Youngs Moduli (GPa) = 92.34640 98.05722 66.31197
#
# Poissons Ratio (x) = 0.43146 0.11838
# Poissons Ratio (y) = 0.40633 0.20159
# Poissons Ratio (z) = 0.16485 0.29810
#
# Static dielectric constant tensor:
#      x y z
#    x 1.783250 0.000000 0.000000 
#    y 0.000000 1.828080 0.000000 
#    z 0.000000 0.000000 1.763510 
# 
# From -- ./inp_files/8745.got.cif
#   From: 2010.05.17/outbox.cif.g08.bks.cpg/sg63_5_cif.got.tgz:8745.got - 2010.06.03 15:47:04.
