data_PCOD9474226
_publ_section_title
;
Structure prediction by ZEFSAII (Michael W. Deem and Ramdas Pophale) SiO2 
 PCOD9474226
Probable space group: C M C M
;
_chemical_formula_sum "Si O2"
_cell_formula_units_Z 92
_cell_length_a 21.665112
_cell_length_b 8.731483
_cell_length_c 23.505723
_cell_angle_alpha 90.000000
_cell_angle_beta 90.000000
_cell_angle_gamma 90.000000
_cell_volume 4446.543704
_symmetry_space_group_name_H-M "C M C M"
_symmetry_group_IT_number 63
_symmetry_cell_setting 'orthorhombic'
loop_
_space_group_symop_operation_xyz
x,y,z
-x,-y,1/2+z
x,-y,-z
-x,y,1/2-z
-x,-y,-z
x,y,1/2-z
-x,y,z
x,-y,1/2+z
1/2+x,1/2+y,z
1/2-x,1/2-y,1/2+z
1/2+x,1/2-y,-z
1/2-x,1/2+y,1/2-z
1/2-x,1/2-y,-z
1/2+x,1/2+y,1/2-z
1/2-x,1/2+y,z
1/2+x,1/2-y,1/2+z
loop_
_atom_site_type_symbol
_atom_site_label
_atom_site_fract_x
_atom_site_fract_y
_atom_site_fract_z
Si Si1 0.704058 0.020013 0.250000
Si Si2 0.199910 0.717718 0.549973
Si Si3 0.109358 0.968772 0.154888
Si Si4 0.880516 0.222432 0.250000
Si Si5 0.500000 0.061363 0.750000
Si Si6 0.409443 0.232030 0.250000
Si Si7 0.262744 0.506001 0.373521
Si Si8 0.431443 0.362025 0.544413
O O1 0.668860 0.857407 0.250000
O O2 0.739563 0.020755 0.309588
O O3 0.660530 0.169857 0.250000
O O4 0.250000 0.750000 0.500000
O O5 0.213722 0.558010 0.580934
O O6 0.128010 0.751686 0.536026
O O7 0.215286 0.835656 0.600194
O O8 0.080000 0.837410 0.194290
O O9 0.173855 0.907384 0.128586
O O10 0.124974 0.108946 0.196902
O O11 0.072101 0.049548 0.104706
O O12 0.946001 0.306981 0.250000
O O13 0.552161 0.923081 0.750000
O O14 0.425333 0.500000 0.500000
O O15 0.500000 0.290523 0.538681
#
# Coordination Sequence:
#
# PCOD9474226 Si02
#       8
#     8  16  16   8   4   8  16  16
#     4  11  20  35  54  88 135 154 191 267 319 383
#     4  11  22  40  64  92 125 163 215 269 317 376
#     4  10  21  37  62  90 116 162 211 255 300 374
#     4  10  22  38  57  86 123 168 208 246 308 383
#     4  10  24  38  52  84 118 160 208 238 312 368
#     4  10  22  36  57  88 121 159 203 252 314 360
#     4  11  22  36  62  94 123 163 204 256 328 371
#     4  10  22  39  61  93 122 161 216 262 308 368
#
# _framework density 20.690227
#
# number of rings (size 3 to 8) (size 9 to 14) (size 15 to 20)
#    0.000    1.565    0.000    6.783    2.435    2.783 
#    0.000    0.000    0.000    2.087    0.000    0.000 
#    0.000    0.000    0.000    0.000    0.000    0.000 
#
# Total GULP energy -256137.320674 kJ/mol
# GULP energy per Si atom -5568.202623 kJ/mol
# Density = 2.064314 g / cm^3
# Si number density = 20.690227 Si / 1000 Ang^3
#
#
#
# Elastic Constant Matrix: (Units=GPa)
#
#
# Indices 1 2 3 4 5 6 
#
# 1 145.5014 18.5141 14.4839 0.0000 0.0000 0.0000
# 2 18.5141 58.5477 -0.1288 0.0000 0.0000 0.0000
# 3 14.4839 -0.1288 94.1952 0.0000 0.0000 0.0000
# 4 0.0000 0.0000 0.0000 21.2482 0.0000 0.0000
# 5 0.0000 0.0000 0.0000 0.0000 37.7050 0.0000
# 6 0.0000 0.0000 0.0000 0.0000 0.0000 28.1393
#
#
#
# Elastic Compliance Matrix: (Units=1/GPa)
#
#
# Indices 1 2 3 4 5 6 
#
# 1 0.007278 -0.002304 -0.001122 0.000000 0.000000 0.000000
# 2 -0.002304 0.017809 0.000379 0.000000 0.000000 0.000000
# 3 -0.001122 0.000379 0.010789 0.000000 0.000000 0.000000
# 4 0.000000 0.000000 0.000000 0.047063 0.000000 0.000000
# 5 0.000000 0.000000 0.000000 0.000000 0.026522 0.000000
# 6 0.000000 0.000000 0.000000 0.000000 0.000000 0.035537
#
#
# Mechanical properties :
#
#
# Convention : Reuss Voigt Hill
#
# Bulk Modulus (GPa) = 33.57783 40.44254 37.01018
# Shear Modulus (GPa) = 31.05195 35.11016 33.08105
#
# Velocity S-wave (km/s) = 3.87822 4.12387 4.00293
# Velocity P-wave (km/s) = 6.02646 6.50109 6.26827
#
# Compressibility (1/GPa) = 0.02978156
#
# Stress axis : x y z
#
# Youngs Moduli (GPa) = 137.40713 56.14996 92.68425
#
# Poissons Ratio (x) = 0.12936 0.10401
# Poissons Ratio (y) = 0.31656 -0.03509
# Poissons Ratio (z) = 0.15420 -0.02126
#
# Static dielectric constant tensor:
#      x y z
#    x 1.862320 0.000000 0.000000 
#    y 0.000000 1.735070 0.000000 
#    z 0.000000 0.000000 1.722860 
# 
# From -- ./inp_files/65056.got.cif
#   From: 2010.05.17/outbox.cif.g08.bks.cpg/sg63_33_cif.got.tgz:65056.got - 2010.06.03 15:47:04.
