data_PCOD9474147
_publ_section_title
;
Structure prediction by ZEFSAII (Michael W. Deem and Ramdas Pophale) SiO2 
 PCOD9474147
Probable space group: C M C M
;
_chemical_formula_sum "Si O2"
_cell_formula_units_Z 104
_cell_length_a 21.812727
_cell_length_b 27.594505
_cell_length_c 9.047409
_cell_angle_alpha 90.000000
_cell_angle_beta 90.000000
_cell_angle_gamma 90.000000
_cell_volume 5445.738656
_symmetry_space_group_name_H-M "C M C M"
_symmetry_group_IT_number 63
_symmetry_cell_setting 'orthorhombic'
loop_
_space_group_symop_operation_xyz
x,y,z
-x,-y,1/2+z
x,-y,-z
-x,y,1/2-z
-x,-y,-z
x,y,1/2-z
-x,y,z
x,-y,1/2+z
1/2+x,1/2+y,z
1/2-x,1/2-y,1/2+z
1/2+x,1/2-y,-z
1/2-x,1/2+y,1/2-z
1/2-x,1/2-y,-z
1/2+x,1/2+y,1/2-z
1/2-x,1/2+y,z
1/2+x,1/2-y,1/2+z
loop_
_atom_site_type_symbol
_atom_site_label
_atom_site_fract_x
_atom_site_fract_y
_atom_site_fract_z
Si Si1 0.000000 0.947947 0.425800
Si Si2 0.571230 0.280167 0.427642
Si Si3 0.898550 0.882600 0.574383
Si Si4 0.829795 0.610801 0.071648
Si Si5 0.573205 0.949405 0.421958
Si Si6 0.784796 0.050403 0.074795
Si Si7 0.193668 0.720752 0.427657
O O1 0.057588 0.918317 0.485380
O O2 0.000000 0.951579 0.250000
O O3 0.000000 0.000000 0.500000
O O4 0.572614 0.288282 0.250000
O O5 0.500000 0.266961 0.464256
O O6 0.589477 0.329394 0.511405
O O7 0.626122 0.242677 0.462222
O O8 0.911781 0.883676 0.750000
O O9 0.831412 0.905066 0.551546
O O10 0.834024 0.610246 0.250000
O O11 0.780932 0.570022 0.024419
O O12 0.807348 0.664275 0.028363
O O13 0.893426 0.594992 0.000896
O O14 0.590153 0.951551 0.250000
O O15 0.500000 0.944548 0.433370
O O16 0.590376 0.000000 0.500000
O O17 0.782836 0.041617 0.250000
O O18 0.803079 0.000000 0.000000
O O19 0.201340 0.723330 0.250000
O O20 0.250000 0.750000 0.500000
#
# Coordination Sequence:
#
# PCOD9474147 Si02
#       7
#     8  16  16  16  16  16  16
#     4  12  24  38  56  82 116 152 194 242 287 340
#     4  10  21  38  60  87 118 154 198 248 301 359
#     4  11  22  38  59  84 114 152 196 240 294 349
#     4  10  21  38  59  85 117 154 195 241 293 352
#     4  10  21  37  58  86 119 154 193 238 290 353
#     4  10  22  37  55  82 115 150 192 239 287 346
#     4  10  22  40  62  88 119 157 201 250 305 360
#
# _framework density 19.097501999999999
#
# number of rings (size 3 to 8) (size 9 to 14) (size 15 to 20)
#    0.000    1.692    0.769    3.462    0.000    8.308 
#    0.000    1.538    0.000    0.000    0.000    0.000 
#    0.000    0.000    0.000    0.000    0.000    0.000 
#
# Total GULP energy -290337.142526 kJ/mol
# GULP energy per Si atom -5583.406587 kJ/mol
# Density = 1.905404 g / cm^3
# Si number density = 19.097502 Si / 1000 Ang^3
#
#
#
# Elastic Constant Matrix: (Units=GPa)
#
#
# Indices 1 2 3 4 5 6 
#
# 1 80.7704 35.9463 37.3855 0.0000 0.0000 0.0000
# 2 35.9463 74.5706 24.3547 0.0000 0.0000 0.0000
# 3 37.3855 24.3547 44.4355 0.0000 0.0000 0.0000
# 4 0.0000 0.0000 0.0000 29.7738 0.0000 0.0000
# 5 0.0000 0.0000 0.0000 0.0000 48.7310 0.0000
# 6 0.0000 0.0000 0.0000 0.0000 0.0000 33.3197
#
#
#
# Elastic Compliance Matrix: (Units=1/GPa)
#
#
# Indices 1 2 3 4 5 6 
#
# 1 0.022019 -0.005559 -0.015479 0.000000 0.000000 0.000000
# 2 -0.005559 0.017737 -0.005045 0.000000 0.000000 0.000000
# 3 -0.015479 -0.005045 0.038293 0.000000 0.000000 0.000000
# 4 0.000000 0.000000 0.000000 0.033587 0.000000 0.000000
# 5 0.000000 0.000000 0.000000 0.000000 0.020521 0.000000
# 6 0.000000 0.000000 0.000000 0.000000 0.000000 0.030012
#
#
# Mechanical properties :
#
#
# Convention : Reuss Voigt Hill
#
# Bulk Modulus (GPa) = 38.63388 43.90550 41.26969
# Shear Modulus (GPa) = 22.42529 29.17091 25.79810
#
# Velocity S-wave (km/s) = 3.43045 3.91253 3.67940
# Velocity P-wave (km/s) = 5.99703 6.59171 6.30139
#
# Compressibility (1/GPa) = 0.02588402
#
# Stress axis : x y z
#
# Youngs Moduli (GPa) = 45.41463 56.37823 26.11459
#
# Poissons Ratio (x) = 0.31340 0.40423
# Poissons Ratio (y) = 0.25245 0.13174
# Poissons Ratio (z) = 0.70298 0.28442
#
# Static dielectric constant tensor:
#      x y z
#    x 1.723330 0.000000 0.000000 
#    y 0.000000 1.616920 0.000000 
#    z 0.000000 0.000000 1.636080 
# 
# From -- ./inp_files/8802.got.cif
#   From: 2010.05.17/outbox.cif.g08.bks.cpg/sg63_5_cif.got.tgz:8802.got - 2010.06.03 15:47:04.
