data_PCOD9474878
_publ_section_title
;
Structure prediction by ZEFSAII (Michael W. Deem and Ramdas Pophale) SiO2 
 PCOD9474878
Probable space group: C M C M
;
_chemical_formula_sum "Si O2"
_cell_formula_units_Z 96
_cell_length_a 22.968241
_cell_length_b 15.441458
_cell_length_c 13.205522
_cell_angle_alpha 90.000000
_cell_angle_beta 90.000000
_cell_angle_gamma 90.000000
_cell_volume 4683.511749
_symmetry_space_group_name_H-M "C M C M"
_symmetry_group_IT_number 63
_symmetry_cell_setting 'orthorhombic'
loop_
_space_group_symop_operation_xyz
x,y,z
-x,-y,1/2+z
x,-y,-z
-x,y,1/2-z
-x,-y,-z
x,y,1/2-z
-x,y,z
x,-y,1/2+z
1/2+x,1/2+y,z
1/2-x,1/2-y,1/2+z
1/2+x,1/2-y,-z
1/2-x,1/2+y,1/2-z
1/2-x,1/2-y,-z
1/2+x,1/2+y,1/2-z
1/2-x,1/2+y,z
1/2+x,1/2-y,1/2+z
loop_
_atom_site_type_symbol
_atom_site_label
_atom_site_fract_x
_atom_site_fract_y
_atom_site_fract_z
Si Si1 0.500000 0.400695 0.465967
Si Si2 0.873825 0.875868 0.129926
Si Si3 0.500000 0.755965 0.128128
Si Si4 0.652470 0.949826 0.865430
Si Si5 0.387380 0.867650 0.427658
Si Si6 0.187445 0.221167 0.036005
Si Si7 0.210340 0.037707 0.130286
O O1 0.500000 0.500000 0.500000
O O2 0.559363 0.389379 0.402284
O O3 0.500000 0.332024 0.560031
O O4 0.869211 0.862876 0.250000
O O5 0.850845 0.796195 0.063773
O O6 0.831017 0.956916 0.100881
O O7 0.500000 0.738804 0.250000
O O8 0.554683 0.815264 0.096799
O O9 0.650348 0.915443 0.750000
O O10 0.720574 0.966930 0.893859
O O11 0.620152 0.042237 0.870135
O O12 0.623585 0.892858 0.954129
O O13 0.337431 0.799513 0.399028
O O14 0.250000 0.250000 0.000000
O O15 0.188113 0.130340 0.093188
O O16 0.207508 0.037537 0.250000
#
# Coordination Sequence:
#
# PCOD9474878 Si02
#       7
#     8  16   8  16  16  16  16
#     4  12  25  49  71  97 132 183 227 276 324 398
#     4  11  25  43  66  96 135 179 224 270 329 396
#     4  12  28  50  71 101 137 176 227 283 338 403
#     4  10  22  43  69  98 136 179 226 278 346 410
#     4  11  24  43  68  97 132 176 228 280 339 397
#     4  12  22  38  66  98 136 173 220 279 339 396
#     4  10  22  39  63  98 137 178 221 272 336 405
#
# _framework density 20.497439
#
# number of rings (size 3 to 8) (size 9 to 14) (size 15 to 20)
#    0.000    1.000    3.333    3.250    2.333    4.667 
#    0.000    1.250    0.000    0.000    0.000    0.000 
#    0.000    0.000    0.000    0.000    0.000    0.000 
#
# Total GULP energy -268022.670659 kJ/mol
# GULP energy per Si atom -5583.805639 kJ/mol
# Density = 2.045079 g / cm^3
# Si number density = 20.497439 Si / 1000 Ang^3
#
#
#
# Elastic Constant Matrix: (Units=GPa)
#
#
# Indices 1 2 3 4 5 6 
#
# 1 88.4267 7.9083 -3.1445 0.0000 0.0000 0.0000
# 2 7.9083 107.4099 10.7129 0.0000 0.0000 0.0000
# 3 -3.1445 10.7129 100.7573 0.0000 0.0000 0.0000
# 4 0.0000 0.0000 0.0000 17.5312 0.0000 0.0000
# 5 0.0000 0.0000 0.0000 0.0000 27.4059 0.0000
# 6 0.0000 0.0000 0.0000 0.0000 0.0000 49.6935
#
#
#
# Elastic Compliance Matrix: (Units=1/GPa)
#
#
# Indices 1 2 3 4 5 6 
#
# 1 0.011404 -0.000885 0.000450 0.000000 0.000000 0.000000
# 2 -0.000885 0.009479 -0.001035 0.000000 0.000000 0.000000
# 3 0.000450 -0.001035 0.010049 0.000000 0.000000 0.000000
# 4 0.000000 0.000000 0.000000 0.057041 0.000000 0.000000
# 5 0.000000 0.000000 0.000000 0.000000 0.036488 0.000000
# 6 0.000000 0.000000 0.000000 0.000000 0.000000 0.020123
#
#
# Mechanical properties :
#
#
# Convention : Reuss Voigt Hill
#
# Bulk Modulus (GPa) = 35.72518 36.39415 36.05966
# Shear Modulus (GPa) = 31.87661 37.66726 34.77193
#
# Velocity S-wave (km/s) = 3.94782 4.29144 4.12321
# Velocity P-wave (km/s) = 6.18444 6.50763 6.34809
#
# Compressibility (1/GPa) = 0.02799146
#
# Stress axis : x y z
#
# Youngs Moduli (GPa) = 87.68920 105.50163 99.51268
#
# Poissons Ratio (x) = 0.09332 -0.04478
# Poissons Ratio (y) = 0.07756 0.10304
# Poissons Ratio (z) = -0.03946 0.10924
#
# Static dielectric constant tensor:
#      x y z
#    x 1.701320 0.000000 0.000000 
#    y 0.000000 1.519850 0.000000 
#    z 0.000000 0.000000 1.767320 
# 
# From -- ./inp_files/35424.got.cif
#   From: 2010.05.17/outbox.cif.g08.bks.cpg/sg63_18_cif.got.tgz:35424.got - 2010.06.03 15:47:04.
