data_PCOD9474238
_publ_section_title
;
Structure prediction by ZEFSAII (Michael W. Deem and Ramdas Pophale) SiO2 
 PCOD9474238
Probable space group: C M C M
;
_chemical_formula_sum "Si O2"
_cell_formula_units_Z 64
_cell_length_a 31.960435
_cell_length_b 11.049183
_cell_length_c 10.224856
_cell_angle_alpha 90.000000
_cell_angle_beta 90.000000
_cell_angle_gamma 90.000000
_cell_volume 3610.771855
_symmetry_space_group_name_H-M "C M C M"
_symmetry_group_IT_number 63
_symmetry_cell_setting 'orthorhombic'
loop_
_space_group_symop_operation_xyz
x,y,z
-x,-y,1/2+z
x,-y,-z
-x,y,1/2-z
-x,-y,-z
x,y,1/2-z
-x,y,z
x,-y,1/2+z
1/2+x,1/2+y,z
1/2-x,1/2-y,1/2+z
1/2+x,1/2-y,-z
1/2-x,1/2+y,1/2-z
1/2-x,1/2-y,-z
1/2+x,1/2+y,1/2-z
1/2-x,1/2+y,z
1/2+x,1/2-y,1/2+z
loop_
_atom_site_type_symbol
_atom_site_label
_atom_site_fract_x
_atom_site_fract_y
_atom_site_fract_z
Si Si1 0.814397 0.500000 0.000000
Si Si2 0.173321 0.106071 0.750000
Si Si3 0.271706 0.882604 0.250000
Si Si4 0.548084 0.888458 0.598857
Si Si5 0.340139 0.679727 0.250000
Si Si6 0.130502 0.262038 0.528479
O O1 0.786555 0.544703 0.878597
O O2 0.843807 0.388006 0.958269
O O3 0.222409 0.136523 0.750000
O O4 0.151527 0.165284 0.624051
O O5 0.168391 0.962161 0.750000
O O6 0.297005 0.756355 0.250000
O O7 0.553650 0.927721 0.750000
O O8 0.500000 0.846769 0.584128
O O9 0.582918 0.789326 0.567109
O O10 0.554367 0.000000 0.500000
O O11 0.364616 0.719341 0.379800
#
# Coordination Sequence:
#
# PCOD9474238 Si02
#       6
#     8   8   8  16   8  16
#     4  10  22  38  61  88 120 150 203 248 312 362
#     4  12  25  40  62  82 121 167 209 245 304 356
#     4  10  25  38  59  85 118 158 206 263 297 353
#     4  10  21  37  63  97 128 154 194 249 310 370
#     4  10  26  40  57  89 119 163 211 248 297 367
#     4  11  22  40  64  88 123 162 194 255 308 362
#
# _framework density 17.724743
#
# number of rings (size 3 to 8) (size 9 to 14) (size 15 to 20)
#    0.000    1.500    2.500    1.500    8.750    2.000 
#    0.000    0.000    0.000    4.500    0.000    0.000 
#    0.000    0.000    0.000    0.000    0.000    0.000 
#
# Total GULP energy -178821.265874 kJ/mol
# GULP energy per Si atom -5588.164559 kJ/mol
# Density = 1.768440 g / cm^3
# Si number density = 17.724743 Si / 1000 Ang^3
#
#
#
# Elastic Constant Matrix: (Units=GPa)
#
#
# Indices 1 2 3 4 5 6 
#
# 1 141.1451 56.3720 80.3191 0.0000 0.0000 0.0000
# 2 56.3720 121.2568 67.7808 0.0000 0.0000 0.0000
# 3 80.3191 67.7808 147.7385 0.0000 0.0000 0.0000
# 4 0.0000 0.0000 0.0000 28.0491 0.0000 0.0000
# 5 0.0000 0.0000 0.0000 0.0000 46.8444 0.0000
# 6 0.0000 0.0000 0.0000 0.0000 0.0000 12.5659
#
#
#
# Elastic Compliance Matrix: (Units=1/GPa)
#
#
# Indices 1 2 3 4 5 6 
#
# 1 0.010724 -0.002322 -0.004765 0.000000 0.000000 0.000000
# 2 -0.002322 0.011594 -0.004057 0.000000 0.000000 0.000000
# 3 -0.004765 -0.004057 0.011220 0.000000 0.000000 0.000000
# 4 0.000000 0.000000 0.000000 0.035652 0.000000 0.000000
# 5 0.000000 0.000000 0.000000 0.000000 0.021347 0.000000
# 6 0.000000 0.000000 0.000000 0.000000 0.000000 0.079581
#
#
# Mechanical properties :
#
#
# Convention : Reuss Voigt Hill
#
# Bulk Modulus (GPa) = 88.88110 91.00935 89.94522
# Shear Modulus (GPa) = 25.48999 31.20312 28.34655
#
# Velocity S-wave (km/s) = 3.79635 4.20030 4.00342
# Velocity P-wave (km/s) = 8.33489 8.65914 8.49856
#
# Compressibility (1/GPa) = 0.01125099
#
# Stress axis : x y z
#
# Youngs Moduli (GPa) = 93.25180 86.24989 89.12391
#
# Poissons Ratio (x) = 0.20027 0.42465
# Poissons Ratio (y) = 0.21653 0.36157
# Poissons Ratio (z) = 0.44431 0.34991
#
# Static dielectric constant tensor:
#      x y z
#    x 1.590380 0.000000 0.000000 
#    y 0.000000 1.576770 0.000000 
#    z 0.000000 0.000000 1.604350 
# 
# From -- ./inp_files/25532.got.cif
#   From: 2010.05.17/outbox.cif.g08.bks.cpg/sg63_13_cif.got.tgz:25532.got - 2010.06.03 15:47:04.
