data_PCOD9474605
_publ_section_title
;
Structure prediction by ZEFSAII (Michael W. Deem and Ramdas Pophale) SiO2 
 PCOD9474605
Probable space group: C M C M
;
_chemical_formula_sum "Si O2"
_cell_formula_units_Z 76
_cell_length_a 11.880937
_cell_length_b 23.398801
_cell_length_c 14.640538
_cell_angle_alpha 90.000000
_cell_angle_beta 90.000000
_cell_angle_gamma 90.000000
_cell_volume 4070.064887
_symmetry_space_group_name_H-M "C M C M"
_symmetry_group_IT_number 63
_symmetry_cell_setting 'orthorhombic'
loop_
_space_group_symop_operation_xyz
x,y,z
-x,-y,1/2+z
x,-y,-z
-x,y,1/2-z
-x,-y,-z
x,y,1/2-z
-x,y,z
x,-y,1/2+z
1/2+x,1/2+y,z
1/2-x,1/2-y,1/2+z
1/2+x,1/2-y,-z
1/2-x,1/2+y,1/2-z
1/2-x,1/2-y,-z
1/2+x,1/2+y,1/2-z
1/2-x,1/2+y,z
1/2+x,1/2-y,1/2+z
loop_
_atom_site_type_symbol
_atom_site_label
_atom_site_fract_x
_atom_site_fract_y
_atom_site_fract_z
Si Si1 0.628887 0.586292 0.354788
Si Si2 0.500000 0.807434 0.750000
Si Si3 0.133913 0.428855 0.352540
Si Si4 0.289938 0.193850 0.387254
Si Si5 0.274522 0.500000 0.500000
Si Si6 0.866936 0.701603 0.597506
O O1 0.642909 0.565339 0.250000
O O2 0.500000 0.606356 0.364101
O O3 0.715311 0.637702 0.370865
O O4 0.653655 0.538792 0.430978
O O5 0.598899 0.807520 0.827873
O O6 0.166336 0.448248 0.250000
O O7 0.198652 0.460778 0.433354
O O8 0.152548 0.360744 0.359435
O O9 0.000000 0.438605 0.363031
O O10 0.211583 0.248308 0.364318
O O11 0.330161 0.196599 0.491964
O O12 0.000000 0.714928 0.605821
#
# Coordination Sequence:
#
# PCOD9474605 Si02
#       6
#    16   4  16  16   8  16
#     4  11  24  42  65  92 125 168 220 266 323 387
#     4  12  24  40  66 102 138 154 212 268 316 384
#     4  10  22  39  61  92 125 167 213 263 322 381
#     4  11  22  40  64  97 127 165 204 262 326 380
#     4  12  22  42  62  90 126 169 221 276 316 368
#     4  10  21  40  65  90 129 167 208 255 321 390
#
# _framework density 18.672920999999999
#
# number of rings (size 3 to 8) (size 9 to 14) (size 15 to 20)
#    0.000    1.263    4.211    1.895    1.474    0.000 
#    1.895    0.000    0.000    0.000    0.000    0.000 
#    0.000    0.000    0.000    0.000    0.000    0.000 
#
# Total GULP energy -211700.031266 kJ/mol
# GULP energy per Si atom -5571.053454 kJ/mol
# Density = 1.863042 g / cm^3
# Si number density = 18.672921 Si / 1000 Ang^3
#
#
#
# Elastic Constant Matrix: (Units=GPa)
#
#
# Indices 1 2 3 4 5 6 
#
# 1 157.9050 71.1028 64.7448 0.0000 0.0000 0.0000
# 2 71.1028 79.4056 43.0173 0.0000 0.0000 0.0000
# 3 64.7448 43.0173 123.1431 0.0000 0.0000 0.0000
# 4 0.0000 0.0000 0.0000 -11.2658 0.0000 0.0000
# 5 0.0000 0.0000 0.0000 0.0000 44.4970 0.0000
# 6 0.0000 0.0000 0.0000 0.0000 0.0000 13.6893
#
#
#
# Elastic Compliance Matrix: (Units=1/GPa)
#
#
# Indices 1 2 3 4 5 6 
#
# 1 0.011448 -0.008622 -0.003007 0.000000 0.000000 0.000000
# 2 -0.008622 0.022027 -0.003161 0.000000 0.000000 0.000000
# 3 -0.003007 -0.003161 0.010806 0.000000 0.000000 0.000000
# 4 0.000000 0.000000 0.000000 -0.088765 0.000000 0.000000
# 5 0.000000 0.000000 0.000000 0.000000 0.022473 0.000000
# 6 0.000000 0.000000 0.000000 0.000000 0.000000 0.073050
#
#
# Mechanical properties :
#
#
# Convention : Reuss Voigt Hill
#
# Bulk Modulus (GPa) = 68.02800 79.79815 73.91307
# Shear Modulus (GPa) = 58.46501 21.49004 39.97753
#
# Velocity S-wave (km/s) = 5.60161 3.39612 4.63204
# Velocity P-wave (km/s) = 8.85143 7.62926 8.26297
#
# Compressibility (1/GPa) = 0.01469983
#
# Stress axis : x y z
#
# Youngs Moduli (GPa) = 87.34809 45.39922 92.54051
#
# Poissons Ratio (x) = 0.39144 0.27829
# Poissons Ratio (y) = 0.75313 0.29255
# Poissons Ratio (z) = 0.26268 0.14352
#
# Static dielectric constant tensor:
#      x y z
#    x 1.598460 0.000000 0.000000 
#    y 0.000000 1.640760 0.000000 
#    z 0.000000 0.000000 1.651240 
# 
# From -- ./inp_files/29749.got.cif
#   From: 2010.05.17/outbox.cif.g08.bks.cpg/sg63_15_cif.got.tgz:29749.got - 2010.06.03 15:47:04.
