data_PCOD9474437
_publ_section_title
;
Structure prediction by ZEFSAII (Michael W. Deem and Ramdas Pophale) SiO2 
 PCOD9474437
Probable space group: C M C M
;
_chemical_formula_sum "Si O2"
_cell_formula_units_Z 84
_cell_length_a 20.174168
_cell_length_b 12.013786
_cell_length_c 18.283965
_cell_angle_alpha 90.000000
_cell_angle_beta 90.000000
_cell_angle_gamma 90.000000
_cell_volume 4431.450535
_symmetry_space_group_name_H-M "C M C M"
_symmetry_group_IT_number 63
_symmetry_cell_setting 'orthorhombic'
loop_
_space_group_symop_operation_xyz
x,y,z
-x,-y,1/2+z
x,-y,-z
-x,y,1/2-z
-x,-y,-z
x,y,1/2-z
-x,y,z
x,-y,1/2+z
1/2+x,1/2+y,z
1/2-x,1/2-y,1/2+z
1/2+x,1/2-y,-z
1/2-x,1/2+y,1/2-z
1/2-x,1/2-y,-z
1/2+x,1/2+y,1/2-z
1/2-x,1/2+y,z
1/2+x,1/2-y,1/2+z
loop_
_atom_site_type_symbol
_atom_site_label
_atom_site_fract_x
_atom_site_fract_y
_atom_site_fract_z
Si Si1 0.500000 0.128387 0.750000
Si Si2 0.425313 0.177288 0.043959
Si Si3 0.423414 0.437805 0.077180
Si Si4 0.171801 0.908767 0.663518
Si Si5 0.803356 0.473945 0.584229
Si Si6 0.388837 0.169944 0.873964
O O1 0.442090 0.134031 0.814208
O O2 0.500000 0.143262 0.064997
O O3 0.415731 0.306315 0.064919
O O4 0.368742 0.102760 0.080111
O O5 0.417696 0.166137 0.956415
O O6 0.500000 0.459643 0.098574
O O7 0.373174 0.489713 0.134710
O O8 0.412142 0.500000 0.000000
O O9 0.179899 0.913370 0.750000
O O10 0.242372 0.916471 0.623860
O O11 0.134602 0.795012 0.642332
O O12 0.784658 0.500000 0.500000
O O13 0.826080 0.586927 0.623936
#
# Coordination Sequence:
#
# PCOD9474437 Si02
#       6
#     4  16  16  16  16  16
#     4  12  24  40  66 102 134 164 210 268 330 390
#     4  10  21  42  68  96 124 162 220 268 315 373
#     4  10  21  38  67  94 124 166 211 263 318 377
#     4  12  26  41  62  91 133 169 211 266 322 393
#     4  10  26  43  65  93 128 171 219 263 321 381
#     4  11  24  40  68  95 125 170 209 268 321 379
#
# _framework density 18.95542
#
# number of rings (size 3 to 8) (size 9 to 14) (size 15 to 20)
#    0.000    1.333    3.810    0.571    6.667    3.048 
#    0.000    0.000    0.000    1.143    0.000    0.000 
#    0.000    0.000    0.000    0.000    0.000    0.000 
#
# Total GULP energy -234239.445101 kJ/mol
# GULP energy per Si atom -5577.129645 kJ/mol
# Density = 1.891228 g / cm^3
# Si number density = 18.955420 Si / 1000 Ang^3
#
#
#
# Elastic Constant Matrix: (Units=GPa)
#
#
# Indices 1 2 3 4 5 6 
#
# 1 66.5829 4.3606 34.4581 0.0000 0.0000 0.0000
# 2 4.3606 34.5686 9.9640 0.0000 0.0000 0.0000
# 3 34.4581 9.9640 49.7165 0.0000 0.0000 0.0000
# 4 0.0000 0.0000 0.0000 4.7546 0.0000 0.0000
# 5 0.0000 0.0000 0.0000 0.0000 18.2887 0.0000
# 6 0.0000 0.0000 0.0000 0.0000 0.0000 9.9485
#
#
#
# Elastic Compliance Matrix: (Units=1/GPa)
#
#
# Indices 1 2 3 4 5 6 
#
# 1 0.023529 0.001839 -0.016676 0.000000 0.000000 0.000000
# 2 0.001839 0.030845 -0.007456 0.000000 0.000000 0.000000
# 3 -0.016676 -0.007456 0.033166 0.000000 0.000000 0.000000
# 4 0.000000 0.000000 0.000000 0.210324 0.000000 0.000000
# 5 0.000000 0.000000 0.000000 0.000000 0.054679 0.000000
# 6 0.000000 0.000000 0.000000 0.000000 0.000000 0.100518
#
#
# Mechanical properties :
#
#
# Convention : Reuss Voigt Hill
#
# Bulk Modulus (GPa) = 23.28120 27.60370 25.44245
# Shear Modulus (GPa) = 9.76627 13.40403 11.58515
#
# Velocity S-wave (km/s) = 2.27232 2.66208 2.47489
# Velocity P-wave (km/s) = 4.38102 4.90336 4.64953
#
# Compressibility (1/GPa) = 0.04295312
#
# Stress axis : x y z
#
# Youngs Moduli (GPa) = 42.50137 32.41988 30.15099
#
# Poissons Ratio (x) = -0.05961 0.50280
# Poissons Ratio (y) = -0.07815 0.22481
# Poissons Ratio (z) = 0.70875 0.24173
#
# Static dielectric constant tensor:
#      x y z
#    x 1.648470 0.000000 0.000000 
#    y 0.000000 1.660400 0.000000 
#    z 0.000000 0.000000 1.624330 
# 
# From -- ./inp_files/46824.got.cif
#   From: 2010.05.17/outbox.cif.g08.bks.cpg/sg63_24_cif.got.tgz:46824.got - 2010.06.03 15:47:04.
