data_PCOD9474821
_publ_section_title
;
Structure prediction by ZEFSAII (Michael W. Deem and Ramdas Pophale) SiO2 
 PCOD9474821
Probable space group: C M C M
;
_chemical_formula_sum "Si O2"
_cell_formula_units_Z 64
_cell_length_a 21.172945
_cell_length_b 20.066345
_cell_length_c 8.651239
_cell_angle_alpha 90.000000
_cell_angle_beta 90.000000
_cell_angle_gamma 90.000000
_cell_volume 3675.596711
_symmetry_space_group_name_H-M "C M C M"
_symmetry_group_IT_number 63
_symmetry_cell_setting 'orthorhombic'
loop_
_space_group_symop_operation_xyz
x,y,z
-x,-y,1/2+z
x,-y,-z
-x,y,1/2-z
-x,-y,-z
x,y,1/2-z
-x,y,z
x,-y,1/2+z
1/2+x,1/2+y,z
1/2-x,1/2-y,1/2+z
1/2+x,1/2-y,-z
1/2-x,1/2+y,1/2-z
1/2-x,1/2-y,-z
1/2+x,1/2+y,1/2-z
1/2-x,1/2+y,z
1/2+x,1/2-y,1/2+z
loop_
_atom_site_type_symbol
_atom_site_label
_atom_site_fract_x
_atom_site_fract_y
_atom_site_fract_z
Si Si1 0.877601 0.070124 0.934057
Si Si2 0.235410 0.428973 0.565242
Si Si3 0.570542 0.704616 0.435541
Si Si4 0.308999 0.792347 0.435919
O O1 0.872820 0.066035 0.750000
O O2 0.807304 0.079427 0.004278
O O3 0.917578 0.133618 0.985252
O O4 0.902341 0.000000 0.000000
O O5 0.212859 0.500000 0.500000
O O6 0.236346 0.430023 0.750000
O O7 0.196401 0.366344 0.503407
O O8 0.575113 0.695148 0.250000
O O9 0.500000 0.729006 0.471368
O O10 0.626372 0.754960 0.480377
O O11 0.304888 0.794678 0.250000
O O12 0.250000 0.750000 0.500000
#
# Coordination Sequence:
#
# PCOD9474821 Si02
#       4
#    16  16  16  16
#     4  11  21  34  54  79 111 148 188 229 274 329
#     4  11  21  35  56  83 114 145 183 231 280 332
#     4  10  22  39  57  79 111 150 189 228 274 329
#     4  11  21  35  58  85 113 146 185 230 279 328
#
# _framework density 17.412139
#
# number of rings (size 3 to 8) (size 9 to 14) (size 15 to 20)
#    0.000    1.250    2.500    6.750    0.000    2.000 
#    0.000    0.000    0.000    0.750    0.000    0.000 
#    0.000    0.000    0.000    0.000    0.000    0.000 
#
# Total GULP energy -178842.268702 kJ/mol
# GULP energy per Si atom -5588.820897 kJ/mol
# Density = 1.737251 g / cm^3
# Si number density = 17.412139 Si / 1000 Ang^3
#
#
#
# Elastic Constant Matrix: (Units=GPa)
#
#
# Indices 1 2 3 4 5 6 
#
# 1 111.7637 73.2654 52.5936 0.0000 0.0000 0.0000
# 2 73.2654 140.4147 53.1601 0.0000 0.0000 0.0000
# 3 52.5936 53.1601 97.1900 0.0000 0.0000 0.0000
# 4 0.0000 0.0000 0.0000 31.8719 0.0000 0.0000
# 5 0.0000 0.0000 0.0000 0.0000 16.2515 0.0000
# 6 0.0000 0.0000 0.0000 0.0000 0.0000 22.8446
#
#
#
# Elastic Compliance Matrix: (Units=1/GPa)
#
#
# Indices 1 2 3 4 5 6 
#
# 1 0.015263 -0.006100 -0.004923 0.000000 0.000000 0.000000
# 2 -0.006100 0.011420 -0.002945 0.000000 0.000000 0.000000
# 3 -0.004923 -0.002945 0.014564 0.000000 0.000000 0.000000
# 4 0.000000 0.000000 0.000000 0.031376 0.000000 0.000000
# 5 0.000000 0.000000 0.000000 0.000000 0.061533 0.000000
# 6 0.000000 0.000000 0.000000 0.000000 0.000000 0.043774
#
#
# Mechanical properties :
#
#
# Convention : Reuss Voigt Hill
#
# Bulk Modulus (GPa) = 75.12962 78.60074 76.86518
# Shear Modulus (GPa) = 23.77535 25.55024 24.66279
#
# Velocity S-wave (km/s) = 3.69920 3.83480 3.76761
# Velocity P-wave (km/s) = 7.84136 8.05276 7.94776
#
# Compressibility (1/GPa) = 0.01331033
#
# Stress axis : x y z
#
# Youngs Moduli (GPa) = 65.51858 87.56796 68.66239
#
# Poissons Ratio (x) = 0.53417 0.33801
# Poissons Ratio (y) = 0.39967 0.20223
# Poissons Ratio (z) = 0.32253 0.25791
#
# Static dielectric constant tensor:
#      x y z
#    x 1.588860 0.000000 0.000000 
#    y 0.000000 1.589640 0.000000 
#    z 0.000000 0.000000 1.585710 
# 
# From -- ./inp_files/5718.got.cif
#   From: 2010.05.17/outbox.cif.g08.bks.cpg/sg63_3_cif.got.tgz:5718.got - 2010.06.03 15:47:04.
