data_PCOD9474643
_publ_section_title
;
Structure prediction by ZEFSAII (Michael W. Deem and Ramdas Pophale) SiO2 
 PCOD9474643
Probable space group: C M C M
;
_chemical_formula_sum "Si O2"
_cell_formula_units_Z 116
_cell_length_a 17.776209
_cell_length_b 13.495379
_cell_length_c 25.932490
_cell_angle_alpha 90.000000
_cell_angle_beta 90.000000
_cell_angle_gamma 90.000000
_cell_volume 6221.118194
_symmetry_space_group_name_H-M "C M C M"
_symmetry_group_IT_number 63
_symmetry_cell_setting 'orthorhombic'
loop_
_space_group_symop_operation_xyz
x,y,z
-x,-y,1/2+z
x,-y,-z
-x,y,1/2-z
-x,-y,-z
x,y,1/2-z
-x,y,z
x,-y,1/2+z
1/2+x,1/2+y,z
1/2-x,1/2-y,1/2+z
1/2+x,1/2-y,-z
1/2-x,1/2+y,1/2-z
1/2-x,1/2-y,-z
1/2+x,1/2+y,1/2-z
1/2-x,1/2+y,z
1/2+x,1/2-y,1/2+z
loop_
_atom_site_type_symbol
_atom_site_label
_atom_site_fract_x
_atom_site_fract_y
_atom_site_fract_z
Si Si1 0.000000 0.840591 0.750000
Si Si2 0.413563 0.342905 0.044133
Si Si3 0.297996 0.244129 0.309706
Si Si4 0.160234 0.468299 0.441617
Si Si5 0.585010 0.146950 0.384884
Si Si6 0.137195 0.150623 0.332379
Si Si7 0.310007 0.554891 0.875721
Si Si8 0.409528 0.250400 0.560470
O O1 0.933182 0.841105 0.794540
O O2 0.500000 0.375691 0.040370
O O3 0.411592 0.238795 0.075194
O O4 0.366837 0.418565 0.078070
O O5 0.383391 0.318305 0.987447
O O6 0.320353 0.253386 0.250000
O O7 0.353999 0.170929 0.340821
O O8 0.212926 0.204041 0.312726
O O9 0.302292 0.349213 0.339123
O O10 0.179347 0.500000 0.500000
O O11 0.103883 0.548165 0.416545
O O12 0.231773 0.467791 0.403934
O O13 0.125051 0.358932 0.443544
O O14 0.500000 0.142648 0.364003
O O15 0.115380 0.200781 0.386469
O O16 0.159154 0.037030 0.343429
O O17 0.500000 0.243397 0.557150
#
# Coordination Sequence:
#
# PCOD9474643 Si02
#       8
#     4  16  16  16  16  16  16  16
#     4  12  28  48  72  94 128 182 220 282 334 396
#     4   9  21  39  60  91 134 173 213 264 321 394
#     4  11  24  45  70  91 125 171 223 283 332 393
#     4  12  23  37  67 101 139 179 222 268 333 408
#     4  10  21  41  63  96 134 168 216 274 330 390
#     4  12  25  45  67  97 131 169 223 277 335 392
#     4  11  26  41  65  99 132 175 217 271 338 400
#     4  11  23  40  65  96 133 178 221 266 329 397
#
# _framework density 18.646165
#
# number of rings (size 3 to 8) (size 9 to 14) (size 15 to 20)
#    0.000    1.103    5.517    0.414    3.862    1.379 
#    0.000    1.379    1.517    0.000    0.000    0.000 
#    0.000    0.000    0.000    0.000    0.000    0.000 
#
# Total GULP energy -323576.296757 kJ/mol
# GULP energy per Si atom -5578.901668 kJ/mol
# Density = 1.860373 g / cm^3
# Si number density = 18.646165 Si / 1000 Ang^3
#
#
#
# Elastic Constant Matrix: (Units=GPa)
#
#
# Indices 1 2 3 4 5 6 
#
# 1 82.0569 7.1164 42.6252 0.0000 0.0000 0.0000
# 2 7.1164 66.5076 25.8489 0.0000 0.0000 0.0000
# 3 42.6252 25.8489 141.8975 0.0000 0.0000 0.0000
# 4 0.0000 0.0000 0.0000 -0.3566 0.0000 0.0000
# 5 0.0000 0.0000 0.0000 0.0000 16.8817 0.0000
# 6 0.0000 0.0000 0.0000 0.0000 0.0000 18.3164
#
#
#
# Elastic Compliance Matrix: (Units=1/GPa)
#
#
# Indices 1 2 3 4 5 6 
#
# 1 0.014441 0.000152 -0.004366 0.000000 0.000000 0.000000
# 2 0.000152 0.016183 -0.002994 0.000000 0.000000 0.000000
# 3 -0.004366 -0.002994 0.008904 0.000000 0.000000 0.000000
# 4 0.000000 0.000000 0.000000 -2.804561 0.000000 0.000000
# 5 0.000000 0.000000 0.000000 0.000000 0.059236 0.000000
# 6 0.000000 0.000000 0.000000 0.000000 0.000000 0.054596
#
#
# Mechanical properties :
#
#
# Convention : Reuss Voigt Hill
#
# Bulk Modulus (GPa) = 39.81976 49.07144 44.44560
# Shear Modulus (GPa) = -1.90229 21.29309 9.69540
#
# Velocity S-wave (km/s) = -1.01115 3.38295 2.28275
# Velocity P-wave (km/s) = 4.47645 6.45240 5.55302
#
# Compressibility (1/GPa) = 0.02511316
#
# Stress axis : x y z
#
# Youngs Moduli (GPa) = 69.24570 61.79274 112.30785
#
# Poissons Ratio (x) = -0.00936 0.49030
# Poissons Ratio (y) = -0.01049 0.33620
# Poissons Ratio (z) = 0.30231 0.18498
#
# Static dielectric constant tensor:
#      x y z
#    x 1.636960 0.000000 0.000000 
#    y 0.000000 1.628660 0.000000 
#    z 0.000000 0.000000 1.625110 
# 
# From -- ./inp_files/70040.got.cif
#   From: 2010.05.17/outbox.cif.g08.bks.cpg/sg63_36_cif.got.tgz:70040.got - 2010.06.03 15:47:04.
