data_PCOD9474358
_publ_section_title
;
Structure prediction by ZEFSAII (Michael W. Deem and Ramdas Pophale) SiO2 
 PCOD9474358
Probable space group: C M C M
;
_chemical_formula_sum "Si O2"
_cell_formula_units_Z 80
_cell_length_a 25.805064
_cell_length_b 18.780475
_cell_length_c 8.745396
_cell_angle_alpha 90.000000
_cell_angle_beta 90.000000
_cell_angle_gamma 90.000000
_cell_volume 4238.293151
_symmetry_space_group_name_H-M "C M C M"
_symmetry_group_IT_number 63
_symmetry_cell_setting 'orthorhombic'
loop_
_space_group_symop_operation_xyz
x,y,z
-x,-y,1/2+z
x,-y,-z
-x,y,1/2-z
-x,-y,-z
x,y,1/2-z
-x,y,z
x,-y,1/2+z
1/2+x,1/2+y,z
1/2-x,1/2-y,1/2+z
1/2+x,1/2-y,-z
1/2-x,1/2+y,1/2-z
1/2-x,1/2-y,-z
1/2+x,1/2+y,1/2-z
1/2-x,1/2+y,z
1/2+x,1/2-y,1/2+z
loop_
_atom_site_type_symbol
_atom_site_label
_atom_site_fract_x
_atom_site_fract_y
_atom_site_fract_z
Si Si1 0.940136 0.682317 0.934049
Si Si2 0.846051 0.921807 0.568029
Si Si3 0.347918 0.920986 0.065951
Si Si4 0.746766 0.670850 0.933858
Si Si5 0.939286 0.838043 0.431812
O O1 0.936038 0.691565 0.750000
O O2 0.899464 0.622072 0.981427
O O3 0.000000 0.663973 0.969373
O O4 0.927919 0.757708 0.012238
O O5 0.841745 0.923686 0.750000
O O6 0.803273 0.868960 0.499068
O O7 0.901850 0.892018 0.517855
O O8 0.837802 0.000000 0.500000
O O9 0.348367 0.925829 0.250000
O O10 0.297657 0.874677 0.022217
O O11 0.345826 0.000000 0.000000
O O12 0.744212 0.673759 0.750000
O O13 0.750000 0.750000 0.000000
O O14 0.930963 0.843228 0.250000
O O15 0.000000 0.851443 0.463761
#
# Coordination Sequence:
#
# PCOD9474358 Si02
#       5
#    16  16  16  16  16
#     4   9  18  35  58  84 116 153 193 237 285 339
#     4  12  25  41  61  86 118 155 195 241 295 351
#     4  10  22  37  55  82 115 151 190 234 286 341
#     4  11  23  40  62  88 117 151 195 243 293 351
#     4  10  21  38  61  89 118 150 192 239 288 347
#
# _framework density 18.875523000000001
#
# number of rings (size 3 to 8) (size 9 to 14) (size 15 to 20)
#    0.000    1.600    0.000    4.800    0.000    7.600 
#    0.000    0.000    0.000    0.000    0.000    0.000 
#    0.000    0.000    0.000    0.000    0.000    0.000 
#
# Total GULP energy -223648.169752 kJ/mol
# GULP energy per Si atom -5591.204244 kJ/mol
# Density = 1.883256 g / cm^3
# Si number density = 18.875523 Si / 1000 Ang^3
#
#
#
# Elastic Constant Matrix: (Units=GPa)
#
#
# Indices 1 2 3 4 5 6 
#
# 1 83.1433 73.1931 50.3937 0.0000 0.0000 0.0000
# 2 73.1931 155.1144 59.2597 0.0000 0.0000 0.0000
# 3 50.3937 59.2597 73.3702 0.0000 0.0000 0.0000
# 4 0.0000 0.0000 0.0000 40.6665 0.0000 0.0000
# 5 0.0000 0.0000 0.0000 0.0000 14.5760 0.0000
# 6 0.0000 0.0000 0.0000 0.0000 0.0000 -14.5918
#
#
#
# Elastic Compliance Matrix: (Units=1/GPa)
#
#
# Indices 1 2 3 4 5 6 
#
# 1 0.025848 -0.007830 -0.011429 0.000000 0.000000 0.000000
# 2 -0.007830 0.011696 -0.004068 0.000000 0.000000 0.000000
# 3 -0.011429 -0.004068 0.024765 0.000000 0.000000 0.000000
# 4 0.000000 0.000000 0.000000 0.024590 0.000000 0.000000
# 5 0.000000 0.000000 0.000000 0.000000 0.068606 0.000000
# 6 0.000000 0.000000 0.000000 0.000000 0.000000 -0.068532
#
#
# Mechanical properties :
#
#
# Convention : Reuss Voigt Hill
#
# Bulk Modulus (GPa) = 63.88239 75.25787 69.57013
# Shear Modulus (GPa) = 36.01085 16.71559 26.36322
#
# Velocity S-wave (km/s) = 4.37258 2.97908 3.74128
# Velocity P-wave (km/s) = 7.70780 7.19655 7.45656
#
# Compressibility (1/GPa) = 0.01565377
#
# Stress axis : x y z
#
# Youngs Moduli (GPa) = 38.68786 85.49899 40.37894
#
# Poissons Ratio (x) = 0.66949 0.46149
# Poissons Ratio (y) = 0.30294 0.16428
# Poissons Ratio (z) = 0.44216 0.34784
#
# Static dielectric constant tensor:
#      x y z
#    x 1.654930 0.000000 0.000000 
#    y 0.000000 1.600070 0.000000 
#    z 0.000000 0.000000 1.631150 
# 
# From -- ./inp_files/12009.got.cif
#   From: 2010.05.17/outbox.cif.g08.bks.cpg/sg63_7_cif.got.tgz:12009.got - 2010.06.03 15:47:04.
