data_PCOD9474794
_publ_section_title
;
Structure prediction by ZEFSAII (Michael W. Deem and Ramdas Pophale) SiO2 
 PCOD9474794
Probable space group: C M C M
;
_chemical_formula_sum "Si O2"
_cell_formula_units_Z 104
_cell_length_a 11.947922
_cell_length_b 29.937670
_cell_length_c 14.339310
_cell_angle_alpha 90.000000
_cell_angle_beta 90.000000
_cell_angle_gamma 90.000000
_cell_volume 5129.070038
_symmetry_space_group_name_H-M "C M C M"
_symmetry_group_IT_number 63
_symmetry_cell_setting 'orthorhombic'
loop_
_space_group_symop_operation_xyz
x,y,z
-x,-y,1/2+z
x,-y,-z
-x,y,1/2-z
-x,-y,-z
x,y,1/2-z
-x,y,z
x,-y,1/2+z
1/2+x,1/2+y,z
1/2-x,1/2-y,1/2+z
1/2+x,1/2-y,-z
1/2-x,1/2+y,1/2-z
1/2-x,1/2-y,-z
1/2+x,1/2+y,1/2-z
1/2-x,1/2+y,z
1/2+x,1/2-y,1/2+z
loop_
_atom_site_type_symbol
_atom_site_label
_atom_site_fract_x
_atom_site_fract_y
_atom_site_fract_z
Si Si1 0.211028 0.310753 0.861525
Si Si2 0.500000 0.176548 0.643550
Si Si3 0.369576 0.610172 0.139392
Si Si4 0.744302 0.211815 0.860758
Si Si5 0.255853 0.447366 0.484385
Si Si6 0.500000 0.947091 0.487984
Si Si7 0.368595 0.623587 0.640060
Si Si8 0.000000 0.360964 0.554127
O O1 0.191704 0.309882 0.750000
O O2 0.322992 0.339744 0.875919
O O3 0.218701 0.260026 0.896658
O O4 0.108655 0.336256 0.908589
O O5 0.500000 0.158071 0.750000
O O6 0.388505 0.205574 0.632098
O O7 0.500000 0.141652 0.558949
O O8 0.361332 0.600985 0.250000
O O9 0.500000 0.605931 0.111835
O O10 0.290160 0.577622 0.080155
O O11 0.771615 0.212251 0.750000
O O12 0.802110 0.166879 0.898421
O O13 0.274301 0.500000 0.500000
O O14 0.127259 0.439583 0.451906
O O15 0.332241 0.421733 0.409929
O O16 0.500000 0.913459 0.576744
O O17 0.500000 0.000000 0.500000
O O18 0.343769 0.619675 0.750000
O O19 0.500000 0.631589 0.628588
#
# Coordination Sequence:
#
# PCOD9474794 Si02
#       8
#    16   8  16  16  16   8  16   8
#     4  10  22  38  61  91 124 163 206 254 308 369
#     4  10  22  39  59  84 121 165 208 255 305 363
#     4  10  22  40  62  91 126 163 204 252 308 371
#     4   9  20  38  59  85 122 162 203 250 302 363
#     4  11  23  43  66  90 120 157 203 258 313 366
#     4  10  22  41  65  88 121 159 198 255 313 365
#     4  10  22  40  62  90 125 162 201 251 308 366
#     4  12  21  38  64  90 120 158 210 262 311 362
#
# _framework density 20.276579999999999
#
# number of rings (size 3 to 8) (size 9 to 14) (size 15 to 20)
#    0.000    1.846    1.538    1.615    2.154    2.462 
#    0.000    2.308    0.000    4.615    0.000    0.000 
#    0.000    0.000    0.000    0.000    0.000    0.000 
#
# Total GULP energy -290034.710412 kJ/mol
# GULP energy per Si atom -5577.590585 kJ/mol
# Density = 2.023043 g / cm^3
# Si number density = 20.276580 Si / 1000 Ang^3
#
#
#
# Elastic Constant Matrix: (Units=GPa)
#
#
# Indices 1 2 3 4 5 6 
#
# 1 86.3828 47.5476 24.9625 0.0000 0.0000 0.0000
# 2 47.5476 159.1776 32.9014 0.0000 0.0000 0.0000
# 3 24.9625 32.9014 79.3637 0.0000 0.0000 0.0000
# 4 0.0000 0.0000 0.0000 -12.9863 0.0000 0.0000
# 5 0.0000 0.0000 0.0000 0.0000 22.6883 0.0000
# 6 0.0000 0.0000 0.0000 0.0000 0.0000 20.1896
#
#
#
# Elastic Compliance Matrix: (Units=1/GPa)
#
#
# Indices 1 2 3 4 5 6 
#
# 1 0.014488 -0.003703 -0.003022 0.000000 0.000000 0.000000
# 2 -0.003703 0.007818 -0.002076 0.000000 0.000000 0.000000
# 3 -0.003022 -0.002076 0.014411 0.000000 0.000000 0.000000
# 4 0.000000 0.000000 0.000000 -0.077004 0.000000 0.000000
# 5 0.000000 0.000000 0.000000 0.000000 0.044076 0.000000
# 6 0.000000 0.000000 0.000000 0.000000 0.000000 0.049530
#
#
# Mechanical properties :
#
#
# Convention : Reuss Voigt Hill
#
# Bulk Modulus (GPa) = 52.31533 59.52746 55.92139
# Shear Modulus (GPa) = 64.68980 20.61250 42.65115
#
# Velocity S-wave (km/s) = 5.65446 3.19182 4.59133
# Velocity P-wave (km/s) = 8.27572 6.55783 7.46635
#
# Compressibility (1/GPa) = 0.01911486
#
# Stress axis : x y z
#
# Youngs Moduli (GPa) = 69.02331 127.91728 69.38971
#
# Poissons Ratio (x) = 0.47368 0.20968
# Poissons Ratio (y) = 0.25560 0.14406
# Poissons Ratio (z) = 0.20857 0.26558
#
# Static dielectric constant tensor:
#      x y z
#    x 1.703190 0.000000 0.000000 
#    y 0.000000 1.768750 0.000000 
#    z 0.000000 0.000000 1.778520 
# 
# From -- ./inp_files/42823.got.cif
#   From: 2010.05.17/outbox.cif.g08.bks.cpg/sg63_22_cif.got.tgz:42823.got - 2010.06.03 15:47:04.
