data_PCOD9474209
_publ_section_title
;
Structure prediction by ZEFSAII (Michael W. Deem and Ramdas Pophale) SiO2 
 PCOD9474209
Probable space group: C M C M
;
_chemical_formula_sum "Si O2"
_cell_formula_units_Z 48
_cell_length_a 17.407552
_cell_length_b 5.041841
_cell_length_c 26.306702
_cell_angle_alpha 90.000000
_cell_angle_beta 90.000000
_cell_angle_gamma 90.000000
_cell_volume 2308.836885
_symmetry_space_group_name_H-M "C M C M"
_symmetry_group_IT_number 63
_symmetry_cell_setting 'orthorhombic'
loop_
_space_group_symop_operation_xyz
x,y,z
-x,-y,1/2+z
x,-y,-z
-x,y,1/2-z
-x,-y,-z
x,y,1/2-z
-x,y,z
x,-y,1/2+z
1/2+x,1/2+y,z
1/2-x,1/2-y,1/2+z
1/2+x,1/2-y,-z
1/2-x,1/2+y,1/2-z
1/2-x,1/2-y,-z
1/2+x,1/2+y,1/2-z
1/2-x,1/2+y,z
1/2+x,1/2-y,1/2+z
loop_
_atom_site_type_symbol
_atom_site_label
_atom_site_fract_x
_atom_site_fract_y
_atom_site_fract_z
Si Si1 0.411586 0.849313 0.945409
Si Si2 0.301548 0.975925 0.750000
Si Si3 0.307026 0.500000 0.500000
Si Si4 0.804914 0.418764 0.360269
O O1 0.500000 0.803810 0.932000
O O2 0.365133 0.576943 0.954836
O O3 0.365850 0.014202 0.903455
O O4 0.409774 0.000000 0.000000
O O5 0.227069 0.172575 0.750000
O O6 0.339998 0.042073 0.696254
O O7 0.250000 0.750000 0.500000
O O8 0.736458 0.636236 0.364349
#
# Coordination Sequence:
#
# PCOD9474209 Si02
#       4
#    16   8   8  16
#     4  11  25  41  57  87 127 161 193 242 301 354
#     4   8  16  34  57  84 113 140 190 250 292 330
#     4  12  23  40  61  82 110 150 202 240 279 340
#     4  10  21  37  61  87 112 152 199 244 288 347
#
# _framework density 20.78969
#
# number of rings (size 3 to 8) (size 9 to 14) (size 15 to 20)
#    0.000    1.667    1.667    2.500    4.667    0.000 
#    0.000    0.833    0.000    0.000    0.000   14.000 
#    0.000    0.000    0.000    0.000    0.000    0.000 
#
# Total GULP energy -134036.847744 kJ/mol
# GULP energy per Si atom -5584.868656 kJ/mol
# Density = 2.074237 g / cm^3
# Si number density = 20.789690 Si / 1000 Ang^3
#
#
#
# Elastic Constant Matrix: (Units=GPa)
#
#
# Indices 1 2 3 4 5 6 
#
# 1 103.6448 22.3437 45.0590 0.0000 0.0000 0.0000
# 2 22.3437 115.3532 12.1386 0.0000 0.0000 0.0000
# 3 45.0590 12.1386 150.1225 0.0000 0.0000 0.0000
# 4 0.0000 0.0000 0.0000 29.2522 0.0000 0.0000
# 5 0.0000 0.0000 0.0000 0.0000 13.2910 0.0000
# 6 0.0000 0.0000 0.0000 0.0000 0.0000 14.9148
#
#
#
# Elastic Compliance Matrix: (Units=1/GPa)
#
#
# Indices 1 2 3 4 5 6 
#
# 1 0.011486 -0.001878 -0.003296 0.000000 0.000000 0.000000
# 2 -0.001878 0.009050 -0.000168 0.000000 0.000000 0.000000
# 3 -0.003296 -0.000168 0.007664 0.000000 0.000000 0.000000
# 4 0.000000 0.000000 0.000000 0.034186 0.000000 0.000000
# 5 0.000000 0.000000 0.000000 0.000000 0.075239 0.000000
# 6 0.000000 0.000000 0.000000 0.000000 0.000000 0.067047
#
#
# Mechanical properties :
#
#
# Convention : Reuss Voigt Hill
#
# Bulk Modulus (GPa) = 57.08769 58.68922 57.88846
# Shear Modulus (GPa) = 22.60449 30.79687 26.70068
#
# Velocity S-wave (km/s) = 3.30099 3.85301 3.58763
# Velocity P-wave (km/s) = 6.48444 6.93437 6.71318
#
# Compressibility (1/GPa) = 0.01751691
#
# Stress axis : x y z
#
# Youngs Moduli (GPa) = 87.06284 110.49132 130.48018
#
# Poissons Ratio (x) = 0.20750 0.43002
# Poissons Ratio (y) = 0.16350 0.02194
# Poissons Ratio (z) = 0.28693 0.01858
#
# Static dielectric constant tensor:
#      x y z
#    x 1.694790 0.000000 0.000000 
#    y 0.000000 1.804100 0.000000 
#    z 0.000000 0.000000 1.853200 
# 
# From -- ./inp_files/69591.got.cif
#   From: 2010.05.17/outbox.cif.g08.bks.cpg/sg63_35_cif.got.tgz:69591.got - 2010.06.03 15:47:04.
