data_PCOD9474251
_publ_section_title
;
Structure prediction by ZEFSAII (Michael W. Deem and Ramdas Pophale) SiO2 
 PCOD9474251
Probable space group: C M C M
;
_chemical_formula_sum "Si O2"
_cell_formula_units_Z 96
_cell_length_a 8.917771
_cell_length_b 23.771584
_cell_length_c 27.139787
_cell_angle_alpha 90.000000
_cell_angle_beta 90.000000
_cell_angle_gamma 90.000000
_cell_volume 5753.351027
_symmetry_space_group_name_H-M "C M C M"
_symmetry_group_IT_number 63
_symmetry_cell_setting 'orthorhombic'
loop_
_space_group_symop_operation_xyz
x,y,z
-x,-y,1/2+z
x,-y,-z
-x,y,1/2-z
-x,-y,-z
x,y,1/2-z
-x,y,z
x,-y,1/2+z
1/2+x,1/2+y,z
1/2-x,1/2-y,1/2+z
1/2+x,1/2-y,-z
1/2-x,1/2+y,1/2-z
1/2-x,1/2-y,-z
1/2+x,1/2+y,1/2-z
1/2-x,1/2+y,z
1/2+x,1/2-y,1/2+z
loop_
_atom_site_type_symbol
_atom_site_label
_atom_site_fract_x
_atom_site_fract_y
_atom_site_fract_z
Si Si1 0.173815 0.845347 0.375614
Si Si2 0.171830 0.160315 0.368521
Si Si3 0.679953 0.932041 0.805546
Si Si4 0.665355 0.767131 0.307313
Si Si5 0.319454 0.063866 0.693539
Si Si6 0.680731 0.756865 0.053741
O O1 0.200526 0.799491 0.332709
O O2 0.246355 0.900124 0.350186
O O3 0.257676 0.813971 0.420675
O O4 0.000000 0.853965 0.387052
O O5 0.173450 0.202386 0.321841
O O6 0.223851 0.202221 0.412491
O O7 0.000000 0.144788 0.379593
O O8 0.259427 0.106079 0.349843
O O9 0.732009 0.915144 0.750000
O O10 0.500000 0.928026 0.805377
O O11 0.718355 0.997914 0.811552
O O12 0.667173 0.775877 0.250000
O O13 0.500000 0.787169 0.326446
O O14 0.275929 0.081303 0.750000
O O15 0.500000 0.069636 0.691095
O O16 0.500000 0.758524 0.052294
O O17 0.750000 0.750000 0.000000
#
# Coordination Sequence:
#
# PCOD9474251 Si02
#       6
#    16  16  16  16  16  16
#     4  11  21  31  47  73 100 127 163 205 248 294
#     4   9  18  31  48  71  98 127 159 197 244 296
#     4   9  18  31  48  72 102 137 174 206 237 280
#     4   9  17  29  44  64  95 133 165 196 241 294
#     4   9  18  33  50  69 100 141 176 205 241 285
#     4  10  21  38  57  76  98 126 161 203 255 307
#
# _framework density 16.685929000000002
#
# number of rings (size 3 to 8) (size 9 to 14) (size 15 to 20)
#    0.000    2.500    0.000    5.000    0.000    7.667 
#    0.000    1.667    0.000    1.000    0.000    7.000 
#    0.000    0.000    0.000    0.000    0.000    0.000 
#
# Total GULP energy -267203.068796 kJ/mol
# GULP energy per Si atom -5566.730600 kJ/mol
# Density = 1.664795 g / cm^3
# Si number density = 16.685929 Si / 1000 Ang^3
#
#
#
# Elastic Constant Matrix: (Units=GPa)
#
#
# Indices 1 2 3 4 5 6 
#
# 1 53.8133 37.2292 39.9538 0.0000 0.0000 0.0000
# 2 37.2292 92.3393 57.1041 0.0000 0.0000 0.0000
# 3 39.9538 57.1041 93.7863 0.0000 0.0000 0.0000
# 4 0.0000 0.0000 0.0000 22.2057 0.0000 0.0000
# 5 0.0000 0.0000 0.0000 0.0000 24.8597 0.0000
# 6 0.0000 0.0000 0.0000 0.0000 0.0000 27.0486
#
#
#
# Elastic Compliance Matrix: (Units=1/GPa)
#
#
# Indices 1 2 3 4 5 6 
#
# 1 0.029498 -0.006611 -0.008541 0.000000 0.000000 0.000000
# 2 -0.006611 0.018852 -0.008662 0.000000 0.000000 0.000000
# 3 -0.008541 -0.008662 0.019575 0.000000 0.000000 0.000000
# 4 0.000000 0.000000 0.000000 0.045033 0.000000 0.000000
# 5 0.000000 0.000000 0.000000 0.000000 0.040226 0.000000
# 6 0.000000 0.000000 0.000000 0.000000 0.000000 0.036971
#
#
# Mechanical properties :
#
#
# Convention : Reuss Voigt Hill
#
# Bulk Modulus (GPa) = 49.26932 56.50145 52.88539
# Shear Modulus (GPa) = 20.44590 21.86624 21.15607
#
# Velocity S-wave (km/s) = 3.50428 3.62395 3.56462
# Velocity P-wave (km/s) = 6.77974 7.17259 6.97893
#
# Compressibility (1/GPa) = 0.02029661
#
# Stress axis : x y z
#
# Youngs Moduli (GPa) = 33.90107 53.04549 51.08503
#
# Poissons Ratio (x) = 0.35068 0.43632
# Poissons Ratio (y) = 0.22412 0.44250
# Poissons Ratio (z) = 0.28955 0.45948
#
# Static dielectric constant tensor:
#      x y z
#    x 1.599530 0.000000 0.000000 
#    y 0.000000 1.580090 0.000000 
#    z 0.000000 0.000000 1.567250 
# 
# From -- ./inp_files/67210.got.cif
#   From: 2010.05.17/outbox.cif.g08.bks.cpg/sg63_34_cif.got.tgz:67210.got - 2010.06.03 15:47:04.
