data_PCOD9474650
_publ_section_title
;
Structure prediction by ZEFSAII (Michael W. Deem and Ramdas Pophale) SiO2 
 PCOD9474650
Probable space group: C M C M
;
_chemical_formula_sum "Si O2"
_cell_formula_units_Z 56
_cell_length_a 10.347233
_cell_length_b 16.992917
_cell_length_c 14.918985
_cell_angle_alpha 90.000000
_cell_angle_beta 90.000000
_cell_angle_gamma 90.000000
_cell_volume 2623.200232
_symmetry_space_group_name_H-M "C M C M"
_symmetry_group_IT_number 63
_symmetry_cell_setting 'orthorhombic'
loop_
_space_group_symop_operation_xyz
x,y,z
-x,-y,1/2+z
x,-y,-z
-x,y,1/2-z
-x,-y,-z
x,y,1/2-z
-x,y,z
x,-y,1/2+z
1/2+x,1/2+y,z
1/2-x,1/2-y,1/2+z
1/2+x,1/2-y,-z
1/2-x,1/2+y,1/2-z
1/2-x,1/2-y,-z
1/2+x,1/2+y,1/2-z
1/2-x,1/2+y,z
1/2+x,1/2-y,1/2+z
loop_
_atom_site_type_symbol
_atom_site_label
_atom_site_fract_x
_atom_site_fract_y
_atom_site_fract_z
Si Si1 0.000000 0.234542 0.022958
Si Si2 0.748927 0.478956 0.104587
Si Si3 0.000000 0.380822 0.148852
Si Si4 0.353445 0.360742 0.844920
Si Si5 0.500000 0.369917 0.145362
O O1 0.128112 0.195585 0.070303
O O2 0.000000 0.320950 0.064553
O O3 0.000000 0.205786 0.921026
O O4 0.873542 0.433633 0.138414
O O5 0.737117 0.565110 0.147682
O O6 0.624824 0.424149 0.124156
O O7 0.753936 0.500000 0.000000
O O8 0.000000 0.344633 0.250000
O O9 0.331016 0.318467 0.750000
O O10 0.500000 0.395141 0.842053
O O11 0.500000 0.348601 0.250000
#
# Coordination Sequence:
#
# PCOD9474650 Si02
#       5
#     8  16   8  16   8
#     4  10  21  41  65  97 131 175 226 268 335 393
#     4  12  22  42  66  99 132 176 225 277 335 398
#     4  12  27  42  64 101 145 180 215 273 349 411
#     4   9  16  33  65  94 120 160 220 272 312 381
#     4  12  22  40  72  99 128 174 239 283 320 391
#
# _framework density 21.347971000000001
#
# number of rings (size 3 to 8) (size 9 to 14) (size 15 to 20)
#    0.857    0.286    4.286    4.286    0.000    1.143 
#    0.000    0.000    0.000    5.143    0.000    0.000 
#    0.000    0.000    0.000    0.000    0.000    0.000 
#
# Total GULP energy -156083.844809 kJ/mol
# GULP energy per Si atom -5574.423029 kJ/mol
# Density = 2.129938 g / cm^3
# Si number density = 21.347971 Si / 1000 Ang^3
#
#
#
# Elastic Constant Matrix: (Units=GPa)
#
#
# Indices 1 2 3 4 5 6 
#
# 1 106.2782 29.6912 5.6220 0.0000 0.0000 0.0000
# 2 29.6912 62.6967 11.5541 0.0000 0.0000 0.0000
# 3 5.6220 11.5541 164.2952 0.0000 0.0000 0.0000
# 4 0.0000 0.0000 0.0000 -10.4770 0.0000 0.0000
# 5 0.0000 0.0000 0.0000 0.0000 13.4181 0.0000
# 6 0.0000 0.0000 0.0000 0.0000 0.0000 27.0672
#
#
#
# Elastic Compliance Matrix: (Units=1/GPa)
#
#
# Indices 1 2 3 4 5 6 
#
# 1 0.010844 -0.005134 -0.000010 0.000000 0.000000 0.000000
# 2 -0.005134 0.018589 -0.001132 0.000000 0.000000 0.000000
# 3 -0.000010 -0.001132 0.006167 0.000000 0.000000 0.000000
# 4 0.000000 0.000000 0.000000 -0.095447 0.000000 0.000000
# 5 0.000000 0.000000 0.000000 0.000000 0.074526 0.000000
# 6 0.000000 0.000000 0.000000 0.000000 0.000000 0.036945
#
#
# Mechanical properties :
#
#
# Convention : Reuss Voigt Hill
#
# Bulk Modulus (GPa) = 43.38487 47.44496 45.41491
# Shear Modulus (GPa) = 69.58185 25.09517 47.33851
#
# Velocity S-wave (km/s) = 5.71532 3.43232 4.71411
# Velocity P-wave (km/s) = 7.99500 6.16284 7.13795
#
# Compressibility (1/GPa) = 0.02304951
#
# Stress axis : x y z
#
# Youngs Moduli (GPa) = 92.21719 53.79403 162.16570
#
# Poissons Ratio (x) = 0.27615 0.00163
# Poissons Ratio (y) = 0.47340 0.18351
# Poissons Ratio (z) = 0.00093 0.06088
#
# Static dielectric constant tensor:
#      x y z
#    x 1.748800 0.000000 0.000000 
#    y 0.000000 1.771770 0.000000 
#    z 0.000000 0.000000 1.849460 
# 
# From -- ./inp_files/29036.got.cif
#   From: 2010.05.17/outbox.cif.g08.bks.cpg/sg63_15_cif.got.tgz:29036.got - 2010.06.03 15:47:04.
