data_PCOD9474741
_publ_section_title
;
Structure prediction by ZEFSAII (Michael W. Deem and Ramdas Pophale) SiO2 
 PCOD9474741
Probable space group: C M C M
;
_chemical_formula_sum "Si O2"
_cell_formula_units_Z 64
_cell_length_a 32.702159
_cell_length_b 9.014741
_cell_length_c 10.681654
_cell_angle_alpha 90.000000
_cell_angle_beta 90.000000
_cell_angle_gamma 90.000000
_cell_volume 3148.967553
_symmetry_space_group_name_H-M "C M C M"
_symmetry_group_IT_number 63
_symmetry_cell_setting 'orthorhombic'
loop_
_space_group_symop_operation_xyz
x,y,z
-x,-y,1/2+z
x,-y,-z
-x,y,1/2-z
-x,-y,-z
x,y,1/2-z
-x,y,z
x,-y,1/2+z
1/2+x,1/2+y,z
1/2-x,1/2-y,1/2+z
1/2+x,1/2-y,-z
1/2-x,1/2+y,1/2-z
1/2-x,1/2-y,-z
1/2+x,1/2+y,1/2-z
1/2-x,1/2+y,z
1/2+x,1/2-y,1/2+z
loop_
_atom_site_type_symbol
_atom_site_label
_atom_site_fract_x
_atom_site_fract_y
_atom_site_fract_z
Si Si1 0.773764 0.393681 0.116574
Si Si2 0.888148 0.377369 0.608249
Si Si3 0.816389 0.164213 0.530529
Si Si4 0.451120 0.382507 0.392891
O O1 0.782524 0.464053 0.250000
O O2 0.725970 0.352502 0.106873
O O3 0.782210 0.500000 0.000000
O O4 0.800855 0.248331 0.094360
O O5 0.885739 0.500000 0.500000
O O6 0.888803 0.439379 0.750000
O O7 0.849914 0.265605 0.594751
O O8 0.927574 0.272108 0.590032
O O9 0.831684 0.000000 0.500000
O O10 0.439135 0.500000 0.500000
O O11 0.441870 0.434348 0.250000
O O12 0.500000 0.361572 0.401552
#
# Coordination Sequence:
#
# PCOD9474741 Si02
#       4
#    16  16  16  16
#     4  10  22  39  59  83 112 147 188 236 290 346
#     4  11  24  40  58  83 117 154 192 235 282 334
#     4  10  22  37  58  83 111 147 192 239 287 338
#     4   9  19  38  64  92 120 150 186 230 280 335
#
# _framework density 20.324121000000002
#
# number of rings (size 3 to 8) (size 9 to 14) (size 15 to 20)
#    0.000    2.000    0.000    2.250    0.000   16.500 
#    0.000    0.000    0.000    0.000    0.000    0.000 
#    0.000    0.000    0.000    0.000    0.000    0.000 
#
# Total GULP energy -178764.205963 kJ/mol
# GULP energy per Si atom -5586.381436 kJ/mol
# Density = 2.027786 g / cm^3
# Si number density = 20.324121 Si / 1000 Ang^3
#
#
#
# Elastic Constant Matrix: (Units=GPa)
#
#
# Indices 1 2 3 4 5 6 
#
# 1 55.9529 36.2733 35.8817 0.0000 0.0000 0.0000
# 2 36.2733 119.6983 91.4157 0.0000 0.0000 0.0000
# 3 35.8817 91.4157 186.3772 0.0000 0.0000 0.0000
# 4 0.0000 0.0000 0.0000 28.2651 0.0000 0.0000
# 5 0.0000 0.0000 0.0000 0.0000-2438.4823 0.0000
# 6 0.0000 0.0000 0.0000 0.0000 0.0000 31.7368
#
#
#
# Elastic Compliance Matrix: (Units=1/GPa)
#
#
# Indices 1 2 3 4 5 6 
#
# 1 0.022529 -0.005620 -0.001581 0.000000 0.000000 0.000000
# 2 -0.005620 0.014760 -0.006158 0.000000 0.000000 0.000000
# 3 -0.001581 -0.006158 0.008690 0.000000 0.000000 0.000000
# 4 0.000000 0.000000 0.000000 0.035379 0.000000 0.000000
# 5 0.000000 0.000000 0.000000 0.000000 -0.000410 0.000000
# 6 0.000000 0.000000 0.000000 0.000000 0.000000 0.031509
#
#
# Mechanical properties :
#
#
# Convention : Reuss Voigt Hill
#
# Bulk Modulus (GPa) = 51.91435 76.57442 64.24439
# Shear Modulus (GPa) = 34.34168 -462.46555 -214.06193
#
# Velocity S-wave (km/s) = 4.11506 -15.10096 -10.27389
# Velocity P-wave (km/s) = 6.94096 16.31851 10.44310
#
# Compressibility (1/GPa) = 0.01926250
#
# Stress axis : x y z
#
# Youngs Moduli (GPa) = 44.38674 67.75001 115.07348
#
# Poissons Ratio (x) = 0.38075 0.18192
# Poissons Ratio (y) = 0.24945 0.70859
# Poissons Ratio (z) = 0.07017 0.41719
#
# Static dielectric constant tensor:
#      x y z
#    x 1.724330 0.000000 0.000000 
#    y 0.000000 1.730220 0.000000 
#    z 0.000000 0.000000 1.743480 
# 
# From -- ./inp_files/25466.got.cif
#   From: 2010.05.17/outbox.cif.g08.bks.cpg/sg63_13_cif.got.tgz:25466.got - 2010.06.03 15:47:04.
