data_PCOD9474871
_publ_section_title
;
Structure prediction by ZEFSAII (Michael W. Deem and Ramdas Pophale) SiO2 
 PCOD9474871
Probable space group: C M C M
;
_chemical_formula_sum "Si O2"
_cell_formula_units_Z 64
_cell_length_a 7.827966
_cell_length_b 14.260093
_cell_length_c 32.417865
_cell_angle_alpha 90.000000
_cell_angle_beta 90.000000
_cell_angle_gamma 90.000000
_cell_volume 3618.725976
_symmetry_space_group_name_H-M "C M C M"
_symmetry_group_IT_number 63
_symmetry_cell_setting 'orthorhombic'
loop_
_space_group_symop_operation_xyz
x,y,z
-x,-y,1/2+z
x,-y,-z
-x,y,1/2-z
-x,-y,-z
x,y,1/2-z
-x,y,z
x,-y,1/2+z
1/2+x,1/2+y,z
1/2-x,1/2-y,1/2+z
1/2+x,1/2-y,-z
1/2-x,1/2+y,1/2-z
1/2-x,1/2-y,-z
1/2+x,1/2+y,1/2-z
1/2-x,1/2+y,z
1/2+x,1/2-y,1/2+z
loop_
_atom_site_type_symbol
_atom_site_label
_atom_site_fract_x
_atom_site_fract_y
_atom_site_fract_z
Si Si1 0.500000 0.866578 0.200441
Si Si2 0.707671 0.999123 0.069087
Si Si3 0.500000 0.647246 0.200527
Si Si4 0.295686 0.857551 0.998980
Si Si5 0.187031 0.017365 0.836805
O O1 0.500000 0.870198 0.250000
O O2 0.500000 0.756326 0.188086
O O3 0.335374 0.921391 0.183141
O O4 0.500000 0.998680 0.072471
O O5 0.762518 0.912756 0.039813
O O6 0.780514 0.994126 0.114650
O O7 0.762994 0.089628 0.042445
O O8 0.500000 0.642518 0.250000
O O9 0.659852 0.586189 0.183162
O O10 0.500000 0.867397 0.998896
O O11 0.250000 0.750000 0.000000
O O12 0.000000 0.062672 0.830105
#
# Coordination Sequence:
#
# PCOD9474871 Si02
#       5
#     8  16   8  16  16
#     4  11  22  42  67  88 125 165 192 256 317 353
#     4   9  18  37  54  78 119 156 193 245 300 349
#     4   9  22  42  61  92 123 151 206 250 297 375
#     4   9  19  33  54  78 113 156 195 242 293 350
#     4  10  22  39  63  91 122 158 204 252 299 367
#
# _framework density 17.685782
#
# number of rings (size 3 to 8) (size 9 to 14) (size 15 to 20)
#    0.750    1.750    1.250    2.250    0.000    4.000 
#    2.250    5.000    0.000    0.000    0.000    0.000 
#    0.000    0.000    0.000    0.000    0.000    0.000 
#
# Total GULP energy -178234.553495 kJ/mol
# GULP energy per Si atom -5569.829797 kJ/mol
# Density = 1.764553 g / cm^3
# Si number density = 17.685782 Si / 1000 Ang^3
#
#
#
# Elastic Constant Matrix: (Units=GPa)
#
#
# Indices 1 2 3 4 5 6 
#
# 1 91.9562 51.2272 41.6543 0.0000 0.0000 0.0000
# 2 51.2272 168.5805 74.4912 0.0000 0.0000 0.0000
# 3 41.6543 74.4912 125.1098 0.0000 0.0000 0.0000
# 4 0.0000 0.0000 0.0000 4.8619 0.0000 0.0000
# 5 0.0000 0.0000 0.0000 0.0000 23.2881 0.0000
# 6 0.0000 0.0000 0.0000 0.0000 0.0000 29.2493
#
#
#
# Elastic Compliance Matrix: (Units=1/GPa)
#
#
# Indices 1 2 3 4 5 6 
#
# 1 0.013799 -0.002935 -0.002847 0.000000 0.000000 0.000000
# 2 -0.002935 0.008674 -0.004187 0.000000 0.000000 0.000000
# 3 -0.002847 -0.004187 0.011434 0.000000 0.000000 0.000000
# 4 0.000000 0.000000 0.000000 0.205679 0.000000 0.000000
# 5 0.000000 0.000000 0.000000 0.000000 0.042940 0.000000
# 6 0.000000 0.000000 0.000000 0.000000 0.000000 0.034189
#
#
# Mechanical properties :
#
#
# Convention : Reuss Voigt Hill
#
# Bulk Modulus (GPa) = 71.58845 80.04354 75.81599
# Shear Modulus (GPa) = 14.64939 26.03145 20.34042
#
# Velocity S-wave (km/s) = 2.88117 3.84068 3.39499
# Velocity P-wave (km/s) = 7.18568 8.06379 7.63737
#
# Compressibility (1/GPa) = 0.01396873
#
# Stress axis : x y z
#
# Youngs Moduli (GPa) = 72.46642 115.28514 87.45925
#
# Poissons Ratio (x) = 0.33841 0.24897
# Poissons Ratio (y) = 0.21272 0.36622
# Poissons Ratio (z) = 0.20629 0.48273
#
# Static dielectric constant tensor:
#      x y z
#    x 1.632890 0.000000 0.000000 
#    y 0.000000 1.637590 0.000000 
#    z 0.000000 0.000000 1.580410 
# 
# From -- ./inp_files/71432.got.cif
#   From: 2010.05.17/outbox.cif.g08.bks.cpg/sg63_36_cif.got.tgz:71432.got - 2010.06.03 15:47:04.
