data_PCOD9474547
_publ_section_title
;
Structure prediction by ZEFSAII (Michael W. Deem and Ramdas Pophale) SiO2 
 PCOD9474547
Probable space group: C M C M
;
_chemical_formula_sum "Si O2"
_cell_formula_units_Z 64
_cell_length_a 8.808047
_cell_length_b 26.774595
_cell_length_c 13.816830
_cell_angle_alpha 90.000000
_cell_angle_beta 90.000000
_cell_angle_gamma 90.000000
_cell_volume 3258.449149
_symmetry_space_group_name_H-M "C M C M"
_symmetry_group_IT_number 63
_symmetry_cell_setting 'orthorhombic'
loop_
_space_group_symop_operation_xyz
x,y,z
-x,-y,1/2+z
x,-y,-z
-x,y,1/2-z
-x,-y,-z
x,y,1/2-z
-x,y,z
x,-y,1/2+z
1/2+x,1/2+y,z
1/2-x,1/2-y,1/2+z
1/2+x,1/2-y,-z
1/2-x,1/2+y,1/2-z
1/2-x,1/2-y,-z
1/2+x,1/2+y,1/2-z
1/2-x,1/2+y,z
1/2+x,1/2-y,1/2+z
loop_
_atom_site_type_symbol
_atom_site_label
_atom_site_fract_x
_atom_site_fract_y
_atom_site_fract_z
Si Si1 0.316451 0.125559 0.641295
Si Si2 0.324047 0.304752 0.750000
Si Si3 0.817883 0.555407 0.460670
Si Si4 0.319680 0.266037 0.399886
Si Si5 0.825101 0.923894 0.750000
O O1 0.276129 0.105618 0.750000
O O2 0.500000 0.127538 0.637836
O O3 0.266562 0.093688 0.546524
O O4 0.250876 0.181408 0.633675
O O5 0.500000 0.288078 0.750000
O O6 0.233910 0.280325 0.836696
O O7 0.321706 0.363820 0.750000
O O8 0.785965 0.500000 0.500000
O O9 0.749994 0.561083 0.352767
O O10 0.000000 0.561296 0.451935
O O11 0.500000 0.270870 0.401112
O O12 0.250000 0.250000 0.500000
O O13 0.000000 0.940931 0.750000
#
# Coordination Sequence:
#
# PCOD9474547 Si02
#       5
#    16   8  16  16   8
#     4  10  21  39  64  95 131 167 208 261 321 380
#     4  11  23  41  62  89 126 165 206 255 308 369
#     4  10  23  42  69  98 125 165 214 265 318 378
#     4  12  24  38  60  91 126 168 212 255 308 370
#     4  11  25  43  64  93 130 169 210 263 320 379
#
# _framework density 19.641245999999999
#
# number of rings (size 3 to 8) (size 9 to 14) (size 15 to 20)
#    0.000    1.250    1.250    4.500    1.750    7.500 
#    0.000    0.000    0.000    0.000    0.000    0.000 
#    0.000    0.000    0.000    0.000    0.000    0.000 
#
# Total GULP energy -178540.460772 kJ/mol
# GULP energy per Si atom -5579.389399 kJ/mol
# Density = 1.959654 g / cm^3
# Si number density = 19.641246 Si / 1000 Ang^3
#
#
#
# Elastic Constant Matrix: (Units=GPa)
#
#
# Indices 1 2 3 4 5 6 
#
# 1 60.7701 33.5228 58.1584 0.0000 0.0000 0.0000
# 2 33.5228 67.8830 51.9286 0.0000 0.0000 0.0000
# 3 58.1584 51.9286 208.0922 0.0000 0.0000 0.0000
# 4 0.0000 0.0000 0.0000 39.4890 0.0000 0.0000
# 5 0.0000 0.0000 0.0000 0.0000 -539.0605 0.0000
# 6 0.0000 0.0000 0.0000 0.0000 0.0000 19.3992
#
#
#
# Elastic Compliance Matrix: (Units=1/GPa)
#
#
# Indices 1 2 3 4 5 6 
#
# 1 0.026360 -0.009123 -0.005090 0.000000 0.000000 0.000000
# 2 -0.009123 0.021364 -0.002782 0.000000 0.000000 0.000000
# 3 -0.005090 -0.002782 0.006922 0.000000 0.000000 0.000000
# 4 0.000000 0.000000 0.000000 0.025324 0.000000 0.000000
# 5 0.000000 0.000000 0.000000 0.000000 -0.001855 0.000000
# 6 0.000000 0.000000 0.000000 0.000000 0.000000 0.051548
#
#
# Mechanical properties :
#
#
# Convention : Reuss Voigt Hill
#
# Bulk Modulus (GPa) = 48.41210 69.32945 58.87078
# Shear Modulus (GPa) = 29.31870 -83.15875 -26.92003
#
# Velocity S-wave (km/s) = 3.86775 -6.51389 -3.70616
# Velocity P-wave (km/s) = 6.68189 4.60433 3.42402
#
# Compressibility (1/GPa) = 0.02065599
#
# Stress axis : x y z
#
# Youngs Moduli (GPa) = 37.93646 46.80676 144.45843
#
# Poissons Ratio (x) = 0.42703 0.73536
# Poissons Ratio (y) = 0.34610 0.40183
# Poissons Ratio (z) = 0.19311 0.13020
#
# Static dielectric constant tensor:
#      x y z
#    x 1.664910 0.000000 0.000000 
#    y 0.000000 1.664630 0.000000 
#    z 0.000000 0.000000 1.688480 
# 
# From -- ./inp_files/16231.got.cif
#   From: 2010.05.17/outbox.cif.g08.bks.cpg/sg63_9_cif.got.tgz:16231.got - 2010.06.03 15:47:04.
