data_PCOD9474656
_publ_section_title
;
Structure prediction by ZEFSAII (Michael W. Deem and Ramdas Pophale) SiO2 
 PCOD9474656
Probable space group: C M C M
;
_chemical_formula_sum "Si O2"
_cell_formula_units_Z 96
_cell_length_a 14.038034
_cell_length_b 21.760388
_cell_length_c 15.526172
_cell_angle_alpha 90.000000
_cell_angle_beta 90.000000
_cell_angle_gamma 90.000000
_cell_volume 4742.827373
_symmetry_space_group_name_H-M "C M C M"
_symmetry_group_IT_number 63
_symmetry_cell_setting 'orthorhombic'
loop_
_space_group_symop_operation_xyz
x,y,z
-x,-y,1/2+z
x,-y,-z
-x,y,1/2-z
-x,-y,-z
x,y,1/2-z
-x,y,z
x,-y,1/2+z
1/2+x,1/2+y,z
1/2-x,1/2-y,1/2+z
1/2+x,1/2-y,-z
1/2-x,1/2+y,1/2-z
1/2-x,1/2-y,-z
1/2+x,1/2+y,1/2-z
1/2-x,1/2+y,z
1/2+x,1/2-y,1/2+z
loop_
_atom_site_type_symbol
_atom_site_label
_atom_site_fract_x
_atom_site_fract_y
_atom_site_fract_z
Si Si1 0.105537 0.831224 0.909098
Si Si2 0.388803 0.986024 0.898515
Si Si3 0.213699 0.605522 0.846387
Si Si4 0.108583 0.938191 0.448558
Si Si5 0.110334 0.693884 0.519777
Si Si6 0.191682 0.356107 0.654324
O O1 0.116300 0.764708 0.953253
O O2 0.195807 0.843275 0.849704
O O3 0.000000 0.833600 0.868481
O O4 0.108907 0.882978 0.982813
O O5 0.500000 0.972655 0.884349
O O6 0.356457 0.047186 0.850382
O O7 0.329430 0.927020 0.869139
O O8 0.374936 0.000000 0.000000
O O9 0.216488 0.631301 0.750000
O O10 0.315658 0.579311 0.876242
O O11 0.175448 0.654010 0.916189
O O12 0.000000 0.946467 0.416775
O O13 0.136162 0.000000 0.500000
O O14 0.143697 0.682566 0.422317
O O15 0.000000 0.673586 0.528332
O O16 0.154891 0.342842 0.750000
#
# Coordination Sequence:
#
# PCOD9474656 Si02
#       6
#    16  16  16  16  16  16
#     4  10  22  43  68  90 125 173 216 264 320 381
#     4  11  22  40  64  90 128 171 209 261 322 381
#     4  12  24  38  64  96 128 168 214 265 323 384
#     4  10  21  41  68  94 125 167 216 269 325 382
#     4  11  24  43  64  91 132 175 216 263 321 390
#     4  12  24  39  65  96 129 168 215 268 324 383
#
# _framework density 20.241091000000001
#
# number of rings (size 3 to 8) (size 9 to 14) (size 15 to 20)
#    0.000    1.000    3.333    3.500    0.000    4.667 
#    0.000    1.667    0.000    8.000    0.000    0.000 
#    0.000    0.000    0.000    0.000    0.000    0.000 
#
# Total GULP energy -268452.854761 kJ/mol
# GULP energy per Si atom -5592.767808 kJ/mol
# Density = 2.019502 g / cm^3
# Si number density = 20.241091 Si / 1000 Ang^3
#
#
#
# Elastic Constant Matrix: (Units=GPa)
#
#
# Indices 1 2 3 4 5 6 
#
# 1 114.1418 43.1243 53.3931 0.0000 0.0000 0.0000
# 2 43.1243 95.4997 26.6265 0.0000 0.0000 0.0000
# 3 53.3931 26.6265 133.2701 0.0000 0.0000 0.0000
# 4 0.0000 0.0000 0.0000 1.1155 0.0000 0.0000
# 5 0.0000 0.0000 0.0000 0.0000 -12.5195 0.0000
# 6 0.0000 0.0000 0.0000 0.0000 0.0000 26.7854
#
#
#
# Elastic Compliance Matrix: (Units=1/GPa)
#
#
# Indices 1 2 3 4 5 6 
#
# 1 0.012335 -0.004440 -0.004055 0.000000 0.000000 0.000000
# 2 -0.004440 0.012687 -0.000756 0.000000 0.000000 0.000000
# 3 -0.004055 -0.000756 0.009279 0.000000 0.000000 0.000000
# 4 0.000000 0.000000 0.000000 0.896433 0.000000 0.000000
# 5 0.000000 0.000000 0.000000 0.000000 -0.079875 0.000000
# 6 0.000000 0.000000 0.000000 0.000000 0.000000 0.037334
#
#
# Mechanical properties :
#
#
# Convention : Reuss Voigt Hill
#
# Bulk Modulus (GPa) = 63.29124 65.46660 64.37892
# Shear Modulus (GPa) = 5.48270 17.72748 11.60509
#
# Velocity S-wave (km/s) = 1.64760 2.96263 2.39706
# Velocity P-wave (km/s) = 5.91236 6.64203 6.28779
#
# Compressibility (1/GPa) = 0.01579998
#
# Stress axis : x y z
#
# Youngs Moduli (GPa) = 81.06897 78.82221 107.76807
#
# Poissons Ratio (x) = 0.34994 0.43699
# Poissons Ratio (y) = 0.35991 0.08148
# Poissons Ratio (z) = 0.32873 0.05960
#
# Static dielectric constant tensor:
#      x y z
#    x 1.746810 0.000000 0.000000 
#    y 0.000000 1.683320 0.000000 
#    z 0.000000 0.000000 1.685630 
# 
# From -- ./inp_files/31846.got.cif
#   From: 2010.05.17/outbox.cif.g08.bks.cpg/sg63_16_cif.got.tgz:31846.got - 2010.06.03 15:47:04.
