data_PCOD9474107
_publ_section_title
;
Structure prediction by ZEFSAII (Michael W. Deem and Ramdas Pophale) SiO2 
 PCOD9474107
Probable space group: C M C M
;
_chemical_formula_sum "Si O2"
_cell_formula_units_Z 80
_cell_length_a 8.770381
_cell_length_b 16.031968
_cell_length_c 29.466431
_cell_angle_alpha 90.000000
_cell_angle_beta 90.000000
_cell_angle_gamma 90.000000
_cell_volume 4143.170774
_symmetry_space_group_name_H-M "C M C M"
_symmetry_group_IT_number 63
_symmetry_cell_setting 'orthorhombic'
loop_
_space_group_symop_operation_xyz
x,y,z
-x,-y,1/2+z
x,-y,-z
-x,y,1/2-z
-x,-y,-z
x,y,1/2-z
-x,y,z
x,-y,1/2+z
1/2+x,1/2+y,z
1/2-x,1/2-y,1/2+z
1/2+x,1/2-y,-z
1/2-x,1/2+y,1/2-z
1/2-x,1/2-y,-z
1/2+x,1/2+y,1/2-z
1/2-x,1/2+y,z
1/2+x,1/2-y,1/2+z
loop_
_atom_site_type_symbol
_atom_site_label
_atom_site_fract_x
_atom_site_fract_y
_atom_site_fract_z
Si Si1 0.317448 0.288123 0.640676
Si Si2 0.319667 0.274893 0.451775
Si Si3 0.814110 0.373444 0.302191
Si Si4 0.180986 0.026990 0.550430
Si Si5 0.682002 0.036732 0.357761
O O1 0.500000 0.290311 0.640767
O O2 0.259413 0.272538 0.589626
O O3 0.265503 0.209430 0.670931
O O4 0.253601 0.376128 0.657525
O O5 0.500000 0.257758 0.451599
O O6 0.250000 0.250000 0.500000
O O7 0.297224 0.373909 0.444849
O O8 0.764367 0.372664 0.250000
O O9 0.765422 0.457269 0.328185
O O10 0.000000 0.373439 0.302578
O O11 0.000000 0.008478 0.554589
O O12 0.229517 0.000000 0.500000
O O13 0.268485 0.980966 0.590519
O O14 0.500000 0.042018 0.355019
#
# Coordination Sequence:
#
# PCOD9474107 Si02
#       5
#    16  16  16  16  16
#     4  11  22  39  62  88 123 164 205 251 305 364
#     4  11  22  36  58  88 125 163 204 250 301 363
#     4   9  20  40  64  89 121 162 205 252 310 370
#     4  10  21  37  57  84 120 160 199 246 301 360
#     4  11  22  38  62  91 121 158 204 255 305 361
#
# _framework density 19.308883000000002
#
# number of rings (size 3 to 8) (size 9 to 14) (size 15 to 20)
#    0.000    1.600    2.000    3.000    0.000    3.600 
#    0.000    0.000    0.000    8.400    0.000    0.000 
#    0.000    0.000    0.000    0.000    0.000    0.000 
#
# Total GULP energy -223596.298213 kJ/mol
# GULP energy per Si atom -5589.907455 kJ/mol
# Density = 1.926494 g / cm^3
# Si number density = 19.308883 Si / 1000 Ang^3
#
#
#
# Elastic Constant Matrix: (Units=GPa)
#
#
# Indices 1 2 3 4 5 6 
#
# 1 46.0197 54.4916 20.3227 0.0000 0.0000 0.0000
# 2 54.4916 166.1528 81.6192 0.0000 0.0000 0.0000
# 3 20.3227 81.6192 127.2092 0.0000 0.0000 0.0000
# 4 0.0000 0.0000 0.0000 26.3678 0.0000 0.0000
# 5 0.0000 0.0000 0.0000 0.0000 8.6718 0.0000
# 6 0.0000 0.0000 0.0000 0.0000 0.0000 30.0454
#
#
#
# Elastic Compliance Matrix: (Units=1/GPa)
#
#
# Indices 1 2 3 4 5 6 
#
# 1 0.036138 -0.013165 0.002674 0.000000 0.000000 0.000000
# 2 -0.013165 0.013585 -0.006613 0.000000 0.000000 0.000000
# 3 0.002674 -0.006613 0.011677 0.000000 0.000000 0.000000
# 4 0.000000 0.000000 0.000000 0.037925 0.000000 0.000000
# 5 0.000000 0.000000 0.000000 0.000000 0.115317 0.000000
# 6 0.000000 0.000000 0.000000 0.000000 0.000000 0.033283
#
#
# Mechanical properties :
#
#
# Convention : Reuss Voigt Hill
#
# Bulk Modulus (GPa) = 36.77743 72.47207 54.62475
# Shear Modulus (GPa) = 17.17055 25.21354 21.19205
#
# Velocity S-wave (km/s) = 2.98528 3.61751 3.31649
# Velocity P-wave (km/s) = 5.56514 7.42044 6.55872
#
# Compressibility (1/GPa) = 0.02719059
#
# Stress axis : x y z
#
# Youngs Moduli (GPa) = 27.67180 73.61249 85.63959
#
# Poissons Ratio (x) = 0.96912 -0.22897
# Poissons Ratio (y) = 0.36430 0.56632
# Poissons Ratio (z) = -0.07398 0.48679
#
# Static dielectric constant tensor:
#      x y z
#    x 1.652130 0.000000 0.000000 
#    y 0.000000 1.679380 0.000000 
#    z 0.000000 0.000000 1.642180 
# 
# From -- ./inp_files/66632.got.cif
#   From: 2010.05.17/outbox.cif.g08.bks.cpg/sg63_34_cif.got.tgz:66632.got - 2010.06.03 15:47:04.
