data_PCOD9474835
_publ_section_title
;
Structure prediction by ZEFSAII (Michael W. Deem and Ramdas Pophale) SiO2 
 PCOD9474835
Probable space group: C M C M
;
_chemical_formula_sum "Si O2"
_cell_formula_units_Z 100
_cell_length_a 22.717436
_cell_length_b 13.980526
_cell_length_c 15.651467
_cell_angle_alpha 90.000000
_cell_angle_beta 90.000000
_cell_angle_gamma 90.000000
_cell_volume 4970.932599
_symmetry_space_group_name_H-M "C M C M"
_symmetry_group_IT_number 63
_symmetry_cell_setting 'orthorhombic'
loop_
_space_group_symop_operation_xyz
x,y,z
-x,-y,1/2+z
x,-y,-z
-x,y,1/2-z
-x,-y,-z
x,y,1/2-z
-x,y,z
x,-y,1/2+z
1/2+x,1/2+y,z
1/2-x,1/2-y,1/2+z
1/2+x,1/2-y,-z
1/2-x,1/2+y,1/2-z
1/2-x,1/2-y,-z
1/2+x,1/2+y,1/2-z
1/2-x,1/2+y,z
1/2+x,1/2-y,1/2+z
loop_
_atom_site_type_symbol
_atom_site_label
_atom_site_fract_x
_atom_site_fract_y
_atom_site_fract_z
Si Si1 0.064414 0.567972 0.653680
Si Si2 0.500000 0.500000 0.000000
Si Si3 0.172797 0.544965 0.404212
Si Si4 0.432795 0.735365 0.056225
Si Si5 0.083419 0.049161 0.154412
Si Si6 0.295768 0.529837 0.898953
Si Si7 0.187573 0.238385 0.948818
O O1 0.067112 0.606654 0.750000
O O2 0.114916 0.491643 0.641375
O O3 0.069825 0.656490 0.589257
O O4 0.000000 0.523819 0.640606
O O5 0.550674 0.502546 0.923967
O O6 0.168976 0.500000 0.500000
O O7 0.232139 0.500978 0.366091
O O8 0.178125 0.658750 0.406305
O O9 0.500000 0.716519 0.019075
O O10 0.428257 0.660456 0.133647
O O11 0.373586 0.720129 0.001020
O O12 0.064488 0.024594 0.250000
O O13 0.151884 0.025459 0.145771
O O14 0.304039 0.643524 0.893032
O O15 0.297543 0.500000 0.000000
O O16 0.250000 0.250000 0.000000
#
# Coordination Sequence:
#
# PCOD9474835 Si02
#       7
#    16   4  16  16  16  16  16
#     4  10  22  39  59  87 126 163 207 272 329 380
#     4  12  22  40  60  90 128 170 216 262 318 378
#     4  11  21  37  64  92 120 165 211 260 321 391
#     4  11  21  35  60  94 124 160 216 273 322 377
#     4  12  24  40  64  93 132 174 216 267 326 386
#     4  11  21  39  61  93 128 168 212 268 320 383
#     4  12  20  37  63  93 128 166 212 263 325 387
#
# _framework density 20.116949000000002
#
# number of rings (size 3 to 8) (size 9 to 14) (size 15 to 20)
#    0.000    0.800    8.000    0.720    0.000    2.240 
#    0.000    0.800    0.000    0.000    0.000    0.000 
#    0.000    0.000    0.000    0.000    0.000    0.000 
#
# Total GULP energy -278502.294859 kJ/mol
# GULP energy per Si atom -5570.045897 kJ/mol
# Density = 2.007116 g / cm^3
# Si number density = 20.116949 Si / 1000 Ang^3
#
#
#
# Elastic Constant Matrix: (Units=GPa)
#
#
# Indices 1 2 3 4 5 6 
#
# 1 195.7635 43.6562 43.0424 0.0000 0.0000 0.0000
# 2 43.6562 113.2637 8.6037 0.0000 0.0000 0.0000
# 3 43.0424 8.6037 70.2296 0.0000 0.0000 0.0000
# 4 0.0000 0.0000 0.0000 11.3174 0.0000 0.0000
# 5 0.0000 0.0000 0.0000 0.0000 -10.7195 0.0000
# 6 0.0000 0.0000 0.0000 0.0000 0.0000 30.6439
#
#
#
# Elastic Compliance Matrix: (Units=1/GPa)
#
#
# Indices 1 2 3 4 5 6 
#
# 1 0.006400 -0.002189 -0.003654 0.000000 0.000000 0.000000
# 2 -0.002189 0.009661 0.000158 0.000000 0.000000 0.000000
# 3 -0.003654 0.000158 0.016459 0.000000 0.000000 0.000000
# 4 0.000000 0.000000 0.000000 0.088360 0.000000 0.000000
# 5 0.000000 0.000000 0.000000 0.000000 -0.093288 0.000000
# 6 0.000000 0.000000 0.000000 0.000000 0.000000 0.032633
#
#
# Mechanical properties :
#
#
# Convention : Reuss Voigt Hill
#
# Bulk Modulus (GPa) = 47.28247 63.31793 55.30020
# Shear Modulus (GPa) = 63.57704 25.17865 44.37785
#
# Velocity S-wave (km/s) = 5.62782 3.54165 4.70190
# Velocity P-wave (km/s) = 8.11077 6.94749 7.55156
#
# Compressibility (1/GPa) = 0.02114949
#
# Stress axis : x y z
#
# Youngs Moduli (GPa) = 156.25401 103.51190 60.75635
#
# Poissons Ratio (x) = 0.22661 0.22201
# Poissons Ratio (y) = 0.34207 -0.00961
# Poissons Ratio (z) = 0.57097 -0.01637
#
# Static dielectric constant tensor:
#      x y z
#    x 1.740690 0.000000 0.000000 
#    y 0.000000 1.733080 0.000000 
#    z 0.000000 0.000000 1.723570 
# 
# From -- ./inp_files/47140.got.cif
#   From: 2010.05.17/outbox.cif.g08.bks.cpg/sg63_24_cif.got.tgz:47140.got - 2010.06.03 15:47:04.
