data_PCOD9474539
_publ_section_title
;
Structure prediction by ZEFSAII (Michael W. Deem and Ramdas Pophale) SiO2 
 PCOD9474539
Probable space group: C M C M
;
_chemical_formula_sum "Si O2"
_cell_formula_units_Z 96
_cell_length_a 18.318795
_cell_length_b 15.097063
_cell_length_c 18.845084
_cell_angle_alpha 90.000000
_cell_angle_beta 90.000000
_cell_angle_gamma 90.000000
_cell_volume 5211.796472
_symmetry_space_group_name_H-M "C M C M"
_symmetry_group_IT_number 63
_symmetry_cell_setting 'orthorhombic'
loop_
_space_group_symop_operation_xyz
x,y,z
-x,-y,1/2+z
x,-y,-z
-x,y,1/2-z
-x,-y,-z
x,y,1/2-z
-x,y,z
x,-y,1/2+z
1/2+x,1/2+y,z
1/2-x,1/2-y,1/2+z
1/2+x,1/2-y,-z
1/2-x,1/2+y,1/2-z
1/2-x,1/2-y,-z
1/2+x,1/2+y,1/2-z
1/2-x,1/2+y,z
1/2+x,1/2-y,1/2+z
loop_
_atom_site_type_symbol
_atom_site_label
_atom_site_fract_x
_atom_site_fract_y
_atom_site_fract_z
Si Si1 0.824596 0.548029 0.074009
Si Si2 0.086902 0.781310 0.891495
Si Si3 0.179157 0.944081 0.666053
Si Si4 0.912266 0.410762 0.331464
Si Si5 0.913132 0.271391 0.552184
Si Si6 0.914007 0.120791 0.832800
O O1 0.752095 0.560208 0.120032
O O2 0.877376 0.483189 0.117934
O O3 0.865586 0.640530 0.060291
O O4 0.807386 0.500000 0.000000
O O5 0.128665 0.862135 0.856351
O O6 0.108673 0.687754 0.856509
O O7 0.000000 0.792358 0.881160
O O8 0.100932 0.772894 0.975639
O O9 0.194959 0.940191 0.750000
O O10 0.135595 0.035522 0.652299
O O11 0.890029 0.424766 0.250000
O O12 0.000000 0.416178 0.335726
O O13 0.897365 0.201565 0.614634
O O14 0.000000 0.293393 0.554574
O O15 0.903976 0.145791 0.750000
O O16 0.000000 0.098120 0.842242
#
# Coordination Sequence:
#
# PCOD9474539 Si02
#       6
#    16  16  16  16  16  16
#     4  12  25  40  60  86 126 166 201 242 299 363
#     4  10  21  39  66  94 119 153 200 255 307 356
#     4  11  25  41  60  89 125 162 201 247 301 361
#     4  10  21  39  64  91 118 154 203 253 299 352
#     4  10  22  40  65  93 120 155 204 255 302 356
#     4   9  20  40  64  89 120 159 202 251 303 356
#
# _framework density 18.419751999999999
#
# number of rings (size 3 to 8) (size 9 to 14) (size 15 to 20)
#    0.000    1.667    1.667    2.000    2.333    5.667 
#    0.000    5.833    0.000    0.000    0.000    0.000 
#    0.000    0.000    0.000    0.000    0.000    0.000 
#
# Total GULP energy -268253.992818 kJ/mol
# GULP energy per Si atom -5588.624850 kJ/mol
# Density = 1.837783 g / cm^3
# Si number density = 18.419752 Si / 1000 Ang^3
#
#
#
# Elastic Constant Matrix: (Units=GPa)
#
#
# Indices 1 2 3 4 5 6 
#
# 1 46.9335 41.3701 46.1786 0.0000 0.0000 0.0000
# 2 41.3701 84.4961 47.7873 0.0000 0.0000 0.0000
# 3 46.1786 47.7873 108.9839 0.0000 0.0000 0.0000
# 4 0.0000 0.0000 0.0000 37.2354 0.0000 0.0000
# 5 0.0000 0.0000 0.0000 0.0000 10.3275 0.0000
# 6 0.0000 0.0000 0.0000 0.0000 0.0000 32.7798
#
#
#
# Elastic Compliance Matrix: (Units=1/GPa)
#
#
# Indices 1 2 3 4 5 6 
#
# 1 0.049150 -0.016338 -0.013662 0.000000 0.000000 0.000000
# 2 -0.016338 0.021168 -0.002359 0.000000 0.000000 0.000000
# 3 -0.013662 -0.002359 0.015999 0.000000 0.000000 0.000000
# 4 0.000000 0.000000 0.000000 0.026856 0.000000 0.000000
# 5 0.000000 0.000000 0.000000 0.000000 0.096828 0.000000
# 6 0.000000 0.000000 0.000000 0.000000 0.000000 0.030507
#
#
# Mechanical properties :
#
#
# Convention : Reuss Voigt Hill
#
# Bulk Modulus (GPa) = 46.29774 56.78728 51.54251
# Shear Modulus (GPa) = 16.00376 23.07371 19.53874
#
# Velocity S-wave (km/s) = 2.95080 3.54314 3.26045
# Velocity P-wave (km/s) = 6.06622 6.90180 6.49746
#
# Compressibility (1/GPa) = 0.02159933
#
# Stress axis : x y z
#
# Youngs Moduli (GPa) = 20.34581 47.24057 62.50357
#
# Poissons Ratio (x) = 0.77180 0.85393
# Poissons Ratio (y) = 0.33240 0.14746
# Poissons Ratio (z) = 0.27797 0.11145
#
# Static dielectric constant tensor:
#      x y z
#    x 1.625190 0.000000 0.000000 
#    y 0.000000 1.591060 0.000000 
#    z 0.000000 0.000000 1.622400 
# 
# From -- ./inp_files/54205.got.cif
#   From: 2010.05.17/outbox.cif.g08.bks.cpg/sg63_28_cif.got.tgz:54205.got - 2010.06.03 15:47:04.
