data_PCOD9474254
_publ_section_title
;
Structure prediction by ZEFSAII (Michael W. Deem and Ramdas Pophale) SiO2 
 PCOD9474254
Probable space group: C M C M
;
_chemical_formula_sum "Si O2"
_cell_formula_units_Z 84
_cell_length_a 14.492284
_cell_length_b 22.703936
_cell_length_c 14.470751
_cell_angle_alpha 90.000000
_cell_angle_beta 90.000000
_cell_angle_gamma 90.000000
_cell_volume 4761.338529
_symmetry_space_group_name_H-M "C M C M"
_symmetry_group_IT_number 63
_symmetry_cell_setting 'orthorhombic'
loop_
_space_group_symop_operation_xyz
x,y,z
-x,-y,1/2+z
x,-y,-z
-x,y,1/2-z
-x,-y,-z
x,y,1/2-z
-x,y,z
x,-y,1/2+z
1/2+x,1/2+y,z
1/2-x,1/2-y,1/2+z
1/2+x,1/2-y,-z
1/2-x,1/2+y,1/2-z
1/2-x,1/2-y,-z
1/2+x,1/2+y,1/2-z
1/2-x,1/2+y,z
1/2+x,1/2-y,1/2+z
loop_
_atom_site_type_symbol
_atom_site_label
_atom_site_fract_x
_atom_site_fract_y
_atom_site_fract_z
Si Si1 0.893442 0.673436 0.750000
Si Si2 0.000000 1.000000 0.750000
Si Si3 0.893442 0.326564 0.750000
Si Si4 0.606527 0.315006 0.250000
Si Si5 0.393473 0.315005 0.750000
Si Si6 0.671015 0.500000 0.892170
Si Si7 0.745982 0.371469 0.609102
Si Si8 0.245982 0.128531 0.890898
O O1 0.889724 0.744459 0.750000
O O2 0.837425 0.650144 0.838679
O O3 0.000000 0.655427 0.750000
O O4 0.918664 1.000000 0.670622
O O5 0.889724 0.255541 0.750000
O O6 0.837425 0.349856 0.661321
O O7 0.000000 0.344572 0.750000
O O8 0.500000 0.335143 0.250000
O O9 0.661163 0.339359 0.161201
O O10 0.500000 0.335143 0.750000
O O11 0.338837 0.339359 0.838799
O O12 0.729540 0.440874 0.875789
O O13 0.729540 0.559126 0.875789
O O14 0.644309 0.500000 0.000000
O O15 0.747480 0.359188 0.500000
#
# Coordination Sequence:
#
# PCOD9474254 Si02
#       8
#     8   4   8   8   8  16  16  16
#     4  10  22  39  57  81 108 139 193 239 272 324
#     4  12  18  32  56  74 114 156 170 212 272 308
#     4  10  22  39  57  81 108 139 193 239 272 324
#     4  10  22  36  54  85 113 142 186 229 269 329
#     4  10  22  36  54  85 113 142 186 229 269 329
#     4  10  23  35  53  86 114 142 186 221 266 340
#     4  10  21  38  57  80 114 148 179 225 279 328
#     4  10  21  38  57  80 114 148 179 225 279 328
#
# _framework density 17.642098000000001
#
# number of rings (size 3 to 8) (size 9 to 14) (size 15 to 20)
#    0.000    1.905    0.000    4.857    5.333    4.571 
#    0.000    5.714    0.000    3.429    0.000    0.000 
#    0.000    0.000    0.000    0.000    0.000    0.000 
#
# Total GULP energy -234019.717109 kJ/mol
# GULP energy per Si atom -5571.898026 kJ/mol
# Density = 1.760194 g / cm^3
# Si number density = 17.642098 Si / 1000 Ang^3
#
#
#
# Elastic Constant Matrix: (Units=GPa)
#
#
# Indices 1 2 3 4 5 6 
#
# 1 177.8327 63.2188 90.6894 0.0000 0.0000 0.0000
# 2 63.2188 86.2242 59.4555 0.0000 0.0000 0.0000
# 3 90.6894 59.4555 152.3894 0.0000 0.0000 0.0000
# 4 0.0000 0.0000 0.0000 18.7336 0.0000 0.0000
# 5 0.0000 0.0000 0.0000 0.0000 15.4868 0.0000
# 6 0.0000 0.0000 0.0000 0.0000 0.0000 -55.1998
#
#
#
# Elastic Compliance Matrix: (Units=1/GPa)
#
#
# Indices 1 2 3 4 5 6 
#
# 1 0.008963 -0.003959 -0.003790 0.000000 0.000000 0.000000
# 2 -0.003959 0.017614 -0.004517 0.000000 0.000000 0.000000
# 3 -0.003790 -0.004517 0.010580 0.000000 0.000000 0.000000
# 4 0.000000 0.000000 0.000000 0.053380 0.000000 0.000000
# 5 0.000000 0.000000 0.000000 0.000000 0.064571 0.000000
# 6 0.000000 0.000000 0.000000 0.000000 0.000000 -0.018116
#
#
# Mechanical properties :
#
#
# Convention : Reuss Voigt Hill
#
# Bulk Modulus (GPa) = 79.19159 93.68597 86.43878
# Shear Modulus (GPa) = 30.16936 9.34294 19.75615
#
# Velocity S-wave (km/s) = 4.13979 2.30376 3.35002
# Velocity P-wave (km/s) = 8.23625 7.76501 8.00410
#
# Compressibility (1/GPa) = 0.01262760
#
# Stress axis : x y z
#
# Youngs Moduli (GPa) = 111.56823 56.77164 94.52166
#
# Poissons Ratio (x) = 0.22473 0.35820
# Poissons Ratio (y) = 0.44165 0.42691
# Poissons Ratio (z) = 0.42281 0.25641
#
# Static dielectric constant tensor:
#      x y z
#    x 1.570210 0.000000 0.000000 
#    y 0.000000 1.624270 0.000000 
#    z 0.000000 0.000000 1.590420 
# 
# From -- ./inp_files/31836.got.cif
#   From: 2010.05.17/outbox.cif.g08.bks.cpg/sg63_16_cif.got.tgz:31836.got - 2010.06.03 15:47:04.
