data_PCOD9474863
_publ_section_title
;
Structure prediction by ZEFSAII (Michael W. Deem and Ramdas Pophale) SiO2 
 PCOD9474863
Probable space group: C M C M
;
_chemical_formula_sum "Si O2"
_cell_formula_units_Z 80
_cell_length_a 25.599157
_cell_length_b 10.016094
_cell_length_c 16.728554
_cell_angle_alpha 90.000000
_cell_angle_beta 90.000000
_cell_angle_gamma 90.000000
_cell_volume 4289.260847
_symmetry_space_group_name_H-M "C M C M"
_symmetry_group_IT_number 63
_symmetry_cell_setting 'orthorhombic'
loop_
_space_group_symop_operation_xyz
x,y,z
-x,-y,1/2+z
x,-y,-z
-x,y,1/2-z
-x,-y,-z
x,y,1/2-z
-x,y,z
x,-y,1/2+z
1/2+x,1/2+y,z
1/2-x,1/2-y,1/2+z
1/2+x,1/2-y,-z
1/2-x,1/2+y,1/2-z
1/2-x,1/2-y,-z
1/2+x,1/2+y,1/2-z
1/2-x,1/2+y,z
1/2+x,1/2-y,1/2+z
loop_
_atom_site_type_symbol
_atom_site_label
_atom_site_fract_x
_atom_site_fract_y
_atom_site_fract_z
Si Si1 0.243641 0.123406 0.942573
Si Si2 0.559384 0.228529 0.845685
Si Si3 0.145670 0.222777 0.845307
Si Si4 0.346775 0.963523 0.346897
Si Si5 0.439649 0.479202 0.094808
O O1 0.197031 0.156001 0.882271
O O2 0.296095 0.089731 0.893387
O O3 0.250000 0.250000 0.000000
O O4 0.230490 0.000000 0.000000
O O5 0.556696 0.217338 0.750000
O O6 0.500000 0.208356 0.877318
O O7 0.576122 0.379122 0.866693
O O8 0.602599 0.122284 0.872272
O O9 0.146341 0.211590 0.750000
O O10 0.145238 0.380098 0.865460
O O11 0.096424 0.141750 0.878421
O O12 0.340093 0.950559 0.250000
O O13 0.500000 0.454605 0.117363
O O14 0.436682 0.500000 0.000000
#
# Coordination Sequence:
#
# PCOD9474863 Si02
#       5
#    16  16  16  16  16
#     4  12  25  43  63  88 121 159 201 253 306 366
#     4   9  19  37  61  88 119 158 199 242 296 356
#     4  11  24  41  62  90 123 159 204 251 303 364
#     4  10  23  41  61  89 123 158 202 251 302 363
#     4  10  22  39  61  91 125 159 201 250 299 357
#
# _framework density 18.651232
#
# number of rings (size 3 to 8) (size 9 to 14) (size 15 to 20)
#    0.000    1.600    2.000    1.800    5.600    2.000 
#    0.000    2.000    0.000    4.200    0.000    0.000 
#    0.000    0.000    0.000    0.000    0.000    0.000 
#
# Total GULP energy -223464.416757 kJ/mol
# GULP energy per Si atom -5586.610419 kJ/mol
# Density = 1.860878 g / cm^3
# Si number density = 18.651232 Si / 1000 Ang^3
#
#
#
# Elastic Constant Matrix: (Units=GPa)
#
#
# Indices 1 2 3 4 5 6 
#
# 1 131.1678 105.5530 43.3281 0.0000 0.0000 0.0000
# 2 105.5530 168.0255 49.8713 0.0000 0.0000 0.0000
# 3 43.3281 49.8713 39.4731 0.0000 0.0000 0.0000
# 4 0.0000 0.0000 0.0000 32.1114 0.0000 0.0000
# 5 0.0000 0.0000 0.0000 0.0000 28.1762 0.0000
# 6 0.0000 0.0000 0.0000 0.0000 0.0000 31.3941
#
#
#
# Elastic Compliance Matrix: (Units=1/GPa)
#
#
# Indices 1 2 3 4 5 6 
#
# 1 0.016942 -0.008197 -0.008240 0.000000 0.000000 0.000000
# 2 -0.008197 0.013488 -0.008044 0.000000 0.000000 0.000000
# 3 -0.008240 -0.008044 0.044541 0.000000 0.000000 0.000000
# 4 0.000000 0.000000 0.000000 0.031142 0.000000 0.000000
# 5 0.000000 0.000000 0.000000 0.000000 0.035491 0.000000
# 6 0.000000 0.000000 0.000000 0.000000 0.000000 0.031853
#
#
# Mechanical properties :
#
#
# Convention : Reuss Voigt Hill
#
# Bulk Modulus (GPa) = 38.44746 81.79681 60.12214
# Shear Modulus (GPa) = 21.63657 27.66393 24.65025
#
# Velocity S-wave (km/s) = 3.40966 3.85544 3.63938
# Velocity P-wave (km/s) = 6.01329 7.98564 7.06860
#
# Compressibility (1/GPa) = 0.02600952
#
# Stress axis : x y z
#
# Youngs Moduli (GPa) = 59.02387 74.13747 22.45104
#
# Poissons Ratio (x) = 0.60773 0.18500
# Poissons Ratio (y) = 0.48384 0.18059
# Poissons Ratio (z) = 0.48637 0.59634
#
# Static dielectric constant tensor:
#      x y z
#    x 1.638450 0.000000 0.000000 
#    y 0.000000 1.603090 0.000000 
#    z 0.000000 0.000000 1.647900 
# 
# From -- ./inp_files/48819.got.cif
#   From: 2010.05.17/outbox.cif.g08.bks.cpg/sg63_25_cif.got.tgz:48819.got - 2010.06.03 15:47:04.
