data_PCOD9474842
_publ_section_title
;
Structure prediction by ZEFSAII (Michael W. Deem and Ramdas Pophale) SiO2 
 PCOD9474842
Probable space group: C M C M
;
_chemical_formula_sum "Si O2"
_cell_formula_units_Z 64
_cell_length_a 13.955835
_cell_length_b 26.962144
_cell_length_c 10.204099
_cell_angle_alpha 90.000000
_cell_angle_beta 90.000000
_cell_angle_gamma 90.000000
_cell_volume 3839.590544
_symmetry_space_group_name_H-M "C M C M"
_symmetry_group_IT_number 63
_symmetry_cell_setting 'orthorhombic'
loop_
_space_group_symop_operation_xyz
x,y,z
-x,-y,1/2+z
x,-y,-z
-x,y,1/2-z
-x,-y,-z
x,y,1/2-z
-x,y,z
x,-y,1/2+z
1/2+x,1/2+y,z
1/2-x,1/2-y,1/2+z
1/2+x,1/2-y,-z
1/2-x,1/2+y,1/2-z
1/2-x,1/2-y,-z
1/2+x,1/2+y,1/2-z
1/2-x,1/2+y,z
1/2+x,1/2-y,1/2+z
loop_
_atom_site_type_symbol
_atom_site_label
_atom_site_fract_x
_atom_site_fract_y
_atom_site_fract_z
Si Si1 0.500000 0.282726 0.250000
Si Si2 0.214094 0.203063 0.750000
Si Si3 0.205296 0.186586 0.250000
Si Si4 0.500000 0.262197 0.750000
Si Si5 0.500000 0.796729 0.520949
Si Si6 0.386390 0.046290 0.903564
Si Si7 0.802999 0.351795 0.001273
O O1 0.398347 0.310035 0.250000
O O2 0.500000 0.247901 0.377070
O O3 0.232047 0.262302 0.750000
O O4 0.263284 0.180417 0.621883
O O5 0.232895 0.155727 0.121195
O O6 0.095855 0.204882 0.250000
O O7 0.500000 0.226899 0.876559
O O8 0.594577 0.829139 0.539146
O O9 0.367949 0.034883 0.750000
O O10 0.500000 0.059575 0.912862
O O11 0.323310 0.092693 0.950204
O O12 0.370550 0.000000 0.000000
#
# Coordination Sequence:
#
# PCOD9474842 Si02
#       7
#     4   8   8   4   8  16  16
#     4  12  24  36  52  82 118 152 200 246 268 320
#     4  12  22  38  55  81 115 157 199 233 278 337
#     4  12  24  36  55  85 117 157 199 235 278 339
#     4  12  24  36  56  78 118 162 198 236 274 324
#     4  12  20  34  57  80 119 158 190 233 276 337
#     4  10  22  39  60  87 117 149 189 237 288 347
#     4  12  22  37  58  85 117 159 193 227 287 350
#
# _framework density 16.668443
#
# number of rings (size 3 to 8) (size 9 to 14) (size 15 to 20)
#    0.000    0.500    7.500    2.250    1.750    0.000 
#    0.000    0.000    0.000    0.000    0.000    5.250 
#    0.000    0.000    0.000    0.000    0.000    0.000 
#
# Total GULP energy -178822.241088 kJ/mol
# GULP energy per Si atom -5588.195034 kJ/mol
# Density = 1.663051 g / cm^3
# Si number density = 16.668443 Si / 1000 Ang^3
#
#
#
# Elastic Constant Matrix: (Units=GPa)
#
#
# Indices 1 2 3 4 5 6 
#
# 1 75.3399 3.0530 -16.3650 0.0000 0.0000 0.0000
# 2 3.0530 72.0305 27.0784 0.0000 0.0000 0.0000
# 3 -16.3650 27.0784 87.9744 0.0000 0.0000 0.0000
# 4 0.0000 0.0000 0.0000 21.4414 0.0000 0.0000
# 5 0.0000 0.0000 0.0000 0.0000 11.7576 0.0000
# 6 0.0000 0.0000 0.0000 0.0000 0.0000 25.2713
#
#
#
# Elastic Compliance Matrix: (Units=1/GPa)
#
#
# Indices 1 2 3 4 5 6 
#
# 1 0.014032 -0.001782 0.003159 0.000000 0.000000 0.000000
# 2 -0.001782 0.015926 -0.005234 0.000000 0.000000 0.000000
# 3 0.003159 -0.005234 0.013565 0.000000 0.000000 0.000000
# 4 0.000000 0.000000 0.000000 0.046639 0.000000 0.000000
# 5 0.000000 0.000000 0.000000 0.000000 0.085051 0.000000
# 6 0.000000 0.000000 0.000000 0.000000 0.000000 0.039571
#
#
# Mechanical properties :
#
#
# Convention : Reuss Voigt Hill
#
# Bulk Modulus (GPa) = 27.92604 29.20864 28.56734
# Shear Modulus (GPa) = 21.32797 26.46596 23.89697
#
# Velocity S-wave (km/s) = 3.58095 3.98903 3.79048
# Velocity P-wave (km/s) = 5.82132 6.22718 6.02767
#
# Compressibility (1/GPa) = 0.03580887
#
# Stress axis : x y z
#
# Youngs Moduli (GPa) = 71.26817 62.79047 73.71700
#
# Poissons Ratio (x) = 0.11190 -0.23285
# Poissons Ratio (y) = 0.12701 0.38580
# Poissons Ratio (z) = -0.22511 0.32862
#
# Static dielectric constant tensor:
#      x y z
#    x 1.558550 0.000000 0.000000 
#    y 0.000000 1.532760 0.000000 
#    z 0.000000 0.000000 1.560650 
# 
# From -- ./inp_files/4569.got.cif
#   From: 2010.05.17/outbox.cif.g08.bks.cpg/sg63_3_cif.got.tgz:4569.got - 2010.06.03 15:47:04.
