data_PCOD9474697
_publ_section_title
;
Structure prediction by ZEFSAII (Michael W. Deem and Ramdas Pophale) SiO2 
 PCOD9474697
Probable space group: C M C M
;
_chemical_formula_sum "Si O2"
_cell_formula_units_Z 48
_cell_length_a 10.137497
_cell_length_b 15.986896
_cell_length_c 11.211048
_cell_angle_alpha 90.000000
_cell_angle_beta 90.000000
_cell_angle_gamma 90.000000
_cell_volume 1816.942152
_symmetry_space_group_name_H-M "C M C M"
_symmetry_group_IT_number 63
_symmetry_cell_setting 'orthorhombic'
loop_
_space_group_symop_operation_xyz
x,y,z
-x,-y,1/2+z
x,-y,-z
-x,y,1/2-z
-x,-y,-z
x,y,1/2-z
-x,y,z
x,-y,1/2+z
1/2+x,1/2+y,z
1/2-x,1/2-y,1/2+z
1/2+x,1/2-y,-z
1/2-x,1/2+y,1/2-z
1/2-x,1/2-y,-z
1/2+x,1/2+y,1/2-z
1/2-x,1/2+y,z
1/2+x,1/2-y,1/2+z
loop_
_atom_site_type_symbol
_atom_site_label
_atom_site_fract_x
_atom_site_fract_y
_atom_site_fract_z
Si Si1 0.000000 0.367915 0.043845
Si Si2 0.203011 0.900761 0.996259
Si Si3 0.000000 0.494001 0.750000
Si Si4 0.740841 0.865782 0.750000
Si Si5 0.192948 0.178590 0.750000
Si Si6 0.500000 0.218687 0.750000
O O1 0.000000 0.276746 0.105454
O O2 0.000000 0.447015 0.134799
O O3 0.859241 0.377888 0.983862
O O4 0.163159 0.870541 0.864791
O O5 0.155025 0.862825 0.122863
O O6 0.183940 0.000000 0.000000
O O7 0.865476 0.440654 0.750000
O O8 0.665305 0.777119 0.750000
O O9 0.352442 0.175977 0.750000
#
# Coordination Sequence:
#
# PCOD9474697 Si02
#       6
#     8  16   4   8   8   4
#     4   9  16  30  52  81 104 128 166 206 273 328
#     4  11  19  33  52  75 105 138 172 212 258 321
#     4  11  18  32  52  84 117 134 162 212 269 332
#     4  12  22  30  50  80 112 138 166 212 266 320
#     4  10  22  36  48  76 108 140 176 212 266 314
#     4   7  16  32  54  64 103 136 166 210 249 310
#
# _framework density 26.418011
#
# number of rings (size 3 to 8) (size 9 to 14) (size 15 to 20)
#    0.000    1.667    3.333    4.500    0.000    0.000 
#    0.000    0.000    0.000    0.000    0.000    7.000 
#    0.000    0.000    0.000    0.000    0.000    0.000 
#
# Total GULP energy -133613.673378 kJ/mol
# GULP energy per Si atom -5567.236391 kJ/mol
# Density = 2.635788 g / cm^3
# Si number density = 26.418011 Si / 1000 Ang^3
#
#
#
# Elastic Constant Matrix: (Units=GPa)
#
#
# Indices 1 2 3 4 5 6 
#
# 1 106.8651 13.0657 2.1773 0.0000 0.0000 0.0000
# 2 13.0657 157.5827 59.4865 0.0000 0.0000 0.0000
# 3 2.1773 59.4865 235.1412 0.0000 0.0000 0.0000
# 4 0.0000 0.0000 0.0000 -9.8976 0.0000 0.0000
# 5 0.0000 0.0000 0.0000 0.0000 127.1653 0.0000
# 6 0.0000 0.0000 0.0000 0.0000 0.0000 -45.7981
#
#
#
# Elastic Compliance Matrix: (Units=1/GPa)
#
#
# Indices 1 2 3 4 5 6 
#
# 1 0.009457 -0.000830 0.000122 0.000000 0.000000 0.000000
# 2 -0.000830 0.007089 -0.001786 0.000000 0.000000 0.000000
# 3 0.000122 -0.001786 0.004703 0.000000 0.000000 0.000000
# 4 0.000000 0.000000 0.000000 -0.101034 0.000000 0.000000
# 5 0.000000 0.000000 0.000000 0.000000 0.007864 0.000000
# 6 0.000000 0.000000 0.000000 0.000000 0.000000 -0.021835
#
#
# Mechanical properties :
#
#
# Convention : Reuss Voigt Hill
#
# Bulk Modulus (GPa) = 61.49373 72.11643 66.80508
# Shear Modulus (GPa) = -59.98857 42.61789 -8.68534
#
# Velocity S-wave (km/s) = -4.77040 4.02084 -1.81516
# Velocity P-wave (km/s) = 2.64851 6.99383 4.57707
#
# Compressibility (1/GPa) = 0.01626182
#
# Stress axis : x y z
#
# Youngs Moduli (GPa) = 105.74611 141.06785 212.61368
#
# Poissons Ratio (x) = 0.11713 -0.02604
# Poissons Ratio (y) = 0.08780 0.37965
# Poissons Ratio (z) = -0.01295 0.25190
#
# Static dielectric constant tensor:
#      x y z
#    x 2.163130 0.000000 0.000000 
#    y 0.000000 2.167980 0.000000 
#    z 0.000000 0.000000 2.273180 
# 
# From -- ./inp_files/18730.got.cif
#   From: 2010.05.17/outbox.cif.g08.bks.cpg/sg63_10_cif.got.tgz:18730.got - 2010.06.03 15:47:04.
