data_PCOD9474516
_publ_section_title
;
Structure prediction by ZEFSAII (Michael W. Deem and Ramdas Pophale) SiO2 
 PCOD9474516
Probable space group: C M C M
;
_chemical_formula_sum "Si O2"
_cell_formula_units_Z 112
_cell_length_a 15.396348
_cell_length_b 17.280781
_cell_length_c 22.155552
_cell_angle_alpha 90.000000
_cell_angle_beta 90.000000
_cell_angle_gamma 90.000000
_cell_volume 5894.726504
_symmetry_space_group_name_H-M "C M C M"
_symmetry_group_IT_number 63
_symmetry_cell_setting 'orthorhombic'
loop_
_space_group_symop_operation_xyz
x,y,z
-x,-y,1/2+z
x,-y,-z
-x,y,1/2-z
-x,-y,-z
x,y,1/2-z
-x,y,z
x,-y,1/2+z
1/2+x,1/2+y,z
1/2-x,1/2-y,1/2+z
1/2+x,1/2-y,-z
1/2-x,1/2+y,1/2-z
1/2-x,1/2-y,-z
1/2+x,1/2+y,1/2-z
1/2-x,1/2+y,z
1/2+x,1/2-y,1/2+z
loop_
_atom_site_type_symbol
_atom_site_label
_atom_site_fract_x
_atom_site_fract_y
_atom_site_fract_z
Si Si1 0.831489 0.195384 0.516721
Si Si2 0.399207 0.988470 0.571987
Si Si3 0.598445 0.188691 0.113033
Si Si4 0.749227 0.770158 0.318967
Si Si5 0.403124 0.695523 0.112863
Si Si6 0.768290 0.076703 0.884468
Si Si7 0.599550 0.466208 0.679311
O O1 0.750000 0.250000 0.500000
O O2 0.891270 0.249850 0.558562
O O3 0.878081 0.172049 0.455036
O O4 0.799216 0.122541 0.555647
O O5 0.500000 0.007720 0.587271
O O6 0.385167 0.898205 0.589116
O O7 0.389503 0.000000 0.500000
O O8 0.326476 0.040257 0.604437
O O9 0.500000 0.191914 0.136710
O O10 0.671196 0.215716 0.160356
O O11 0.726818 0.756256 0.250000
O O12 0.668897 0.753413 0.362838
O O13 0.771975 0.858868 0.332028
O O14 0.500000 0.728481 0.113237
O O15 0.399967 0.622118 0.156971
O O16 0.835346 0.011626 0.863760
O O17 0.623572 0.471256 0.750000
O O18 0.500000 0.494894 0.673065
#
# Coordination Sequence:
#
# PCOD9474516 Si02
#       7
#    16  16  16  16  16  16  16
#     4  11  21  39  58  93 123 155 195 247 306 359
#     4  10  22  37  59  91 123 159 194 233 297 368
#     4  10  21  39  63  89 121 158 200 249 301 357
#     4  11  24  41  61  88 118 157 209 252 298 354
#     4  11  23  40  63  88 121 161 201 248 301 362
#     4  11  23  37  65  88 125 156 199 248 309 354
#     4  10  23  42  62  87 120 162 206 246 296 357
#
# _framework density 19.000033999999999
#
# number of rings (size 3 to 8) (size 9 to 14) (size 15 to 20)
#    0.000    1.429    2.857    3.000    2.000    4.571 
#    0.000    2.143    0.000    3.000    0.000    0.000 
#    0.000    0.000    0.000    0.000    0.000    0.000 
#
# Total GULP energy -312728.793314 kJ/mol
# GULP energy per Si atom -5584.442738 kJ/mol
# Density = 1.895679 g / cm^3
# Si number density = 19.000034 Si / 1000 Ang^3
#
#
#
# Elastic Constant Matrix: (Units=GPa)
#
#
# Indices 1 2 3 4 5 6 
#
# 1 70.5205 7.2784 7.5745 0.0000 0.0000 0.0000
# 2 7.2784 37.8334 -8.7849 0.0000 0.0000 0.0000
# 3 7.5745 -8.7849 75.9760 0.0000 0.0000 0.0000
# 4 0.0000 0.0000 0.0000 14.3465 0.0000 0.0000
# 5 0.0000 0.0000 0.0000 0.0000 13.8859 0.0000
# 6 0.0000 0.0000 0.0000 0.0000 0.0000 13.5716
#
#
#
# Elastic Compliance Matrix: (Units=1/GPa)
#
#
# Indices 1 2 3 4 5 6 
#
# 1 0.014715 -0.003259 -0.001844 0.000000 0.000000 0.000000
# 2 -0.003259 0.027883 0.003549 0.000000 0.000000 0.000000
# 3 -0.001844 0.003549 0.013756 0.000000 0.000000 0.000000
# 4 0.000000 0.000000 0.000000 0.069703 0.000000 0.000000
# 5 0.000000 0.000000 0.000000 0.000000 0.072016 0.000000
# 6 0.000000 0.000000 0.000000 0.000000 0.000000 0.073683
#
#
# Mechanical properties :
#
#
# Convention : Reuss Voigt Hill
#
# Bulk Modulus (GPa) = 18.78081 21.82954 20.30517
# Shear Modulus (GPa) = 17.08748 20.24494 18.66621
#
# Velocity S-wave (km/s) = 3.00215 3.26777 3.13777
# Velocity P-wave (km/s) = 4.68223 5.07464 4.88238
#
# Compressibility (1/GPa) = 0.05324584
#
# Stress axis : x y z
#
# Youngs Moduli (GPa) = 67.95945 35.86460 72.69435
#
# Poissons Ratio (x) = 0.11688 0.13403
# Poissons Ratio (y) = 0.22148 -0.25798
# Poissons Ratio (z) = 0.12530 -0.12728
#
# Static dielectric constant tensor:
#      x y z
#    x 1.677770 0.000000 0.000000 
#    y 0.000000 1.635340 0.000000 
#    z 0.000000 0.000000 1.643490 
# 
# From -- ./inp_files/63014.got.cif
#   From: 2010.05.17/outbox.cif.g08.bks.cpg/sg63_32_cif.got.tgz:63014.got - 2010.06.03 15:47:04.
