data_PCOD9474988
_publ_section_title
;
Structure prediction by ZEFSAII (Michael W. Deem and Ramdas Pophale) SiO2 
 PCOD9474988
Probable space group: C M C M
;
_chemical_formula_sum "Si O2"
_cell_formula_units_Z 112
_cell_length_a 24.167299
_cell_length_b 13.576505
_cell_length_c 18.179256
_cell_angle_alpha 90.000000
_cell_angle_beta 90.000000
_cell_angle_gamma 90.000000
_cell_volume 5964.749433
_symmetry_space_group_name_H-M "C M C M"
_symmetry_group_IT_number 63
_symmetry_cell_setting 'orthorhombic'
loop_
_space_group_symop_operation_xyz
x,y,z
-x,-y,1/2+z
x,-y,-z
-x,y,1/2-z
-x,-y,-z
x,y,1/2-z
-x,y,z
x,-y,1/2+z
1/2+x,1/2+y,z
1/2-x,1/2-y,1/2+z
1/2+x,1/2-y,-z
1/2-x,1/2+y,1/2-z
1/2-x,1/2-y,-z
1/2+x,1/2+y,1/2-z
1/2-x,1/2+y,z
1/2+x,1/2-y,1/2+z
loop_
_atom_site_type_symbol
_atom_site_label
_atom_site_fract_x
_atom_site_fract_y
_atom_site_fract_z
Si Si1 0.230095 0.087204 0.837306
Si Si2 0.126364 0.989296 0.587295
Si Si3 0.934868 0.183140 0.336465
Si Si4 0.935743 0.582632 0.836810
Si Si5 0.331208 0.207699 0.336277
Si Si6 0.936545 0.165476 0.837344
Si Si7 0.168171 0.505516 0.413016
O O1 0.232724 0.069054 0.750000
O O2 0.184219 0.016424 0.873863
O O3 0.208249 0.198415 0.848169
O O4 0.288535 0.067868 0.874655
O O5 0.083052 0.070551 0.617654
O O6 0.131607 0.000000 0.500000
O O7 0.103430 0.883930 0.612880
O O8 0.923858 0.161686 0.250000
O O9 0.927175 0.299964 0.347640
O O10 0.000000 0.161357 0.349635
O O11 0.926567 0.562260 0.750000
O O12 0.892736 0.522261 0.884670
O O13 0.000000 0.560957 0.853069
O O14 0.328444 0.180556 0.250000
O O15 0.393121 0.247538 0.352264
O O16 0.317421 0.114566 0.385002
O O17 0.931158 0.142413 0.750000
O O18 0.000000 0.190916 0.852479
O O19 0.172003 0.500000 0.500000
#
# Coordination Sequence:
#
# PCOD9474988 Si02
#       7
#    16  16  16  16  16  16  16
#     4  10  22  41  61  80 107 146 193 238 273 321
#     4  11  21  32  51  83 120 152 184 231 290 342
#     4   9  18  34  56  81 111 151 197 238 275 323
#     4   9  20  39  60  82 110 147 194 239 271 316
#     4   9  20  39  60  82 109 145 192 238 273 319
#     4   9  18  34  56  81 111 151 197 238 275 323
#     4  12  25  39  60  89 119 148 176 221 287 344
#
# _framework density 18.776983999999999
#
# number of rings (size 3 to 8) (size 9 to 14) (size 15 to 20)
#    0.000    2.143    0.000    5.143    0.000    7.143 
#    0.000    4.286    0.000    0.000    0.000    0.000 
#    0.000    0.000    0.000    0.000    0.000    0.000 
#
# Total GULP energy -312830.108623 kJ/mol
# GULP energy per Si atom -5586.251940 kJ/mol
# Density = 1.873425 g / cm^3
# Si number density = 18.776984 Si / 1000 Ang^3
#
#
#
# Elastic Constant Matrix: (Units=GPa)
#
#
# Indices 1 2 3 4 5 6 
#
# 1 81.6522 32.6662 57.0160 0.0000 0.0000 0.0000
# 2 32.6662 43.6144 45.9077 0.0000 0.0000 0.0000
# 3 57.0160 45.9077 98.7570 0.0000 0.0000 0.0000
# 4 0.0000 0.0000 0.0000 57.8402 0.0000 0.0000
# 5 0.0000 0.0000 0.0000 0.0000 11.6338 0.0000
# 6 0.0000 0.0000 0.0000 0.0000 0.0000 24.3608
#
#
#
# Elastic Compliance Matrix: (Units=1/GPa)
#
#
# Indices 1 2 3 4 5 6 
#
# 1 0.021263 -0.005882 -0.009541 0.000000 0.000000 0.000000
# 2 -0.005882 0.046523 -0.018230 0.000000 0.000000 0.000000
# 3 -0.009541 -0.018230 0.024109 0.000000 0.000000 0.000000
# 4 0.000000 0.000000 0.000000 0.017289 0.000000 0.000000
# 5 0.000000 0.000000 0.000000 0.000000 0.085956 0.000000
# 6 0.000000 0.000000 0.000000 0.000000 0.000000 0.041049
#
#
# Mechanical properties :
#
#
# Convention : Reuss Voigt Hill
#
# Bulk Modulus (GPa) = 40.67257 55.02259 47.84758
# Shear Modulus (GPa) = 16.04140 24.66255 20.35197
#
# Velocity S-wave (km/s) = 2.92603 3.62808 3.29580
# Velocity P-wave (km/s) = 5.75530 6.84963 6.32617
#
# Compressibility (1/GPa) = 0.02458660
#
# Stress axis : x y z
#
# Youngs Moduli (GPa) = 47.03014 21.49479 41.47829
#
# Poissons Ratio (x) = 0.12644 0.39576
# Poissons Ratio (y) = 0.27664 0.75616
# Poissons Ratio (z) = 0.44874 0.39186
#
# Static dielectric constant tensor:
#      x y z
#    x 1.648080 0.000000 0.000000 
#    y 0.000000 1.637130 0.000000 
#    z 0.000000 0.000000 1.621420 
# 
# From -- ./inp_files/36891.got.cif
#   From: 2010.05.17/outbox.cif.g08.bks.cpg/sg63_19_cif.got.tgz:36891.got - 2010.06.03 15:47:04.
