data_PCOD9474032
_publ_section_title
;
Structure prediction by ZEFSAII (Michael W. Deem and Ramdas Pophale) SiO2 
 PCOD9474032
Probable space group: C M C M
;
_chemical_formula_sum "Si O2"
_cell_formula_units_Z 100
_cell_length_a 7.926678
_cell_length_b 29.737320
_cell_length_c 19.171139
_cell_angle_alpha 90.000000
_cell_angle_beta 90.000000
_cell_angle_gamma 90.000000
_cell_volume 4518.985614
_symmetry_space_group_name_H-M "C M C M"
_symmetry_group_IT_number 63
_symmetry_cell_setting 'orthorhombic'
loop_
_space_group_symop_operation_xyz
x,y,z
-x,-y,1/2+z
x,-y,-z
-x,y,1/2-z
-x,-y,-z
x,y,1/2-z
-x,y,z
x,-y,1/2+z
1/2+x,1/2+y,z
1/2-x,1/2-y,1/2+z
1/2+x,1/2-y,-z
1/2-x,1/2+y,1/2-z
1/2-x,1/2-y,-z
1/2+x,1/2+y,1/2-z
1/2-x,1/2+y,z
1/2+x,1/2-y,1/2+z
loop_
_atom_site_type_symbol
_atom_site_label
_atom_site_fract_x
_atom_site_fract_y
_atom_site_fract_z
Si Si1 0.802496 0.067243 0.484310
Si Si2 0.500000 0.041602 0.250000
Si Si3 0.309754 0.482801 0.847611
Si Si4 0.795891 0.824249 0.387486
Si Si5 0.299138 0.333473 0.546876
Si Si6 0.298004 0.769554 0.826793
Si Si7 0.688556 0.923156 0.137427
O O1 0.765131 0.113650 0.443313
O O2 0.695095 0.069073 0.553951
O O3 0.000000 0.069659 0.507076
O O4 0.786628 0.027193 0.429917
O O5 0.348102 0.039247 0.309317
O O6 0.500000 0.466581 0.830830
O O7 0.298946 0.536165 0.833417
O O8 0.736512 0.821862 0.468508
O O9 0.735011 0.780224 0.347100
O O10 0.743352 0.871663 0.353875
O O11 0.000000 0.824090 0.388823
O O12 0.500000 0.327511 0.544901
O O13 0.236435 0.303354 0.610041
O O14 0.234464 0.783449 0.750000
O O15 0.500000 0.766240 0.822318
O O16 0.500000 0.929703 0.164220
#
# Coordination Sequence:
#
# PCOD9474032 Si02
#       7
#    16   4  16  16  16  16  16
#     4   9  20  38  62  90 117 154 197 244 316 375
#     4  12  26  44  58  90 120 168 230 242 292 374
#     4  11  23  43  64  86 126 167 204 258 303 357
#     4   9  19  37  58  81 115 155 197 243 303 371
#     4   9  18  35  58  84 113 148 196 245 296 365
#     4  10  21  37  54  81 114 151 196 244 302 368
#     4  11  21  35  61  96 122 146 196 257 311 370
#
# _framework density 22.12886
#
# number of rings (size 3 to 8) (size 9 to 14) (size 15 to 20)
#    0.000    2.080    0.800    3.600    1.120    5.440 
#    2.880    0.000    0.000    0.000    0.000    0.000 
#    0.000    0.000    0.000    0.000    0.000    0.000 
#
# Total GULP energy -278639.433097 kJ/mol
# GULP energy per Si atom -5572.788662 kJ/mol
# Density = 2.207849 g / cm^3
# Si number density = 22.128860 Si / 1000 Ang^3
#
#
#
# Elastic Constant Matrix: (Units=GPa)
#
#
# Indices 1 2 3 4 5 6 
#
# 1 87.3407 5.3634 20.2209 0.0000 0.0000 0.0000
# 2 5.3634 58.7673 -3.4379 0.0000 0.0000 0.0000
# 3 20.2209 -3.4379 60.8702 0.0000 0.0000 0.0000
# 4 0.0000 0.0000 0.0000 -68.5341 0.0000 0.0000
# 5 0.0000 0.0000 0.0000 0.0000 127.5806 0.0000
# 6 0.0000 0.0000 0.0000 0.0000 0.0000 19.2186
#
#
#
# Elastic Compliance Matrix: (Units=1/GPa)
#
#
# Indices 1 2 3 4 5 6 
#
# 1 0.012516 -0.001390 -0.004236 0.000000 0.000000 0.000000
# 2 -0.001390 0.017227 0.001435 0.000000 0.000000 0.000000
# 3 -0.004236 0.001435 0.017917 0.000000 0.000000 0.000000
# 4 0.000000 0.000000 0.000000 -0.014591 0.000000 0.000000
# 5 0.000000 0.000000 0.000000 0.000000 0.007838 0.000000
# 6 0.000000 0.000000 0.000000 0.000000 0.000000 0.052033
#
#
# Mechanical properties :
#
#
# Convention : Reuss Voigt Hill
#
# Bulk Modulus (GPa) = 25.46059 27.91899 26.68979
# Shear Modulus (GPa) = 43.70089 27.97514 35.83801
#
# Velocity S-wave (km/s) = 4.44873 3.55941 4.02869
# Velocity P-wave (km/s) = 6.15783 5.43474 5.80755
#
# Compressibility (1/GPa) = 0.03927639
#
# Stress axis : x y z
#
# Youngs Moduli (GPa) = 79.90087 58.04823 55.81396
#
# Poissons Ratio (x) = 0.08069 0.23643
# Poissons Ratio (y) = 0.11107 -0.08008
# Poissons Ratio (z) = 0.33847 -0.08328
#
# Static dielectric constant tensor:
#      x y z
#    x 1.786350 0.000000 0.000000 
#    y 0.000000 1.829530 0.000000 
#    z 0.000000 0.000000 1.772210 
# 
# From -- ./inp_files/51507.got.cif
#   From: 2010.05.17/outbox.cif.g08.bks.cpg/sg63_26_cif.got.tgz:51507.got - 2010.06.03 15:47:04.
