data_PCOD9474704
_publ_section_title
;
Structure prediction by ZEFSAII (Michael W. Deem and Ramdas Pophale) SiO2 
 PCOD9474704
Probable space group: C M C M
;
_chemical_formula_sum "Si O2"
_cell_formula_units_Z 88
_cell_length_a 17.766851
_cell_length_b 29.337686
_cell_length_c 8.656956
_cell_angle_alpha 90.000000
_cell_angle_beta 90.000000
_cell_angle_gamma 90.000000
_cell_volume 4512.336993
_symmetry_space_group_name_H-M "C M C M"
_symmetry_group_IT_number 63
_symmetry_cell_setting 'orthorhombic'
loop_
_space_group_symop_operation_xyz
x,y,z
-x,-y,1/2+z
x,-y,-z
-x,y,1/2-z
-x,-y,-z
x,y,1/2-z
-x,y,z
x,-y,1/2+z
1/2+x,1/2+y,z
1/2-x,1/2-y,1/2+z
1/2+x,1/2-y,-z
1/2-x,1/2+y,1/2-z
1/2-x,1/2-y,-z
1/2+x,1/2+y,1/2-z
1/2-x,1/2+y,z
1/2+x,1/2-y,1/2+z
loop_
_atom_site_type_symbol
_atom_site_label
_atom_site_fract_x
_atom_site_fract_y
_atom_site_fract_z
Si Si1 0.354711 0.110908 0.564850
Si Si2 0.091571 0.196423 0.571141
Si Si3 0.000000 0.551188 0.936167
Si Si4 0.411369 0.204383 0.062849
Si Si5 0.087640 0.903913 0.062677
Si Si6 0.726862 0.548401 0.066851
O O1 0.351310 0.111066 0.750000
O O2 0.426325 0.079858 0.516278
O O3 0.367126 0.161941 0.504975
O O4 0.280960 0.087552 0.497435
O O5 0.116396 0.195899 0.750000
O O6 0.114648 0.245486 0.505356
O O7 0.111419 0.146966 0.505335
O O8 0.000000 0.197273 0.573071
O O9 0.000000 0.548731 0.750000
O O10 0.000000 0.500000 0.000000
O O11 0.406937 0.204289 0.250000
O O12 0.500000 0.198955 0.022598
O O13 0.093133 0.904251 0.250000
O O14 0.000000 0.911013 0.023818
O O15 0.143208 0.940519 0.992002
O O16 0.729418 0.547074 0.250000
O O17 0.752539 0.500000 0.000000
#
# Coordination Sequence:
#
# PCOD9474704 Si02
#       6
#    16  16   8  16  16  16
#     4  11  22  38  56  81 115 152 194 238 286 336
#     4   7  12  26  52  85 117 148 185 227 275 331
#     4  10  22  36  54  78 106 142 188 238 283 332
#     4   9  16  29  53  85 118 154 193 232 275 329
#     4   9  18  37  65  92 117 148 186 231 284 342
#     4  12  26  43  61  83 112 148 189 236 292 345
#
# _framework density 19.502089999999999
#
# number of rings (size 3 to 8) (size 9 to 14) (size 15 to 20)
#    0.000    2.364    0.909    4.909    0.000    3.636 
#    0.000    1.818    0.000    3.273    0.000    0.000 
#    0.000    0.000    0.000    0.000    0.000    0.000 
#
# Total GULP energy -245489.550098 kJ/mol
# GULP energy per Si atom -5579.307957 kJ/mol
# Density = 1.945770 g / cm^3
# Si number density = 19.502090 Si / 1000 Ang^3
#
#
#
# Elastic Constant Matrix: (Units=GPa)
#
#
# Indices 1 2 3 4 5 6 
#
# 1 48.4137 1.5758 19.2620 0.0000 0.0000 0.0000
# 2 1.5758 41.9109 6.5312 0.0000 0.0000 0.0000
# 3 19.2620 6.5312 33.8409 0.0000 0.0000 0.0000
# 4 0.0000 0.0000 0.0000 17.4397 0.0000 0.0000
# 5 0.0000 0.0000 0.0000 0.0000 -8.9193 0.0000
# 6 0.0000 0.0000 0.0000 0.0000 0.0000 7.2600
#
#
#
# Elastic Compliance Matrix: (Units=1/GPa)
#
#
# Indices 1 2 3 4 5 6 
#
# 1 0.026783 0.001411 -0.015517 0.000000 0.000000 0.000000
# 2 0.001411 0.024674 -0.005565 0.000000 0.000000 0.000000
# 3 -0.015517 -0.005565 0.039456 0.000000 0.000000 0.000000
# 4 0.000000 0.000000 0.000000 0.057340 0.000000 0.000000
# 5 0.000000 0.000000 0.000000 0.000000 -0.112117 0.000000
# 6 0.000000 0.000000 0.000000 0.000000 0.000000 0.137742
#
#
# Mechanical properties :
#
#
# Convention : Reuss Voigt Hill
#
# Bulk Modulus (GPa) = 19.39066 19.87817 19.63441
# Shear Modulus (GPa) = 21.70030 9.60919 15.65475
#
# Velocity S-wave (km/s) = 3.33936 2.22215 2.83631
# Velocity P-wave (km/s) = 4.98326 4.09865 4.56244
#
# Compressibility (1/GPa) = 0.05157123
#
# Stress axis : x y z
#
# Youngs Moduli (GPa) = 37.33711 40.52792 25.34452
#
# Poissons Ratio (x) = -0.05719 0.39327
# Poissons Ratio (y) = -0.05269 0.14105
# Poissons Ratio (z) = 0.57936 0.22555
#
# Static dielectric constant tensor:
#      x y z
#    x 1.680750 0.000000 0.000000 
#    y 0.000000 1.698050 0.000000 
#    z 0.000000 0.000000 1.652570 
# 
# From -- ./inp_files/6893.got.cif
#   From: 2010.05.17/outbox.cif.g08.bks.cpg/sg63_4_cif.got.tgz:6893.got - 2010.06.03 15:47:04.
