data_PCOD9474323
_publ_section_title
;
Structure prediction by ZEFSAII (Michael W. Deem and Ramdas Pophale) SiO2 
 PCOD9474323
Probable space group: C M C M
;
_chemical_formula_sum "Si O2"
_cell_formula_units_Z 72
_cell_length_a 13.481485
_cell_length_b 32.626134
_cell_length_c 8.527019
_cell_angle_alpha 90.000000
_cell_angle_beta 90.000000
_cell_angle_gamma 90.000000
_cell_volume 3750.598530
_symmetry_space_group_name_H-M "C M C M"
_symmetry_group_IT_number 63
_symmetry_cell_setting 'orthorhombic'
loop_
_space_group_symop_operation_xyz
x,y,z
-x,-y,1/2+z
x,-y,-z
-x,y,1/2-z
-x,-y,-z
x,y,1/2-z
-x,y,z
x,-y,1/2+z
1/2+x,1/2+y,z
1/2-x,1/2-y,1/2+z
1/2+x,1/2-y,-z
1/2-x,1/2+y,1/2-z
1/2-x,1/2-y,-z
1/2+x,1/2+y,1/2-z
1/2-x,1/2+y,z
1/2+x,1/2-y,1/2+z
loop_
_atom_site_type_symbol
_atom_site_label
_atom_site_fract_x
_atom_site_fract_y
_atom_site_fract_z
Si Si1 0.113144 0.453540 0.438444
Si Si2 0.696079 0.312855 0.939435
Si Si3 0.606493 0.232471 0.061264
Si Si4 0.500000 0.546094 0.562875
Si Si5 0.806404 0.906942 0.938794
O O1 0.127004 0.500000 0.500000
O O2 0.118527 0.453819 0.250000
O O3 0.201963 0.425723 0.503865
O O4 0.000000 0.440854 0.483652
O O5 0.692223 0.311930 0.750000
O O6 0.803037 0.295624 0.993069
O O7 0.682362 0.359521 0.989264
O O8 0.621281 0.278841 0.003406
O O9 0.609509 0.232786 0.250000
O O10 0.500000 0.216579 0.009048
O O11 0.500000 0.500000 0.500000
O O12 0.500000 0.546109 0.750000
O O13 0.599566 0.568163 0.502401
O O14 0.807468 0.908444 0.750000
#
# Coordination Sequence:
#
# PCOD9474323 Si02
#       5
#    16  16  16   8  16
#     4  10  21  38  60  86 116 151 191 236 288 348
#     4   9  20  36  54  80 112 146 186 232 282 339
#     4   9  18  34  56  80 109 146 187 231 280 336
#     4  12  26  44  64  86 118 158 200 248 302 356
#     4  11  23  39  60  87 119 155 196 243 293 352
#
# _framework density 19.196935
#
# number of rings (size 3 to 8) (size 9 to 14) (size 15 to 20)
#    0.000    2.000    0.000    3.000    1.556    4.444 
#    0.000    2.222    0.000    0.000    0.000    0.000 
#    0.000    0.000    0.000    0.000    0.000    0.000 
#
# Total GULP energy -200989.003213 kJ/mol
# GULP energy per Si atom -5583.027867 kJ/mol
# Density = 1.915324 g / cm^3
# Si number density = 19.196935 Si / 1000 Ang^3
#
#
#
# Elastic Constant Matrix: (Units=GPa)
#
#
# Indices 1 2 3 4 5 6 
#
# 1 118.9938 50.6206 27.4308 0.0000 0.0000 0.0000
# 2 50.6206 121.3508 25.0270 0.0000 0.0000 0.0000
# 3 27.4308 25.0270 50.3008 0.0000 0.0000 0.0000
# 4 0.0000 0.0000 0.0000 28.6394 0.0000 0.0000
# 5 0.0000 0.0000 0.0000 0.0000 25.6122 0.0000
# 6 0.0000 0.0000 0.0000 0.0000 0.0000 2.3166
#
#
#
# Elastic Compliance Matrix: (Units=1/GPa)
#
#
# Indices 1 2 3 4 5 6 
#
# 1 0.010931 -0.003711 -0.004115 0.000000 0.000000 0.000000
# 2 -0.003711 0.010443 -0.003172 0.000000 0.000000 0.000000
# 3 -0.004115 -0.003172 0.023702 0.000000 0.000000 0.000000
# 4 0.000000 0.000000 0.000000 0.034917 0.000000 0.000000
# 5 0.000000 0.000000 0.000000 0.000000 0.039044 0.000000
# 6 0.000000 0.000000 0.000000 0.000000 0.000000 0.431666
#
#
# Mechanical properties :
#
#
# Convention : Reuss Voigt Hill
#
# Bulk Modulus (GPa) = 43.32604 55.20024 49.26314
# Shear Modulus (GPa) = 8.61486 23.81811 16.21648
#
# Velocity S-wave (km/s) = 2.12070 3.52621 2.90960
# Velocity P-wave (km/s) = 5.34927 6.73766 6.08321
#
# Compressibility (1/GPa) = 0.02308081
#
# Stress axis : x y z
#
# Youngs Moduli (GPa) = 91.48218 95.75922 42.18982
#
# Poissons Ratio (x) = 0.35539 0.17359
# Poissons Ratio (y) = 0.33951 0.13382
# Poissons Ratio (z) = 0.37641 0.30374
#
# Static dielectric constant tensor:
#      x y z
#    x 1.675730 0.000000 0.000000 
#    y 0.000000 1.636770 0.000000 
#    z 0.000000 0.000000 1.653050 
# 
# From -- ./inp_files/4660.got.cif
#   From: 2010.05.17/outbox.cif.g08.bks.cpg/sg63_3_cif.got.tgz:4660.got - 2010.06.03 15:47:04.
