data_PCOD9474082
_publ_section_title
;
Structure prediction by ZEFSAII (Michael W. Deem and Ramdas Pophale) SiO2 
 PCOD9474082
Probable space group: C M C M
;
_chemical_formula_sum "Si O2"
_cell_formula_units_Z 56
_cell_length_a 14.582234
_cell_length_b 20.871517
_cell_length_c 7.385184
_cell_angle_alpha 90.000000
_cell_angle_beta 90.000000
_cell_angle_gamma 90.000000
_cell_volume 2247.705453
_symmetry_space_group_name_H-M "C M C M"
_symmetry_group_IT_number 63
_symmetry_cell_setting 'orthorhombic'
loop_
_space_group_symop_operation_xyz
x,y,z
-x,-y,1/2+z
x,-y,-z
-x,y,1/2-z
-x,-y,-z
x,y,1/2-z
-x,y,z
x,-y,1/2+z
1/2+x,1/2+y,z
1/2-x,1/2-y,1/2+z
1/2+x,1/2-y,-z
1/2-x,1/2+y,1/2-z
1/2-x,1/2-y,-z
1/2+x,1/2+y,1/2-z
1/2-x,1/2+y,z
1/2+x,1/2-y,1/2+z
loop_
_atom_site_type_symbol
_atom_site_label
_atom_site_fract_x
_atom_site_fract_y
_atom_site_fract_z
Si Si1 0.158295 0.831758 0.454169
Si Si2 0.000000 0.590950 0.959548
Si Si3 0.500000 0.240099 0.470720
Si Si4 0.000000 0.925520 0.535064
Si Si5 0.700190 0.929469 0.032581
O O1 0.182447 0.810821 0.250000
O O2 0.093109 0.776331 0.533595
O O3 0.087802 0.891305 0.450619
O O4 0.246464 0.866580 0.538612
O O5 0.096526 0.569248 0.040127
O O6 0.000000 0.570221 0.750000
O O7 0.000000 0.667654 0.968978
O O8 0.500000 0.244490 0.250000
O O9 0.000000 0.913223 0.750000
O O10 0.000000 0.000000 0.500000
O O11 0.697867 0.921355 0.250000
O O12 0.742406 0.000000 0.000000
#
# Coordination Sequence:
#
# PCOD9474082 Si02
#       5
#    16   8   8   8  16
#     4   9  19  36  55  77 108 142 177 222 273 322
#     4  10  22  38  55  79 112 146 183 229 272 314
#     4   9  19  36  56  79 108 143 182 222 271 328
#     4  11  20  30  48  76 108 141 177 219 269 324
#     4  10  21  37  57  81 110 144 182 227 275 321
#
# _framework density 24.914299
#
# number of rings (size 3 to 8) (size 9 to 14) (size 15 to 20)
#    0.000    2.286    0.000    3.429    0.000    8.000 
#    0.000    0.000    0.000    0.000    0.000    0.000 
#    0.000    0.000    0.000    0.000    0.000    0.000 
#
# Total GULP energy -156363.384247 kJ/mol
# GULP energy per Si atom -5584.406580 kJ/mol
# Density = 2.485759 g / cm^3
# Si number density = 24.914299 Si / 1000 Ang^3
#
#
#
# Elastic Constant Matrix: (Units=GPa)
#
#
# Indices 1 2 3 4 5 6 
#
# 1 107.9573 18.5470 0.7132 0.0000 0.0000 0.0000
# 2 18.5470 123.4409 -16.9621 0.0000 0.0000 0.0000
# 3 0.7132 -16.9621 115.3242 0.0000 0.0000 0.0000
# 4 0.0000 0.0000 0.0000 17.9281 0.0000 0.0000
# 5 0.0000 0.0000 0.0000 0.0000 -24.5852 0.0000
# 6 0.0000 0.0000 0.0000 0.0000 0.0000 31.3433
#
#
#
# Elastic Compliance Matrix: (Units=1/GPa)
#
#
# Indices 1 2 3 4 5 6 
#
# 1 0.009517 -0.001468 -0.000275 0.000000 0.000000 0.000000
# 2 -0.001468 0.008494 0.001258 0.000000 0.000000 0.000000
# 3 -0.000275 0.001258 0.008858 0.000000 0.000000 0.000000
# 4 0.000000 0.000000 0.000000 0.055778 0.000000 0.000000
# 5 0.000000 0.000000 0.000000 0.000000 -0.040675 0.000000
# 6 0.000000 0.000000 0.000000 0.000000 0.000000 0.031905
#
#
# Mechanical properties :
#
#
# Convention : Reuss Voigt Hill
#
# Bulk Modulus (GPa) = 38.60778 39.03542 38.82160
# Shear Modulus (GPa) = 59.89502 27.89884 43.89693
#
# Velocity S-wave (km/s) = 4.90842 3.34996 4.20207
# Velocity P-wave (km/s) = 6.90314 5.53759 6.25772
#
# Compressibility (1/GPa) = 0.02590151
#
# Stress axis : x y z
#
# Youngs Moduli (GPa) = 105.07647 117.72346 112.89227
#
# Poissons Ratio (x) = 0.17278 0.03101
# Poissons Ratio (y) = 0.15422 -0.14207
# Poissons Ratio (z) = 0.02887 -0.14815
#
# Static dielectric constant tensor:
#      x y z
#    x 2.060370 0.000000 0.000000 
#    y 0.000000 1.897240 0.000000 
#    z 0.000000 0.000000 1.950080 
# 
# From -- ./inp_files/4027.got.cif
#   From: 2010.05.17/outbox.cif.g08.bks.cpg/sg63_3_cif.got.tgz:4027.got - 2010.06.03 15:47:04.
