data_PCOD9474929
_publ_section_title
;
Structure prediction by ZEFSAII (Michael W. Deem and Ramdas Pophale) SiO2 
 PCOD9474929
Probable space group: C M C M
;
_chemical_formula_sum "Si O2"
_cell_formula_units_Z 96
_cell_length_a 8.716147
_cell_length_b 29.390226
_cell_length_c 20.764897
_cell_angle_alpha 90.000000
_cell_angle_beta 90.000000
_cell_angle_gamma 90.000000
_cell_volume 5319.333909
_symmetry_space_group_name_H-M "C M C M"
_symmetry_group_IT_number 63
_symmetry_cell_setting 'orthorhombic'
loop_
_space_group_symop_operation_xyz
x,y,z
-x,-y,1/2+z
x,-y,-z
-x,y,1/2-z
-x,-y,-z
x,y,1/2-z
-x,y,z
x,-y,1/2+z
1/2+x,1/2+y,z
1/2-x,1/2-y,1/2+z
1/2+x,1/2-y,-z
1/2-x,1/2+y,1/2-z
1/2-x,1/2-y,-z
1/2+x,1/2+y,1/2-z
1/2-x,1/2+y,z
1/2+x,1/2-y,1/2+z
loop_
_atom_site_type_symbol
_atom_site_label
_atom_site_fract_x
_atom_site_fract_y
_atom_site_fract_z
Si Si1 0.316976 0.374510 0.980702
Si Si2 0.683227 0.968925 0.562308
Si Si3 0.182757 0.720541 0.440876
Si Si4 0.815954 0.276819 0.175947
Si Si5 0.816353 0.622526 0.625060
Si Si6 0.816692 0.970896 0.176032
O O1 0.500000 0.372283 0.985029
O O2 0.264586 0.420560 0.945802
O O3 0.252753 0.329721 0.946070
O O4 0.246129 0.375564 0.052423
O O5 0.500000 0.962637 0.562984
O O6 0.721435 0.000000 0.500000
O O7 0.737608 0.995540 0.625404
O O8 0.250000 0.750000 0.500000
O O9 0.230964 0.745183 0.375086
O O10 0.000000 0.718485 0.447239
O O11 0.775738 0.267383 0.250000
O O12 0.782671 0.329502 0.159163
O O13 0.000000 0.270826 0.168288
O O14 0.740825 0.579956 0.660648
O O15 0.000000 0.616234 0.623569
O O16 0.780136 0.982287 0.250000
O O17 0.000000 0.972790 0.167435
#
# Coordination Sequence:
#
# PCOD9474929 Si02
#       6
#    16  16  16  16  16  16
#     4  12  24  39  63  93 124 158 201 256 307 357
#     4  11  23  40  64  91 121 160 204 252 302 362
#     4  12  24  40  63  90 123 163 207 253 302 360
#     4  10  22  40  62  90 126 165 204 251 308 364
#     4  11  21  36  61  92 126 163 202 248 304 366
#     4  11  24  40  60  90 127 165 205 251 305 364
#
# _framework density 18.047371999999999
#
# number of rings (size 3 to 8) (size 9 to 14) (size 15 to 20)
#    0.000    0.833    3.333    5.000    0.000    3.667 
#    0.000    0.833    0.000    5.000    0.000    0.000 
#    0.000    0.000    0.000    0.000    0.000    0.000 
#
# Total GULP energy -268546.716590 kJ/mol
# GULP energy per Si atom -5594.723262 kJ/mol
# Density = 1.800630 g / cm^3
# Si number density = 18.047372 Si / 1000 Ang^3
#
#
#
# Elastic Constant Matrix: (Units=GPa)
#
#
# Indices 1 2 3 4 5 6 
#
# 1 47.5882 26.9237 29.2805 0.0000 0.0000 0.0000
# 2 26.9237 105.6797 40.2694 0.0000 0.0000 0.0000
# 3 29.2805 40.2694 111.0473 0.0000 0.0000 0.0000
# 4 0.0000 0.0000 0.0000 -4.1482 0.0000 0.0000
# 5 0.0000 0.0000 0.0000 0.0000 25.6800 0.0000
# 6 0.0000 0.0000 0.0000 0.0000 0.0000 33.8314
#
#
#
# Elastic Compliance Matrix: (Units=1/GPa)
#
#
# Indices 1 2 3 4 5 6 
#
# 1 0.027065 -0.004845 -0.005379 0.000000 0.000000 0.000000
# 2 -0.004845 0.011847 -0.003019 0.000000 0.000000 0.000000
# 3 -0.005379 -0.003019 0.011518 0.000000 0.000000 0.000000
# 4 0.000000 0.000000 0.000000 -0.241066 0.000000 0.000000
# 5 0.000000 0.000000 0.000000 0.000000 0.038941 0.000000
# 6 0.000000 0.000000 0.000000 0.000000 0.000000 0.029558
#
#
# Mechanical properties :
#
#
# Convention : Reuss Voigt Hill
#
# Bulk Modulus (GPa) = 41.76459 50.80693 46.28576
# Shear Modulus (GPa) = -57.03258 22.26209 -17.38525
#
# Velocity S-wave (km/s) = -5.62763 3.51598 -3.10709
# Velocity P-wave (km/s) = 4.36292 6.68550 3.58196
#
# Compressibility (1/GPa) = 0.02394373
#
# Stress axis : x y z
#
# Youngs Moduli (GPa) = 36.94839 84.40786 86.81929
#
# Poissons Ratio (x) = 0.40899 0.46702
# Poissons Ratio (y) = 0.17903 0.26207
# Poissons Ratio (z) = 0.19875 0.25479
#
# Static dielectric constant tensor:
#      x y z
#    x 1.602840 0.000000 0.000000 
#    y 0.000000 1.593410 0.000000 
#    z 0.000000 0.000000 1.592530 
# 
# From -- ./inp_files/51322.got.cif
#   From: 2010.05.17/outbox.cif.g08.bks.cpg/sg63_26_cif.got.tgz:51322.got - 2010.06.03 15:47:04.
