data_PCOD9474984
_publ_section_title
;
Structure prediction by ZEFSAII (Michael W. Deem and Ramdas Pophale) SiO2 
 PCOD9474984
Probable space group: C M C M
;
_chemical_formula_sum "Si O2"
_cell_formula_units_Z 64
_cell_length_a 18.878681
_cell_length_b 12.075883
_cell_length_c 14.471853
_cell_angle_alpha 90.000000
_cell_angle_beta 90.000000
_cell_angle_gamma 90.000000
_cell_volume 3299.245911
_symmetry_space_group_name_H-M "C M C M"
_symmetry_group_IT_number 63
_symmetry_cell_setting 'orthorhombic'
loop_
_space_group_symop_operation_xyz
x,y,z
-x,-y,1/2+z
x,-y,-z
-x,y,1/2-z
-x,-y,-z
x,y,1/2-z
-x,y,z
x,-y,1/2+z
1/2+x,1/2+y,z
1/2-x,1/2-y,1/2+z
1/2+x,1/2-y,-z
1/2-x,1/2+y,1/2-z
1/2-x,1/2-y,-z
1/2+x,1/2+y,1/2-z
1/2-x,1/2+y,z
1/2+x,1/2-y,1/2+z
loop_
_atom_site_type_symbol
_atom_site_label
_atom_site_fract_x
_atom_site_fract_y
_atom_site_fract_z
Si Si1 0.500000 0.410220 0.647352
Si Si2 0.202269 0.461850 0.646456
Si Si3 0.500000 0.142924 0.857582
Si Si4 0.654221 0.591695 0.426519
Si Si5 0.645439 0.149496 0.537987
O O1 0.500000 0.456173 0.750000
O O2 0.500000 0.276515 0.650562
O O3 0.574733 0.440006 0.602775
O O4 0.172558 0.453683 0.750000
O O5 0.282765 0.418173 0.646909
O O6 0.198577 0.588219 0.609084
O O7 0.161133 0.395265 0.565025
O O8 0.500000 0.101673 0.750000
O O9 0.430517 0.116327 0.917806
O O10 0.675917 0.500000 0.500000
O O11 0.652618 0.718316 0.460583
#
# Coordination Sequence:
#
# PCOD9474984 Si02
#       5
#     8  16   8  16  16
#     4   9  19  35  58  88 116 152 202 239 285 351
#     4  11  23  37  59  88 120 160 198 243 302 354
#     4   9  18  36  65  88 113 159 200 244 292 351
#     4  11  21  39  61  87 119 158 195 246 298 351
#     4  10  22  41  59  87 122 151 203 247 296 350
#
# _framework density 19.398371999999998
#
# number of rings (size 3 to 8) (size 9 to 14) (size 15 to 20)
#    0.000    1.750    2.500    2.625    0.000    5.000 
#    0.000    3.125    0.000    0.000    0.000    0.000 
#    0.000    0.000    0.000    0.000    0.000    0.000 
#
# Total GULP energy -178244.342846 kJ/mol
# GULP energy per Si atom -5570.135714 kJ/mol
# Density = 1.935422 g / cm^3
# Si number density = 19.398372 Si / 1000 Ang^3
#
#
#
# Elastic Constant Matrix: (Units=GPa)
#
#
# Indices 1 2 3 4 5 6 
#
# 1 122.5421 20.3042 50.8671 0.0000 0.0000 0.0000
# 2 20.3042 83.0510 39.4948 0.0000 0.0000 0.0000
# 3 50.8671 39.4948 171.5257 0.0000 0.0000 0.0000
# 4 0.0000 0.0000 0.0000 10.0461 0.0000 0.0000
# 5 0.0000 0.0000 0.0000 0.0000 4.3464 0.0000
# 6 0.0000 0.0000 0.0000 0.0000 0.0000 30.4268
#
#
#
# Elastic Compliance Matrix: (Units=1/GPa)
#
#
# Indices 1 2 3 4 5 6 
#
# 1 0.009393 -0.001091 -0.002534 0.000000 0.000000 0.000000
# 2 -0.001091 0.013648 -0.002819 0.000000 0.000000 0.000000
# 3 -0.002534 -0.002819 0.007231 0.000000 0.000000 0.000000
# 4 0.000000 0.000000 0.000000 0.099541 0.000000 0.000000
# 5 0.000000 0.000000 0.000000 0.000000 0.230075 0.000000
# 6 0.000000 0.000000 0.000000 0.000000 0.000000 0.032866
#
#
# Mechanical properties :
#
#
# Convention : Reuss Voigt Hill
#
# Bulk Modulus (GPa) = 57.52753 66.49455 62.01104
# Shear Modulus (GPa) = 12.15252 26.72738 19.43995
#
# Velocity S-wave (km/s) = 2.50566 3.71592 3.16910
# Velocity P-wave (km/s) = 6.17182 7.26385 6.73999
#
# Compressibility (1/GPa) = 0.01738298
#
# Stress axis : x y z
#
# Youngs Moduli (GPa) = 106.45900 73.27015 138.29928
#
# Poissons Ratio (x) = 0.07996 0.35050
# Poissons Ratio (y) = 0.11617 0.38986
# Poissons Ratio (z) = 0.26981 0.20654
#
# Static dielectric constant tensor:
#      x y z
#    x 1.775170 0.000000 0.000000 
#    y 0.000000 1.662870 0.000000 
#    z 0.000000 0.000000 1.698930 
# 
# From -- ./inp_files/33382.got.cif
#   From: 2010.05.17/outbox.cif.g08.bks.cpg/sg63_17_cif.got.tgz:33382.got - 2010.06.03 15:47:04.
