data_PCOD9474752
_publ_section_title
;
Structure prediction by ZEFSAII (Michael W. Deem and Ramdas Pophale) SiO2 
 PCOD9474752
Probable space group: C M C M
;
_chemical_formula_sum "Si O2"
_cell_formula_units_Z 112
_cell_length_a 24.893982
_cell_length_b 16.205626
_cell_length_c 14.105431
_cell_angle_alpha 90.000000
_cell_angle_beta 90.000000
_cell_angle_gamma 90.000000
_cell_volume 5690.449111
_symmetry_space_group_name_H-M "C M C M"
_symmetry_group_IT_number 63
_symmetry_cell_setting 'orthorhombic'
loop_
_space_group_symop_operation_xyz
x,y,z
-x,-y,1/2+z
x,-y,-z
-x,y,1/2-z
-x,-y,-z
x,y,1/2-z
-x,y,z
x,-y,1/2+z
1/2+x,1/2+y,z
1/2-x,1/2-y,1/2+z
1/2+x,1/2-y,-z
1/2-x,1/2+y,1/2-z
1/2-x,1/2-y,-z
1/2+x,1/2+y,1/2-z
1/2-x,1/2+y,z
1/2+x,1/2-y,1/2+z
loop_
_atom_site_type_symbol
_atom_site_label
_atom_site_fract_x
_atom_site_fract_y
_atom_site_fract_z
Si Si1 0.239194 0.122580 0.136343
Si Si2 0.158312 0.591147 0.476547
Si Si3 0.127692 0.956714 0.634468
Si Si4 0.801952 0.293916 0.142934
Si Si5 0.080710 0.787592 0.855968
Si Si6 0.059573 0.709585 0.049454
Si Si7 0.438495 0.611902 0.635500
O O1 0.237030 0.121099 0.250000
O O2 0.186495 0.072874 0.100703
O O3 0.237374 0.220267 0.110298
O O4 0.294067 0.085339 0.099120
O O5 0.138564 0.500000 0.500000
O O6 0.186351 0.634709 0.567942
O O7 0.108412 0.646233 0.441622
O O8 0.131002 0.959940 0.750000
O O9 0.085168 0.883354 0.615183
O O10 0.104354 0.043997 0.601597
O O11 0.787674 0.322361 0.250000
O O12 0.858050 0.244203 0.150041
O O13 0.058452 0.780537 0.750000
O O14 0.056074 0.733646 0.938484
O O15 0.073180 0.795761 0.100877
O O16 0.000000 0.681973 0.081441
O O17 0.437509 0.611119 0.750000
O O18 0.500000 0.591657 0.606316
#
# Coordination Sequence:
#
# PCOD9474752 Si02
#       7
#    16  16  16  16  16  16  16
#     4   9  18  36  59  84 115 146 181 224 277 341
#     4  11  23  38  56  82 110 141 189 240 286 328
#     4   8  15  31  54  82 116 148 177 217 273 332
#     4   8  16  35  59  79 107 144 178 224 278 331
#     4   8  15  30  53  80 109 140 177 224 277 333
#     4  10  22  38  55  77 106 146 194 236 280 331
#     4   9  18  34  55  80 113 150 187 224 266 328
#
# _framework density 19.682102
#
# number of rings (size 3 to 8) (size 9 to 14) (size 15 to 20)
#    0.000    3.000    0.000    2.143    0.000    2.857 
#   10.286    2.857    0.000    0.000    0.000    4.000 
#    0.000    0.000    0.000    0.000    0.000    0.000 
#
# Total GULP energy -312151.837661 kJ/mol
# GULP energy per Si atom -5574.139958 kJ/mol
# Density = 1.963730 g / cm^3
# Si number density = 19.682102 Si / 1000 Ang^3
#
#
#
# Elastic Constant Matrix: (Units=GPa)
#
#
# Indices 1 2 3 4 5 6 
#
# 1 90.4346 49.9992 8.2791 0.0000 0.0000 0.0000
# 2 49.9992 101.0259 17.7997 0.0000 0.0000 0.0000
# 3 8.2791 17.7997 33.5862 0.0000 0.0000 0.0000
# 4 0.0000 0.0000 0.0000 15.3133 0.0000 0.0000
# 5 0.0000 0.0000 0.0000 0.0000 14.9926 0.0000
# 6 0.0000 0.0000 0.0000 0.0000 0.0000 34.5285
#
#
#
# Elastic Compliance Matrix: (Units=1/GPa)
#
#
# Indices 1 2 3 4 5 6 
#
# 1 0.015225 -0.007582 0.000265 0.000000 0.000000 0.000000
# 2 -0.007582 0.014694 -0.005918 0.000000 0.000000 0.000000
# 3 0.000265 -0.005918 0.032845 0.000000 0.000000 0.000000
# 4 0.000000 0.000000 0.000000 0.065303 0.000000 0.000000
# 5 0.000000 0.000000 0.000000 0.000000 0.066699 0.000000
# 6 0.000000 0.000000 0.000000 0.000000 0.000000 0.028962
#
#
# Mechanical properties :
#
#
# Convention : Reuss Voigt Hill
#
# Bulk Modulus (GPa) = 27.55270 41.91140 34.73205
# Shear Modulus (GPa) = 19.06245 22.89814 20.98030
#
# Velocity S-wave (km/s) = 3.11548 3.41456 3.26844
# Velocity P-wave (km/s) = 5.19335 6.07339 5.65053
#
# Compressibility (1/GPa) = 0.03629409
#
# Stress axis : x y z
#
# Youngs Moduli (GPa) = 65.68003 68.05692 30.44586
#
# Poissons Ratio (x) = 0.51600 -0.00807
# Poissons Ratio (y) = 0.49798 0.18018
# Poissons Ratio (z) = -0.01741 0.40277
#
# Static dielectric constant tensor:
#      x y z
#    x 1.694910 0.000000 0.000000 
#    y 0.000000 1.683730 0.000000 
#    z 0.000000 0.000000 1.732510 
# 
# From -- ./inp_files/36946.got.cif
#   From: 2010.05.17/outbox.cif.g08.bks.cpg/sg63_19_cif.got.tgz:36946.got - 2010.06.03 15:47:04.
