data_PCOD9474718
_publ_section_title
;
Structure prediction by ZEFSAII (Michael W. Deem and Ramdas Pophale) SiO2 
 PCOD9474718
Probable space group: C M C M
;
_chemical_formula_sum "Si O2"
_cell_formula_units_Z 80
_cell_length_a 14.775725
_cell_length_b 8.979359
_cell_length_c 26.945938
_cell_angle_alpha 90.000000
_cell_angle_beta 90.000000
_cell_angle_gamma 90.000000
_cell_volume 3575.093801
_symmetry_space_group_name_H-M "C M C M"
_symmetry_group_IT_number 63
_symmetry_cell_setting 'orthorhombic'
loop_
_space_group_symop_operation_xyz
x,y,z
-x,-y,1/2+z
x,-y,-z
-x,y,1/2-z
-x,-y,-z
x,y,1/2-z
-x,y,z
x,-y,1/2+z
1/2+x,1/2+y,z
1/2-x,1/2-y,1/2+z
1/2+x,1/2-y,-z
1/2-x,1/2+y,1/2-z
1/2-x,1/2-y,-z
1/2+x,1/2+y,1/2-z
1/2-x,1/2+y,z
1/2+x,1/2-y,1/2+z
loop_
_atom_site_type_symbol
_atom_site_label
_atom_site_fract_x
_atom_site_fract_y
_atom_site_fract_z
Si Si1 0.894675 0.838651 0.692383
Si Si2 0.170878 0.346375 0.392234
Si Si3 0.900699 0.350882 0.906808
Si Si4 0.276349 0.576877 0.051117
Si Si5 0.610083 0.313626 0.194637
O O1 0.892517 0.799428 0.750000
O O2 0.833028 0.727534 0.661280
O O3 0.000000 0.827355 0.675409
O O4 0.867100 0.011842 0.688297
O O5 0.095591 0.472302 0.397013
O O6 0.257395 0.445418 0.409110
O O7 0.160109 0.206042 0.428830
O O8 0.823638 0.344346 0.949150
O O9 0.867649 0.281027 0.854485
O O10 0.000000 0.291398 0.919510
O O11 0.299541 0.500000 0.000000
O O12 0.642205 0.264252 0.250000
O O13 0.500000 0.307885 0.196612
#
# Coordination Sequence:
#
# PCOD9474718 Si02
#       5
#    16  16  16  16  16
#     4   9  18  35  60  89 122 157 191 236 292 350
#     4  10  22  36  61  84 115 154 199 233 296 351
#     4   9  20  35  58  88 114 145 196 249 288 342
#     4  10  23  41  61  79 114 160 198 243 302 354
#     4   8  15  30  54  83 115 150 184 225 287 349
#
# _framework density 22.377033999999998
#
# number of rings (size 3 to 8) (size 9 to 14) (size 15 to 20)
#    1.200    1.600    0.000    2.400    2.800    1.200 
#    0.000    4.000    0.000    2.400    0.000    0.000 
#    0.000    0.000    0.000    0.000    0.000    0.000 
#
# Total GULP energy -222733.025166 kJ/mol
# GULP energy per Si atom -5568.325629 kJ/mol
# Density = 2.232610 g / cm^3
# Si number density = 22.377034 Si / 1000 Ang^3
#
#
#
# Elastic Constant Matrix: (Units=GPa)
#
#
# Indices 1 2 3 4 5 6 
#
# 1 33.5640 13.9193 8.4159 0.0000 0.0000 0.0000
# 2 13.9193 94.3886 31.2283 0.0000 0.0000 0.0000
# 3 8.4159 31.2283 67.0697 0.0000 0.0000 0.0000
# 4 0.0000 0.0000 0.0000 42.7917 0.0000 0.0000
# 5 0.0000 0.0000 0.0000 0.0000 14.8569 0.0000
# 6 0.0000 0.0000 0.0000 0.0000 0.0000 15.2732
#
#
#
# Elastic Compliance Matrix: (Units=1/GPa)
#
#
# Indices 1 2 3 4 5 6 
#
# 1 0.031994 -0.004007 -0.002149 0.000000 0.000000 0.000000
# 2 -0.004007 0.013026 -0.005562 0.000000 0.000000 0.000000
# 3 -0.002149 -0.005562 0.017769 0.000000 0.000000 0.000000
# 4 0.000000 0.000000 0.000000 0.023369 0.000000 0.000000
# 5 0.000000 0.000000 0.000000 0.000000 0.067309 0.000000
# 6 0.000000 0.000000 0.000000 0.000000 0.000000 0.065474
#
#
# Mechanical properties :
#
#
# Convention : Reuss Voigt Hill
#
# Bulk Modulus (GPa) = 25.41094 33.57214 29.49154
# Shear Modulus (GPa) = 19.56984 24.01495 21.79239
#
# Velocity S-wave (km/s) = 2.96049 3.27952 3.12408
# Velocity P-wave (km/s) = 4.80275 5.41995 5.12066
#
# Compressibility (1/GPa) = 0.03935313
#
# Stress axis : x y z
#
# Youngs Moduli (GPa) = 31.25540 76.77175 56.27708
#
# Poissons Ratio (x) = 0.30764 0.12093
# Poissons Ratio (y) = 0.12525 0.31301
# Poissons Ratio (z) = 0.06716 0.42701
#
# Static dielectric constant tensor:
#      x y z
#    x 1.911020 0.000000 0.000000 
#    y 0.000000 1.819260 0.000000 
#    z 0.000000 0.000000 1.846240 
# 
# From -- ./inp_files/69750.got.cif
#   From: 2010.05.17/outbox.cif.g08.bks.cpg/sg63_35_cif.got.tgz:69750.got - 2010.06.03 15:47:04.
