data_PCOD9474828
_publ_section_title
;
Structure prediction by ZEFSAII (Michael W. Deem and Ramdas Pophale) SiO2 
 PCOD9474828
Probable space group: C M C M
;
_chemical_formula_sum "Si O2"
_cell_formula_units_Z 120
_cell_length_a 20.374130
_cell_length_b 14.674355
_cell_length_c 22.477476
_cell_angle_alpha 90.000000
_cell_angle_beta 90.000000
_cell_angle_gamma 90.000000
_cell_volume 6720.253207
_symmetry_space_group_name_H-M "C M C M"
_symmetry_group_IT_number 63
_symmetry_cell_setting 'orthorhombic'
loop_
_space_group_symop_operation_xyz
x,y,z
-x,-y,1/2+z
x,-y,-z
-x,y,1/2-z
-x,-y,-z
x,y,1/2-z
-x,y,z
x,-y,1/2+z
1/2+x,1/2+y,z
1/2-x,1/2-y,1/2+z
1/2+x,1/2-y,-z
1/2-x,1/2+y,1/2-z
1/2-x,1/2-y,-z
1/2+x,1/2+y,1/2-z
1/2-x,1/2+y,z
1/2+x,1/2-y,1/2+z
loop_
_atom_site_type_symbol
_atom_site_label
_atom_site_fract_x
_atom_site_fract_y
_atom_site_fract_z
Si Si1 0.573909 0.302044 0.821239
Si Si2 0.215569 0.889141 0.369076
Si Si3 0.300555 0.402692 0.631477
Si Si4 0.859469 0.613723 0.680801
Si Si5 0.172520 0.700521 0.180156
Si Si6 0.138467 0.500000 0.000000
Si Si7 0.744327 0.640824 0.998902
Si Si8 0.577515 0.059168 0.123675
O O1 0.578226 0.316344 0.750000
O O2 0.500000 0.322805 0.840516
O O3 0.630080 0.359572 0.852569
O O4 0.591306 0.196301 0.832133
O O5 0.293234 0.875599 0.356864
O O6 0.179279 0.806733 0.336399
O O7 0.203916 0.882552 0.439714
O O8 0.200718 0.991852 0.349761
O O9 0.241974 0.347872 0.664193
O O10 0.285435 0.392689 0.561261
O O11 0.840359 0.618931 0.750000
O O12 0.894376 0.518847 0.667118
O O13 0.159071 0.689243 0.250000
O O14 0.118039 0.649605 0.140545
O O15 0.186946 0.586652 0.992054
O O16 0.096176 0.477228 0.941960
O O17 0.750000 0.750000 0.000000
O O18 0.500000 0.071124 0.129821
#
# Coordination Sequence:
#
# PCOD9474828 Si02
#       8
#    16  16  16  16  16   8  16  16
#     4  10  22  39  58  87 124 158 197 246 306 368
#     4  12  22  38  61  95 122 154 207 259 312 368
#     4  12  22  37  64  92 121 161 207 261 309 371
#     4  11  20  35  61  90 122 154 196 257 314 365
#     4  12  24  39  60  89 124 165 209 257 310 372
#     4  12  21  42  58  96 125 164 208 258 317 376
#     4  12  19  36  65  89 123 159 199 258 318 368
#     4  12  25  41  61  89 129 169 209 254 313 386
#
# _framework density 17.856470000000002
#
# number of rings (size 3 to 8) (size 9 to 14) (size 15 to 20)
#    0.000    0.400    8.000    1.800    0.000    3.200 
#    0.000    0.667    0.000    1.600    0.000    0.000 
#    0.000    0.000    0.000    0.000    0.000    0.000 
#
# Total GULP energy -335258.006935 kJ/mol
# GULP energy per Si atom -5587.633449 kJ/mol
# Density = 1.781583 g / cm^3
# Si number density = 17.856470 Si / 1000 Ang^3
#
#
#
# Elastic Constant Matrix: (Units=GPa)
#
#
# Indices 1 2 3 4 5 6 
#
# 1 109.5492 32.0498 25.6728 0.0000 0.0000 0.0000
# 2 32.0498 122.6547 15.4594 0.0000 0.0000 0.0000
# 3 25.6728 15.4594 69.8070 0.0000 0.0000 0.0000
# 4 0.0000 0.0000 0.0000 24.8512 0.0000 0.0000
# 5 0.0000 0.0000 0.0000 0.0000 17.5653 0.0000
# 6 0.0000 0.0000 0.0000 0.0000 0.0000 12.9864
#
#
#
# Elastic Compliance Matrix: (Units=1/GPa)
#
#
# Indices 1 2 3 4 5 6 
#
# 1 0.010607 -0.002345 -0.003381 0.000000 0.000000 0.000000
# 2 -0.002345 0.008906 -0.001110 0.000000 0.000000 0.000000
# 3 -0.003381 -0.001110 0.015815 0.000000 0.000000 0.000000
# 4 0.000000 0.000000 0.000000 0.040240 0.000000 0.000000
# 5 0.000000 0.000000 0.000000 0.000000 0.056930 0.000000
# 6 0.000000 0.000000 0.000000 0.000000 0.000000 0.077003
#
#
# Mechanical properties :
#
#
# Convention : Reuss Voigt Hill
#
# Bulk Modulus (GPa) = 46.18073 49.81944 48.00009
# Shear Modulus (GPa) = 21.70217 26.33584 24.01900
#
# Velocity S-wave (km/s) = 3.48999 3.84456 3.67156
# Velocity P-wave (km/s) = 6.49295 6.90420 6.70173
#
# Compressibility (1/GPa) = 0.02165405
#
# Stress axis : x y z
#
# Youngs Moduli (GPa) = 94.27787 112.28771 63.23283
#
# Poissons Ratio (x) = 0.26336 0.21382
# Poissons Ratio (y) = 0.22112 0.07017
# Poissons Ratio (z) = 0.31880 0.12460
#
# Static dielectric constant tensor:
#      x y z
#    x 1.572250 0.000000 0.000000 
#    y 0.000000 1.623130 0.000000 
#    z 0.000000 0.000000 1.644100 
# 
# From -- ./inp_files/56833.got.cif
#   From: 2010.05.17/outbox.cif.g08.bks.cpg/sg63_29_cif.got.tgz:56833.got - 2010.06.03 15:47:04.
