data_PCOD9474881
_publ_section_title
;
Structure prediction by ZEFSAII (Michael W. Deem and Ramdas Pophale) SiO2 
 PCOD9474881
Probable space group: C M C M
;
_chemical_formula_sum "Si O2"
_cell_formula_units_Z 68
_cell_length_a 7.694088
_cell_length_b 24.378522
_cell_length_c 17.164321
_cell_angle_alpha 90.000000
_cell_angle_beta 90.000000
_cell_angle_gamma 90.000000
_cell_volume 3219.520162
_symmetry_space_group_name_H-M "C M C M"
_symmetry_group_IT_number 63
_symmetry_cell_setting 'orthorhombic'
loop_
_space_group_symop_operation_xyz
x,y,z
-x,-y,1/2+z
x,-y,-z
-x,y,1/2-z
-x,-y,-z
x,y,1/2-z
-x,y,z
x,-y,1/2+z
1/2+x,1/2+y,z
1/2-x,1/2-y,1/2+z
1/2+x,1/2-y,-z
1/2-x,1/2+y,1/2-z
1/2-x,1/2-y,-z
1/2+x,1/2+y,1/2-z
1/2-x,1/2+y,z
1/2+x,1/2-y,1/2+z
loop_
_atom_site_type_symbol
_atom_site_label
_atom_site_fract_x
_atom_site_fract_y
_atom_site_fract_z
Si Si1 0.500000 0.113954 0.750000
Si Si2 0.299389 0.939002 0.509951
Si Si3 0.798899 0.139615 0.623650
Si Si4 0.701857 0.380868 0.838604
Si Si5 0.207452 0.741059 0.159921
O O1 0.655342 0.116222 0.682498
O O2 0.500000 0.940832 0.484894
O O3 0.207752 0.894656 0.455503
O O4 0.291269 0.919219 0.598796
O O5 0.225595 0.000000 0.500000
O O6 0.751176 0.204046 0.612921
O O7 0.000000 0.138772 0.653091
O O8 0.771483 0.384054 0.750000
O O9 0.500000 0.396077 0.836718
O O10 0.715041 0.317113 0.863577
O O11 0.262741 0.752105 0.250000
O O12 0.000000 0.733687 0.159235
#
# Coordination Sequence:
#
# PCOD9474881 Si02
#       5
#     4  16  16  16  16
#     4  12  22  40  66 102 138 172 212 272 314 400
#     4  11  25  46  66  89 126 171 221 280 332 380
#     4  11  23  40  67  99 134 175 216 264 328 386
#     4  10  22  39  64  94 127 170 215 260 325 394
#     4   9  18  34  59  93 131 166 208 258 313 382
#
# _framework density 21.12116
#
# number of rings (size 3 to 8) (size 9 to 14) (size 15 to 20)
#    0.000    1.647    2.353    1.765    1.647    4.235 
#    2.118    0.000    0.000    0.000    0.000    0.000 
#    0.000    0.000    0.000    0.000    0.000    0.000 
#
# Total GULP energy -189324.067654 kJ/mol
# GULP energy per Si atom -5568.354931 kJ/mol
# Density = 2.107309 g / cm^3
# Si number density = 21.121160 Si / 1000 Ang^3
#
#
#
# Elastic Constant Matrix: (Units=GPa)
#
#
# Indices 1 2 3 4 5 6 
#
# 1 90.0953 2.5358 17.7987 0.0000 0.0000 0.0000
# 2 2.5358 126.9362 64.5460 0.0000 0.0000 0.0000
# 3 17.7987 64.5460 91.1958 0.0000 0.0000 0.0000
# 4 0.0000 0.0000 0.0000 -287.2106 0.0000 0.0000
# 5 0.0000 0.0000 0.0000 0.0000 31.7784 0.0000
# 6 0.0000 0.0000 0.0000 0.0000 0.0000 20.2527
#
#
#
# Elastic Compliance Matrix: (Units=1/GPa)
#
#
# Indices 1 2 3 4 5 6 
#
# 1 0.011713 0.001450 -0.003313 0.000000 0.000000 0.000000
# 2 0.001450 0.012487 -0.009121 0.000000 0.000000 0.000000
# 3 -0.003313 -0.009121 0.018068 0.000000 0.000000 0.000000
# 4 0.000000 0.000000 0.000000 -0.003482 0.000000 0.000000
# 5 0.000000 0.000000 0.000000 0.000000 0.031468 0.000000
# 6 0.000000 0.000000 0.000000 0.000000 0.000000 0.049376
#
#
# Mechanical properties :
#
#
# Convention : Reuss Voigt Hill
#
# Bulk Modulus (GPa) = 49.25841 53.10980 51.18411
# Shear Modulus (GPa) = 33.70110 -32.14611 0.77749
#
# Velocity S-wave (km/s) = 3.99884 -3.90550 0.60738
# Velocity P-wave (km/s) = 6.68531 2.20515 4.97776
#
# Compressibility (1/GPa) = 0.02030110
#
# Stress axis : x y z
#
# Youngs Moduli (GPa) = 85.37558 80.08351 55.34779
#
# Poissons Ratio (x) = -0.11616 0.18335
# Poissons Ratio (y) = -0.12383 0.50483
# Poissons Ratio (z) = 0.28282 0.73044
#
# Static dielectric constant tensor:
#      x y z
#    x 1.764650 0.000000 0.000000 
#    y 0.000000 1.763900 0.000000 
#    z 0.000000 0.000000 1.759990 
# 
# From -- ./inp_files/39989.got.cif
#   From: 2010.05.17/outbox.cif.g08.bks.cpg/sg63_20_cif.got.tgz:39989.got - 2010.06.03 15:47:04.
