data_PCOD9474553
_publ_section_title
;
Structure prediction by ZEFSAII (Michael W. Deem and Ramdas Pophale) SiO2 
 PCOD9474553
Probable space group: C M C M
;
_chemical_formula_sum "Si O2"
_cell_formula_units_Z 48
_cell_length_a 9.996163
_cell_length_b 17.710128
_cell_length_c 13.486791
_cell_angle_alpha 90.000000
_cell_angle_beta 90.000000
_cell_angle_gamma 90.000000
_cell_volume 2387.611471
_symmetry_space_group_name_H-M "C M C M"
_symmetry_group_IT_number 63
_symmetry_cell_setting 'orthorhombic'
loop_
_space_group_symop_operation_xyz
x,y,z
-x,-y,1/2+z
x,-y,-z
-x,y,1/2-z
-x,-y,-z
x,y,1/2-z
-x,y,z
x,-y,1/2+z
1/2+x,1/2+y,z
1/2-x,1/2-y,1/2+z
1/2+x,1/2-y,-z
1/2-x,1/2+y,1/2-z
1/2-x,1/2-y,-z
1/2+x,1/2+y,1/2-z
1/2-x,1/2+y,z
1/2+x,1/2-y,1/2+z
loop_
_atom_site_type_symbol
_atom_site_label
_atom_site_fract_x
_atom_site_fract_y
_atom_site_fract_z
Si Si1 0.211123 0.126729 0.137916
Si Si2 0.272677 0.000000 0.000000
Si Si3 0.000000 0.301372 0.859871
Si Si4 0.500000 0.922634 0.367826
Si Si5 0.000000 0.753250 0.573308
O O1 0.179619 0.102982 0.250000
O O2 0.368066 0.147394 0.132584
O O3 0.127809 0.201412 0.112790
O O4 0.187532 0.061883 0.058336
O O5 0.370633 0.040613 0.920502
O O6 0.000000 0.265732 0.750000
O O7 0.000000 0.247136 0.953978
O O8 0.500000 0.936087 0.250000
O O9 0.500000 0.833080 0.390628
#
# Coordination Sequence:
#
# PCOD9474553 Si02
#       5
#    16   8   8   8   8
#     4  11  23  41  65  93 128 167 204 258 318 366
#     4  11  22  39  60  90 128 166 206 254 314 376
#     4  10  21  39  65  92 123 161 205 255 311 364
#     4  11  22  38  63  92 120 162 218 261 299 371
#     4  12  23  43  64  95 125 162 213 259 310 363
#
# _framework density 20.103774000000001
#
# number of rings (size 3 to 8) (size 9 to 14) (size 15 to 20)
#    0.000    1.000    3.333    4.500    0.000    2.000 
#    0.000    1.667    0.000    0.000    0.000    0.000 
#    0.000    0.000    0.000    0.000    0.000    0.000 
#
# Total GULP energy -134222.244178 kJ/mol
# GULP energy per Si atom -5592.593507 kJ/mol
# Density = 2.005802 g / cm^3
# Si number density = 20.103774 Si / 1000 Ang^3
#
#
#
# Elastic Constant Matrix: (Units=GPa)
#
#
# Indices 1 2 3 4 5 6 
#
# 1 55.7682 27.7983 13.4249 0.0000 0.0000 0.0000
# 2 27.7983 110.2259 41.7111 0.0000 0.0000 0.0000
# 3 13.4249 41.7111 175.3153 0.0000 0.0000 0.0000
# 4 0.0000 0.0000 0.0000 27.3792 0.0000 0.0000
# 5 0.0000 0.0000 0.0000 0.0000 -0.1076 0.0000
# 6 0.0000 0.0000 0.0000 0.0000 0.0000 19.6297
#
#
#
# Elastic Compliance Matrix: (Units=1/GPa)
#
#
# Indices 1 2 3 4 5 6 
#
# 1 0.020532 -0.005037 -0.000374 0.000000 0.000000 0.000000
# 2 -0.005037 0.011205 -0.002280 0.000000 0.000000 0.000000
# 3 -0.000374 -0.002280 0.006275 0.000000 0.000000 0.000000
# 4 0.000000 0.000000 0.000000 0.036524 0.000000 0.000000
# 5 0.000000 0.000000 0.000000 0.000000 -9.295590 0.000000
# 6 0.000000 0.000000 0.000000 0.000000 0.000000 0.050943
#
#
# Mechanical properties :
#
#
# Convention : Reuss Voigt Hill
#
# Bulk Modulus (GPa) = 44.18741 56.35311 50.27026
# Shear Modulus (GPa) = -0.54662 26.60528 13.02933
#
# Velocity S-wave (km/s) = -0.52200 3.64180 2.54855
# Velocity P-wave (km/s) = 4.65447 6.76576 5.80688
#
# Compressibility (1/GPa) = 0.02263088
#
# Stress axis : x y z
#
# Youngs Moduli (GPa) = 48.70473 89.24308 159.35810
#
# Poissons Ratio (x) = 0.44947 0.05959
# Poissons Ratio (y) = 0.24530 0.36339
# Poissons Ratio (z) = 0.01821 0.20350
#
# Static dielectric constant tensor:
#      x y z
#    x 1.706570 0.000000 0.000000 
#    y 0.000000 1.679140 0.000000 
#    z 0.000000 0.000000 1.724730 
# 
# From -- ./inp_files/28669.got.cif
#   From: 2010.05.17/outbox.cif.g08.bks.cpg/sg63_15_cif.got.tgz:28669.got - 2010.06.03 15:47:04.
