data_PCOD9474273
_publ_section_title
;
Structure prediction by ZEFSAII (Michael W. Deem and Ramdas Pophale) SiO2 
 PCOD9474273
Probable space group: C M C M
;
_chemical_formula_sum "Si O2"
_cell_formula_units_Z 68
_cell_length_a 26.731231
_cell_length_b 5.032218
_cell_length_c 22.459225
_cell_angle_alpha 90.000000
_cell_angle_beta 90.000000
_cell_angle_gamma 90.000000
_cell_volume 3021.156144
_symmetry_space_group_name_H-M "C M C M"
_symmetry_group_IT_number 63
_symmetry_cell_setting 'orthorhombic'
loop_
_space_group_symop_operation_xyz
x,y,z
-x,-y,1/2+z
x,-y,-z
-x,y,1/2-z
-x,-y,-z
x,y,1/2-z
-x,y,z
x,-y,1/2+z
1/2+x,1/2+y,z
1/2-x,1/2-y,1/2+z
1/2+x,1/2-y,-z
1/2-x,1/2+y,1/2-z
1/2-x,1/2-y,-z
1/2+x,1/2+y,1/2-z
1/2-x,1/2+y,z
1/2+x,1/2-y,1/2+z
loop_
_atom_site_type_symbol
_atom_site_label
_atom_site_fract_x
_atom_site_fract_y
_atom_site_fract_z
Si Si1 0.500000 0.450066 0.250000
Si Si2 0.717230 0.045274 0.066289
Si Si3 0.659687 0.135481 0.814680
Si Si4 0.056660 0.740307 0.039711
Si Si5 0.095451 0.147642 0.833257
O O1 0.455507 0.439902 0.301367
O O2 0.734244 0.351090 0.067995
O O3 0.688087 0.958284 0.125776
O O4 0.694433 0.000000 0.000000
O O5 0.686472 0.113320 0.750000
O O6 0.638371 0.431846 0.821114
O O7 0.612585 0.936466 0.811772
O O8 0.087702 0.816259 0.096912
O O9 0.000000 0.661547 0.058718
O O10 0.076530 0.500000 0.000000
O O11 0.053595 0.000000 0.000000
#
# Coordination Sequence:
#
# PCOD9474273 Si02
#       5
#     4  16  16  16  16
#     4  12  24  46  64  90 132 198 232 276 320 410
#     4  10  23  45  72 100 132 174 217 265 341 426
#     4  12  25  42  65 103 136 169 226 285 335 402
#     4  10  21  38  58  84 116 160 216 274 330 385
#     4  12  25  42  65  93 133 180 231 278 334 395
#
# _framework density 22.507937999999999
#
# number of rings (size 3 to 8) (size 9 to 14) (size 15 to 20)
#    0.000    0.941    3.529    2.824    0.000    5.647 
#    0.000    0.000    0.000    0.000    0.000    0.000 
#    0.000    0.000    0.000    0.000    0.000    0.000 
#
# Total GULP energy -189455.369061 kJ/mol
# GULP energy per Si atom -5572.216737 kJ/mol
# Density = 2.245671 g / cm^3
# Si number density = 22.507938 Si / 1000 Ang^3
#
#
#
# Elastic Constant Matrix: (Units=GPa)
#
#
# Indices 1 2 3 4 5 6 
#
# 1 40.9019 -6.3378 34.5265 0.0000 0.0000 0.0000
# 2 -6.3378 82.4161 15.2705 0.0000 0.0000 0.0000
# 3 34.5265 15.2705 225.3641 0.0000 0.0000 0.0000
# 4 0.0000 0.0000 0.0000 65.5467 0.0000 0.0000
# 5 0.0000 0.0000 0.0000 0.0000 13.5060 0.0000
# 6 0.0000 0.0000 0.0000 0.0000 0.0000 13.1652
#
#
#
# Elastic Compliance Matrix: (Units=1/GPa)
#
#
# Indices 1 2 3 4 5 6 
#
# 1 0.028829 0.003074 -0.004625 0.000000 0.000000 0.000000
# 2 0.003074 0.012616 -0.001326 0.000000 0.000000 0.000000
# 3 -0.004625 -0.001326 0.005236 0.000000 0.000000 0.000000
# 4 0.000000 0.000000 0.000000 0.015256 0.000000 0.000000
# 5 0.000000 0.000000 0.000000 0.000000 0.074041 0.000000
# 6 0.000000 0.000000 0.000000 0.000000 0.000000 0.075958
#
#
# Mechanical properties :
#
#
# Convention : Reuss Voigt Hill
#
# Bulk Modulus (GPa) = 24.43390 48.40005 36.41697
# Shear Modulus (GPa) = 21.61403 38.79179 30.20291
#
# Velocity S-wave (km/s) = 3.10221 4.15598 3.66714
# Velocity P-wave (km/s) = 4.86938 6.67681 5.84340
#
# Compressibility (1/GPa) = 0.04092675
#
# Stress axis : x y z
#
# Youngs Moduli (GPa) = 34.68705 79.26708 190.99770
#
# Poissons Ratio (x) = -0.24366 0.88337
# Poissons Ratio (y) = -0.10663 0.25322
# Poissons Ratio (z) = 0.16043 0.10509
#
# Static dielectric constant tensor:
#      x y z
#    x 1.866060 0.000000 0.000000 
#    y 0.000000 1.774820 0.000000 
#    z 0.000000 0.000000 1.856520 
# 
# From -- ./inp_files/57901.got.cif
#   From: 2010.05.17/outbox.cif.g08.bks.cpg/sg63_29_cif.got.tgz:57901.got - 2010.06.03 15:47:04.
