data_PCOD9474595
_publ_section_title
;
Structure prediction by ZEFSAII (Michael W. Deem and Ramdas Pophale) SiO2 
 PCOD9474595
Probable space group: C M C M
;
_chemical_formula_sum "Si O2"
_cell_formula_units_Z 64
_cell_length_a 22.593857
_cell_length_b 7.793119
_cell_length_c 17.328930
_cell_angle_alpha 90.000000
_cell_angle_beta 90.000000
_cell_angle_gamma 90.000000
_cell_volume 3051.219358
_symmetry_space_group_name_H-M "C M C M"
_symmetry_group_IT_number 63
_symmetry_cell_setting 'orthorhombic'
loop_
_space_group_symop_operation_xyz
x,y,z
-x,-y,1/2+z
x,-y,-z
-x,y,1/2-z
-x,-y,-z
x,y,1/2-z
-x,y,z
x,-y,1/2+z
1/2+x,1/2+y,z
1/2-x,1/2-y,1/2+z
1/2+x,1/2-y,-z
1/2-x,1/2+y,1/2-z
1/2-x,1/2-y,-z
1/2+x,1/2+y,1/2-z
1/2-x,1/2+y,z
1/2+x,1/2-y,1/2+z
loop_
_atom_site_type_symbol
_atom_site_label
_atom_site_fract_x
_atom_site_fract_y
_atom_site_fract_z
Si Si1 0.842310 0.739917 0.128313
Si Si2 0.429858 0.512869 0.336825
Si Si3 0.157673 0.172529 0.040275
Si Si4 0.223730 0.611169 0.664557
O O1 0.812047 0.566696 0.158617
O O2 0.794430 0.887384 0.152826
O O3 0.902895 0.820173 0.159605
O O4 0.852856 0.717377 0.036764
O O5 0.417811 0.581328 0.250000
O O6 0.500000 0.512449 0.348437
O O7 0.397622 0.616227 0.406198
O O8 0.201749 0.268973 0.096006
O O9 0.182112 0.000000 0.000000
O O10 0.212647 0.683108 0.750000
#
# Coordination Sequence:
#
# PCOD9474595 Si02
#       4
#    16  16  16  16
#     4  11  23  38  59  88 122 159 198 248 303 357
#     4  10  21  40  64  89 119 158 204 249 297 355
#     4  10  22  38  60  87 120 156 196 242 296 356
#     4  12  23  39  62  90 124 158 200 248 302 359
#
# _framework density 20.975221999999999
#
# number of rings (size 3 to 8) (size 9 to 14) (size 15 to 20)
#    0.000    1.250    0.000    7.500    0.000    6.500 
#    0.000    1.250    0.000   12.000    0.000    0.000 
#    0.000    0.000    0.000    0.000    0.000    0.000 
#
# Total GULP energy -178499.393723 kJ/mol
# GULP energy per Si atom -5578.106054 kJ/mol
# Density = 2.092748 g / cm^3
# Si number density = 20.975222 Si / 1000 Ang^3
#
#
#
# Elastic Constant Matrix: (Units=GPa)
#
#
# Indices 1 2 3 4 5 6 
#
# 1 91.5461 21.2693 37.3736 0.0000 0.0000 0.0000
# 2 21.2693 41.1473 17.6842 0.0000 0.0000 0.0000
# 3 37.3736 17.6842 182.8968 0.0000 0.0000 0.0000
# 4 0.0000 0.0000 0.0000 34.6920 0.0000 0.0000
# 5 0.0000 0.0000 0.0000 0.0000 42.9255 0.0000
# 6 0.0000 0.0000 0.0000 0.0000 0.0000 19.5925
#
#
#
# Elastic Compliance Matrix: (Units=1/GPa)
#
#
# Indices 1 2 3 4 5 6 
#
# 1 0.013157 -0.005890 -0.002119 0.000000 0.000000 0.000000
# 2 -0.005890 0.027994 -0.001503 0.000000 0.000000 0.000000
# 3 -0.002119 -0.001503 0.006046 0.000000 0.000000 0.000000
# 4 0.000000 0.000000 0.000000 0.028825 0.000000 0.000000
# 5 0.000000 0.000000 0.000000 0.000000 0.023296 0.000000
# 6 0.000000 0.000000 0.000000 0.000000 0.000000 0.051040
#
#
# Mechanical properties :
#
#
# Convention : Reuss Voigt Hill
#
# Bulk Modulus (GPa) = 35.49636 52.02717 43.76177
# Shear Modulus (GPa) = 27.96843 35.39287 31.68065
#
# Velocity S-wave (km/s) = 3.65554 4.11221 3.89058
# Velocity P-wave (km/s) = 5.89721 6.88513 6.41023
#
# Compressibility (1/GPa) = 0.02817190
#
# Stress axis : x y z
#
# Youngs Moduli (GPa) = 76.00492 35.72245 165.40126
#
# Poissons Ratio (x) = 0.21041 0.35049
# Poissons Ratio (y) = 0.44769 0.24861
# Poissons Ratio (z) = 0.16106 0.05369
#
# Static dielectric constant tensor:
#      x y z
#    x 1.720680 0.000000 0.000000 
#    y 0.000000 1.826550 0.000000 
#    z 0.000000 0.000000 1.809630 
# 
# From -- ./inp_files/46532.got.cif
#   From: 2010.05.17/outbox.cif.g08.bks.cpg/sg63_24_cif.got.tgz:46532.got - 2010.06.03 15:47:04.
