data_PCOD9474995
_publ_section_title
;
Structure prediction by ZEFSAII (Michael W. Deem and Ramdas Pophale) SiO2 
 PCOD9474995
Probable space group: C M C M
;
_chemical_formula_sum "Si O2"
_cell_formula_units_Z 80
_cell_length_a 15.195568
_cell_length_b 12.278215
_cell_length_c 22.077597
_cell_angle_alpha 90.000000
_cell_angle_beta 90.000000
_cell_angle_gamma 90.000000
_cell_volume 4119.115539
_symmetry_space_group_name_H-M "C M C M"
_symmetry_group_IT_number 63
_symmetry_cell_setting 'orthorhombic'
loop_
_space_group_symop_operation_xyz
x,y,z
-x,-y,1/2+z
x,-y,-z
-x,y,1/2-z
-x,-y,-z
x,y,1/2-z
-x,y,z
x,-y,1/2+z
1/2+x,1/2+y,z
1/2-x,1/2-y,1/2+z
1/2+x,1/2-y,-z
1/2-x,1/2+y,1/2-z
1/2-x,1/2-y,-z
1/2+x,1/2+y,1/2-z
1/2-x,1/2+y,z
1/2+x,1/2-y,1/2+z
loop_
_atom_site_type_symbol
_atom_site_label
_atom_site_fract_x
_atom_site_fract_y
_atom_site_fract_z
Si Si1 0.404701 0.912738 0.444731
Si Si2 0.249718 0.529408 0.376870
Si Si3 0.599335 0.612111 0.606776
Si Si4 0.900580 0.331283 0.681010
Si Si5 0.164923 0.815024 0.521183
O O1 0.500000 0.929212 0.414563
O O2 0.398703 0.785476 0.461905
O O3 0.403039 0.000000 0.500000
O O4 0.318078 0.945383 0.408284
O O5 0.331416 0.457923 0.354757
O O6 0.183682 0.594071 0.333215
O O7 0.298447 0.609800 0.424728
O O8 0.500000 0.570116 0.611456
O O9 0.602091 0.734026 0.632781
O O10 0.627057 0.618883 0.536084
O O11 0.894116 0.290820 0.750000
O O12 0.000000 0.380229 0.675638
O O13 0.250000 0.750000 0.500000
#
# Coordination Sequence:
#
# PCOD9474995 Si02
#       5
#    16  16  16  16  16
#     4  11  20  31  50  76 108 147 184 224 274 331
#     4  12  21  36  57  84 114 146 191 237 289 343
#     4  11  23  38  58  85 121 158 194 236 287 351
#     4  10  22  41  62  83 109 146 194 245 293 343
#     4  12  20  34  53  82 120 155 186 230 285 346
#
# _framework density 19.421644000000001
#
# number of rings (size 3 to 8) (size 9 to 14) (size 15 to 20)
#    0.000    0.800    6.000    1.800    0.000    6.400 
#    0.000    0.000    0.000    0.000    0.000    0.000 
#    0.000    0.000    0.000    0.000    0.000    0.000 
#
# Total GULP energy -222913.301787 kJ/mol
# GULP energy per Si atom -5572.832545 kJ/mol
# Density = 1.937744 g / cm^3
# Si number density = 19.421644 Si / 1000 Ang^3
#
#
#
# Elastic Constant Matrix: (Units=GPa)
#
#
# Indices 1 2 3 4 5 6 
#
# 1 156.8226 23.1208 12.6040 0.0000 0.0000 0.0000
# 2 23.1208 55.7973 7.1219 0.0000 0.0000 0.0000
# 3 12.6040 7.1219 47.0358 0.0000 0.0000 0.0000
# 4 0.0000 0.0000 0.0000 3.7102 0.0000 0.0000
# 5 0.0000 0.0000 0.0000 0.0000 22.5272 0.0000
# 6 0.0000 0.0000 0.0000 0.0000 0.0000 154.6006
#
#
#
# Elastic Compliance Matrix: (Units=1/GPa)
#
#
# Indices 1 2 3 4 5 6 
#
# 1 0.006886 -0.002669 -0.001441 0.000000 0.000000 0.000000
# 2 -0.002669 0.019310 -0.002209 0.000000 0.000000 0.000000
# 3 -0.001441 -0.002209 0.021981 0.000000 0.000000 0.000000
# 4 0.000000 0.000000 0.000000 0.269530 0.000000 0.000000
# 5 0.000000 0.000000 0.000000 0.000000 0.044391 0.000000
# 6 0.000000 0.000000 0.000000 0.000000 0.000000 0.006468
#
#
# Mechanical properties :
#
#
# Convention : Reuss Voigt Hill
#
# Bulk Modulus (GPa) = 28.13804 38.37212 33.25508
# Shear Modulus (GPa) = 12.72101 50.62152 31.67127
#
# Velocity S-wave (km/s) = 2.56206 5.11088 4.04260
# Velocity P-wave (km/s) = 4.82407 7.39110 6.24099
#
# Compressibility (1/GPa) = 0.03553908
#
# Stress axis : x y z
#
# Youngs Moduli (GPa) = 145.22195 51.78646 45.49390
#
# Poissons Ratio (x) = 0.13824 0.06556
# Poissons Ratio (y) = 0.38766 0.10047
# Poissons Ratio (z) = 0.20927 0.11437
#
# Static dielectric constant tensor:
#      x y z
#    x 1.748130 0.000000 0.000000 
#    y 0.000000 1.733770 0.000000 
#    z 0.000000 0.000000 1.687220 
# 
# From -- ./inp_files/62537.got.cif
#   From: 2010.05.17/outbox.cif.g08.bks.cpg/sg63_32_cif.got.tgz:62537.got - 2010.06.03 15:47:04.
