data_PCOD9474717
_publ_section_title
;
Structure prediction by ZEFSAII (Michael W. Deem and Ramdas Pophale) SiO2 
 PCOD9474717
Probable space group: C M C M
;
_chemical_formula_sum "Si O2"
_cell_formula_units_Z 68
_cell_length_a 7.605201
_cell_length_b 19.866990
_cell_length_c 18.712808
_cell_angle_alpha 90.000000
_cell_angle_beta 90.000000
_cell_angle_gamma 90.000000
_cell_volume 2827.364049
_symmetry_space_group_name_H-M "C M C M"
_symmetry_group_IT_number 63
_symmetry_cell_setting 'orthorhombic'
loop_
_space_group_symop_operation_xyz
x,y,z
-x,-y,1/2+z
x,-y,-z
-x,y,1/2-z
-x,-y,-z
x,y,1/2-z
-x,y,z
x,-y,1/2+z
1/2+x,1/2+y,z
1/2-x,1/2-y,1/2+z
1/2+x,1/2-y,-z
1/2-x,1/2+y,1/2-z
1/2-x,1/2-y,-z
1/2+x,1/2+y,1/2-z
1/2-x,1/2+y,z
1/2+x,1/2-y,1/2+z
loop_
_atom_site_type_symbol
_atom_site_label
_atom_site_fract_x
_atom_site_fract_y
_atom_site_fract_z
Si Si1 0.290385 0.675004 0.832959
Si Si2 0.202692 0.472795 0.168263
Si Si3 0.500000 0.349311 0.750000
Si Si4 0.796209 0.679385 0.129997
Si Si5 0.303669 0.439693 0.955577
O O1 0.230972 0.687373 0.750000
O O2 0.500000 0.665802 0.831205
O O3 0.212871 0.604280 0.857732
O O4 0.252709 0.741380 0.878310
O O5 0.265267 0.472253 0.250000
O O6 0.310251 0.523323 0.120820
O O7 0.000000 0.494770 0.166932
O O8 0.344507 0.345423 0.687835
O O9 0.780491 0.632089 0.060429
O O10 0.000000 0.676003 0.155191
O O11 0.500000 0.429132 0.985284
O O12 0.213348 0.500000 0.000000
#
# Coordination Sequence:
#
# PCOD9474717 Si02
#       5
#    16  16   4  16  16
#     4   9  18  34  56  89 125 156 194 250 303 360
#     4  10  22  36  60  92 124 158 201 252 310 370
#     4  12  22  36  62  98 132 160 198 262 308 358
#     4  11  23  38  63  94 126 166 206 250 309 371
#     4  11  25  44  62  85 121 167 213 261 314 369
#
# _framework density 24.05067
#
# number of rings (size 3 to 8) (size 9 to 14) (size 15 to 20)
#    0.000    1.647    2.353    1.765    3.294    3.294 
#    0.000    1.176    0.000    0.000    0.000    0.000 
#    0.000    0.000    0.000    0.000    0.000    0.000 
#
# Total GULP energy -189431.937228 kJ/mol
# GULP energy per Si atom -5571.527566 kJ/mol
# Density = 2.399593 g / cm^3
# Si number density = 24.050670 Si / 1000 Ang^3
#
#
#
# Elastic Constant Matrix: (Units=GPa)
#
#
# Indices 1 2 3 4 5 6 
#
# 1 100.4627 -12.7760 0.5379 0.0000 0.0000 0.0000
# 2 -12.7760 98.3014 2.5508 0.0000 0.0000 0.0000
# 3 0.5379 2.5508 2.7149 0.0000 0.0000 0.0000
# 4 0.0000 0.0000 0.0000 38.5932 0.0000 0.0000
# 5 0.0000 0.0000 0.0000 0.0000 17.5902 0.0000
# 6 0.0000 0.0000 0.0000 0.0000 0.0000 8.1396
#
#
#
# Elastic Compliance Matrix: (Units=1/GPa)
#
#
# Indices 1 2 3 4 5 6 
#
# 1 0.010151 0.001406 -0.003332 0.000000 0.000000 0.000000
# 2 0.001406 0.010622 -0.010258 0.000000 0.000000 0.000000
# 3 -0.003332 -0.010258 0.378633 0.000000 0.000000 0.000000
# 4 0.000000 0.000000 0.000000 0.025911 0.000000 0.000000
# 5 0.000000 0.000000 0.000000 0.000000 0.056850 0.000000
# 6 0.000000 0.000000 0.000000 0.000000 0.000000 0.122857
#
#
# Mechanical properties :
#
#
# Convention : Reuss Voigt Hill
#
# Bulk Modulus (GPa) = 2.66640 20.23383 11.45012
# Shear Modulus (GPa) = 6.62775 26.94236 16.78506
#
# Velocity S-wave (km/s) = 1.66185 3.35062 2.64465
# Velocity P-wave (km/s) = 2.18938 4.83737 3.75456
#
# Compressibility (1/GPa) = 0.37503692
#
# Stress axis : x y z
#
# Youngs Moduli (GPa) = 98.51687 94.14720 2.64108
#
# Poissons Ratio (x) = -0.13234 0.00880
# Poissons Ratio (y) = -0.13848 0.02709
# Poissons Ratio (z) = 0.32824 0.96576
#
# Static dielectric constant tensor:
#      x y z
#    x 1.876890 0.000000 0.000000 
#    y 0.000000 1.950740 0.000000 
#    z 0.000000 0.000000 2.105580 
# 
# From -- ./inp_files/39984.got.cif
#   From: 2010.05.17/outbox.cif.g08.bks.cpg/sg63_20_cif.got.tgz:39984.got - 2010.06.03 15:47:04.
