data_PCOD9474426
_publ_section_title
;
Structure prediction by ZEFSAII (Michael W. Deem and Ramdas Pophale) SiO2 
 PCOD9474426
Probable space group: C M C M
;
_chemical_formula_sum "Si O2"
_cell_formula_units_Z 116
_cell_length_a 25.245738
_cell_length_b 12.614725
_cell_length_c 18.906323
_cell_angle_alpha 90.000000
_cell_angle_beta 90.000000
_cell_angle_gamma 90.000000
_cell_volume 6021.059673
_symmetry_space_group_name_H-M "C M C M"
_symmetry_group_IT_number 63
_symmetry_cell_setting 'orthorhombic'
loop_
_space_group_symop_operation_xyz
x,y,z
-x,-y,1/2+z
x,-y,-z
-x,y,1/2-z
-x,-y,-z
x,y,1/2-z
-x,y,z
x,-y,1/2+z
1/2+x,1/2+y,z
1/2-x,1/2-y,1/2+z
1/2+x,1/2-y,-z
1/2-x,1/2+y,1/2-z
1/2-x,1/2-y,-z
1/2+x,1/2+y,1/2-z
1/2-x,1/2+y,z
1/2+x,1/2-y,1/2+z
loop_
_atom_site_type_symbol
_atom_site_label
_atom_site_fract_x
_atom_site_fract_y
_atom_site_fract_z
Si Si1 0.906796 0.238747 0.536777
Si Si2 0.142803 0.972620 0.417334
Si Si3 0.790789 0.660824 0.478934
Si Si4 0.237907 0.478050 0.387532
Si Si5 0.558326 0.041126 0.419549
Si Si6 0.000000 0.806690 0.750000
Si Si7 0.862303 0.402436 0.328668
Si Si8 0.411354 0.309708 0.876641
O O1 0.895933 0.128841 0.577983
O O2 0.848515 0.290156 0.527904
O O3 0.937752 0.331622 0.576781
O O4 0.929641 0.215479 0.458021
O O5 0.200099 0.952270 0.382441
O O6 0.155051 0.000000 0.500000
O O7 0.115732 0.075003 0.382778
O O8 0.750000 0.750000 0.500000
O O9 0.786910 0.582487 0.545030
O O10 0.771083 0.600449 0.408699
O O11 0.198436 0.439208 0.327873
O O12 0.500000 0.008503 0.393374
O O13 0.563614 0.000000 0.500000
O O14 0.603925 0.984888 0.375227
O O15 0.954125 0.807659 0.813944
O O16 0.884705 0.403793 0.250000
O O17 0.870258 0.284672 0.359127
#
# Coordination Sequence:
#
# PCOD9474426 Si02
#       8
#    16  16  16  16  16   4  16  16
#     4  11  20  38  64 102 131 154 212 285 327 378
#     4  10  21  38  64  99 130 161 210 271 326 380
#     4  11  17  30  60  95 128 168 202 249 322 386
#     4  11  20  33  59  95 134 171 199 257 323 379
#     4  11  23  39  66  94 125 166 212 280 340 377
#     4  12  28  48  66  86 126 188 220 276 332 390
#     4  12  25  41  62  95 134 174 220 261 323 410
#     4  11  24  41  67  93 123 169 225 269 325 386
#
# _framework density 19.265713000000002
#
# number of rings (size 3 to 8) (size 9 to 14) (size 15 to 20)
#    0.000    0.966    7.586    0.828    1.931    0.276 
#    2.483    1.034    1.517    0.000    0.000    0.000 
#    0.000    0.000    0.000    0.000    0.000    0.000 
#
# Total GULP energy -323036.953955 kJ/mol
# GULP energy per Si atom -5569.602654 kJ/mol
# Density = 1.922186 g / cm^3
# Si number density = 19.265713 Si / 1000 Ang^3
#
#
#
# Elastic Constant Matrix: (Units=GPa)
#
#
# Indices 1 2 3 4 5 6 
#
# 1 81.1243 32.9596 27.8129 0.0000 0.0000 0.0000
# 2 32.9596 126.6417 38.4248 0.0000 0.0000 0.0000
# 3 27.8129 38.4248 69.0652 0.0000 0.0000 0.0000
# 4 0.0000 0.0000 0.0000 9.3012 0.0000 0.0000
# 5 0.0000 0.0000 0.0000 0.0000 17.9044 0.0000
# 6 0.0000 0.0000 0.0000 0.0000 0.0000 10.7312
#
#
#
# Elastic Compliance Matrix: (Units=1/GPa)
#
#
# Indices 1 2 3 4 5 6 
#
# 1 0.014921 -0.002479 -0.004630 0.000000 0.000000 0.000000
# 2 -0.002479 0.009912 -0.004516 0.000000 0.000000 0.000000
# 3 -0.004630 -0.004516 0.018856 0.000000 0.000000 0.000000
# 4 0.000000 0.000000 0.000000 0.107513 0.000000 0.000000
# 5 0.000000 0.000000 0.000000 0.000000 0.055852 0.000000
# 6 0.000000 0.000000 0.000000 0.000000 0.000000 0.093186
#
#
# Mechanical properties :
#
#
# Convention : Reuss Voigt Hill
#
# Bulk Modulus (GPa) = 48.92471 52.80287 50.86379
# Shear Modulus (GPa) = 15.13760 19.42960 17.28360
#
# Velocity S-wave (km/s) = 2.80612 3.17914 2.99844
# Velocity P-wave (km/s) = 5.99574 6.39868 6.20049
#
# Compressibility (1/GPa) = 0.02043957
#
# Stress axis : x y z
#
# Youngs Moduli (GPa) = 67.01929 100.89117 53.03305
#
# Poissons Ratio (x) = 0.25007 0.24553
# Poissons Ratio (y) = 0.16611 0.23951
# Poissons Ratio (z) = 0.31029 0.45565
#
# Static dielectric constant tensor:
#      x y z
#    x 1.731920 0.000000 0.000000 
#    y 0.000000 1.702960 0.000000 
#    z 0.000000 0.000000 1.671770 
# 
# From -- ./inp_files/49608.got.cif
#   From: 2010.05.17/outbox.cif.g08.bks.cpg/sg63_25_cif.got.tgz:49608.got - 2010.06.03 15:47:04.
