data_PCOD9474942
_publ_section_title
;
Structure prediction by ZEFSAII (Michael W. Deem and Ramdas Pophale) SiO2 
 PCOD9474942
Probable space group: C M C M
;
_chemical_formula_sum "Si O2"
_cell_formula_units_Z 52
_cell_length_a 7.417876
_cell_length_b 14.074414
_cell_length_c 21.502334
_cell_angle_alpha 90.000000
_cell_angle_beta 90.000000
_cell_angle_gamma 90.000000
_cell_volume 2244.892218
_symmetry_space_group_name_H-M "C M C M"
_symmetry_group_IT_number 63
_symmetry_cell_setting 'orthorhombic'
loop_
_space_group_symop_operation_xyz
x,y,z
-x,-y,1/2+z
x,-y,-z
-x,y,1/2-z
-x,-y,-z
x,y,1/2-z
-x,y,z
x,-y,1/2+z
1/2+x,1/2+y,z
1/2-x,1/2-y,1/2+z
1/2+x,1/2-y,-z
1/2-x,1/2+y,1/2-z
1/2-x,1/2-y,-z
1/2+x,1/2+y,1/2-z
1/2-x,1/2+y,z
1/2+x,1/2-y,1/2+z
loop_
_atom_site_type_symbol
_atom_site_label
_atom_site_fract_x
_atom_site_fract_y
_atom_site_fract_z
Si Si1 0.219000 0.907462 0.820573
Si Si2 0.707374 0.812050 0.154249
Si Si3 0.717836 0.461124 0.433875
Si Si4 0.500000 0.620351 0.750000
O O1 0.282809 0.927185 0.750000
O O2 0.258837 0.797856 0.836651
O O3 0.000000 0.917132 0.817775
O O4 0.283484 0.972146 0.877147
O O5 0.500000 0.820791 0.173967
O O6 0.725389 0.854999 0.085300
O O7 0.843323 0.871192 0.196454
O O8 0.781267 0.500000 0.500000
O O9 0.500000 0.464659 0.434946
#
# Coordination Sequence:
#
# PCOD9474942 Si02
#       4
#    16  16  16   4
#     4   9  19  36  61  90 127 165 209 268 320 367
#     4  11  23  41  65  93 129 165 209 263 322 375
#     4  10  22  40  63  93 132 177 215 258 318 379
#     4  12  22  40  66  98 126 162 204 272 314 390
#
# _framework density 23.163695000000001
#
# number of rings (size 3 to 8) (size 9 to 14) (size 15 to 20)
#    0.000    1.846    3.077    0.462    2.154    1.846 
#    2.769    0.000    0.000    0.000    0.000    0.000 
#    0.000    0.000    0.000    0.000    0.000    0.000 
#
# Total GULP energy -144888.068870 kJ/mol
# GULP energy per Si atom -5572.618033 kJ/mol
# Density = 2.311097 g / cm^3
# Si number density = 23.163695 Si / 1000 Ang^3
#
#
#
# Elastic Constant Matrix: (Units=GPa)
#
#
# Indices 1 2 3 4 5 6 
#
# 1 110.4199 10.4032 15.6726 0.0000 0.0000 0.0000
# 2 10.4032 95.8360 68.4449 0.0000 0.0000 0.0000
# 3 15.6726 68.4449 151.6791 0.0000 0.0000 0.0000
# 4 0.0000 0.0000 0.0000 38.3661 0.0000 0.0000
# 5 0.0000 0.0000 0.0000 0.0000 20.6888 0.0000
# 6 0.0000 0.0000 0.0000 0.0000 0.0000 10.0240
#
#
#
# Elastic Compliance Matrix: (Units=1/GPa)
#
#
# Indices 1 2 3 4 5 6 
#
# 1 0.009206 -0.000472 -0.000738 0.000000 0.000000 0.000000
# 2 -0.000472 0.015421 -0.006910 0.000000 0.000000 0.000000
# 3 -0.000738 -0.006910 0.009787 0.000000 0.000000 0.000000
# 4 0.000000 0.000000 0.000000 0.026065 0.000000 0.000000
# 5 0.000000 0.000000 0.000000 0.000000 0.048335 0.000000
# 6 0.000000 0.000000 0.000000 0.000000 0.000000 0.099760
#
#
# Mechanical properties :
#
#
# Convention : Reuss Voigt Hill
#
# Bulk Modulus (GPa) = 55.02566 60.77515 57.90041
# Shear Modulus (GPa) = 21.65708 31.37674 26.51691
#
# Velocity S-wave (km/s) = 3.06103 3.68443 3.38710
# Velocity P-wave (km/s) = 6.02494 6.66290 6.35193
#
# Compressibility (1/GPa) = 0.01817334
#
# Stress axis : x y z
#
# Youngs Moduli (GPa) = 108.62965 64.84843 102.17492
#
# Poissons Ratio (x) = 0.03062 0.07542
# Poissons Ratio (y) = 0.05128 0.70600
# Poissons Ratio (z) = 0.08019 0.44808
#
# Static dielectric constant tensor:
#      x y z
#    x 1.855810 0.000000 0.000000 
#    y 0.000000 1.960010 0.000000 
#    z 0.000000 0.000000 1.740670 
# 
# From -- ./inp_files/39472.got.cif
#   From: 2010.05.17/outbox.cif.g08.bks.cpg/sg63_20_cif.got.tgz:39472.got - 2010.06.03 15:47:04.
