data_PCOD9474690
_publ_section_title
;
Structure prediction by ZEFSAII (Michael W. Deem and Ramdas Pophale) SiO2 
 PCOD9474690
Probable space group: C M C M
;
_chemical_formula_sum "Si O2"
_cell_formula_units_Z 72
_cell_length_a 17.650441
_cell_length_b 27.448073
_cell_length_c 7.718015
_cell_angle_alpha 90.000000
_cell_angle_beta 90.000000
_cell_angle_gamma 90.000000
_cell_volume 3739.151304
_symmetry_space_group_name_H-M "C M C M"
_symmetry_group_IT_number 63
_symmetry_cell_setting 'orthorhombic'
loop_
_space_group_symop_operation_xyz
x,y,z
-x,-y,1/2+z
x,-y,-z
-x,y,1/2-z
-x,-y,-z
x,y,1/2-z
-x,y,z
x,-y,1/2+z
1/2+x,1/2+y,z
1/2-x,1/2-y,1/2+z
1/2+x,1/2-y,-z
1/2-x,1/2+y,1/2-z
1/2-x,1/2-y,-z
1/2+x,1/2+y,1/2-z
1/2-x,1/2+y,z
1/2+x,1/2-y,1/2+z
loop_
_atom_site_type_symbol
_atom_site_label
_atom_site_fract_x
_atom_site_fract_y
_atom_site_fract_z
Si Si1 0.907022 0.303970 0.750000
Si Si2 0.136227 0.375683 0.450397
Si Si3 0.408614 0.691540 0.750000
Si Si4 0.088729 0.883519 0.545478
Si Si5 0.000000 0.443759 0.043642
Si Si6 0.730115 0.444065 0.545566
O O1 0.873585 0.330958 0.580988
O O2 0.883932 0.247357 0.750000
O O3 0.000000 0.307733 0.750000
O O4 0.120788 0.362007 0.250000
O O5 0.214877 0.404759 0.458477
O O6 0.074049 0.415024 0.515013
O O7 0.500000 0.693371 0.750000
O O8 0.387416 0.660799 0.579333
O O9 0.096795 0.871492 0.750000
O O10 0.143843 0.928638 0.506071
O O11 0.000000 0.894231 0.513602
O O12 0.000000 0.440898 0.250000
O O13 0.000000 0.500000 0.000000
O O14 0.746080 0.500000 0.500000
O O15 0.742086 0.438664 0.750000
#
# Coordination Sequence:
#
# PCOD9474690 Si02
#       6
#     8  16   8  16   8  16
#     4  11  22  40  65  88 119 155 204 259 298 350
#     4  11  23  39  57  85 123 160 200 248 295 353
#     4   9  20  38  65  92 112 156 201 246 310 352
#     4   9  20  40  63  89 123 154 197 247 296 365
#     4  10  22  34  54  82 110 156 200 235 291 345
#     4  11  23  38  61  90 123 163 198 242 304 357
#
# _framework density 19.255704999999999
#
# number of rings (size 3 to 8) (size 9 to 14) (size 15 to 20)
#    0.000    1.778    2.222    1.333    4.667    3.111 
#    0.000    3.333    0.000    0.000    0.000    0.000 
#    0.000    0.000    0.000    0.000    0.000    0.000 
#
# Total GULP energy -200903.909907 kJ/mol
# GULP energy per Si atom -5580.664164 kJ/mol
# Density = 1.921188 g / cm^3
# Si number density = 19.255705 Si / 1000 Ang^3
#
#
#
# Elastic Constant Matrix: (Units=GPa)
#
#
# Indices 1 2 3 4 5 6 
#
# 1 69.6667 13.7170 19.1388 0.0000 0.0000 0.0000
# 2 13.7170 56.9654 16.7421 0.0000 0.0000 0.0000
# 3 19.1388 16.7421 70.8623 0.0000 0.0000 0.0000
# 4 0.0000 0.0000 0.0000 28.4270 0.0000 0.0000
# 5 0.0000 0.0000 0.0000 0.0000 20.3553 0.0000
# 6 0.0000 0.0000 0.0000 0.0000 0.0000 9.4790
#
#
#
# Elastic Compliance Matrix: (Units=1/GPa)
#
#
# Indices 1 2 3 4 5 6 
#
# 1 0.015898 -0.002758 -0.003642 0.000000 0.000000 0.000000
# 2 -0.002758 0.019343 -0.003825 0.000000 0.000000 0.000000
# 3 -0.003642 -0.003825 0.015999 0.000000 0.000000 0.000000
# 4 0.000000 0.000000 0.000000 0.035178 0.000000 0.000000
# 5 0.000000 0.000000 0.000000 0.000000 0.049127 0.000000
# 6 0.000000 0.000000 0.000000 0.000000 0.000000 0.105496
#
#
# Mechanical properties :
#
#
# Convention : Reuss Voigt Hill
#
# Bulk Modulus (GPa) = 32.47840 32.96560 32.72200
# Shear Modulus (GPa) = 18.39900 21.51204 19.95552
#
# Velocity S-wave (km/s) = 3.09448 3.34605 3.22272
# Velocity P-wave (km/s) = 5.44714 5.66437 5.55682
#
# Compressibility (1/GPa) = 0.03078970
#
# Stress axis : x y z
#
# Youngs Moduli (GPa) = 62.90256 51.69895 62.50273
#
# Poissons Ratio (x) = 0.14257 0.22765
# Poissons Ratio (y) = 0.17346 0.23908
# Poissons Ratio (z) = 0.22910 0.19776
#
# Static dielectric constant tensor:
#      x y z
#    x 1.713760 0.000000 0.000000 
#    y 0.000000 1.646000 0.000000 
#    z 0.000000 0.000000 1.712770 
# 
# From -- ./inp_files/6195.got.cif
#   From: 2010.05.17/outbox.cif.g08.bks.cpg/sg63_4_cif.got.tgz:6195.got - 2010.06.03 15:47:04.
