data_PCOD9474407
_publ_section_title
;
Structure prediction by ZEFSAII (Michael W. Deem and Ramdas Pophale) SiO2 
 PCOD9474407
Probable space group: C M C M
;
_chemical_formula_sum "Si O2"
_cell_formula_units_Z 72
_cell_length_a 23.053278
_cell_length_b 19.383945
_cell_length_c 8.756740
_cell_angle_alpha 90.000000
_cell_angle_beta 90.000000
_cell_angle_gamma 90.000000
_cell_volume 3913.067247
_symmetry_space_group_name_H-M "C M C M"
_symmetry_group_IT_number 63
_symmetry_cell_setting 'orthorhombic'
loop_
_space_group_symop_operation_xyz
x,y,z
-x,-y,1/2+z
x,-y,-z
-x,y,1/2-z
-x,-y,-z
x,y,1/2-z
-x,y,z
x,-y,1/2+z
1/2+x,1/2+y,z
1/2-x,1/2-y,1/2+z
1/2+x,1/2-y,-z
1/2-x,1/2+y,1/2-z
1/2-x,1/2-y,-z
1/2+x,1/2+y,1/2-z
1/2-x,1/2+y,z
1/2+x,1/2-y,1/2+z
loop_
_atom_site_type_symbol
_atom_site_label
_atom_site_fract_x
_atom_site_fract_y
_atom_site_fract_z
Si Si1 0.263915 0.325367 0.432812
Si Si2 0.602200 0.320990 0.066594
Si Si3 0.932182 0.326993 0.067692
Si Si4 0.165812 0.423499 0.567812
Si Si5 0.500000 0.423748 0.066214
O O1 0.255807 0.324106 0.250000
O O2 0.250000 0.250000 0.500000
O O3 0.331385 0.340617 0.465575
O O4 0.220625 0.380385 0.505685
O O5 0.596879 0.310749 0.250000
O O6 0.556514 0.379565 0.020167
O O7 0.586662 0.249061 0.986731
O O8 0.924754 0.332227 0.250000
O O9 0.000000 0.336959 0.031090
O O10 0.891119 0.382302 0.986910
O O11 0.166050 0.500000 0.500000
O O12 0.167589 0.425902 0.750000
O O13 0.500000 0.428198 0.250000
O O14 0.500000 0.500000 0.000000
#
# Coordination Sequence:
#
# PCOD9474407 Si02
#       5
#    16  16  16  16   8
#     4  11  22  38  63  96 127 164 211 258 310 371
#     4  10  21  38  63  91 124 165 208 254 308 372
#     4  11  23  39  64  96 126 160 207 259 311 378
#     4  12  26  44  65  91 127 169 208 263 320 373
#     4  10  22  40  60  88 125 164 205 254 308 366
#
# _framework density 18.399887
#
# number of rings (size 3 to 8) (size 9 to 14) (size 15 to 20)
#    0.000    1.111    3.333    3.333    0.000    4.444 
#    0.000    2.222    0.000    0.000    0.000    0.000 
#    0.000    0.000    0.000    0.000    0.000    0.000 
#
# Total GULP energy -201328.097983 kJ/mol
# GULP energy per Si atom -5592.447166 kJ/mol
# Density = 1.835801 g / cm^3
# Si number density = 18.399887 Si / 1000 Ang^3
#
#
#
# Elastic Constant Matrix: (Units=GPa)
#
#
# Indices 1 2 3 4 5 6 
#
# 1 185.7467 106.4878 96.1408 0.0000 0.0000 0.0000
# 2 106.4878 190.3333 77.3879 0.0000 0.0000 0.0000
# 3 96.1408 77.3879 101.2092 0.0000 0.0000 0.0000
# 4 0.0000 0.0000 0.0000 40.0476 0.0000 0.0000
# 5 0.0000 0.0000 0.0000 0.0000 30.1866 0.0000
# 6 0.0000 0.0000 0.0000 0.0000 0.0000 31.5163
#
#
#
# Elastic Compliance Matrix: (Units=1/GPa)
#
#
# Indices 1 2 3 4 5 6 
#
# 1 0.011610 -0.002919 -0.008797 0.000000 0.000000 0.000000
# 2 -0.002919 0.008358 -0.003618 0.000000 0.000000 0.000000
# 3 -0.008797 -0.003618 0.021003 0.000000 0.000000 0.000000
# 4 0.000000 0.000000 0.000000 0.024970 0.000000 0.000000
# 5 0.000000 0.000000 0.000000 0.000000 0.033127 0.000000
# 6 0.000000 0.000000 0.000000 0.000000 0.000000 0.031730
#
#
# Mechanical properties :
#
#
# Convention : Reuss Voigt Hill
#
# Bulk Modulus (GPa) = 97.05105 115.25802 106.15454
# Shear Modulus (GPa) = 30.32106 33.50162 31.91134
#
# Velocity S-wave (km/s) = 4.06383 4.27166 4.16904
# Velocity P-wave (km/s) = 8.65330 9.33306 8.99960
#
# Compressibility (1/GPa) = 0.01030386
#
# Stress axis : x y z
#
# Youngs Moduli (GPa) = 86.12998 119.64367 47.61114
#
# Poissons Ratio (x) = 0.34924 0.41883
# Poissons Ratio (y) = 0.25141 0.17226
# Poissons Ratio (z) = 0.75768 0.43288
#
# Static dielectric constant tensor:
#      x y z
#    x 1.635130 0.000000 0.000000 
#    y 0.000000 1.579790 0.000000 
#    z 0.000000 0.000000 1.618860 
# 
# From -- ./inp_files/9855.got.cif
#   From: 2010.05.17/outbox.cif.g08.bks.cpg/sg63_5_cif.got.tgz:9855.got - 2010.06.03 15:47:04.
