data_PCOD9474357
_publ_section_title
;
Structure prediction by ZEFSAII (Michael W. Deem and Ramdas Pophale) SiO2 
 PCOD9474357
Probable space group: C M C M
;
_chemical_formula_sum "Si O2"
_cell_formula_units_Z 64
_cell_length_a 8.779842
_cell_length_b 22.949963
_cell_length_c 16.053335
_cell_angle_alpha 90.000000
_cell_angle_beta 90.000000
_cell_angle_gamma 90.000000
_cell_volume 3234.699630
_symmetry_space_group_name_H-M "C M C M"
_symmetry_group_IT_number 63
_symmetry_cell_setting 'orthorhombic'
loop_
_space_group_symop_operation_xyz
x,y,z
-x,-y,1/2+z
x,-y,-z
-x,y,1/2-z
-x,-y,-z
x,y,1/2-z
-x,y,z
x,-y,1/2+z
1/2+x,1/2+y,z
1/2-x,1/2-y,1/2+z
1/2+x,1/2-y,-z
1/2-x,1/2+y,1/2-z
1/2-x,1/2-y,-z
1/2+x,1/2+y,1/2-z
1/2-x,1/2+y,z
1/2+x,1/2-y,1/2+z
loop_
_atom_site_type_symbol
_atom_site_label
_atom_site_fract_x
_atom_site_fract_y
_atom_site_fract_z
Si Si1 0.824358 0.863954 0.250000
Si Si2 0.183157 0.040178 0.420372
Si Si3 0.326123 0.216834 0.619088
Si Si4 0.675506 0.831772 0.569267
Si Si5 0.680184 0.011421 0.750000
O O1 0.784484 0.824032 0.171408
O O2 0.717947 0.920171 0.250000
O O3 0.000000 0.882338 0.250000
O O4 0.248100 0.105173 0.430170
O O5 0.000000 0.041597 0.417182
O O6 0.227301 0.000000 0.500000
O O7 0.247204 0.014625 0.334074
O O8 0.500000 0.213064 0.649453
O O9 0.324967 0.193019 0.524833
O O10 0.267639 0.283139 0.620478
O O11 0.500000 0.835586 0.597609
O O12 0.500000 0.001060 0.750000
#
# Coordination Sequence:
#
# PCOD9474357 Si02
#       5
#     8  16  16  16   8
#     4  12  24  39  60  87 120 154 196 246 298 356
#     4  11  24  42  65  92 125 165 207 254 308 365
#     4  10  21  38  61  88 119 155 196 244 298 357
#     4  10  21  38  61  89 120 155 198 246 299 359
#     4  12  26  43  64  91 124 162 208 256 304 366
#
# _framework density 19.785453
#
# number of rings (size 3 to 8) (size 9 to 14) (size 15 to 20)
#    0.000    1.250    0.000    6.000    0.000   10.000 
#    0.000    5.000    0.000    0.000    0.000    0.000 
#    0.000    0.000    0.000    0.000    0.000    0.000 
#
# Total GULP energy -178931.136240 kJ/mol
# GULP energy per Si atom -5591.598007 kJ/mol
# Density = 1.974042 g / cm^3
# Si number density = 19.785453 Si / 1000 Ang^3
#
#
#
# Elastic Constant Matrix: (Units=GPa)
#
#
# Indices 1 2 3 4 5 6 
#
# 1 94.4092 30.7546 31.3368 0.0000 0.0000 0.0000
# 2 30.7546 162.4504 41.7799 0.0000 0.0000 0.0000
# 3 31.3368 41.7799 80.7429 0.0000 0.0000 0.0000
# 4 0.0000 0.0000 0.0000 19.1004 0.0000 0.0000
# 5 0.0000 0.0000 0.0000 0.0000 -12.5030 0.0000
# 6 0.0000 0.0000 0.0000 0.0000 0.0000 39.0781
#
#
#
# Elastic Compliance Matrix: (Units=1/GPa)
#
#
# Indices 1 2 3 4 5 6 
#
# 1 0.012384 -0.001279 -0.004145 0.000000 0.000000 0.000000
# 2 -0.001279 0.007233 -0.003246 0.000000 0.000000 0.000000
# 3 -0.004145 -0.003246 0.015673 0.000000 0.000000 0.000000
# 4 0.000000 0.000000 0.000000 0.052355 0.000000 0.000000
# 5 0.000000 0.000000 0.000000 0.000000 -0.079981 0.000000
# 6 0.000000 0.000000 0.000000 0.000000 0.000000 0.025590
#
#
# Mechanical properties :
#
#
# Convention : Reuss Voigt Hill
#
# Bulk Modulus (GPa) = 55.70700 60.59389 58.15044
# Shear Modulus (GPa) = 88.37365 24.71717 56.54541
#
# Velocity S-wave (km/s) = 6.69051 3.53832 5.35176
# Velocity P-wave (km/s) = 9.37553 6.88367 8.22452
#
# Compressibility (1/GPa) = 0.01795107
#
# Stress axis : x y z
#
# Youngs Moduli (GPa) = 80.74612 138.26142 63.80229
#
# Poissons Ratio (x) = 0.17678 0.26445
# Poissons Ratio (y) = 0.10324 0.20712
# Poissons Ratio (z) = 0.33468 0.44883
#
# Static dielectric constant tensor:
#      x y z
#    x 1.671130 0.000000 0.000000 
#    y 0.000000 1.655430 0.000000 
#    z 0.000000 0.000000 1.704240 
# 
# From -- ./inp_files/27608.got.cif
#   From: 2010.05.17/outbox.cif.g08.bks.cpg/sg63_14_cif.got.tgz:27608.got - 2010.06.03 15:47:04.
