data_PCOD9474958
_publ_section_title
;
Structure prediction by ZEFSAII (Michael W. Deem and Ramdas Pophale) SiO2 
 PCOD9474958
Probable space group: C M C M
;
_chemical_formula_sum "Si O2"
_cell_formula_units_Z 116
_cell_length_a 7.874738
_cell_length_b 23.538358
_cell_length_c 30.412170
_cell_angle_alpha 90.000000
_cell_angle_beta 90.000000
_cell_angle_gamma 90.000000
_cell_volume 5637.151239
_symmetry_space_group_name_H-M "C M C M"
_symmetry_group_IT_number 63
_symmetry_cell_setting 'orthorhombic'
loop_
_space_group_symop_operation_xyz
x,y,z
-x,-y,1/2+z
x,-y,-z
-x,y,1/2-z
-x,-y,-z
x,y,1/2-z
-x,y,z
x,-y,1/2+z
1/2+x,1/2+y,z
1/2-x,1/2-y,1/2+z
1/2+x,1/2-y,-z
1/2-x,1/2+y,1/2-z
1/2-x,1/2-y,-z
1/2+x,1/2+y,1/2-z
1/2-x,1/2+y,z
1/2+x,1/2-y,1/2+z
loop_
_atom_site_type_symbol
_atom_site_label
_atom_site_fract_x
_atom_site_fract_y
_atom_site_fract_z
Si Si1 0.805117 0.205724 0.537430
Si Si2 0.703182 0.722908 0.799955
Si Si3 0.196475 0.092421 0.411663
Si Si4 0.198117 0.784024 0.885499
Si Si5 0.000000 0.557625 0.750000
Si Si6 0.305913 0.086666 0.989589
Si Si7 0.697257 0.589776 0.683747
Si Si8 0.697654 0.968957 0.096886
O O1 0.750000 0.250000 0.500000
O O2 0.786021 0.237636 0.583570
O O3 0.698493 0.148628 0.532853
O O4 0.000000 0.189656 0.530332
O O5 0.763673 0.731363 0.750000
O O6 0.500000 0.731223 0.800839
O O7 0.783096 0.764490 0.835521
O O8 0.733877 0.657218 0.812667
O O9 0.266246 0.152775 0.394862
O O10 0.210514 0.091656 0.464476
O O11 0.000000 0.088841 0.398376
O O12 0.285388 0.035806 0.394443
O O13 0.000000 0.784381 0.898412
O O14 0.846780 0.560723 0.711999
O O15 0.500000 0.070679 0.000636
O O16 0.237007 0.044342 0.952388
O O17 0.500000 0.581452 0.698478
O O18 0.710583 0.567236 0.634100
O O19 0.500000 0.952494 0.096762
#
# Coordination Sequence:
#
# PCOD9474958 Si02
#       8
#    16  16  16  16   4  16  16  16
#     4  12  23  37  59  87 123 160 201 250 306 370
#     4  10  22  40  65  95 126 159 203 256 317 379
#     4  11  24  41  60  86 124 170 216 261 313 374
#     4  11  24  39  61  90 123 165 209 255 315 376
#     4  12  22  40  72  98 134 168 202 260 334 380
#     4  11  23  39  62  90 123 164 211 261 314 374
#     4  11  23  41  67 101 133 164 208 260 321 388
#     4  11  24  41  63  92 125 165 215 266 316 377
#
# _framework density 20.577770000000001
#
# number of rings (size 3 to 8) (size 9 to 14) (size 15 to 20)
#    0.000    0.966    2.759    4.345    0.966    8.000 
#    0.000    0.000    1.517    0.000    0.000    0.000 
#    0.000    0.000    0.000    0.000    0.000    0.000 
#
# Total GULP energy -323767.913462 kJ/mol
# GULP energy per Si atom -5582.205405 kJ/mol
# Density = 2.053093 g / cm^3
# Si number density = 20.577770 Si / 1000 Ang^3
#
#
#
# Elastic Constant Matrix: (Units=GPa)
#
#
# Indices 1 2 3 4 5 6 
#
# 1 75.7121 3.2173 9.9716 0.0000 0.0000 0.0000
# 2 3.2173 81.7226 32.9936 0.0000 0.0000 0.0000
# 3 9.9716 32.9936 110.7105 0.0000 0.0000 0.0000
# 4 0.0000 0.0000 0.0000 13.1475 0.0000 0.0000
# 5 0.0000 0.0000 0.0000 0.0000 30.9454 0.0000
# 6 0.0000 0.0000 0.0000 0.0000 0.0000 13.8294
#
#
#
# Elastic Compliance Matrix: (Units=1/GPa)
#
#
# Indices 1 2 3 4 5 6 
#
# 1 0.013367 -0.000046 -0.001190 0.000000 0.000000 0.000000
# 2 -0.000046 0.013910 -0.004141 0.000000 0.000000 0.000000
# 3 -0.001190 -0.004141 0.010374 0.000000 0.000000 0.000000
# 4 0.000000 0.000000 0.000000 0.076060 0.000000 0.000000
# 5 0.000000 0.000000 0.000000 0.000000 0.032315 0.000000
# 6 0.000000 0.000000 0.000000 0.000000 0.000000 0.072310
#
#
# Mechanical properties :
#
#
# Convention : Reuss Voigt Hill
#
# Bulk Modulus (GPa) = 37.17998 40.05667 38.61833
# Shear Modulus (GPa) = 21.00345 26.38196 23.69271
#
# Velocity S-wave (km/s) = 3.19828 3.58447 3.39687
# Velocity P-wave (km/s) = 5.63435 6.05306 5.84746
#
# Compressibility (1/GPa) = 0.02689619
#
# Stress axis : x y z
#
# Youngs Moduli (GPa) = 74.81312 71.88911 96.39497
#
# Poissons Ratio (x) = 0.00328 0.11474
# Poissons Ratio (y) = 0.00342 0.39921
# Poissons Ratio (z) = 0.08905 0.29772
#
# Static dielectric constant tensor:
#      x y z
#    x 1.742390 0.000000 0.000000 
#    y 0.000000 1.742340 0.000000 
#    z 0.000000 0.000000 1.742140 
# 
# From -- ./inp_files/67448.got.cif
#   From: 2010.05.17/outbox.cif.g08.bks.cpg/sg63_34_cif.got.tgz:67448.got - 2010.06.03 15:47:04.
