data_PCOD9474247
_publ_section_title
;
Structure prediction by ZEFSAII (Michael W. Deem and Ramdas Pophale) SiO2 
 PCOD9474247
Probable space group: C M C M
;
_chemical_formula_sum "Si O2"
_cell_formula_units_Z 116
_cell_length_a 25.324488
_cell_length_b 29.989537
_cell_length_c 8.094537
_cell_angle_alpha 90.000000
_cell_angle_beta 90.000000
_cell_angle_gamma 90.000000
_cell_volume 6147.555343
_symmetry_space_group_name_H-M "C M C M"
_symmetry_group_IT_number 63
_symmetry_cell_setting 'orthorhombic'
loop_
_space_group_symop_operation_xyz
x,y,z
-x,-y,1/2+z
x,-y,-z
-x,y,1/2-z
-x,-y,-z
x,y,1/2-z
-x,y,z
x,-y,1/2+z
1/2+x,1/2+y,z
1/2-x,1/2-y,1/2+z
1/2+x,1/2-y,-z
1/2-x,1/2+y,1/2-z
1/2-x,1/2-y,-z
1/2+x,1/2+y,1/2-z
1/2-x,1/2+y,z
1/2+x,1/2-y,1/2+z
loop_
_atom_site_type_symbol
_atom_site_label
_atom_site_fract_x
_atom_site_fract_y
_atom_site_fract_z
Si Si1 0.645520 0.550734 0.442070
Si Si2 0.899721 0.212146 0.553371
Si Si3 0.942356 0.880548 0.447829
Si Si4 0.500000 0.837169 0.250000
Si Si5 0.580743 0.814483 0.547479
Si Si6 0.737002 0.950984 0.441895
Si Si7 0.192320 0.636261 0.446467
Si Si8 0.779132 0.204894 0.051904
O O1 0.636786 0.500000 0.500000
O O2 0.635653 0.552405 0.250000
O O3 0.605422 0.585940 0.519092
O O4 0.707186 0.561062 0.473407
O O5 0.906078 0.211727 0.750000
O O6 0.930171 0.169101 0.484848
O O7 0.917996 0.261593 0.504721
O O8 0.838197 0.205400 0.514371
O O9 0.945313 0.876855 0.250000
O O10 0.000000 0.896078 0.508304
O O11 0.545120 0.835589 0.402306
O O12 0.567275 0.818924 0.750000
O O13 0.639149 0.835533 0.529763
O O14 0.749029 0.954043 0.250000
O O15 0.694825 0.912551 0.475764
O O16 0.720136 0.000000 0.500000
O O17 0.198435 0.630389 0.250000
O O18 0.242545 0.664452 0.509252
O O19 0.781136 0.202739 0.250000
O O20 0.750000 0.250000 0.000000
#
# Coordination Sequence:
#
# PCOD9474247 Si02
#       8
#    16  16  16   4  16  16  16  16
#     4  11  22  39  60  83 114 151 194 246 304 367
#     4  10  21  38  56  81 117 157 200 246 308 359
#     4  10  22  39  59  81 108 151 203 255 308 359
#     4  12  26  40  64  90 118 164 218 256 298 366
#     4  10  23  42  62  88 124 163 206 260 307 355
#     4  11  22  37  62  92 125 157 193 238 298 371
#     4  10  21  38  59  88 127 162 199 248 304 361
#     4  11  21  33  54  82 117 158 197 243 294 361
#
# _framework density 18.869288999999998
#
# number of rings (size 3 to 8) (size 9 to 14) (size 15 to 20)
#    0.000    1.517    1.379    4.759    2.897    4.414 
#    0.000    0.000    0.000    0.000    0.000    0.483 
#    0.000    0.000    0.000    0.000    0.000    0.000 
#
# Total GULP energy -323109.301042 kJ/mol
# GULP energy per Si atom -5570.850018 kJ/mol
# Density = 1.882634 g / cm^3
# Si number density = 18.869289 Si / 1000 Ang^3
#
#
#
# Elastic Constant Matrix: (Units=GPa)
#
#
# Indices 1 2 3 4 5 6 
#
# 1 17.4771 10.0350 -2.0733 0.0000 0.0000 0.0000
# 2 10.0350 87.0344 4.5403 0.0000 0.0000 0.0000
# 3 -2.0733 4.5403 29.6728 0.0000 0.0000 0.0000
# 4 0.0000 0.0000 0.0000 18.3245 0.0000 0.0000
# 5 0.0000 0.0000 0.0000 0.0000 43.2604 0.0000
# 6 0.0000 0.0000 0.0000 0.0000 0.0000 43.0874
#
#
#
# Elastic Compliance Matrix: (Units=1/GPa)
#
#
# Indices 1 2 3 4 5 6 
#
# 1 0.062146 -0.007451 0.005482 0.000000 0.000000 0.000000
# 2 -0.007451 0.012476 -0.002430 0.000000 0.000000 0.000000
# 3 0.005482 -0.002430 0.034456 0.000000 0.000000 0.000000
# 4 0.000000 0.000000 0.000000 0.054572 0.000000 0.000000
# 5 0.000000 0.000000 0.000000 0.000000 0.023116 0.000000
# 6 0.000000 0.000000 0.000000 0.000000 0.000000 0.023209
#
#
# Mechanical properties :
#
#
# Convention : Reuss Voigt Hill
#
# Bulk Modulus (GPa) = 9.97201 17.68759 13.82980
# Shear Modulus (GPa) = 19.82570 29.04663 24.43617
#
# Velocity S-wave (km/s) = 3.24495 3.92772 3.60255
# Velocity P-wave (km/s) = 4.39725 5.47389 4.96484
#
# Compressibility (1/GPa) = 0.10028066
#
# Stress axis : x y z
#
# Youngs Moduli (GPa) = 16.09103 80.15657 29.02278
#
# Poissons Ratio (x) = 0.59728 -0.15912
# Poissons Ratio (y) = 0.11990 0.07051
# Poissons Ratio (z) = -0.08822 0.19475
#
# Static dielectric constant tensor:
#      x y z
#    x 1.734300 0.000000 0.000000 
#    y 0.000000 1.565530 0.000000 
#    z 0.000000 0.000000 1.666830 
# 
# From -- ./inp_files/13199.got.cif
#   From: 2010.05.17/outbox.cif.g08.bks.cpg/sg63_7_cif.got.tgz:13199.got - 2010.06.03 15:47:04.
