data_PCOD9474325
_publ_section_title
;
Structure prediction by ZEFSAII (Michael W. Deem and Ramdas Pophale) SiO2 
 PCOD9474325
Probable space group: C M C M
;
_chemical_formula_sum "Si O2"
_cell_formula_units_Z 64
_cell_length_a 13.348640
_cell_length_b 20.132358
_cell_length_c 11.322554
_cell_angle_alpha 90.000000
_cell_angle_beta 90.000000
_cell_angle_gamma 90.000000
_cell_volume 3042.818625
_symmetry_space_group_name_H-M "C M C M"
_symmetry_group_IT_number 63
_symmetry_cell_setting 'orthorhombic'
loop_
_space_group_symop_operation_xyz
x,y,z
-x,-y,1/2+z
x,-y,-z
-x,y,1/2-z
-x,-y,-z
x,y,1/2-z
-x,y,z
x,-y,1/2+z
1/2+x,1/2+y,z
1/2-x,1/2-y,1/2+z
1/2+x,1/2-y,-z
1/2-x,1/2+y,1/2-z
1/2-x,1/2-y,-z
1/2+x,1/2+y,1/2-z
1/2-x,1/2+y,z
1/2+x,1/2-y,1/2+z
loop_
_atom_site_type_symbol
_atom_site_label
_atom_site_fract_x
_atom_site_fract_y
_atom_site_fract_z
Si Si1 0.668071 0.545389 0.380754
Si Si2 0.607983 0.929376 0.936289
Si Si3 0.611750 0.317736 0.985977
Si Si4 0.681510 0.179892 0.884313
O O1 0.654313 0.500000 0.500000
O O2 0.637954 0.518588 0.250000
O O3 0.785985 0.563623 0.372213
O O4 0.615542 0.615120 0.409552
O O5 0.500000 0.917820 0.877457
O O6 0.625354 0.870697 0.029830
O O7 0.600658 0.000000 0.000000
O O8 0.500000 0.309203 0.034909
O O9 0.700745 0.322636 0.081829
O O10 0.641100 0.253724 0.908400
O O11 0.666305 0.160231 0.750000
#
# Coordination Sequence:
#
# PCOD9474325 Si02
#       4
#    16  16  16  16
#     4  10  22  39  59  86 121 159 201 249 298 351
#     4   9  19  34  54  83 116 149 188 236 291 349
#     4  10  22  39  59  85 117 153 195 244 299 355
#     4  10  21  38  60  86 116 151 196 247 297 355
#
# _framework density 21.033128999999999
#
# number of rings (size 3 to 8) (size 9 to 14) (size 15 to 20)
#    0.000    2.250    0.000    1.500    0.000   14.000 
#    0.000    5.000    0.000    9.000    0.000    0.000 
#    0.000    0.000    0.000    0.000    0.000    0.000 
#
# Total GULP energy -178366.560174 kJ/mol
# GULP energy per Si atom -5573.955005 kJ/mol
# Density = 2.098526 g / cm^3
# Si number density = 21.033129 Si / 1000 Ang^3
#
#
#
# Elastic Constant Matrix: (Units=GPa)
#
#
# Indices 1 2 3 4 5 6 
#
# 1 123.2969 44.0641 -0.9843 0.0000 0.0000 0.0000
# 2 44.0641 96.6467 64.2378 0.0000 0.0000 0.0000
# 3 -0.9843 64.2378 136.7364 0.0000 0.0000 0.0000
# 4 0.0000 0.0000 0.0000 2.5190 0.0000 0.0000
# 5 0.0000 0.0000 0.0000 0.0000 -14.3185 0.0000
# 6 0.0000 0.0000 0.0000 0.0000 0.0000 31.6086
#
#
#
# Elastic Compliance Matrix: (Units=1/GPa)
#
#
# Indices 1 2 3 4 5 6 
#
# 1 0.010700 -0.007168 0.003444 0.000000 0.000000 0.000000
# 2 -0.007168 0.019846 -0.009375 0.000000 0.000000 0.000000
# 3 0.003444 -0.009375 0.011743 0.000000 0.000000 0.000000
# 4 0.000000 0.000000 0.000000 0.396988 0.000000 0.000000
# 5 0.000000 0.000000 0.000000 0.000000 -0.069840 0.000000
# 6 0.000000 0.000000 0.000000 0.000000 0.000000 0.031637
#
#
# Mechanical properties :
#
#
# Convention : Reuss Voigt Hill
#
# Bulk Modulus (GPa) = 62.14506 63.47947 62.81227
# Shear Modulus (GPa) = 11.55710 20.58598 16.07154
#
# Velocity S-wave (km/s) = 2.34662 3.13188 2.76725
# Velocity P-wave (km/s) = 6.07887 6.58213 6.33550
#
# Compressibility (1/GPa) = 0.01609138
#
# Stress axis : x y z
#
# Youngs Moduli (GPa) = 93.46189 50.38737 85.16040
#
# Poissons Ratio (x) = 0.36115 -0.29332
# Poissons Ratio (y) = 0.66989 0.79840
# Poissons Ratio (z) = -0.32191 0.47239
#
# Static dielectric constant tensor:
#      x y z
#    x 1.789430 0.000000 0.000000 
#    y 0.000000 1.721560 0.000000 
#    z 0.000000 0.000000 1.734140 
# 
# From -- ./inp_files/18933.got.cif
#   From: 2010.05.17/outbox.cif.g08.bks.cpg/sg63_10_cif.got.tgz:18933.got - 2010.06.03 15:47:04.
