data_PCOD9474561
_publ_section_title
;
Structure prediction by ZEFSAII (Michael W. Deem and Ramdas Pophale) SiO2 
 PCOD9474561
Probable space group: C M C M
;
_chemical_formula_sum "Si O2"
_cell_formula_units_Z 96
_cell_length_a 17.522173
_cell_length_b 15.569504
_cell_length_c 17.347765
_cell_angle_alpha 90.000000
_cell_angle_beta 90.000000
_cell_angle_gamma 90.000000
_cell_volume 4732.670531
_symmetry_space_group_name_H-M "C M C M"
_symmetry_group_IT_number 63
_symmetry_cell_setting 'orthorhombic'
loop_
_space_group_symop_operation_xyz
x,y,z
-x,-y,1/2+z
x,-y,-z
-x,y,1/2-z
-x,-y,-z
x,y,1/2-z
-x,y,z
x,-y,1/2+z
1/2+x,1/2+y,z
1/2-x,1/2-y,1/2+z
1/2+x,1/2-y,-z
1/2-x,1/2+y,1/2-z
1/2-x,1/2-y,-z
1/2+x,1/2+y,1/2-z
1/2-x,1/2+y,z
1/2+x,1/2-y,1/2+z
loop_
_atom_site_type_symbol
_atom_site_label
_atom_site_fract_x
_atom_site_fract_y
_atom_site_fract_z
Si Si1 0.912384 0.375880 0.842784
Si Si2 0.136298 0.437345 0.161409
Si Si3 0.588768 0.759891 0.409296
Si Si4 0.587692 0.584345 0.157651
Si Si5 0.813514 0.924505 0.160378
Si Si6 0.175548 0.755859 0.443493
O O1 0.900389 0.370375 0.750000
O O2 0.905715 0.476474 0.864635
O O3 0.847306 0.322924 0.887579
O O4 0.000000 0.346810 0.858345
O O5 0.112957 0.419161 0.250000
O O6 0.123068 0.351404 0.113322
O O7 0.226282 0.455532 0.160465
O O8 0.500000 0.765513 0.390253
O O9 0.621295 0.676845 0.365137
O O10 0.604915 0.740678 0.497791
O O11 0.587145 0.580471 0.250000
O O12 0.500000 0.579993 0.130099
O O13 0.634567 0.502206 0.130349
O O14 0.833976 0.904833 0.250000
O O15 0.819105 0.840236 0.108605
O O16 0.250000 0.750000 0.500000
#
# Coordination Sequence:
#
# PCOD9474561 Si02
#       6
#    16  16  16  16  16  16
#     4  10  23  44  69  95 125 167 219 269 317 376
#     4  10  21  39  66  95 124 163 210 265 318 372
#     4  11  23  40  62  93 130 166 205 254 315 382
#     4   9  20  39  64  92 123 164 212 262 311 367
#     4  10  22  41  65  91 121 163 216 263 312 373
#     4  12  25  42  60  92 131 170 205 257 318 384
#
# _framework density 20.284531000000001
#
# number of rings (size 3 to 8) (size 9 to 14) (size 15 to 20)
#    0.000    1.667    1.667    2.000    2.333    4.333 
#    0.000    5.000    0.000    0.000    0.000    0.000 
#    0.000    0.000    0.000    0.000    0.000    0.000 
#
# Total GULP energy -267869.816995 kJ/mol
# GULP energy per Si atom -5580.621187 kJ/mol
# Density = 2.023836 g / cm^3
# Si number density = 20.284531 Si / 1000 Ang^3
#
#
#
# Elastic Constant Matrix: (Units=GPa)
#
#
# Indices 1 2 3 4 5 6 
#
# 1 62.1031 57.2094 27.6881 0.0000 0.0000 0.0000
# 2 57.2094 133.3017 46.5197 0.0000 0.0000 0.0000
# 3 27.6881 46.5197 48.7457 0.0000 0.0000 0.0000
# 4 0.0000 0.0000 0.0000 -88.2207 0.0000 0.0000
# 5 0.0000 0.0000 0.0000 0.0000 24.3641 0.0000
# 6 0.0000 0.0000 0.0000 0.0000 0.0000 27.2373
#
#
#
# Elastic Compliance Matrix: (Units=1/GPa)
#
#
# Indices 1 2 3 4 5 6 
#
# 1 0.027999 -0.009695 -0.006651 0.000000 0.000000 0.000000
# 2 -0.009695 0.014605 -0.008431 0.000000 0.000000 0.000000
# 3 -0.006651 -0.008431 0.032339 0.000000 0.000000 0.000000
# 4 0.000000 0.000000 0.000000 -0.011335 0.000000 0.000000
# 5 0.000000 0.000000 0.000000 0.000000 0.041044 0.000000
# 6 0.000000 0.000000 0.000000 0.000000 0.000000 0.036714
#
#
# Mechanical properties :
#
#
# Convention : Reuss Voigt Hill
#
# Bulk Modulus (GPa) = 39.38938 56.33165 47.86051
# Shear Modulus (GPa) = 25.07739 0.19170 12.63455
#
# Velocity S-wave (km/s) = 3.51989 0.30775 2.49844
# Velocity P-wave (km/s) = 5.99834 5.28747 5.65409
#
# Compressibility (1/GPa) = 0.02538756
#
# Stress axis : x y z
#
# Youngs Moduli (GPa) = 35.71574 68.46998 30.92284
#
# Poissons Ratio (x) = 0.66383 0.20567
# Poissons Ratio (y) = 0.34627 0.26071
# Poissons Ratio (z) = 0.23755 0.57727
#
# Static dielectric constant tensor:
#      x y z
#    x 1.746410 0.000000 0.000000 
#    y 0.000000 1.706070 0.000000 
#    z 0.000000 0.000000 1.699380 
# 
# From -- ./inp_files/35376.got.cif
#   From: 2010.05.17/outbox.cif.g08.bks.cpg/sg63_18_cif.got.tgz:35376.got - 2010.06.03 15:47:04.
