data_PCOD9474292
_publ_section_title
;
Structure prediction by ZEFSAII (Michael W. Deem and Ramdas Pophale) SiO2 
 PCOD9474292
Probable space group: C M C M
;
_chemical_formula_sum "Si O2"
_cell_formula_units_Z 96
_cell_length_a 12.943156
_cell_length_b 13.519263
_cell_length_c 28.452960
_cell_angle_alpha 90.000000
_cell_angle_beta 90.000000
_cell_angle_gamma 90.000000
_cell_volume 4978.753855
_symmetry_space_group_name_H-M "C M C M"
_symmetry_group_IT_number 63
_symmetry_cell_setting 'orthorhombic'
loop_
_space_group_symop_operation_xyz
x,y,z
-x,-y,1/2+z
x,-y,-z
-x,y,1/2-z
-x,-y,-z
x,y,1/2-z
-x,y,z
x,-y,1/2+z
1/2+x,1/2+y,z
1/2-x,1/2-y,1/2+z
1/2+x,1/2-y,-z
1/2-x,1/2+y,1/2-z
1/2-x,1/2-y,-z
1/2+x,1/2+y,1/2-z
1/2-x,1/2+y,z
1/2+x,1/2-y,1/2+z
loop_
_atom_site_type_symbol
_atom_site_label
_atom_site_fract_x
_atom_site_fract_y
_atom_site_fract_z
Si Si1 0.118015 0.418742 0.093965
Si Si2 0.716989 0.396756 0.012681
Si Si3 0.682995 0.113436 0.352944
Si Si4 0.122920 0.569009 0.250000
Si Si5 0.882150 0.294400 0.946304
Si Si6 0.118679 0.775541 0.843911
Si Si7 0.625471 0.841676 0.250000
O O1 0.197539 0.420405 0.051918
O O2 0.148608 0.504488 0.130510
O O3 0.122751 0.310689 0.117215
O O4 0.000000 0.436976 0.079058
O O5 0.640783 0.314793 0.033753
O O6 0.664359 0.500000 0.000000
O O7 0.787676 0.355384 0.969971
O O8 0.654050 0.121657 0.298351
O O9 0.630517 0.188361 0.390362
O O10 0.804428 0.136477 0.356083
O O11 0.164009 0.454955 0.250000
O O12 0.000000 0.562054 0.250000
O O13 0.000000 0.323581 0.959223
O O14 0.153378 0.719983 0.796230
O O15 0.000000 0.807407 0.838611
O O16 0.500000 0.847594 0.250000
#
# Coordination Sequence:
#
# PCOD9474292 Si02
#       7
#    16  16  16   8  16  16   8
#     4  11  21  37  61  88 119 153 197 248 296 349
#     4  11  23  40  61  87 119 158 201 245 299 363
#     4  12  22  37  62  93 120 153 201 251 295 350
#     4  11  21  34  59  94 122 152 197 249 298 348
#     4  11  24  40  60  89 123 158 200 250 300 355
#     4  10  21  38  59  84 118 157 196 240 293 353
#     4   9  17  34  58  84 112 152 198 239 289 344
#
# _framework density 19.281932999999999
#
# number of rings (size 3 to 8) (size 9 to 14) (size 15 to 20)
#    0.000    1.167    5.000    2.500    0.000    1.000 
#    0.000    0.833    0.000    0.000    0.000    0.000 
#    0.000    0.000    0.000    0.000    0.000    0.000 
#
# Total GULP energy -267865.678214 kJ/mol
# GULP energy per Si atom -5580.534963 kJ/mol
# Density = 1.923805 g / cm^3
# Si number density = 19.281933 Si / 1000 Ang^3
#
#
#
# Elastic Constant Matrix: (Units=GPa)
#
#
# Indices 1 2 3 4 5 6 
#
# 1 66.0307 7.0267 0.1959 0.0000 0.0000 0.0000
# 2 7.0267 36.5897 -3.6264 0.0000 0.0000 0.0000
# 3 0.1959 -3.6264 88.4165 0.0000 0.0000 0.0000
# 4 0.0000 0.0000 0.0000 11.2460 0.0000 0.0000
# 5 0.0000 0.0000 0.0000 0.0000 12.5689 0.0000
# 6 0.0000 0.0000 0.0000 0.0000 0.0000 23.0325
#
#
#
# Elastic Compliance Matrix: (Units=1/GPa)
#
#
# Indices 1 2 3 4 5 6 
#
# 1 0.015463 -0.002985 -0.000157 0.000000 0.000000 0.000000
# 2 -0.002985 0.028018 0.001156 0.000000 0.000000 0.000000
# 3 -0.000157 0.001156 0.011358 0.000000 0.000000 0.000000
# 4 0.000000 0.000000 0.000000 0.088920 0.000000 0.000000
# 5 0.000000 0.000000 0.000000 0.000000 0.079561 0.000000
# 6 0.000000 0.000000 0.000000 0.000000 0.000000 0.043417
#
#
# Mechanical properties :
#
#
# Convention : Reuss Voigt Hill
#
# Bulk Modulus (GPa) = 19.65928 22.02546 20.84237
# Shear Modulus (GPa) = 17.38138 21.86554 19.62346
#
# Velocity S-wave (km/s) = 3.00565 3.37113 3.19362
# Velocity P-wave (km/s) = 4.71837 5.15755 4.94284
#
# Compressibility (1/GPa) = 0.05086657
#
# Stress axis : x y z
#
# Youngs Moduli (GPa) = 64.67224 35.69146 88.04476
#
# Poissons Ratio (x) = 0.10654 0.01380
# Poissons Ratio (y) = 0.19305 -0.10176
# Poissons Ratio (z) = 0.01013 -0.04125
#
# Static dielectric constant tensor:
#      x y z
#    x 1.650000 0.000000 0.000000 
#    y 0.000000 1.699580 0.000000 
#    z 0.000000 0.000000 1.721820 
# 
# From -- ./inp_files/72780.got.cif
#   From: 2010.05.17/outbox.cif.g08.bks.cpg/sg63_37_cif.got.tgz:72780.got - 2010.06.03 15:47:04.
