data_PCOD9474483
_publ_section_title
;
Structure prediction by ZEFSAII (Michael W. Deem and Ramdas Pophale) SiO2 
 PCOD9474483
Probable space group: C M C M
;
_chemical_formula_sum "Si O2"
_cell_formula_units_Z 104
_cell_length_a 26.177632
_cell_length_b 20.396253
_cell_length_c 9.452290
_cell_angle_alpha 90.000000
_cell_angle_beta 90.000000
_cell_angle_gamma 90.000000
_cell_volume 5046.819659
_symmetry_space_group_name_H-M "C M C M"
_symmetry_group_IT_number 63
_symmetry_cell_setting 'orthorhombic'
loop_
_space_group_symop_operation_xyz
x,y,z
-x,-y,1/2+z
x,-y,-z
-x,y,1/2-z
-x,-y,-z
x,y,1/2-z
-x,y,z
x,-y,1/2+z
1/2+x,1/2+y,z
1/2-x,1/2-y,1/2+z
1/2+x,1/2-y,-z
1/2-x,1/2+y,1/2-z
1/2-x,1/2-y,-z
1/2+x,1/2+y,1/2-z
1/2-x,1/2+y,z
1/2+x,1/2-y,1/2+z
loop_
_atom_site_type_symbol
_atom_site_label
_atom_site_fract_x
_atom_site_fract_y
_atom_site_fract_z
Si Si1 0.212351 0.437359 0.589757
Si Si2 0.439893 0.320507 0.084132
Si Si3 0.846619 0.095822 0.535895
Si Si4 0.325302 0.474820 0.750000
Si Si5 0.089666 0.563423 0.410791
Si Si6 0.938387 0.308226 0.411735
Si Si7 0.244694 0.816653 0.413742
O O1 0.228780 0.500000 0.500000
O O2 0.235773 0.443895 0.750000
O O3 0.151277 0.440576 0.601185
O O4 0.226180 0.372886 0.503138
O O5 0.434679 0.303126 0.250000
O O6 0.500000 0.332514 0.057059
O O7 0.405412 0.383478 0.052703
O O8 0.422755 0.259078 0.988192
O O9 0.832438 0.080017 0.376077
O O10 0.813392 0.158141 0.585723
O O11 0.831439 0.034448 0.630915
O O12 0.072225 0.500000 0.500000
O O13 0.069274 0.563913 0.250000
O O14 0.077305 0.629148 0.495938
O O15 0.919345 0.312892 0.250000
O O16 0.000000 0.307838 0.407495
O O17 0.262158 0.812089 0.250000
O O18 0.250000 0.750000 0.500000
#
# Coordination Sequence:
#
# PCOD9474483 Si02
#       7
#    16  16  16   8  16  16  16
#     4  10  23  41  64  91 124 164 209 256 313 378
#     4  10  21  41  66  93 128 170 210 256 319 382
#     4  11  24  45  68  98 132 167 214 264 316 381
#     4  10  24  44  71  98 128 172 212 258 325 380
#     4  10  21  39  61  88 123 161 205 260 314 371
#     4  10  22  38  60  89 121 163 211 258 314 380
#     4  12  27  43  64  94 130 168 216 265 317 372
#
# _framework density 20.607037999999999
#
# number of rings (size 3 to 8) (size 9 to 14) (size 15 to 20)
#    0.000    1.538    1.538    1.846    7.538    3.077 
#    0.000    2.308    0.000    0.000    0.000    0.000 
#    0.000    0.000    0.000    0.000    0.000    0.000 
#
# Total GULP energy -289682.287711 kJ/mol
# GULP energy per Si atom -5570.813225 kJ/mol
# Density = 2.056014 g / cm^3
# Si number density = 20.607038 Si / 1000 Ang^3
#
#
#
# Elastic Constant Matrix: (Units=GPa)
#
#
# Indices 1 2 3 4 5 6 
#
# 1 12.9584 -15.6158 -1.2716 0.0000 0.0000 0.0000
# 2 -15.6158 70.3771 31.8767 0.0000 0.0000 0.0000
# 3 -1.2716 31.8767 200.6662 0.0000 0.0000 0.0000
# 4 0.0000 0.0000 0.0000 45.4256 0.0000 0.0000
# 5 0.0000 0.0000 0.0000 0.0000 25.1947 0.0000
# 6 0.0000 0.0000 0.0000 0.0000 0.0000 148.6206
#
#
#
# Elastic Compliance Matrix: (Units=1/GPa)
#
#
# Indices 1 2 3 4 5 6 
#
# 1 0.107380 0.025341 -0.003345 0.000000 0.000000 0.000000
# 2 0.025341 0.021291 -0.003222 0.000000 0.000000 0.000000
# 3 -0.003345 -0.003222 0.005474 0.000000 0.000000 0.000000
# 4 0.000000 0.000000 0.000000 0.022014 0.000000 0.000000
# 5 0.000000 0.000000 0.000000 0.000000 0.039691 0.000000
# 6 0.000000 0.000000 0.000000 0.000000 0.000000 0.006729
#
#
# Mechanical properties :
#
#
# Convention : Reuss Voigt Hill
#
# Bulk Modulus (GPa) = 5.82429 34.88672 20.35551
# Shear Modulus (GPa) = 22.49607 61.78233 42.13920
#
# Velocity S-wave (km/s) = 3.30763 5.48145 4.52696
# Velocity P-wave (km/s) = 4.17369 7.55169 6.10113
#
# Compressibility (1/GPa) = 0.17169465
#
# Stress axis : x y z
#
# Youngs Moduli (GPa) = 9.31272 46.96745 182.68261
#
# Poissons Ratio (x) = -1.19022 0.61111
# Poissons Ratio (y) = -0.23600 0.58854
# Poissons Ratio (z) = 0.03115 0.15131
#
# Static dielectric constant tensor:
#      x y z
#    x 2.089430 0.000000 0.000000 
#    y 0.000000 1.674130 0.000000 
#    z 0.000000 0.000000 2.255940 
# 
# From -- ./inp_files/12511.got.cif
#   From: 2010.05.17/outbox.cif.g08.bks.cpg/sg63_7_cif.got.tgz:12511.got - 2010.06.03 15:47:04.
