data_PCOD9474211
_publ_section_title
;
Structure prediction by ZEFSAII (Michael W. Deem and Ramdas Pophale) SiO2 
 PCOD9474211
Probable space group: C M C M
;
_chemical_formula_sum "Si O2"
_cell_formula_units_Z 80
_cell_length_a 20.990835
_cell_length_b 8.061007
_cell_length_c 21.762677
_cell_angle_alpha 90.000000
_cell_angle_beta 90.000000
_cell_angle_gamma 90.000000
_cell_volume 3682.403117
_symmetry_space_group_name_H-M "C M C M"
_symmetry_group_IT_number 63
_symmetry_cell_setting 'orthorhombic'
loop_
_space_group_symop_operation_xyz
x,y,z
-x,-y,1/2+z
x,-y,-z
-x,y,1/2-z
-x,-y,-z
x,y,1/2-z
-x,y,z
x,-y,1/2+z
1/2+x,1/2+y,z
1/2-x,1/2-y,1/2+z
1/2+x,1/2-y,-z
1/2-x,1/2+y,1/2-z
1/2-x,1/2-y,-z
1/2+x,1/2+y,1/2-z
1/2-x,1/2+y,z
1/2+x,1/2-y,1/2+z
loop_
_atom_site_type_symbol
_atom_site_label
_atom_site_fract_x
_atom_site_fract_y
_atom_site_fract_z
Si Si1 0.143455 0.206205 0.750000
Si Si2 0.804297 0.254946 0.376247
Si Si3 0.241238 0.899200 0.750000
Si Si4 0.427232 0.187922 0.134316
Si Si5 0.191945 0.407075 0.936028
Si Si6 0.571433 0.801603 0.177642
O O1 0.181954 0.382534 0.750000
O O2 0.099509 0.201888 0.690108
O O3 0.196866 0.062249 0.750000
O O4 0.776255 0.197795 0.311920
O O5 0.800794 0.451067 0.384425
O O6 0.759097 0.186520 0.429853
O O7 0.878745 0.216138 0.368623
O O8 0.500000 0.229395 0.116198
O O9 0.371826 0.192279 0.082462
O O10 0.429833 0.997569 0.160079
O O11 0.182926 0.500000 0.000000
O O12 0.588944 0.782811 0.250000
O O13 0.500000 0.737378 0.170322
#
# Coordination Sequence:
#
# PCOD9474211 Si02
#       6
#     8  16   8  16  16  16
#     4  12  23  36  59  93 128 150 199 248 325 377
#     4  11  22  39  62  88 124 154 206 256 315 371
#     4  12  24  36  61  97 123 158 193 254 320 375
#     4  10  21  37  61  88 121 159 201 254 307 369
#     4  11  24  40  63  90 121 167 216 262 306 363
#     4   9  17  32  57  87 117 153 194 241 306 375
#
# _framework density 21.724944000000001
#
# number of rings (size 3 to 8) (size 9 to 14) (size 15 to 20)
#    0.000    1.400    4.000    2.100    2.800    0.400 
#    0.000    2.000    0.000    0.600    0.000    0.000 
#    0.000    0.000    0.000    0.000    0.000    0.000 
#
# Total GULP energy -223114.630667 kJ/mol
# GULP energy per Si atom -5577.865767 kJ/mol
# Density = 2.167550 g / cm^3
# Si number density = 21.724944 Si / 1000 Ang^3
#
#
#
# Elastic Constant Matrix: (Units=GPa)
#
#
# Indices 1 2 3 4 5 6 
#
# 1 164.3706 26.1414 20.5549 0.0000 0.0000 0.0000
# 2 26.1414 27.0453 13.9993 0.0000 0.0000 0.0000
# 3 20.5549 13.9993 56.3484 0.0000 0.0000 0.0000
# 4 0.0000 0.0000 0.0000 19.5374 0.0000 0.0000
# 5 0.0000 0.0000 0.0000 0.0000 9.9266 0.0000
# 6 0.0000 0.0000 0.0000 0.0000 0.0000 19.3956
#
#
#
# Elastic Compliance Matrix: (Units=1/GPa)
#
#
# Indices 1 2 3 4 5 6 
#
# 1 0.007241 -0.006463 -0.001036 0.000000 0.000000 0.000000
# 2 -0.006463 0.048200 -0.009617 0.000000 0.000000 0.000000
# 3 -0.001036 -0.009617 0.020514 0.000000 0.000000 0.000000
# 4 0.000000 0.000000 0.000000 0.051184 0.000000 0.000000
# 5 0.000000 0.000000 0.000000 0.000000 0.100739 0.000000
# 6 0.000000 0.000000 0.000000 0.000000 0.000000 0.051558
#
#
# Mechanical properties :
#
#
# Convention : Reuss Voigt Hill
#
# Bulk Modulus (GPa) = 23.96757 41.01730 32.49243
# Shear Modulus (GPa) = 15.26361 22.24317 18.75339
#
# Velocity S-wave (km/s) = 2.65351 3.20324 2.94125
# Velocity P-wave (km/s) = 4.52154 5.70984 5.15008
#
# Compressibility (1/GPa) = 0.04172304
#
# Stress axis : x y z
#
# Youngs Moduli (GPa) = 138.09814 20.74675 48.74744
#
# Poissons Ratio (x) = 0.13409 0.05049
# Poissons Ratio (y) = 0.89254 0.46882
# Poissons Ratio (z) = 0.14304 0.19953
#
# Static dielectric constant tensor:
#      x y z
#    x 1.866360 0.000000 0.000000 
#    y 0.000000 1.874910 0.000000 
#    z 0.000000 0.000000 1.774380 
# 
# From -- ./inp_files/64288.got.cif
#   From: 2010.05.17/outbox.cif.g08.bks.cpg/sg63_33_cif.got.tgz:64288.got - 2010.06.03 15:47:04.
