data_PCOD9474720
_publ_section_title
;
Structure prediction by ZEFSAII (Michael W. Deem and Ramdas Pophale) SiO2 
 PCOD9474720
Probable space group: C M C M
;
_chemical_formula_sum "Si O2"
_cell_formula_units_Z 96
_cell_length_a 19.307299
_cell_length_b 10.776151
_cell_length_c 21.514521
_cell_angle_alpha 90.000000
_cell_angle_beta 90.000000
_cell_angle_gamma 90.000000
_cell_volume 4476.276158
_symmetry_space_group_name_H-M "C M C M"
_symmetry_group_IT_number 63
_symmetry_cell_setting 'orthorhombic'
loop_
_space_group_symop_operation_xyz
x,y,z
-x,-y,1/2+z
x,-y,-z
-x,y,1/2-z
-x,-y,-z
x,y,1/2-z
-x,y,z
x,-y,1/2+z
1/2+x,1/2+y,z
1/2-x,1/2-y,1/2+z
1/2+x,1/2-y,-z
1/2-x,1/2+y,1/2-z
1/2-x,1/2-y,-z
1/2+x,1/2+y,1/2-z
1/2-x,1/2+y,z
1/2+x,1/2-y,1/2+z
loop_
_atom_site_type_symbol
_atom_site_label
_atom_site_fract_x
_atom_site_fract_y
_atom_site_fract_z
Si Si1 0.340256 0.300062 0.369675
Si Si2 0.583066 0.731072 0.750000
Si Si3 0.921026 0.248623 0.350747
Si Si4 0.877224 0.054313 0.062297
Si Si5 0.083599 0.946275 0.750000
Si Si6 0.783807 0.411051 0.942930
Si Si7 0.703501 0.923772 0.322220
O O1 0.386436 0.230367 0.317122
O O2 0.371907 0.432593 0.392280
O O3 0.323926 0.217059 0.430646
O O4 0.266472 0.329536 0.337161
O O5 0.500000 0.743239 0.750000
O O6 0.606579 0.586082 0.750000
O O7 0.869269 0.358546 0.337140
O O8 0.000000 0.280699 0.335401
O O9 0.916510 0.177004 0.415401
O O10 0.894562 0.136295 0.307373
O O11 0.798723 0.100739 0.048748
O O12 0.908660 0.000000 0.000000
O O13 0.000000 0.952051 0.750000
O O14 0.789190 0.473984 0.875195
O O15 0.807910 0.500000 0.000000
O O16 0.706915 0.962560 0.250000
#
# Coordination Sequence:
#
# PCOD9474720 Si02
#       7
#    16   8  16  16   8  16  16
#     4  11  22  39  64  91 123 161 206 258 312 368
#     4  11  22  37  59  93 126 158 196 254 325 375
#     4  11  21  37  59  89 127 161 197 253 317 375
#     4  10  22  36  61  94 122 159 209 260 311 370
#     4   9  18  33  55  83 119 150 186 240 314 375
#     4  10  24  41  63  89 125 170 213 259 307 367
#     4  11  23  37  62  96 123 159 214 261 307 368
#
# _framework density 21.446399
#
# number of rings (size 3 to 8) (size 9 to 14) (size 15 to 20)
#    0.000    1.500    5.000    0.000    3.500    2.333 
#    0.000    0.833    0.000    1.000    0.000    0.000 
#    0.000    0.000    0.000    0.000    0.000    0.000 
#
# Total GULP energy -267675.092085 kJ/mol
# GULP energy per Si atom -5576.564418 kJ/mol
# Density = 2.139759 g / cm^3
# Si number density = 21.446399 Si / 1000 Ang^3
#
#
#
# Elastic Constant Matrix: (Units=GPa)
#
#
# Indices 1 2 3 4 5 6 
#
# 1 75.6780 13.4666 21.2226 0.0000 0.0000 0.0000
# 2 13.4666 34.9873 18.1249 0.0000 0.0000 0.0000
# 3 21.2226 18.1249 113.5537 0.0000 0.0000 0.0000
# 4 0.0000 0.0000 0.0000 60.9441 0.0000 0.0000
# 5 0.0000 0.0000 0.0000 0.0000 20.9642 0.0000
# 6 0.0000 0.0000 0.0000 0.0000 0.0000 19.5960
#
#
#
# Elastic Compliance Matrix: (Units=1/GPa)
#
#
# Indices 1 2 3 4 5 6 
#
# 1 0.014589 -0.004582 -0.001995 0.000000 0.000000 0.000000
# 2 -0.004582 0.032597 -0.004347 0.000000 0.000000 0.000000
# 3 -0.001995 -0.004347 0.009873 0.000000 0.000000 0.000000
# 4 0.000000 0.000000 0.000000 0.016408 0.000000 0.000000
# 5 0.000000 0.000000 0.000000 0.000000 0.047700 0.000000
# 6 0.000000 0.000000 0.000000 0.000000 0.000000 0.051031
#
#
# Mechanical properties :
#
#
# Convention : Reuss Voigt Hill
#
# Bulk Modulus (GPa) = 28.39962 36.64971 32.52466
# Shear Modulus (GPa) = 24.29745 31.72783 28.01264
#
# Velocity S-wave (km/s) = 3.36957 3.85047 3.61802
# Velocity P-wave (km/s) = 5.33006 6.07406 5.71418
#
# Compressibility (1/GPa) = 0.03521174
#
# Stress axis : x y z
#
# Youngs Moduli (GPa) = 68.54626 30.67765 101.28512
#
# Poissons Ratio (x) = 0.14055 0.20209
# Poissons Ratio (y) = 0.31405 0.44026
# Poissons Ratio (z) = 0.13677 0.13335
#
# Static dielectric constant tensor:
#      x y z
#    x 1.772450 0.000000 0.000000 
#    y 0.000000 1.857310 0.000000 
#    z 0.000000 0.000000 1.935420 
# 
# From -- ./inp_files/56610.got.cif
#   From: 2010.05.17/outbox.cif.g08.bks.cpg/sg63_29_cif.got.tgz:56610.got - 2010.06.03 15:47:04.
