data_PCOD9474950
_publ_section_title
;
Structure prediction by ZEFSAII (Michael W. Deem and Ramdas Pophale) SiO2 
 PCOD9474950
Probable space group: C M C M
;
_chemical_formula_sum "Si O2"
_cell_formula_units_Z 96
_cell_length_a 11.617071
_cell_length_b 24.504057
_cell_length_c 18.441463
_cell_angle_alpha 90.000000
_cell_angle_beta 90.000000
_cell_angle_gamma 90.000000
_cell_volume 5249.645887
_symmetry_space_group_name_H-M "C M C M"
_symmetry_group_IT_number 63
_symmetry_cell_setting 'orthorhombic'
loop_
_space_group_symop_operation_xyz
x,y,z
-x,-y,1/2+z
x,-y,-z
-x,y,1/2-z
-x,-y,-z
x,y,1/2-z
-x,y,z
x,-y,1/2+z
1/2+x,1/2+y,z
1/2-x,1/2-y,1/2+z
1/2+x,1/2-y,-z
1/2-x,1/2+y,1/2-z
1/2-x,1/2-y,-z
1/2+x,1/2+y,1/2-z
1/2-x,1/2+y,z
1/2+x,1/2-y,1/2+z
loop_
_atom_site_type_symbol
_atom_site_label
_atom_site_fract_x
_atom_site_fract_y
_atom_site_fract_z
Si Si1 0.137546 0.483800 0.170545
Si Si2 0.500000 0.733391 0.165304
Si Si3 0.251656 0.090510 0.111699
Si Si4 0.359868 0.898694 0.455864
Si Si5 0.368055 0.201452 0.336231
Si Si6 0.220966 0.277007 0.077749
Si Si7 0.000000 0.102417 0.334682
O O1 0.170312 0.462192 0.250000
O O2 0.190744 0.543123 0.158848
O O3 0.167418 0.442435 0.106403
O O4 0.000000 0.489792 0.168547
O O5 0.500000 0.752650 0.250000
O O6 0.610411 0.753129 0.120134
O O7 0.500000 0.668144 0.167606
O O8 0.291402 0.150710 0.137076
O O9 0.115474 0.085497 0.123565
O O10 0.301009 0.083869 0.030922
O O11 0.500000 0.894696 0.463566
O O12 0.307011 0.840188 0.434585
O O13 0.358144 0.204974 0.250000
O O14 0.500000 0.189816 0.356378
O O15 0.326378 0.257526 0.372248
O O16 0.250000 0.250000 0.000000
O O17 0.000000 0.083774 0.250000
#
# Coordination Sequence:
#
# PCOD9474950 Si02
#       7
#    16   8  16  16  16  16   8
#     4  10  22  40  64  93 123 160 204 252 310 366
#     4  11  22  38  60  89 123 165 213 257 311 370
#     4  12  22  39  64  90 124 158 203 259 313 365
#     4  11  23  41  63  93 124 162 207 257 308 368
#     4  11  23  38  61  91 123 160 205 256 312 371
#     4  12  23  38  62  89 128 165 203 252 310 371
#     4  11  22  38  61  93 122 157 208 257 307 365
#
# _framework density 18.286947999999999
#
# number of rings (size 3 to 8) (size 9 to 14) (size 15 to 20)
#    0.000    0.833    4.167    4.000    1.167    4.000 
#    1.500    1.667    0.000    0.000    0.000    0.000 
#    0.000    0.000    0.000    0.000    0.000    0.000 
#
# Total GULP energy -268076.449176 kJ/mol
# GULP energy per Si atom -5584.926024 kJ/mol
# Density = 1.824533 g / cm^3
# Si number density = 18.286948 Si / 1000 Ang^3
#
#
#
# Elastic Constant Matrix: (Units=GPa)
#
#
# Indices 1 2 3 4 5 6 
#
# 1 77.4302 18.1868 61.2104 0.0000 0.0000 0.0000
# 2 18.1868 52.1867 30.6069 0.0000 0.0000 0.0000
# 3 61.2104 30.6069 116.6763 0.0000 0.0000 0.0000
# 4 0.0000 0.0000 0.0000 31.5366 0.0000 0.0000
# 5 0.0000 0.0000 0.0000 0.0000 25.3979 0.0000
# 6 0.0000 0.0000 0.0000 0.0000 0.0000 26.7150
#
#
#
# Elastic Compliance Matrix: (Units=1/GPa)
#
#
# Indices 1 2 3 4 5 6 
#
# 1 0.022116 -0.001067 -0.011323 0.000000 0.000000 0.000000
# 2 -0.001067 0.022698 -0.005394 0.000000 0.000000 0.000000
# 3 -0.011323 -0.005394 0.015926 0.000000 0.000000 0.000000
# 4 0.000000 0.000000 0.000000 0.031709 0.000000 0.000000
# 5 0.000000 0.000000 0.000000 0.000000 0.039373 0.000000
# 6 0.000000 0.000000 0.000000 0.000000 0.000000 0.037432
#
#
# Mechanical properties :
#
#
# Convention : Reuss Voigt Hill
#
# Bulk Modulus (GPa) = 39.72693 51.81125 45.76909
# Shear Modulus (GPa) = 23.45071 25.81582 24.63327
#
# Velocity S-wave (km/s) = 3.58491 3.76135 3.67419
# Velocity P-wave (km/s) = 6.23753 6.87441 6.56370
#
# Compressibility (1/GPa) = 0.02517184
#
# Stress axis : x y z
#
# Youngs Moduli (GPa) = 45.21546 44.05767 62.79060
#
# Poissons Ratio (x) = 0.04700 0.71096
# Poissons Ratio (y) = 0.04823 0.33872
# Poissons Ratio (z) = 0.51196 0.23767
#
# Static dielectric constant tensor:
#      x y z
#    x 1.637740 0.000000 0.000000 
#    y 0.000000 1.595290 0.000000 
#    z 0.000000 0.000000 1.655790 
# 
# From -- ./inp_files/42582.got.cif
#   From: 2010.05.17/outbox.cif.g08.bks.cpg/sg63_22_cif.got.tgz:42582.got - 2010.06.03 15:47:04.
