data_PCOD9474445
_publ_section_title
;
Structure prediction by ZEFSAII (Michael W. Deem and Ramdas Pophale) SiO2 
 PCOD9474445
Probable space group: C M C M
;
_chemical_formula_sum "Si O2"
_cell_formula_units_Z 88
_cell_length_a 17.060070
_cell_length_b 21.011230
_cell_length_c 13.389297
_cell_angle_alpha 90.000000
_cell_angle_beta 90.000000
_cell_angle_gamma 90.000000
_cell_volume 4799.434408
_symmetry_space_group_name_H-M "C M C M"
_symmetry_group_IT_number 63
_symmetry_cell_setting 'orthorhombic'
loop_
_space_group_symop_operation_xyz
x,y,z
-x,-y,1/2+z
x,-y,-z
-x,y,1/2-z
-x,-y,-z
x,y,1/2-z
-x,y,z
x,-y,1/2+z
1/2+x,1/2+y,z
1/2-x,1/2-y,1/2+z
1/2+x,1/2-y,-z
1/2-x,1/2+y,1/2-z
1/2-x,1/2-y,-z
1/2+x,1/2+y,1/2-z
1/2-x,1/2+y,z
1/2+x,1/2-y,1/2+z
loop_
_atom_site_type_symbol
_atom_site_label
_atom_site_fract_x
_atom_site_fract_y
_atom_site_fract_z
Si Si1 0.175097 0.207707 0.974687
Si Si2 0.407016 0.384720 0.631477
Si Si3 0.906567 0.680659 0.138117
Si Si4 0.908080 0.575458 0.519215
Si Si5 0.156555 0.000000 0.000000
Si Si6 0.244786 0.406329 0.134514
O O1 0.115528 0.256685 0.923651
O O2 0.207296 0.156216 0.896516
O O3 0.250000 0.250000 0.000000
O O4 0.139705 0.169945 0.069896
O O5 0.385194 0.389198 0.750000
O O6 0.500000 0.371347 0.627378
O O7 0.390976 0.449936 0.569058
O O8 0.872655 0.682160 0.250000
O O9 0.883864 0.617200 0.077356
O O10 0.000000 0.678209 0.145926
O O11 0.901497 0.500000 0.500000
O O12 0.846107 0.596370 0.602450
O O13 0.000000 0.588705 0.541927
O O14 0.213062 0.038872 0.927479
O O15 0.251147 0.418762 0.250000
#
# Coordination Sequence:
#
# PCOD9474445 Si02
#       6
#    16  16  16  16   8  16
#     4  11  22  39  58  86 121 155 193 244 290 348
#     4  10  22  40  64  92 122 160 201 244 300 357
#     4  10  21  39  62  84 112 153 195 237 290 351
#     4  10  21  39  58  84 117 152 197 244 292 350
#     4  10  21  40  61  90 122 158 192 250 295 358
#     4  11  22  37  58  87 118 153 197 242 295 351
#
# _framework density 18.335493
#
# number of rings (size 3 to 8) (size 9 to 14) (size 15 to 20)
#    0.000    1.636    2.727    1.909    0.000    2.545 
#    0.000    1.818    0.000    8.727    0.000    0.000 
#    0.000    0.000    0.000    0.000    0.000    0.000 
#
# Total GULP energy -245405.189062 kJ/mol
# GULP energy per Si atom -5577.390661 kJ/mol
# Density = 1.829376 g / cm^3
# Si number density = 18.335493 Si / 1000 Ang^3
#
#
#
# Elastic Constant Matrix: (Units=GPa)
#
#
# Indices 1 2 3 4 5 6 
#
# 1 55.0719 24.7425 40.5161 0.0000 0.0000 0.0000
# 2 24.7425 122.7365 68.4129 0.0000 0.0000 0.0000
# 3 40.5161 68.4129 158.5321 0.0000 0.0000 0.0000
# 4 0.0000 0.0000 0.0000 11.0072 0.0000 0.0000
# 5 0.0000 0.0000 0.0000 0.0000 27.8880 0.0000
# 6 0.0000 0.0000 0.0000 0.0000 0.0000 20.5040
#
#
#
# Elastic Compliance Matrix: (Units=1/GPa)
#
#
# Indices 1 2 3 4 5 6 
#
# 1 0.022649 -0.001764 -0.005027 0.000000 0.000000 0.000000
# 2 -0.001764 0.010865 -0.004238 0.000000 0.000000 0.000000
# 3 -0.005027 -0.004238 0.009422 0.000000 0.000000 0.000000
# 4 0.000000 0.000000 0.000000 0.090850 0.000000 0.000000
# 5 0.000000 0.000000 0.000000 0.000000 0.035858 0.000000
# 6 0.000000 0.000000 0.000000 0.000000 0.000000 0.048771
#
#
# Mechanical properties :
#
#
# Convention : Reuss Voigt Hill
#
# Bulk Modulus (GPa) = 47.89757 67.07595 57.48676
# Shear Modulus (GPa) = 20.20756 25.39109 22.79933
#
# Velocity S-wave (km/s) = 3.32339 3.72533 3.53009
# Velocity P-wave (km/s) = 6.39579 7.42739 6.93081
#
# Compressibility (1/GPa) = 0.02087789
#
# Stress axis : x y z
#
# Youngs Moduli (GPa) = 44.15200 92.03548 106.13872
#
# Poissons Ratio (x) = 0.16231 0.53360
# Poissons Ratio (y) = 0.07787 0.44983
# Poissons Ratio (z) = 0.22197 0.39006
#
# Static dielectric constant tensor:
#      x y z
#    x 1.651410 0.000000 0.000000 
#    y 0.000000 1.613410 0.000000 
#    z 0.000000 0.000000 1.611340 
# 
# From -- ./inp_files/21139.got.cif
#   From: 2010.05.17/outbox.cif.g08.bks.cpg/sg63_11_cif.got.tgz:21139.got - 2010.06.03 15:47:04.
