data_PCOD9474127
_publ_section_title
;
Structure prediction by ZEFSAII (Michael W. Deem and Ramdas Pophale) SiO2 
 PCOD9474127
Probable space group: C M C M
;
_chemical_formula_sum "Si O2"
_cell_formula_units_Z 76
_cell_length_a 28.248359
_cell_length_b 16.376171
_cell_length_c 9.366449
_cell_angle_alpha 90.000000
_cell_angle_beta 90.000000
_cell_angle_gamma 90.000000
_cell_volume 4332.918909
_symmetry_space_group_name_H-M "C M C M"
_symmetry_group_IT_number 63
_symmetry_cell_setting 'orthorhombic'
loop_
_space_group_symop_operation_xyz
x,y,z
-x,-y,1/2+z
x,-y,-z
-x,y,1/2-z
-x,-y,-z
x,y,1/2-z
-x,y,z
x,-y,1/2+z
1/2+x,1/2+y,z
1/2-x,1/2-y,1/2+z
1/2+x,1/2-y,-z
1/2-x,1/2+y,1/2-z
1/2-x,1/2-y,-z
1/2+x,1/2+y,1/2-z
1/2-x,1/2+y,z
1/2+x,1/2-y,1/2+z
loop_
_atom_site_type_symbol
_atom_site_label
_atom_site_fract_x
_atom_site_fract_y
_atom_site_fract_z
Si Si1 0.200765 0.740308 0.418956
Si Si2 0.135634 0.583853 0.080251
Si Si3 0.425777 0.500000 0.000000
Si Si4 0.378369 0.666258 0.414887
Si Si5 0.500000 0.538201 0.750000
Si Si6 0.555372 0.181129 0.918782
O O1 0.206930 0.751134 0.250000
O O2 0.250000 0.750000 0.500000
O O3 0.176287 0.651867 0.443142
O O4 0.163176 0.804531 0.481882
O O5 0.130246 0.571608 0.250000
O O6 0.146634 0.500000 0.000000
O O7 0.087656 0.621409 0.012594
O O8 0.394724 0.425066 0.943150
O O9 0.458900 0.533331 0.874303
O O10 0.363337 0.676474 0.250000
O O11 0.422652 0.728288 0.436845
O O12 0.559958 0.160483 0.750000
O O13 0.500000 0.179145 0.956185
#
# Coordination Sequence:
#
# PCOD9474127 Si02
#       6
#    16  16   8  16   4  16
#     4  10  22  41  64  88 113 145 188 239 295 351
#     4  10  21  38  59  85 112 144 183 228 279 334
#     4  11  22  38  54  88 120 166 206 246 291 344
#     4  10  21  37  58  82 118 154 197 244 291 346
#     4  10  24  34  56  82 124 166 206 246 288 342
#     4   9  19  34  55  81 111 152 192 231 277 330
#
# _framework density 17.540139
#
# number of rings (size 3 to 8) (size 9 to 14) (size 15 to 20)
#    0.000    2.105    1.053    1.263    4.421    3.368 
#    1.895    0.000    0.000    0.000    0.000    0.000 
#    0.000    0.000    0.000    0.000    0.000    0.000 
#
# Total GULP energy -211545.153850 kJ/mol
# GULP energy per Si atom -5566.977733 kJ/mol
# Density = 1.750022 g / cm^3
# Si number density = 17.540139 Si / 1000 Ang^3
#
#
#
# Elastic Constant Matrix: (Units=GPa)
#
#
# Indices 1 2 3 4 5 6 
#
# 1 140.8245 44.0097 73.8890 0.0000 0.0000 0.0000
# 2 44.0097 86.0488 42.0850 0.0000 0.0000 0.0000
# 3 73.8890 42.0850 104.8770 0.0000 0.0000 0.0000
# 4 0.0000 0.0000 0.0000 23.8465 0.0000 0.0000
# 5 0.0000 0.0000 0.0000 0.0000 28.3856 0.0000
# 6 0.0000 0.0000 0.0000 0.0000 0.0000 2.3800
#
#
#
# Elastic Compliance Matrix: (Units=1/GPa)
#
#
# Indices 1 2 3 4 5 6 
#
# 1 0.011657 -0.002420 -0.007241 0.000000 0.000000 0.000000
# 2 -0.002420 0.014962 -0.004299 0.000000 0.000000 0.000000
# 3 -0.007241 -0.004299 0.016362 0.000000 0.000000 0.000000
# 4 0.000000 0.000000 0.000000 0.041935 0.000000 0.000000
# 5 0.000000 0.000000 0.000000 0.000000 0.035229 0.000000
# 6 0.000000 0.000000 0.000000 0.000000 0.000000 0.420166
#
#
# Mechanical properties :
#
#
# Convention : Reuss Voigt Hill
#
# Bulk Modulus (GPa) = 66.40307 72.41310 69.40809
# Shear Modulus (GPa) = 8.72219 22.37355 15.54787
#
# Velocity S-wave (km/s) = 2.23238 3.57538 2.98050
# Velocity P-wave (km/s) = 6.67717 7.64318 7.17645
#
# Compressibility (1/GPa) = 0.01505954
#
# Stress axis : x y z
#
# Youngs Moduli (GPa) = 85.78611 66.83806 61.11824
#
# Poissons Ratio (x) = 0.16177 0.44258
# Poissons Ratio (y) = 0.20762 0.26272
# Poissons Ratio (z) = 0.62121 0.28731
#
# Static dielectric constant tensor:
#      x y z
#    x 1.565510 0.000000 0.000000 
#    y 0.000000 1.594590 0.000000 
#    z 0.000000 0.000000 1.595270 
# 
# From -- ./inp_files/12137.got.cif
#   From: 2010.05.17/outbox.cif.g08.bks.cpg/sg63_7_cif.got.tgz:12137.got - 2010.06.03 15:47:04.
