data_PCOD9474956
_publ_section_title
;
Structure prediction by ZEFSAII (Michael W. Deem and Ramdas Pophale) SiO2 
 PCOD9474956
Probable space group: C M C M
;
_chemical_formula_sum "Si O2"
_cell_formula_units_Z 96
_cell_length_a 20.695916
_cell_length_b 16.506787
_cell_length_c 13.660781
_cell_angle_alpha 90.000000
_cell_angle_beta 90.000000
_cell_angle_gamma 90.000000
_cell_volume 4666.838042
_symmetry_space_group_name_H-M "C M C M"
_symmetry_group_IT_number 63
_symmetry_cell_setting 'orthorhombic'
loop_
_space_group_symop_operation_xyz
x,y,z
-x,-y,1/2+z
x,-y,-z
-x,y,1/2-z
-x,-y,-z
x,y,1/2-z
-x,y,z
x,-y,1/2+z
1/2+x,1/2+y,z
1/2-x,1/2-y,1/2+z
1/2+x,1/2-y,-z
1/2-x,1/2+y,1/2-z
1/2-x,1/2-y,-z
1/2+x,1/2+y,1/2-z
1/2-x,1/2+y,z
1/2+x,1/2-y,1/2+z
loop_
_atom_site_type_symbol
_atom_site_label
_atom_site_fract_x
_atom_site_fract_y
_atom_site_fract_z
Si Si1 0.500000 0.657108 0.131580
Si Si2 0.236165 0.843942 0.477445
Si Si3 0.425760 0.217652 0.136722
Si Si4 0.636301 0.573177 0.369267
Si Si5 0.376888 0.094384 0.980715
Si Si6 0.120719 0.114393 0.638073
Si Si7 0.500000 0.842977 0.366451
O O1 0.500000 0.657283 0.250000
O O2 0.432433 0.614551 0.105868
O O3 0.500000 0.749869 0.099561
O O4 0.250000 0.750000 0.500000
O O5 0.193420 0.885453 0.565685
O O6 0.302832 0.888767 0.453891
O O7 0.191821 0.851255 0.381740
O O8 0.404090 0.217899 0.250000
O O9 0.500000 0.192071 0.134118
O O10 0.420989 0.310272 0.098434
O O11 0.387134 0.153213 0.073735
O O12 0.647999 0.580005 0.250000
O O13 0.625490 0.478476 0.394771
O O14 0.433923 0.118812 0.906698
O O15 0.384961 0.000000 0.000000
O O16 0.100215 0.106958 0.750000
O O17 0.500000 0.846660 0.250000
#
# Coordination Sequence:
#
# PCOD9474956 Si02
#       7
#     8  16  16  16  16  16   8
#     4   9  20  39  63  93 129 168 206 250 307 374
#     4  12  24  42  65  91 129 171 213 264 322 382
#     4  10  22  40  65  94 127 166 209 263 325 382
#     4  10  22  40  65  98 133 167 212 264 319 385
#     4  12  25  43  66  92 126 164 215 274 323 380
#     4  10  22  41  63  94 130 164 208 259 318 387
#     4  11  25  45  65  92 127 169 217 263 324 388
#
# _framework density 20.570674
#
# number of rings (size 3 to 8) (size 9 to 14) (size 15 to 20)
#    0.000    1.333    2.500    2.750    1.167    2.667 
#    0.000    0.833    0.000    0.000    0.000    0.000 
#    0.000    0.000    0.000    0.000    0.000    0.000 
#
# Total GULP energy -267755.509121 kJ/mol
# GULP energy per Si atom -5578.239773 kJ/mol
# Density = 2.052385 g / cm^3
# Si number density = 20.570674 Si / 1000 Ang^3
#
#
#
# Elastic Constant Matrix: (Units=GPa)
#
#
# Indices 1 2 3 4 5 6 
#
# 1 121.0064 25.3343 1.0398 0.0000 0.0000 0.0000
# 2 25.3343 146.6871 7.0162 0.0000 0.0000 0.0000
# 3 1.0398 7.0162 63.6471 0.0000 0.0000 0.0000
# 4 0.0000 0.0000 0.0000 32.2362 0.0000 0.0000
# 5 0.0000 0.0000 0.0000 0.0000 -1.3656 0.0000
# 6 0.0000 0.0000 0.0000 0.0000 0.0000 -571.2806
#
#
#
# Elastic Compliance Matrix: (Units=1/GPa)
#
#
# Indices 1 2 3 4 5 6 
#
# 1 0.008574 -0.001482 0.000023 0.000000 0.000000 0.000000
# 2 -0.001482 0.007110 -0.000760 0.000000 0.000000 0.000000
# 3 0.000023 -0.000760 0.015795 0.000000 0.000000 0.000000
# 4 0.000000 0.000000 0.000000 0.031021 0.000000 0.000000
# 5 0.000000 0.000000 0.000000 0.000000 -0.732295 0.000000
# 6 0.000000 0.000000 0.000000 0.000000 0.000000 -0.001750
#
#
# Mechanical properties :
#
#
# Convention : Reuss Voigt Hill
#
# Bulk Modulus (GPa) = 36.97918 44.23569 40.60743
# Shear Modulus (GPa) = -7.59768 -88.21862 -47.90815
#
# Velocity S-wave (km/s) = -1.92392 -6.55582 -4.83116
# Velocity P-wave (km/s) = 3.61668 5.97947 3.36702
#
# Compressibility (1/GPa) = 0.02704224
#
# Stress axis : x y z
#
# Youngs Moduli (GPa) = 116.63047 140.65675 63.31128
#
# Poissons Ratio (x) = 0.20845 -0.00147
# Poissons Ratio (y) = 0.17284 0.04809
# Poissons Ratio (z) = -0.00272 0.10683
#
# Static dielectric constant tensor:
#      x y z
#    x 1.827660 0.000000 0.000000 
#    y 0.000000 1.788280 0.000000 
#    z 0.000000 0.000000 1.807750 
# 
# From -- ./inp_files/35422.got.cif
#   From: 2010.05.17/outbox.cif.g08.bks.cpg/sg63_18_cif.got.tgz:35422.got - 2010.06.03 15:47:04.
