data_PCOD9474300
_publ_section_title
;
Structure prediction by ZEFSAII (Michael W. Deem and Ramdas Pophale) SiO2 
 PCOD9474300
Probable space group: C M C M
;
_chemical_formula_sum "Si O2"
_cell_formula_units_Z 64
_cell_length_a 8.466530
_cell_length_b 31.501059
_cell_length_c 12.537818
_cell_angle_alpha 90.000000
_cell_angle_beta 90.000000
_cell_angle_gamma 90.000000
_cell_volume 3343.894500
_symmetry_space_group_name_H-M "C M C M"
_symmetry_group_IT_number 63
_symmetry_cell_setting 'orthorhombic'
loop_
_space_group_symop_operation_xyz
x,y,z
-x,-y,1/2+z
x,-y,-z
-x,y,1/2-z
-x,-y,-z
x,y,1/2-z
-x,y,z
x,-y,1/2+z
1/2+x,1/2+y,z
1/2-x,1/2-y,1/2+z
1/2+x,1/2-y,-z
1/2-x,1/2+y,1/2-z
1/2-x,1/2-y,-z
1/2+x,1/2+y,1/2-z
1/2-x,1/2+y,z
1/2+x,1/2-y,1/2+z
loop_
_atom_site_type_symbol
_atom_site_label
_atom_site_fract_x
_atom_site_fract_y
_atom_site_fract_z
Si Si1 0.681865 0.822458 0.250000
Si Si2 0.808943 0.373239 0.626797
Si Si3 0.813056 0.797046 0.021526
Si Si4 0.193460 0.548454 0.520806
Si Si5 0.682907 0.076079 0.750000
O O1 0.500000 0.807449 0.250000
O O2 0.765157 0.808090 0.142256
O O3 0.680520 0.873337 0.250000
O O4 0.754967 0.371747 0.750000
O O5 0.757239 0.332385 0.558464
O O6 0.756262 0.416184 0.565377
O O7 0.000000 0.373639 0.627853
O O8 0.000000 0.797634 0.009676
O O9 0.750000 0.750000 0.000000
O O10 0.239101 0.500000 0.500000
O O11 0.252556 0.560936 0.638429
O O12 0.000000 0.550110 0.520853
O O13 0.500000 0.060891 0.750000
#
# Coordination Sequence:
#
# PCOD9474300 Si02
#       5
#     8  16  16  16   8
#     4  11  21  41  67  92 123 156 199 256 311 362
#     4  10  21  38  59  87 124 162 203 256 310 361
#     4  12  26  43  64  90 121 161 206 252 307 366
#     4   9  17  29  51  86 122 157 200 252 307 359
#     4   9  16  29  53  82 117 156 193 246 307 356
#
# _framework density 19.139358000000001
#
# number of rings (size 3 to 8) (size 9 to 14) (size 15 to 20)
#    0.000    1.750    2.500    2.625    3.500    0.500 
#    0.000    0.000    0.000    0.750    0.000    0.000 
#    0.000    0.000    0.000    0.000    0.000    0.000 
#
# Total GULP energy -178641.456004 kJ/mol
# GULP energy per Si atom -5582.545500 kJ/mol
# Density = 1.909580 g / cm^3
# Si number density = 19.139358 Si / 1000 Ang^3
#
#
#
# Elastic Constant Matrix: (Units=GPa)
#
#
# Indices 1 2 3 4 5 6 
#
# 1 32.3614 20.6518 25.0007 0.0000 0.0000 0.0000
# 2 20.6518 162.5225 108.1355 0.0000 0.0000 0.0000
# 3 25.0007 108.1355 215.1432 0.0000 0.0000 0.0000
# 4 0.0000 0.0000 0.0000 16.6234 0.0000 0.0000
# 5 0.0000 0.0000 0.0000 0.0000 7.6861 0.0000
# 6 0.0000 0.0000 0.0000 0.0000 0.0000 18.9215
#
#
#
# Elastic Compliance Matrix: (Units=1/GPa)
#
#
# Indices 1 2 3 4 5 6 
#
# 1 0.034660 -0.002591 -0.002725 0.000000 0.000000 0.000000
# 2 -0.002591 0.009438 -0.004443 0.000000 0.000000 0.000000
# 3 -0.002725 -0.004443 0.007198 0.000000 0.000000 0.000000
# 4 0.000000 0.000000 0.000000 0.060156 0.000000 0.000000
# 5 0.000000 0.000000 0.000000 0.000000 0.130105 0.000000
# 6 0.000000 0.000000 0.000000 0.000000 0.000000 0.052850
#
#
# Mechanical properties :
#
#
# Convention : Reuss Voigt Hill
#
# Bulk Modulus (GPa) = 31.46851 79.73368 55.60109
# Shear Modulus (GPa) = 15.40749 25.72880 20.56815
#
# Velocity S-wave (km/s) = 2.84036 3.67043 3.28174
# Velocity P-wave (km/s) = 5.21865 7.72740 6.59345
#
# Compressibility (1/GPa) = 0.03177780
#
# Stress axis : x y z
#
# Youngs Moduli (GPa) = 28.85178 105.95162 138.93088
#
# Poissons Ratio (x) = 0.27451 0.37865
# Poissons Ratio (y) = 0.07475 0.61724
# Poissons Ratio (z) = 0.07863 0.47072
#
# Static dielectric constant tensor:
#      x y z
#    x 1.667740 0.000000 0.000000 
#    y 0.000000 1.647420 0.000000 
#    z 0.000000 0.000000 1.636030 
# 
# From -- ./inp_files/16203.got.cif
#   From: 2010.05.17/outbox.cif.g08.bks.cpg/sg63_9_cif.got.tgz:16203.got - 2010.06.03 15:47:04.
