data_PCOD9474102
_publ_section_title
;
Structure prediction by ZEFSAII (Michael W. Deem and Ramdas Pophale) SiO2 
 PCOD9474102
Probable space group: C M C M
;
_chemical_formula_sum "Si O2"
_cell_formula_units_Z 64
_cell_length_a 8.132041
_cell_length_b 10.496768
_cell_length_c 36.410619
_cell_angle_alpha 90.000000
_cell_angle_beta 90.000000
_cell_angle_gamma 90.000000
_cell_volume 3108.015817
_symmetry_space_group_name_H-M "C M C M"
_symmetry_group_IT_number 63
_symmetry_cell_setting 'orthorhombic'
loop_
_space_group_symop_operation_xyz
x,y,z
-x,-y,1/2+z
x,-y,-z
-x,y,1/2-z
-x,-y,-z
x,y,1/2-z
-x,y,z
x,-y,1/2+z
1/2+x,1/2+y,z
1/2-x,1/2-y,1/2+z
1/2+x,1/2-y,-z
1/2-x,1/2+y,1/2-z
1/2-x,1/2-y,-z
1/2+x,1/2+y,1/2-z
1/2-x,1/2+y,z
1/2+x,1/2-y,1/2+z
loop_
_atom_site_type_symbol
_atom_site_label
_atom_site_fract_x
_atom_site_fract_y
_atom_site_fract_z
Si Si1 0.198320 0.274483 0.708268
Si Si2 0.698852 0.024566 0.665250
Si Si3 0.697078 0.281051 0.458693
Si Si4 0.302425 0.969149 0.582908
O O1 0.259158 0.258142 0.750000
O O2 0.247408 0.157168 0.682710
O O3 0.255474 0.407169 0.690578
O O4 0.000000 0.278735 0.709471
O O5 0.500000 0.022788 0.664573
O O6 0.759076 0.003080 0.623654
O O7 0.500000 0.283356 0.457256
O O8 0.750000 0.250000 0.500000
O O9 0.760021 0.416598 0.444584
O O10 0.758274 0.166282 0.432448
O O11 0.500000 0.960023 0.585008
#
# Coordination Sequence:
#
# PCOD9474102 Si02
#       4
#    16  16  16  16
#     4  10  21  37  57  83 115 149 187 232 280 331
#     4  10  21  38  59  82 111 148 188 230 277 330
#     4  11  23  39  60  85 114 148 186 229 278 332
#     4  10  22  39  58  83 114 147 186 231 277 329
#
# _framework density 20.591915
#
# number of rings (size 3 to 8) (size 9 to 14) (size 15 to 20)
#    0.000    1.750    0.000    3.750    0.000   10.500 
#    0.000    0.000    0.000    0.000    0.000    0.000 
#    0.000    0.000    0.000    0.000    0.000    0.000 
#
# Total GULP energy -178912.340474 kJ/mol
# GULP energy per Si atom -5591.010640 kJ/mol
# Density = 2.054505 g / cm^3
# Si number density = 20.591915 Si / 1000 Ang^3
#
#
#
# Elastic Constant Matrix: (Units=GPa)
#
#
# Indices 1 2 3 4 5 6 
#
# 1 7.9543 -5.3441 -1.4393 0.0000 0.0000 0.0000
# 2 -5.3441 60.9877 -38.7807 0.0000 0.0000 0.0000
# 3 -1.4393 -38.7807 49.7532 0.0000 0.0000 0.0000
# 4 0.0000 0.0000 0.0000 44.5839 0.0000 0.0000
# 5 0.0000 0.0000 0.0000 0.0000 24.4639 0.0000
# 6 0.0000 0.0000 0.0000 0.0000 0.0000 30.5524
#
#
#
# Elastic Compliance Matrix: (Units=1/GPa)
#
#
# Indices 1 2 3 4 5 6 
#
# 1 0.152591 0.032076 0.029417 0.000000 0.000000 0.000000
# 2 0.032076 0.039253 0.031524 0.000000 0.000000 0.000000
# 3 0.029417 0.031524 0.045522 0.000000 0.000000 0.000000
# 4 0.000000 0.000000 0.000000 0.022430 0.000000 0.000000
# 5 0.000000 0.000000 0.000000 0.000000 0.040876 0.000000
# 6 0.000000 0.000000 0.000000 0.000000 0.000000 0.032731
#
#
# Mechanical properties :
#
#
# Convention : Reuss Voigt Hill
#
# Bulk Modulus (GPa) = 2.36183 3.06300 2.71241
# Shear Modulus (GPa) = 17.33087 30.87068 24.10078
#
# Velocity S-wave (km/s) = 2.90424 3.87611 3.42482
# Velocity P-wave (km/s) = 3.52074 4.63928 4.11817
#
# Compressibility (1/GPa) = 0.42339996
#
# Stress axis : x y z
#
# Youngs Moduli (GPa) = 6.55346 25.47582 21.96739
#
# Poissons Ratio (x) = -0.81717 -0.64620
# Poissons Ratio (y) = -0.21021 -0.69250
# Poissons Ratio (z) = -0.19278 -0.80310
#
# Static dielectric constant tensor:
#      x y z
#    x 1.734100 0.000000 0.000000 
#    y 0.000000 1.686820 0.000000 
#    z 0.000000 0.000000 1.723800 
# 
# From -- ./inp_files/71339.got.cif
#   From: 2010.05.17/outbox.cif.g08.bks.cpg/sg63_36_cif.got.tgz:71339.got - 2010.06.03 15:47:04.
