data_PCOD9474915
_publ_section_title
;
Structure prediction by ZEFSAII (Michael W. Deem and Ramdas Pophale) SiO2 
 PCOD9474915
Probable space group: C M C M
;
_chemical_formula_sum "Si O2"
_cell_formula_units_Z 112
_cell_length_a 27.082209
_cell_length_b 12.860403
_cell_length_c 14.100079
_cell_angle_alpha 90.000000
_cell_angle_beta 90.000000
_cell_angle_gamma 90.000000
_cell_volume 4910.890033
_symmetry_space_group_name_H-M "C M C M"
_symmetry_group_IT_number 63
_symmetry_cell_setting 'orthorhombic'
loop_
_space_group_symop_operation_xyz
x,y,z
-x,-y,1/2+z
x,-y,-z
-x,y,1/2-z
-x,-y,-z
x,y,1/2-z
-x,y,z
x,-y,1/2+z
1/2+x,1/2+y,z
1/2-x,1/2-y,1/2+z
1/2+x,1/2-y,-z
1/2-x,1/2+y,1/2-z
1/2-x,1/2-y,-z
1/2+x,1/2+y,1/2-z
1/2-x,1/2+y,z
1/2+x,1/2-y,1/2+z
loop_
_atom_site_type_symbol
_atom_site_label
_atom_site_fract_x
_atom_site_fract_y
_atom_site_fract_z
Si Si1 0.827672 0.633093 0.360152
Si Si2 0.941255 0.196263 0.641677
Si Si3 0.717312 0.539576 0.359587
Si Si4 0.440977 0.754612 0.362525
Si Si5 0.295333 0.673648 0.970277
Si Si6 0.442602 0.524489 0.134971
Si Si7 0.085254 0.394276 0.981533
O O1 0.840848 0.638062 0.250000
O O2 0.773560 0.582090 0.363889
O O3 0.828419 0.747072 0.409604
O O4 0.866686 0.571302 0.422754
O O5 0.924157 0.210823 0.750000
O O6 0.935851 0.300776 0.582226
O O7 0.000000 0.177051 0.646115
O O8 0.920079 0.085603 0.603222
O O9 0.700334 0.542582 0.250000
O O10 0.717467 0.423126 0.401527
O O11 0.688861 0.616351 0.432206
O O12 0.437022 0.765395 0.250000
O O13 0.500000 0.766316 0.385877
O O14 0.424119 0.638577 0.390085
O O15 0.409116 0.838339 0.417878
O O16 0.250000 0.750000 0.000000
O O17 0.441561 0.519709 0.250000
O O18 0.500000 0.528928 0.105942
O O19 0.055894 0.500000 0.000000
#
# Coordination Sequence:
#
# PCOD9474915 Si02
#       7
#    16  16  16  16  16  16  16
#     4  10  22  40  61  85 117 156 194 244 307 361
#     4   9  18  35  59  85 110 145 196 252 305 359
#     4   9  18  35  62  93 119 149 191 241 296 356
#     4   9  19  38  61  84 113 154 206 264 318 363
#     4   9  18  33  62  88 118 146 194 239 287 352
#     4   7  12  28  56  83 104 129 175 242 307 360
#     4  12  26  37  53  77 122 161 210 241 295 356
#
# _framework density 22.806456000000001
#
# number of rings (size 3 to 8) (size 9 to 14) (size 15 to 20)
#    0.000    2.714    0.000    3.000    4.000    3.429 
#    0.000    7.143    0.000    1.714    0.000    0.000 
#    0.000    0.000    0.000    0.000    0.000    0.000 
#
# Total GULP energy -312309.416799 kJ/mol
# GULP energy per Si atom -5576.953871 kJ/mol
# Density = 2.275455 g / cm^3
# Si number density = 22.806456 Si / 1000 Ang^3
#
#
#
# Elastic Constant Matrix: (Units=GPa)
#
#
# Indices 1 2 3 4 5 6 
#
# 1 53.1998 12.7755 24.2405 0.0000 0.0000 0.0000
# 2 12.7755 187.2418 66.4766 0.0000 0.0000 0.0000
# 3 24.2405 66.4766 167.7164 0.0000 0.0000 0.0000
# 4 0.0000 0.0000 0.0000 36.0484 0.0000 0.0000
# 5 0.0000 0.0000 0.0000 0.0000 22.4898 0.0000
# 6 0.0000 0.0000 0.0000 0.0000 0.0000 16.0339
#
#
#
# Elastic Compliance Matrix: (Units=1/GPa)
#
#
# Indices 1 2 3 4 5 6 
#
# 1 0.020148 -0.000397 -0.002755 0.000000 0.000000 0.000000
# 2 -0.000397 0.006223 -0.002409 0.000000 0.000000 0.000000
# 3 -0.002755 -0.002409 0.007316 0.000000 0.000000 0.000000
# 4 0.000000 0.000000 0.000000 0.027740 0.000000 0.000000
# 5 0.000000 0.000000 0.000000 0.000000 0.044465 0.000000
# 6 0.000000 0.000000 0.000000 0.000000 0.000000 0.062368
#
#
# Mechanical properties :
#
#
# Convention : Reuss Voigt Hill
#
# Bulk Modulus (GPa) = 44.31676 68.34923 56.33300
# Shear Modulus (GPa) = 26.75197 35.22545 30.98871
#
# Velocity S-wave (km/s) = 3.42862 3.93433 3.69015
# Velocity P-wave (km/s) = 5.92856 7.11849 6.55060
#
# Compressibility (1/GPa) = 0.02256483
#
# Stress axis : x y z
#
# Youngs Moduli (GPa) = 49.63388 160.69105 136.69507
#
# Poissons Ratio (x) = 0.06374 0.37656
# Poissons Ratio (y) = 0.01969 0.32934
# Poissons Ratio (z) = 0.13673 0.38715
#
# Static dielectric constant tensor:
#      x y z
#    x 1.895530 0.000000 0.000000 
#    y 0.000000 1.853100 0.000000 
#    z 0.000000 0.000000 1.858930 
# 
# From -- ./inp_files/38534.got.cif
#   From: 2010.05.17/outbox.cif.g08.bks.cpg/sg63_20_cif.got.tgz:38534.got - 2010.06.03 15:47:04.
