data_PCOD9474101
_publ_section_title
;
Structure prediction by ZEFSAII (Michael W. Deem and Ramdas Pophale) SiO2 
 PCOD9474101
Probable space group: C M C M
;
_chemical_formula_sum "Si O2"
_cell_formula_units_Z 80
_cell_length_a 16.113559
_cell_length_b 30.239350
_cell_length_c 7.700733
_cell_angle_alpha 90.000000
_cell_angle_beta 90.000000
_cell_angle_gamma 90.000000
_cell_volume 3752.286502
_symmetry_space_group_name_H-M "C M C M"
_symmetry_group_IT_number 63
_symmetry_cell_setting 'orthorhombic'
loop_
_space_group_symop_operation_xyz
x,y,z
-x,-y,1/2+z
x,-y,-z
-x,y,1/2-z
-x,-y,-z
x,y,1/2-z
-x,y,z
x,-y,1/2+z
1/2+x,1/2+y,z
1/2-x,1/2-y,1/2+z
1/2+x,1/2-y,-z
1/2-x,1/2+y,1/2-z
1/2-x,1/2-y,-z
1/2+x,1/2+y,1/2-z
1/2-x,1/2+y,z
1/2+x,1/2-y,1/2+z
loop_
_atom_site_type_symbol
_atom_site_label
_atom_site_fract_x
_atom_site_fract_y
_atom_site_fract_z
Si Si1 0.753028 0.051419 0.955176
Si Si2 0.152692 0.202475 0.959635
Si Si3 0.091397 0.107879 0.537149
Si Si4 0.409400 0.893137 0.541342
Si Si5 0.348136 0.799173 0.542038
O O1 0.759868 0.054953 0.750000
O O2 0.832506 0.078002 0.027511
O O3 0.667033 0.074955 0.002866
O O4 0.753754 0.000000 0.000000
O O5 0.147032 0.203299 0.750000
O O6 0.105855 0.158640 0.018941
O O7 0.124303 0.250824 0.023965
O O8 0.249707 0.197504 0.006676
O O9 0.092951 0.107875 0.750000
O O10 0.000000 0.092429 0.483957
O O11 0.412794 0.890177 0.750000
O O12 0.500000 0.908303 0.479045
O O13 0.390541 0.843572 0.473727
O O14 0.360474 0.798779 0.750000
#
# Coordination Sequence:
#
# PCOD9474101 Si02
#       5
#    16  16  16  16  16
#     4  11  23  40  61  82 107 140 180 227 281 331
#     4   9  16  29  51  79 110 147 184 217 259 312
#     4   9  18  33  55  83 112 142 180 222 264 318
#     4  10  21  37  57  83 114 146 182 224 271 324
#     4   9  17  29  50  79 112 146 181 220 261 310
#
# _framework density 21.320332000000001
#
# number of rings (size 3 to 8) (size 9 to 14) (size 15 to 20)
#    0.000    2.400    2.000    0.600    0.000    2.000 
#    0.000    4.000    0.000    4.800    0.000    5.600 
#    0.000    0.000    0.000    0.000    0.000    0.000 
#
# Total GULP energy -223247.911152 kJ/mol
# GULP energy per Si atom -5581.197779 kJ/mol
# Density = 2.127181 g / cm^3
# Si number density = 21.320332 Si / 1000 Ang^3
#
#
#
# Elastic Constant Matrix: (Units=GPa)
#
#
# Indices 1 2 3 4 5 6 
#
# 1 172.5334 109.0813 5.2700 0.0000 0.0000 0.0000
# 2 109.0813 169.3027 8.6646 0.0000 0.0000 0.0000
# 3 5.2700 8.6646 37.2962 0.0000 0.0000 0.0000
# 4 0.0000 0.0000 0.0000 -4.5960 0.0000 0.0000
# 5 0.0000 0.0000 0.0000 0.0000 13.9425 0.0000
# 6 0.0000 0.0000 0.0000 0.0000 0.0000 4.8852
#
#
#
# Elastic Compliance Matrix: (Units=1/GPa)
#
#
# Indices 1 2 3 4 5 6 
#
# 1 0.009780 -0.006305 0.000083 0.000000 0.000000 0.000000
# 2 -0.006305 0.010043 -0.001442 0.000000 0.000000 0.000000
# 3 0.000083 -0.001442 0.027136 0.000000 0.000000 0.000000
# 4 0.000000 0.000000 0.000000 -0.217579 0.000000 0.000000
# 5 0.000000 0.000000 0.000000 0.000000 0.071723 0.000000
# 6 0.000000 0.000000 0.000000 0.000000 0.000000 0.204700
#
#
# Mechanical properties :
#
#
# Convention : Reuss Voigt Hill
#
# Bulk Modulus (GPa) = 31.61628 69.46267 50.53948
# Shear Modulus (GPa) = 37.97234 19.92076 28.94655
#
# Velocity S-wave (km/s) = 4.22481 3.06004 3.68869
# Velocity P-wave (km/s) = 6.21772 6.71836 6.47288
#
# Compressibility (1/GPa) = 0.03162927
#
# Stress axis : x y z
#
# Youngs Moduli (GPa) = 102.24993 99.57208 36.85177
#
# Poissons Ratio (x) = 0.62785 -0.00306
# Poissons Ratio (y) = 0.64473 0.05315
# Poissons Ratio (z) = -0.00848 0.14360
#
# Static dielectric constant tensor:
#      x y z
#    x 1.782490 0.000000 0.000000 
#    y 0.000000 1.797050 0.000000 
#    z 0.000000 0.000000 1.859810 
# 
# From -- ./inp_files/19668.got.cif
#   From: 2010.05.17/outbox.cif.g08.bks.cpg/sg63_10_cif.got.tgz:19668.got - 2010.06.03 15:47:04.
