data_PCOD9474184
_publ_section_title
;
Structure prediction by ZEFSAII (Michael W. Deem and Ramdas Pophale) SiO2 
 PCOD9474184
Probable space group: C M C M
;
_chemical_formula_sum "Si O2"
_cell_formula_units_Z 68
_cell_length_a 7.881284
_cell_length_b 20.525966
_cell_length_c 21.267177
_cell_angle_alpha 90.000000
_cell_angle_beta 90.000000
_cell_angle_gamma 90.000000
_cell_volume 3440.411798
_symmetry_space_group_name_H-M "C M C M"
_symmetry_group_IT_number 63
_symmetry_cell_setting 'orthorhombic'
loop_
_space_group_symop_operation_xyz
x,y,z
-x,-y,1/2+z
x,-y,-z
-x,y,1/2-z
-x,-y,-z
x,y,1/2-z
-x,y,z
x,-y,1/2+z
1/2+x,1/2+y,z
1/2-x,1/2-y,1/2+z
1/2+x,1/2-y,-z
1/2-x,1/2+y,1/2-z
1/2-x,1/2-y,-z
1/2+x,1/2+y,1/2-z
1/2-x,1/2+y,z
1/2+x,1/2-y,1/2+z
loop_
_atom_site_type_symbol
_atom_site_label
_atom_site_fract_x
_atom_site_fract_y
_atom_site_fract_z
Si Si1 0.197154 0.568803 0.524574
Si Si2 0.804004 0.898627 0.338366
Si Si3 0.500000 0.058491 0.750000
Si Si4 0.702676 0.244780 0.180874
Si Si5 0.696765 0.691365 0.046564
O O1 0.264898 0.500000 0.500000
O O2 0.290356 0.591722 0.587191
O O3 0.208994 0.625645 0.473068
O O4 0.000000 0.559576 0.541023
O O5 0.653441 0.937320 0.303993
O O6 0.768665 0.822422 0.323767
O O7 0.000000 0.912742 0.319832
O O8 0.765491 0.222955 0.250000
O O9 0.500000 0.234828 0.179188
O O10 0.775893 0.211613 0.118813
O O11 0.500000 0.679241 0.035639
O O12 0.750000 0.750000 0.000000
#
# Coordination Sequence:
#
# PCOD9474184 Si02
#       5
#    16  16   4  16  16
#     4  11  24  43  66  92 126 171 220 271 330 387
#     4  11  22  37  62  95 127 166 215 267 321 387
#     4  12  22  36  62  94 132 168 210 272 322 390
#     4  10  21  37  59  90 128 163 207 264 324 381
#     4  12  24  37  62  94 127 162 211 266 321 384
#
# _framework density 19.765076000000001
#
# number of rings (size 3 to 8) (size 9 to 14) (size 15 to 20)
#    0.000    0.941    4.706    3.176    1.647    2.353 
#    0.000    0.000    2.588    0.000    0.000    0.000 
#    0.000    0.000    0.000    0.000    0.000    0.000 
#
# Total GULP energy -189369.030863 kJ/mol
# GULP energy per Si atom -5569.677378 kJ/mol
# Density = 1.972009 g / cm^3
# Si number density = 19.765076 Si / 1000 Ang^3
#
#
#
# Elastic Constant Matrix: (Units=GPa)
#
#
# Indices 1 2 3 4 5 6 
#
# 1 82.3273 0.9295 19.6091 0.0000 0.0000 0.0000
# 2 0.9295 73.2150 39.9785 0.0000 0.0000 0.0000
# 3 19.6091 39.9785 160.3022 0.0000 0.0000 0.0000
# 4 0.0000 0.0000 0.0000 13.3008 0.0000 0.0000
# 5 0.0000 0.0000 0.0000 0.0000 37.0146 0.0000
# 6 0.0000 0.0000 0.0000 0.0000 0.0000 11.7850
#
#
#
# Elastic Compliance Matrix: (Units=1/GPa)
#
#
# Indices 1 2 3 4 5 6 
#
# 1 0.012550 0.000786 -0.001731 0.000000 0.000000 0.000000
# 2 0.000786 0.015861 -0.004052 0.000000 0.000000 0.000000
# 3 -0.001731 -0.004052 0.007460 0.000000 0.000000 0.000000
# 4 0.000000 0.000000 0.000000 0.075184 0.000000 0.000000
# 5 0.000000 0.000000 0.000000 0.000000 0.027016 0.000000
# 6 0.000000 0.000000 0.000000 0.000000 0.000000 0.084854
#
#
# Mechanical properties :
#
#
# Convention : Reuss Voigt Hill
#
# Bulk Modulus (GPa) = 38.64368 48.54211 43.59290
# Shear Modulus (GPa) = 20.70007 29.44190 25.07099
#
# Velocity S-wave (km/s) = 3.23972 3.86371 3.56539
# Velocity P-wave (km/s) = 5.79554 6.67212 6.24922
#
# Compressibility (1/GPa) = 0.02587745
#
# Stress axis : x y z
#
# Youngs Moduli (GPa) = 79.68056 63.04830 134.03966
#
# Poissons Ratio (x) = -0.04956 0.23205
# Poissons Ratio (y) = -0.06263 0.54310
# Poissons Ratio (z) = 0.13795 0.25546
#
# Static dielectric constant tensor:
#      x y z
#    x 1.699620 0.000000 0.000000 
#    y 0.000000 1.421180 0.000000 
#    z 0.000000 0.000000 1.707610 
# 
# From -- ./inp_files/50470.got.cif
#   From: 2010.05.17/outbox.cif.g08.bks.cpg/sg63_26_cif.got.tgz:50470.got - 2010.06.03 15:47:04.
