data_PCOD9474079
_publ_section_title
;
Structure prediction by ZEFSAII (Michael W. Deem and Ramdas Pophale) SiO2 
 PCOD9474079
Probable space group: C M C M
;
_chemical_formula_sum "Si O2"
_cell_formula_units_Z 80
_cell_length_a 22.385874
_cell_length_b 12.121096
_cell_length_c 14.662848
_cell_angle_alpha 90.000000
_cell_angle_beta 90.000000
_cell_angle_gamma 90.000000
_cell_volume 3978.636646
_symmetry_space_group_name_H-M "C M C M"
_symmetry_group_IT_number 63
_symmetry_cell_setting 'orthorhombic'
loop_
_space_group_symop_operation_xyz
x,y,z
-x,-y,1/2+z
x,-y,-z
-x,y,1/2-z
-x,-y,-z
x,y,1/2-z
-x,y,z
x,-y,1/2+z
1/2+x,1/2+y,z
1/2-x,1/2-y,1/2+z
1/2+x,1/2-y,-z
1/2-x,1/2+y,1/2-z
1/2-x,1/2-y,-z
1/2+x,1/2+y,1/2-z
1/2-x,1/2+y,z
1/2+x,1/2-y,1/2+z
loop_
_atom_site_type_symbol
_atom_site_label
_atom_site_fract_x
_atom_site_fract_y
_atom_site_fract_z
Si Si1 0.652552 0.949702 0.098513
Si Si2 0.067800 0.252160 0.041229
Si Si3 0.820681 0.125506 0.024174
Si Si4 0.244438 0.781401 0.145190
Si Si5 0.066321 0.361052 0.847760
O O1 0.601490 0.856614 0.085517
O O2 0.708496 0.884147 0.139848
O O3 0.619516 0.050658 0.147125
O O4 0.669624 0.000000 0.000000
O O5 0.000000 0.238866 0.072586
O O6 0.111598 0.149500 0.053666
O O7 0.067584 0.282002 0.934018
O O8 0.805102 0.193011 0.931437
O O9 0.778847 0.175254 0.103687
O O10 0.810637 0.000000 0.000000
O O11 0.225632 0.766676 0.250000
O O12 0.069496 0.303598 0.750000
O O13 0.000000 0.416734 0.853260
#
# Coordination Sequence:
#
# PCOD9474079 Si02
#       5
#    16  16  16  16  16
#     4   9  16  29  50  77 108 136 168 212 265 320
#     4   9  18  32  50  72 102 140 178 216 258 304
#     4  10  22  39  56  79 108 137 177 222 262 313
#     4  10  21  37  57  80 106 137 173 217 269 320
#     4   9  16  26  44  73 105 135 169 210 258 312
#
# _framework density 20.107392000000001
#
# number of rings (size 3 to 8) (size 9 to 14) (size 15 to 20)
#    0.000    2.600    0.000    1.800    0.000    6.000 
#    0.000    0.000    0.000    5.400    0.000    5.600 
#    0.000    0.000    0.000    0.000    0.000    0.000 
#
# Total GULP energy -223090.568095 kJ/mol
# GULP energy per Si atom -5577.264202 kJ/mol
# Density = 2.006163 g / cm^3
# Si number density = 20.107392 Si / 1000 Ang^3
#
#
#
# Elastic Constant Matrix: (Units=GPa)
#
#
# Indices 1 2 3 4 5 6 
#
# 1 97.6003 8.3504 -13.0940 0.0000 0.0000 0.0000
# 2 8.3504 61.6849 -12.9437 0.0000 0.0000 0.0000
# 3 -13.0940 -12.9437 67.3830 0.0000 0.0000 0.0000
# 4 0.0000 0.0000 0.0000 7.6201 0.0000 0.0000
# 5 0.0000 0.0000 0.0000 0.0000 10.3607 0.0000
# 6 0.0000 0.0000 0.0000 0.0000 0.0000 5.9010
#
#
#
# Elastic Compliance Matrix: (Units=1/GPa)
#
#
# Indices 1 2 3 4 5 6 
#
# 1 0.010584 -0.001043 0.001856 0.000000 0.000000 0.000000
# 2 -0.001043 0.016995 0.003062 0.000000 0.000000 0.000000
# 3 0.001856 0.003062 0.015789 0.000000 0.000000 0.000000
# 4 0.000000 0.000000 0.000000 0.131232 0.000000 0.000000
# 5 0.000000 0.000000 0.000000 0.000000 0.096519 0.000000
# 6 0.000000 0.000000 0.000000 0.000000 0.000000 0.169464
#
#
# Mechanical properties :
#
#
# Convention : Reuss Voigt Hill
#
# Bulk Modulus (GPa) = 19.56231 21.25482 20.40857
# Shear Modulus (GPa) = 11.11424 21.06671 16.09047
#
# Velocity S-wave (km/s) = 2.35360 3.24035 2.83190
# Velocity P-wave (km/s) = 4.13956 4.95917 4.56779
#
# Compressibility (1/GPa) = 0.05111871
#
# Stress axis : x y z
#
# Youngs Moduli (GPa) = 94.48064 58.84029 63.33348
#
# Poissons Ratio (x) = 0.06139 -0.11757
# Poissons Ratio (y) = 0.09857 -0.19392
# Poissons Ratio (z) = -0.17539 -0.18016
#
# Static dielectric constant tensor:
#      x y z
#    x 1.760440 0.000000 0.000000 
#    y 0.000000 1.699100 0.000000 
#    z 0.000000 0.000000 1.710550 
# 
# From -- ./inp_files/36437.got.cif
#   From: 2010.05.17/outbox.cif.g08.bks.cpg/sg63_19_cif.got.tgz:36437.got - 2010.06.03 15:47:04.
