data_PCOD9474214
_publ_section_title
;
Structure prediction by ZEFSAII (Michael W. Deem and Ramdas Pophale) SiO2 
 PCOD9474214
Probable space group: C M C M
;
_chemical_formula_sum "Si O2"
_cell_formula_units_Z 100
_cell_length_a 9.526051
_cell_length_b 20.438711
_cell_length_c 27.399430
_cell_angle_alpha 90.000000
_cell_angle_beta 90.000000
_cell_angle_gamma 90.000000
_cell_volume 5334.674593
_symmetry_space_group_name_H-M "C M C M"
_symmetry_group_IT_number 63
_symmetry_cell_setting 'orthorhombic'
loop_
_space_group_symop_operation_xyz
x,y,z
-x,-y,1/2+z
x,-y,-z
-x,y,1/2-z
-x,-y,-z
x,y,1/2-z
-x,y,z
x,-y,1/2+z
1/2+x,1/2+y,z
1/2-x,1/2-y,1/2+z
1/2+x,1/2-y,-z
1/2-x,1/2+y,1/2-z
1/2-x,1/2-y,-z
1/2+x,1/2+y,1/2-z
1/2-x,1/2+y,z
1/2+x,1/2-y,1/2+z
loop_
_atom_site_type_symbol
_atom_site_label
_atom_site_fract_x
_atom_site_fract_y
_atom_site_fract_z
Si Si1 0.837749 0.796878 0.062380
Si Si2 0.258166 0.340677 0.332140
Si Si3 0.169032 0.604972 0.128333
Si Si4 0.334217 0.335004 0.955088
Si Si5 0.156231 0.202451 0.192201
Si Si6 0.000000 0.830561 0.250000
Si Si7 0.666810 0.984957 0.195192
O O1 0.811016 0.834429 0.112455
O O2 0.732354 0.735596 0.058598
O O3 0.000000 0.772923 0.061559
O O4 0.817845 0.839706 0.013526
O O5 0.159230 0.278493 0.322268
O O6 0.379771 0.331491 0.292743
O O7 0.194219 0.411639 0.322350
O O8 0.246696 0.613727 0.076808
O O9 0.225578 0.664493 0.161938
O O10 0.214819 0.539454 0.156848
O O11 0.000000 0.607329 0.123526
O O12 0.500000 0.336929 0.943646
O O13 0.182689 0.196192 0.250000
O O14 0.000000 0.175773 0.181737
O O15 0.727197 0.994066 0.250000
O O16 0.500000 0.994298 0.198770
#
# Coordination Sequence:
#
# PCOD9474214 Si02
#       7
#    16  16  16  16  16   4  16
#     4  10  21  37  61  89 123 159 200 249 305 364
#     4  12  22  38  61  90 123 157 201 249 302 367
#     4  11  23  39  62  86 120 160 204 252 306 364
#     4  10  21  38  59  89 121 159 204 250 304 360
#     4  11  23  37  57  89 121 156 197 253 307 361
#     4  12  24  36  58 100 126 160 202 248 318 368
#     4  10  22  42  61  84 116 163 205 246 304 371
#
# _framework density 18.745284999999999
#
# number of rings (size 3 to 8) (size 9 to 14) (size 15 to 20)
#    0.000    1.280    4.000    1.920    1.120    3.520 
#    2.880    0.800    0.000    3.840    0.000    0.000 
#    0.000    0.000    0.000    0.000    0.000    0.000 
#
# Total GULP energy -278548.025750 kJ/mol
# GULP energy per Si atom -5570.960515 kJ/mol
# Density = 1.870262 g / cm^3
# Si number density = 18.745285 Si / 1000 Ang^3
#
#
#
# Elastic Constant Matrix: (Units=GPa)
#
#
# Indices 1 2 3 4 5 6 
#
# 1 60.2920 -6.4952 25.7539 0.0000 0.0000 0.0000
# 2 -6.4952 38.9218 13.6141 0.0000 0.0000 0.0000
# 3 25.7539 13.6141 158.9123 0.0000 0.0000 0.0000
# 4 0.0000 0.0000 0.0000 18.7656 0.0000 0.0000
# 5 0.0000 0.0000 0.0000 0.0000 44.3817 0.0000
# 6 0.0000 0.0000 0.0000 0.0000 0.0000 -224.4095
#
#
#
# Elastic Compliance Matrix: (Units=1/GPa)
#
#
# Indices 1 2 3 4 5 6 
#
# 1 0.018480 0.004259 -0.003360 0.000000 0.000000 0.000000
# 2 0.004259 0.027468 -0.003043 0.000000 0.000000 0.000000
# 3 -0.003360 -0.003043 0.007098 0.000000 0.000000 0.000000
# 4 0.000000 0.000000 0.000000 0.053289 0.000000 0.000000
# 5 0.000000 0.000000 0.000000 0.000000 0.022532 0.000000
# 6 0.000000 0.000000 0.000000 0.000000 0.000000 -0.004456
#
#
# Mechanical properties :
#
#
# Convention : Reuss Voigt Hill
#
# Bulk Modulus (GPa) = 20.50968 35.98576 28.24772
# Shear Modulus (GPa) = 34.49438 -17.23556 8.62941
#
# Velocity S-wave (km/s) = 4.29437 -3.03555 2.14791
# Velocity P-wave (km/s) = 5.96270 2.63682 4.61013
#
# Compressibility (1/GPa) = 0.04875746
#
# Stress axis : x y z
#
# Youngs Moduli (GPa) = 54.11275 36.40626 140.88448
#
# Poissons Ratio (x) = -0.15506 0.47334
# Poissons Ratio (y) = -0.23047 0.42877
# Poissons Ratio (z) = 0.18181 0.11080
#
# Static dielectric constant tensor:
#      x y z
#    x 2.011520 0.000000 0.000000 
#    y 0.000000 1.640240 0.000000 
#    z 0.000000 0.000000 1.672030 
# 
# From -- ./inp_files/67086.got.cif
#   From: 2010.05.17/outbox.cif.g08.bks.cpg/sg63_34_cif.got.tgz:67086.got - 2010.06.03 15:47:04.
