data_PCOD9474430
_publ_section_title
;
Structure prediction by ZEFSAII (Michael W. Deem and Ramdas Pophale) SiO2 
 PCOD9474430
Probable space group: C M C M
;
_chemical_formula_sum "Si O2"
_cell_formula_units_Z 104
_cell_length_a 9.556743
_cell_length_b 20.272662
_cell_length_c 27.290976
_cell_angle_alpha 90.000000
_cell_angle_beta 90.000000
_cell_angle_gamma 90.000000
_cell_volume 5287.370629
_symmetry_space_group_name_H-M "C M C M"
_symmetry_group_IT_number 63
_symmetry_cell_setting 'orthorhombic'
loop_
_space_group_symop_operation_xyz
x,y,z
-x,-y,1/2+z
x,-y,-z
-x,y,1/2-z
-x,-y,-z
x,y,1/2-z
-x,y,z
x,-y,1/2+z
1/2+x,1/2+y,z
1/2-x,1/2-y,1/2+z
1/2+x,1/2-y,-z
1/2-x,1/2+y,1/2-z
1/2-x,1/2-y,-z
1/2+x,1/2+y,1/2-z
1/2-x,1/2+y,z
1/2+x,1/2-y,1/2+z
loop_
_atom_site_type_symbol
_atom_site_label
_atom_site_fract_x
_atom_site_fract_y
_atom_site_fract_z
Si Si1 0.270246 0.825374 0.960034
Si Si2 0.000000 0.738280 0.982391
Si Si3 0.833786 0.968882 0.946842
Si Si4 0.341825 0.615345 0.191864
Si Si5 0.164423 0.967325 0.346124
Si Si6 0.339419 0.227000 0.143504
Si Si7 0.165556 0.656152 0.808191
O O1 0.248871 0.900548 0.943611
O O2 0.333108 0.783194 0.914834
O O3 0.122097 0.793943 0.972838
O O4 0.376809 0.816037 0.004327
O O5 0.000000 0.954839 0.941049
O O6 0.799131 0.018860 0.902868
O O7 0.811889 0.000000 0.000000
O O8 0.336615 0.625036 0.250000
O O9 0.500000 0.633336 0.174762
O O10 0.321356 0.538566 0.179647
O O11 0.228960 0.661749 0.166750
O O12 0.262153 0.912778 0.322102
O O13 0.000000 0.947722 0.342563
O O14 0.500000 0.236300 0.158735
O O15 0.244428 0.287325 0.161454
O O16 0.182071 0.668690 0.750000
O O17 0.000000 0.656013 0.819148
#
# Coordination Sequence:
#
# PCOD9474430 Si02
#       7
#    16   8  16  16  16  16  16
#     4  11  22  44  63  97 129 172 215 273 318 395
#     4  10  24  38  68  92 132 170 218 264 328 376
#     4  10  21  40  67  96 132 170 215 264 317 383
#     4  10  21  38  65  97 128 169 216 262 328 398
#     4  10  21  40  68  96 131 178 218 264 324 387
#     4  12  25  41  67  95 132 168 217 277 332 389
#     4  11  26  46  66  95 134 174 219 275 337 398
#
# _framework density 19.669509999999999
#
# number of rings (size 3 to 8) (size 9 to 14) (size 15 to 20)
#    0.000    1.385    3.077    1.846    2.154    7.077 
#    4.154    0.385    0.000    0.000    0.000    0.000 
#    0.000    0.000    0.000    0.000    0.000    0.000 
#
# Total GULP energy -289536.223113 kJ/mol
# GULP energy per Si atom -5568.004291 kJ/mol
# Density = 1.962474 g / cm^3
# Si number density = 19.669510 Si / 1000 Ang^3
#
#
#
# Elastic Constant Matrix: (Units=GPa)
#
#
# Indices 1 2 3 4 5 6 
#
# 1 132.0357 43.2707 9.6232 0.0000 0.0000 0.0000
# 2 43.2707 63.0399 -2.9925 0.0000 0.0000 0.0000
# 3 9.6232 -2.9925 18.9265 0.0000 0.0000 0.0000
# 4 0.0000 0.0000 0.0000 30.7285 0.0000 0.0000
# 5 0.0000 0.0000 0.0000 0.0000 31.1648 0.0000
# 6 0.0000 0.0000 0.0000 0.0000 0.0000 28.8297
#
#
#
# Elastic Compliance Matrix: (Units=1/GPa)
#
#
# Indices 1 2 3 4 5 6 
#
# 1 0.010518 -0.007530 -0.006538 0.000000 0.000000 0.000000
# 2 -0.007530 0.021374 0.007208 0.000000 0.000000 0.000000
# 3 -0.006538 0.007208 0.057300 0.000000 0.000000 0.000000
# 4 0.000000 0.000000 0.000000 0.032543 0.000000 0.000000
# 5 0.000000 0.000000 0.000000 0.000000 0.032087 0.000000
# 6 0.000000 0.000000 0.000000 0.000000 0.000000 0.034686
#
#
# Mechanical properties :
#
#
# Convention : Reuss Voigt Hill
#
# Bulk Modulus (GPa) = 13.25010 34.86724 24.05867
# Shear Modulus (GPa) = 21.98898 29.08465 25.53681
#
# Velocity S-wave (km/s) = 3.34716 3.84951 3.60709
# Velocity P-wave (km/s) = 4.65714 6.12563 5.44116
#
# Compressibility (1/GPa) = 0.07547113
#
# Stress axis : x y z
#
# Youngs Moduli (GPa) = 95.07545 46.78650 17.45193
#
# Poissons Ratio (x) = 0.35230 0.11411
# Poissons Ratio (y) = 0.71591 -0.12579
# Poissons Ratio (z) = 0.62165 -0.33724
#
# Static dielectric constant tensor:
#      x y z
#    x 1.659600 0.000000 0.000000 
#    y 0.000000 1.669130 0.000000 
#    z 0.000000 0.000000 1.740600 
# 
# From -- ./inp_files/67089.got.cif
#   From: 2010.05.17/outbox.cif.g08.bks.cpg/sg63_34_cif.got.tgz:67089.got - 2010.06.03 15:47:04.
