data_PCOD9474074
_publ_section_title
;
Structure prediction by ZEFSAII (Michael W. Deem and Ramdas Pophale) SiO2 
 PCOD9474074
Probable space group: C M C M
;
_chemical_formula_sum "Si O2"
_cell_formula_units_Z 80
_cell_length_a 27.596003
_cell_length_b 8.996264
_cell_length_c 15.483328
_cell_angle_alpha 90.000000
_cell_angle_beta 90.000000
_cell_angle_gamma 90.000000
_cell_volume 3843.905383
_symmetry_space_group_name_H-M "C M C M"
_symmetry_group_IT_number 63
_symmetry_cell_setting 'orthorhombic'
loop_
_space_group_symop_operation_xyz
x,y,z
-x,-y,1/2+z
x,-y,-z
-x,y,1/2-z
-x,-y,-z
x,y,1/2-z
-x,y,z
x,-y,1/2+z
1/2+x,1/2+y,z
1/2-x,1/2-y,1/2+z
1/2+x,1/2-y,-z
1/2-x,1/2+y,1/2-z
1/2-x,1/2-y,-z
1/2+x,1/2+y,1/2-z
1/2-x,1/2+y,z
1/2+x,1/2-y,1/2+z
loop_
_atom_site_type_symbol
_atom_site_label
_atom_site_fract_x
_atom_site_fract_y
_atom_site_fract_z
Si Si1 0.588740 0.153171 0.034243
Si Si2 0.272298 0.218908 0.647106
Si Si3 0.861594 0.893478 0.919708
Si Si4 0.447050 0.407975 0.348644
Si Si5 0.183758 0.404828 0.855202
O O1 0.556517 0.270122 0.086318
O O2 0.632660 0.111822 0.098865
O O3 0.612257 0.246562 0.956226
O O4 0.566509 0.000000 0.000000
O O5 0.267561 0.207276 0.750000
O O6 0.313184 0.341680 0.627564
O O7 0.220071 0.273678 0.615413
O O8 0.291088 0.059258 0.617201
O O9 0.901813 0.984045 0.866050
O O10 0.849335 0.000000 0.000000
O O11 0.444087 0.355474 0.250000
O O12 0.500000 0.481548 0.360815
O O13 0.178995 0.402913 0.750000
#
# Coordination Sequence:
#
# PCOD9474074 Si02
#       5
#    16  16  16  16  16
#     4  11  22  39  60  91 126 156 195 247 309 359
#     4  10  21  37  56  83 118 163 211 250 292 348
#     4  10  22  37  60  88 118 157 198 248 303 359
#     4  10  23  44  68  90 116 156 203 249 301 364
#     4  10  22  37  57  84 121 167 208 245 293 354
#
# _framework density 20.812166000000001
#
# number of rings (size 3 to 8) (size 9 to 14) (size 15 to 20)
#    0.000    1.800    2.000    1.200    5.600    5.600 
#    0.000    0.000    0.000    2.400    0.000    0.000 
#    0.000    0.000    0.000    0.000    0.000    0.000 
#
# Total GULP energy -223508.901057 kJ/mol
# GULP energy per Si atom -5587.722526 kJ/mol
# Density = 2.076480 g / cm^3
# Si number density = 20.812166 Si / 1000 Ang^3
#
#
#
# Elastic Constant Matrix: (Units=GPa)
#
#
# Indices 1 2 3 4 5 6 
#
# 1 64.2150 -2.4851 12.2686 0.0000 0.0000 0.0000
# 2 -2.4851 63.1117 4.5071 0.0000 0.0000 0.0000
# 3 12.2686 4.5071 27.6649 0.0000 0.0000 0.0000
# 4 0.0000 0.0000 0.0000 -20.2641 0.0000 0.0000
# 5 0.0000 0.0000 0.0000 0.0000 4.4382 0.0000
# 6 0.0000 0.0000 0.0000 0.0000 0.0000 21.8186
#
#
#
# Elastic Compliance Matrix: (Units=1/GPa)
#
#
# Indices 1 2 3 4 5 6 
#
# 1 0.017108 0.001230 -0.007787 0.000000 0.000000 0.000000
# 2 0.001230 0.016120 -0.003172 0.000000 0.000000 0.000000
# 3 -0.007787 -0.003172 0.040117 0.000000 0.000000 0.000000
# 4 0.000000 0.000000 0.000000 -0.049348 0.000000 0.000000
# 5 0.000000 0.000000 0.000000 0.000000 0.225318 0.000000
# 6 0.000000 0.000000 0.000000 0.000000 0.000000 0.045833
#
#
# Mechanical properties :
#
#
# Convention : Reuss Voigt Hill
#
# Bulk Modulus (GPa) = 18.55745 20.39699 19.47722
# Shear Modulus (GPa) = 15.03454 10.57859 12.80657
#
# Velocity S-wave (km/s) = 2.69065 2.25697 2.48330
# Velocity P-wave (km/s) = 4.31147 4.07599 4.19538
#
# Compressibility (1/GPa) = 0.05388672
#
# Stress axis : x y z
#
# Youngs Moduli (GPa) = 58.45185 62.03536 24.92704
#
# Poissons Ratio (x) = -0.07629 0.19412
# Poissons Ratio (y) = -0.07188 0.07906
# Poissons Ratio (z) = 0.45518 0.19675
#
# Static dielectric constant tensor:
#      x y z
#    x 1.739600 0.000000 0.000000 
#    y 0.000000 1.757490 0.000000 
#    z 0.000000 0.000000 1.737240 
# 
# From -- ./inp_files/48753.got.cif
#   From: 2010.05.17/outbox.cif.g08.bks.cpg/sg63_25_cif.got.tgz:48753.got - 2010.06.03 15:47:04.
