data_PCOD9474972
_publ_section_title
;
Structure prediction by ZEFSAII (Michael W. Deem and Ramdas Pophale) SiO2 
 PCOD9474972
Probable space group: C M C M
;
_chemical_formula_sum "Si O2"
_cell_formula_units_Z 88
_cell_length_a 13.128851
_cell_length_b 14.702030
_cell_length_c 23.121836
_cell_angle_alpha 90.000000
_cell_angle_beta 90.000000
_cell_angle_gamma 90.000000
_cell_volume 4462.994387
_symmetry_space_group_name_H-M "C M C M"
_symmetry_group_IT_number 63
_symmetry_cell_setting 'orthorhombic'
loop_
_space_group_symop_operation_xyz
x,y,z
-x,-y,1/2+z
x,-y,-z
-x,y,1/2-z
-x,-y,-z
x,y,1/2-z
-x,y,z
x,-y,1/2+z
1/2+x,1/2+y,z
1/2-x,1/2-y,1/2+z
1/2+x,1/2-y,-z
1/2-x,1/2+y,1/2-z
1/2-x,1/2-y,-z
1/2+x,1/2+y,1/2-z
1/2-x,1/2+y,z
1/2+x,1/2-y,1/2+z
loop_
_atom_site_type_symbol
_atom_site_label
_atom_site_fract_x
_atom_site_fract_y
_atom_site_fract_z
Si Si1 0.000000 0.416316 0.450833
Si Si2 0.884158 0.952413 0.121339
Si Si3 0.175457 0.330476 0.982610
Si Si4 0.500000 0.980564 0.317250
Si Si5 0.720742 0.923977 0.815089
Si Si6 0.188266 0.000000 0.000000
Si Si7 0.615317 0.241115 0.139881
O O1 0.000000 0.500000 0.500000
O O2 0.098238 0.357224 0.466958
O O3 0.000000 0.436342 0.382269
O O4 0.862684 0.848308 0.139286
O O5 0.000000 0.975109 0.138775
O O6 0.800685 0.020747 0.146671
O O7 0.875657 0.957651 0.051922
O O8 0.240868 0.421396 0.973369
O O9 0.117542 0.298862 0.925233
O O10 0.250000 0.250000 0.000000
O O11 0.500000 0.939417 0.250000
O O12 0.393624 0.035316 0.319483
O O13 0.756834 0.934406 0.750000
O O14 0.701477 0.818276 0.829187
O O15 0.500000 0.228962 0.163369
#
# Coordination Sequence:
#
# PCOD9474972 Si02
#       7
#     8  16  16   8  16   8  16
#     4  12  22  38  68  99 130 171 220 282 336 401
#     4  11  25  41  65  98 134 176 217 264 328 406
#     4  12  23  36  62 100 133 166 213 271 335 390
#     4  10  22  40  66  98 128 172 224 278 344 400
#     4  11  23  43  69  94 127 168 219 282 334 386
#     4  12  21  39  64  92 138 173 212 265 332 396
#     4  11  22  40  65  97 128 166 222 275 325 395
#
# _framework density 19.717704000000001
#
# number of rings (size 3 to 8) (size 9 to 14) (size 15 to 20)
#    0.000    0.727    6.364    2.455    0.000    1.091 
#    1.636    1.818    2.000    0.000    0.000    0.000 
#    0.000    0.000    0.000    0.000    0.000    0.000 
#
# Total GULP energy -245445.549546 kJ/mol
# GULP energy per Si atom -5578.307944 kJ/mol
# Density = 1.967283 g / cm^3
# Si number density = 19.717704 Si / 1000 Ang^3
#
#
#
# Elastic Constant Matrix: (Units=GPa)
#
#
# Indices 1 2 3 4 5 6 
#
# 1 108.0121 63.6395 32.5485 0.0000 0.0000 0.0000
# 2 63.6395 111.1103 24.8712 0.0000 0.0000 0.0000
# 3 32.5485 24.8712 106.5470 0.0000 0.0000 0.0000
# 4 0.0000 0.0000 0.0000 16.8346 0.0000 0.0000
# 5 0.0000 0.0000 0.0000 0.0000 24.7538 0.0000
# 6 0.0000 0.0000 0.0000 0.0000 0.0000 49.5919
#
#
#
# Elastic Compliance Matrix: (Units=1/GPa)
#
#
# Indices 1 2 3 4 5 6 
#
# 1 0.014653 -0.007798 -0.002656 0.000000 0.000000 0.000000
# 2 -0.007798 0.013646 -0.000803 0.000000 0.000000 0.000000
# 3 -0.002656 -0.000803 0.010384 0.000000 0.000000 0.000000
# 4 0.000000 0.000000 0.000000 0.059401 0.000000 0.000000
# 5 0.000000 0.000000 0.000000 0.000000 0.040398 0.000000
# 6 0.000000 0.000000 0.000000 0.000000 0.000000 0.020165
#
#
# Mechanical properties :
#
#
# Convention : Reuss Voigt Hill
#
# Bulk Modulus (GPa) = 61.84650 63.08753 62.46702
# Shear Modulus (GPa) = 26.80213 31.87675 29.33944
#
# Velocity S-wave (km/s) = 3.69086 4.02513 3.86161
# Velocity P-wave (km/s) = 7.04254 7.32578 7.18555
#
# Compressibility (1/GPa) = 0.01616906
#
# Stress axis : x y z
#
# Youngs Moduli (GPa) = 68.24442 73.27956 96.29839
#
# Poissons Ratio (x) = 0.57145 0.25577
# Poissons Ratio (y) = 0.53219 0.07735
# Poissons Ratio (z) = 0.18126 0.05886
#
# Static dielectric constant tensor:
#      x y z
#    x 1.694100 0.000000 0.000000 
#    y 0.000000 1.692240 0.000000 
#    z 0.000000 0.000000 1.729480 
# 
# From -- ./inp_files/61287.got.cif
#   From: 2010.05.17/outbox.cif.g08.bks.cpg/sg63_31_cif.got.tgz:61287.got - 2010.06.03 15:47:04.
