data_PCOD9474981
_publ_section_title
;
Structure prediction by ZEFSAII (Michael W. Deem and Ramdas Pophale) SiO2 
 PCOD9474981
Probable space group: C M C M
;
_chemical_formula_sum "Si O2"
_cell_formula_units_Z 68
_cell_length_a 19.873841
_cell_length_b 9.911195
_cell_length_c 17.751645
_cell_angle_alpha 90.000000
_cell_angle_beta 90.000000
_cell_angle_gamma 90.000000
_cell_volume 3496.603887
_symmetry_space_group_name_H-M "C M C M"
_symmetry_group_IT_number 63
_symmetry_cell_setting 'orthorhombic'
loop_
_space_group_symop_operation_xyz
x,y,z
-x,-y,1/2+z
x,-y,-z
-x,y,1/2-z
-x,-y,-z
x,y,1/2-z
-x,y,z
x,-y,1/2+z
1/2+x,1/2+y,z
1/2-x,1/2-y,1/2+z
1/2+x,1/2-y,-z
1/2-x,1/2+y,1/2-z
1/2-x,1/2-y,-z
1/2+x,1/2+y,1/2-z
1/2-x,1/2+y,z
1/2+x,1/2-y,1/2+z
loop_
_atom_site_type_symbol
_atom_site_label
_atom_site_fract_x
_atom_site_fract_y
_atom_site_fract_z
Si Si1 0.500000 0.162577 0.005291
Si Si2 0.638027 0.484066 0.839159
Si Si3 0.113218 0.709994 0.377031
Si Si4 0.500000 0.153582 0.250000
Si Si5 0.253013 0.123050 0.443360
Si Si6 0.000000 0.084770 0.079669
O O1 0.433207 0.212508 0.048636
O O2 0.500000 0.253717 0.931297
O O3 0.500000 0.000000 0.000000
O O4 0.641847 0.459914 0.750000
O O5 0.643843 0.644662 0.854681
O O6 0.691764 0.396194 0.885328
O O7 0.564978 0.453622 0.872780
O O8 0.059870 0.661523 0.314957
O O9 0.177765 0.620759 0.396406
O O10 0.250000 0.250000 0.500000
O O11 0.249959 0.000000 0.500000
O O12 0.000000 0.000000 0.000000
#
# Coordination Sequence:
#
# PCOD9474981 Si02
#       6
#     8  16  16   4  16   8
#     4  11  23  40  70 101 132 181 235 295 346 409
#     4  12  25  41  70 107 141 184 241 297 360 417
#     4  11  22  41  71  99 137 178 237 283 351 423
#     4  10  22  40  70 100 136 188 222 286 362 422
#     4  12  25  45  70 104 142 186 238 291 353 429
#     4  12  21  41  74 102 136 182 245 297 339 427
#
# _framework density 19.447441000000001
#
# number of rings (size 3 to 8) (size 9 to 14) (size 15 to 20)
#    0.000    0.471    5.882    3.882    1.647    0.000 
#    0.000    0.000   20.706    0.000    0.000    0.000 
#    0.000    0.000    0.000    0.000    0.000    0.000 
#
# Total GULP energy -189282.774106 kJ/mol
# GULP energy per Si atom -5567.140415 kJ/mol
# Density = 1.940318 g / cm^3
# Si number density = 19.447441 Si / 1000 Ang^3
#
#
#
# Elastic Constant Matrix: (Units=GPa)
#
#
# Indices 1 2 3 4 5 6 
#
# 1 137.9511 -5.5932 62.4853 0.0000 0.0000 0.0000
# 2 -5.5932 78.4940 45.8903 0.0000 0.0000 0.0000
# 3 62.4853 45.8903 136.9627 0.0000 0.0000 0.0000
# 4 0.0000 0.0000 0.0000 4.3624 0.0000 0.0000
# 5 0.0000 0.0000 0.0000 0.0000 38.3262 0.0000
# 6 0.0000 0.0000 0.0000 0.0000 0.0000 41.5000
#
#
#
# Elastic Compliance Matrix: (Units=1/GPa)
#
#
# Indices 1 2 3 4 5 6 
#
# 1 0.010174 0.004276 -0.006074 0.000000 0.000000 0.000000
# 2 0.004276 0.017641 -0.007861 0.000000 0.000000 0.000000
# 3 -0.006074 -0.007861 0.012706 0.000000 0.000000 0.000000
# 4 0.000000 0.000000 0.000000 0.229231 0.000000 0.000000
# 5 0.000000 0.000000 0.000000 0.000000 0.026092 0.000000
# 6 0.000000 0.000000 0.000000 0.000000 0.000000 0.024096
#
#
# Mechanical properties :
#
#
# Convention : Reuss Voigt Hill
#
# Bulk Modulus (GPa) = 47.16611 62.10806 54.63708
# Shear Modulus (GPa) = 14.43726 33.54609 23.99168
#
# Velocity S-wave (km/s) = 2.72761 4.15777 3.51617
# Velocity P-wave (km/s) = 5.85026 7.41991 6.68134
#
# Compressibility (1/GPa) = 0.02120166
#
# Stress axis : x y z
#
# Youngs Moduli (GPa) = 98.29331 56.68737 78.70010
#
# Poissons Ratio (x) = -0.24240 0.47804
# Poissons Ratio (y) = -0.42031 0.61870
# Poissons Ratio (z) = 0.59705 0.44565
#
# Static dielectric constant tensor:
#      x y z
#    x 1.661330 0.000000 0.000000 
#    y 0.000000 1.714020 0.000000 
#    z 0.000000 0.000000 1.725890 
# 
# From -- ./inp_files/55151.got.cif
#   From: 2010.05.17/outbox.cif.g08.bks.cpg/sg63_28_cif.got.tgz:55151.got - 2010.06.03 15:47:04.
