data_PCOD9474610
_publ_section_title
;
Structure prediction by ZEFSAII (Michael W. Deem and Ramdas Pophale) SiO2 
 PCOD9474610
Probable space group: C M C M
;
_chemical_formula_sum "Si O2"
_cell_formula_units_Z 96
_cell_length_a 19.802957
_cell_length_b 14.665642
_cell_length_c 16.225703
_cell_angle_alpha 90.000000
_cell_angle_beta 90.000000
_cell_angle_gamma 90.000000
_cell_volume 4712.318606
_symmetry_space_group_name_H-M "C M C M"
_symmetry_group_IT_number 63
_symmetry_cell_setting 'orthorhombic'
loop_
_space_group_symop_operation_xyz
x,y,z
-x,-y,1/2+z
x,-y,-z
-x,y,1/2-z
-x,-y,-z
x,y,1/2-z
-x,y,z
x,-y,1/2+z
1/2+x,1/2+y,z
1/2-x,1/2-y,1/2+z
1/2+x,1/2-y,-z
1/2-x,1/2+y,1/2-z
1/2-x,1/2-y,-z
1/2+x,1/2+y,1/2-z
1/2-x,1/2+y,z
1/2+x,1/2-y,1/2+z
loop_
_atom_site_type_symbol
_atom_site_label
_atom_site_fract_x
_atom_site_fract_y
_atom_site_fract_z
Si Si1 0.726940 0.862182 0.160094
Si Si2 0.576449 0.111732 0.606210
Si Si3 0.574266 0.756843 0.949062
Si Si4 0.242008 0.147651 0.340675
Si Si5 0.106397 0.418963 0.656571
Si Si6 0.322741 0.401096 0.013774
O O1 0.746549 0.901097 0.250000
O O2 0.645370 0.864208 0.154717
O O3 0.750748 0.757046 0.158525
O O4 0.761571 0.908011 0.080404
O O5 0.500000 0.131705 0.638281
O O6 0.583885 0.170486 0.523181
O O7 0.581752 0.002063 0.600278
O O8 0.500000 0.716569 0.957010
O O9 0.578609 0.821107 0.869612
O O10 0.628344 0.677374 0.953627
O O11 0.212063 0.125849 0.250000
O O12 0.313039 0.095158 0.347326
O O13 0.201795 0.127284 0.423245
O O14 0.087448 0.442611 0.750000
O O15 0.354776 0.500000 0.000000
#
# Coordination Sequence:
#
# PCOD9474610 Si02
#       6
#    16  16  16  16  16  16
#     4  11  22  40  66  94 127 167 211 259 316 381
#     4  11  23  39  62  92 130 169 203 248 316 389
#     4  11  24  42  61  87 125 167 212 264 318 376
#     4  10  21  40  65  93 124 163 210 262 317 373
#     4  11  22  38  62  94 128 162 204 254 316 388
#     4  12  24  41  67  92 121 167 218 269 317 368
#
# _framework density 20.372136999999999
#
# number of rings (size 3 to 8) (size 9 to 14) (size 15 to 20)
#    0.000    1.000    3.333    4.000    0.000    6.000 
#    0.000    0.000    0.000    0.500    0.000    2.333 
#    0.000    0.000    0.000    0.000    0.000    0.000 
#
# Total GULP energy -267933.087336 kJ/mol
# GULP energy per Si atom -5581.939319 kJ/mol
# Density = 2.032577 g / cm^3
# Si number density = 20.372137 Si / 1000 Ang^3
#
#
#
# Elastic Constant Matrix: (Units=GPa)
#
#
# Indices 1 2 3 4 5 6 
#
# 1 100.7713 37.8796 30.8004 0.0000 0.0000 0.0000
# 2 37.8796 101.8359 22.9470 0.0000 0.0000 0.0000
# 3 30.8004 22.9470 92.6257 0.0000 0.0000 0.0000
# 4 0.0000 0.0000 0.0000 5.0000 0.0000 0.0000
# 5 0.0000 0.0000 0.0000 0.0000 7.4440 0.0000
# 6 0.0000 0.0000 0.0000 0.0000 0.0000 13.7351
#
#
#
# Elastic Compliance Matrix: (Units=1/GPa)
#
#
# Indices 1 2 3 4 5 6 
#
# 1 0.012344 -0.003883 -0.003143 0.000000 0.000000 0.000000
# 2 -0.003883 0.011622 -0.001588 0.000000 0.000000 0.000000
# 3 -0.003143 -0.001588 0.012235 0.000000 0.000000 0.000000
# 4 0.000000 0.000000 0.000000 0.200002 0.000000 0.000000
# 5 0.000000 0.000000 0.000000 0.000000 0.134336 0.000000
# 6 0.000000 0.000000 0.000000 0.000000 0.000000 0.072806
#
#
# Mechanical properties :
#
#
# Convention : Reuss Voigt Hill
#
# Bulk Modulus (GPa) = 52.70752 53.16521 52.93637
# Shear Modulus (GPa) = 10.70902 18.80954 14.75928
#
# Velocity S-wave (km/s) = 2.29524 3.04188 2.69454
# Velocity P-wave (km/s) = 5.74044 6.20411 5.97678
#
# Compressibility (1/GPa) = 0.01897262
#
# Stress axis : x y z
#
# Youngs Moduli (GPa) = 81.01302 86.04366 81.73606
#
# Poissons Ratio (x) = 0.33414 0.25686
# Poissons Ratio (y) = 0.31460 0.12979
# Poissons Ratio (z) = 0.25459 0.13663
#
# Static dielectric constant tensor:
#      x y z
#    x 1.731290 0.000000 0.000000 
#    y 0.000000 1.730480 0.000000 
#    z 0.000000 0.000000 1.747380 
# 
# From -- ./inp_files/35385.got.cif
#   From: 2010.05.17/outbox.cif.g08.bks.cpg/sg63_18_cif.got.tgz:35385.got - 2010.06.03 15:47:04.
