data_PCOD9474453
_publ_section_title
;
Structure prediction by ZEFSAII (Michael W. Deem and Ramdas Pophale) SiO2 
 PCOD9474453
Probable space group: C M C M
;
_chemical_formula_sum "Si O2"
_cell_formula_units_Z 116
_cell_length_a 26.968741
_cell_length_b 25.728538
_cell_length_c 8.998505
_cell_angle_alpha 90.000000
_cell_angle_beta 90.000000
_cell_angle_gamma 90.000000
_cell_volume 6243.759169
_symmetry_space_group_name_H-M "C M C M"
_symmetry_group_IT_number 63
_symmetry_cell_setting 'orthorhombic'
loop_
_space_group_symop_operation_xyz
x,y,z
-x,-y,1/2+z
x,-y,-z
-x,y,1/2-z
-x,-y,-z
x,y,1/2-z
-x,y,z
x,-y,1/2+z
1/2+x,1/2+y,z
1/2-x,1/2-y,1/2+z
1/2+x,1/2-y,-z
1/2-x,1/2+y,1/2-z
1/2-x,1/2-y,-z
1/2+x,1/2+y,1/2-z
1/2-x,1/2+y,z
1/2+x,1/2-y,1/2+z
loop_
_atom_site_type_symbol
_atom_site_label
_atom_site_fract_x
_atom_site_fract_y
_atom_site_fract_z
Si Si1 0.631022 0.945639 0.929020
Si Si2 0.742648 0.086738 0.073643
Si Si3 0.897370 0.146801 0.414396
Si Si4 0.156482 0.946631 0.426202
Si Si5 0.114709 0.266154 0.071644
Si Si6 0.717356 0.205431 0.426407
Si Si7 0.500000 0.361562 0.750000
Si Si8 0.056787 0.646434 0.427255
O O1 0.628901 0.948841 0.750000
O O2 0.688145 0.933725 0.969739
O O3 0.594964 0.898600 0.974574
O O4 0.615732 0.000000 0.000000
O O5 0.749559 0.076546 0.250000
O O6 0.741135 0.148861 0.050826
O O7 0.787324 0.062390 0.982252
O O8 0.871907 0.142442 0.250000
O O9 0.875210 0.102391 0.517087
O O10 0.888561 0.205391 0.469888
O O11 0.955395 0.139818 0.376809
O O12 0.155020 0.950917 0.250000
O O13 0.137851 0.000000 0.500000
O O14 0.116291 0.268428 0.250000
O O15 0.163563 0.291171 0.000500
O O16 0.069585 0.300414 0.011121
O O17 0.712786 0.213452 0.250000
O O18 0.750000 0.250000 0.500000
O O19 0.063570 0.654504 0.250000
O O20 0.000000 0.630841 0.453070
#
# Coordination Sequence:
#
# PCOD9474453 Si02
#       8
#    16  16  16  16  16  16   4  16
#     4  10  21  39  59  84 118 159 207 257 310 366
#     4  10  21  39  60  85 122 168 209 252 307 364
#     4   9  21  41  66  90 123 163 201 248 311 358
#     4  12  25  41  65  94 127 161 208 257 308 376
#     4  11  22  36  62  92 126 162 204 254 308 368
#     4  11  22  37  57  86 129 167 206 248 305 365
#     4   8  20  44  72  88 126 164 204 252 310 370
#     4  10  22  40  61  86 119 164 209 258 316 372
#
# _framework density 18.578551000000001
#
# number of rings (size 3 to 8) (size 9 to 14) (size 15 to 20)
#    0.414    1.241    1.379    3.310    0.966    8.276 
#    0.000    0.690    0.000    0.000    0.000    0.000 
#    0.000    0.000    0.000    0.000    0.000    0.000 
#
# Total GULP energy -323367.589152 kJ/mol
# GULP energy per Si atom -5575.303261 kJ/mol
# Density = 1.853627 g / cm^3
# Si number density = 18.578551 Si / 1000 Ang^3
#
#
#
# Elastic Constant Matrix: (Units=GPa)
#
#
# Indices 1 2 3 4 5 6 
#
# 1 52.2128 23.1906 17.1977 0.0000 0.0000 0.0000
# 2 23.1906 125.9191 52.8132 0.0000 0.0000 0.0000
# 3 17.1977 52.8132 54.8502 0.0000 0.0000 0.0000
# 4 0.0000 0.0000 0.0000 31.4015 0.0000 0.0000
# 5 0.0000 0.0000 0.0000 0.0000 21.5641 0.0000
# 6 0.0000 0.0000 0.0000 0.0000 0.0000 0.5166
#
#
#
# Elastic Compliance Matrix: (Units=1/GPa)
#
#
# Indices 1 2 3 4 5 6 
#
# 1 0.021629 -0.001911 -0.004942 0.000000 0.000000 0.000000
# 2 -0.001911 0.013490 -0.012390 0.000000 0.000000 0.000000
# 3 -0.004942 -0.012390 0.031711 0.000000 0.000000 0.000000
# 4 0.000000 0.000000 0.000000 0.031846 0.000000 0.000000
# 5 0.000000 0.000000 0.000000 0.000000 0.046373 0.000000
# 6 0.000000 0.000000 0.000000 0.000000 0.000000 1.935667
#
#
# Mechanical properties :
#
#
# Convention : Reuss Voigt Hill
#
# Bulk Modulus (GPa) = 35.27995 46.59836 40.93915
# Shear Modulus (GPa) = 2.34891 20.01516 11.18203
#
# Velocity S-wave (km/s) = 1.12564 3.28583 2.45598
# Velocity P-wave (km/s) = 4.55195 6.28743 5.48872
#
# Compressibility (1/GPa) = 0.02834471
#
# Stress axis : x y z
#
# Youngs Moduli (GPa) = 46.23480 74.12801 31.53498
#
# Poissons Ratio (x) = 0.14164 0.15584
# Poissons Ratio (y) = 0.08834 0.39072
# Poissons Ratio (z) = 0.22848 0.91845
#
# Static dielectric constant tensor:
#      x y z
#    x 1.219440 0.000000 0.000000 
#    y 0.000000 1.635600 0.000000 
#    z 0.000000 0.000000 1.624980 
# 
# From -- ./inp_files/12959.got.cif
#   From: 2010.05.17/outbox.cif.g08.bks.cpg/sg63_7_cif.got.tgz:12959.got - 2010.06.03 15:47:04.
