data_PCOD9474191
_publ_section_title
;
Structure prediction by ZEFSAII (Michael W. Deem and Ramdas Pophale) SiO2 
 PCOD9474191
Probable space group: C M C M
;
_chemical_formula_sum "Si O2"
_cell_formula_units_Z 80
_cell_length_a 31.085164
_cell_length_b 14.819021
_cell_length_c 8.657367
_cell_angle_alpha 90.000000
_cell_angle_beta 90.000000
_cell_angle_gamma 90.000000
_cell_volume 3988.030810
_symmetry_space_group_name_H-M "C M C M"
_symmetry_group_IT_number 63
_symmetry_cell_setting 'orthorhombic'
loop_
_space_group_symop_operation_xyz
x,y,z
-x,-y,1/2+z
x,-y,-z
-x,y,1/2-z
-x,-y,-z
x,y,1/2-z
-x,y,z
x,-y,1/2+z
1/2+x,1/2+y,z
1/2-x,1/2-y,1/2+z
1/2+x,1/2-y,-z
1/2-x,1/2+y,1/2-z
1/2-x,1/2-y,-z
1/2+x,1/2+y,1/2-z
1/2-x,1/2+y,z
1/2+x,1/2-y,1/2+z
loop_
_atom_site_type_symbol
_atom_site_label
_atom_site_fract_x
_atom_site_fract_y
_atom_site_fract_z
Si Si1 0.547007 0.602483 0.435605
Si Si2 0.953311 0.602459 0.064689
Si Si3 0.364305 0.899213 0.065682
Si Si4 0.202072 0.754866 0.935396
Si Si5 0.636476 0.398453 0.065784
O O1 0.545953 0.500000 0.500000
O O2 0.550789 0.600896 0.250000
O O3 0.500000 0.642254 0.475864
O O4 0.590636 0.640918 0.507105
O O5 0.950412 0.600394 0.250000
O O6 0.000000 0.642384 0.021469
O O7 0.953907 0.500000 0.000000
O O8 0.909413 0.640837 0.996272
O O9 0.367144 0.904843 0.250000
O O10 0.324981 0.834740 0.022595
O O11 0.358905 0.000000 0.000000
O O12 0.202940 0.761968 0.750000
O O13 0.250000 0.750000 0.000000
O O14 0.175322 0.838145 0.004037
O O15 0.636236 0.401582 0.250000
O O16 0.640174 0.500000 0.000000
#
# Coordination Sequence:
#
# PCOD9474191 Si02
#       5
#    16  16  16  16  16
#     4   9  16  28  50  81 117 155 193 234 281 337
#     4   9  16  27  48  79 114 151 189 228 272 326
#     4  10  21  37  60  87 116 151 189 232 283 339
#     4  11  25  44  63  86 115 149 193 244 298 352
#     4  11  22  38  62  89 119 156 195 240 292 347
#
# _framework density 20.060027000000002
#
# number of rings (size 3 to 8) (size 9 to 14) (size 15 to 20)
#    0.000    2.000    0.000    6.600    0.000    6.400 
#    0.000    3.000    0.000    1.200    0.000    0.000 
#    0.000    0.000    0.000    0.000    0.000    0.000 
#
# Total GULP energy -223360.828810 kJ/mol
# GULP energy per Si atom -5584.020720 kJ/mol
# Density = 2.001437 g / cm^3
# Si number density = 20.060027 Si / 1000 Ang^3
#
#
#
# Elastic Constant Matrix: (Units=GPa)
#
#
# Indices 1 2 3 4 5 6 
#
# 1 245.7849 78.6009 80.4056 0.0000 0.0000 0.0000
# 2 78.6009 101.9260 42.6525 0.0000 0.0000 0.0000
# 3 80.4056 42.6525 93.5323 0.0000 0.0000 0.0000
# 4 0.0000 0.0000 0.0000 17.7867 0.0000 0.0000
# 5 0.0000 0.0000 0.0000 0.0000 45.7212 0.0000
# 6 0.0000 0.0000 0.0000 0.0000 0.0000 46.9157
#
#
#
# Elastic Compliance Matrix: (Units=1/GPa)
#
#
# Indices 1 2 3 4 5 6 
#
# 1 0.006437 -0.003273 -0.004041 0.000000 0.000000 0.000000
# 2 -0.003273 0.013789 -0.003474 0.000000 0.000000 0.000000
# 3 -0.004041 -0.003474 0.015750 0.000000 0.000000 0.000000
# 4 0.000000 0.000000 0.000000 0.056222 0.000000 0.000000
# 5 0.000000 0.000000 0.000000 0.000000 0.021872 0.000000
# 6 0.000000 0.000000 0.000000 0.000000 0.000000 0.021315
#
#
# Mechanical properties :
#
#
# Convention : Reuss Voigt Hill
#
# Bulk Modulus (GPa) = 69.44977 93.84012 81.64495
# Shear Modulus (GPa) = 30.90965 38.05700 34.48332
#
# Velocity S-wave (km/s) = 3.92963 4.36036 4.15059
# Velocity P-wave (km/s) = 7.43542 8.49891 7.98489
#
# Compressibility (1/GPa) = 0.01439889
#
# Stress axis : x y z
#
# Youngs Moduli (GPa) = 155.34236 72.52176 63.49194
#
# Poissons Ratio (x) = 0.23737 0.25659
# Poissons Ratio (y) = 0.50845 0.22059
# Poissons Ratio (z) = 0.62780 0.25196
#
# Static dielectric constant tensor:
#      x y z
#    x 1.731270 0.000000 0.000000 
#    y 0.000000 1.781590 0.000000 
#    z 0.000000 0.000000 1.667660 
# 
# From -- ./inp_files/12032.got.cif
#   From: 2010.05.17/outbox.cif.g08.bks.cpg/sg63_7_cif.got.tgz:12032.got - 2010.06.03 15:47:04.
