data_PCOD9474139
_publ_section_title
;
Structure prediction by ZEFSAII (Michael W. Deem and Ramdas Pophale) SiO2 
 PCOD9474139
Probable space group: C M C M
;
_chemical_formula_sum "Si O2"
_cell_formula_units_Z 80
_cell_length_a 16.636504
_cell_length_b 29.362243
_cell_length_c 8.690825
_cell_angle_alpha 90.000000
_cell_angle_beta 90.000000
_cell_angle_gamma 90.000000
_cell_volume 4245.338286
_symmetry_space_group_name_H-M "C M C M"
_symmetry_group_IT_number 63
_symmetry_cell_setting 'orthorhombic'
loop_
_space_group_symop_operation_xyz
x,y,z
-x,-y,1/2+z
x,-y,-z
-x,y,1/2-z
-x,-y,-z
x,y,1/2-z
-x,y,z
x,-y,1/2+z
1/2+x,1/2+y,z
1/2-x,1/2-y,1/2+z
1/2+x,1/2-y,-z
1/2-x,1/2+y,1/2-z
1/2-x,1/2-y,-z
1/2+x,1/2+y,1/2-z
1/2-x,1/2+y,z
1/2+x,1/2-y,1/2+z
loop_
_atom_site_type_symbol
_atom_site_label
_atom_site_fract_x
_atom_site_fract_y
_atom_site_fract_z
Si Si1 0.674745 0.453162 0.932106
Si Si2 0.267464 0.132555 0.570472
Si Si3 0.404845 0.805599 0.435732
Si Si4 0.637994 0.288779 0.428692
Si Si5 0.000000 0.935517 0.427322
Si Si6 0.000000 0.842506 0.922534
O O1 0.671921 0.455885 0.750000
O O2 0.709963 0.500000 0.000000
O O3 0.723901 0.408203 0.981490
O O4 0.583338 0.449873 0.994966
O O5 0.267210 0.119131 0.750000
O O6 0.357002 0.148089 0.524481
O O7 0.215947 0.179323 0.559414
O O8 0.396839 0.799374 0.250000
O O9 0.500000 0.806162 0.471864
O O10 0.362058 0.763700 0.522541
O O11 0.611185 0.291739 0.250000
O O12 0.576175 0.311487 0.546772
O O13 0.000000 0.949405 0.250000
O O14 0.000000 0.881230 0.449180
O O15 0.000000 0.862027 0.750000
#
# Coordination Sequence:
#
# PCOD9474139 Si02
#       6
#    16  16  16  16   8   8
#     4  12  25  41  62  87 116 152 192 238 288 343
#     4  10  22  39  58  83 117 155 194 240 292 343
#     4  10  21  37  58  84 117 155 195 240 289 346
#     4  11  21  34  55  82 117 158 196 238 284 336
#     4  12  23  39  60  86 121 156 194 235 279 337
#     4  12  22  33  53  82 118 160 198 233 278 333
#
# _framework density 18.844200000000001
#
# number of rings (size 3 to 8) (size 9 to 14) (size 15 to 20)
#    0.000    1.000    3.000    5.100    0.000    1.600 
#    0.000    0.000    0.000    0.600    0.000    0.000 
#    0.000    0.000    0.000    0.000    0.000    0.000 
#
# Total GULP energy -223349.550588 kJ/mol
# GULP energy per Si atom -5583.738765 kJ/mol
# Density = 1.880131 g / cm^3
# Si number density = 18.844200 Si / 1000 Ang^3
#
#
#
# Elastic Constant Matrix: (Units=GPa)
#
#
# Indices 1 2 3 4 5 6 
#
# 1 53.2839 52.2142 38.4277 0.0000 0.0000 0.0000
# 2 52.2142 115.3174 49.3286 0.0000 0.0000 0.0000
# 3 38.4277 49.3286 102.7667 0.0000 0.0000 0.0000
# 4 0.0000 0.0000 0.0000 33.0392 0.0000 0.0000
# 5 0.0000 0.0000 0.0000 0.0000 15.8837 0.0000
# 6 0.0000 0.0000 0.0000 0.0000 0.0000 13.3840
#
#
#
# Elastic Compliance Matrix: (Units=1/GPa)
#
#
# Indices 1 2 3 4 5 6 
#
# 1 0.037777 -0.013921 -0.007444 0.000000 0.000000 0.000000
# 2 -0.013921 0.016042 -0.002495 0.000000 0.000000 0.000000
# 3 -0.007444 -0.002495 0.013712 0.000000 0.000000 0.000000
# 4 0.000000 0.000000 0.000000 0.030267 0.000000 0.000000
# 5 0.000000 0.000000 0.000000 0.000000 0.062958 0.000000
# 6 0.000000 0.000000 0.000000 0.000000 0.000000 0.074716
#
#
# Mechanical properties :
#
#
# Convention : Reuss Voigt Hill
#
# Bulk Modulus (GPa) = 50.47488 61.25656 55.86572
# Shear Modulus (GPa) = 17.25357 21.22121 19.23739
#
# Velocity S-wave (km/s) = 3.02916 3.35944 3.19856
# Velocity P-wave (km/s) = 6.25123 6.90110 6.58419
#
# Compressibility (1/GPa) = 0.01981184
#
# Stress axis : x y z
#
# Youngs Moduli (GPa) = 26.47103 62.33611 72.92939
#
# Poissons Ratio (x) = 0.86776 0.54289
# Poissons Ratio (y) = 0.36850 0.18195
# Poissons Ratio (z) = 0.19705 0.15552
#
# Static dielectric constant tensor:
#      x y z
#    x 1.667370 0.000000 0.000000 
#    y 0.000000 1.664500 0.000000 
#    z 0.000000 0.000000 1.645030 
# 
# From -- ./inp_files/6478.got.cif
#   From: 2010.05.17/outbox.cif.g08.bks.cpg/sg63_4_cif.got.tgz:6478.got - 2010.06.03 15:47:04.
