data_PCOD9474677
_publ_section_title
;
Structure prediction by ZEFSAII (Michael W. Deem and Ramdas Pophale) SiO2 
 PCOD9474677
Probable space group: C M C M
;
_chemical_formula_sum "Si O2"
_cell_formula_units_Z 72
_cell_length_a 10.329345
_cell_length_b 14.835388
_cell_length_c 25.439744
_cell_angle_alpha 90.000000
_cell_angle_beta 90.000000
_cell_angle_gamma 90.000000
_cell_volume 3898.382322
_symmetry_space_group_name_H-M "C M C M"
_symmetry_group_IT_number 63
_symmetry_cell_setting 'orthorhombic'
loop_
_space_group_symop_operation_xyz
x,y,z
-x,-y,1/2+z
x,-y,-z
-x,y,1/2-z
-x,-y,-z
x,y,1/2-z
-x,y,z
x,-y,1/2+z
1/2+x,1/2+y,z
1/2-x,1/2-y,1/2+z
1/2+x,1/2-y,-z
1/2-x,1/2+y,1/2-z
1/2-x,1/2-y,-z
1/2+x,1/2+y,1/2-z
1/2-x,1/2+y,z
1/2+x,1/2-y,1/2+z
loop_
_atom_site_type_symbol
_atom_site_label
_atom_site_fract_x
_atom_site_fract_y
_atom_site_fract_z
Si Si1 0.000000 0.395841 0.623900
Si Si2 0.000000 0.432169 0.188859
Si Si3 0.000000 0.789767 0.187122
Si Si4 0.649950 0.725063 0.046335
Si Si5 0.244878 0.465136 0.941668
Si Si6 0.246418 0.135994 0.630645
O O1 0.877168 0.420451 0.587947
O O2 0.000000 0.463496 0.673034
O O3 0.000000 0.298067 0.649458
O O4 0.872388 0.391315 0.163151
O O5 0.000000 0.417438 0.250000
O O6 0.871918 0.842763 0.168956
O O7 0.000000 0.772268 0.250000
O O8 0.500000 0.752944 0.036532
O O9 0.655337 0.617316 0.053832
O O10 0.708233 0.778768 0.095903
O O11 0.750000 0.750000 0.000000
O O12 0.286674 0.552456 0.908148
O O13 0.210888 0.500000 0.000000
#
# Coordination Sequence:
#
# PCOD9474677 Si02
#       6
#     8   8   8  16  16  16
#     4  10  22  38  66  95 127 163 222 270 308 387
#     4  10  21  43  66  88 122 172 220 274 326 375
#     4  12  25  43  67  95 126 169 218 279 327 364
#     4  12  26  41  64  97 131 170 212 256 317 392
#     4  11  23  39  64  95 134 171 206 254 326 391
#     4  11  24  42  65  95 129 167 217 266 318 388
#
# _framework density 18.469199
#
# number of rings (size 3 to 8) (size 9 to 14) (size 15 to 20)
#    0.000    0.889    5.556    1.333    4.667    0.444 
#    0.000    0.000    0.000    1.333    0.000    0.000 
#    0.000    0.000    0.000    0.000    0.000    0.000 
#
# Total GULP energy -201027.162867 kJ/mol
# GULP energy per Si atom -5584.087857 kJ/mol
# Density = 1.842716 g / cm^3
# Si number density = 18.469199 Si / 1000 Ang^3
#
#
#
# Elastic Constant Matrix: (Units=GPa)
#
#
# Indices 1 2 3 4 5 6 
#
# 1 105.1888 28.1503 23.4421 0.0000 0.0000 0.0000
# 2 28.1503 106.0938 39.7141 0.0000 0.0000 0.0000
# 3 23.4421 39.7141 110.6615 0.0000 0.0000 0.0000
# 4 0.0000 0.0000 0.0000 14.9308 0.0000 0.0000
# 5 0.0000 0.0000 0.0000 0.0000 8.1172 0.0000
# 6 0.0000 0.0000 0.0000 0.0000 0.0000 17.9696
#
#
#
# Elastic Compliance Matrix: (Units=1/GPa)
#
#
# Indices 1 2 3 4 5 6 
#
# 1 0.010419 -0.002239 -0.001404 0.000000 0.000000 0.000000
# 2 -0.002239 0.011370 -0.003606 0.000000 0.000000 0.000000
# 3 -0.001404 -0.003606 0.010628 0.000000 0.000000 0.000000
# 4 0.000000 0.000000 0.000000 0.066976 0.000000 0.000000
# 5 0.000000 0.000000 0.000000 0.000000 0.123196 0.000000
# 6 0.000000 0.000000 0.000000 0.000000 0.000000 0.055650
#
#
# Mechanical properties :
#
#
# Convention : Reuss Voigt Hill
#
# Bulk Modulus (GPa) = 55.80622 56.06190 55.93406
# Shear Modulus (GPa) = 16.73880 23.57935 20.15907
#
# Velocity S-wave (km/s) = 3.01376 3.57695 3.30737
# Velocity P-wave (km/s) = 6.51090 6.89054 6.70341
#
# Compressibility (1/GPa) = 0.01791915
#
# Stress axis : x y z
#
# Youngs Moduli (GPa) = 95.98118 87.95423 94.09114
#
# Poissons Ratio (x) = 0.19693 0.13206
# Poissons Ratio (y) = 0.21491 0.33929
# Poissons Ratio (z) = 0.13471 0.31716
#
# Static dielectric constant tensor:
#      x y z
#    x 1.598850 0.000000 0.000000 
#    y 0.000000 1.660520 0.000000 
#    z 0.000000 0.000000 1.607040 
# 
# From -- ./inp_files/66373.got.cif
#   From: 2010.05.17/outbox.cif.g08.bks.cpg/sg63_34_cif.got.tgz:66373.got - 2010.06.03 15:47:04.
