data_PCOD9474281
_publ_section_title
;
Structure prediction by ZEFSAII (Michael W. Deem and Ramdas Pophale) SiO2 
 PCOD9474281
Probable space group: C M C M
;
_chemical_formula_sum "Si O2"
_cell_formula_units_Z 88
_cell_length_a 32.858060
_cell_length_b 11.791953
_cell_length_c 11.355329
_cell_angle_alpha 90.000000
_cell_angle_beta 90.000000
_cell_angle_gamma 90.000000
_cell_volume 4399.743714
_symmetry_space_group_name_H-M "C M C M"
_symmetry_group_IT_number 63
_symmetry_cell_setting 'orthorhombic'
loop_
_space_group_symop_operation_xyz
x,y,z
-x,-y,1/2+z
x,-y,-z
-x,y,1/2-z
-x,-y,-z
x,y,1/2-z
-x,y,z
x,-y,1/2+z
1/2+x,1/2+y,z
1/2-x,1/2-y,1/2+z
1/2+x,1/2-y,-z
1/2-x,1/2+y,1/2-z
1/2-x,1/2-y,-z
1/2+x,1/2+y,1/2-z
1/2-x,1/2+y,z
1/2+x,1/2-y,1/2+z
loop_
_atom_site_type_symbol
_atom_site_label
_atom_site_fract_x
_atom_site_fract_y
_atom_site_fract_z
Si Si1 0.955242 0.164919 0.389800
Si Si2 0.069624 0.578151 0.882531
Si Si3 0.610958 0.500000 0.000000
Si Si4 0.252004 0.926211 0.120190
Si Si5 0.660307 0.879041 0.438010
Si Si6 0.835148 0.819962 0.380432
O O1 0.953778 0.144337 0.250000
O O2 0.950641 0.299945 0.405768
O O3 0.000000 0.130262 0.434222
O O4 0.918693 0.094874 0.446338
O O5 0.056765 0.536473 0.750000
O O6 0.117807 0.605331 0.872770
O O7 0.063511 0.500000 0.000000
O O8 0.640541 0.565126 0.909719
O O9 0.249371 0.986418 0.250000
O O10 0.295594 0.863379 0.120603
O O11 0.212964 0.844995 0.114912
O O12 0.249345 0.000000 0.000000
O O13 0.654285 0.776647 0.527638
O O14 0.665320 0.000000 0.500000
O O15 0.845956 0.780529 0.250000
#
# Coordination Sequence:
#
# PCOD9474281 Si02
#       6
#    16  16   8  16  16  16
#     4  10  22  41  65  93 126 162 205 261 322 385
#     4  10  21  39  63  94 127 168 209 255 313 374
#     4  12  21  42  64  92 122 164 212 258 319 384
#     4  10  21  38  60  92 128 170 214 263 314 368
#     4  10  21  38  58  86 121 165 211 260 308 362
#     4  11  23  39  62  90 127 168 212 263 316 375
#
# _framework density 20.001165
#
# number of rings (size 3 to 8) (size 9 to 14) (size 15 to 20)
#    0.000    1.636    2.727    1.909    0.000    6.182 
#    0.000    1.818    0.000    2.182    0.000    0.000 
#    0.000    0.000    0.000    0.000    0.000    0.000 
#
# Total GULP energy -245125.384415 kJ/mol
# GULP energy per Si atom -5571.031464 kJ/mol
# Density = 1.995564 g / cm^3
# Si number density = 20.001165 Si / 1000 Ang^3
#
#
#
# Elastic Constant Matrix: (Units=GPa)
#
#
# Indices 1 2 3 4 5 6 
#
# 1 89.2530 17.2474 -0.4079 0.0000 0.0000 0.0000
# 2 17.2474 61.4153 44.3982 0.0000 0.0000 0.0000
# 3 -0.4079 44.3982 130.7570 0.0000 0.0000 0.0000
# 4 0.0000 0.0000 0.0000 20.4683 0.0000 0.0000
# 5 0.0000 0.0000 0.0000 0.0000 13.0323 0.0000
# 6 0.0000 0.0000 0.0000 0.0000 0.0000 21.3508
#
#
#
# Elastic Compliance Matrix: (Units=1/GPa)
#
#
# Indices 1 2 3 4 5 6 
#
# 1 0.012088 -0.004535 0.001578 0.000000 0.000000 0.000000
# 2 -0.004535 0.023281 -0.007919 0.000000 0.000000 0.000000
# 3 0.001578 -0.007919 0.010342 0.000000 0.000000 0.000000
# 4 0.000000 0.000000 0.000000 0.048856 0.000000 0.000000
# 5 0.000000 0.000000 0.000000 0.000000 0.076732 0.000000
# 6 0.000000 0.000000 0.000000 0.000000 0.000000 0.046837
#
#
# Mechanical properties :
#
#
# Convention : Reuss Voigt Hill
#
# Bulk Modulus (GPa) = 41.74135 44.87785 43.30960
# Shear Modulus (GPa) = 20.17151 25.64945 22.91048
#
# Velocity S-wave (km/s) = 3.17916 3.58494 3.38813
# Velocity P-wave (km/s) = 5.86437 6.29461 6.08329
#
# Compressibility (1/GPa) = 0.02395706
#
# Stress axis : x y z
#
# Youngs Moduli (GPa) = 82.72884 42.95328 96.69650
#
# Poissons Ratio (x) = 0.19480 -0.15255
# Poissons Ratio (y) = 0.37518 0.76576
# Poissons Ratio (z) = -0.13051 0.34016
#
# Static dielectric constant tensor:
#      x y z
#    x 1.746490 0.000000 0.000000 
#    y 0.000000 1.668460 0.000000 
#    z 0.000000 0.000000 1.756560 
# 
# From -- ./inp_files/25732.got.cif
#   From: 2010.05.17/outbox.cif.g08.bks.cpg/sg63_13_cif.got.tgz:25732.got - 2010.06.03 15:47:04.
