data_PCOD9474896
_publ_section_title
;
Structure prediction by ZEFSAII (Michael W. Deem and Ramdas Pophale) SiO2 
 PCOD9474896
Probable space group: C M C M
;
_chemical_formula_sum "Si O2"
_cell_formula_units_Z 88
_cell_length_a 11.391811
_cell_length_b 23.720996
_cell_length_c 15.037467
_cell_angle_alpha 90.000000
_cell_angle_beta 90.000000
_cell_angle_gamma 90.000000
_cell_volume 4063.501071
_symmetry_space_group_name_H-M "C M C M"
_symmetry_group_IT_number 63
_symmetry_cell_setting 'orthorhombic'
loop_
_space_group_symop_operation_xyz
x,y,z
-x,-y,1/2+z
x,-y,-z
-x,y,1/2-z
-x,-y,-z
x,y,1/2-z
-x,y,z
x,-y,1/2+z
1/2+x,1/2+y,z
1/2-x,1/2-y,1/2+z
1/2+x,1/2-y,-z
1/2-x,1/2+y,1/2-z
1/2-x,1/2-y,-z
1/2+x,1/2+y,1/2-z
1/2-x,1/2+y,z
1/2+x,1/2-y,1/2+z
loop_
_atom_site_type_symbol
_atom_site_label
_atom_site_fract_x
_atom_site_fract_y
_atom_site_fract_z
Si Si1 0.641669 0.390999 0.151306
Si Si2 0.500000 0.877799 0.512533
Si Si3 0.000000 0.270985 0.855150
Si Si4 0.000000 0.297944 0.143767
Si Si5 0.639760 0.523515 0.154069
Si Si6 0.761627 0.231127 0.144186
Si Si7 0.254575 0.384446 0.966307
O O1 0.678095 0.370093 0.250000
O O2 0.500000 0.384973 0.146028
O O3 0.671716 0.457898 0.146646
O O4 0.703595 0.367900 0.064369
O O5 0.500000 0.823796 0.578586
O O6 0.500000 0.854828 0.412299
O O7 0.378074 0.907084 0.530711
O O8 0.870872 0.243624 0.870349
O O9 0.000000 0.286574 0.750000
O O10 0.879184 0.265303 0.118254
O O11 0.000000 0.305711 0.250000
O O12 0.686092 0.544844 0.250000
O O13 0.500000 0.523418 0.158114
O O14 0.672534 0.564955 0.075546
O O15 0.771779 0.222062 0.250000
O O16 0.763621 0.171294 0.094054
#
# Coordination Sequence:
#
# PCOD9474896 Si02
#       7
#    16   8   8   8  16  16  16
#     4   9  19  35  54  80 115 150 182 223 276 331
#     4  10  24  38  53  76 108 151 189 220 279 343
#     4   8  16  34  54  75 106 139 170 219 281 335
#     4  10  22  40  58  79 109 144 187 243 291 332
#     4   9  18  33  56  86 116 143 178 227 281 327
#     4   9  19  34  57  84 108 140 186 236 286 333
#     4  11  20  33  56  82 111 146 184 229 271 328
#
# _framework density 21.656203000000001
#
# number of rings (size 3 to 8) (size 9 to 14) (size 15 to 20)
#    0.000    2.545    0.000    2.727    2.545    5.818 
#    0.000    1.818    4.000    3.273    0.000    0.000 
#    0.000    0.000    0.000    0.000    0.000    0.000 
#
# Total GULP energy -245603.412129 kJ/mol
# GULP energy per Si atom -5581.895730 kJ/mol
# Density = 2.160691 g / cm^3
# Si number density = 21.656203 Si / 1000 Ang^3
#
#
#
# Elastic Constant Matrix: (Units=GPa)
#
#
# Indices 1 2 3 4 5 6 
#
# 1 81.6427 22.9016 23.1640 0.0000 0.0000 0.0000
# 2 22.9016 39.2846 25.5466 0.0000 0.0000 0.0000
# 3 23.1640 25.5466 83.2594 0.0000 0.0000 0.0000
# 4 0.0000 0.0000 0.0000 6.3865 0.0000 0.0000
# 5 0.0000 0.0000 0.0000 0.0000 17.5211 0.0000
# 6 0.0000 0.0000 0.0000 0.0000 0.0000 9.5091
#
#
#
# Elastic Compliance Matrix: (Units=1/GPa)
#
#
# Indices 1 2 3 4 5 6 
#
# 1 0.014867 -0.007467 -0.001845 0.000000 0.000000 0.000000
# 2 -0.007467 0.035551 -0.008831 0.000000 0.000000 0.000000
# 3 -0.001845 -0.008831 0.015234 0.000000 0.000000 0.000000
# 4 0.000000 0.000000 0.000000 0.156581 0.000000 0.000000
# 5 0.000000 0.000000 0.000000 0.000000 0.057074 0.000000
# 6 0.000000 0.000000 0.000000 0.000000 0.000000 0.105163
#
#
# Mechanical properties :
#
#
# Convention : Reuss Voigt Hill
#
# Bulk Modulus (GPa) = 34.05344 38.60122 36.32733
# Shear Modulus (GPa) = 11.61327 15.52163 13.56745
#
# Velocity S-wave (km/s) = 2.31823 2.68008 2.50570
# Velocity P-wave (km/s) = 4.78793 5.23836 5.01820
#
# Compressibility (1/GPa) = 0.02936561
#
# Stress axis : x y z
#
# Youngs Moduli (GPa) = 67.26529 28.12881 65.64478
#
# Poissons Ratio (x) = 0.21003 0.12112
# Poissons Ratio (y) = 0.50226 0.57969
# Poissons Ratio (z) = 0.12411 0.24840
#
# Static dielectric constant tensor:
#      x y z
#    x 1.816720 0.000000 0.000000 
#    y 0.000000 1.755170 0.000000 
#    z 0.000000 0.000000 1.794810 
# 
# From -- ./inp_files/29930.got.cif
#   From: 2010.05.17/outbox.cif.g08.bks.cpg/sg63_15_cif.got.tgz:29930.got - 2010.06.03 15:47:04.
