data_PCOD9474277
_publ_section_title
;
Structure prediction by ZEFSAII (Michael W. Deem and Ramdas Pophale) SiO2 
 PCOD9474277
Probable space group: C M C M
;
_chemical_formula_sum "Si O2"
_cell_formula_units_Z 104
_cell_length_a 27.317908
_cell_length_b 19.750164
_cell_length_c 9.567278
_cell_angle_alpha 90.000000
_cell_angle_beta 90.000000
_cell_angle_gamma 90.000000
_cell_volume 5161.863762
_symmetry_space_group_name_H-M "C M C M"
_symmetry_group_IT_number 63
_symmetry_cell_setting 'orthorhombic'
loop_
_space_group_symop_operation_xyz
x,y,z
-x,-y,1/2+z
x,-y,-z
-x,y,1/2-z
-x,-y,-z
x,y,1/2-z
-x,y,z
x,-y,1/2+z
1/2+x,1/2+y,z
1/2-x,1/2-y,1/2+z
1/2+x,1/2-y,-z
1/2-x,1/2+y,1/2-z
1/2-x,1/2-y,-z
1/2+x,1/2+y,1/2-z
1/2-x,1/2+y,z
1/2+x,1/2-y,1/2+z
loop_
_atom_site_type_symbol
_atom_site_label
_atom_site_fract_x
_atom_site_fract_y
_atom_site_fract_z
Si Si1 0.190715 0.292890 0.531681
Si Si2 0.230700 0.259171 0.250000
Si Si3 0.445641 0.674226 0.085474
Si Si4 0.921644 0.695729 0.090407
Si Si5 0.860596 0.069026 0.084088
Si Si6 0.941310 0.437304 0.409333
Si Si7 0.247166 0.430158 0.917497
O O1 0.190158 0.266279 0.374417
O O2 0.226587 0.250035 0.629841
O O3 0.136631 0.294559 0.591201
O O4 0.212941 0.369241 0.533121
O O5 0.439961 0.692632 0.250000
O O6 0.500000 0.642600 0.071432
O O7 0.401393 0.624039 0.047532
O O8 0.443391 0.739433 0.987695
O O9 0.939068 0.687626 0.250000
O O10 0.932181 0.630370 0.996218
O O11 0.864339 0.055931 0.250000
O O12 0.804101 0.090677 0.058409
O O13 0.868332 0.000000 0.000000
O O14 0.921253 0.500000 0.500000
O O15 0.922005 0.435142 0.250000
O O16 0.000000 0.445811 0.399078
O O17 0.241129 0.438813 0.750000
O O18 0.238622 0.500000 0.000000
#
# Coordination Sequence:
#
# PCOD9474277 Si02
#       7
#    16   8  16  16  16  16  16
#     4  11  24  41  61  90 120 161 201 247 295 358
#     4  10  24  40  62  86 122 156 202 248 294 354
#     4  10  23  41  62  87 119 159 203 252 307 367
#     4  12  25  39  60  95 126 158 202 254 305 363
#     4   9  20  37  60  86 115 157 200 245 297 356
#     4  10  22  42  67  91 121 163 206 250 304 366
#     4  10  21  38  58  84 120 157 199 245 293 349
#
# _framework density 20.147760999999999
#
# number of rings (size 3 to 8) (size 9 to 14) (size 15 to 20)
#    0.000    1.692    1.538    1.385    7.538    4.615 
#    0.000    1.538    0.000    0.000    0.000    0.000 
#    0.000    0.000    0.000    0.000    0.000    0.000 
#
# Total GULP energy -289475.439066 kJ/mol
# GULP energy per Si atom -5566.835367 kJ/mol
# Density = 2.010190 g / cm^3
# Si number density = 20.147761 Si / 1000 Ang^3
#
#
#
# Elastic Constant Matrix: (Units=GPa)
#
#
# Indices 1 2 3 4 5 6 
#
# 1 59.9934 11.2611 4.9508 0.0000 0.0000 0.0000
# 2 11.2611 49.9985 24.4141 0.0000 0.0000 0.0000
# 3 4.9508 24.4141 137.0711 0.0000 0.0000 0.0000
# 4 0.0000 0.0000 0.0000 11.5735 0.0000 0.0000
# 5 0.0000 0.0000 0.0000 0.0000 45.0750 0.0000
# 6 0.0000 0.0000 0.0000 0.0000 0.0000 32.4914
#
#
#
# Elastic Compliance Matrix: (Units=1/GPa)
#
#
# Indices 1 2 3 4 5 6 
#
# 1 0.017405 -0.003957 0.000076 0.000000 0.000000 0.000000
# 2 -0.003957 0.022806 -0.003919 0.000000 0.000000 0.000000
# 3 0.000076 -0.003919 0.007991 0.000000 0.000000 0.000000
# 4 0.000000 0.000000 0.000000 0.086404 0.000000 0.000000
# 5 0.000000 0.000000 0.000000 0.000000 0.022185 0.000000
# 6 0.000000 0.000000 0.000000 0.000000 0.000000 0.030777
#
#
# Mechanical properties :
#
#
# Convention : Reuss Voigt Hill
#
# Bulk Modulus (GPa) = 30.67387 36.47946 33.57667
# Shear Modulus (GPa) = 23.36059 31.59044 27.47551
#
# Velocity S-wave (km/s) = 3.40878 3.96402 3.69684
# Velocity P-wave (km/s) = 5.54532 6.25272 5.90961
#
# Compressibility (1/GPa) = 0.03260103
#
# Stress axis : x y z
#
# Youngs Moduli (GPa) = 57.45464 43.84899 125.14449
#
# Poissons Ratio (x) = 0.17352 -0.00954
# Poissons Ratio (y) = 0.22737 0.49044
# Poissons Ratio (z) = -0.00438 0.17185
#
# Static dielectric constant tensor:
#      x y z
#    x 1.723660 0.000000 0.000000 
#    y 0.000000 1.714960 0.000000 
#    z 0.000000 0.000000 1.700510 
# 
# From -- ./inp_files/12493.got.cif
#   From: 2010.05.17/outbox.cif.g08.bks.cpg/sg63_7_cif.got.tgz:12493.got - 2010.06.03 15:47:04.
