data_PCOD9474505
_publ_section_title
;
Structure prediction by ZEFSAII (Michael W. Deem and Ramdas Pophale) SiO2 
 PCOD9474505
Probable space group: C M C M
;
_chemical_formula_sum "Si O2"
_cell_formula_units_Z 68
_cell_length_a 7.247308
_cell_length_b 23.476748
_cell_length_c 17.896486
_cell_angle_alpha 90.000000
_cell_angle_beta 90.000000
_cell_angle_gamma 90.000000
_cell_volume 3044.965819
_symmetry_space_group_name_H-M "C M C M"
_symmetry_group_IT_number 63
_symmetry_cell_setting 'orthorhombic'
loop_
_space_group_symop_operation_xyz
x,y,z
-x,-y,1/2+z
x,-y,-z
-x,y,1/2-z
-x,-y,-z
x,y,1/2-z
-x,y,z
x,-y,1/2+z
1/2+x,1/2+y,z
1/2-x,1/2-y,1/2+z
1/2+x,1/2-y,-z
1/2-x,1/2+y,1/2-z
1/2-x,1/2-y,-z
1/2+x,1/2+y,1/2-z
1/2-x,1/2+y,z
1/2+x,1/2-y,1/2+z
loop_
_atom_site_type_symbol
_atom_site_label
_atom_site_fract_x
_atom_site_fract_y
_atom_site_fract_z
Si Si1 0.281771 0.185677 0.475201
Si Si2 0.500000 0.339035 0.250000
Si Si3 0.277065 0.876804 0.375416
Si Si4 0.776447 0.502364 0.086403
Si Si5 0.274734 0.119528 0.165095
O O1 0.500000 0.177441 0.470947
O O2 0.250000 0.250000 0.500000
O O3 0.222288 0.144368 0.541925
O O4 0.212160 0.167278 0.393983
O O5 0.661378 0.342798 0.315062
O O6 0.500000 0.870534 0.366926
O O7 0.229667 0.943883 0.371614
O O8 0.718410 0.558769 0.130150
O O9 0.000000 0.504240 0.083452
O O10 0.714660 0.500000 0.000000
O O11 0.212762 0.127158 0.250000
O O12 0.500000 0.119813 0.167499
#
# Coordination Sequence:
#
# PCOD9474505 Si02
#       5
#    16   4  16  16  16
#     4  10  21  39  63  87 121 167 215 261 324 385
#     4  12  26  40  62  94 134 160 218 266 322 376
#     4  10  22  41  63  93 128 170 211 260 321 388
#     4   9  15  30  60  89 122 162 206 249 311 380
#     4   9  17  31  57  94 122 157 211 260 308 379
#
# _framework density 22.331942000000002
#
# number of rings (size 3 to 8) (size 9 to 14) (size 15 to 20)
#    0.000    2.353    2.353    0.353    3.294    0.000 
#    2.118    0.588    2.588    0.000    0.000    0.000 
#    0.000    0.000    0.000    0.000    0.000    0.000 
#
# Total GULP energy -189431.781588 kJ/mol
# GULP energy per Si atom -5571.522988 kJ/mol
# Density = 2.228111 g / cm^3
# Si number density = 22.331942 Si / 1000 Ang^3
#
#
#
# Elastic Constant Matrix: (Units=GPa)
#
#
# Indices 1 2 3 4 5 6 
#
# 1 114.1388 -4.5829 26.6285 0.0000 0.0000 0.0000
# 2 -4.5829 106.2928 60.9108 0.0000 0.0000 0.0000
# 3 26.6285 60.9108 207.6509 0.0000 0.0000 0.0000
# 4 0.0000 0.0000 0.0000 12.9179 0.0000 0.0000
# 5 0.0000 0.0000 0.0000 0.0000 -42.3650 0.0000
# 6 0.0000 0.0000 0.0000 0.0000 0.0000 -3.2929
#
#
#
# Elastic Compliance Matrix: (Units=1/GPa)
#
#
# Indices 1 2 3 4 5 6 
#
# 1 0.009175 0.001286 -0.001554 0.000000 0.000000 0.000000
# 2 0.001286 0.011489 -0.003535 0.000000 0.000000 0.000000
# 3 -0.001554 -0.003535 0.006052 0.000000 0.000000 0.000000
# 4 0.000000 0.000000 0.000000 0.077412 0.000000 0.000000
# 5 0.000000 0.000000 0.000000 0.000000 -0.023604 0.000000
# 6 0.000000 0.000000 0.000000 0.000000 0.000000 -0.303683
#
#
# Mechanical properties :
#
#
# Convention : Reuss Voigt Hill
#
# Bulk Modulus (GPa) = 52.32643 65.99949 59.16296
# Shear Modulus (GPa) = -23.90250 16.46040 -3.72105
#
# Velocity S-wave (km/s) = -3.27514 2.71786 -1.29223
# Velocity P-wave (km/s) = 3.02986 6.28228 4.93189
#
# Compressibility (1/GPa) = 0.01911080
#
# Stress axis : x y z
#
# Youngs Moduli (GPa) = 108.98684 87.03838 165.23484
#
# Poissons Ratio (x) = -0.11194 0.25675
# Poissons Ratio (y) = -0.14016 0.58412
# Poissons Ratio (z) = 0.16935 0.30769
#
# Static dielectric constant tensor:
#      x y z
#    x 1.878440 0.000000 0.000000 
#    y 0.000000 1.775330 0.000000 
#    z 0.000000 0.000000 1.776320 
# 
# From -- ./inp_files/40239.got.cif
#   From: 2010.05.17/outbox.cif.g08.bks.cpg/sg63_21_cif.got.tgz:40239.got - 2010.06.03 15:47:04.
