data_PCOD9474124
_publ_section_title
;
Structure prediction by ZEFSAII (Michael W. Deem and Ramdas Pophale) SiO2 
 PCOD9474124
Probable space group: C M C M
;
_chemical_formula_sum "Si O2"
_cell_formula_units_Z 112
_cell_length_a 14.081179
_cell_length_b 18.080637
_cell_length_c 23.950506
_cell_angle_alpha 90.000000
_cell_angle_beta 90.000000
_cell_angle_gamma 90.000000
_cell_volume 6097.719456
_symmetry_space_group_name_H-M "C M C M"
_symmetry_group_IT_number 63
_symmetry_cell_setting 'orthorhombic'
loop_
_space_group_symop_operation_xyz
x,y,z
-x,-y,1/2+z
x,-y,-z
-x,y,1/2-z
-x,-y,-z
x,y,1/2-z
-x,y,z
x,-y,1/2+z
1/2+x,1/2+y,z
1/2-x,1/2-y,1/2+z
1/2+x,1/2-y,-z
1/2-x,1/2+y,1/2-z
1/2-x,1/2-y,-z
1/2+x,1/2+y,1/2-z
1/2-x,1/2+y,z
1/2+x,1/2-y,1/2+z
loop_
_atom_site_type_symbol
_atom_site_label
_atom_site_fract_x
_atom_site_fract_y
_atom_site_fract_z
Si Si1 0.889005 0.819853 0.376367
Si Si2 0.764978 0.114686 0.422019
Si Si3 0.603825 0.023454 0.314812
Si Si4 0.893419 0.217955 0.495436
Si Si5 0.889135 0.388971 0.491608
Si Si6 0.251560 0.543702 0.899670
Si Si7 0.307930 0.181138 0.186192
O O1 0.881452 0.783223 0.437906
O O2 0.822406 0.891805 0.380768
O O3 0.853086 0.758645 0.332578
O O4 0.000000 0.837547 0.366585
O O5 0.819438 0.164954 0.466037
O O6 0.658205 0.105067 0.446997
O O7 0.764583 0.155743 0.362474
O O8 0.804418 0.031575 0.418313
O O9 0.608676 0.001522 0.250000
O O10 0.500000 0.004786 0.337507
O O11 0.685291 0.983401 0.349115
O O12 0.618975 0.112101 0.315739
O O13 0.885014 0.302229 0.475992
O O14 0.000000 0.191508 0.483241
O O15 0.819309 0.430532 0.449051
O O16 0.000000 0.411387 0.490788
O O17 0.271965 0.185058 0.250000
#
# Coordination Sequence:
#
# PCOD9474124 Si02
#       7
#    16  16  16  16  16  16  16
#     4  11  22  37  56  81 114 149 189 234 276 321
#     4  11  21  37  57  81 116 149 184 224 277 340
#     4   9  19  37  58  80 109 146 186 228 277 337
#     4  10  21  37  58  80 110 151 191 232 272 322
#     4  11  21  34  54  82 113 145 181 229 283 331
#     4  11  23  34  53  83 117 149 181 224 281 337
#     4  10  21  37  61  85 108 143 188 235 283 329
#
# _framework density 18.367522999999998
#
# number of rings (size 3 to 8) (size 9 to 14) (size 15 to 20)
#    0.000    1.571    2.857    2.571    0.000    5.429 
#    0.000    1.429    0.000    0.429    0.000    4.000 
#    0.000    0.000    0.000    0.000    0.000    0.000 
#
# Total GULP energy -312487.434967 kJ/mol
# GULP energy per Si atom -5580.132767 kJ/mol
# Density = 1.832572 g / cm^3
# Si number density = 18.367523 Si / 1000 Ang^3
#
#
#
# Elastic Constant Matrix: (Units=GPa)
#
#
# Indices 1 2 3 4 5 6 
#
# 1 55.9744 42.0506 23.7747 0.0000 0.0000 0.0000
# 2 42.0506 111.4928 29.9017 0.0000 0.0000 0.0000
# 3 23.7747 29.9017 87.5176 0.0000 0.0000 0.0000
# 4 0.0000 0.0000 0.0000 29.8815 0.0000 0.0000
# 5 0.0000 0.0000 0.0000 0.0000 13.8332 0.0000
# 6 0.0000 0.0000 0.0000 0.0000 0.0000 8.7110
#
#
#
# Elastic Compliance Matrix: (Units=1/GPa)
#
#
# Indices 1 2 3 4 5 6 
#
# 1 0.026212 -0.008781 -0.004121 0.000000 0.000000 0.000000
# 2 -0.008781 0.012816 -0.001993 0.000000 0.000000 0.000000
# 3 -0.004121 -0.001993 0.013227 0.000000 0.000000 0.000000
# 4 0.000000 0.000000 0.000000 0.033466 0.000000 0.000000
# 5 0.000000 0.000000 0.000000 0.000000 0.072290 0.000000
# 6 0.000000 0.000000 0.000000 0.000000 0.000000 0.114798
#
#
# Mechanical properties :
#
#
# Convention : Reuss Voigt Hill
#
# Bulk Modulus (GPa) = 44.51398 49.60431 47.05914
# Shear Modulus (GPa) = 16.12458 21.10233 18.61345
#
# Velocity S-wave (km/s) = 2.96613 3.39321 3.18683
# Velocity P-wave (km/s) = 6.00153 6.51283 6.26240
#
# Compressibility (1/GPa) = 0.02246485
#
# Stress axis : x y z
#
# Youngs Moduli (GPa) = 38.15011 78.02971 75.60499
#
# Poissons Ratio (x) = 0.68519 0.31153
# Poissons Ratio (y) = 0.33500 0.15070
# Poissons Ratio (z) = 0.15720 0.15553
#
# Static dielectric constant tensor:
#      x y z
#    x 1.641650 0.000000 0.000000 
#    y 0.000000 1.647600 0.000000 
#    z 0.000000 0.000000 1.644450 
# 
# From -- ./inp_files/63021.got.cif
#   From: 2010.05.17/outbox.cif.g08.bks.cpg/sg63_32_cif.got.tgz:63021.got - 2010.06.03 15:47:04.
