data_PCOD9474229
_publ_section_title
;
Structure prediction by ZEFSAII (Michael W. Deem and Ramdas Pophale) SiO2 
 PCOD9474229
Probable space group: C M C M
;
_chemical_formula_sum "Si O2"
_cell_formula_units_Z 116
_cell_length_a 24.554240
_cell_length_b 29.760382
_cell_length_c 7.977259
_cell_angle_alpha 90.000000
_cell_angle_beta 90.000000
_cell_angle_gamma 90.000000
_cell_volume 5829.330658
_symmetry_space_group_name_H-M "C M C M"
_symmetry_group_IT_number 63
_symmetry_cell_setting 'orthorhombic'
loop_
_space_group_symop_operation_xyz
x,y,z
-x,-y,1/2+z
x,-y,-z
-x,y,1/2-z
-x,-y,-z
x,y,1/2-z
-x,y,z
x,-y,1/2+z
1/2+x,1/2+y,z
1/2-x,1/2-y,1/2+z
1/2+x,1/2-y,-z
1/2-x,1/2+y,1/2-z
1/2-x,1/2-y,-z
1/2+x,1/2+y,1/2-z
1/2-x,1/2+y,z
1/2+x,1/2-y,1/2+z
loop_
_atom_site_type_symbol
_atom_site_label
_atom_site_fract_x
_atom_site_fract_y
_atom_site_fract_z
Si Si1 0.711326 0.209610 0.441716
Si Si2 0.349812 0.950750 0.948582
Si Si3 0.081899 0.184522 0.555096
Si Si4 0.440957 0.880806 0.048227
Si Si5 0.500000 0.662906 0.250000
Si Si6 0.774285 0.950316 0.950592
Si Si7 0.408602 0.783568 0.056137
Si Si8 0.200753 0.145033 0.555840
O O1 0.694715 0.216925 0.250000
O O2 0.750000 0.250000 0.500000
O O3 0.656460 0.209173 0.548004
O O4 0.748215 0.165150 0.455476
O O5 0.345148 0.949844 0.750000
O O6 0.288197 0.946051 0.016693
O O7 0.390955 0.912056 0.999985
O O8 0.370422 0.000000 0.000000
O O9 0.069477 0.171163 0.750000
O O10 0.076415 0.238415 0.540234
O O11 0.144968 0.171427 0.522053
O O12 0.046757 0.164708 0.402272
O O13 0.440974 0.878560 0.250000
O O14 0.500000 0.898421 0.992143
O O15 0.433597 0.829688 0.988500
O O16 0.774356 0.947382 0.750000
O O17 0.806221 0.907662 0.020700
O O18 0.793929 0.000000 0.000000
O O19 0.425738 0.777013 0.250000
O O20 0.214265 0.152177 0.750000
#
# Coordination Sequence:
#
# PCOD9474229 Si02
#       8
#    16  16  16  16   4  16  16  16
#     4  12  23  35  55  84 121 163 205 253 309 376
#     4  10  21  38  59  84 113 151 196 247 308 371
#     4  11  25  42  64  93 123 164 214 261 310 370
#     4  10  23  39  57  80 109 151 205 258 312 364
#     4  12  26  44  68  86 126 168 210 264 310 362
#     4  10  21  37  62  93 127 160 195 241 305 377
#     4  11  22  38  60  84 120 163 208 257 319 373
#     4  11  23  39  60  91 128 163 206 254 307 374
#
# _framework density 19.899367999999999
#
# number of rings (size 3 to 8) (size 9 to 14) (size 15 to 20)
#    0.000    1.241    2.069    3.931    2.897    5.517 
#    0.000    0.000    0.000    0.000    0.000    0.483 
#    0.000    0.000    0.000    0.000    0.000    0.000 
#
# Total GULP energy -323589.731640 kJ/mol
# GULP energy per Si atom -5579.133304 kJ/mol
# Density = 1.985408 g / cm^3
# Si number density = 19.899368 Si / 1000 Ang^3
#
#
#
# Elastic Constant Matrix: (Units=GPa)
#
#
# Indices 1 2 3 4 5 6 
#
# 1 38.4697 -2.8008 14.0627 0.0000 0.0000 0.0000
# 2 -2.8008 79.6710 -2.9059 0.0000 0.0000 0.0000
# 3 14.0627 -2.9059 75.5407 0.0000 0.0000 0.0000
# 4 0.0000 0.0000 0.0000 26.2020 0.0000 0.0000
# 5 0.0000 0.0000 0.0000 0.0000 29.8630 0.0000
# 6 0.0000 0.0000 0.0000 0.0000 0.0000 1.5577
#
#
#
# Elastic Compliance Matrix: (Units=1/GPa)
#
#
# Indices 1 2 3 4 5 6 
#
# 1 0.027943 0.000794 -0.005171 0.000000 0.000000 0.000000
# 2 0.000794 0.012592 0.000337 0.000000 0.000000 0.000000
# 3 -0.005171 0.000337 0.014214 0.000000 0.000000 0.000000
# 4 0.000000 0.000000 0.000000 0.038165 0.000000 0.000000
# 5 0.000000 0.000000 0.000000 0.000000 0.033486 0.000000
# 6 0.000000 0.000000 0.000000 0.000000 0.000000 0.641990
#
#
# Mechanical properties :
#
#
# Convention : Reuss Voigt Hill
#
# Bulk Modulus (GPa) = 21.42886 23.37705 22.40296
# Shear Modulus (GPa) = 6.31291 23.87954 15.09623
#
# Velocity S-wave (km/s) = 1.78306 3.46788 2.75731
# Velocity P-wave (km/s) = 3.87699 5.27334 4.62813
#
# Compressibility (1/GPa) = 0.04666603
#
# Stress axis : x y z
#
# Youngs Moduli (GPa) = 35.78759 79.41675 70.35549
#
# Poissons Ratio (x) = -0.06303 0.36383
# Poissons Ratio (y) = -0.02840 -0.02368
# Poissons Ratio (z) = 0.18507 -0.02673
#
# Static dielectric constant tensor:
#      x y z
#    x 1.708970 0.000000 0.000000 
#    y 0.000000 1.705600 0.000000 
#    z 0.000000 0.000000 1.870140 
# 
# From -- ./inp_files/10947.got.cif
#   From: 2010.05.17/outbox.cif.g08.bks.cpg/sg63_6_cif.got.tgz:10947.got - 2010.06.03 15:47:04.
