data_PCOD9474345
_publ_section_title
;
Structure prediction by ZEFSAII (Michael W. Deem and Ramdas Pophale) SiO2 
 PCOD9474345
Probable space group: C M C M
;
_chemical_formula_sum "Si O2"
_cell_formula_units_Z 96
_cell_length_a 14.086732
_cell_length_b 23.996946
_cell_length_c 14.138082
_cell_angle_alpha 90.000000
_cell_angle_beta 90.000000
_cell_angle_gamma 90.000000
_cell_volume 4779.216698
_symmetry_space_group_name_H-M "C M C M"
_symmetry_group_IT_number 63
_symmetry_cell_setting 'orthorhombic'
loop_
_space_group_symop_operation_xyz
x,y,z
-x,-y,1/2+z
x,-y,-z
-x,y,1/2-z
-x,-y,-z
x,y,1/2-z
-x,y,z
x,-y,1/2+z
1/2+x,1/2+y,z
1/2-x,1/2-y,1/2+z
1/2+x,1/2-y,-z
1/2-x,1/2+y,1/2-z
1/2-x,1/2-y,-z
1/2+x,1/2+y,1/2-z
1/2-x,1/2+y,z
1/2+x,1/2-y,1/2+z
loop_
_atom_site_type_symbol
_atom_site_label
_atom_site_fract_x
_atom_site_fract_y
_atom_site_fract_z
Si Si1 0.288139 0.371427 0.860004
Si Si2 0.705783 0.839553 0.044541
Si Si3 0.609729 0.741168 0.359013
Si Si4 0.391602 0.610642 0.864786
Si Si5 0.393061 0.055744 0.864224
Si Si6 0.701401 0.503926 0.363624
O O1 0.257763 0.374100 0.750000
O O2 0.368173 0.324221 0.866752
O O3 0.320190 0.432977 0.891576
O O4 0.208547 0.351412 0.933088
O O5 0.672651 0.778525 0.072849
O O6 0.810915 0.852492 0.085657
O O7 0.636963 0.884690 0.093762
O O8 0.631249 0.757258 0.250000
O O9 0.500000 0.752110 0.377173
O O10 0.381167 0.615113 0.750000
O O11 0.500000 0.624575 0.889078
O O12 0.367304 0.546446 0.891925
O O13 0.390731 0.060017 0.750000
O O14 0.500000 0.040050 0.892199
O O15 0.308715 0.013320 0.891352
O O16 0.698106 0.503873 0.250000
#
# Coordination Sequence:
#
# PCOD9474345 Si02
#       6
#    16  16  16  16  16  16
#     4  10  22  38  54  75 108 149 185 219 264 319
#     4  11  20  34  56  82 110 141 178 226 275 320
#     4  10  21  38  61  85 105 131 175 229 279 325
#     4   9  18  32  53  83 115 146 180 221 272 324
#     4   9  17  31  55  85 112 141 181 228 273 314
#     4   8  16  33  53  75 110 149 182 220 266 315
#
# _framework density 20.086973
#
# number of rings (size 3 to 8) (size 9 to 14) (size 15 to 20)
#    0.000    2.500    0.000    3.500    0.000    5.333 
#    0.000    6.667    0.000    5.000    0.000    7.000 
#    0.000    0.000    0.000    0.000    0.000    0.000 
#
# Total GULP energy -267893.211794 kJ/mol
# GULP energy per Si atom -5581.108579 kJ/mol
# Density = 2.004125 g / cm^3
# Si number density = 20.086973 Si / 1000 Ang^3
#
#
#
# Elastic Constant Matrix: (Units=GPa)
#
#
# Indices 1 2 3 4 5 6 
#
# 1 48.8695 19.4357 30.9583 0.0000 0.0000 0.0000
# 2 19.4357 44.9999 12.5395 0.0000 0.0000 0.0000
# 3 30.9583 12.5395 84.7260 0.0000 0.0000 0.0000
# 4 0.0000 0.0000 0.0000 2.1983 0.0000 0.0000
# 5 0.0000 0.0000 0.0000 0.0000 9.1949 0.0000
# 6 0.0000 0.0000 0.0000 0.0000 0.0000 1.7642
#
#
#
# Elastic Compliance Matrix: (Units=1/GPa)
#
#
# Indices 1 2 3 4 5 6 
#
# 1 0.030823 -0.010612 -0.009692 0.000000 0.000000 0.000000
# 2 -0.010612 0.026832 -0.000094 0.000000 0.000000 0.000000
# 3 -0.009692 -0.000094 0.015358 0.000000 0.000000 0.000000
# 4 0.000000 0.000000 0.000000 0.454904 0.000000 0.000000
# 5 0.000000 0.000000 0.000000 0.000000 0.108756 0.000000
# 6 0.000000 0.000000 0.000000 0.000000 0.000000 0.566835
#
#
# Mechanical properties :
#
#
# Convention : Reuss Voigt Hill
#
# Bulk Modulus (GPa) = 31.03879 33.82917 32.43398
# Shear Modulus (GPa) = 3.98393 10.34226 7.16310
#
# Velocity S-wave (km/s) = 1.40984 2.27155 1.89045
# Velocity P-wave (km/s) = 4.25863 4.87420 4.57678
#
# Compressibility (1/GPa) = 0.03221775
#
# Stress axis : x y z
#
# Youngs Moduli (GPa) = 32.44357 37.26944 65.11281
#
# Poissons Ratio (x) = 0.39550 0.63107
# Poissons Ratio (y) = 0.34428 0.00610
# Poissons Ratio (z) = 0.31444 0.00349
#
# Static dielectric constant tensor:
#      x y z
#    x 1.675000 0.000000 0.000000 
#    y 0.000000 1.715520 0.000000 
#    z 0.000000 0.000000 1.760380 
# 
# From -- ./inp_files/31949.got.cif
#   From: 2010.05.17/outbox.cif.g08.bks.cpg/sg63_16_cif.got.tgz:31949.got - 2010.06.03 15:47:04.
