data_PCOD9474832
_publ_section_title
;
Structure prediction by ZEFSAII (Michael W. Deem and Ramdas Pophale) SiO2 
 PCOD9474832
Probable space group: C M C M
;
_chemical_formula_sum "Si O2"
_cell_formula_units_Z 96
_cell_length_a 21.396011
_cell_length_b 27.269740
_cell_length_c 8.134177
_cell_angle_alpha 90.000000
_cell_angle_beta 90.000000
_cell_angle_gamma 90.000000
_cell_volume 4745.996659
_symmetry_space_group_name_H-M "C M C M"
_symmetry_group_IT_number 63
_symmetry_cell_setting 'orthorhombic'
loop_
_space_group_symop_operation_xyz
x,y,z
-x,-y,1/2+z
x,-y,-z
-x,y,1/2-z
-x,-y,-z
x,y,1/2-z
-x,y,z
x,-y,1/2+z
1/2+x,1/2+y,z
1/2-x,1/2-y,1/2+z
1/2+x,1/2-y,-z
1/2-x,1/2+y,1/2-z
1/2-x,1/2-y,-z
1/2+x,1/2+y,1/2-z
1/2-x,1/2+y,z
1/2+x,1/2-y,1/2+z
loop_
_atom_site_type_symbol
_atom_site_label
_atom_site_fract_x
_atom_site_fract_y
_atom_site_fract_z
Si Si1 0.567077 0.606812 0.556284
Si Si2 0.284458 0.703201 0.935340
Si Si3 0.697155 0.555863 0.551878
Si Si4 0.303631 0.876704 0.941912
Si Si5 0.928410 0.673566 0.551318
Si Si6 0.587681 0.287344 0.563469
O O1 0.567605 0.595833 0.750000
O O2 0.500000 0.587409 0.487457
O O3 0.634437 0.586089 0.495448
O O4 0.563438 0.665637 0.533796
O O5 0.308933 0.708135 0.750000
O O6 0.250000 0.750000 0.000000
O O7 0.235572 0.660050 0.945035
O O8 0.340072 0.698905 0.060910
O O9 0.686946 0.500000 0.500000
O O10 0.701341 0.560596 0.750000
O O11 0.763811 0.573962 0.476833
O O12 0.295741 0.864897 0.750000
O O13 0.375941 0.863839 0.983363
O O14 0.922597 0.673563 0.750000
O O15 0.918994 0.731207 0.499609
O O16 0.000000 0.660257 0.508488
O O17 0.564667 0.287423 0.750000
#
# Coordination Sequence:
#
# PCOD9474832 Si02
#       6
#    16  16  16  16  16  16
#     4  10  22  39  59  85 122 166 207 250 299 352
#     4  12  22  34  54  84 118 158 202 248 295 349
#     4  11  24  43  66  90 119 152 198 256 310 367
#     4  12  24  39  62  89 119 158 202 250 305 364
#     4  10  22  39  59  87 126 168 206 247 296 354
#     4  11  21  34  56  86 122 165 208 247 289 343
#
# _framework density 20.227575000000002
#
# number of rings (size 3 to 8) (size 9 to 14) (size 15 to 20)
#    0.000    1.000    3.333    4.500    0.000    3.000 
#    0.000    0.000    0.000    0.500    0.000    0.000 
#    0.000    0.000    0.000    0.000    0.000    0.000 
#
# Total GULP energy -267341.864985 kJ/mol
# GULP energy per Si atom -5569.622187 kJ/mol
# Density = 2.018154 g / cm^3
# Si number density = 20.227575 Si / 1000 Ang^3
#
#
#
# Elastic Constant Matrix: (Units=GPa)
#
#
# Indices 1 2 3 4 5 6 
#
# 1 181.0011 54.8915 23.7210 0.0000 0.0000 0.0000
# 2 54.8915 86.5886 8.5100 0.0000 0.0000 0.0000
# 3 23.7210 8.5100 71.2044 0.0000 0.0000 0.0000
# 4 0.0000 0.0000 0.0000 22.6781 0.0000 0.0000
# 5 0.0000 0.0000 0.0000 0.0000 -24.7565 0.0000
# 6 0.0000 0.0000 0.0000 0.0000 0.0000 -28.2069
#
#
#
# Elastic Compliance Matrix: (Units=1/GPa)
#
#
# Indices 1 2 3 4 5 6 
#
# 1 0.007071 -0.004301 -0.001841 0.000000 0.000000 0.000000
# 2 -0.004301 0.014303 -0.000276 0.000000 0.000000 0.000000
# 3 -0.001841 -0.000276 0.014691 0.000000 0.000000 0.000000
# 4 0.000000 0.000000 0.000000 0.044095 0.000000 0.000000
# 5 0.000000 0.000000 0.000000 0.000000 -0.040393 0.000000
# 6 0.000000 0.000000 0.000000 0.000000 0.000000 -0.035452
#
#
# Mechanical properties :
#
#
# Convention : Reuss Voigt Hill
#
# Bulk Modulus (GPa) = 43.05604 57.00435 50.03020
# Shear Modulus (GPa) = 200.85225 10.72104 105.78665
#
# Velocity S-wave (km/s) = 9.97556 2.30472 7.23960
# Velocity P-wave (km/s) = 12.41026 5.94348 9.72984
#
# Compressibility (1/GPa) = 0.02322554
#
# Stress axis : x y z
#
# Youngs Moduli (GPa) = 141.43076 69.91642 68.07089
#
# Poissons Ratio (x) = 0.30073 0.12535
# Poissons Ratio (y) = 0.60834 0.01882
# Poissons Ratio (z) = 0.26043 0.01933
#
# Static dielectric constant tensor:
#      x y z
#    x 1.803630 0.000000 0.000000 
#    y 0.000000 1.702820 0.000000 
#    z 0.000000 0.000000 1.659370 
# 
# From -- ./inp_files/8645.got.cif
#   From: 2010.05.17/outbox.cif.g08.bks.cpg/sg63_5_cif.got.tgz:8645.got - 2010.06.03 15:47:04.
