data_PCOD9474668
_publ_section_title
;
Structure prediction by ZEFSAII (Michael W. Deem and Ramdas Pophale) SiO2 
 PCOD9474668
Probable space group: C M C M
;
_chemical_formula_sum "Si O2"
_cell_formula_units_Z 68
_cell_length_a 23.218624
_cell_length_b 8.533379
_cell_length_c 15.114987
_cell_angle_alpha 90.000000
_cell_angle_beta 90.000000
_cell_angle_gamma 90.000000
_cell_volume 2994.782533
_symmetry_space_group_name_H-M "C M C M"
_symmetry_group_IT_number 63
_symmetry_cell_setting 'orthorhombic'
loop_
_space_group_symop_operation_xyz
x,y,z
-x,-y,1/2+z
x,-y,-z
-x,y,1/2-z
-x,-y,-z
x,y,1/2-z
-x,y,z
x,-y,1/2+z
1/2+x,1/2+y,z
1/2-x,1/2-y,1/2+z
1/2+x,1/2-y,-z
1/2-x,1/2+y,1/2-z
1/2-x,1/2-y,-z
1/2+x,1/2+y,1/2-z
1/2-x,1/2+y,z
1/2+x,1/2-y,1/2+z
loop_
_atom_site_type_symbol
_atom_site_label
_atom_site_fract_x
_atom_site_fract_y
_atom_site_fract_z
Si Si1 0.583949 0.429616 0.095873
Si Si2 0.437985 0.060434 0.399733
Si Si3 0.817988 0.589488 0.646276
Si Si4 0.000000 0.035584 0.250000
Si Si5 0.201587 0.936655 0.857634
O O1 0.566621 0.247988 0.103081
O O2 0.550181 0.522848 0.172115
O O3 0.652248 0.445532 0.111271
O O4 0.570080 0.500000 0.000000
O O5 0.500000 0.014633 0.358724
O O6 0.380487 0.986196 0.361062
O O7 0.438944 0.000000 0.500000
O O8 0.805830 0.607220 0.750000
O O9 0.815442 0.764319 0.608146
O O10 0.765330 0.484664 0.611835
O O11 0.200378 0.936516 0.750000
#
# Coordination Sequence:
#
# PCOD9474668 Si02
#       5
#    16  16  16   4  16
#     4  12  25  45  72 104 140 184 231 285 345 409
#     4  11  25  43  64  95 140 179 230 284 346 412
#     4  10  22  40  67  98 137 180 230 288 348 406
#     4  12  26  44  70 104 146 176 238 274 346 422
#     4  10  21  42  67 102 137 179 231 288 344 410
#
# _framework density 22.706157000000001
#
# number of rings (size 3 to 8) (size 9 to 14) (size 15 to 20)
#    0.000    1.176    2.353    3.176    1.647    3.294 
#    2.118    4.706    0.000    1.412    0.000    0.000 
#    0.000    0.000    0.000    0.000    0.000    0.000 
#
# Total GULP energy -189635.665536 kJ/mol
# GULP energy per Si atom -5577.519575 kJ/mol
# Density = 2.265448 g / cm^3
# Si number density = 22.706157 Si / 1000 Ang^3
#
#
#
# Elastic Constant Matrix: (Units=GPa)
#
#
# Indices 1 2 3 4 5 6 
#
# 1 206.6082 50.8718 12.9035 0.0000 0.0000 0.0000
# 2 50.8718 64.6419 -4.5680 0.0000 0.0000 0.0000
# 3 12.9035 -4.5680 97.7097 0.0000 0.0000 0.0000
# 4 0.0000 0.0000 0.0000 18.3613 0.0000 0.0000
# 5 0.0000 0.0000 0.0000 0.0000 39.6696 0.0000
# 6 0.0000 0.0000 0.0000 0.0000 0.0000 28.2549
#
#
#
# Elastic Compliance Matrix: (Units=1/GPa)
#
#
# Indices 1 2 3 4 5 6 
#
# 1 0.006106 -0.004878 -0.001034 0.000000 0.000000 0.000000
# 2 -0.004878 0.019419 0.001552 0.000000 0.000000 0.000000
# 3 -0.001034 0.001552 0.010444 0.000000 0.000000 0.000000
# 4 0.000000 0.000000 0.000000 0.054462 0.000000 0.000000
# 5 0.000000 0.000000 0.000000 0.000000 0.025208 0.000000
# 6 0.000000 0.000000 0.000000 0.000000 0.000000 0.035392
#
#
# Mechanical properties :
#
#
# Convention : Reuss Voigt Hill
#
# Bulk Modulus (GPa) = 36.70159 54.15273 45.42716
# Shear Modulus (GPa) = 29.61487 37.90733 33.76110
#
# Velocity S-wave (km/s) = 3.61538 4.09035 3.86018
# Velocity P-wave (km/s) = 5.79886 6.79773 6.31806
#
# Compressibility (1/GPa) = 0.02724678
#
# Stress axis : x y z
#
# Youngs Moduli (GPa) = 163.77809 51.49706 95.75277
#
# Poissons Ratio (x) = 0.25122 0.09905
# Poissons Ratio (y) = 0.79895 -0.14861
# Poissons Ratio (z) = 0.16941 -0.07993
#
# Static dielectric constant tensor:
#      x y z
#    x 1.853670 0.000000 0.000000 
#    y 0.000000 1.839150 0.000000 
#    z 0.000000 0.000000 1.879830 
# 
# From -- ./inp_files/46619.got.cif
#   From: 2010.05.17/outbox.cif.g08.bks.cpg/sg63_24_cif.got.tgz:46619.got - 2010.06.03 15:47:04.
