data_PCOD9474116
_publ_section_title
;
Structure prediction by ZEFSAII (Michael W. Deem and Ramdas Pophale) SiO2 
 PCOD9474116
Probable space group: C M C M
;
_chemical_formula_sum "Si O2"
_cell_formula_units_Z 56
_cell_length_a 11.180983
_cell_length_b 28.575823
_cell_length_c 8.992507
_cell_angle_alpha 90.000000
_cell_angle_beta 90.000000
_cell_angle_gamma 90.000000
_cell_volume 2873.158064
_symmetry_space_group_name_H-M "C M C M"
_symmetry_group_IT_number 63
_symmetry_cell_setting 'orthorhombic'
loop_
_space_group_symop_operation_xyz
x,y,z
-x,-y,1/2+z
x,-y,-z
-x,y,1/2-z
-x,-y,-z
x,y,1/2-z
-x,y,z
x,-y,1/2+z
1/2+x,1/2+y,z
1/2-x,1/2-y,1/2+z
1/2+x,1/2-y,-z
1/2-x,1/2+y,1/2-z
1/2-x,1/2-y,-z
1/2+x,1/2+y,1/2-z
1/2-x,1/2+y,z
1/2+x,1/2-y,1/2+z
loop_
_atom_site_type_symbol
_atom_site_label
_atom_site_fract_x
_atom_site_fract_y
_atom_site_fract_z
Si Si1 0.000000 0.050445 0.926511
Si Si2 0.700527 0.386416 0.573197
Si Si3 0.857384 0.547479 0.580376
Si Si4 0.361057 0.721791 0.428682
O O1 0.000000 0.046915 0.750000
O O2 0.111219 0.079781 0.986873
O O3 0.000000 0.000000 0.000000
O O4 0.691447 0.393132 0.750000
O O5 0.825196 0.406020 0.511654
O O6 0.666736 0.332927 0.541418
O O7 0.812642 0.500000 0.500000
O O8 0.812208 0.549708 0.750000
O O9 0.000000 0.543637 0.587115
O O10 0.357796 0.728587 0.250000
O O11 0.500000 0.732260 0.476387
O O12 0.250000 0.750000 0.500000
#
# Coordination Sequence:
#
# PCOD9474116 Si02
#       4
#     8  16  16  16
#     4  12  24  38  60  90 124 162 204 248 305 372
#     4  11  22  40  62  86 122 160 202 254 312 372
#     4  10  21  37  57  85 122 163 208 254 305 369
#     4  10  23  44  67  93 127 165 211 268 327 388
#
# _framework density 19.490748
#
# number of rings (size 3 to 8) (size 9 to 14) (size 15 to 20)
#    0.000    1.429    1.429    3.857    0.000    5.714 
#    0.000    5.714    0.000    0.000    0.000    0.000 
#    0.000    0.000    0.000    0.000    0.000    0.000 
#
# Total GULP energy -156275.596201 kJ/mol
# GULP energy per Si atom -5581.271293 kJ/mol
# Density = 1.944639 g / cm^3
# Si number density = 19.490748 Si / 1000 Ang^3
#
#
#
# Elastic Constant Matrix: (Units=GPa)
#
#
# Indices 1 2 3 4 5 6 
#
# 1 106.3564 68.8774 52.9612 0.0000 0.0000 0.0000
# 2 68.8774 126.1755 82.8502 0.0000 0.0000 0.0000
# 3 52.9612 82.8502 120.6953 0.0000 0.0000 0.0000
# 4 0.0000 0.0000 0.0000 33.7083 0.0000 0.0000
# 5 0.0000 0.0000 0.0000 0.0000 36.6377 0.0000
# 6 0.0000 0.0000 0.0000 0.0000 0.0000 22.9319
#
#
#
# Elastic Compliance Matrix: (Units=1/GPa)
#
#
# Indices 1 2 3 4 5 6 
#
# 1 0.014737 -0.006916 -0.001719 0.000000 0.000000 0.000000
# 2 -0.006916 0.017675 -0.009098 0.000000 0.000000 0.000000
# 3 -0.001719 -0.009098 0.015285 0.000000 0.000000 0.000000
# 4 0.000000 0.000000 0.000000 0.029666 0.000000 0.000000
# 5 0.000000 0.000000 0.000000 0.000000 0.027294 0.000000
# 6 0.000000 0.000000 0.000000 0.000000 0.000000 0.043607
#
#
# Mechanical properties :
#
#
# Convention : Reuss Voigt Hill
#
# Bulk Modulus (GPa) = 81.76235 84.73387 83.24811
# Shear Modulus (GPa) = 26.62289 28.55815 27.59052
#
# Velocity S-wave (km/s) = 3.69985 3.83197 3.76649
# Velocity P-wave (km/s) = 7.76481 7.94650 7.85618
#
# Compressibility (1/GPa) = 0.01223057
#
# Stress axis : x y z
#
# Youngs Moduli (GPa) = 67.85482 56.57797 65.42364
#
# Poissons Ratio (x) = 0.39129 0.11249
# Poissons Ratio (y) = 0.46928 0.59522
# Poissons Ratio (z) = 0.11667 0.51474
#
# Static dielectric constant tensor:
#      x y z
#    x 1.712220 0.000000 0.000000 
#    y 0.000000 1.627840 0.000000 
#    z 0.000000 0.000000 1.662950 
# 
# From -- ./inp_files/2817.got.cif
#   From: 2010.05.17/outbox.cif.g08.bks.cpg/sg63_2_cif.got.tgz:2817.got - 2010.06.03 15:47:04.
