data_PCOD9474939
_publ_section_title
;
Structure prediction by ZEFSAII (Michael W. Deem and Ramdas Pophale) SiO2 
 PCOD9474939
Probable space group: C M C M
;
_chemical_formula_sum "Si O2"
_cell_formula_units_Z 80
_cell_length_a 8.630236
_cell_length_b 16.093304
_cell_length_c 29.405074
_cell_angle_alpha 90.000000
_cell_angle_beta 90.000000
_cell_angle_gamma 90.000000
_cell_volume 4084.041662
_symmetry_space_group_name_H-M "C M C M"
_symmetry_group_IT_number 63
_symmetry_cell_setting 'orthorhombic'
loop_
_space_group_symop_operation_xyz
x,y,z
-x,-y,1/2+z
x,-y,-z
-x,y,1/2-z
-x,-y,-z
x,y,1/2-z
-x,y,z
x,-y,1/2+z
1/2+x,1/2+y,z
1/2-x,1/2-y,1/2+z
1/2+x,1/2-y,-z
1/2-x,1/2+y,1/2-z
1/2-x,1/2-y,-z
1/2+x,1/2+y,1/2-z
1/2-x,1/2+y,z
1/2+x,1/2-y,1/2+z
loop_
_atom_site_type_symbol
_atom_site_label
_atom_site_fract_x
_atom_site_fract_y
_atom_site_fract_z
Si Si1 0.187365 0.965105 0.138944
Si Si2 0.315253 0.719722 0.642345
Si Si3 0.683271 0.721650 0.048323
Si Si4 0.186965 0.124666 0.197828
Si Si5 0.316238 0.960800 0.950647
O O1 0.227891 0.873707 0.157250
O O2 0.000000 0.968123 0.134094
O O3 0.236236 0.041544 0.170984
O O4 0.263309 0.979376 0.089831
O O5 0.500000 0.727713 0.644472
O O6 0.261274 0.731235 0.590374
O O7 0.242580 0.793240 0.671894
O O8 0.500000 0.735205 0.049404
O O9 0.723331 0.624713 0.054404
O O10 0.750000 0.750000 0.000000
O O11 0.240582 0.123834 0.250000
O O12 0.000000 0.124703 0.197738
O O13 0.500000 0.943728 0.947134
O O14 0.286309 0.000000 0.000000
#
# Coordination Sequence:
#
# PCOD9474939 Si02
#       5
#    16  16  16  16  16
#     4  10  22  40  63  91 125 167 209 257 315 377
#     4  11  23  40  64  95 128 164 213 264 317 375
#     4  12  24  39  60  88 126 169 213 258 314 375
#     4  10  22  42  66  92 125 168 214 262 320 378
#     4  11  23  38  59  90 126 164 208 258 313 373
#
# _framework density 19.588436999999999
#
# number of rings (size 3 to 8) (size 9 to 14) (size 15 to 20)
#    0.000    1.200    2.000    4.200    0.000    7.600 
#    0.000    2.000    0.000    0.000    0.000    0.000 
#    0.000    0.000    0.000    0.000    0.000    0.000 
#
# Total GULP energy -223689.836823 kJ/mol
# GULP energy per Si atom -5592.245921 kJ/mol
# Density = 1.954385 g / cm^3
# Si number density = 19.588437 Si / 1000 Ang^3
#
#
#
# Elastic Constant Matrix: (Units=GPa)
#
#
# Indices 1 2 3 4 5 6 
#
# 1 18.8657 20.4496 18.3738 0.0000 0.0000 0.0000
# 2 20.4496 144.9906 63.6913 0.0000 0.0000 0.0000
# 3 18.3738 63.6913 138.4152 0.0000 0.0000 0.0000
# 4 0.0000 0.0000 0.0000 22.8445 0.0000 0.0000
# 5 0.0000 0.0000 0.0000 0.0000 16.3637 0.0000
# 6 0.0000 0.0000 0.0000 0.0000 0.0000 32.3420
#
#
#
# Elastic Compliance Matrix: (Units=1/GPa)
#
#
# Indices 1 2 3 4 5 6 
#
# 1 0.065863 -0.006829 -0.005601 0.000000 0.000000 0.000000
# 2 -0.006829 0.009352 -0.003397 0.000000 0.000000 0.000000
# 3 -0.005601 -0.003397 0.009531 0.000000 0.000000 0.000000
# 4 0.000000 0.000000 0.000000 0.043774 0.000000 0.000000
# 5 0.000000 0.000000 0.000000 0.000000 0.061111 0.000000
# 6 0.000000 0.000000 0.000000 0.000000 0.000000 0.030920
#
#
# Mechanical properties :
#
#
# Convention : Reuss Voigt Hill
#
# Bulk Modulus (GPa) = 18.83465 56.36676 37.60071
# Shear Modulus (GPa) = 18.52519 27.62716 23.07617
#
# Velocity S-wave (km/s) = 3.07859 3.75958 3.43600
# Velocity P-wave (km/s) = 4.71943 6.90535 5.91426
#
# Compressibility (1/GPa) = 0.05309362
#
# Stress axis : x y z
#
# Youngs Moduli (GPa) = 15.18293 106.92435 104.91898
#
# Poissons Ratio (x) = 0.73021 0.58760
# Poissons Ratio (y) = 0.10369 0.35640
# Poissons Ratio (z) = 0.08503 0.36322
#
# Static dielectric constant tensor:
#      x y z
#    x 1.662520 0.000000 0.000000 
#    y 0.000000 1.706740 0.000000 
#    z 0.000000 0.000000 1.672690 
# 
# From -- ./inp_files/66569.got.cif
#   From: 2010.05.17/outbox.cif.g08.bks.cpg/sg63_34_cif.got.tgz:66569.got - 2010.06.03 15:47:04.
