data_PCOD9474583
_publ_section_title
;
Structure prediction by ZEFSAII (Michael W. Deem and Ramdas Pophale) SiO2 
 PCOD9474583
Probable space group: C M C M
;
_chemical_formula_sum "Si O2"
_cell_formula_units_Z 68
_cell_length_a 16.975905
_cell_length_b 11.804089
_cell_length_c 15.067266
_cell_angle_alpha 90.000000
_cell_angle_beta 90.000000
_cell_angle_gamma 90.000000
_cell_volume 3019.255506
_symmetry_space_group_name_H-M "C M C M"
_symmetry_group_IT_number 63
_symmetry_cell_setting 'orthorhombic'
loop_
_space_group_symop_operation_xyz
x,y,z
-x,-y,1/2+z
x,-y,-z
-x,y,1/2-z
-x,-y,-z
x,y,1/2-z
-x,y,z
x,-y,1/2+z
1/2+x,1/2+y,z
1/2-x,1/2-y,1/2+z
1/2+x,1/2-y,-z
1/2-x,1/2+y,1/2-z
1/2-x,1/2-y,-z
1/2+x,1/2+y,1/2-z
1/2-x,1/2+y,z
1/2+x,1/2-y,1/2+z
loop_
_atom_site_type_symbol
_atom_site_label
_atom_site_fract_x
_atom_site_fract_y
_atom_site_fract_z
Si Si1 0.347603 0.973911 0.348008
Si Si2 0.841791 0.735108 0.522232
Si Si3 0.092657 0.174661 0.849164
Si Si4 0.320882 0.565197 0.352512
Si Si5 0.000000 0.456550 0.750000
O O1 0.325264 0.921485 0.250000
O O2 0.355723 0.877582 0.421483
O O3 0.272404 0.051006 0.371190
O O4 0.429842 0.033272 0.325973
O O5 0.750000 0.750000 0.500000
O O6 0.887779 0.745542 0.430764
O O7 0.860490 0.843573 0.584048
O O8 0.112080 0.219966 0.750000
O O9 0.000000 0.150039 0.848711
O O10 0.140876 0.058663 0.862558
O O11 0.330032 0.599982 0.250000
#
# Coordination Sequence:
#
# PCOD9474583 Si02
#       5
#    16  16  16  16   4
#     4   9  20  39  61  93 127 158 208 252 300 366
#     4  12  23  35  65  93 123 163 209 252 310 369
#     4  10  23  41  59  87 128 166 204 255 311 366
#     4  10  21  40  63  89 122 164 201 250 313 372
#     4   8  20  40  64  90 130 166 200 262 298 346
#
# _framework density 22.522107999999999
#
# number of rings (size 3 to 8) (size 9 to 14) (size 15 to 20)
#    0.706    1.176    2.353    1.412    1.647    2.824 
#    0.000    0.000    2.588    1.412    0.000    0.000 
#    0.000    0.000    0.000    0.000    0.000    0.000 
#
# Total GULP energy -189615.374284 kJ/mol
# GULP energy per Si atom -5576.922773 kJ/mol
# Density = 2.247085 g / cm^3
# Si number density = 22.522108 Si / 1000 Ang^3
#
#
#
# Elastic Constant Matrix: (Units=GPa)
#
#
# Indices 1 2 3 4 5 6 
#
# 1 108.7806 20.7163 38.5719 0.0000 0.0000 0.0000
# 2 20.7163 78.7675 81.9521 0.0000 0.0000 0.0000
# 3 38.5719 81.9521 148.7960 0.0000 0.0000 0.0000
# 4 0.0000 0.0000 0.0000 38.3573 0.0000 0.0000
# 5 0.0000 0.0000 0.0000 0.0000 35.4973 0.0000
# 6 0.0000 0.0000 0.0000 0.0000 0.0000 -5.7145
#
#
#
# Elastic Compliance Matrix: (Units=1/GPa)
#
#
# Indices 1 2 3 4 5 6 
#
# 1 0.010124 0.000159 -0.002712 0.000000 0.000000 0.000000
# 2 0.000159 0.029737 -0.016419 0.000000 0.000000 0.000000
# 3 -0.002712 -0.016419 0.016467 0.000000 0.000000 0.000000
# 4 0.000000 0.000000 0.000000 0.026071 0.000000 0.000000
# 5 0.000000 0.000000 0.000000 0.000000 0.028171 0.000000
# 6 0.000000 0.000000 0.000000 0.000000 0.000000 -0.174995
#
#
# Mechanical properties :
#
#
# Convention : Reuss Voigt Hill
#
# Bulk Modulus (GPa) = 54.39759 68.75831 61.57795
# Shear Modulus (GPa) = -245.67475 26.63494 -109.51991
#
# Velocity S-wave (km/s) = -10.45554 3.44264 -6.98092
# Velocity P-wave (km/s) = 11.02508 6.81160 6.13003
#
# Compressibility (1/GPa) = 0.01838317
#
# Stress axis : x y z
#
# Youngs Moduli (GPa) = 98.77348 33.62809 60.72782
#
# Poissons Ratio (x) = -0.00534 0.16469
# Poissons Ratio (y) = -0.01569 0.99711
# Poissons Ratio (z) = 0.26787 0.55215
#
# Static dielectric constant tensor:
#      x y z
#    x 2.041120 0.000000 0.000000 
#    y 0.000000 1.870460 0.000000 
#    z 0.000000 0.000000 1.862980 
# 
# From -- ./inp_files/45336.got.cif
#   From: 2010.05.17/outbox.cif.g08.bks.cpg/sg63_23_cif.got.tgz:45336.got - 2010.06.03 15:47:04.
