data_PCOD9474515
_publ_section_title
;
Structure prediction by ZEFSAII (Michael W. Deem and Ramdas Pophale) SiO2 
 PCOD9474515
Probable space group: C M C M
;
_chemical_formula_sum "Si O2"
_cell_formula_units_Z 72
_cell_length_a 29.514208
_cell_length_b 14.190994
_cell_length_c 8.692585
_cell_angle_alpha 90.000000
_cell_angle_beta 90.000000
_cell_angle_gamma 90.000000
_cell_volume 3640.767085
_symmetry_space_group_name_H-M "C M C M"
_symmetry_group_IT_number 63
_symmetry_cell_setting 'orthorhombic'
loop_
_space_group_symop_operation_xyz
x,y,z
-x,-y,1/2+z
x,-y,-z
-x,y,1/2-z
-x,-y,-z
x,y,1/2-z
-x,y,z
x,-y,1/2+z
1/2+x,1/2+y,z
1/2-x,1/2-y,1/2+z
1/2+x,1/2-y,-z
1/2-x,1/2+y,1/2-z
1/2-x,1/2-y,-z
1/2+x,1/2+y,1/2-z
1/2-x,1/2+y,z
1/2+x,1/2-y,1/2+z
loop_
_atom_site_type_symbol
_atom_site_label
_atom_site_fract_x
_atom_site_fract_y
_atom_site_fract_z
Si Si1 0.225452 0.602150 0.434256
Si Si2 0.447532 0.901319 0.065569
Si Si3 0.500000 0.604312 0.934087
Si Si4 0.589239 0.703426 0.434936
Si Si5 0.685345 0.304073 0.434391
O O1 0.211853 0.500000 0.500000
O O2 0.225797 0.596285 0.250000
O O3 0.275305 0.631093 0.494957
O O4 0.195616 0.694344 0.478439
O O5 0.448268 0.906100 0.250000
O O6 0.500000 0.887029 0.014035
O O7 0.417443 0.812970 0.020515
O O8 0.431250 0.000000 0.000000
O O9 0.500000 0.605885 0.750000
O O10 0.500000 0.500000 0.000000
O O11 0.454873 0.653187 0.998285
O O12 0.589274 0.695730 0.250000
O O13 0.636278 0.668048 0.503292
O O14 0.687111 0.310479 0.250000
#
# Coordination Sequence:
#
# PCOD9474515 Si02
#       5
#    16  16   8  16  16
#     4  10  21  39  63  89 121 158 196 244 300 358
#     4   9  18  33  53  79 112 150 191 235 284 339
#     4  12  26  44  65  88 117 156 203 252 300 350
#     4  11  22  40  62  87 122 159 200 248 299 350
#     4  10  22  39  60  90 122 155 200 246 297 356
#
# _framework density 19.776053000000001
#
# number of rings (size 3 to 8) (size 9 to 14) (size 15 to 20)
#    0.000    1.778    1.111    3.000    0.000    6.222 
#    0.000    8.889    0.000    0.000    0.000    0.000 
#    0.000    0.000    0.000    0.000    0.000    0.000 
#
# Total GULP energy -201136.829921 kJ/mol
# GULP energy per Si atom -5587.134164 kJ/mol
# Density = 1.973104 g / cm^3
# Si number density = 19.776053 Si / 1000 Ang^3
#
#
#
# Elastic Constant Matrix: (Units=GPa)
#
#
# Indices 1 2 3 4 5 6 
#
# 1 97.9716 3.3230 16.1202 0.0000 0.0000 0.0000
# 2 3.3230 59.6921 13.3319 0.0000 0.0000 0.0000
# 3 16.1202 13.3319 42.9022 0.0000 0.0000 0.0000
# 4 0.0000 0.0000 0.0000 35.7721 0.0000 0.0000
# 5 0.0000 0.0000 0.0000 0.0000 26.4490 0.0000
# 6 0.0000 0.0000 0.0000 0.0000 0.0000 6.2949
#
#
#
# Elastic Compliance Matrix: (Units=1/GPa)
#
#
# Indices 1 2 3 4 5 6 
#
# 1 0.010886 0.000330 -0.004193 0.000000 0.000000 0.000000
# 2 0.000330 0.018012 -0.005721 0.000000 0.000000 0.000000
# 3 -0.004193 -0.005721 0.026662 0.000000 0.000000 0.000000
# 4 0.000000 0.000000 0.000000 0.027955 0.000000 0.000000
# 5 0.000000 0.000000 0.000000 0.000000 0.037809 0.000000
# 6 0.000000 0.000000 0.000000 0.000000 0.000000 0.158858
#
#
# Mechanical properties :
#
#
# Convention : Reuss Voigt Hill
#
# Bulk Modulus (GPa) = 27.47841 29.56849 28.52345
# Shear Modulus (GPa) = 16.05241 24.88925 20.47083
#
# Velocity S-wave (km/s) = 2.85214 3.55146 3.22084
# Velocity P-wave (km/s) = 4.97707 5.63926 5.31848
#
# Compressibility (1/GPa) = 0.03639221
#
# Stress axis : x y z
#
# Youngs Moduli (GPa) = 91.86336 55.51822 37.50622
#
# Poissons Ratio (x) = -0.01835 0.15726
# Poissons Ratio (y) = -0.03036 0.21459
# Poissons Ratio (z) = 0.38518 0.31765
#
# Static dielectric constant tensor:
#      x y z
#    x 1.709030 0.000000 0.000000 
#    y 0.000000 1.689740 0.000000 
#    z 0.000000 0.000000 1.653540 
# 
# From -- ./inp_files/13926.got.cif
#   From: 2010.05.17/outbox.cif.g08.bks.cpg/sg63_7_cif.got.tgz:13926.got - 2010.06.03 15:47:04.
