data_PCOD9474698
_publ_section_title
;
Structure prediction by ZEFSAII (Michael W. Deem and Ramdas Pophale) SiO2 
 PCOD9474698
Probable space group: C M C M
;
_chemical_formula_sum "Si O2"
_cell_formula_units_Z 88
_cell_length_a 27.716220
_cell_length_b 15.662370
_cell_length_c 11.226162
_cell_angle_alpha 90.000000
_cell_angle_beta 90.000000
_cell_angle_gamma 90.000000
_cell_volume 4873.295926
_symmetry_space_group_name_H-M "C M C M"
_symmetry_group_IT_number 63
_symmetry_cell_setting 'orthorhombic'
loop_
_space_group_symop_operation_xyz
x,y,z
-x,-y,1/2+z
x,-y,-z
-x,y,1/2-z
-x,-y,-z
x,y,1/2-z
-x,y,z
x,-y,1/2+z
1/2+x,1/2+y,z
1/2-x,1/2-y,1/2+z
1/2+x,1/2-y,-z
1/2-x,1/2+y,1/2-z
1/2-x,1/2-y,-z
1/2+x,1/2+y,1/2-z
1/2-x,1/2+y,z
1/2+x,1/2-y,1/2+z
loop_
_atom_site_type_symbol
_atom_site_label
_atom_site_fract_x
_atom_site_fract_y
_atom_site_fract_z
Si Si1 0.557589 0.441320 0.386597
Si Si2 0.670180 0.865546 0.503788
Si Si3 0.190091 0.433053 0.750000
Si Si4 0.716987 0.398162 0.996714
Si Si5 0.685630 0.118689 0.750000
Si Si6 0.363772 0.697577 0.616331
Si Si7 0.783190 0.182677 0.250000
O O1 0.570925 0.500000 0.500000
O O2 0.568817 0.472662 0.250000
O O3 0.500000 0.428651 0.391156
O O4 0.587590 0.354854 0.402522
O O5 0.663604 0.922077 0.622932
O O6 0.728837 0.861871 0.489604
O O7 0.655090 0.889517 0.370939
O O8 0.646265 0.775914 0.531336
O O9 0.214872 0.527557 0.750000
O O10 0.228274 0.354257 0.750000
O O11 0.697368 0.360506 0.871177
O O12 0.720134 0.500000 0.000000
O O13 0.681064 0.366068 0.097420
O O14 0.709455 0.214477 0.750000
O O15 0.363758 0.731171 0.750000
#
# Coordination Sequence:
#
# PCOD9474698 Si02
#       7
#    16  16   8  16   8  16   8
#     4   9  19  39  63  88 115 147 188 235 292 355
#     4  11  22  37  50  74 108 145 193 236 274 330
#     4  10  22  38  52  72 103 144 199 234 290 336
#     4  11  23  35  50  74 109 152 197 236 279 332
#     4  12  22  36  54  72 102 146 190 244 279 328
#     4  11  22  35  54  79 110 149 185 234 283 335
#     4  10  22  36  50  72  98 144 192 244 277 322
#
# _framework density 18.057594000000002
#
# number of rings (size 3 to 8) (size 9 to 14) (size 15 to 20)
#    0.000    1.455    2.727    3.818    5.091    0.000 
#    3.273    0.000    0.000    0.000    0.000    0.000 
#    0.000    8.000    0.000    0.000    0.000    0.000 
#
# Total GULP energy -245045.042475 kJ/mol
# GULP energy per Si atom -5569.205511 kJ/mol
# Density = 1.801649 g / cm^3
# Si number density = 18.057594 Si / 1000 Ang^3
#
#
#
# Elastic Constant Matrix: (Units=GPa)
#
#
# Indices 1 2 3 4 5 6 
#
# 1 12.0750 20.3906 18.7097 0.0000 0.0000 0.0000
# 2 20.3906 119.4357 58.9313 0.0000 0.0000 0.0000
# 3 18.7097 58.9313 153.1849 0.0000 0.0000 0.0000
# 4 0.0000 0.0000 0.0000 22.4114 0.0000 0.0000
# 5 0.0000 0.0000 0.0000 0.0000 5.0411 0.0000
# 6 0.0000 0.0000 0.0000 0.0000 0.0000 11.7370
#
#
#
# Elastic Compliance Matrix: (Units=1/GPa)
#
#
# Indices 1 2 3 4 5 6 
#
# 1 0.125140 -0.017062 -0.008721 0.000000 0.000000 0.000000
# 2 -0.017062 0.012661 -0.002787 0.000000 0.000000 0.000000
# 3 -0.008721 -0.002787 0.008665 0.000000 0.000000 0.000000
# 4 0.000000 0.000000 0.000000 0.044620 0.000000 0.000000
# 5 0.000000 0.000000 0.000000 0.000000 0.198370 0.000000
# 6 0.000000 0.000000 0.000000 0.000000 0.000000 0.085200
#
#
# Mechanical properties :
#
#
# Convention : Reuss Voigt Hill
#
# Bulk Modulus (GPa) = 11.19475 53.41765 32.30620
# Shear Modulus (GPa) = 8.90361 20.28216 14.59289
#
# Velocity S-wave (km/s) = 2.22292 3.35504 2.84585
# Velocity P-wave (km/s) = 3.57791 6.68240 5.35985
#
# Compressibility (1/GPa) = 0.08932756
#
# Stress axis : x y z
#
# Youngs Moduli (GPa) = 7.99108 78.98548 115.40332
#
# Poissons Ratio (x) = 1.34761 1.00639
# Poissons Ratio (y) = 0.13634 0.32160
# Poissons Ratio (z) = 0.06969 0.22011
#
# Static dielectric constant tensor:
#      x y z
#    x 1.579240 0.000000 0.000000 
#    y 0.000000 1.666110 0.000000 
#    z 0.000000 0.000000 1.745150 
# 
# From -- ./inp_files/24927.got.cif
#   From: 2010.05.17/outbox.cif.g08.bks.cpg/sg63_13_cif.got.tgz:24927.got - 2010.06.03 15:47:04.
