data_PCOD9474421
_publ_section_title
;
Structure prediction by ZEFSAII (Michael W. Deem and Ramdas Pophale) SiO2 
 PCOD9474421
Probable space group: C M C M
;
_chemical_formula_sum "Si O2"
_cell_formula_units_Z 104
_cell_length_a 9.524537
_cell_length_b 19.725387
_cell_length_c 28.873010
_cell_angle_alpha 90.000000
_cell_angle_beta 90.000000
_cell_angle_gamma 90.000000
_cell_volume 5424.521902
_symmetry_space_group_name_H-M "C M C M"
_symmetry_group_IT_number 63
_symmetry_cell_setting 'orthorhombic'
loop_
_space_group_symop_operation_xyz
x,y,z
-x,-y,1/2+z
x,-y,-z
-x,y,1/2-z
-x,-y,-z
x,y,1/2-z
-x,y,z
x,-y,1/2+z
1/2+x,1/2+y,z
1/2-x,1/2-y,1/2+z
1/2+x,1/2-y,-z
1/2-x,1/2+y,1/2-z
1/2-x,1/2-y,-z
1/2+x,1/2+y,1/2-z
1/2-x,1/2+y,z
1/2+x,1/2-y,1/2+z
loop_
_atom_site_type_symbol
_atom_site_label
_atom_site_fract_x
_atom_site_fract_y
_atom_site_fract_z
Si Si1 0.234371 0.682245 0.943546
Si Si2 0.000000 0.261081 0.986320
Si Si3 0.166572 0.954930 0.642596
Si Si4 0.166770 0.659795 0.195893
Si Si5 0.840187 0.716571 0.838756
Si Si6 0.168669 0.029579 0.549759
Si Si7 0.342084 0.063010 0.804921
O O1 0.377510 0.718800 0.958161
O O2 0.185537 0.710096 0.893627
O O3 0.258375 0.601224 0.940291
O O4 0.121328 0.700105 0.982508
O O5 0.252586 0.891949 0.662450
O O6 0.000000 0.944669 0.648054
O O7 0.196599 0.973913 0.589326
O O8 0.222661 0.019459 0.670942
O O9 0.191947 0.642449 0.250000
O O10 0.230336 0.733142 0.184660
O O11 0.000000 0.657703 0.187951
O O12 0.828142 0.641642 0.817561
O O13 0.000000 0.740987 0.830551
O O14 0.000000 0.041248 0.549533
O O15 0.209400 0.000000 0.500000
O O16 0.334756 0.054072 0.750000
O O17 0.500000 0.040839 0.820062
#
# Coordination Sequence:
#
# PCOD9474421 Si02
#       7
#    16   8  16  16  16  16  16
#     4  11  21  43  63  97 129 171 215 274 319 395
#     4  10  24  36  66  92 132 172 218 262 330 380
#     4  11  23  40  67  96 129 175 218 265 324 387
#     4  11  26  46  66  95 134 173 218 276 335 393
#     4  11  23  41  69  95 132 170 216 274 331 390
#     4  10  22  42  66  92 130 170 216 268 319 377
#     4  10  21  38  64  94 126 166 211 263 327 387
#
# _framework density 19.172197000000001
#
# number of rings (size 3 to 8) (size 9 to 14) (size 15 to 20)
#    0.000    1.385    3.077    1.846    1.077    7.077 
#    4.154    0.385    0.000    0.000    0.000    0.000 
#    0.000    0.000    0.000    0.000    0.000    0.000 
#
# Total GULP energy -289482.914890 kJ/mol
# GULP energy per Si atom -5566.979133 kJ/mol
# Density = 1.912856 g / cm^3
# Si number density = 19.172197 Si / 1000 Ang^3
#
#
#
# Elastic Constant Matrix: (Units=GPa)
#
#
# Indices 1 2 3 4 5 6 
#
# 1 93.1808 18.1142 21.3160 0.0000 0.0000 0.0000
# 2 18.1142 28.5397 14.5387 0.0000 0.0000 0.0000
# 3 21.3160 14.5387 62.0251 0.0000 0.0000 0.0000
# 4 0.0000 0.0000 0.0000 33.4964 0.0000 0.0000
# 5 0.0000 0.0000 0.0000 0.0000 25.9075 0.0000
# 6 0.0000 0.0000 0.0000 0.0000 0.0000 29.0155
#
#
#
# Elastic Compliance Matrix: (Units=1/GPa)
#
#
# Indices 1 2 3 4 5 6 
#
# 1 0.012657 -0.006606 -0.002801 0.000000 0.000000 0.000000
# 2 -0.006606 0.043238 -0.007865 0.000000 0.000000 0.000000
# 3 -0.002801 -0.007865 0.018929 0.000000 0.000000 0.000000
# 4 0.000000 0.000000 0.000000 0.029854 0.000000 0.000000
# 5 0.000000 0.000000 0.000000 0.000000 0.038599 0.000000
# 6 0.000000 0.000000 0.000000 0.000000 0.000000 0.034464
#
#
# Mechanical properties :
#
#
# Convention : Reuss Voigt Hill
#
# Bulk Modulus (GPa) = 24.82659 32.40928 28.61793
# Shear Modulus (GPa) = 22.15209 26.33566 24.24387
#
# Velocity S-wave (km/s) = 3.40285 3.71028 3.55988
# Velocity P-wave (km/s) = 5.33072 5.94104 5.64413
#
# Compressibility (1/GPa) = 0.04027940
#
# Stress axis : x y z
#
# Youngs Moduli (GPa) = 79.00831 23.12755 52.82982
#
# Poissons Ratio (x) = 0.15279 0.14799
# Poissons Ratio (y) = 0.52196 0.41549
# Poissons Ratio (z) = 0.22132 0.18189
#
# Static dielectric constant tensor:
#      x y z
#    x 1.646550 0.000000 0.000000 
#    y 0.000000 1.656870 0.000000 
#    z 0.000000 0.000000 1.654110 
# 
# From -- ./inp_files/67099.got.cif
#   From: 2010.05.17/outbox.cif.g08.bks.cpg/sg63_34_cif.got.tgz:67099.got - 2010.06.03 15:47:04.
