data_PCOD9474149
_publ_section_title
;
Structure prediction by ZEFSAII (Michael W. Deem and Ramdas Pophale) SiO2 
 PCOD9474149
Probable space group: C M C M
;
_chemical_formula_sum "Si O2"
_cell_formula_units_Z 80
_cell_length_a 22.313588
_cell_length_b 14.114806
_cell_length_c 11.567495
_cell_angle_alpha 90.000000
_cell_angle_beta 90.000000
_cell_angle_gamma 90.000000
_cell_volume 3643.205289
_symmetry_space_group_name_H-M "C M C M"
_symmetry_group_IT_number 63
_symmetry_cell_setting 'orthorhombic'
loop_
_space_group_symop_operation_xyz
x,y,z
-x,-y,1/2+z
x,-y,-z
-x,y,1/2-z
-x,-y,-z
x,y,1/2-z
-x,y,z
x,-y,1/2+z
1/2+x,1/2+y,z
1/2-x,1/2-y,1/2+z
1/2+x,1/2-y,-z
1/2-x,1/2+y,1/2-z
1/2-x,1/2-y,-z
1/2+x,1/2+y,1/2-z
1/2-x,1/2+y,z
1/2+x,1/2-y,1/2+z
loop_
_atom_site_type_symbol
_atom_site_label
_atom_site_fract_x
_atom_site_fract_y
_atom_site_fract_z
Si Si1 0.740017 0.404374 0.550283
Si Si2 0.892677 0.948285 0.622910
Si Si3 0.177793 0.240200 0.621319
Si Si4 0.931694 0.253501 0.452681
Si Si5 0.571930 0.961766 0.124812
O O1 0.767508 0.500000 0.500000
O O2 0.679363 0.433965 0.616726
O O3 0.785745 0.338273 0.617502
O O4 0.716342 0.338079 0.446248
O O5 0.908144 0.990295 0.750000
O O6 0.921487 0.844041 0.615107
O O7 0.908473 0.000000 0.500000
O O8 0.167983 0.207654 0.750000
O O9 0.115597 0.252059 0.555781
O O10 0.919456 0.348447 0.380598
O O11 0.000000 0.259035 0.493357
O O12 0.595804 0.997201 0.250000
O O13 0.500000 0.979928 0.126388
O O14 0.593282 0.000000 0.000000
#
# Coordination Sequence:
#
# PCOD9474149 Si02
#       5
#    16  16  16  16  16
#     4   9  20  38  61  87 118 153 195 247 311 370
#     4  10  21  38  63  92 121 156 200 250 305 365
#     4  10  21  37  58  87 120 155 202 253 298 355
#     4  10  22  38  56  82 120 164 203 241 293 358
#     4   9  18  34  55  77 104 144 195 245 290 339
#
# _framework density 21.958684999999999
#
# number of rings (size 3 to 8) (size 9 to 14) (size 15 to 20)
#    0.000    2.400    0.000    1.200    0.000   11.600 
#    0.000    3.000    0.000    0.000    0.000    0.000 
#    0.000    0.000    0.000    0.000    0.000    0.000 
#
# Total GULP energy -223256.214688 kJ/mol
# GULP energy per Si atom -5581.405367 kJ/mol
# Density = 2.190871 g / cm^3
# Si number density = 21.958685 Si / 1000 Ang^3
#
#
#
# Elastic Constant Matrix: (Units=GPa)
#
#
# Indices 1 2 3 4 5 6 
#
# 1 58.1622 15.4288 34.8623 0.0000 0.0000 0.0000
# 2 15.4288 102.8724 42.0900 0.0000 0.0000 0.0000
# 3 34.8623 42.0900 209.0290 0.0000 0.0000 0.0000
# 4 0.0000 0.0000 0.0000 -0.4837 0.0000 0.0000
# 5 0.0000 0.0000 0.0000 0.0000 -31.7598 0.0000
# 6 0.0000 0.0000 0.0000 0.0000 0.0000 25.5520
#
#
#
# Elastic Compliance Matrix: (Units=1/GPa)
#
#
# Indices 1 2 3 4 5 6 
#
# 1 0.019380 -0.001726 -0.002885 0.000000 0.000000 0.000000
# 2 -0.001726 0.010747 -0.001876 0.000000 0.000000 0.000000
# 3 -0.002885 -0.001876 0.005643 0.000000 0.000000 0.000000
# 4 0.000000 0.000000 0.000000 -2.067272 0.000000 0.000000
# 5 0.000000 0.000000 0.000000 0.000000 -0.031486 0.000000
# 6 0.000000 0.000000 0.000000 0.000000 0.000000 0.039136
#
#
# Mechanical properties :
#
#
# Convention : Reuss Voigt Hill
#
# Bulk Modulus (GPa) = 43.86709 61.64731 52.75720
# Shear Modulus (GPa) = -2.49591 17.17385 7.33897
#
# Velocity S-wave (km/s) = -1.06729 2.79964 1.83014
# Velocity P-wave (km/s) = 4.30136 6.21175 5.34263
#
# Compressibility (1/GPa) = 0.02279613
#
# Stress axis : x y z
#
# Youngs Moduli (GPa) = 51.59872 93.04638 177.21333
#
# Poissons Ratio (x) = 0.16064 0.51120
# Poissons Ratio (y) = 0.08908 0.33248
# Poissons Ratio (z) = 0.14885 0.17457
#
# Static dielectric constant tensor:
#      x y z
#    x 1.776440 0.000000 0.000000 
#    y 0.000000 1.824340 0.000000 
#    z 0.000000 0.000000 1.813540 
# 
# From -- ./inp_files/23670.got.cif
#   From: 2010.05.17/outbox.cif.g08.bks.cpg/sg63_12_cif.got.tgz:23670.got - 2010.06.03 15:47:04.
