data_PCOD9474381
_publ_section_title
;
Structure prediction by ZEFSAII (Michael W. Deem and Ramdas Pophale) SiO2 
 PCOD9474381
Probable space group: C M C M
;
_chemical_formula_sum "Si O2"
_cell_formula_units_Z 64
_cell_length_a 11.989439
_cell_length_b 17.039206
_cell_length_c 16.023482
_cell_angle_alpha 90.000000
_cell_angle_beta 90.000000
_cell_angle_gamma 90.000000
_cell_volume 3273.445485
_symmetry_space_group_name_H-M "C M C M"
_symmetry_group_IT_number 63
_symmetry_cell_setting 'orthorhombic'
loop_
_space_group_symop_operation_xyz
x,y,z
-x,-y,1/2+z
x,-y,-z
-x,y,1/2-z
-x,-y,-z
x,y,1/2-z
-x,y,z
x,-y,1/2+z
1/2+x,1/2+y,z
1/2-x,1/2-y,1/2+z
1/2+x,1/2-y,-z
1/2-x,1/2+y,1/2-z
1/2-x,1/2-y,-z
1/2+x,1/2+y,1/2-z
1/2-x,1/2+y,z
1/2+x,1/2-y,1/2+z
loop_
_atom_site_type_symbol
_atom_site_label
_atom_site_fract_x
_atom_site_fract_y
_atom_site_fract_z
Si Si1 0.374777 0.093113 0.996350
Si Si2 0.219030 0.866596 0.154788
Si Si3 0.500000 0.645652 0.351227
Si Si4 0.738207 0.707972 0.090016
Si Si5 0.500000 0.461947 0.351304
O O1 0.500000 0.125053 0.999830
O O2 0.318428 0.114866 0.908461
O O3 0.305166 0.128229 0.073531
O O4 0.376665 0.000000 0.000000
O O5 0.241396 0.890240 0.250000
O O6 0.207198 0.772175 0.150687
O O7 0.110001 0.913483 0.123418
O O8 0.500000 0.648713 0.250000
O O9 0.387832 0.687258 0.384510
O O10 0.500000 0.553212 0.377390
O O11 0.750000 0.750000 0.000000
O O12 0.500000 0.461868 0.250000
#
# Coordination Sequence:
#
# PCOD9474381 Si02
#       5
#    16  16   8  16   8
#     4  10  22  39  59  86 124 166 206 248 307 382
#     4  10  21  38  62  89 121 161 209 264 317 371
#     4  11  22  41  65  91 120 160 214 267 312 375
#     4  10  23  36  59  88 122 157 204 256 314 372
#     4   9  20  37  61  89 117 152 204 261 316 367
#
# _framework density 19.551265000000001
#
# number of rings (size 3 to 8) (size 9 to 14) (size 15 to 20)
#    0.000    2.000    0.000    2.250    8.750    3.500 
#    0.000    7.500    0.000    3.000    0.000    0.000 
#    0.000    0.000    0.000    0.000    0.000    0.000 
#
# Total GULP energy -178451.671224 kJ/mol
# GULP energy per Si atom -5576.614726 kJ/mol
# Density = 1.950677 g / cm^3
# Si number density = 19.551265 Si / 1000 Ang^3
#
#
#
# Elastic Constant Matrix: (Units=GPa)
#
#
# Indices 1 2 3 4 5 6 
#
# 1 137.2054 50.3524 46.2144 0.0000 0.0000 0.0000
# 2 50.3524 107.0755 17.9472 0.0000 0.0000 0.0000
# 3 46.2144 17.9472 70.4747 0.0000 0.0000 0.0000
# 4 0.0000 0.0000 0.0000 28.8765 0.0000 0.0000
# 5 0.0000 0.0000 0.0000 0.0000 14.6323 0.0000
# 6 0.0000 0.0000 0.0000 0.0000 0.0000 27.0840
#
#
#
# Elastic Compliance Matrix: (Units=1/GPa)
#
#
# Indices 1 2 3 4 5 6 
#
# 1 0.010825 -0.004075 -0.006061 0.000000 0.000000 0.000000
# 2 -0.004075 0.011289 -0.000203 0.000000 0.000000 0.000000
# 3 -0.006061 -0.000203 0.018216 0.000000 0.000000 0.000000
# 4 0.000000 0.000000 0.000000 0.034630 0.000000 0.000000
# 5 0.000000 0.000000 0.000000 0.000000 0.068342 0.000000
# 6 0.000000 0.000000 0.000000 0.000000 0.000000 0.036922
#
#
# Mechanical properties :
#
#
# Convention : Reuss Voigt Hill
#
# Bulk Modulus (GPa) = 50.88300 60.42039 55.65170
# Shear Modulus (GPa) = 24.10186 27.46802 25.78494
#
# Velocity S-wave (km/s) = 3.51487 3.75230 3.63552
# Velocity P-wave (km/s) = 6.52337 7.05292 6.79330
#
# Compressibility (1/GPa) = 0.01965293
#
# Stress axis : x y z
#
# Youngs Moduli (GPa) = 92.37701 88.57915 54.89753
#
# Poissons Ratio (x) = 0.36093 0.33274
# Poissons Ratio (y) = 0.37640 0.01114
# Poissons Ratio (z) = 0.55990 0.01798
#
# Static dielectric constant tensor:
#      x y z
#    x 1.688440 0.000000 0.000000 
#    y 0.000000 1.786890 0.000000 
#    z 0.000000 0.000000 1.737190 
# 
# From -- ./inp_files/50391.got.cif
#   From: 2010.05.17/outbox.cif.g08.bks.cpg/sg63_26_cif.got.tgz:50391.got - 2010.06.03 15:47:04.
