data_PCOD9474108
_publ_section_title
;
Structure prediction by ZEFSAII (Michael W. Deem and Ramdas Pophale) SiO2 
 PCOD9474108
Probable space group: C M C M
;
_chemical_formula_sum "Si O2"
_cell_formula_units_Z 112
_cell_length_a 24.873983
_cell_length_b 15.571000
_cell_length_c 15.510402
_cell_angle_alpha 90.000000
_cell_angle_beta 90.000000
_cell_angle_gamma 90.000000
_cell_volume 6007.377062
_symmetry_space_group_name_H-M "C M C M"
_symmetry_group_IT_number 63
_symmetry_cell_setting 'orthorhombic'
loop_
_space_group_symop_operation_xyz
x,y,z
-x,-y,1/2+z
x,-y,-z
-x,y,1/2-z
-x,-y,-z
x,y,1/2-z
-x,y,z
x,-y,1/2+z
1/2+x,1/2+y,z
1/2-x,1/2-y,1/2+z
1/2+x,1/2-y,-z
1/2-x,1/2+y,1/2-z
1/2-x,1/2-y,-z
1/2+x,1/2+y,1/2-z
1/2-x,1/2+y,z
1/2+x,1/2-y,1/2+z
loop_
_atom_site_type_symbol
_atom_site_label
_atom_site_fract_x
_atom_site_fract_y
_atom_site_fract_z
Si Si1 0.247823 0.118324 0.149229
Si Si2 0.161148 0.596553 0.490075
Si Si3 0.136297 0.973479 0.599889
Si Si4 0.802416 0.301161 0.153764
Si Si5 0.084036 0.797430 0.846915
Si Si6 0.058600 0.717314 0.023110
Si Si7 0.561136 0.625087 0.653025
O O1 0.260325 0.108373 0.250000
O O2 0.295994 0.095316 0.086661
O O3 0.235779 0.219982 0.133801
O O4 0.194865 0.060439 0.129700
O O5 0.141220 0.500000 0.500000
O O6 0.191555 0.631612 0.576249
O O7 0.110151 0.656558 0.470736
O O8 0.107694 0.054528 0.644287
O O9 0.139340 0.000000 0.500000
O O10 0.097666 0.892999 0.620616
O O11 0.789500 0.336052 0.250000
O O12 0.859879 0.253914 0.159665
O O13 0.061244 0.799666 0.750000
O O14 0.055338 0.749631 0.924607
O O15 0.067996 0.800026 0.083515
O O16 0.000000 0.679815 0.046929
O O17 0.562931 0.660681 0.750000
O O18 0.500000 0.588830 0.640356
#
# Coordination Sequence:
#
# PCOD9474108 Si02
#       7
#    16  16  16  16  16  16  16
#     4  10  21  38  60  88 122 157 196 239 293 362
#     4  11  23  39  60  86 117 152 194 251 307 350
#     4  11  19  33  58  88 126 161 192 238 291 354
#     4   8  17  36  60  83 112 151 191 238 292 349
#     4   9  17  32  55  85 119 154 192 239 295 353
#     4  10  22  40  60  83 113 154 205 254 297 351
#     4  10  21  37  57  84 120 161 203 242 285 344
#
# _framework density 18.643744000000002
#
# number of rings (size 3 to 8) (size 9 to 14) (size 15 to 20)
#    0.000    2.143    1.429    3.000    0.000    2.571 
#    2.571    0.000    0.000    0.000    0.000    4.000 
#    0.000    0.000    0.000    0.000    0.000    0.000 
#
# Total GULP energy -312118.760171 kJ/mol
# GULP energy per Si atom -5573.549289 kJ/mol
# Density = 1.860131 g / cm^3
# Si number density = 18.643744 Si / 1000 Ang^3
#
#
#
# Elastic Constant Matrix: (Units=GPa)
#
#
# Indices 1 2 3 4 5 6 
#
# 1 91.9980 42.1233 21.0106 0.0000 0.0000 0.0000
# 2 42.1233 75.1068 44.5828 0.0000 0.0000 0.0000
# 3 21.0106 44.5828 102.7091 0.0000 0.0000 0.0000
# 4 0.0000 0.0000 0.0000 1.2972 0.0000 0.0000
# 5 0.0000 0.0000 0.0000 0.0000 27.3883 0.0000
# 6 0.0000 0.0000 0.0000 0.0000 0.0000 18.6123
#
#
#
# Elastic Compliance Matrix: (Units=1/GPa)
#
#
# Indices 1 2 3 4 5 6 
#
# 1 0.014670 -0.008684 0.000768 0.000000 0.000000 0.000000
# 2 -0.008684 0.023076 -0.008240 0.000000 0.000000 0.000000
# 3 0.000768 -0.008240 0.013156 0.000000 0.000000 0.000000
# 4 0.000000 0.000000 0.000000 0.770879 0.000000 0.000000
# 5 0.000000 0.000000 0.000000 0.000000 0.036512 0.000000
# 6 0.000000 0.000000 0.000000 0.000000 0.000000 0.053728
#
#
# Mechanical properties :
#
#
# Convention : Reuss Voigt Hill
#
# Bulk Modulus (GPa) = 53.78987 53.91638 53.85312
# Shear Modulus (GPa) = 5.26022 20.26604 12.76313
#
# Velocity S-wave (km/s) = 1.68154 3.30057 2.61929
# Velocity P-wave (km/s) = 5.71701 6.59599 6.17216
#
# Compressibility (1/GPa) = 0.01859086
#
# Stress axis : x y z
#
# Youngs Moduli (GPa) = 68.16419 43.33500 76.01185
#
# Poissons Ratio (x) = 0.37632 -0.05841
# Poissons Ratio (y) = 0.59194 0.62635
# Poissons Ratio (z) = -0.05238 0.35709
#
# Static dielectric constant tensor:
#      x y z
#    x 1.651460 0.000000 0.000000 
#    y 0.000000 1.622180 0.000000 
#    z 0.000000 0.000000 1.654880 
# 
# From -- ./inp_files/36947.got.cif
#   From: 2010.05.17/outbox.cif.g08.bks.cpg/sg63_19_cif.got.tgz:36947.got - 2010.06.03 15:47:04.
