data_PCOD9474494
_publ_section_title
;
Structure prediction by ZEFSAII (Michael W. Deem and Ramdas Pophale) SiO2 
 PCOD9474494
Probable space group: C M C M
;
_chemical_formula_sum "Si O2"
_cell_formula_units_Z 88
_cell_length_a 22.178814
_cell_length_b 23.546170
_cell_length_c 8.687683
_cell_angle_alpha 90.000000
_cell_angle_beta 90.000000
_cell_angle_gamma 90.000000
_cell_volume 4536.935027
_symmetry_space_group_name_H-M "C M C M"
_symmetry_group_IT_number 63
_symmetry_cell_setting 'orthorhombic'
loop_
_space_group_symop_operation_xyz
x,y,z
-x,-y,1/2+z
x,-y,-z
-x,y,1/2-z
-x,-y,-z
x,y,1/2-z
-x,y,z
x,-y,1/2+z
1/2+x,1/2+y,z
1/2-x,1/2-y,1/2+z
1/2+x,1/2-y,-z
1/2-x,1/2+y,1/2-z
1/2-x,1/2-y,-z
1/2+x,1/2+y,1/2-z
1/2-x,1/2+y,z
1/2+x,1/2-y,1/2+z
loop_
_atom_site_type_symbol
_atom_site_label
_atom_site_fract_x
_atom_site_fract_y
_atom_site_fract_z
Si Si1 0.874215 0.622229 0.934866
Si Si2 0.345582 0.647625 0.069414
Si Si3 0.000000 0.435540 0.436941
Si Si4 0.072094 0.940589 0.426284
Si Si5 0.316565 0.237031 0.068035
Si Si6 0.252401 0.938329 0.434134
O O1 0.876318 0.628893 0.750000
O O2 0.939384 0.598541 0.985127
O O3 0.821712 0.576847 0.971099
O O4 0.850121 0.681618 0.002847
O O5 0.338100 0.658129 0.250000
O O6 0.402649 0.608917 0.031456
O O7 0.351780 0.706272 0.979255
O O8 0.289292 0.610638 0.006712
O O9 0.000000 0.500000 0.500000
O O10 0.000000 0.438501 0.250000
O O11 0.094052 0.935320 0.250000
O O12 0.000000 0.939917 0.423354
O O13 0.091727 0.000000 0.500000
O O14 0.310885 0.231202 0.250000
O O15 0.250000 0.250000 0.000000
O O16 0.245174 0.937697 0.250000
O O17 0.236970 0.000000 0.500000
#
# Coordination Sequence:
#
# PCOD9474494 Si02
#       6
#    16  16   8  16  16  16
#     4  10  22  41  64  91 126 168 211 261 314 374
#     4  12  24  39  61  88 121 160 205 253 308 370
#     4  10  22  42  68  98 132 172 219 266 319 378
#     4  10  21  39  62  88 121 159 201 249 302 363
#     4  12  24  41  65  91 122 160 203 253 312 376
#     4  11  22  36  58  88 124 160 203 254 310 370
#
# _framework density 19.396355
#
# number of rings (size 3 to 8) (size 9 to 14) (size 15 to 20)
#    0.000    1.091    1.818    5.455    0.000    2.545 
#    1.636    0.000    0.000    0.000    0.000    0.000 
#    0.000    0.000    0.000    0.000    0.000    0.000 
#
# Total GULP energy -245955.042235 kJ/mol
# GULP energy per Si atom -5589.887324 kJ/mol
# Density = 1.935221 g / cm^3
# Si number density = 19.396355 Si / 1000 Ang^3
#
#
#
# Elastic Constant Matrix: (Units=GPa)
#
#
# Indices 1 2 3 4 5 6 
#
# 1 108.4085 54.6709 29.8495 0.0000 0.0000 0.0000
# 2 54.6709 135.2331 22.0442 0.0000 0.0000 0.0000
# 3 29.8495 22.0442 62.9148 0.0000 0.0000 0.0000
# 4 0.0000 0.0000 0.0000 36.3660 0.0000 0.0000
# 5 0.0000 0.0000 0.0000 0.0000 15.1515 0.0000
# 6 0.0000 0.0000 0.0000 0.0000 0.0000 25.4294
#
#
#
# Elastic Compliance Matrix: (Units=1/GPa)
#
#
# Indices 1 2 3 4 5 6 
#
# 1 0.012672 -0.004394 -0.004472 0.000000 0.000000 0.000000
# 2 -0.004394 0.009366 -0.001197 0.000000 0.000000 0.000000
# 3 -0.004472 -0.001197 0.018436 0.000000 0.000000 0.000000
# 4 0.000000 0.000000 0.000000 0.027498 0.000000 0.000000
# 5 0.000000 0.000000 0.000000 0.000000 0.066000 0.000000
# 6 0.000000 0.000000 0.000000 0.000000 0.000000 0.039325
#
#
# Mechanical properties :
#
#
# Convention : Reuss Voigt Hill
#
# Bulk Modulus (GPa) = 49.14751 57.74283 53.44517
# Shear Modulus (GPa) = 24.97435 28.72215 26.84825
#
# Velocity S-wave (km/s) = 3.59218 3.85229 3.72451
# Velocity P-wave (km/s) = 6.52675 7.04425 6.79043
#
# Compressibility (1/GPa) = 0.02034691
#
# Stress axis : x y z
#
# Youngs Moduli (GPa) = 78.91659 106.76876 54.24202
#
# Poissons Ratio (x) = 0.46911 0.24260
# Poissons Ratio (y) = 0.34674 0.06493
# Poissons Ratio (z) = 0.35295 0.12781
#
# Static dielectric constant tensor:
#      x y z
#    x 1.708850 0.000000 0.000000 
#    y 0.000000 1.695930 0.000000 
#    z 0.000000 0.000000 1.666300 
# 
# From -- ./inp_files/10207.got.cif
#   From: 2010.05.17/outbox.cif.g08.bks.cpg/sg63_6_cif.got.tgz:10207.got - 2010.06.03 15:47:04.
