data_PCOD9474352
_publ_section_title
;
Structure prediction by ZEFSAII (Michael W. Deem and Ramdas Pophale) SiO2 
 PCOD9474352
Probable space group: C M C M
;
_chemical_formula_sum "Si O2"
_cell_formula_units_Z 112
_cell_length_a 29.421674
_cell_length_b 5.649704
_cell_length_c 28.358665
_cell_angle_alpha 90.000000
_cell_angle_beta 90.000000
_cell_angle_gamma 90.000000
_cell_volume 4713.883621
_symmetry_space_group_name_H-M "C M C M"
_symmetry_group_IT_number 63
_symmetry_cell_setting 'orthorhombic'
loop_
_space_group_symop_operation_xyz
x,y,z
-x,-y,1/2+z
x,-y,-z
-x,y,1/2-z
-x,-y,-z
x,y,1/2-z
-x,y,z
x,-y,1/2+z
1/2+x,1/2+y,z
1/2-x,1/2-y,1/2+z
1/2+x,1/2-y,-z
1/2-x,1/2+y,1/2-z
1/2-x,1/2-y,-z
1/2+x,1/2+y,1/2-z
1/2-x,1/2+y,z
1/2+x,1/2-y,1/2+z
loop_
_atom_site_type_symbol
_atom_site_label
_atom_site_fract_x
_atom_site_fract_y
_atom_site_fract_z
Si Si1 0.899549 0.813211 0.131004
Si Si2 0.867714 0.141570 0.451892
Si Si3 0.949960 0.431551 0.076832
Si Si4 0.763712 0.927926 0.553478
Si Si5 0.449410 0.685262 0.177899
Si Si6 0.361076 0.040570 0.698060
Si Si7 0.729839 0.284841 0.806435
O O1 0.876435 0.992344 0.095396
O O2 0.937147 0.682117 0.099172
O O3 0.863273 0.639175 0.154768
O O4 0.926557 0.929516 0.174513
O O5 0.814165 0.185736 0.449366
O O6 0.875655 0.000000 0.500000
O O7 0.905532 0.347031 0.451158
O O8 0.952523 0.265228 0.123151
O O9 0.000000 0.426760 0.054291
O O10 0.764206 0.200868 0.573860
O O11 0.749427 0.000000 0.500000
O O12 0.500000 0.691341 0.197282
O O13 0.411573 0.853009 0.199721
O O14 0.349325 0.940011 0.750000
O O15 0.323994 0.242276 0.687394
O O16 0.738293 0.291107 0.750000
O O17 0.747184 0.539194 0.824159
#
# Coordination Sequence:
#
# PCOD9474352 Si02
#       7
#    16  16  16  16  16  16  16
#     4  10  21  38  61  87 124 163 210 255 322 387
#     4  10  22  38  61  90 125 165 213 269 321 385
#     4   9  19  37  60  86 120 158 201 251 310 372
#     4   9  19  36  60  89 124 170 219 270 332 391
#     4   9  19  37  59  83 118 158 197 248 310 374
#     4  10  22  38  61  89 120 156 203 260 316 382
#     4   9  19  36  60  89 123 163 206 255 320 388
#
# _framework density 23.759602999999998
#
# number of rings (size 3 to 8) (size 9 to 14) (size 15 to 20)
#    0.000    2.571    0.000    0.429    4.000    2.857 
#    0.000    2.143    0.000    0.000    0.000    0.000 
#    0.000    0.000    0.000    0.000    0.000    0.000 
#
# Total GULP energy -312220.704777 kJ/mol
# GULP energy per Si atom -5575.369728 kJ/mol
# Density = 2.370552 g / cm^3
# Si number density = 23.759603 Si / 1000 Ang^3
#
#
#
# Elastic Constant Matrix: (Units=GPa)
#
#
# Indices 1 2 3 4 5 6 
#
# 1 122.8584 26.9404 34.0229 0.0000 0.0000 0.0000
# 2 26.9404 82.3146 26.8162 0.0000 0.0000 0.0000
# 3 34.0229 26.8162 78.5818 0.0000 0.0000 0.0000
# 4 0.0000 0.0000 0.0000 -39.3047 0.0000 0.0000
# 5 0.0000 0.0000 0.0000 0.0000 22.4166 0.0000
# 6 0.0000 0.0000 0.0000 0.0000 0.0000 13.2458
#
#
#
# Elastic Compliance Matrix: (Units=1/GPa)
#
#
# Indices 1 2 3 4 5 6 
#
# 1 0.009531 -0.001997 -0.003445 0.000000 0.000000 0.000000
# 2 -0.001997 0.014086 -0.003942 0.000000 0.000000 0.000000
# 3 -0.003445 -0.003942 0.015563 0.000000 0.000000 0.000000
# 4 0.000000 0.000000 0.000000 -0.025442 0.000000 0.000000
# 5 0.000000 0.000000 0.000000 0.000000 0.044610 0.000000
# 6 0.000000 0.000000 0.000000 0.000000 0.000000 0.075495
#
#
# Mechanical properties :
#
#
# Convention : Reuss Voigt Hill
#
# Bulk Modulus (GPa) = 48.99301 51.03487 50.01394
# Shear Modulus (GPa) = 31.36435 12.33657 21.85046
#
# Velocity S-wave (km/s) = 3.63722 2.28112 3.03586
# Velocity P-wave (km/s) = 6.18904 5.33520 5.77791
#
# Compressibility (1/GPa) = 0.02041108
#
# Stress axis : x y z
#
# Youngs Moduli (GPa) = 104.91574 70.99008 64.25671
#
# Poissons Ratio (x) = 0.14178 0.22138
# Poissons Ratio (y) = 0.20953 0.25332
# Poissons Ratio (z) = 0.36146 0.27987
#
# Static dielectric constant tensor:
#      x y z
#    x 1.919680 0.000000 0.000000 
#    y 0.000000 2.003370 0.000000 
#    z 0.000000 0.000000 1.911960 
# 
# From -- ./inp_files/74505.got.cif
#   From: 2010.05.17/outbox.cif.g08.bks.cpg/sg63_38_cif.got.tgz:74505.got - 2010.06.03 15:47:04.
