data_PCOD9474073
_publ_section_title
;
Structure prediction by ZEFSAII (Michael W. Deem and Ramdas Pophale) SiO2 
 PCOD9474073
Probable space group: C M C M
;
_chemical_formula_sum "Si O2"
_cell_formula_units_Z 116
_cell_length_a 10.112613
_cell_length_b 25.025060
_cell_length_c 22.735932
_cell_angle_alpha 90.000000
_cell_angle_beta 90.000000
_cell_angle_gamma 90.000000
_cell_volume 5753.753825
_symmetry_space_group_name_H-M "C M C M"
_symmetry_group_IT_number 63
_symmetry_cell_setting 'orthorhombic'
loop_
_space_group_symop_operation_xyz
x,y,z
-x,-y,1/2+z
x,-y,-z
-x,y,1/2-z
-x,-y,-z
x,y,1/2-z
-x,y,z
x,-y,1/2+z
1/2+x,1/2+y,z
1/2-x,1/2-y,1/2+z
1/2+x,1/2-y,-z
1/2-x,1/2+y,1/2-z
1/2-x,1/2-y,-z
1/2+x,1/2+y,1/2-z
1/2-x,1/2+y,z
1/2+x,1/2-y,1/2+z
loop_
_atom_site_type_symbol
_atom_site_label
_atom_site_fract_x
_atom_site_fract_y
_atom_site_fract_z
Si Si1 0.350873 0.666865 0.144622
Si Si2 0.852448 0.283974 0.181396
Si Si3 0.254630 0.583711 0.510969
Si Si4 0.847941 0.199706 0.493066
Si Si5 0.150276 0.421298 0.621187
Si Si6 0.000000 0.000000 0.000000
Si Si7 0.851125 0.453940 0.132513
Si Si8 0.350792 0.629769 0.820581
O O1 0.500000 0.650571 0.160411
O O2 0.318446 0.721730 0.177234
O O3 0.350106 0.683560 0.075942
O O4 0.250766 0.618660 0.152517
O O5 0.863432 0.298164 0.250000
O O6 0.736626 0.320587 0.156463
O O7 0.000000 0.291440 0.154516
O O8 0.296152 0.645119 0.522929
O O9 0.180353 0.581483 0.448573
O O10 0.383876 0.546535 0.505309
O O11 0.167183 0.561128 0.564044
O O12 0.750000 0.250000 0.500000
O O13 0.000000 0.212052 0.510509
O O14 0.166457 0.482778 0.639533
O O15 0.000000 0.404860 0.632054
O O16 0.735983 0.422001 0.164988
O O17 0.000000 0.438999 0.151929
O O18 0.361268 0.634644 0.750000
O O19 0.500000 0.627347 0.844512
#
# Coordination Sequence:
#
# PCOD9474073 Si02
#       8
#    16  16  16  16  16   4  16  16
#     4   9  20  36  56  80 109 147 188 228 278 337
#     4   9  18  37  62  85 110 144 186 232 284 344
#     4  11  22  36  59  85 115 152 200 239 285 337
#     4  10  22  36  50  76 115 151 187 227 280 339
#     4  10  21  37  56  83 117 150 189 235 282 330
#     4  12  20  36  62  88 118 152 206 250 288 328
#     4  11  23  37  59  85 114 152 194 238 288 343
#     4  10  23  40  59  85 114 143 184 238 291 343
#
# _framework density 20.160751999999999
#
# number of rings (size 3 to 8) (size 9 to 14) (size 15 to 20)
#    0.000    1.931    2.069    0.828    3.862    5.793 
#    0.000    0.690    0.000    2.483    0.000    0.000 
#    0.000    0.000    0.000    0.000    0.000    0.000 
#
# Total GULP energy -323300.336482 kJ/mol
# GULP energy per Si atom -5574.143732 kJ/mol
# Density = 2.011487 g / cm^3
# Si number density = 20.160752 Si / 1000 Ang^3
#
#
#
# Elastic Constant Matrix: (Units=GPa)
#
#
# Indices 1 2 3 4 5 6 
#
# 1 179.2906 113.9802 10.1962 0.0000 0.0000 0.0000
# 2 113.9802 146.7677 1.5433 0.0000 0.0000 0.0000
# 3 10.1962 1.5433 9.6759 0.0000 0.0000 0.0000
# 4 0.0000 0.0000 0.0000 23.7063 0.0000 0.0000
# 5 0.0000 0.0000 0.0000 0.0000 9.4613 0.0000
# 6 0.0000 0.0000 0.0000 0.0000 0.0000 34.6712
#
#
#
# Elastic Compliance Matrix: (Units=1/GPa)
#
#
# Indices 1 2 3 4 5 6 
#
# 1 0.012137 -0.009307 -0.011305 0.000000 0.000000 0.000000
# 2 -0.009307 0.013961 0.007580 0.000000 0.000000 0.000000
# 3 -0.011305 0.007580 0.114053 0.000000 0.000000 0.000000
# 4 0.000000 0.000000 0.000000 0.042183 0.000000 0.000000
# 5 0.000000 0.000000 0.000000 0.000000 0.105694 0.000000
# 6 0.000000 0.000000 0.000000 0.000000 0.000000 0.028842
#
#
# Mechanical properties :
#
#
# Convention : Reuss Voigt Hill
#
# Bulk Modulus (GPa) = 8.76514 65.24151 37.00332
# Shear Modulus (GPa) = 13.12461 27.56873 20.34667
#
# Velocity S-wave (km/s) = 2.55423 3.70191 3.18027
# Velocity P-wave (km/s) = 3.61329 7.12061 5.64619
#
# Compressibility (1/GPa) = 0.11408828
#
# Stress axis : x y z
#
# Youngs Moduli (GPa) = 82.39246 71.62585 8.76785
#
# Poissons Ratio (x) = 0.66661 0.09912
# Poissons Ratio (y) = 0.76681 -0.06646
# Poissons Ratio (z) = 0.93146 -0.54294
#
# Static dielectric constant tensor:
#      x y z
#    x 1.714750 0.000000 0.000000 
#    y 0.000000 1.699440 0.000000 
#    z 0.000000 0.000000 1.766430 
# 
# From -- ./inp_files/60469.got.cif
#   From: 2010.05.17/outbox.cif.g08.bks.cpg/sg63_31_cif.got.tgz:60469.got - 2010.06.03 15:47:04.
