data_PCOD9474580
_publ_section_title
;
Structure prediction by ZEFSAII (Michael W. Deem and Ramdas Pophale) SiO2 
 PCOD9474580
Probable space group: C M C M
;
_chemical_formula_sum "Si O2"
_cell_formula_units_Z 72
_cell_length_a 10.592486
_cell_length_b 14.607035
_cell_length_c 24.085938
_cell_angle_alpha 90.000000
_cell_angle_beta 90.000000
_cell_angle_gamma 90.000000
_cell_volume 3726.692271
_symmetry_space_group_name_H-M "C M C M"
_symmetry_group_IT_number 63
_symmetry_cell_setting 'orthorhombic'
loop_
_space_group_symop_operation_xyz
x,y,z
-x,-y,1/2+z
x,-y,-z
-x,y,1/2-z
-x,-y,-z
x,y,1/2-z
-x,y,z
x,-y,1/2+z
1/2+x,1/2+y,z
1/2-x,1/2-y,1/2+z
1/2+x,1/2-y,-z
1/2-x,1/2+y,1/2-z
1/2-x,1/2-y,-z
1/2+x,1/2+y,1/2-z
1/2-x,1/2+y,z
1/2+x,1/2-y,1/2+z
loop_
_atom_site_type_symbol
_atom_site_label
_atom_site_fract_x
_atom_site_fract_y
_atom_site_fract_z
Si Si1 0.237207 0.746357 0.862111
Si Si2 0.000000 0.200628 0.814271
Si Si3 0.000000 0.026038 0.894517
Si Si4 0.000000 0.149894 0.314557
Si Si5 0.774524 0.433481 0.071579
Si Si6 0.643609 0.128568 0.049944
O O1 0.370089 0.751414 0.829634
O O2 0.209108 0.642167 0.880671
O O3 0.263479 0.803403 0.918378
O O4 0.123667 0.790299 0.828216
O O5 0.000000 0.177337 0.750000
O O6 0.000000 0.110286 0.851740
O O7 0.127528 0.037315 0.929531
O O8 0.000000 0.934629 0.857638
O O9 0.000000 0.121171 0.250000
O O10 0.848605 0.528518 0.078570
O O11 0.816778 0.389524 0.013420
O O12 0.500000 0.163731 0.052007
#
# Coordination Sequence:
#
# PCOD9474580 Si02
#       6
#    16   8   8   8  16  16
#     4  11  23  40  63  88 124 155 202 252 301 355
#     4  10  21  42  65  83 112 164 212 249 299 359
#     4  10  21  40  62  85 120 156 200 256 304 356
#     4  12  25  41  62  91 119 155 204 265 307 337
#     4  10  22  38  60  90 122 161 195 241 298 370
#     4  11  22  39  60  89 124 165 197 238 298 368
#
# _framework density 19.320080999999998
#
# number of rings (size 3 to 8) (size 9 to 14) (size 15 to 20)
#    0.000    1.333    3.333    3.000    3.111    2.667 
#    0.000    0.000    0.000    1.333    0.000    0.000 
#    0.000    0.000    0.000    0.000    0.000    0.000 
#
# Total GULP energy -201074.400493 kJ/mol
# GULP energy per Si atom -5585.400014 kJ/mol
# Density = 1.927611 g / cm^3
# Si number density = 19.320081 Si / 1000 Ang^3
#
#
#
# Elastic Constant Matrix: (Units=GPa)
#
#
# Indices 1 2 3 4 5 6 
#
# 1 113.4485 18.2879 18.5074 0.0000 0.0000 0.0000
# 2 18.2879 44.2485 -1.9850 0.0000 0.0000 0.0000
# 3 18.5074 -1.9850 35.6529 0.0000 0.0000 0.0000
# 4 0.0000 0.0000 0.0000 11.1849 0.0000 0.0000
# 5 0.0000 0.0000 0.0000 0.0000 21.4766 0.0000
# 6 0.0000 0.0000 0.0000 0.0000 0.0000 23.9250
#
#
#
# Elastic Compliance Matrix: (Units=1/GPa)
#
#
# Indices 1 2 3 4 5 6 
#
# 1 0.010484 -0.004589 -0.005698 0.000000 0.000000 0.000000
# 2 -0.004589 0.024665 0.003755 0.000000 0.000000 0.000000
# 3 -0.005698 0.003755 0.031215 0.000000 0.000000 0.000000
# 4 0.000000 0.000000 0.000000 0.089407 0.000000 0.000000
# 5 0.000000 0.000000 0.000000 0.000000 0.046562 0.000000
# 6 0.000000 0.000000 0.000000 0.000000 0.000000 0.041797
#
#
# Mechanical properties :
#
#
# Convention : Reuss Voigt Hill
#
# Bulk Modulus (GPa) = 18.76131 29.21895 23.99013
# Shear Modulus (GPa) = 18.18457 21.88658 20.03558
#
# Velocity S-wave (km/s) = 3.07127 3.36942 3.22379
# Velocity P-wave (km/s) = 4.72322 5.50398 5.12848
#
# Compressibility (1/GPa) = 0.05330117
#
# Stress axis : x y z
#
# Youngs Moduli (GPa) = 95.38600 40.54403 32.03601
#
# Poissons Ratio (x) = 0.18604 0.18253
# Poissons Ratio (y) = 0.43768 -0.12030
# Poissons Ratio (z) = 0.54347 -0.15225
#
# Static dielectric constant tensor:
#      x y z
#    x 1.686790 0.000000 0.000000 
#    y 0.000000 1.682810 0.000000 
#    z 0.000000 0.000000 1.657080 
# 
# From -- ./inp_files/66390.got.cif
#   From: 2010.05.17/outbox.cif.g08.bks.cpg/sg63_34_cif.got.tgz:66390.got - 2010.06.03 15:47:04.
