data_PCOD9474892
_publ_section_title
;
Structure prediction by ZEFSAII (Michael W. Deem and Ramdas Pophale) SiO2 
 PCOD9474892
Probable space group: C M C M
;
_chemical_formula_sum "Si O2"
_cell_formula_units_Z 100
_cell_length_a 17.242648
_cell_length_b 9.462953
_cell_length_c 27.758940
_cell_angle_alpha 90.000000
_cell_angle_beta 90.000000
_cell_angle_gamma 90.000000
_cell_volume 4529.325409
_symmetry_space_group_name_H-M "C M C M"
_symmetry_group_IT_number 63
_symmetry_cell_setting 'orthorhombic'
loop_
_space_group_symop_operation_xyz
x,y,z
-x,-y,1/2+z
x,-y,-z
-x,y,1/2-z
-x,-y,-z
x,y,1/2-z
-x,y,z
x,-y,1/2+z
1/2+x,1/2+y,z
1/2-x,1/2-y,1/2+z
1/2+x,1/2-y,-z
1/2-x,1/2+y,1/2-z
1/2-x,1/2-y,-z
1/2+x,1/2+y,1/2-z
1/2-x,1/2+y,z
1/2+x,1/2-y,1/2+z
loop_
_atom_site_type_symbol
_atom_site_label
_atom_site_fract_x
_atom_site_fract_y
_atom_site_fract_z
Si Si1 0.500000 0.452824 0.250000
Si Si2 0.914645 0.521755 0.353172
Si Si3 0.226436 0.200705 0.250000
Si Si4 0.308199 0.729487 0.612692
Si Si5 0.352843 0.987975 0.250000
Si Si6 0.375528 0.740882 0.406844
Si Si7 0.830219 0.165824 0.993018
Si Si8 0.368567 0.474631 0.672334
O O1 0.567509 0.462758 0.207843
O O2 0.848103 0.632315 0.365913
O O3 0.901585 0.470577 0.298427
O O4 0.908378 0.388407 0.388337
O O5 0.000000 0.587536 0.356785
O O6 0.313170 0.141751 0.250000
O O7 0.183318 0.133377 0.203857
O O8 0.213539 0.367812 0.250000
O O9 0.217853 0.753459 0.601714
O O10 0.351361 0.693901 0.562307
O O11 0.318384 0.599578 0.649004
O O12 0.386127 0.713851 0.463597
O O13 0.403344 0.615987 0.371916
O O14 0.750000 0.250000 0.000000
O O15 0.815559 0.000000 0.000000
#
# Coordination Sequence:
#
# PCOD9474892 Si02
#       8
#     4  16   8  16   8  16  16  16
#     4  10  28  42  64  90 130 180 236 292 336 410
#     4  12  29  45  68  99 146 191 228 294 356 422
#     4  11  24  39  66 107 127 178 233 303 333 422
#     4  11  24  44  71 103 142 175 236 287 354 420
#     4  12  25  45  67  99 142 178 244 282 362 410
#     4  11  22  43  74 102 135 182 232 287 349 421
#     4  10  22  39  70 110 140 176 230 298 354 416
#     4  11  23  42  68  92 133 177 232 279 351 405
#
# _framework density 22.078344000000001
#
# number of rings (size 3 to 8) (size 9 to 14) (size 15 to 20)
#    0.000    0.960    3.200    3.120   11.200    0.640 
#    0.000    1.600    0.000    1.920    0.000    0.000 
#    0.000    0.000    0.000    0.000    0.000    0.000 
#
# Total GULP energy -279277.700408 kJ/mol
# GULP energy per Si atom -5585.554008 kJ/mol
# Density = 2.202809 g / cm^3
# Si number density = 22.078344 Si / 1000 Ang^3
#
#
#
# Elastic Constant Matrix: (Units=GPa)
#
#
# Indices 1 2 3 4 5 6 
#
# 1 65.7885 -2.3638 11.1724 0.0000 0.0000 0.0000
# 2 -2.3638 90.4468 24.1022 0.0000 0.0000 0.0000
# 3 11.1724 24.1022 176.0734 0.0000 0.0000 0.0000
# 4 0.0000 0.0000 0.0000 32.3993 0.0000 0.0000
# 5 0.0000 0.0000 0.0000 0.0000 23.2168 0.0000
# 6 0.0000 0.0000 0.0000 0.0000 0.0000 -3.0609
#
#
#
# Elastic Compliance Matrix: (Units=1/GPa)
#
#
# Indices 1 2 3 4 5 6 
#
# 1 0.015407 0.000688 -0.001072 0.000000 0.000000 0.000000
# 2 0.000688 0.011506 -0.001619 0.000000 0.000000 0.000000
# 3 -0.001072 -0.001619 0.005969 0.000000 0.000000 0.000000
# 4 0.000000 0.000000 0.000000 0.030865 0.000000 0.000000
# 5 0.000000 0.000000 0.000000 0.000000 0.043072 0.000000
# 6 0.000000 0.000000 0.000000 0.000000 0.000000 -0.326700
#
#
# Mechanical properties :
#
#
# Convention : Reuss Voigt Hill
#
# Bulk Modulus (GPa) = 34.62945 44.23671 39.43308
# Shear Modulus (GPa) = -24.24224 30.47089 3.11433
#
# Velocity S-wave (km/s) = -3.31722 3.71903 1.18897
# Velocity P-wave (km/s) = 1.02320 6.20656 4.44794
#
# Compressibility (1/GPa) = 0.02887716
#
# Stress axis : x y z
#
# Youngs Moduli (GPa) = 64.90567 86.91464 167.53134
#
# Poissons Ratio (x) = -0.05982 0.17957
# Poissons Ratio (y) = -0.04467 0.27117
# Poissons Ratio (z) = 0.06957 0.14068
#
# Static dielectric constant tensor:
#      x y z
#    x 1.800770 0.000000 0.000000 
#    y 0.000000 1.785290 0.000000 
#    z 0.000000 0.000000 1.849310 
# 
# From -- ./inp_files/70401.got.cif
#   From: 2010.05.17/outbox.cif.g08.bks.cpg/sg63_36_cif.got.tgz:70401.got - 2010.06.03 15:47:04.
