data_PCOD9474067
_publ_section_title
;
Structure prediction by ZEFSAII (Michael W. Deem and Ramdas Pophale) SiO2 
 PCOD9474067
Probable space group: C M C M
;
_chemical_formula_sum "Si O2"
_cell_formula_units_Z 96
_cell_length_a 25.105111
_cell_length_b 21.918820
_cell_length_c 7.689532
_cell_angle_alpha 90.000000
_cell_angle_beta 90.000000
_cell_angle_gamma 90.000000
_cell_volume 4231.352677
_symmetry_space_group_name_H-M "C M C M"
_symmetry_group_IT_number 63
_symmetry_cell_setting 'orthorhombic'
loop_
_space_group_symop_operation_xyz
x,y,z
-x,-y,1/2+z
x,-y,-z
-x,y,1/2-z
-x,-y,-z
x,y,1/2-z
-x,y,z
x,-y,1/2+z
1/2+x,1/2+y,z
1/2-x,1/2-y,1/2+z
1/2+x,1/2-y,-z
1/2-x,1/2+y,1/2-z
1/2-x,1/2-y,-z
1/2+x,1/2+y,1/2-z
1/2-x,1/2+y,z
1/2+x,1/2-y,1/2+z
loop_
_atom_site_type_symbol
_atom_site_label
_atom_site_fract_x
_atom_site_fract_y
_atom_site_fract_z
Si Si1 0.644120 0.167748 0.449904
Si Si2 0.741807 0.320261 0.443768
Si Si3 0.559526 0.070790 0.957442
Si Si4 0.941603 0.238312 0.539039
Si Si5 0.174288 0.066407 0.959973
Si Si6 0.941907 0.905330 0.460986
O O1 0.659140 0.180656 0.250000
O O2 0.698105 0.154838 0.550029
O O3 0.604033 0.111585 0.456247
O O4 0.609128 0.223889 0.523325
O O5 0.720198 0.314645 0.250000
O O6 0.750000 0.250000 0.500000
O O7 0.704911 0.372981 0.527813
O O8 0.562167 0.079249 0.750000
O O9 0.500000 0.087973 0.017441
O O10 0.566880 0.000000 0.000000
O O11 0.941254 0.244157 0.750000
O O12 0.938249 0.166907 0.499750
O O13 0.000000 0.260515 0.478125
O O14 0.173063 0.070685 0.750000
O O15 0.113147 0.066684 0.026127
O O16 0.198660 0.000000 0.000000
O O17 0.942611 0.910941 0.250000
O O18 0.000000 0.927184 0.525132
#
# Coordination Sequence:
#
# PCOD9474067 Si02
#       6
#    16  16  16  16  16  16
#     4  11  21  34  56  84 113 147 190 238 291 352
#     4  11  24  42  62  85 115 153 201 252 302 358
#     4  10  21  37  56  80 113 152 194 242 296 354
#     4   8  14  26  48  79 112 144 179 220 268 328
#     4  10  22  39  59  84 115 150 189 235 287 347
#     4   8  14  28  52  81 111 142 177 218 266 324
#
# _framework density 22.68778
#
# number of rings (size 3 to 8) (size 9 to 14) (size 15 to 20)
#    0.000    2.333    0.000    4.000    0.000    6.667 
#    0.000    1.667    0.000    0.000    0.000    4.667 
#    0.000    0.000    0.000    0.000    0.000    0.000 
#
# Total GULP energy -267917.402126 kJ/mol
# GULP energy per Si atom -5581.612544 kJ/mol
# Density = 2.263614 g / cm^3
# Si number density = 22.687780 Si / 1000 Ang^3
#
#
#
# Elastic Constant Matrix: (Units=GPa)
#
#
# Indices 1 2 3 4 5 6 
#
# 1 121.5354 67.2322 0.6152 0.0000 0.0000 0.0000
# 2 67.2322 133.6177 3.8183 0.0000 0.0000 0.0000
# 3 0.6152 3.8183 48.8109 0.0000 0.0000 0.0000
# 4 0.0000 0.0000 0.0000 16.7154 0.0000 0.0000
# 5 0.0000 0.0000 0.0000 0.0000 3.4708 0.0000
# 6 0.0000 0.0000 0.0000 0.0000 0.0000 40.7241
#
#
#
# Elastic Compliance Matrix: (Units=1/GPa)
#
#
# Indices 1 2 3 4 5 6 
#
# 1 0.011406 -0.005748 0.000306 0.000000 0.000000 0.000000
# 2 -0.005748 0.010397 -0.000741 0.000000 0.000000 0.000000
# 3 0.000306 -0.000741 0.020541 0.000000 0.000000 0.000000
# 4 0.000000 0.000000 0.000000 0.059825 0.000000 0.000000
# 5 0.000000 0.000000 0.000000 0.000000 0.288119 0.000000
# 6 0.000000 0.000000 0.000000 0.000000 0.000000 0.024556
#
#
# Mechanical properties :
#
#
# Convention : Reuss Voigt Hill
#
# Bulk Modulus (GPa) = 33.35673 49.69948 41.52811
# Shear Modulus (GPa) = 11.43632 27.66861 19.55246
#
# Velocity S-wave (km/s) = 2.24760 3.49598 2.93884
# Velocity P-wave (km/s) = 4.63357 6.18459 5.46439
#
# Compressibility (1/GPa) = 0.02997895
#
# Stress axis : x y z
#
# Youngs Moduli (GPa) = 87.67132 96.17768 48.68233
#
# Poissons Ratio (x) = 0.55283 -0.01489
# Poissons Ratio (y) = 0.50393 0.03607
# Poissons Ratio (z) = -0.02682 0.07126
#
# Static dielectric constant tensor:
#      x y z
#    x 1.849640 0.000000 0.000000 
#    y 0.000000 1.845300 0.000000 
#    z 0.000000 0.000000 1.892530 
# 
# From -- ./inp_files/12432.got.cif
#   From: 2010.05.17/outbox.cif.g08.bks.cpg/sg63_7_cif.got.tgz:12432.got - 2010.06.03 15:47:04.
