data_PCOD9474044
_publ_section_title
;
Structure prediction by ZEFSAII (Michael W. Deem and Ramdas Pophale) SiO2 
 PCOD9474044
Probable space group: C M C M
;
_chemical_formula_sum "Si O2"
_cell_formula_units_Z 80
_cell_length_a 29.790936
_cell_length_b 14.542738
_cell_length_c 8.538039
_cell_angle_alpha 90.000000
_cell_angle_beta 90.000000
_cell_angle_gamma 90.000000
_cell_volume 3699.035189
_symmetry_space_group_name_H-M "C M C M"
_symmetry_group_IT_number 63
_symmetry_cell_setting 'orthorhombic'
loop_
_space_group_symop_operation_xyz
x,y,z
-x,-y,1/2+z
x,-y,-z
-x,y,1/2-z
-x,-y,-z
x,y,1/2-z
-x,y,z
x,-y,1/2+z
1/2+x,1/2+y,z
1/2-x,1/2-y,1/2+z
1/2+x,1/2-y,-z
1/2-x,1/2+y,1/2-z
1/2-x,1/2-y,-z
1/2+x,1/2+y,1/2-z
1/2-x,1/2+y,z
1/2+x,1/2-y,1/2+z
loop_
_atom_site_type_symbol
_atom_site_label
_atom_site_fract_x
_atom_site_fract_y
_atom_site_fract_z
Si Si1 0.053146 0.592244 0.425696
Si Si2 0.724661 0.398332 0.564984
Si Si3 0.179089 0.603521 0.935466
Si Si4 0.550295 0.289692 0.566271
Si Si5 0.143338 0.785017 0.066919
O O1 0.073253 0.500000 0.500000
O O2 0.070526 0.612578 0.250000
O O3 0.053649 0.680002 0.537991
O O4 0.000000 0.574277 0.405889
O O5 0.714722 0.500000 0.500000
O O6 0.734312 0.401873 0.750000
O O7 0.769677 0.367111 0.475697
O O8 0.682047 0.335685 0.529805
O O9 0.171540 0.605036 0.750000
O O10 0.175029 0.500000 0.000000
O O11 0.147651 0.677663 0.019780
O O12 0.553869 0.310081 0.750000
O O13 0.500000 0.317429 0.511521
O O14 0.594217 0.324223 0.476155
O O15 0.152034 0.796006 0.250000
#
# Coordination Sequence:
#
# PCOD9474044 Si02
#       5
#    16  16  16  16  16
#     4   9  16  27  44  66  93 129 174 223 274 329
#     4  11  22  40  64  92 123 156 195 241 296 355
#     4  11  22  39  61  90 126 162 199 241 292 350
#     4  10  21  37  55  77 107 145 191 243 296 348
#     4  12  24  39  60  88 120 158 202 246 295 352
#
# _framework density 21.627261000000001
#
# number of rings (size 3 to 8) (size 9 to 14) (size 15 to 20)
#    0.000    1.400    0.000    8.400    0.000    4.400 
#    0.000    4.000    0.000    0.600    0.000    0.000 
#    0.000    0.000    0.000    0.000    0.000    0.000 
#
# Total GULP energy -223621.262545 kJ/mol
# GULP energy per Si atom -5590.531564 kJ/mol
# Density = 2.157804 g / cm^3
# Si number density = 21.627261 Si / 1000 Ang^3
#
#
#
# Elastic Constant Matrix: (Units=GPa)
#
#
# Indices 1 2 3 4 5 6 
#
# 1 117.2730 12.1995 -8.3417 0.0000 0.0000 0.0000
# 2 12.1995 19.8076 -4.6172 0.0000 0.0000 0.0000
# 3 -8.3417 -4.6172 87.6238 0.0000 0.0000 0.0000
# 4 0.0000 0.0000 0.0000 25.5490 0.0000 0.0000
# 5 0.0000 0.0000 0.0000 0.0000 35.7904 0.0000
# 6 0.0000 0.0000 0.0000 0.0000 0.0000 3.3463
#
#
#
# Elastic Compliance Matrix: (Units=1/GPa)
#
#
# Indices 1 2 3 4 5 6 
#
# 1 0.009140 -0.005494 0.000581 0.000000 0.000000 0.000000
# 2 -0.005494 0.054416 0.002344 0.000000 0.000000 0.000000
# 3 0.000581 0.002344 0.011591 0.000000 0.000000 0.000000
# 4 0.000000 0.000000 0.000000 0.039140 0.000000 0.000000
# 5 0.000000 0.000000 0.000000 0.000000 0.027940 0.000000
# 6 0.000000 0.000000 0.000000 0.000000 0.000000 0.298839
#
#
# Mechanical properties :
#
#
# Convention : Reuss Voigt Hill
#
# Bulk Modulus (GPa) = 14.28388 24.79841 19.54114
# Shear Modulus (GPa) = 10.64869 27.96805 19.30837
#
# Velocity S-wave (km/s) = 2.22136 3.59999 2.99118
# Velocity P-wave (km/s) = 3.63292 5.36387 4.58090
#
# Compressibility (1/GPa) = 0.07000901
#
# Stress axis : x y z
#
# Youngs Moduli (GPa) = 109.41006 18.37701 86.27210
#
# Poissons Ratio (x) = 0.10096 -0.05009
# Poissons Ratio (y) = 0.60109 -0.20225
# Poissons Ratio (z) = -0.06353 -0.04308
#
# Static dielectric constant tensor:
#      x y z
#    x 1.874810 0.000000 0.000000 
#    y 0.000000 1.781980 0.000000 
#    z 0.000000 0.000000 1.731830 
# 
# From -- ./inp_files/12041.got.cif
#   From: 2010.05.17/outbox.cif.g08.bks.cpg/sg63_7_cif.got.tgz:12041.got - 2010.06.03 15:47:04.
