data_PCOD9474696
_publ_section_title
;
Structure prediction by ZEFSAII (Michael W. Deem and Ramdas Pophale) SiO2 
 PCOD9474696
Probable space group: C M C M
;
_chemical_formula_sum "Si O2"
_cell_formula_units_Z 116
_cell_length_a 7.698098
_cell_length_b 25.762426
_cell_length_c 29.908603
_cell_angle_alpha 90.000000
_cell_angle_beta 90.000000
_cell_angle_gamma 90.000000
_cell_volume 5931.524395
_symmetry_space_group_name_H-M "C M C M"
_symmetry_group_IT_number 63
_symmetry_cell_setting 'orthorhombic'
loop_
_space_group_symop_operation_xyz
x,y,z
-x,-y,1/2+z
x,-y,-z
-x,y,1/2-z
-x,-y,-z
x,y,1/2-z
-x,y,z
x,-y,1/2+z
1/2+x,1/2+y,z
1/2-x,1/2-y,1/2+z
1/2+x,1/2-y,-z
1/2-x,1/2+y,1/2-z
1/2-x,1/2-y,-z
1/2+x,1/2+y,1/2-z
1/2-x,1/2+y,z
1/2+x,1/2-y,1/2+z
loop_
_atom_site_type_symbol
_atom_site_label
_atom_site_fract_x
_atom_site_fract_y
_atom_site_fract_z
Si Si1 0.295015 0.544736 0.444212
Si Si2 0.200287 0.447183 0.655326
Si Si3 0.289331 0.054150 0.801188
Si Si4 0.292690 0.659115 0.300572
Si Si5 0.287267 0.572582 0.538560
Si Si6 0.000000 0.795599 0.250000
Si Si7 0.706014 0.362146 0.121959
Si Si8 0.799756 0.271402 0.321987
O O1 0.500000 0.540642 0.451685
O O2 0.271593 0.563507 0.393998
O O3 0.230466 0.577617 0.486795
O O4 0.229647 0.485487 0.447408
O O5 0.274181 0.497922 0.680545
O O6 0.216217 0.394989 0.683676
O O7 0.000000 0.459717 0.648478
O O8 0.228404 0.063649 0.750000
O O9 0.500000 0.053813 0.799387
O O10 0.236531 0.097382 0.837168
O O11 0.234314 0.671411 0.250000
O O12 0.500000 0.651916 0.300449
O O13 0.255035 0.710669 0.328830
O O14 0.500000 0.574318 0.540599
O O15 0.226513 0.612412 0.576113
O O16 0.154648 0.793244 0.288533
O O17 0.500000 0.354576 0.117810
O O18 0.791060 0.307933 0.135093
O O19 0.000000 0.272856 0.304604
#
# Coordination Sequence:
#
# PCOD9474696 Si02
#       8
#    16  16  16  16  16   4  16  16
#     4   9  16  33  56  79 107 146 187 233 284 339
#     4  11  22  34  53  81 114 147 187 235 289 342
#     4  10  22  36  47  70 111 155 186 224 283 343
#     4  10  22  39  59  80 108 147 193 240 285 332
#     4   8  16  31  56  81 108 145 189 233 282 343
#     4  12  22  40  64  86 112 154 198 246 296 328
#     4  11  21  35  56  84 112 148 192 237 288 347
#     4  11  24  40  59  87 117 150 199 245 289 342
#
# _framework density 19.556524
#
# number of rings (size 3 to 8) (size 9 to 14) (size 15 to 20)
#    0.000    1.931    2.759    2.276    1.931    1.655 
#    0.000    2.759    0.000    0.828    0.000    0.000 
#    0.000    0.000    0.000    0.000    0.000    0.000 
#
# Total GULP energy -322975.442552 kJ/mol
# GULP energy per Si atom -5568.542113 kJ/mol
# Density = 1.951201 g / cm^3
# Si number density = 19.556524 Si / 1000 Ang^3
#
#
#
# Elastic Constant Matrix: (Units=GPa)
#
#
# Indices 1 2 3 4 5 6 
#
# 1 57.9132 -9.0268 -5.6099 0.0000 0.0000 0.0000
# 2 -9.0268 69.6112 5.5629 0.0000 0.0000 0.0000
# 3 -5.6099 5.5629 52.1563 0.0000 0.0000 0.0000
# 4 0.0000 0.0000 0.0000 7.7973 0.0000 0.0000
# 5 0.0000 0.0000 0.0000 0.0000 51.3923 0.0000
# 6 0.0000 0.0000 0.0000 0.0000 0.0000 18.3151
#
#
#
# Elastic Compliance Matrix: (Units=1/GPa)
#
#
# Indices 1 2 3 4 5 6 
#
# 1 0.017768 0.002170 0.001680 0.000000 0.000000 0.000000
# 2 0.002170 0.014754 -0.001340 0.000000 0.000000 0.000000
# 3 0.001680 -0.001340 0.019497 0.000000 0.000000 0.000000
# 4 0.000000 0.000000 0.000000 0.128250 0.000000 0.000000
# 5 0.000000 0.000000 0.000000 0.000000 0.019458 0.000000
# 6 0.000000 0.000000 0.000000 0.000000 0.000000 0.054600
#
#
# Mechanical properties :
#
#
# Convention : Reuss Voigt Hill
#
# Bulk Modulus (GPa) = 17.53235 17.94813 17.74024
# Shear Modulus (GPa) = 18.63444 28.08457 23.35950
#
# Velocity S-wave (km/s) = 3.09018 3.79366 3.45985
# Velocity P-wave (km/s) = 4.66012 5.32792 5.00517
#
# Compressibility (1/GPa) = 0.05703743
#
# Stress axis : x y z
#
# Youngs Moduli (GPa) = 56.28051 67.77828 51.29059
#
# Poissons Ratio (x) = -0.14707 -0.08615
# Poissons Ratio (y) = -0.12212 0.06874
# Poissons Ratio (z) = -0.09453 0.09084
#
# Static dielectric constant tensor:
#      x y z
#    x 1.720310 0.000000 0.000000 
#    y 0.000000 1.684310 0.000000 
#    z 0.000000 0.000000 1.723830 
# 
# From -- ./inp_files/72211.got.cif
#   From: 2010.05.17/outbox.cif.g08.bks.cpg/sg63_37_cif.got.tgz:72211.got - 2010.06.03 15:47:04.
