data_PCOD9474496
_publ_section_title
;
Structure prediction by ZEFSAII (Michael W. Deem and Ramdas Pophale) SiO2 
 PCOD9474496
Probable space group: C M C M
;
_chemical_formula_sum "Si O2"
_cell_formula_units_Z 88
_cell_length_a 27.531547
_cell_length_b 13.554842
_cell_length_c 11.994916
_cell_angle_alpha 90.000000
_cell_angle_beta 90.000000
_cell_angle_gamma 90.000000
_cell_volume 4476.331959
_symmetry_space_group_name_H-M "C M C M"
_symmetry_group_IT_number 63
_symmetry_cell_setting 'orthorhombic'
loop_
_space_group_symop_operation_xyz
x,y,z
-x,-y,1/2+z
x,-y,-z
-x,y,1/2-z
-x,-y,-z
x,y,1/2-z
-x,y,z
x,-y,1/2+z
1/2+x,1/2+y,z
1/2-x,1/2-y,1/2+z
1/2+x,1/2-y,-z
1/2-x,1/2+y,1/2-z
1/2-x,1/2-y,-z
1/2+x,1/2+y,1/2-z
1/2-x,1/2+y,z
1/2+x,1/2-y,1/2+z
loop_
_atom_site_type_symbol
_atom_site_label
_atom_site_fract_x
_atom_site_fract_y
_atom_site_fract_z
Si Si1 0.609004 0.547672 0.874892
Si Si2 0.000000 0.548484 0.873634
Si Si3 0.712558 0.605555 0.552293
Si Si4 0.102243 0.607790 0.948996
Si Si5 0.805402 0.274876 0.372670
Si Si6 0.944723 0.252788 0.622687
O O1 0.600820 0.499124 0.750000
O O2 0.664815 0.583828 0.875573
O O3 0.573252 0.640873 0.878921
O O4 0.603474 0.500000 0.000000
O O5 0.052224 0.602041 0.878617
O O6 0.000000 0.496870 0.750000
O O7 0.000000 0.500000 0.000000
O O8 0.727279 0.500000 0.500000
O O9 0.757837 0.657379 0.611315
O O10 0.696072 0.685002 0.459283
O O11 0.147899 0.655624 0.888378
O O12 0.112902 0.500000 0.000000
O O13 0.089846 0.679781 0.050707
O O14 0.805596 0.230933 0.250000
O O15 0.943323 0.286381 0.750000
O O16 0.000000 0.260717 0.581621
#
# Coordination Sequence:
#
# PCOD9474496 Si02
#       6
#    16   8  16  16  16  16
#     4  10  21  40  66  93 124 162 207 254 307 370
#     4  10  22  38  60  86 121 162 207 258 311 368
#     4  10  22  41  62  88 121 161 206 246 306 369
#     4  11  22  39  59  88 124 160 208 256 308 364
#     4  11  23  39  61  89 123 158 202 258 309 360
#     4  10  21  39  62  89 123 166 208 252 307 373
#
# _framework density 19.658954000000001
#
# number of rings (size 3 to 8) (size 9 to 14) (size 15 to 20)
#    0.000    1.636    2.727    1.636    0.000    7.636 
#    0.000    0.000    0.000    0.000    0.000    0.000 
#    0.000    0.000    0.000    0.000    0.000    0.000 
#
# Total GULP energy -245140.499722 kJ/mol
# GULP energy per Si atom -5571.374994 kJ/mol
# Density = 1.961421 g / cm^3
# Si number density = 19.658954 Si / 1000 Ang^3
#
#
#
# Elastic Constant Matrix: (Units=GPa)
#
#
# Indices 1 2 3 4 5 6 
#
# 1 60.3483 7.9022 25.4827 0.0000 0.0000 0.0000
# 2 7.9022 55.9420 31.5712 0.0000 0.0000 0.0000
# 3 25.4827 31.5712 138.3236 0.0000 0.0000 0.0000
# 4 0.0000 0.0000 0.0000 12.2273 0.0000 0.0000
# 5 0.0000 0.0000 0.0000 0.0000 32.3568 0.0000
# 6 0.0000 0.0000 0.0000 0.0000 0.0000 29.2168
#
#
#
# Elastic Compliance Matrix: (Units=1/GPa)
#
#
# Indices 1 2 3 4 5 6 
#
# 1 0.017997 -0.000770 -0.003140 0.000000 0.000000 0.000000
# 2 -0.000770 0.020552 -0.004549 0.000000 0.000000 0.000000
# 3 -0.003140 -0.004549 0.008846 0.000000 0.000000 0.000000
# 4 0.000000 0.000000 0.000000 0.081784 0.000000 0.000000
# 5 0.000000 0.000000 0.000000 0.000000 0.030905 0.000000
# 6 0.000000 0.000000 0.000000 0.000000 0.000000 0.034227
#
#
# Mechanical properties :
#
#
# Convention : Reuss Voigt Hill
#
# Bulk Modulus (GPa) = 32.81149 42.72511 37.76830
# Shear Modulus (GPa) = 22.58478 27.40404 24.99441
#
# Velocity S-wave (km/s) = 3.39312 3.73764 3.56954
# Velocity P-wave (km/s) = 5.66371 6.35665 6.02016
#
# Compressibility (1/GPa) = 0.03047713
#
# Stress axis : x y z
#
# Youngs Moduli (GPa) = 55.56449 48.65800 113.04456
#
# Poissons Ratio (x) = 0.03748 0.35493
# Poissons Ratio (y) = 0.04280 0.51422
# Poissons Ratio (z) = 0.17446 0.22134
#
# Static dielectric constant tensor:
#      x y z
#    x 1.678720 0.000000 0.000000 
#    y 0.000000 1.686410 0.000000 
#    z 0.000000 0.000000 1.813270 
# 
# From -- ./inp_files/24908.got.cif
#   From: 2010.05.17/outbox.cif.g08.bks.cpg/sg63_13_cif.got.tgz:24908.got - 2010.06.03 15:47:04.
