data_PCOD9474128
_publ_section_title
;
Structure prediction by ZEFSAII (Michael W. Deem and Ramdas Pophale) SiO2 
 PCOD9474128
Probable space group: C M C M
;
_chemical_formula_sum "Si O2"
_cell_formula_units_Z 96
_cell_length_a 17.314806
_cell_length_b 16.585077
_cell_length_c 19.418761
_cell_angle_alpha 90.000000
_cell_angle_beta 90.000000
_cell_angle_gamma 90.000000
_cell_volume 5576.434928
_symmetry_space_group_name_H-M "C M C M"
_symmetry_group_IT_number 63
_symmetry_cell_setting 'orthorhombic'
loop_
_space_group_symop_operation_xyz
x,y,z
-x,-y,1/2+z
x,-y,-z
-x,y,1/2-z
-x,-y,-z
x,y,1/2-z
-x,y,z
x,-y,1/2+z
1/2+x,1/2+y,z
1/2-x,1/2-y,1/2+z
1/2+x,1/2-y,-z
1/2-x,1/2+y,1/2-z
1/2-x,1/2-y,-z
1/2+x,1/2+y,1/2-z
1/2-x,1/2+y,z
1/2+x,1/2-y,1/2+z
loop_
_atom_site_type_symbol
_atom_site_label
_atom_site_fract_x
_atom_site_fract_y
_atom_site_fract_z
Si Si1 0.185856 0.777987 0.554467
Si Si2 0.907367 0.087052 0.972329
Si Si3 0.408628 0.056804 0.102507
Si Si4 0.591111 0.880303 0.446830
Si Si5 0.408499 0.337300 0.328652
Si Si6 0.698586 0.179770 0.171466
O O1 0.250000 0.750000 0.500000
O O2 0.132037 0.842806 0.516593
O O3 0.138478 0.697912 0.573679
O O4 0.230712 0.814719 0.619081
O O5 0.890522 0.102279 0.891356
O O6 0.000000 0.092006 0.980504
O O7 0.881548 0.000000 0.000000
O O8 0.500000 0.063469 0.118711
O O9 0.354551 0.102958 0.155086
O O10 0.389201 0.962642 0.093121
O O11 0.396912 0.099185 0.027813
O O12 0.500000 0.865905 0.437925
O O13 0.395877 0.366926 0.250000
O O14 0.500000 0.316626 0.334194
O O15 0.356639 0.257923 0.338745
O O16 0.724792 0.179364 0.250000
#
# Coordination Sequence:
#
# PCOD9474128 Si02
#       6
#    16  16  16  16  16  16
#     4  12  21  34  55  80 111 150 183 225 274 328
#     4  10  21  37  58  83 108 143 193 236 267 317
#     4   9  17  32  55  84 111 137 175 223 276 329
#     4   9  18  33  56  82 108 140 183 228 268 321
#     4   9  17  32  55  82 112 142 175 223 281 332
#     4  11  22  35  51  81 117 146 178 221 280 335
#
# _framework density 17.215299000000002
#
# number of rings (size 3 to 8) (size 9 to 14) (size 15 to 20)
#    0.000    2.000    3.333    2.000    0.000    5.000 
#    0.000    1.667    0.000    4.000    0.000    0.000 
#    0.000    0.000    0.000    0.000    0.000    0.000 
#
# Total GULP energy -267807.980724 kJ/mol
# GULP energy per Si atom -5579.332932 kJ/mol
# Density = 1.717612 g / cm^3
# Si number density = 17.215299 Si / 1000 Ang^3
#
#
#
# Elastic Constant Matrix: (Units=GPa)
#
#
# Indices 1 2 3 4 5 6 
#
# 1 35.6444 42.9661 37.4766 0.0000 0.0000 0.0000
# 2 42.9661 95.8065 44.4168 0.0000 0.0000 0.0000
# 3 37.4766 44.4168 104.2158 0.0000 0.0000 0.0000
# 4 0.0000 0.0000 0.0000 26.1425 0.0000 0.0000
# 5 0.0000 0.0000 0.0000 0.0000 24.5408 0.0000
# 6 0.0000 0.0000 0.0000 0.0000 0.0000 -19.4841
#
#
#
# Elastic Compliance Matrix: (Units=1/GPa)
#
#
# Indices 1 2 3 4 5 6 
#
# 1 0.078806 -0.027671 -0.016546 0.000000 0.000000 0.000000
# 2 -0.027671 0.022724 0.000266 0.000000 0.000000 0.000000
# 3 -0.016546 0.000266 0.015432 0.000000 0.000000 0.000000
# 4 0.000000 0.000000 0.000000 0.038252 0.000000 0.000000
# 5 0.000000 0.000000 0.000000 0.000000 0.040748 0.000000
# 6 0.000000 0.000000 0.000000 0.000000 0.000000 -0.051324
#
#
# Mechanical properties :
#
#
# Convention : Reuss Voigt Hill
#
# Bulk Modulus (GPa) = 34.41151 53.93174 44.17162
# Shear Modulus (GPa) = 20.64169 13.62700 17.13434
#
# Velocity S-wave (km/s) = 3.46646 2.81653 3.15826
# Velocity P-wave (km/s) = 6.00451 6.47865 6.24608
#
# Compressibility (1/GPa) = 0.02906005
#
# Stress axis : x y z
#
# Youngs Moduli (GPa) = 12.68935 44.00586 64.79990
#
# Poissons Ratio (x) = 1.21770 1.07215
# Poissons Ratio (y) = 0.35113 -0.01722
# Poissons Ratio (z) = 0.20995 -0.01169
#
# Static dielectric constant tensor:
#      x y z
#    x 1.569740 0.000000 0.000000 
#    y 0.000000 1.576780 0.000000 
#    z 0.000000 0.000000 1.587300 
# 
# From -- ./inp_files/54139.got.cif
#   From: 2010.05.17/outbox.cif.g08.bks.cpg/sg63_28_cif.got.tgz:54139.got - 2010.06.03 15:47:04.
