data_PCOD9474682
_publ_section_title
;
Structure prediction by ZEFSAII (Michael W. Deem and Ramdas Pophale) SiO2 
 PCOD9474682
Probable space group: C M C M
;
_chemical_formula_sum "Si O2"
_cell_formula_units_Z 64
_cell_length_a 14.055321
_cell_length_b 16.075856
_cell_length_c 11.658592
_cell_angle_alpha 90.000000
_cell_angle_beta 90.000000
_cell_angle_gamma 90.000000
_cell_volume 2634.274210
_symmetry_space_group_name_H-M "C M C M"
_symmetry_group_IT_number 63
_symmetry_cell_setting 'orthorhombic'
loop_
_space_group_symop_operation_xyz
x,y,z
-x,-y,1/2+z
x,-y,-z
-x,y,1/2-z
-x,-y,-z
x,y,1/2-z
-x,y,z
x,-y,1/2+z
1/2+x,1/2+y,z
1/2-x,1/2-y,1/2+z
1/2+x,1/2-y,-z
1/2-x,1/2+y,1/2-z
1/2-x,1/2-y,-z
1/2+x,1/2+y,1/2-z
1/2-x,1/2+y,z
1/2+x,1/2-y,1/2+z
loop_
_atom_site_type_symbol
_atom_site_label
_atom_site_fract_x
_atom_site_fract_y
_atom_site_fract_z
Si Si1 0.500000 0.737690 0.878509
Si Si2 0.159261 0.703751 0.750000
Si Si3 0.834406 0.519317 0.750000
Si Si4 0.654370 0.000000 0.000000
Si Si5 0.337385 0.609742 0.250000
Si Si6 0.000000 0.089128 0.060756
Si Si7 0.165461 0.315355 0.002272
O O1 0.500000 0.706284 0.750000
O O2 0.500000 0.661011 0.965819
O O3 0.591384 0.794194 0.904202
O O4 0.210128 0.613490 0.750000
O O5 0.203009 0.795834 0.750000
O O6 0.111858 0.697837 0.875079
O O7 0.889415 0.506578 0.629052
O O8 0.746416 0.456438 0.750000
O O9 0.703074 0.090461 0.005342
O O10 0.407541 0.598827 0.141606
O O11 0.000000 0.000000 0.000000
O O12 0.250000 0.250000 0.000000
#
# Coordination Sequence:
#
# PCOD9474682 Si02
#       7
#     8   8   8   8   8   8  16
#     4  12  29  48  75 109 152 197 253 318 379 452
#     4  10  21  43  72  98 139 199 240 303 358 458
#     4  10  23  39  68 104 139 187 253 299 371 452
#     4  10  24  43  70 107 144 196 246 317 374 449
#     4  11  22  44  72  94 144 189 247 298 375 447
#     4  11  27  44  65 101 142 192 237 310 375 451
#     4  11  25  46  74 109 149 194 255 309 385 448
#
# _framework density 24.295117000000001
#
# number of rings (size 3 to 8) (size 9 to 14) (size 15 to 20)
#    0.000    1.250    2.500    1.500    7.000    3.000 
#    0.000    0.000    0.000    0.000    0.000    0.000 
#    0.000    0.000    0.000    0.000    0.000    0.000 
#
# Total GULP energy -178458.215819 kJ/mol
# GULP energy per Si atom -5576.819244 kJ/mol
# Density = 2.423982 g / cm^3
# Si number density = 24.295117 Si / 1000 Ang^3
#
#
#
# Elastic Constant Matrix: (Units=GPa)
#
#
# Indices 1 2 3 4 5 6 
#
# 1 113.3926 54.8949 34.9008 0.0000 0.0000 0.0000
# 2 54.8949 259.0384 29.3202 0.0000 0.0000 0.0000
# 3 34.9008 29.3202 225.7271 0.0000 0.0000 0.0000
# 4 0.0000 0.0000 0.0000 40.8709 0.0000 0.0000
# 5 0.0000 0.0000 0.0000 0.0000 9.0683 0.0000
# 6 0.0000 0.0000 0.0000 0.0000 0.0000 6.8442
#
#
#
# Elastic Compliance Matrix: (Units=1/GPa)
#
#
# Indices 1 2 3 4 5 6 
#
# 1 0.010198 -0.002012 -0.001315 0.000000 0.000000 0.000000
# 2 -0.002012 0.004315 -0.000249 0.000000 0.000000 0.000000
# 3 -0.001315 -0.000249 0.004666 0.000000 0.000000 0.000000
# 4 0.000000 0.000000 0.000000 0.024467 0.000000 0.000000
# 5 0.000000 0.000000 0.000000 0.000000 0.110274 0.000000
# 6 0.000000 0.000000 0.000000 0.000000 0.000000 0.146110
#
#
# Mechanical properties :
#
#
# Convention : Reuss Voigt Hill
#
# Bulk Modulus (GPa) = 83.16058 92.93222 88.04640
# Shear Modulus (GPa) = 16.06723 43.29283 29.68003
#
# Velocity S-wave (km/s) = 2.57444 4.22590 3.49900
# Velocity P-wave (km/s) = 6.56815 7.88324 7.25555
#
# Compressibility (1/GPa) = 0.01202493
#
# Stress axis : x y z
#
# Youngs Moduli (GPa) = 98.05914 231.74502 214.32107
#
# Poissons Ratio (x) = 0.46633 0.28191
# Poissons Ratio (y) = 0.19732 0.05345
# Poissons Ratio (z) = 0.12898 0.05779
#
# Static dielectric constant tensor:
#      x y z
#    x 1.887400 0.000000 0.000000 
#    y 0.000000 1.902740 0.000000 
#    z 0.000000 0.000000 2.032700 
# 
# From -- ./inp_files/19027.got.cif
#   From: 2010.05.17/outbox.cif.g08.bks.cpg/sg63_10_cif.got.tgz:19027.got - 2010.06.03 15:47:04.
