data_PCOD9474423
_publ_section_title
;
Structure prediction by ZEFSAII (Michael W. Deem and Ramdas Pophale) SiO2 
 PCOD9474423
Probable space group: C M C M
;
_chemical_formula_sum "Si O2"
_cell_formula_units_Z 96
_cell_length_a 21.011824
_cell_length_b 15.117677
_cell_length_c 14.940351
_cell_angle_alpha 90.000000
_cell_angle_beta 90.000000
_cell_angle_gamma 90.000000
_cell_volume 4745.802023
_symmetry_space_group_name_H-M "C M C M"
_symmetry_group_IT_number 63
_symmetry_cell_setting 'orthorhombic'
loop_
_space_group_symop_operation_xyz
x,y,z
-x,-y,1/2+z
x,-y,-z
-x,y,1/2-z
-x,-y,-z
x,y,1/2-z
-x,y,z
x,-y,1/2+z
1/2+x,1/2+y,z
1/2-x,1/2-y,1/2+z
1/2+x,1/2-y,-z
1/2-x,1/2+y,1/2-z
1/2-x,1/2-y,-z
1/2+x,1/2+y,1/2-z
1/2-x,1/2+y,z
1/2+x,1/2-y,1/2+z
loop_
_atom_site_type_symbol
_atom_site_label
_atom_site_fract_x
_atom_site_fract_y
_atom_site_fract_z
Si Si1 0.068027 0.603379 0.479179
Si Si2 0.250761 0.711834 0.899753
Si Si3 0.928491 0.922863 0.858230
Si Si4 0.313057 0.887120 0.849789
Si Si5 0.699492 0.479653 0.141177
Si Si6 0.896038 0.282222 0.352993
O O1 0.068023 0.500000 0.500000
O O2 0.127968 0.618368 0.416111
O O3 0.074113 0.655559 0.572194
O O4 0.000000 0.627722 0.436763
O O5 0.284926 0.788989 0.845505
O O6 0.285158 0.617634 0.894454
O O7 0.179494 0.703458 0.862719
O O8 0.250000 0.750000 0.000000
O O9 0.929854 0.931845 0.750000
O O10 0.912785 0.819698 0.874832
O O11 0.000000 0.944159 0.891219
O O12 0.868687 0.981685 0.889109
O O13 0.332081 0.917023 0.750000
O O14 0.256981 0.953016 0.882513
O O15 0.698743 0.475967 0.250000
O O16 0.915321 0.299407 0.250000
#
# Coordination Sequence:
#
# PCOD9474423 Si02
#       6
#    16  16  16  16  16  16
#     4  11  25  42  61  91 127 166 216 269 325 391
#     4  12  23  38  64  95 129 167 213 270 324 386
#     4   9  18  35  62  95 130 168 213 268 326 387
#     4  11  23  42  65  93 128 168 215 269 327 386
#     4  10  21  38  64  96 129 167 216 269 326 393
#     4  11  21  40  67  96 126 166 219 275 329 385
#
# _framework density 20.228404999999999
#
# number of rings (size 3 to 8) (size 9 to 14) (size 15 to 20)
#    0.000    1.333    3.333    3.000    0.000    3.333 
#    0.000    2.500    0.000    3.000    0.000    0.000 
#    0.000    0.000    0.000    0.000    0.000    0.000 
#
# Total GULP energy -268247.400761 kJ/mol
# GULP energy per Si atom -5588.487516 kJ/mol
# Density = 2.018236 g / cm^3
# Si number density = 20.228405 Si / 1000 Ang^3
#
#
#
# Elastic Constant Matrix: (Units=GPa)
#
#
# Indices 1 2 3 4 5 6 
#
# 1 154.3429 69.3229 29.4592 0.0000 0.0000 0.0000
# 2 69.3229 143.5414 29.2445 0.0000 0.0000 0.0000
# 3 29.4592 29.2445 74.4555 0.0000 0.0000 0.0000
# 4 0.0000 0.0000 0.0000 33.5056 0.0000 0.0000
# 5 0.0000 0.0000 0.0000 0.0000 20.6445 0.0000
# 6 0.0000 0.0000 0.0000 0.0000 0.0000 163.4553
#
#
#
# Elastic Compliance Matrix: (Units=1/GPa)
#
#
# Indices 1 2 3 4 5 6 
#
# 1 0.008516 -0.003724 -0.001907 0.000000 0.000000 0.000000
# 2 -0.003724 0.009201 -0.002141 0.000000 0.000000 0.000000
# 3 -0.001907 -0.002141 0.015026 0.000000 0.000000 0.000000
# 4 0.000000 0.000000 0.000000 0.029846 0.000000 0.000000
# 5 0.000000 0.000000 0.000000 0.000000 0.048439 0.000000
# 6 0.000000 0.000000 0.000000 0.000000 0.000000 0.006118
#
#
# Mechanical properties :
#
#
# Convention : Reuss Voigt Hill
#
# Bulk Modulus (GPa) = 58.13830 69.82145 63.97988
# Shear Modulus (GPa) = 36.12150 59.80863 47.96506
#
# Velocity S-wave (km/s) = 4.23032 5.44342 4.87475
# Velocity P-wave (km/s) = 7.25700 8.60809 7.96126
#
# Compressibility (1/GPa) = 0.01720036
#
# Stress axis : x y z
#
# Youngs Moduli (GPa) = 117.43020 108.67997 66.55151
#
# Poissons Ratio (x) = 0.40475 0.12688
# Poissons Ratio (y) = 0.43733 0.14246
# Poissons Ratio (z) = 0.22389 0.23264
#
# Static dielectric constant tensor:
#      x y z
#    x 1.739040 0.000000 0.000000 
#    y 0.000000 1.684240 0.000000 
#    z 0.000000 0.000000 4.163300 
# 
# From -- ./inp_files/35291.got.cif
#   From: 2010.05.17/outbox.cif.g08.bks.cpg/sg63_18_cif.got.tgz:35291.got - 2010.06.03 15:47:04.
