data_PCOD9474556
_publ_section_title
;
Structure prediction by ZEFSAII (Michael W. Deem and Ramdas Pophale) SiO2 
 PCOD9474556
Probable space group: C M C M
;
_chemical_formula_sum "Si O2"
_cell_formula_units_Z 96
_cell_length_a 12.712847
_cell_length_b 13.201957
_cell_length_c 20.619336
_cell_angle_alpha 90.000000
_cell_angle_beta 90.000000
_cell_angle_gamma 90.000000
_cell_volume 3460.635112
_symmetry_space_group_name_H-M "C M C M"
_symmetry_group_IT_number 63
_symmetry_cell_setting 'orthorhombic'
loop_
_space_group_symop_operation_xyz
x,y,z
-x,-y,1/2+z
x,-y,-z
-x,y,1/2-z
-x,-y,-z
x,y,1/2-z
-x,y,z
x,-y,1/2+z
1/2+x,1/2+y,z
1/2-x,1/2-y,1/2+z
1/2+x,1/2-y,-z
1/2-x,1/2+y,1/2-z
1/2-x,1/2-y,-z
1/2+x,1/2+y,1/2-z
1/2-x,1/2+y,z
1/2+x,1/2-y,1/2+z
loop_
_atom_site_type_symbol
_atom_site_label
_atom_site_fract_x
_atom_site_fract_y
_atom_site_fract_z
Si Si1 0.125673 0.602112 0.318905
Si Si2 0.622285 0.222723 0.497759
Si Si3 0.872951 0.200833 0.174400
Si Si4 0.621704 0.087196 0.889872
Si Si5 0.117054 0.807763 0.142362
Si Si6 0.127485 0.015551 0.423411
O O1 0.149806 0.550198 0.250000
O O2 0.168574 0.716429 0.317475
O O3 0.159822 0.524799 0.373950
O O4 0.000000 0.616049 0.321587
O O5 0.500000 0.263134 0.522031
O O6 0.750000 0.250000 0.500000
O O7 0.624792 0.117566 0.535222
O O8 0.606074 0.243055 0.423317
O O9 0.850534 0.173985 0.250000
O O10 0.848069 0.118481 0.116972
O O11 0.000000 0.203031 0.173883
O O12 0.500000 0.079873 0.869961
O O13 0.659138 0.186696 0.850700
O O14 0.159662 0.915672 0.118092
O O15 0.000000 0.830654 0.169830
O O16 0.000000 0.009179 0.425393
O O17 0.158893 0.000000 0.500000
#
# Coordination Sequence:
#
# PCOD9474556 Si02
#       6
#    16  16  16  16  16  16
#     4   9  17  30  53  88 129 173 221 278 346 418
#     4  10  21  39  66 100 137 178 228 290 359 429
#     4   9  16  26  46  80 121 167 222 283 345 414
#     4   9  17  31  55  87 126 169 217 276 344 418
#     4   9  18  32  54  86 124 167 219 277 342 416
#     4   9  16  27  45  72 114 169 224 280 347 425
#
# _framework density 27.740573000000001
#
# number of rings (size 3 to 8) (size 9 to 14) (size 15 to 20)
#    0.000    2.833    0.000    1.500    0.000    7.333 
#    0.000    6.667   11.000    2.000    0.000    0.000 
#    0.000    0.000    0.000    0.000    0.000    0.000 
#
# Total GULP energy -267215.630892 kJ/mol
# GULP energy per Si atom -5566.992310 kJ/mol
# Density = 2.767743 g / cm^3
# Si number density = 27.740573 Si / 1000 Ang^3
#
#
#
# Elastic Constant Matrix: (Units=GPa)
#
#
# Indices 1 2 3 4 5 6 
#
# 1 158.5808 63.3209 38.5042 0.0000 0.0000 0.0000
# 2 63.3209 200.2102 46.4882 0.0000 0.0000 0.0000
# 3 38.5042 46.4882 90.4089 0.0000 0.0000 0.0000
# 4 0.0000 0.0000 0.0000 27.0177 0.0000 0.0000
# 5 0.0000 0.0000 0.0000 0.0000 1.6156 0.0000
# 6 0.0000 0.0000 0.0000 0.0000 0.0000 52.5683
#
#
#
# Elastic Compliance Matrix: (Units=1/GPa)
#
#
# Indices 1 2 3 4 5 6 
#
# 1 0.007608 -0.001878 -0.002274 0.000000 0.000000 0.000000
# 2 -0.001878 0.006136 -0.002355 0.000000 0.000000 0.000000
# 3 -0.002274 -0.002355 0.013241 0.000000 0.000000 0.000000
# 4 0.000000 0.000000 0.000000 0.037013 0.000000 0.000000
# 5 0.000000 0.000000 0.000000 0.000000 0.618963 0.000000
# 6 0.000000 0.000000 0.000000 0.000000 0.000000 0.019023
#
#
# Mechanical properties :
#
#
# Convention : Reuss Voigt Hill
#
# Bulk Modulus (GPa) = 71.58760 82.86963 77.22861
# Shear Modulus (GPa) = 6.94778 36.29944 21.62361
#
# Velocity S-wave (km/s) = 1.58430 3.62129 2.79497
# Velocity P-wave (km/s) = 5.40451 6.88643 6.18998
#
# Compressibility (1/GPa) = 0.01396890
#
# Stress axis : x y z
#
# Youngs Moduli (GPa) = 131.43864 162.98384 75.52584
#
# Poissons Ratio (x) = 0.30610 0.17178
# Poissons Ratio (y) = 0.24686 0.17787
# Poissons Ratio (z) = 0.29896 0.38383
#
# Static dielectric constant tensor:
#      x y z
#    x 2.495200 0.000000 0.000000 
#    y 0.000000 2.147320 0.000000 
#    z 0.000000 0.000000 2.298540 
# 
# From -- ./inp_files/53265.got.cif
#   From: 2010.05.17/outbox.cif.g08.bks.cpg/sg63_27_cif.got.tgz:53265.got - 2010.06.03 15:47:04.
