data_PCOD9474187
_publ_section_title
;
Structure prediction by ZEFSAII (Michael W. Deem and Ramdas Pophale) SiO2 
 PCOD9474187
Probable space group: C M C M
;
_chemical_formula_sum "Si O2"
_cell_formula_units_Z 116
_cell_length_a 16.862145
_cell_length_b 12.622812
_cell_length_c 27.065509
_cell_angle_alpha 90.000000
_cell_angle_beta 90.000000
_cell_angle_gamma 90.000000
_cell_volume 5760.830968
_symmetry_space_group_name_H-M "C M C M"
_symmetry_group_IT_number 63
_symmetry_cell_setting 'orthorhombic'
loop_
_space_group_symop_operation_xyz
x,y,z
-x,-y,1/2+z
x,-y,-z
-x,y,1/2-z
-x,-y,-z
x,y,1/2-z
-x,y,z
x,-y,1/2+z
1/2+x,1/2+y,z
1/2-x,1/2-y,1/2+z
1/2+x,1/2-y,-z
1/2-x,1/2+y,1/2-z
1/2-x,1/2-y,-z
1/2+x,1/2+y,1/2-z
1/2-x,1/2+y,z
1/2+x,1/2-y,1/2+z
loop_
_atom_site_type_symbol
_atom_site_label
_atom_site_fract_x
_atom_site_fract_y
_atom_site_fract_z
Si Si1 0.403949 0.668029 0.994676
Si Si2 0.000000 0.312141 0.250000
Si Si3 0.590090 0.605680 0.884403
Si Si4 0.141822 0.312907 0.331829
Si Si5 0.647788 0.612265 0.101226
Si Si6 0.818722 0.754309 0.194901
Si Si7 0.674443 0.052614 0.366315
Si Si8 0.904922 0.402090 0.968517
O O1 0.500000 0.657160 0.999760
O O2 0.382120 0.623259 0.940857
O O3 0.380467 0.791044 0.991951
O O4 0.364939 0.617506 0.042557
O O5 0.929981 0.312424 0.206633
O O6 0.500000 0.645234 0.881476
O O7 0.593631 0.480171 0.876050
O O8 0.642427 0.669257 0.845676
O O9 0.128710 0.226571 0.375354
O O10 0.224555 0.274489 0.307596
O O11 0.156682 0.431706 0.352183
O O12 0.736106 0.574569 0.115200
O O13 0.847834 0.776757 0.250000
O O14 0.837105 0.633759 0.178987
O O15 0.620401 0.087985 0.412035
O O16 0.000000 0.404114 0.970501
O O17 0.872728 0.500000 0.000000
#
# Coordination Sequence:
#
# PCOD9474187 Si02
#       8
#    16   4  16  16  16  16  16  16
#     4  10  21  39  64  95 139 181 231 282 336 411
#     4  12  28  48  76 100 136 184 228 294 340 430
#     4  11  23  44  67 100 137 181 235 285 344 411
#     4  11  26  48  67 105 133 176 232 285 352 412
#     4  11  24  42  71  99 140 182 224 286 344 417
#     4  11  24  47  70  94 137 178 227 291 349 405
#     4  11  24  43  69  98 136 178 223 287 343 418
#     4  10  21  37  59  95 140 186 226 282 343 407
#
# _framework density 20.135984000000001
#
# number of rings (size 3 to 8) (size 9 to 14) (size 15 to 20)
#    0.000    1.241    3.448    1.655    3.862    3.034 
#    1.241    0.000    0.000    0.000    0.000    0.000 
#    0.000    0.000    0.000    0.000    0.000    0.000 
#
# Total GULP energy -323536.085926 kJ/mol
# GULP energy per Si atom -5578.208378 kJ/mol
# Density = 2.009015 g / cm^3
# Si number density = 20.135984 Si / 1000 Ang^3
#
#
#
# Elastic Constant Matrix: (Units=GPa)
#
#
# Indices 1 2 3 4 5 6 
#
# 1 51.4048 46.1824 47.6284 0.0000 0.0000 0.0000
# 2 46.1824 138.6748 57.6704 0.0000 0.0000 0.0000
# 3 47.6284 57.6704 146.3570 0.0000 0.0000 0.0000
# 4 0.0000 0.0000 0.0000 3.6116 0.0000 0.0000
# 5 0.0000 0.0000 0.0000 0.0000 23.5013 0.0000
# 6 0.0000 0.0000 0.0000 0.0000 0.0000 11.7852
#
#
#
# Elastic Compliance Matrix: (Units=1/GPa)
#
#
# Indices 1 2 3 4 5 6 
#
# 1 0.033987 -0.008036 -0.007894 0.000000 0.000000 0.000000
# 2 -0.008036 0.010524 -0.001532 0.000000 0.000000 0.000000
# 3 -0.007894 -0.001532 0.010005 0.000000 0.000000 0.000000
# 4 0.000000 0.000000 0.000000 0.276887 0.000000 0.000000
# 5 0.000000 0.000000 0.000000 0.000000 0.042551 0.000000
# 6 0.000000 0.000000 0.000000 0.000000 0.000000 0.084852
#
#
# Mechanical properties :
#
#
# Convention : Reuss Voigt Hill
#
# Bulk Modulus (GPa) = 51.03812 71.04433 61.04122
# Shear Modulus (GPa) = 9.99480 20.10997 15.05239
#
# Velocity S-wave (km/s) = 2.23034 3.16366 2.73708
# Velocity P-wave (km/s) = 5.65989 6.97882 6.35367
#
# Compressibility (1/GPa) = 0.01959320
#
# Stress axis : x y z
#
# Youngs Moduli (GPa) = 29.42336 95.01805 99.94906
#
# Poissons Ratio (x) = 0.76354 0.78897
# Poissons Ratio (y) = 0.23644 0.15312
# Poissons Ratio (z) = 0.23226 0.14557
#
# Static dielectric constant tensor:
#      x y z
#    x 1.722810 0.000000 0.000000 
#    y 0.000000 1.732240 0.000000 
#    z 0.000000 0.000000 1.682600 
# 
# From -- ./inp_files/70010.got.cif
#   From: 2010.05.17/outbox.cif.g08.bks.cpg/sg63_36_cif.got.tgz:70010.got - 2010.06.03 15:47:04.
