data_PCOD9474786
_publ_section_title
;
Structure prediction by ZEFSAII (Michael W. Deem and Ramdas Pophale) SiO2 
 PCOD9474786
Probable space group: C M C M
;
_chemical_formula_sum "Si O2"
_cell_formula_units_Z 64
_cell_length_a 23.914380
_cell_length_b 7.192654
_cell_length_c 13.315825
_cell_angle_alpha 90.000000
_cell_angle_beta 90.000000
_cell_angle_gamma 90.000000
_cell_volume 2290.426575
_symmetry_space_group_name_H-M "C M C M"
_symmetry_group_IT_number 63
_symmetry_cell_setting 'orthorhombic'
loop_
_space_group_symop_operation_xyz
x,y,z
-x,-y,1/2+z
x,-y,-z
-x,y,1/2-z
-x,-y,-z
x,y,1/2-z
-x,y,z
x,-y,1/2+z
1/2+x,1/2+y,z
1/2-x,1/2-y,1/2+z
1/2+x,1/2-y,-z
1/2-x,1/2+y,1/2-z
1/2-x,1/2-y,-z
1/2+x,1/2+y,1/2-z
1/2-x,1/2+y,z
1/2+x,1/2-y,1/2+z
loop_
_atom_site_type_symbol
_atom_site_label
_atom_site_fract_x
_atom_site_fract_y
_atom_site_fract_z
Si Si1 0.061063 0.762533 0.409705
Si Si2 0.583224 0.825449 0.136881
Si Si3 0.699005 0.021495 0.858934
Si Si4 0.320690 0.363535 0.092227
O O1 0.067025 0.544658 0.378155
O O2 0.063970 0.767706 0.532551
O O3 0.115805 0.865397 0.367472
O O4 0.000000 0.829370 0.377968
O O5 0.565268 0.769721 0.250000
O O6 0.651015 0.824365 0.136451
O O7 0.687854 0.927857 0.750000
O O8 0.689047 0.853097 0.935105
O O9 0.762159 0.087312 0.856689
O O10 0.321333 0.500000 0.000000
#
# Coordination Sequence:
#
# PCOD9474786 Si02
#       4
#    16  16  16  16
#     4  10  22  38  59  91 129 170 216 259 309 382
#     4   9  19  36  62  93 124 164 214 268 319 372
#     4  10  22  39  62  93 124 158 209 266 324 380
#     4  11  24  39  63  90 125 165 204 257 323 381
#
# _framework density 27.942394
#
# number of rings (size 3 to 8) (size 9 to 14) (size 15 to 20)
#    0.000    2.000    0.000    3.000   10.500    3.500 
#    0.000    1.250    0.000    0.000    0.000    3.500 
#    0.000    0.000    0.000    0.000    0.000    0.000 
#
# Total GULP energy -179057.240172 kJ/mol
# GULP energy per Si atom -5595.538755 kJ/mol
# Density = 2.787880 g / cm^3
# Si number density = 27.942394 Si / 1000 Ang^3
#
#
#
# Elastic Constant Matrix: (Units=GPa)
#
#
# Indices 1 2 3 4 5 6 
#
# 1 299.4900 16.3498 39.2753 0.0000 0.0000 0.0000
# 2 16.3498 66.6045 26.2090 0.0000 0.0000 0.0000
# 3 39.2753 26.2090 144.4551 0.0000 0.0000 0.0000
# 4 0.0000 0.0000 0.0000 15.2743 0.0000 0.0000
# 5 0.0000 0.0000 0.0000 0.0000 -13.6463 0.0000
# 6 0.0000 0.0000 0.0000 0.0000 0.0000 23.0740
#
#
#
# Elastic Compliance Matrix: (Units=1/GPa)
#
#
# Indices 1 2 3 4 5 6 
#
# 1 0.003479 -0.000519 -0.000852 0.000000 0.000000 0.000000
# 2 -0.000519 0.016246 -0.002806 0.000000 0.000000 0.000000
# 3 -0.000852 -0.002806 0.007663 0.000000 0.000000 0.000000
# 4 0.000000 0.000000 0.000000 0.065469 0.000000 0.000000
# 5 0.000000 0.000000 0.000000 0.000000 -0.073280 0.000000
# 6 0.000000 0.000000 0.000000 0.000000 0.000000 0.043339
#
#
# Mechanical properties :
#
#
# Convention : Reuss Voigt Hill
#
# Bulk Modulus (GPa) = 52.53771 74.91311 63.72541
# Shear Modulus (GPa) = 64.42043 33.52143 48.97093
#
# Velocity S-wave (km/s) = 4.80674 3.46737 4.19091
# Velocity P-wave (km/s) = 7.04623 6.54968 6.80248
#
# Compressibility (1/GPa) = 0.01903395
#
# Stress axis : x y z
#
# Youngs Moduli (GPa) = 287.43596 61.55475 130.49150
#
# Poissons Ratio (x) = 0.03194 0.11115
# Poissons Ratio (y) = 0.14914 0.36622
# Poissons Ratio (z) = 0.24483 0.17275
#
# Static dielectric constant tensor:
#      x y z
#    x 2.128830 0.000000 0.000000 
#    y 0.000000 2.168210 0.000000 
#    z 0.000000 0.000000 2.286790 
# 
# From -- ./inp_files/36190.got.cif
#   From: 2010.05.17/outbox.cif.g08.bks.cpg/sg63_19_cif.got.tgz:36190.got - 2010.06.03 15:47:04.
