data_PCOD9474322
_publ_section_title
;
Structure prediction by ZEFSAII (Michael W. Deem and Ramdas Pophale) SiO2 
 PCOD9474322
Probable space group: C M C M
;
_chemical_formula_sum "Si O2"
_cell_formula_units_Z 96
_cell_length_a 20.504362
_cell_length_b 28.376092
_cell_length_c 8.719840
_cell_angle_alpha 90.000000
_cell_angle_beta 90.000000
_cell_angle_gamma 90.000000
_cell_volume 5073.496444
_symmetry_space_group_name_H-M "C M C M"
_symmetry_group_IT_number 63
_symmetry_cell_setting 'orthorhombic'
loop_
_space_group_symop_operation_xyz
x,y,z
-x,-y,1/2+z
x,-y,-z
-x,y,1/2-z
-x,-y,-z
x,y,1/2-z
-x,y,z
x,-y,1/2+z
1/2+x,1/2+y,z
1/2-x,1/2-y,1/2+z
1/2+x,1/2-y,-z
1/2-x,1/2+y,1/2-z
1/2-x,1/2-y,-z
1/2+x,1/2+y,1/2-z
1/2-x,1/2+y,z
1/2+x,1/2-y,1/2+z
loop_
_atom_site_type_symbol
_atom_site_label
_atom_site_fract_x
_atom_site_fract_y
_atom_site_fract_z
Si Si1 0.700052 0.550993 0.432442
Si Si2 0.812174 0.616551 0.565889
Si Si3 0.575499 0.701695 0.066104
Si Si4 0.076276 0.448226 0.932903
Si Si5 0.313954 0.774649 0.064966
Si Si6 0.924270 0.901375 0.433090
O O1 0.717687 0.500000 0.500000
O O2 0.703969 0.549608 0.250000
O O3 0.749740 0.590026 0.496535
O O4 0.627443 0.565006 0.485687
O O5 0.807881 0.614814 0.750000
O O6 0.875972 0.588954 0.509968
O O7 0.816030 0.670974 0.516104
O O8 0.582156 0.694417 0.250000
O O9 0.500000 0.713540 0.034914
O O10 0.623694 0.743412 0.018665
O O11 0.590442 0.652372 0.983514
O O12 0.086272 0.448794 0.750000
O O13 0.000000 0.437902 0.963475
O O14 0.090261 0.500000 0.000000
O O15 0.311537 0.774211 0.250000
O O16 0.250000 0.750000 0.000000
O O17 0.917797 0.905699 0.250000
O O18 0.000000 0.910758 0.474815
#
# Coordination Sequence:
#
# PCOD9474322 Si02
#       6
#    16  16  16  16  16  16
#     4  12  25  41  61  84 113 149 190 235 284 338
#     4  11  23  39  59  85 117 151 190 236 287 339
#     4   9  18  35  58  83 112 148 190 231 274 328
#     4  10  21  38  60  86 116 151 191 234 282 337
#     4  10  22  37  56  82 112 148 187 232 282 333
#     4  10  21  38  60  87 118 150 186 230 281 336
#
# _framework density 18.921863999999999
#
# number of rings (size 3 to 8) (size 9 to 14) (size 15 to 20)
#    0.000    1.667    0.000    4.500    0.000    7.667 
#    0.000    1.667    0.000    2.000    0.000    0.000 
#    0.000    0.000    0.000    0.000    0.000    0.000 
#
# Total GULP energy -268340.370344 kJ/mol
# GULP energy per Si atom -5590.424382 kJ/mol
# Density = 1.887880 g / cm^3
# Si number density = 18.921864 Si / 1000 Ang^3
#
#
#
# Elastic Constant Matrix: (Units=GPa)
#
#
# Indices 1 2 3 4 5 6 
#
# 1 59.0219 26.8365 28.1758 0.0000 0.0000 0.0000
# 2 26.8365 49.9507 20.8372 0.0000 0.0000 0.0000
# 3 28.1758 20.8372 61.2921 0.0000 0.0000 0.0000
# 4 0.0000 0.0000 0.0000 20.8556 0.0000 0.0000
# 5 0.0000 0.0000 0.0000 0.0000 35.8659 0.0000
# 6 0.0000 0.0000 0.0000 0.0000 0.0000 21.4302
#
#
#
# Elastic Compliance Matrix: (Units=1/GPa)
#
#
# Indices 1 2 3 4 5 6 
#
# 1 0.025561 -0.010291 -0.008252 0.000000 0.000000 0.000000
# 2 -0.010291 0.027471 -0.004609 0.000000 0.000000 0.000000
# 3 -0.008252 -0.004609 0.021675 0.000000 0.000000 0.000000
# 4 0.000000 0.000000 0.000000 0.047949 0.000000 0.000000
# 5 0.000000 0.000000 0.000000 0.000000 0.027882 0.000000
# 6 0.000000 0.000000 0.000000 0.000000 0.000000 0.046663
#
#
# Mechanical properties :
#
#
# Convention : Reuss Voigt Hill
#
# Bulk Modulus (GPa) = 35.20475 35.77375 35.48925
# Shear Modulus (GPa) = 19.76503 21.92468 20.84486
#
# Velocity S-wave (km/s) = 3.23547 3.40765 3.32268
# Velocity P-wave (km/s) = 5.70994 5.86770 5.78936
#
# Compressibility (1/GPa) = 0.02840526
#
# Stress axis : x y z
#
# Youngs Moduli (GPa) = 39.12180 36.40201 46.13514
#
# Poissons Ratio (x) = 0.37460 0.38070
# Poissons Ratio (y) = 0.40259 0.21262
# Poissons Ratio (z) = 0.32283 0.16776
#
# Static dielectric constant tensor:
#      x y z
#    x 1.651070 0.000000 0.000000 
#    y 0.000000 1.627070 0.000000 
#    z 0.000000 0.000000 1.632160 
# 
# From -- ./inp_files/8542.got.cif
#   From: 2010.05.17/outbox.cif.g08.bks.cpg/sg63_5_cif.got.tgz:8542.got - 2010.06.03 15:47:04.
