data_PCOD9474978
_publ_section_title
;
Structure prediction by ZEFSAII (Michael W. Deem and Ramdas Pophale) SiO2 
 PCOD9474978
Probable space group: C M C M
;
_chemical_formula_sum "Si O2"
_cell_formula_units_Z 40
_cell_length_a 16.441431
_cell_length_b 11.075250
_cell_length_c 10.176971
_cell_angle_alpha 90.000000
_cell_angle_beta 90.000000
_cell_angle_gamma 90.000000
_cell_volume 1853.154760
_symmetry_space_group_name_H-M "C M C M"
_symmetry_group_IT_number 63
_symmetry_cell_setting 'orthorhombic'
loop_
_space_group_symop_operation_xyz
x,y,z
-x,-y,1/2+z
x,-y,-z
-x,y,1/2-z
-x,-y,-z
x,y,1/2-z
-x,y,z
x,-y,1/2+z
1/2+x,1/2+y,z
1/2-x,1/2-y,1/2+z
1/2+x,1/2-y,-z
1/2-x,1/2+y,1/2-z
1/2-x,1/2-y,-z
1/2+x,1/2+y,1/2-z
1/2-x,1/2+y,z
1/2+x,1/2-y,1/2+z
loop_
_atom_site_type_symbol
_atom_site_label
_atom_site_fract_x
_atom_site_fract_y
_atom_site_fract_z
Si Si1 0.187408 0.582828 0.750000
Si Si2 0.201393 0.319063 0.750000
Si Si3 0.500000 0.607353 0.398313
Si Si4 0.908220 0.672303 0.507835
O O1 0.235866 0.456394 0.750000
O O2 0.240279 0.704153 0.750000
O O3 0.131581 0.589801 0.880119
O O4 0.146674 0.312466 0.619283
O O5 0.500000 0.500000 0.500000
O O6 0.500000 0.563383 0.250000
O O7 0.423964 0.696644 0.424856
O O8 0.000000 0.633876 0.471456
#
# Coordination Sequence:
#
# PCOD9474978 Si02
#       4
#     8   8   8  16
#     4  12  25  47  66 100 142 191 228 295 353 423
#     4  12  27  41  72 100 142 187 236 285 359 423
#     4  10  22  40  69 103 142 178 224 286 352 410
#     4  10  23  45  68 102 135 174 241 294 347 408
#
# _framework density 21.584813
#
# number of rings (size 3 to 8) (size 9 to 14) (size 15 to 20)
#    1.200    0.000    2.000    3.600    2.800    8.000 
#    0.000    0.000    0.000    0.000    0.000    0.000 
#    0.000    0.000    0.000    0.000    0.000    0.000 
#
# Total GULP energy -111716.068259 kJ/mol
# GULP energy per Si atom -5585.803413 kJ/mol
# Density = 2.153568 g / cm^3
# Si number density = 21.584813 Si / 1000 Ang^3
#
#
#
# Elastic Constant Matrix: (Units=GPa)
#
#
# Indices 1 2 3 4 5 6 
#
# 1 71.2763 36.8650 17.8818 0.0000 0.0000 0.0000
# 2 36.8650 148.6138 19.9746 0.0000 0.0000 0.0000
# 3 17.8818 19.9746 146.9165 0.0000 0.0000 0.0000
# 4 0.0000 0.0000 0.0000 36.6872 0.0000 0.0000
# 5 0.0000 0.0000 0.0000 0.0000 34.9821 0.0000
# 6 0.0000 0.0000 0.0000 0.0000 0.0000 23.0302
#
#
#
# Elastic Compliance Matrix: (Units=1/GPa)
#
#
# Indices 1 2 3 4 5 6 
#
# 1 0.016401 -0.003871 -0.001470 0.000000 0.000000 0.000000
# 2 -0.003871 0.007768 -0.000585 0.000000 0.000000 0.000000
# 3 -0.001470 -0.000585 0.007065 0.000000 0.000000 0.000000
# 4 0.000000 0.000000 0.000000 0.027257 0.000000 0.000000
# 5 0.000000 0.000000 0.000000 0.000000 0.028586 0.000000
# 6 0.000000 0.000000 0.000000 0.000000 0.000000 0.043421
#
#
# Mechanical properties :
#
#
# Convention : Reuss Voigt Hill
#
# Bulk Modulus (GPa) = 51.59409 57.36105 54.47757
# Shear Modulus (GPa) = 33.59988 38.41225 36.00607
#
# Velocity S-wave (km/s) = 3.94971 4.22310 4.08869
# Velocity P-wave (km/s) = 6.68993 7.10013 6.89808
#
# Compressibility (1/GPa) = 0.01938206
#
# Stress axis : x y z
#
# Youngs Moduli (GPa) = 60.97304 128.73901 141.54223
#
# Poissons Ratio (x) = 0.49832 0.20806
# Poissons Ratio (y) = 0.23601 0.08280
# Poissons Ratio (z) = 0.08963 0.07531
#
# Static dielectric constant tensor:
#      x y z
#    x 1.775330 0.000000 0.000000 
#    y 0.000000 1.843560 0.000000 
#    z 0.000000 0.000000 1.727330 
# 
# From -- ./inp_files/5161.got.cif
#   From: 2010.05.17/outbox.cif.g08.bks.cpg/sg63_3_cif.got.tgz:5161.got - 2010.06.03 15:47:04.
