data_PCOD9474669
_publ_section_title
;
Structure prediction by ZEFSAII (Michael W. Deem and Ramdas Pophale) SiO2 
 PCOD9474669
Probable space group: C M C M
;
_chemical_formula_sum "Si O2"
_cell_formula_units_Z 104
_cell_length_a 8.435437
_cell_length_b 26.392714
_cell_length_c 22.836414
_cell_angle_alpha 90.000000
_cell_angle_beta 90.000000
_cell_angle_gamma 90.000000
_cell_volume 5084.163935
_symmetry_space_group_name_H-M "C M C M"
_symmetry_group_IT_number 63
_symmetry_cell_setting 'orthorhombic'
loop_
_space_group_symop_operation_xyz
x,y,z
-x,-y,1/2+z
x,-y,-z
-x,y,1/2-z
-x,-y,-z
x,y,1/2-z
-x,y,z
x,-y,1/2+z
1/2+x,1/2+y,z
1/2-x,1/2-y,1/2+z
1/2+x,1/2-y,-z
1/2-x,1/2+y,1/2-z
1/2-x,1/2-y,-z
1/2+x,1/2+y,1/2-z
1/2-x,1/2+y,z
1/2+x,1/2-y,1/2+z
loop_
_atom_site_type_symbol
_atom_site_label
_atom_site_fract_x
_atom_site_fract_y
_atom_site_fract_z
Si Si1 0.000000 0.122509 0.681873
Si Si2 0.000000 0.013747 0.873104
Si Si3 0.500000 0.586752 0.184083
Si Si4 0.319584 0.177961 0.860049
Si Si5 0.742793 0.868989 0.597332
Si Si6 0.830009 0.481635 0.933330
Si Si7 0.676356 0.778634 0.817590
Si Si8 0.683015 0.694973 0.983382
O O1 0.000000 0.071607 0.644208
O O2 0.832160 0.150197 0.668422
O O3 0.000000 0.110223 0.750000
O O4 0.164374 0.001191 0.906590
O O5 0.000000 0.973929 0.819687
O O6 0.500000 0.604674 0.250000
O O7 0.643130 0.607947 0.146423
O O8 0.500000 0.161305 0.846066
O O9 0.298548 0.236613 0.840208
O O10 0.287902 0.174905 0.929698
O O11 0.666859 0.920528 0.572514
O O12 0.666917 0.824306 0.636135
O O13 0.810492 0.840647 0.540305
O O14 0.000000 0.499865 0.906978
O O15 0.828300 0.500000 0.000000
O O16 0.711044 0.793937 0.750000
O O17 0.500000 0.755093 0.816663
O O18 0.500000 0.699378 0.963723
O O19 0.750000 0.750000 0.000000
#
# Coordination Sequence:
#
# PCOD9474669 Si02
#       8
#     8   8   8  16  16  16  16  16
#     4  12  27  50  74 100 138 186 233 292 358 415
#     4  10  24  44  72 100 136 173 229 293 349 411
#     4  10  21  42  68 102 136 176 234 289 346 416
#     4  12  27  45  68  99 136 186 238 289 344 417
#     4  11  23  39  65 100 136 183 228 283 349 412
#     4  10  23  42  68 101 138 178 226 280 345 419
#     4  11  23  41  64  94 136 185 232 283 341 408
#     4  12  24  41  64  97 141 183 232 286 347 417
#
# _framework density 20.455673000000001
#
# number of rings (size 3 to 8) (size 9 to 14) (size 15 to 20)
#    0.000    0.923    3.846    2.308    3.231    3.692 
#    0.000    0.000    0.000    8.769    0.000    0.000 
#    0.000    0.000    0.000    0.000    0.000    0.000 
#
# Total GULP energy -289861.742725 kJ/mol
# GULP energy per Si atom -5574.264283 kJ/mol
# Density = 2.040911 g / cm^3
# Si number density = 20.455673 Si / 1000 Ang^3
#
#
#
# Elastic Constant Matrix: (Units=GPa)
#
#
# Indices 1 2 3 4 5 6 
#
# 1 165.2019 55.6262 32.0269 0.0000 0.0000 0.0000
# 2 55.6262 102.5329 27.5791 0.0000 0.0000 0.0000
# 3 32.0269 27.5791 102.9981 0.0000 0.0000 0.0000
# 4 0.0000 0.0000 0.0000 22.8607 0.0000 0.0000
# 5 0.0000 0.0000 0.0000 0.0000 16.6739 0.0000
# 6 0.0000 0.0000 0.0000 0.0000 0.0000 9.3023
#
#
#
# Elastic Compliance Matrix: (Units=1/GPa)
#
#
# Indices 1 2 3 4 5 6 
#
# 1 0.007577 -0.003747 -0.001353 0.000000 0.000000 0.000000
# 2 -0.003747 0.012363 -0.002145 0.000000 0.000000 0.000000
# 3 -0.001353 -0.002145 0.010704 0.000000 0.000000 0.000000
# 4 0.000000 0.000000 0.000000 0.043743 0.000000 0.000000
# 5 0.000000 0.000000 0.000000 0.000000 0.059974 0.000000
# 6 0.000000 0.000000 0.000000 0.000000 0.000000 0.107500
#
#
# Mechanical properties :
#
#
# Convention : Reuss Voigt Hill
#
# Bulk Modulus (GPa) = 61.90393 66.79970 64.35181
# Shear Modulus (GPa) = 19.10326 26.80075 22.95200
#
# Velocity S-wave (km/s) = 3.05927 3.62358 3.35331
# Velocity P-wave (km/s) = 6.54271 7.08758 6.82059
#
# Compressibility (1/GPa) = 0.01615406
#
# Stress axis : x y z
#
# Youngs Moduli (GPa) = 131.97685 80.88825 93.42323
#
# Poissons Ratio (x) = 0.30308 0.12638
# Poissons Ratio (y) = 0.49450 0.20041
# Poissons Ratio (z) = 0.17854 0.17352
#
# Static dielectric constant tensor:
#      x y z
#    x 1.781280 0.000000 0.000000 
#    y 0.000000 1.717210 0.000000 
#    z 0.000000 0.000000 1.702350 
# 
# From -- ./inp_files/51544.got.cif
#   From: 2010.05.17/outbox.cif.g08.bks.cpg/sg63_26_cif.got.tgz:51544.got - 2010.06.03 15:47:04.
