data_PCOD9474994
_publ_section_title
;
Structure prediction by ZEFSAII (Michael W. Deem and Ramdas Pophale) SiO2 
 PCOD9474994
Probable space group: C M C M
;
_chemical_formula_sum "Si O2"
_cell_formula_units_Z 96
_cell_length_a 20.814171
_cell_length_b 23.387599
_cell_length_c 9.323860
_cell_angle_alpha 90.000000
_cell_angle_beta 90.000000
_cell_angle_gamma 90.000000
_cell_volume 4538.794302
_symmetry_space_group_name_H-M "C M C M"
_symmetry_group_IT_number 63
_symmetry_cell_setting 'orthorhombic'
loop_
_space_group_symop_operation_xyz
x,y,z
-x,-y,1/2+z
x,-y,-z
-x,y,1/2-z
-x,-y,-z
x,y,1/2-z
-x,y,z
x,-y,1/2+z
1/2+x,1/2+y,z
1/2-x,1/2-y,1/2+z
1/2+x,1/2-y,-z
1/2-x,1/2+y,1/2-z
1/2-x,1/2-y,-z
1/2+x,1/2+y,1/2-z
1/2-x,1/2+y,z
1/2+x,1/2-y,1/2+z
loop_
_atom_site_type_symbol
_atom_site_label
_atom_site_fract_x
_atom_site_fract_y
_atom_site_fract_z
Si Si1 0.608219 0.280187 0.585074
Si Si2 0.698423 0.445508 0.419110
Si Si3 0.759203 0.839427 0.911224
Si Si4 0.077695 0.443357 0.085484
Si Si5 0.572014 0.411287 0.580918
Si Si6 0.109312 0.671807 0.086879
O O1 0.598091 0.262898 0.750000
O O2 0.684618 0.293270 0.565729
O O3 0.576866 0.342389 0.563914
O O4 0.583804 0.229764 0.484670
O O5 0.727011 0.500000 0.500000
O O6 0.699173 0.452502 0.250000
O O7 0.733561 0.388391 0.471056
O O8 0.626216 0.437400 0.480297
O O9 0.772841 0.863404 0.750000
O O10 0.686388 0.819610 0.910539
O O11 0.101371 0.443502 0.250000
O O12 0.000000 0.445675 0.089748
O O13 0.099793 0.500000 0.000000
O O14 0.095519 0.385007 0.004113
O O15 0.584684 0.423465 0.750000
O O16 0.500000 0.429899 0.546654
O O17 0.086731 0.664119 0.250000
#
# Coordination Sequence:
#
# PCOD9474994 Si02
#       6
#    16  16  16  16  16  16
#     4   9  18  34  55  80 113 148 181 221 270 321
#     4  11  22  36  56  80 108 143 183 228 276 324
#     4   9  20  38  56  78 111 147 182 223 272 322
#     4  10  22  41  62  82 108 142 179 222 272 323
#     4   9  19  37  58  79 108 146 185 227 275 323
#     4  11  22  35  57  87 114 143 181 222 265 321
#
# _framework density 21.150993
#
# number of rings (size 3 to 8) (size 9 to 14) (size 15 to 20)
#    0.000    2.167    0.000    4.000    0.000    7.000 
#    0.000    1.667    0.000    0.000    0.000    0.000 
#    0.000    0.000    0.000    0.000    0.000    0.000 
#
# Total GULP energy -268159.940492 kJ/mol
# GULP energy per Si atom -5586.665427 kJ/mol
# Density = 2.110285 g / cm^3
# Si number density = 21.150993 Si / 1000 Ang^3
#
#
#
# Elastic Constant Matrix: (Units=GPa)
#
#
# Indices 1 2 3 4 5 6 
#
# 1 39.4432 -13.9109 -0.0607 0.0000 0.0000 0.0000
# 2 -13.9109 102.1615 84.9318 0.0000 0.0000 0.0000
# 3 -0.0607 84.9318 165.2680 0.0000 0.0000 0.0000
# 4 0.0000 0.0000 0.0000 40.8160 0.0000 0.0000
# 5 0.0000 0.0000 0.0000 0.0000 13.2184 0.0000
# 6 0.0000 0.0000 0.0000 0.0000 0.0000 0.3477
#
#
#
# Elastic Compliance Matrix: (Units=1/GPa)
#
#
# Indices 1 2 3 4 5 6 
#
# 1 0.027662 0.006561 -0.003362 0.000000 0.000000 0.000000
# 2 0.006561 0.018646 -0.009580 0.000000 0.000000 0.000000
# 3 -0.003362 -0.009580 0.010973 0.000000 0.000000 0.000000
# 4 0.000000 0.000000 0.000000 0.024500 0.000000 0.000000
# 5 0.000000 0.000000 0.000000 0.000000 0.075652 0.000000
# 6 0.000000 0.000000 0.000000 0.000000 0.000000 2.876265
#
#
# Mechanical properties :
#
#
# Convention : Reuss Voigt Hill
#
# Bulk Modulus (GPa) = 22.46175 49.86591 36.16383
# Shear Modulus (GPa) = 1.63329 26.60390 14.11860
#
# Velocity S-wave (km/s) = 0.87971 3.55041 2.58643
# Velocity P-wave (km/s) = 3.41681 6.35881 5.10437
#
# Compressibility (1/GPa) = 0.04452013
#
# Stress axis : x y z
#
# Youngs Moduli (GPa) = 36.15086 53.63056 91.13545
#
# Poissons Ratio (x) = -0.35189 0.30638
# Poissons Ratio (y) = -0.23720 0.87307
# Poissons Ratio (z) = 0.12153 0.51377
#
# Static dielectric constant tensor:
#      x y z
#    x 1.790310 0.000000 0.000000 
#    y 0.000000 1.753770 0.000000 
#    z 0.000000 0.000000 1.735590 
# 
# From -- ./inp_files/10498.got.cif
#   From: 2010.05.17/outbox.cif.g08.bks.cpg/sg63_6_cif.got.tgz:10498.got - 2010.06.03 15:47:04.
