data_PCOD9474212
_publ_section_title
;
Structure prediction by ZEFSAII (Michael W. Deem and Ramdas Pophale) SiO2 
 PCOD9474212
Probable space group: C M C M
;
_chemical_formula_sum "Si O2"
_cell_formula_units_Z 80
_cell_length_a 13.568329
_cell_length_b 11.639855
_cell_length_c 22.022082
_cell_angle_alpha 90.000000
_cell_angle_beta 90.000000
_cell_angle_gamma 90.000000
_cell_volume 3478.021892
_symmetry_space_group_name_H-M "C M C M"
_symmetry_group_IT_number 63
_symmetry_cell_setting 'orthorhombic'
loop_
_space_group_symop_operation_xyz
x,y,z
-x,-y,1/2+z
x,-y,-z
-x,y,1/2-z
-x,-y,-z
x,y,1/2-z
-x,y,z
x,-y,1/2+z
1/2+x,1/2+y,z
1/2-x,1/2-y,1/2+z
1/2+x,1/2-y,-z
1/2-x,1/2+y,1/2-z
1/2-x,1/2-y,-z
1/2+x,1/2+y,1/2-z
1/2-x,1/2+y,z
1/2+x,1/2-y,1/2+z
loop_
_atom_site_type_symbol
_atom_site_label
_atom_site_fract_x
_atom_site_fract_y
_atom_site_fract_z
Si Si1 0.604837 0.329553 0.136705
Si Si2 0.182409 0.281960 0.319221
Si Si3 0.389351 0.037093 0.584629
Si Si4 0.366594 0.248501 0.495916
Si Si5 0.171010 0.927820 0.589092
O O1 0.500000 0.313793 0.167544
O O2 0.699963 0.301402 0.176059
O O3 0.619255 0.458573 0.112703
O O4 0.605823 0.257969 0.073832
O O5 0.150389 0.272924 0.250000
O O6 0.131418 0.387292 0.354796
O O7 0.166369 0.167467 0.358245
O O8 0.500000 0.984871 0.588754
O O9 0.395975 0.133548 0.531386
O O10 0.286626 0.965061 0.576526
O O11 0.250000 0.250000 0.500000
O O12 0.385219 0.366095 0.533303
#
# Coordination Sequence:
#
# PCOD9474212 Si02
#       5
#    16  16  16  16  16
#     4  11  23  38  62  90 119 153 196 243 293 349
#     4  10  23  43  62  80 116 158 198 248 298 343
#     4  10  22  39  62  90 119 154 198 240 290 351
#     4  11  19  38  60  88 124 158 186 230 291 355
#     4  10  21  37  61  88 122 152 195 238 294 346
#
# _framework density 23.001579
#
# number of rings (size 3 to 8) (size 9 to 14) (size 15 to 20)
#    0.000    1.600    6.000    1.200    0.000    9.600 
#    0.000    1.000    0.000    0.000    0.000    0.000 
#    0.000    0.000    0.000    0.000    0.000    0.000 
#
# Total GULP energy -223497.956371 kJ/mol
# GULP energy per Si atom -5587.448909 kJ/mol
# Density = 2.294923 g / cm^3
# Si number density = 23.001579 Si / 1000 Ang^3
#
#
#
# Elastic Constant Matrix: (Units=GPa)
#
#
# Indices 1 2 3 4 5 6 
#
# 1 135.7067 1.5949 4.0040 0.0000 0.0000 0.0000
# 2 1.5949 95.4627 19.6590 0.0000 0.0000 0.0000
# 3 4.0040 19.6590 95.9739 0.0000 0.0000 0.0000
# 4 0.0000 0.0000 0.0000 10.8313 0.0000 0.0000
# 5 0.0000 0.0000 0.0000 0.0000 -3.7938 0.0000
# 6 0.0000 0.0000 0.0000 0.0000 0.0000 -17.2796
#
#
#
# Elastic Compliance Matrix: (Units=1/GPa)
#
#
# Indices 1 2 3 4 5 6 
#
# 1 0.007378 -0.000063 -0.000295 0.000000 0.000000 0.000000
# 2 -0.000063 0.010937 -0.002238 0.000000 0.000000 0.000000
# 3 -0.000295 -0.002238 0.010890 0.000000 0.000000 0.000000
# 4 0.000000 0.000000 0.000000 0.092325 0.000000 0.000000
# 5 0.000000 0.000000 0.000000 0.000000 -0.263586 0.000000
# 6 0.000000 0.000000 0.000000 0.000000 0.000000 -0.057872
#
#
# Mechanical properties :
#
#
# Convention : Reuss Voigt Hill
#
# Bulk Modulus (GPa) = 41.64048 41.96214 41.80131
# Shear Modulus (GPa) = -26.77647 18.07725 -4.34961
#
# Velocity S-wave (km/s) = -3.41561 2.80646 -1.37663
# Velocity P-wave (km/s) = 1.60854 5.36511 3.96054
#
# Compressibility (1/GPa) = 0.02401509
#
# Stress axis : x y z
#
# Youngs Moduli (GPa) = 135.53310 91.43132 91.82589
#
# Poissons Ratio (x) = 0.00572 0.02709
# Poissons Ratio (y) = 0.00847 0.20548
# Poissons Ratio (z) = 0.03998 0.20460
#
# Static dielectric constant tensor:
#      x y z
#    x 1.907200 0.000000 0.000000 
#    y 0.000000 1.891050 0.000000 
#    z 0.000000 0.000000 1.834910 
# 
# From -- ./inp_files/53972.got.cif
#   From: 2010.05.17/outbox.cif.g08.bks.cpg/sg63_27_cif.got.tgz:53972.got - 2010.06.03 15:47:04.
