data_PCOD9474856
_publ_section_title
;
Structure prediction by ZEFSAII (Michael W. Deem and Ramdas Pophale) SiO2 
 PCOD9474856
Probable space group: C M C M
;
_chemical_formula_sum "Si O2"
_cell_formula_units_Z 60
_cell_length_a 16.476723
_cell_length_b 22.318023
_cell_length_c 9.018618
_cell_angle_alpha 90.000000
_cell_angle_beta 90.000000
_cell_angle_gamma 90.000000
_cell_volume 3316.397304
_symmetry_space_group_name_H-M "C M C M"
_symmetry_group_IT_number 63
_symmetry_cell_setting 'orthorhombic'
loop_
_space_group_symop_operation_xyz
x,y,z
-x,-y,1/2+z
x,-y,-z
-x,y,1/2-z
-x,-y,-z
x,y,1/2-z
-x,y,z
x,-y,1/2+z
1/2+x,1/2+y,z
1/2-x,1/2-y,1/2+z
1/2+x,1/2-y,-z
1/2-x,1/2+y,1/2-z
1/2-x,1/2-y,-z
1/2+x,1/2+y,1/2-z
1/2-x,1/2+y,z
1/2+x,1/2-y,1/2+z
loop_
_atom_site_type_symbol
_atom_site_label
_atom_site_fract_x
_atom_site_fract_y
_atom_site_fract_z
Si Si1 0.623675 0.954030 0.250000
Si Si2 0.206195 0.325312 0.250000
Si Si3 0.500000 0.000000 0.000000
Si Si4 0.678391 0.630267 0.998345
Si Si5 0.404148 0.450601 0.250000
Si Si6 0.770442 0.046957 0.250000
Si Si7 0.595811 0.292280 0.750000
O O1 0.652948 0.885748 0.250000
O O2 0.570353 0.970361 0.392569
O O3 0.703196 0.995960 0.250000
O O4 0.264669 0.329601 0.393336
O O5 0.148998 0.267945 0.250000
O O6 0.732912 0.588583 0.105230
O O7 0.622237 0.669345 0.106172
O O8 0.626232 0.587229 0.891903
O O9 0.500000 0.458130 0.250000
O O10 0.357180 0.513528 0.250000
O O11 0.500000 0.280593 0.750000
#
# Coordination Sequence:
#
# PCOD9474856 Si02
#       7
#     8   8   4  16   8   8   8
#     4  11  21  39  59  93 119 161 195 251 308 359
#     4  11  22  40  66  85 120 164 213 240 308 366
#     4  10  24  34  60  86 126 150 200 254 296 354
#     4  10  22  39  61  87 119 162 203 248 298 364
#     4  11  22  35  59  93 125 160 197 246 306 366
#     4  11  21  37  62  89 123 161 193 243 306 380
#     4  11  24  40  60  87 120 159 208 265 298 349
#
# _framework density 18.091920999999999
#
# number of rings (size 3 to 8) (size 9 to 14) (size 15 to 20)
#    0.000    1.333    2.667    4.000    1.867    4.267 
#    0.000    0.000    0.000    0.000    0.000    0.000 
#    0.000    0.000    0.000    0.000    0.000    0.000 
#
# Total GULP energy -167119.172151 kJ/mol
# GULP energy per Si atom -5570.639072 kJ/mol
# Density = 1.805074 g / cm^3
# Si number density = 18.091921 Si / 1000 Ang^3
#
#
#
# Elastic Constant Matrix: (Units=GPa)
#
#
# Indices 1 2 3 4 5 6 
#
# 1 71.8739 16.2024 27.2460 0.0000 0.0000 0.0000
# 2 16.2024 62.8379 30.0146 0.0000 0.0000 0.0000
# 3 27.2460 30.0146 110.8386 0.0000 0.0000 0.0000
# 4 0.0000 0.0000 0.0000 -3.0626 0.0000 0.0000
# 5 0.0000 0.0000 0.0000 0.0000 13.8434 0.0000
# 6 0.0000 0.0000 0.0000 0.0000 0.0000 31.0909
#
#
#
# Elastic Compliance Matrix: (Units=1/GPa)
#
#
# Indices 1 2 3 4 5 6 
#
# 1 0.015686 -0.002530 -0.003171 0.000000 0.000000 0.000000
# 2 -0.002530 0.018686 -0.004438 0.000000 0.000000 0.000000
# 3 -0.003171 -0.004438 0.011003 0.000000 0.000000 0.000000
# 4 0.000000 0.000000 0.000000 -0.326523 0.000000 0.000000
# 5 0.000000 0.000000 0.000000 0.000000 0.072237 0.000000
# 6 0.000000 0.000000 0.000000 0.000000 0.000000 0.032164
#
#
# Mechanical properties :
#
#
# Convention : Reuss Voigt Hill
#
# Bulk Modulus (GPa) = 39.84474 43.60848 41.72661
# Shear Modulus (GPa) = -33.76007 19.84684 -6.95662
#
# Velocity S-wave (km/s) = -4.32444 3.31569 -1.96303
# Velocity P-wave (km/s) = 1.69207 6.23014 4.23978
#
# Compressibility (1/GPa) = 0.02509742
#
# Stress axis : x y z
#
# Youngs Moduli (GPa) = 63.75314 53.51541 90.88111
#
# Poissons Ratio (x) = 0.13539 0.28815
# Poissons Ratio (y) = 0.16129 0.40335
# Poissons Ratio (z) = 0.20214 0.23751
#
# Static dielectric constant tensor:
#      x y z
#    x 1.641020 0.000000 0.000000 
#    y 0.000000 1.587370 0.000000 
#    z 0.000000 0.000000 1.630490 
# 
# From -- ./inp_files/5822.got.cif
#   From: 2010.05.17/outbox.cif.g08.bks.cpg/sg63_3_cif.got.tgz:5822.got - 2010.06.03 15:47:04.
