data_PCOD9474305
_publ_section_title
;
Structure prediction by ZEFSAII (Michael W. Deem and Ramdas Pophale) SiO2 
 PCOD9474305
Probable space group: C M C M
;
_chemical_formula_sum "Si O2"
_cell_formula_units_Z 56
_cell_length_a 23.910115
_cell_length_b 4.933806
_cell_length_c 18.240711
_cell_angle_alpha 90.000000
_cell_angle_beta 90.000000
_cell_angle_gamma 90.000000
_cell_volume 2151.817803
_symmetry_space_group_name_H-M "C M C M"
_symmetry_group_IT_number 63
_symmetry_cell_setting 'orthorhombic'
loop_
_space_group_symop_operation_xyz
x,y,z
-x,-y,1/2+z
x,-y,-z
-x,y,1/2-z
-x,-y,-z
x,y,1/2-z
-x,y,z
x,-y,1/2+z
1/2+x,1/2+y,z
1/2-x,1/2-y,1/2+z
1/2+x,1/2-y,-z
1/2-x,1/2+y,1/2-z
1/2-x,1/2-y,-z
1/2+x,1/2+y,1/2-z
1/2-x,1/2+y,z
1/2+x,1/2-y,1/2+z
loop_
_atom_site_type_symbol
_atom_site_label
_atom_site_fract_x
_atom_site_fract_y
_atom_site_fract_z
Si Si1 0.210348 0.837221 0.587089
Si Si2 0.935688 0.872100 0.334953
Si Si3 0.785430 0.928712 0.750000
Si Si4 0.095895 0.614448 0.573264
O O1 0.260164 0.623342 0.575789
O O2 0.189835 0.843507 0.672445
O O3 0.154915 0.741438 0.547342
O O4 0.920234 0.919891 0.250000
O O5 0.898297 0.641281 0.372537
O O6 0.000000 0.771223 0.336017
O O7 0.933333 0.144377 0.382702
O O8 0.728109 0.747387 0.750000
O O9 0.067226 0.500000 0.500000
#
# Coordination Sequence:
#
# PCOD9474305 Si02
#       4
#    16  16   8  16
#     4  10  21  38  59  93 134 178 222 271 325 393
#     4  11  26  48  73 100 133 176 227 286 347 407
#     4   8  16  30  50  78 113 156 213 258 306 356
#     4  12  26  43  70 105 138 181 226 276 344 405
#
# _framework density 26.024507
#
# number of rings (size 3 to 8) (size 9 to 14) (size 15 to 20)
#    0.000    1.429    0.000    4.286    4.000    6.857 
#    5.143    0.000    0.000    0.000    0.000    0.000 
#    0.000    0.000    0.000    0.000    0.000    0.000 
#
# Total GULP energy -156872.896974 kJ/mol
# GULP energy per Si atom -5602.603463 kJ/mol
# Density = 2.596527 g / cm^3
# Si number density = 26.024507 Si / 1000 Ang^3
#
#
#
# Elastic Constant Matrix: (Units=GPa)
#
#
# Indices 1 2 3 4 5 6 
#
# 1 98.2347 25.7521 31.9367 0.0000 0.0000 0.0000
# 2 25.7521 175.7322 65.0684 0.0000 0.0000 0.0000
# 3 31.9367 65.0684 139.1352 0.0000 0.0000 0.0000
# 4 0.0000 0.0000 0.0000 47.6794 0.0000 0.0000
# 5 0.0000 0.0000 0.0000 0.0000 -2.7638 0.0000
# 6 0.0000 0.0000 0.0000 0.0000 0.0000 33.8254
#
#
#
# Elastic Compliance Matrix: (Units=1/GPa)
#
#
# Indices 1 2 3 4 5 6 
#
# 1 0.011099 -0.000826 -0.002161 0.000000 0.000000 0.000000
# 2 -0.000826 0.006944 -0.003058 0.000000 0.000000 0.000000
# 3 -0.002161 -0.003058 0.009113 0.000000 0.000000 0.000000
# 4 0.000000 0.000000 0.000000 0.020973 0.000000 0.000000
# 5 0.000000 0.000000 0.000000 0.000000 -0.361827 0.000000
# 6 0.000000 0.000000 0.000000 0.000000 0.000000 0.029564
#
#
# Mechanical properties :
#
#
# Convention : Reuss Voigt Hill
#
# Bulk Modulus (GPa) = 66.37590 73.17960 69.77775
# Shear Modulus (GPa) = -18.72507 35.10455 8.18974
#
# Velocity S-wave (km/s) = -2.68529 3.67673 1.77588
# Velocity P-wave (km/s) = 3.99326 6.79742 5.57454
#
# Compressibility (1/GPa) = 0.01506571
#
# Stress axis : x y z
#
# Youngs Moduli (GPa) = 90.09880 144.01516 109.72987
#
# Poissons Ratio (x) = 0.11899 0.23715
# Poissons Ratio (y) = 0.07444 0.33552
# Poissons Ratio (z) = 0.19472 0.44035
#
# Static dielectric constant tensor:
#      x y z
#    x 2.009200 0.000000 0.000000 
#    y 0.000000 1.944780 0.000000 
#    z 0.000000 0.000000 2.128070 
# 
# From -- ./inp_files/57137.got.cif
#   From: 2010.05.17/outbox.cif.g08.bks.cpg/sg63_29_cif.got.tgz:57137.got - 2010.06.03 15:47:04.
