data_PCOD9474875
_publ_section_title
;
Structure prediction by ZEFSAII (Michael W. Deem and Ramdas Pophale) SiO2 
 PCOD9474875
Probable space group: C M C M
;
_chemical_formula_sum "Si O2"
_cell_formula_units_Z 96
_cell_length_a 21.177718
_cell_length_b 8.218584
_cell_length_c 26.648039
_cell_angle_alpha 90.000000
_cell_angle_beta 90.000000
_cell_angle_gamma 90.000000
_cell_volume 4638.113954
_symmetry_space_group_name_H-M "C M C M"
_symmetry_group_IT_number 63
_symmetry_cell_setting 'orthorhombic'
loop_
_space_group_symop_operation_xyz
x,y,z
-x,-y,1/2+z
x,-y,-z
-x,y,1/2-z
-x,-y,-z
x,y,1/2-z
-x,y,z
x,-y,1/2+z
1/2+x,1/2+y,z
1/2-x,1/2-y,1/2+z
1/2+x,1/2-y,-z
1/2-x,1/2+y,1/2-z
1/2-x,1/2-y,-z
1/2+x,1/2+y,1/2-z
1/2-x,1/2+y,z
1/2+x,1/2-y,1/2+z
loop_
_atom_site_type_symbol
_atom_site_label
_atom_site_fract_x
_atom_site_fract_y
_atom_site_fract_z
Si Si1 0.800430 0.300709 0.043324
Si Si2 0.929792 0.123484 0.045763
Si Si3 0.877245 0.046504 0.643951
Si Si4 0.132449 0.389111 0.810811
Si Si5 0.755363 0.547504 0.384996
Si Si6 0.070618 0.729956 0.690387
O O1 0.872674 0.248950 0.034627
O O2 0.791951 0.480578 0.065474
O O3 0.781306 0.201165 0.093027
O O4 0.750000 0.250000 0.000000
O O5 0.000000 0.196145 0.051349
O O6 0.912897 0.010267 0.093619
O O7 0.930407 0.000000 0.000000
O O8 0.896286 0.218190 0.668948
O O9 0.803342 0.063781 0.631482
O O10 0.887214 0.886381 0.677875
O O11 0.137618 0.381968 0.750000
O O12 0.198952 0.417701 0.838897
O O13 0.094324 0.552368 0.826254
O O14 0.067945 0.718659 0.750000
O O15 0.000000 0.760688 0.670913
#
# Coordination Sequence:
#
# PCOD9474875 Si02
#       6
#    16  16  16  16  16  16
#     4  11  21  39  66  94 126 174 216 275 335 404
#     4  10  22  39  63  95 130 171 221 275 338 402
#     4  11  22  41  64  93 130 174 219 271 339 407
#     4  11  24  40  63  96 134 172 219 281 338 405
#     4  11  22  39  58  94 129 159 224 264 329 411
#     4  10  23  42  63  90 124 170 224 270 328 403
#
# _framework density 20.698067999999999
#
# number of rings (size 3 to 8) (size 9 to 14) (size 15 to 20)
#    0.000    1.333    1.667    5.500    0.000    2.667 
#    0.000    1.667    0.000    2.000    0.000    0.000 
#    0.000    0.000    0.000    0.000    0.000    0.000 
#
# Total GULP energy -267486.512518 kJ/mol
# GULP energy per Si atom -5572.635677 kJ/mol
# Density = 2.065096 g / cm^3
# Si number density = 20.698068 Si / 1000 Ang^3
#
#
#
# Elastic Constant Matrix: (Units=GPa)
#
#
# Indices 1 2 3 4 5 6 
#
# 1 139.7834 35.1357 20.7987 0.0000 0.0000 0.0000
# 2 35.1357 101.9613 7.4864 0.0000 0.0000 0.0000
# 3 20.7987 7.4864 59.9515 0.0000 0.0000 0.0000
# 4 0.0000 0.0000 0.0000 36.6285 0.0000 0.0000
# 5 0.0000 0.0000 0.0000 0.0000 16.4823 0.0000
# 6 0.0000 0.0000 0.0000 0.0000 0.0000 -19.9650
#
#
#
# Elastic Compliance Matrix: (Units=1/GPa)
#
#
# Indices 1 2 3 4 5 6 
#
# 1 0.008191 -0.002638 -0.002512 0.000000 0.000000 0.000000
# 2 -0.002638 0.010748 -0.000427 0.000000 0.000000 0.000000
# 3 -0.002512 -0.000427 0.017605 0.000000 0.000000 0.000000
# 4 0.000000 0.000000 0.000000 0.027301 0.000000 0.000000
# 5 0.000000 0.000000 0.000000 0.000000 0.060671 0.000000
# 6 0.000000 0.000000 0.000000 0.000000 0.000000 -0.050088
#
#
# Mechanical properties :
#
#
# Convention : Reuss Voigt Hill
#
# Bulk Modulus (GPa) = 39.38639 47.61533 43.50086
# Shear Modulus (GPa) = 53.16533 22.51417 37.83975
#
# Velocity S-wave (km/s) = 5.07365 3.30167 4.28036
# Velocity P-wave (km/s) = 7.30704 6.13102 6.74471
#
# Compressibility (1/GPa) = 0.02538948
#
# Stress axis : x y z
#
# Youngs Moduli (GPa) = 122.08776 93.03995 56.80202
#
# Poissons Ratio (x) = 0.24545 0.14270
# Poissons Ratio (y) = 0.32208 0.02425
# Poissons Ratio (z) = 0.30671 0.03972
#
# Static dielectric constant tensor:
#      x y z
#    x 1.782960 0.000000 0.000000 
#    y 0.000000 1.839190 0.000000 
#    z 0.000000 0.000000 1.756930 
# 
# From -- ./inp_files/70276.got.cif
#   From: 2010.05.17/outbox.cif.g08.bks.cpg/sg63_36_cif.got.tgz:70276.got - 2010.06.03 15:47:04.
