data_PCOD9474088
_publ_section_title
;
Structure prediction by ZEFSAII (Michael W. Deem and Ramdas Pophale) SiO2 
 PCOD9474088
Probable space group: C M C M
;
_chemical_formula_sum "Si O2"
_cell_formula_units_Z 80
_cell_length_a 7.579854
_cell_length_b 28.599861
_cell_length_c 16.398142
_cell_angle_alpha 90.000000
_cell_angle_beta 90.000000
_cell_angle_gamma 90.000000
_cell_volume 3554.834659
_symmetry_space_group_name_H-M "C M C M"
_symmetry_group_IT_number 63
_symmetry_cell_setting 'orthorhombic'
loop_
_space_group_symop_operation_xyz
x,y,z
-x,-y,1/2+z
x,-y,-z
-x,y,1/2-z
-x,-y,-z
x,y,1/2-z
-x,y,z
x,-y,1/2+z
1/2+x,1/2+y,z
1/2-x,1/2-y,1/2+z
1/2+x,1/2-y,-z
1/2-x,1/2+y,1/2-z
1/2-x,1/2-y,-z
1/2+x,1/2+y,1/2-z
1/2-x,1/2+y,z
1/2+x,1/2-y,1/2+z
loop_
_atom_site_type_symbol
_atom_site_label
_atom_site_fract_x
_atom_site_fract_y
_atom_site_fract_z
Si Si1 0.784732 0.379518 0.750000
Si Si2 0.712276 0.278153 0.083128
Si Si3 0.213746 0.023137 0.841200
Si Si4 0.215548 0.271518 0.750000
Si Si5 0.206837 0.428108 0.584433
Si Si6 0.798229 0.116451 0.583145
O O1 0.731642 0.325607 0.750000
O O2 0.725298 0.405107 0.831941
O O3 0.000000 0.381528 0.750000
O O4 0.500000 0.279858 0.087542
O O5 0.774337 0.253056 0.166130
O O6 0.779894 0.331643 0.080886
O O7 0.750000 0.250000 0.000000
O O8 0.270428 0.009775 0.750000
O O9 0.281087 0.074876 0.862646
O O10 0.000000 0.024090 0.843454
O O11 0.271976 0.983494 0.904022
O O12 0.000000 0.270432 0.750000
O O13 0.298347 0.405580 0.506928
O O14 0.000000 0.417274 0.575769
O O15 0.000000 0.122110 0.612182
#
# Coordination Sequence:
#
# PCOD9474088 Si02
#       6
#     8  16  16   8  16  16
#     4   9  18  32  52  79 109 141 183 231 278 333
#     4  10  21  38  61  87 117 151 196 245 291 344
#     4  10  21  37  57  81 114 150 185 230 283 338
#     4   9  18  34  58  83 109 149 193 235 286 345
#     4  11  21  36  57  82 113 149 191 235 280 336
#     4  10  22  37  56  83 114 148 189 234 284 341
#
# _framework density 22.504562
#
# number of rings (size 3 to 8) (size 9 to 14) (size 15 to 20)
#    0.000    2.000    1.000    2.400    1.400    5.600 
#    0.000    0.500    0.000    3.600    0.000    0.000 
#    0.000    0.000    0.000    0.000    0.000    0.000 
#
# Total GULP energy -223542.590342 kJ/mol
# GULP energy per Si atom -5588.564759 kJ/mol
# Density = 2.245334 g / cm^3
# Si number density = 22.504562 Si / 1000 Ang^3
#
#
#
# Elastic Constant Matrix: (Units=GPa)
#
#
# Indices 1 2 3 4 5 6 
#
# 1 56.2733 -4.8038 -7.5352 0.0000 0.0000 0.0000
# 2 -4.8038 178.0080 51.8798 0.0000 0.0000 0.0000
# 3 -7.5352 51.8798 114.3415 0.0000 0.0000 0.0000
# 4 0.0000 0.0000 0.0000 28.2732 0.0000 0.0000
# 5 0.0000 0.0000 0.0000 0.0000 0.0954 0.0000
# 6 0.0000 0.0000 0.0000 0.0000 0.0000 12.4911
#
#
#
# Elastic Compliance Matrix: (Units=1/GPa)
#
#
# Indices 1 2 3 4 5 6 
#
# 1 0.017933 0.000161 0.001109 0.000000 0.000000 0.000000
# 2 0.000161 0.006475 -0.002927 0.000000 0.000000 0.000000
# 3 0.001109 -0.002927 0.010147 0.000000 0.000000 0.000000
# 4 0.000000 0.000000 0.000000 0.035369 0.000000 0.000000
# 5 0.000000 0.000000 0.000000 0.000000 10.487576 0.000000
# 6 0.000000 0.000000 0.000000 0.000000 0.000000 0.080057
#
#
# Mechanical properties :
#
#
# Convention : Reuss Voigt Hill
#
# Bulk Modulus (GPa) = 32.01097 47.52271 39.76684
# Shear Modulus (GPa) = 0.46943 28.77739 14.62341
#
# Velocity S-wave (km/s) = 0.45721 3.57982 2.55188
# Velocity P-wave (km/s) = 3.81233 6.18463 5.13729
#
# Compressibility (1/GPa) = 0.03123929
#
# Stress axis : x y z
#
# Youngs Moduli (GPa) = 55.76436 154.43436 98.55088
#
# Poissons Ratio (x) = -0.02483 -0.10928
# Poissons Ratio (y) = -0.00897 0.28850
# Poissons Ratio (z) = -0.06183 0.45209
#
# Static dielectric constant tensor:
#      x y z
#    x 1.827880 0.000000 0.000000 
#    y 0.000000 1.814390 0.000000 
#    z 0.000000 0.000000 1.800270 
# 
# From -- ./inp_files/40620.got.cif
#   From: 2010.05.17/outbox.cif.g08.bks.cpg/sg63_21_cif.got.tgz:40620.got - 2010.06.03 15:47:04.
