data_PCOD9474710
_publ_section_title
;
Structure prediction by ZEFSAII (Michael W. Deem and Ramdas Pophale) SiO2 
 PCOD9474710
Probable space group: C M C M
;
_chemical_formula_sum "Si O2"
_cell_formula_units_Z 72
_cell_length_a 25.252606
_cell_length_b 5.348114
_cell_length_c 26.143273
_cell_angle_alpha 90.000000
_cell_angle_beta 90.000000
_cell_angle_gamma 90.000000
_cell_volume 3530.748773
_symmetry_space_group_name_H-M "C M C M"
_symmetry_group_IT_number 63
_symmetry_cell_setting 'orthorhombic'
loop_
_space_group_symop_operation_xyz
x,y,z
-x,-y,1/2+z
x,-y,-z
-x,y,1/2-z
-x,-y,-z
x,y,1/2-z
-x,y,z
x,-y,1/2+z
1/2+x,1/2+y,z
1/2-x,1/2-y,1/2+z
1/2+x,1/2-y,-z
1/2-x,1/2+y,1/2-z
1/2-x,1/2-y,-z
1/2+x,1/2+y,1/2-z
1/2-x,1/2+y,z
1/2+x,1/2-y,1/2+z
loop_
_atom_site_type_symbol
_atom_site_label
_atom_site_fract_x
_atom_site_fract_y
_atom_site_fract_z
Si Si1 0.264115 0.153224 0.597338
Si Si2 0.622309 0.677556 0.836971
Si Si3 0.439709 0.824779 0.189049
Si Si4 0.838664 0.994078 0.555551
Si Si5 0.286855 0.655135 0.750000
O O1 0.244800 0.398911 0.626834
O O2 0.321028 0.217312 0.574827
O O3 0.280355 0.624604 0.553118
O O4 0.583547 0.449396 0.821750
O O5 0.634813 0.624616 0.896446
O O6 0.672434 0.656915 0.798572
O O7 0.596239 0.949591 0.831536
O O8 0.440497 0.857917 0.250000
O O9 0.500000 0.844431 0.169712
O O10 0.863807 0.000000 0.500000
O O11 0.250519 0.403502 0.750000
#
# Coordination Sequence:
#
# PCOD9474710 Si02
#       5
#    16  16  16  16   8
#     4   8  19  32  50  77 114 165 220 248 273 324
#     4  12  25  41  66  97 128 166 214 247 320 389
#     4  11  23  46  72  94 117 151 214 287 321 356
#     4  10  22  36  57  85 125 168 213 251 290 357
#     4  12  26  40  57  92 145 176 198 240 310 382
#
# _framework density 20.392272999999999
#
# number of rings (size 3 to 8) (size 9 to 14) (size 15 to 20)
#    1.333    0.222    2.222    2.667    6.222    1.778 
#    0.000    0.000    0.000    4.000    0.000    0.000 
#    0.000    0.000    0.000    0.000    0.000    0.000 
#
# Total GULP energy -200505.094936 kJ/mol
# GULP energy per Si atom -5569.585970 kJ/mol
# Density = 2.034586 g / cm^3
# Si number density = 20.392273 Si / 1000 Ang^3
#
#
#
# Elastic Constant Matrix: (Units=GPa)
#
#
# Indices 1 2 3 4 5 6 
#
# 1 74.5823 23.4639 32.3226 0.0000 0.0000 0.0000
# 2 23.4639 118.0165 5.0449 0.0000 0.0000 0.0000
# 3 32.3226 5.0449 115.9384 0.0000 0.0000 0.0000
# 4 0.0000 0.0000 0.0000 19.3165 0.0000 0.0000
# 5 0.0000 0.0000 0.0000 0.0000 9.0783 0.0000
# 6 0.0000 0.0000 0.0000 0.0000 0.0000 31.0682
#
#
#
# Elastic Compliance Matrix: (Units=1/GPa)
#
#
# Indices 1 2 3 4 5 6 
#
# 1 0.016276 -0.003048 -0.004405 0.000000 0.000000 0.000000
# 2 -0.003048 0.009060 0.000455 0.000000 0.000000 0.000000
# 3 -0.004405 0.000455 0.009834 0.000000 0.000000 0.000000
# 4 0.000000 0.000000 0.000000 0.051769 0.000000 0.000000
# 5 0.000000 0.000000 0.000000 0.000000 0.110152 0.000000
# 6 0.000000 0.000000 0.000000 0.000000 0.000000 0.032187
#
#
# Mechanical properties :
#
#
# Convention : Reuss Voigt Hill
#
# Bulk Modulus (GPa) = 47.22577 47.80000 47.51288
# Shear Modulus (GPa) = 19.97359 28.40633 24.18996
#
# Velocity S-wave (km/s) = 3.13304 3.73633 3.44791
# Velocity P-wave (km/s) = 6.02469 6.48882 6.26105
#
# Compressibility (1/GPa) = 0.02117488
#
# Stress axis : x y z
#
# Youngs Moduli (GPa) = 61.44082 110.37709 101.69310
#
# Poissons Ratio (x) = 0.33639 0.44795
# Poissons Ratio (y) = 0.18725 -0.04631
# Poissons Ratio (z) = 0.27064 -0.05027
#
# Static dielectric constant tensor:
#      x y z
#    x 1.754500 0.000000 0.000000 
#    y 0.000000 1.868900 0.000000 
#    z 0.000000 0.000000 1.727770 
# 
# From -- ./inp_files/70584.got.cif
#   From: 2010.05.17/outbox.cif.g08.bks.cpg/sg63_36_cif.got.tgz:70584.got - 2010.06.03 15:47:04.
