data_PCOD9474096
_publ_section_title
;
Structure prediction by ZEFSAII (Michael W. Deem and Ramdas Pophale) SiO2 
 PCOD9474096
Probable space group: C M C M
;
_chemical_formula_sum "Si O2"
_cell_formula_units_Z 96
_cell_length_a 9.195084
_cell_length_b 21.520696
_cell_length_c 23.496916
_cell_angle_alpha 90.000000
_cell_angle_beta 90.000000
_cell_angle_gamma 90.000000
_cell_volume 4649.677999
_symmetry_space_group_name_H-M "C M C M"
_symmetry_group_IT_number 63
_symmetry_cell_setting 'orthorhombic'
loop_
_space_group_symop_operation_xyz
x,y,z
-x,-y,1/2+z
x,-y,-z
-x,y,1/2-z
-x,-y,-z
x,y,1/2-z
-x,y,z
x,-y,1/2+z
1/2+x,1/2+y,z
1/2-x,1/2-y,1/2+z
1/2+x,1/2-y,-z
1/2-x,1/2+y,1/2-z
1/2-x,1/2-y,-z
1/2+x,1/2+y,1/2-z
1/2-x,1/2+y,z
1/2+x,1/2-y,1/2+z
loop_
_atom_site_type_symbol
_atom_site_label
_atom_site_fract_x
_atom_site_fract_y
_atom_site_fract_z
Si Si1 0.172163 0.096742 0.581162
Si Si2 0.330269 0.716266 0.379606
Si Si3 0.668222 0.414981 0.817201
Si Si4 0.332068 0.842738 0.981361
Si Si5 0.666542 0.025457 0.415500
Si Si6 0.326510 0.154997 0.816831
O O1 0.242837 0.147310 0.538920
O O2 0.235148 0.108849 0.643996
O O3 0.000000 0.100116 0.579404
O O4 0.230069 0.029091 0.563113
O O5 0.500000 0.719762 0.396155
O O6 0.313804 0.655403 0.339832
O O7 0.236483 0.704619 0.436088
O O8 0.295161 0.776665 0.342532
O O9 0.689770 0.418079 0.750000
O O10 0.500000 0.433059 0.830115
O O11 0.779073 0.456658 0.852582
O O12 0.500000 0.828320 0.993339
O O13 0.325240 0.910379 0.950405
O O14 0.500000 0.003426 0.417151
O O15 0.292586 0.151885 0.750000
O O16 0.500000 0.143770 0.823642
#
# Coordination Sequence:
#
# PCOD9474096 Si02
#       6
#    16  16  16  16  16  16
#     4  12  25  39  58  83 113 151 191 233 281 333
#     4   9  18  35  60  88 115 145 185 232 282 334
#     4   9  17  31  54  84 115 146 184 232 282 333
#     4  10  21  38  61  88 116 146 183 230 284 338
#     4  10  21  37  57  82 113 149 188 232 283 338
#     4  10  22  41  63  85 113 152 193 232 277 330
#
# _framework density 20.646591999999998
#
# number of rings (size 3 to 8) (size 9 to 14) (size 15 to 20)
#    0.000    2.000    0.000    3.500    0.000    8.667 
#    0.000    0.000    0.000    3.000    0.000    0.000 
#    0.000    0.000    0.000    0.000    0.000    0.000 
#
# Total GULP energy -268385.447683 kJ/mol
# GULP energy per Si atom -5591.363493 kJ/mol
# Density = 2.059960 g / cm^3
# Si number density = 20.646592 Si / 1000 Ang^3
#
#
#
# Elastic Constant Matrix: (Units=GPa)
#
#
# Indices 1 2 3 4 5 6 
#
# 1 105.1804 34.4630 62.8758 0.0000 0.0000 0.0000
# 2 34.4630 55.0683 23.1057 0.0000 0.0000 0.0000
# 3 62.8758 23.1057 118.1894 0.0000 0.0000 0.0000
# 4 0.0000 0.0000 0.0000 25.2756 0.0000 0.0000
# 5 0.0000 0.0000 0.0000 0.0000 29.2234 0.0000
# 6 0.0000 0.0000 0.0000 0.0000 0.0000 22.3492
#
#
#
# Elastic Compliance Matrix: (Units=1/GPa)
#
#
# Indices 1 2 3 4 5 6 
#
# 1 0.016127 -0.007073 -0.007197 0.000000 0.000000 0.000000
# 2 -0.007073 0.022884 -0.000711 0.000000 0.000000 0.000000
# 3 -0.007197 -0.000711 0.012429 0.000000 0.000000 0.000000
# 4 0.000000 0.000000 0.000000 0.039564 0.000000 0.000000
# 5 0.000000 0.000000 0.000000 0.000000 0.034219 0.000000
# 6 0.000000 0.000000 0.000000 0.000000 0.000000 0.044744
#
#
# Mechanical properties :
#
#
# Convention : Reuss Voigt Hill
#
# Bulk Modulus (GPa) = 46.55877 57.70302 52.13090
# Shear Modulus (GPa) = 24.14433 25.90257 25.02345
#
# Velocity S-wave (km/s) = 3.42337 3.54583 3.48514
# Velocity P-wave (km/s) = 6.18266 6.69123 6.44196
#
# Compressibility (1/GPa) = 0.02147823
#
# Stress axis : x y z
#
# Youngs Moduli (GPa) = 62.00719 43.69850 80.45964
#
# Poissons Ratio (x) = 0.30908 0.57905
# Poissons Ratio (y) = 0.43858 0.05720
# Poissons Ratio (z) = 0.44625 0.03107
#
# Static dielectric constant tensor:
#      x y z
#    x 1.695000 0.000000 0.000000 
#    y 0.000000 1.767050 0.000000 
#    z 0.000000 0.000000 1.722540 
# 
# From -- ./inp_files/60256.got.cif
#   From: 2010.05.17/outbox.cif.g08.bks.cpg/sg63_31_cif.got.tgz:60256.got - 2010.06.03 15:47:04.
