data_PCOD9474316
_publ_section_title
;
Structure prediction by ZEFSAII (Michael W. Deem and Ramdas Pophale) SiO2 
 PCOD9474316
Probable space group: C M C M
;
_chemical_formula_sum "Si O2"
_cell_formula_units_Z 80
_cell_length_a 19.215200
_cell_length_b 10.082496
_cell_length_c 22.930735
_cell_angle_alpha 90.000000
_cell_angle_beta 90.000000
_cell_angle_gamma 90.000000
_cell_volume 4442.535869
_symmetry_space_group_name_H-M "C M C M"
_symmetry_group_IT_number 63
_symmetry_cell_setting 'orthorhombic'
loop_
_space_group_symop_operation_xyz
x,y,z
-x,-y,1/2+z
x,-y,-z
-x,y,1/2-z
-x,-y,-z
x,y,1/2-z
-x,y,z
x,-y,1/2+z
1/2+x,1/2+y,z
1/2-x,1/2-y,1/2+z
1/2+x,1/2-y,-z
1/2-x,1/2+y,1/2-z
1/2-x,1/2-y,-z
1/2+x,1/2+y,1/2-z
1/2-x,1/2+y,z
1/2+x,1/2-y,1/2+z
loop_
_atom_site_type_symbol
_atom_site_label
_atom_site_fract_x
_atom_site_fract_y
_atom_site_fract_z
Si Si1 0.791373 0.254968 0.939579
Si Si2 0.583080 0.275919 0.632264
Si Si3 0.921832 0.343076 0.492519
Si Si4 0.161655 0.317291 0.250000
Si Si5 0.245735 0.943794 0.750000
Si Si6 0.300991 0.524244 0.122990
O O1 0.754672 0.367153 0.900301
O O2 0.789371 0.112707 0.909502
O O3 0.750000 0.250000 0.000000
O O4 0.869234 0.286741 0.959978
O O5 0.500000 0.287543 0.640024
O O6 0.597615 0.188077 0.574623
O O7 0.618738 0.219036 0.691193
O O8 0.622522 0.412624 0.616704
O O9 0.921747 0.500000 0.500000
O O10 0.000000 0.290940 0.501081
O O11 0.182058 0.473059 0.250000
O O12 0.229014 0.215652 0.250000
O O13 0.210325 0.994043 0.691288
#
# Coordination Sequence:
#
# PCOD9474316 Si02
#       6
#    16  16  16   8   8  16
#     4  12  23  36  60  88 120 154 195 240 296 361
#     4  10  21  38  60  85 116 155 202 246 293 355
#     4  10  22  38  57  84 120 157 194 243 301 358
#     4  10  21  38  60  88 115 154 196 244 299 350
#     4  10  22  38  58  86 116 144 196 242 292 340
#     4  11  23  39  59  89 117 156 196 247 298 347
#
# _framework density 18.007733000000002
#
# number of rings (size 3 to 8) (size 9 to 14) (size 15 to 20)
#    0.000    1.400    2.000    4.500    2.800    0.800 
#    0.000    2.000    0.000    0.000    0.000    2.800 
#    0.000    0.000    0.000    0.000    0.000    0.000 
#
# Total GULP energy -223070.264833 kJ/mol
# GULP energy per Si atom -5576.756621 kJ/mol
# Density = 1.796675 g / cm^3
# Si number density = 18.007733 Si / 1000 Ang^3
#
#
#
# Elastic Constant Matrix: (Units=GPa)
#
#
# Indices 1 2 3 4 5 6 
#
# 1 94.3458 53.9486 48.1166 0.0000 0.0000 0.0000
# 2 53.9486 111.2455 69.4339 0.0000 0.0000 0.0000
# 3 48.1166 69.4339 128.2076 0.0000 0.0000 0.0000
# 4 0.0000 0.0000 0.0000 26.7025 0.0000 0.0000
# 5 0.0000 0.0000 0.0000 0.0000 25.4005 0.0000
# 6 0.0000 0.0000 0.0000 0.0000 0.0000 26.4718
#
#
#
# Elastic Compliance Matrix: (Units=1/GPa)
#
#
# Indices 1 2 3 4 5 6 
#
# 1 0.015215 -0.005762 -0.002590 0.000000 0.000000 0.000000
# 2 -0.005762 0.015762 -0.006373 0.000000 0.000000 0.000000
# 3 -0.002590 -0.006373 0.012223 0.000000 0.000000 0.000000
# 4 0.000000 0.000000 0.000000 0.037450 0.000000 0.000000
# 5 0.000000 0.000000 0.000000 0.000000 0.039369 0.000000
# 6 0.000000 0.000000 0.000000 0.000000 0.000000 0.037776
#
#
# Mechanical properties :
#
#
# Convention : Reuss Voigt Hill
#
# Bulk Modulus (GPa) = 72.73029 75.19967 73.96498
# Shear Modulus (GPa) = 26.06498 26.53496 26.29997
#
# Velocity S-wave (km/s) = 3.80864 3.84283 3.82577
# Velocity P-wave (km/s) = 7.73415 7.84475 7.78964
#
# Compressibility (1/GPa) = 0.01374943
#
# Stress axis : x y z
#
# Youngs Moduli (GPa) = 65.72494 63.44571 81.81043
#
# Poissons Ratio (x) = 0.36559 0.21185
# Poissons Ratio (y) = 0.37872 0.52141
# Poissons Ratio (z) = 0.17020 0.40437
#
# Static dielectric constant tensor:
#      x y z
#    x 1.665140 0.000000 0.000000 
#    y 0.000000 1.620190 0.000000 
#    z 0.000000 0.000000 1.609810 
# 
# From -- ./inp_files/55325.got.cif
#   From: 2010.05.17/outbox.cif.g08.bks.cpg/sg63_28_cif.got.tgz:55325.got - 2010.06.03 15:47:04.
