data_PCOD9474635
_publ_section_title
;
Structure prediction by ZEFSAII (Michael W. Deem and Ramdas Pophale) SiO2 
 PCOD9474635
Probable space group: C M C M
;
_chemical_formula_sum "Si O2"
_cell_formula_units_Z 60
_cell_length_a 32.362310
_cell_length_b 5.606807
_cell_length_c 14.276910
_cell_angle_alpha 90.000000
_cell_angle_beta 90.000000
_cell_angle_gamma 90.000000
_cell_volume 2590.534273
_symmetry_space_group_name_H-M "C M C M"
_symmetry_group_IT_number 63
_symmetry_cell_setting 'orthorhombic'
loop_
_space_group_symop_operation_xyz
x,y,z
-x,-y,1/2+z
x,-y,-z
-x,y,1/2-z
-x,-y,-z
x,y,1/2-z
-x,y,z
x,-y,1/2+z
1/2+x,1/2+y,z
1/2-x,1/2-y,1/2+z
1/2+x,1/2-y,-z
1/2-x,1/2+y,1/2-z
1/2-x,1/2-y,-z
1/2+x,1/2+y,1/2-z
1/2-x,1/2+y,z
1/2+x,1/2-y,1/2+z
loop_
_atom_site_type_symbol
_atom_site_label
_atom_site_fract_x
_atom_site_fract_y
_atom_site_fract_z
Si Si1 0.428839 0.375722 0.095520
Si Si2 0.652375 0.634813 0.145424
Si Si3 0.768878 0.856288 0.362688
Si Si4 0.000000 0.801709 0.250000
Si Si5 0.369532 0.000000 0.000000
O O1 0.395176 0.555789 0.139626
O O2 0.463943 0.310081 0.168001
O O3 0.400652 0.154606 0.063906
O O4 0.444875 0.500000 0.000000
O O5 0.662297 0.721738 0.250000
O O6 0.682664 0.414279 0.124411
O O7 0.657074 0.833930 0.067391
O O8 0.762143 0.847484 0.250000
O O9 0.746771 0.100278 0.397511
#
# Coordination Sequence:
#
# PCOD9474635 Si02
#       5
#    16  16  16   4   8
#     4  10  23  43  65  97 134 173 215 281 337 411
#     4  10  21  40  68  93 131 187 222 272 344 409
#     4   9  19  35  60 101 138 181 236 293 337 401
#     4  12  22  42  74 100 126 174 220 270 344 424
#     4  10  24  41  62  96 136 172 222 282 334 411
#
# _framework density 23.161244
#
# number of rings (size 3 to 8) (size 9 to 14) (size 15 to 20)
#    0.000    2.133    1.333    0.400    5.600    0.533 
#    0.000    8.000    0.000    0.000    0.000    0.000 
#    0.000    0.000    0.000    0.000    0.000    0.000 
#
# Total GULP energy -167270.670469 kJ/mol
# GULP energy per Si atom -5575.689016 kJ/mol
# Density = 2.310853 g / cm^3
# Si number density = 23.161244 Si / 1000 Ang^3
#
#
#
# Elastic Constant Matrix: (Units=GPa)
#
#
# Indices 1 2 3 4 5 6 
#
# 1 114.7058 25.6840 50.6591 0.0000 0.0000 0.0000
# 2 25.6840 88.8619 47.7725 0.0000 0.0000 0.0000
# 3 50.6591 47.7725 157.7241 0.0000 0.0000 0.0000
# 4 0.0000 0.0000 0.0000 24.7011 0.0000 0.0000
# 5 0.0000 0.0000 0.0000 0.0000 -18.2067 0.0000
# 6 0.0000 0.0000 0.0000 0.0000 0.0000 -13.9156
#
#
#
# Elastic Compliance Matrix: (Units=1/GPa)
#
#
# Indices 1 2 3 4 5 6 
#
# 1 0.010310 -0.001433 -0.002877 0.000000 0.000000 0.000000
# 2 -0.001433 0.013641 -0.003672 0.000000 0.000000 0.000000
# 3 -0.002877 -0.003672 0.008376 0.000000 0.000000 0.000000
# 4 0.000000 0.000000 0.000000 0.040484 0.000000 0.000000
# 5 0.000000 0.000000 0.000000 0.000000 -0.054925 0.000000
# 6 0.000000 0.000000 0.000000 0.000000 0.000000 -0.071862
#
#
# Mechanical properties :
#
#
# Convention : Reuss Voigt Hill
#
# Bulk Modulus (GPa) = 61.11056 67.72479 64.41767
# Shear Modulus (GPa) = -153.57609 14.32752 -69.62428
#
# Velocity S-wave (km/s) = -8.15177 2.48986 -5.48871
# Velocity P-wave (km/s) = 7.88414 6.12943 3.50640
#
# Compressibility (1/GPa) = 0.01636378
#
# Stress axis : x y z
#
# Youngs Moduli (GPa) = 96.99755 73.30604 119.38310
#
# Poissons Ratio (x) = 0.10504 0.34350
# Poissons Ratio (y) = 0.13899 0.43832
# Poissons Ratio (z) = 0.27909 0.26915
#
# Static dielectric constant tensor:
#      x y z
#    x 1.824330 0.000000 0.000000 
#    y 0.000000 1.892640 0.000000 
#    z 0.000000 0.000000 1.885930 
# 
# From -- ./inp_files/49274.got.cif
#   From: 2010.05.17/outbox.cif.g08.bks.cpg/sg63_25_cif.got.tgz:49274.got - 2010.06.03 15:47:04.
