data_PCOD9474205
_publ_section_title
;
Structure prediction by ZEFSAII (Michael W. Deem and Ramdas Pophale) SiO2 
 PCOD9474205
Probable space group: C M C M
;
_chemical_formula_sum "Si O2"
_cell_formula_units_Z 112
_cell_length_a 15.447573
_cell_length_b 23.881509
_cell_length_c 13.430846
_cell_angle_alpha 90.000000
_cell_angle_beta 90.000000
_cell_angle_gamma 90.000000
_cell_volume 4954.791578
_symmetry_space_group_name_H-M "C M C M"
_symmetry_group_IT_number 63
_symmetry_cell_setting 'orthorhombic'
loop_
_space_group_symop_operation_xyz
x,y,z
-x,-y,1/2+z
x,-y,-z
-x,y,1/2-z
-x,-y,-z
x,y,1/2-z
-x,y,z
x,-y,1/2+z
1/2+x,1/2+y,z
1/2-x,1/2-y,1/2+z
1/2+x,1/2-y,-z
1/2-x,1/2+y,1/2-z
1/2-x,1/2-y,-z
1/2+x,1/2+y,1/2-z
1/2-x,1/2+y,z
1/2+x,1/2-y,1/2+z
loop_
_atom_site_type_symbol
_atom_site_label
_atom_site_fract_x
_atom_site_fract_y
_atom_site_fract_z
Si Si1 0.772348 0.911427 0.633118
Si Si2 0.905656 0.818050 0.566981
Si Si3 0.350256 0.804029 0.071775
Si Si4 0.908334 0.575396 0.631238
Si Si5 0.102492 0.348049 0.635086
Si Si6 0.223332 0.965785 0.370857
Si Si7 0.840918 0.842466 0.366580
O O1 0.788717 0.910821 0.750000
O O2 0.829023 0.860743 0.592077
O O3 0.669477 0.899743 0.621575
O O4 0.800712 0.972090 0.593940
O O5 0.883450 0.756143 0.605267
O O6 0.905802 0.817709 0.446737
O O7 0.000000 0.835971 0.603982
O O8 0.400570 0.858122 0.112527
O O9 0.252264 0.814970 0.106870
O O10 0.364766 0.807336 0.952297
O O11 0.908729 0.566561 0.750000
O O12 0.820405 0.548166 0.593180
O O13 0.000000 0.554996 0.590199
O O14 0.113771 0.328449 0.750000
O O15 0.000000 0.360098 0.621896
O O16 0.227452 0.969729 0.250000
O O17 0.168178 0.909549 0.386793
O O18 0.859907 0.834237 0.250000
#
# Coordination Sequence:
#
# PCOD9474205 Si02
#       7
#    16  16  16  16  16  16  16
#     4  10  22  41  62  89 126 166 210 258 313 372
#     4  12  26  42  62  92 127 168 212 261 315 366
#     4  11  21  41  61  89 129 164 199 253 306 373
#     4   9  17  31  57  93 127 161 201 247 304 372
#     4  10  21  37  60  91 128 169 207 246 303 374
#     4   8  17  36  60  84 118 161 204 258 312 365
#     4  10  22  42  68  93 120 161 210 259 318 372
#
# _framework density 22.604382000000001
#
# number of rings (size 3 to 8) (size 9 to 14) (size 15 to 20)
#    0.000    2.000    1.429    3.000    0.000    3.429 
#    0.000    4.286    0.000    5.143    0.000    0.000 
#    0.000    0.000    0.000    0.000    0.000    0.000 
#
# Total GULP energy -312667.024467 kJ/mol
# GULP energy per Si atom -5583.339723 kJ/mol
# Density = 2.255293 g / cm^3
# Si number density = 22.604382 Si / 1000 Ang^3
#
#
#
# Elastic Constant Matrix: (Units=GPa)
#
#
# Indices 1 2 3 4 5 6 
#
# 1 54.5672 10.7732 -11.4360 0.0000 0.0000 0.0000
# 2 10.7732 88.9346 11.4120 0.0000 0.0000 0.0000
# 3 -11.4360 11.4120 63.4993 0.0000 0.0000 0.0000
# 4 0.0000 0.0000 0.0000 16.0277 0.0000 0.0000
# 5 0.0000 0.0000 0.0000 0.0000 20.5470 0.0000
# 6 0.0000 0.0000 0.0000 0.0000 0.0000 -5.5957
#
#
#
# Elastic Compliance Matrix: (Units=1/GPa)
#
#
# Indices 1 2 3 4 5 6 
#
# 1 0.019758 -0.002917 0.004083 0.000000 0.000000 0.000000
# 2 -0.002917 0.011940 -0.002671 0.000000 0.000000 0.000000
# 3 0.004083 -0.002671 0.016964 0.000000 0.000000 0.000000
# 4 0.000000 0.000000 0.000000 0.062392 0.000000 0.000000
# 5 0.000000 0.000000 0.000000 0.000000 0.048669 0.000000
# 6 0.000000 0.000000 0.000000 0.000000 0.000000 -0.178709
#
#
# Mechanical properties :
#
#
# Convention : Reuss Voigt Hill
#
# Bulk Modulus (GPa) = 21.90599 25.38881 23.64740
# Shear Modulus (GPa) = -6598.16272 19.27926 -3289.44173
#
# Velocity S-wave (km/s) = -54.08615 2.92361 -38.18877
# Velocity P-wave (km/s) = 62.37551 4.75950 43.97756
#
# Compressibility (1/GPa) = 0.04564962
#
# Stress axis : x y z
#
# Youngs Moduli (GPa) = 50.61347 83.74943 58.94992
#
# Poissons Ratio (x) = 0.24432 -0.24067
# Poissons Ratio (y) = 0.14765 0.15747
# Poissons Ratio (z) = -0.20663 0.22372
#
# Static dielectric constant tensor:
#      x y z
#    x 1.828310 0.000000 0.000000 
#    y 0.000000 1.837310 0.000000 
#    z 0.000000 0.000000 1.915710 
# 
# From -- ./inp_files/32358.got.cif
#   From: 2010.05.17/outbox.cif.g08.bks.cpg/sg63_17_cif.got.tgz:32358.got - 2010.06.03 15:47:04.
