data_PCOD9474843
_publ_section_title
;
Structure prediction by ZEFSAII (Michael W. Deem and Ramdas Pophale) SiO2 
 PCOD9474843
Probable space group: C M C M
;
_chemical_formula_sum "Si O2"
_cell_formula_units_Z 64
_cell_length_a 8.301030
_cell_length_b 10.354584
_cell_length_c 32.766117
_cell_angle_alpha 90.000000
_cell_angle_beta 90.000000
_cell_angle_gamma 90.000000
_cell_volume 2816.369398
_symmetry_space_group_name_H-M "C M C M"
_symmetry_group_IT_number 63
_symmetry_cell_setting 'orthorhombic'
loop_
_space_group_symop_operation_xyz
x,y,z
-x,-y,1/2+z
x,-y,-z
-x,y,1/2-z
-x,-y,-z
x,y,1/2-z
-x,y,z
x,-y,1/2+z
1/2+x,1/2+y,z
1/2-x,1/2-y,1/2+z
1/2+x,1/2-y,-z
1/2-x,1/2+y,1/2-z
1/2-x,1/2-y,-z
1/2+x,1/2+y,1/2-z
1/2-x,1/2+y,z
1/2+x,1/2-y,1/2+z
loop_
_atom_site_type_symbol
_atom_site_label
_atom_site_fract_x
_atom_site_fract_y
_atom_site_fract_z
Si Si1 0.181558 0.826778 0.914334
Si Si2 0.500000 0.935964 0.563018
Si Si3 0.307371 0.142235 0.842134
Si Si4 0.500000 0.789266 0.017841
Si Si5 0.307157 0.603793 0.295599
O O1 0.500000 0.371283 0.900644
O O2 0.334431 0.919266 0.912472
O O3 0.222484 0.702335 0.886879
O O4 0.147892 0.788324 0.961523
O O5 0.500000 0.820088 0.529521
O O6 0.500000 0.071722 0.540116
O O7 0.500000 0.128439 0.838680
O O8 0.250110 0.257973 0.812241
O O9 0.233558 0.009512 0.826954
O O10 0.244354 0.576226 0.250000
O O11 0.500000 0.612205 0.293449
#
# Coordination Sequence:
#
# PCOD9474843 Si02
#       5
#    16   8  16   8  16
#     4   9  22  38  58  90 120 155 205 245 296 372
#     4  11  20  40  63  81 128 161 190 265 303 341
#     4  10  22  39  60  87 122 156 197 252 297 357
#     4   9  22  40  57  93 118 153 214 245 295 379
#     4  10  22  39  60  87 118 154 200 244 299 365
#
# _framework density 22.724292999999999
#
# number of rings (size 3 to 8) (size 9 to 14) (size 15 to 20)
#    0.750    1.500    0.000    1.500    5.250    2.500 
#    2.250    1.250    0.000    0.000    0.000    0.000 
#    0.000    0.000    0.000    0.000    0.000    0.000 
#
# Total GULP energy -178536.724424 kJ/mol
# GULP energy per Si atom -5579.272638 kJ/mol
# Density = 2.267257 g / cm^3
# Si number density = 22.724293 Si / 1000 Ang^3
#
#
#
# Elastic Constant Matrix: (Units=GPa)
#
#
# Indices 1 2 3 4 5 6 
#
# 1 82.7006 28.4417 10.0293 0.0000 0.0000 0.0000
# 2 28.4417 63.0690 -4.6995 0.0000 0.0000 0.0000
# 3 10.0293 -4.6995 80.3305 0.0000 0.0000 0.0000
# 4 0.0000 0.0000 0.0000 30.4649 0.0000 0.0000
# 5 0.0000 0.0000 0.0000 0.0000 22.5998 0.0000
# 6 0.0000 0.0000 0.0000 0.0000 0.0000 12.1995
#
#
#
# Elastic Compliance Matrix: (Units=1/GPa)
#
#
# Indices 1 2 3 4 5 6 
#
# 1 0.014700 -0.006795 -0.002233 0.000000 0.000000 0.000000
# 2 -0.006795 0.019066 0.001964 0.000000 0.000000 0.000000
# 3 -0.002233 0.001964 0.012842 0.000000 0.000000 0.000000
# 4 0.000000 0.000000 0.000000 0.032825 0.000000 0.000000
# 5 0.000000 0.000000 0.000000 0.000000 0.044248 0.000000
# 6 0.000000 0.000000 0.000000 0.000000 0.000000 0.081971
#
#
# Mechanical properties :
#
#
# Convention : Reuss Voigt Hill
#
# Bulk Modulus (GPa) = 30.78854 32.62702 31.70778
# Shear Modulus (GPa) = 21.68193 25.87474 23.77834
#
# Velocity S-wave (km/s) = 3.09225 3.37803 3.23830
# Velocity P-wave (km/s) = 5.13103 5.44093 5.28825
#
# Compressibility (1/GPa) = 0.03247962
#
# Stress axis : x y z
#
# Youngs Moduli (GPa) = 68.02917 52.44825 77.86820
#
# Poissons Ratio (x) = 0.35640 0.17386
# Poissons Ratio (y) = 0.46228 -0.15292
# Poissons Ratio (z) = 0.15189 -0.10300
#
# Static dielectric constant tensor:
#      x y z
#    x 1.851360 0.000000 0.000000 
#    y 0.000000 1.808490 0.000000 
#    z 0.000000 0.000000 1.882920 
# 
# From -- ./inp_files/71370.got.cif
#   From: 2010.05.17/outbox.cif.g08.bks.cpg/sg63_36_cif.got.tgz:71370.got - 2010.06.03 15:47:04.
