data_PCOD9474762
_publ_section_title
;
Structure prediction by ZEFSAII (Michael W. Deem and Ramdas Pophale) SiO2 
 PCOD9474762
Probable space group: C M C M
;
_chemical_formula_sum "Si O2"
_cell_formula_units_Z 80
_cell_length_a 26.826533
_cell_length_b 7.784609
_cell_length_c 18.122911
_cell_angle_alpha 90.000000
_cell_angle_beta 90.000000
_cell_angle_gamma 90.000000
_cell_volume 3784.681269
_symmetry_space_group_name_H-M "C M C M"
_symmetry_group_IT_number 63
_symmetry_cell_setting 'orthorhombic'
loop_
_space_group_symop_operation_xyz
x,y,z
-x,-y,1/2+z
x,-y,-z
-x,y,1/2-z
-x,-y,-z
x,y,1/2-z
-x,y,z
x,-y,1/2+z
1/2+x,1/2+y,z
1/2-x,1/2-y,1/2+z
1/2+x,1/2-y,-z
1/2-x,1/2+y,1/2-z
1/2-x,1/2-y,-z
1/2+x,1/2+y,1/2-z
1/2-x,1/2+y,z
1/2+x,1/2-y,1/2+z
loop_
_atom_site_type_symbol
_atom_site_label
_atom_site_fract_x
_atom_site_fract_y
_atom_site_fract_z
Si Si1 0.778440 0.754145 0.422605
Si Si2 0.610501 0.160006 0.412434
Si Si3 0.088277 0.018880 0.333146
Si Si4 0.442487 0.180084 0.930205
Si Si5 0.700204 0.426728 0.832915
O O1 0.750000 0.750000 0.500000
O O2 0.829334 0.643795 0.419364
O O3 0.740042 0.712832 0.356836
O O4 0.795721 0.943273 0.401337
O O5 0.597461 0.324296 0.361548
O O6 0.587468 0.199056 0.493098
O O7 0.584851 0.980335 0.389641
O O8 0.068426 0.013518 0.250000
O O9 0.058175 0.140224 0.387415
O O10 0.142079 0.114571 0.331371
O O11 0.500000 0.134160 0.942957
O O12 0.711430 0.491953 0.750000
#
# Coordination Sequence:
#
# PCOD9474762 Si02
#       5
#    16  16  16  16  16
#     4  11  22  35  60  91 122 160 211 257 305 372
#     4  10  23  41  64  91 129 164 209 264 325 377
#     4  10  23  43  63  90 130 168 208 262 320 384
#     4  11  24  42  67  95 121 165 219 269 325 383
#     4  10  22  38  56  86 125 166 202 244 313 382
#
# _framework density 21.137844000000001
#
# number of rings (size 3 to 8) (size 9 to 14) (size 15 to 20)
#    0.000    1.600    0.000    4.200    8.400    7.600 
#    0.000    0.000    0.000    0.000    0.000    0.000 
#    0.000    0.000    0.000    0.000    0.000    0.000 
#
# Total GULP energy -223066.489851 kJ/mol
# GULP energy per Si atom -5576.662246 kJ/mol
# Density = 2.108973 g / cm^3
# Si number density = 21.137844 Si / 1000 Ang^3
#
#
#
# Elastic Constant Matrix: (Units=GPa)
#
#
# Indices 1 2 3 4 5 6 
#
# 1 81.9222 -4.4146 13.7363 0.0000 0.0000 0.0000
# 2 -4.4146 31.2329 11.7383 0.0000 0.0000 0.0000
# 3 13.7363 11.7383 85.7988 0.0000 0.0000 0.0000
# 4 0.0000 0.0000 0.0000 28.7721 0.0000 0.0000
# 5 0.0000 0.0000 0.0000 0.0000 -91.2382 0.0000
# 6 0.0000 0.0000 0.0000 0.0000 0.0000 26.2255
#
#
#
# Elastic Compliance Matrix: (Units=1/GPa)
#
#
# Indices 1 2 3 4 5 6 
#
# 1 0.012757 0.002710 -0.002413 0.000000 0.000000 0.000000
# 2 0.002710 0.034329 -0.005130 0.000000 0.000000 0.000000
# 3 -0.002413 -0.005130 0.012743 0.000000 0.000000 0.000000
# 4 0.000000 0.000000 0.000000 0.034756 0.000000 0.000000
# 5 0.000000 0.000000 0.000000 0.000000 -0.010960 0.000000
# 6 0.000000 0.000000 0.000000 0.000000 0.000000 0.038131
#
#
# Mechanical properties :
#
#
# Convention : Reuss Voigt Hill
#
# Bulk Modulus (GPa) = 19.93519 26.78597 23.36058
# Shear Modulus (GPa) = 33.75096 4.61147 19.18122
#
# Velocity S-wave (km/s) = 4.00022 1.47863 3.01563
# Velocity P-wave (km/s) = 5.54862 3.95154 4.81673
#
# Compressibility (1/GPa) = 0.05016256
#
# Stress axis : x y z
#
# Youngs Moduli (GPa) = 78.38591 29.13005 78.47171
#
# Poissons Ratio (x) = -0.07895 0.18937
# Poissons Ratio (y) = -0.21244 0.40260
# Poissons Ratio (z) = 0.18916 0.14945
#
# Static dielectric constant tensor:
#      x y z
#    x 1.504460 0.000000 0.000000 
#    y 0.000000 1.841820 0.000000 
#    z 0.000000 0.000000 1.754470 
# 
# From -- ./inp_files/48738.got.cif
#   From: 2010.05.17/outbox.cif.g08.bks.cpg/sg63_25_cif.got.tgz:48738.got - 2010.06.03 15:47:04.
