data_PCOD9474379
_publ_section_title
;
Structure prediction by ZEFSAII (Michael W. Deem and Ramdas Pophale) SiO2 
 PCOD9474379
Probable space group: C M C M
;
_chemical_formula_sum "Si O2"
_cell_formula_units_Z 96
_cell_length_a 16.973729
_cell_length_b 28.345491
_cell_length_c 11.510155
_cell_angle_alpha 90.000000
_cell_angle_beta 90.000000
_cell_angle_gamma 90.000000
_cell_volume 5537.865712
_symmetry_space_group_name_H-M "C M C M"
_symmetry_group_IT_number 63
_symmetry_cell_setting 'orthorhombic'
loop_
_space_group_symop_operation_xyz
x,y,z
-x,-y,1/2+z
x,-y,-z
-x,y,1/2-z
-x,-y,-z
x,y,1/2-z
-x,y,z
x,-y,1/2+z
1/2+x,1/2+y,z
1/2-x,1/2-y,1/2+z
1/2+x,1/2-y,-z
1/2-x,1/2+y,1/2-z
1/2-x,1/2-y,-z
1/2+x,1/2+y,1/2-z
1/2-x,1/2+y,z
1/2+x,1/2-y,1/2+z
loop_
_atom_site_type_symbol
_atom_site_label
_atom_site_fract_x
_atom_site_fract_y
_atom_site_fract_z
Si Si1 0.664778 0.050372 0.497004
Si Si2 0.645272 0.216671 0.006294
Si Si3 0.249748 0.141282 0.611799
Si Si4 0.089638 0.570632 0.250000
Si Si5 0.909852 0.317693 0.750000
Si Si6 0.593029 0.687185 0.887595
Si Si7 0.000000 0.562703 0.611802
Si Si8 0.500000 0.168818 0.613066
O O1 0.709850 0.096093 0.549536
O O2 0.637200 0.058572 0.365532
O O3 0.583245 0.043213 0.569008
O O4 0.708964 0.000000 0.500000
O O5 0.636772 0.196501 0.135709
O O6 0.624985 0.271418 0.028105
O O7 0.718127 0.190831 0.943062
O O8 0.574654 0.196076 0.931208
O O9 0.269126 0.139865 0.750000
O O10 0.154980 0.144343 0.599048
O O11 0.081552 0.626653 0.250000
O O12 0.000000 0.550247 0.250000
O O13 0.000000 0.297632 0.750000
O O14 0.600010 0.701510 0.750000
O O15 0.500000 0.678355 0.908625
O O16 0.000000 0.616248 0.562646
O O17 0.000000 0.563124 0.750000
O O18 0.500000 0.164970 0.750000
#
# Coordination Sequence:
#
# PCOD9474379 Si02
#       8
#    16  16  16   8   8  16   8   8
#     4  12  25  37  55  80 111 149 191 236 281 329
#     4  12  19  34  56  83 115 148 187 223 265 319
#     4  11  24  40  56  82 117 148 185 232 282 334
#     4  11  22  36  52  77 110 154 196 227 262 320
#     4  11  18  30  52  79 108 150 186 225 264 304
#     4  10  21  38  62  86 109 144 188 235 281 328
#     4  11  21  36  54  78 118 161 193 226 271 323
#     4  11  20  30  52  80 118 161 184 212 271 328
#
# _framework density 17.335198999999999
#
# number of rings (size 3 to 8) (size 9 to 14) (size 15 to 20)
#    0.000    0.833    6.667    1.750    2.333    0.000 
#    0.000    0.000    1.833    0.500    0.000    0.000 
#    0.000    0.000    0.000    0.000    0.000    0.000 
#
# Total GULP energy -267573.984799 kJ/mol
# GULP energy per Si atom -5574.458017 kJ/mol
# Density = 1.729574 g / cm^3
# Si number density = 17.335199 Si / 1000 Ang^3
#
#
#
# Elastic Constant Matrix: (Units=GPa)
#
#
# Indices 1 2 3 4 5 6 
#
# 1 111.7727 43.3379 32.5812 0.0000 0.0000 0.0000
# 2 43.3379 61.5755 24.0437 0.0000 0.0000 0.0000
# 3 32.5812 24.0437 103.3237 0.0000 0.0000 0.0000
# 4 0.0000 0.0000 0.0000 -29.0899 0.0000 0.0000
# 5 0.0000 0.0000 0.0000 0.0000 37.4675 0.0000
# 6 0.0000 0.0000 0.0000 0.0000 0.0000 18.2776
#
#
#
# Elastic Compliance Matrix: (Units=1/GPa)
#
#
# Indices 1 2 3 4 5 6 
#
# 1 0.012713 -0.008120 -0.002119 0.000000 0.000000 0.000000
# 2 -0.008120 0.023050 -0.002803 0.000000 0.000000 0.000000
# 3 -0.002119 -0.002803 0.010999 0.000000 0.000000 0.000000
# 4 0.000000 0.000000 0.000000 -0.034376 0.000000 0.000000
# 5 0.000000 0.000000 0.000000 0.000000 0.026690 0.000000
# 6 0.000000 0.000000 0.000000 0.000000 0.000000 0.054712
#
#
# Mechanical properties :
#
#
# Convention : Reuss Voigt Hill
#
# Bulk Modulus (GPa) = 48.36384 52.95528 50.65956
# Shear Modulus (GPa) = 39.44336 17.11165 28.27751
#
# Velocity S-wave (km/s) = 4.77522 3.14523 4.04322
# Velocity P-wave (km/s) = 7.63960 6.61847 7.14729
#
# Compressibility (1/GPa) = 0.02067661
#
# Stress axis : x y z
#
# Youngs Moduli (GPa) = 78.66054 43.38431 90.91817
#
# Poissons Ratio (x) = 0.35228 0.19268
# Poissons Ratio (y) = 0.63872 0.25487
# Poissons Ratio (z) = 0.16670 0.12162
#
# Static dielectric constant tensor:
#      x y z
#    x 1.603200 0.000000 0.000000 
#    y 0.000000 1.631250 0.000000 
#    z 0.000000 0.000000 1.584050 
# 
# From -- ./inp_files/20041.got.cif
#   From: 2010.05.17/outbox.cif.g08.bks.cpg/sg63_11_cif.got.tgz:20041.got - 2010.06.03 15:47:04.
