data_PCOD9474819
_publ_section_title
;
Structure prediction by ZEFSAII (Michael W. Deem and Ramdas Pophale) SiO2 
 PCOD9474819
Probable space group: C M C M
;
_chemical_formula_sum "Si O2"
_cell_formula_units_Z 88
_cell_length_a 11.289225
_cell_length_b 15.013504
_cell_length_c 27.302698
_cell_angle_alpha 90.000000
_cell_angle_beta 90.000000
_cell_angle_gamma 90.000000
_cell_volume 4627.556800
_symmetry_space_group_name_H-M "C M C M"
_symmetry_group_IT_number 63
_symmetry_cell_setting 'orthorhombic'
loop_
_space_group_symop_operation_xyz
x,y,z
-x,-y,1/2+z
x,-y,-z
-x,y,1/2-z
-x,-y,-z
x,y,1/2-z
-x,y,z
x,-y,1/2+z
1/2+x,1/2+y,z
1/2-x,1/2-y,1/2+z
1/2+x,1/2-y,-z
1/2-x,1/2+y,1/2-z
1/2-x,1/2-y,-z
1/2+x,1/2+y,1/2-z
1/2-x,1/2+y,z
1/2+x,1/2-y,1/2+z
loop_
_atom_site_type_symbol
_atom_site_label
_atom_site_fract_x
_atom_site_fract_y
_atom_site_fract_z
Si Si1 0.863440 0.262781 0.964973
Si Si2 0.000000 0.524081 0.652894
Si Si3 0.251871 0.052668 0.808561
Si Si4 0.200502 0.227214 0.856227
Si Si5 0.359375 0.640524 0.192899
Si Si6 0.000000 0.435963 0.953363
Si Si7 0.000000 0.335723 0.805533
O O1 0.826133 0.219572 0.913443
O O2 0.888551 0.368120 0.955882
O O3 0.000000 0.232408 0.979630
O O4 0.750000 0.250000 0.000000
O O5 0.877538 0.570622 0.665355
O O6 0.000000 0.440995 0.690260
O O7 0.000000 0.488712 0.597457
O O8 0.262284 0.058368 0.750000
O O9 0.176178 0.134427 0.829080
O O10 0.202507 0.954020 0.820215
O O11 0.322144 0.276822 0.841269
O O12 0.110817 0.298819 0.834108
O O13 0.326176 0.660659 0.250000
O O14 0.500000 0.627268 0.191220
O O15 0.000000 0.500000 0.000000
O O16 0.000000 0.306137 0.750000
#
# Coordination Sequence:
#
# PCOD9474819 Si02
#       7
#    16   8  16  16  16   8   8
#     4  10  23  44  67  97 128 163 219 279 343 404
#     4  12  22  42  62  97 130 166 225 279 319 394
#     4  11  24  37  61  94 128 174 219 260 324 395
#     4  12  23  41  62  92 127 168 220 265 326 402
#     4  10  22  39  56  85 130 169 207 262 321 391
#     4  10  22  42  70  98 120 173 222 281 349 401
#     4  12  20  38  66  87 125 170 208 267 324 390
#
# _framework density 19.016514000000001
#
# number of rings (size 3 to 8) (size 9 to 14) (size 15 to 20)
#    0.545    0.545    4.545    2.455    5.091    0.727 
#    0.000    0.000    0.000    0.545    0.000    0.000 
#    0.000    0.000    0.000    0.000    0.000    0.000 
#
# Total GULP energy -245235.067164 kJ/mol
# GULP energy per Si atom -5573.524254 kJ/mol
# Density = 1.897323 g / cm^3
# Si number density = 19.016514 Si / 1000 Ang^3
#
#
#
# Elastic Constant Matrix: (Units=GPa)
#
#
# Indices 1 2 3 4 5 6 
#
# 1 76.3004 16.0163 31.0903 0.0000 0.0000 0.0000
# 2 16.0163 76.6416 24.7952 0.0000 0.0000 0.0000
# 3 31.0903 24.7952 112.9880 0.0000 0.0000 0.0000
# 4 0.0000 0.0000 0.0000 29.3518 0.0000 0.0000
# 5 0.0000 0.0000 0.0000 0.0000 27.5916 0.0000
# 6 0.0000 0.0000 0.0000 0.0000 0.0000 17.4155
#
#
#
# Elastic Compliance Matrix: (Units=1/GPa)
#
#
# Indices 1 2 3 4 5 6 
#
# 1 0.015024 -0.001940 -0.003708 0.000000 0.000000 0.000000
# 2 -0.001940 0.014295 -0.002603 0.000000 0.000000 0.000000
# 3 -0.003708 -0.002603 0.010442 0.000000 0.000000 0.000000
# 4 0.000000 0.000000 0.000000 0.034069 0.000000 0.000000
# 5 0.000000 0.000000 0.000000 0.000000 0.036243 0.000000
# 6 0.000000 0.000000 0.000000 0.000000 0.000000 0.057420
#
#
# Mechanical properties :
#
#
# Convention : Reuss Voigt Hill
#
# Bulk Modulus (GPa) = 42.99498 45.52595 44.26047
# Shear Modulus (GPa) = 26.07551 27.80699 26.94125
#
# Velocity S-wave (km/s) = 3.70699 3.82809 3.76803
# Velocity P-wave (km/s) = 6.40162 6.59782 6.50046
#
# Compressibility (1/GPa) = 0.02325853
#
# Stress axis : x y z
#
# Youngs Moduli (GPa) = 66.55838 69.95266 95.76505
#
# Poissons Ratio (x) = 0.13571 0.35514
# Poissons Ratio (y) = 0.12912 0.24931
# Poissons Ratio (z) = 0.24683 0.18211
#
# Static dielectric constant tensor:
#      x y z
#    x 1.764360 0.000000 0.000000 
#    y 0.000000 1.635530 0.000000 
#    z 0.000000 0.000000 1.641560 
# 
# From -- ./inp_files/68231.got.cif
#   From: 2010.05.17/outbox.cif.g08.bks.cpg/sg63_35_cif.got.tgz:68231.got - 2010.06.03 15:47:04.
