data_PCOD9474771
_publ_section_title
;
Structure prediction by ZEFSAII (Michael W. Deem and Ramdas Pophale) SiO2 
 PCOD9474771
Probable space group: C M C M
;
_chemical_formula_sum "Si O2"
_cell_formula_units_Z 112
_cell_length_a 23.936694
_cell_length_b 15.440174
_cell_length_c 14.909085
_cell_angle_alpha 90.000000
_cell_angle_beta 90.000000
_cell_angle_gamma 90.000000
_cell_volume 5510.199828
_symmetry_space_group_name_H-M "C M C M"
_symmetry_group_IT_number 63
_symmetry_cell_setting 'orthorhombic'
loop_
_space_group_symop_operation_xyz
x,y,z
-x,-y,1/2+z
x,-y,-z
-x,y,1/2-z
-x,-y,-z
x,y,1/2-z
-x,y,z
x,-y,1/2+z
1/2+x,1/2+y,z
1/2-x,1/2-y,1/2+z
1/2+x,1/2-y,-z
1/2-x,1/2+y,1/2-z
1/2-x,1/2-y,-z
1/2+x,1/2+y,1/2-z
1/2-x,1/2+y,z
1/2+x,1/2-y,1/2+z
loop_
_atom_site_type_symbol
_atom_site_label
_atom_site_fract_x
_atom_site_fract_y
_atom_site_fract_z
Si Si1 0.936521 0.127930 0.143139
Si Si2 0.818762 0.933274 0.610058
Si Si3 0.636635 0.053151 0.643436
Si Si4 0.756444 0.720323 0.151206
Si Si5 0.758202 0.908496 0.419862
Si Si6 0.434730 0.806957 0.464602
Si Si7 0.121777 0.352853 0.645968
O O1 0.932011 0.145689 0.250000
O O2 0.885289 0.066604 0.115664
O O3 0.928818 0.215314 0.085688
O O4 0.000000 0.095745 0.127063
O O5 0.794823 0.846079 0.654734
O O6 0.791501 0.917655 0.512490
O O7 0.793586 0.024910 0.642379
O O8 0.644639 0.072741 0.750000
O O9 0.695635 0.056756 0.592127
O O10 0.597412 0.122001 0.594659
O O11 0.613197 0.955881 0.637338
O O12 0.763853 0.758212 0.250000
O O13 0.752347 0.805898 0.092904
O O14 0.812468 0.666447 0.131132
O O15 0.500000 0.828650 0.468191
O O16 0.410701 0.806256 0.565694
O O17 0.108575 0.328481 0.750000
#
# Coordination Sequence:
#
# PCOD9474771 Si02
#       7
#    16  16  16  16  16  16  16
#     4  10  22  41  64  91 125 164 209 265 322 371
#     4  11  22  38  62  91 124 164 207 257 316 379
#     4  11  22  37  58  87 127 166 204 258 315 377
#     4  11  21  35  57  85 121 159 200 255 310 373
#     4  11  23  37  61  92 122 165 208 257 316 381
#     4  11  23  39  62  88 119 163 216 266 310 375
#     4  10  22  38  58  85 125 168 204 256 321 379
#
# _framework density 20.325942000000001
#
# number of rings (size 3 to 8) (size 9 to 14) (size 15 to 20)
#    0.000    1.286    1.429    4.714    2.000    4.000 
#    0.000    2.857    0.000    0.857    0.000    0.000 
#    0.000    0.000    0.000    0.000    0.000    0.000 
#
# Total GULP energy -312392.956452 kJ/mol
# GULP energy per Si atom -5578.445651 kJ/mol
# Density = 2.027968 g / cm^3
# Si number density = 20.325942 Si / 1000 Ang^3
#
#
#
# Elastic Constant Matrix: (Units=GPa)
#
#
# Indices 1 2 3 4 5 6 
#
# 1 121.4131 5.5808 28.8899 0.0000 0.0000 0.0000
# 2 5.5808 59.9643 3.5746 0.0000 0.0000 0.0000
# 3 28.8899 3.5746 95.7216 0.0000 0.0000 0.0000
# 4 0.0000 0.0000 0.0000 -5.4850 0.0000 0.0000
# 5 0.0000 0.0000 0.0000 0.0000 4.0069 0.0000
# 6 0.0000 0.0000 0.0000 0.0000 0.0000 27.9619
#
#
#
# Elastic Compliance Matrix: (Units=1/GPa)
#
#
# Indices 1 2 3 4 5 6 
#
# 1 0.008900 -0.000670 -0.002661 0.000000 0.000000 0.000000
# 2 -0.000670 0.016764 -0.000424 0.000000 0.000000 0.000000
# 3 -0.002661 -0.000424 0.011266 0.000000 0.000000 0.000000
# 4 0.000000 0.000000 0.000000 -0.182314 0.000000 0.000000
# 5 0.000000 0.000000 0.000000 0.000000 0.249568 0.000000
# 6 0.000000 0.000000 0.000000 0.000000 0.000000 0.035763
#
#
# Mechanical properties :
#
#
# Convention : Reuss Voigt Hill
#
# Bulk Modulus (GPa) = 33.98951 39.24330 36.61640
# Shear Modulus (GPa) = 31.79375 21.23368 26.51372
#
# Velocity S-wave (km/s) = 3.95928 3.23562 3.61560
# Velocity P-wave (km/s) = 6.13675 5.77130 5.95683
#
# Compressibility (1/GPa) = 0.02942084
#
# Stress axis : x y z
#
# Youngs Moduli (GPa) = 112.35503 59.65100 88.76277
#
# Poissons Ratio (x) = 0.03995 0.23622
# Poissons Ratio (y) = 0.07525 0.03763
# Poissons Ratio (z) = 0.29900 0.02529
#
# Static dielectric constant tensor:
#      x y z
#    x 1.703860 0.000000 0.000000 
#    y 0.000000 1.753120 0.000000 
#    z 0.000000 0.000000 1.766660 
# 
# From -- ./inp_files/36916.got.cif
#   From: 2010.05.17/outbox.cif.g08.bks.cpg/sg63_19_cif.got.tgz:36916.got - 2010.06.03 15:47:04.
