data_PCOD9474197
_publ_section_title
;
Structure prediction by ZEFSAII (Michael W. Deem and Ramdas Pophale) SiO2 
 PCOD9474197
Probable space group: C M C M
;
_chemical_formula_sum "Si O2"
_cell_formula_units_Z 88
_cell_length_a 27.344385
_cell_length_b 10.696065
_cell_length_c 15.301215
_cell_angle_alpha 90.000000
_cell_angle_beta 90.000000
_cell_angle_gamma 90.000000
_cell_volume 4475.258346
_symmetry_space_group_name_H-M "C M C M"
_symmetry_group_IT_number 63
_symmetry_cell_setting 'orthorhombic'
loop_
_space_group_symop_operation_xyz
x,y,z
-x,-y,1/2+z
x,-y,-z
-x,y,1/2-z
-x,-y,-z
x,y,1/2-z
-x,y,z
x,-y,1/2+z
1/2+x,1/2+y,z
1/2-x,1/2-y,1/2+z
1/2+x,1/2-y,-z
1/2-x,1/2+y,1/2-z
1/2-x,1/2-y,-z
1/2+x,1/2+y,1/2-z
1/2-x,1/2+y,z
1/2+x,1/2-y,1/2+z
loop_
_atom_site_type_symbol
_atom_site_label
_atom_site_fract_x
_atom_site_fract_y
_atom_site_fract_z
Si Si1 0.114072 0.740107 0.072652
Si Si2 0.692064 0.379980 0.648850
Si Si3 0.698762 0.921433 0.908899
Si Si4 0.443262 0.174420 0.250000
Si Si5 0.555359 0.872414 0.250000
Si Si6 0.368524 0.138995 0.893464
Si Si7 0.370357 0.500000 0.500000
O O1 0.172244 0.713953 0.088212
O O2 0.084140 0.717638 0.161057
O O3 0.102473 0.874150 0.029782
O O4 0.109782 0.642856 0.991527
O O5 0.679224 0.397777 0.750000
O O6 0.749425 0.403503 0.635639
O O7 0.673815 0.242603 0.619132
O O8 0.662842 0.468506 0.583458
O O9 0.657711 0.010487 0.865528
O O10 0.706635 0.000000 0.000000
O O11 0.500000 0.217174 0.250000
O O12 0.444460 0.023499 0.250000
O O13 0.500000 0.828166 0.250000
O O14 0.586505 0.829185 0.332276
#
# Coordination Sequence:
#
# PCOD9474197 Si02
#       7
#    16  16  16   8   8  16   8
#     4  10  23  41  64  88 128 167 202 257 306 371
#     4  11  23  35  59  89 128 170 213 250 298 374
#     4  10  21  37  60  88 130 170 204 249 305 361
#     4  11  24  42  68 100 120 149 214 269 324 377
#     4  11  22  40  66  96 126 157 206 269 322 375
#     4  10  22  41  59  92 134 164 207 256 315 377
#     4  10  24  42  57  86 128 168 213 238 304 374
#
# _framework density 19.663668999999999
#
# number of rings (size 3 to 8) (size 9 to 14) (size 15 to 20)
#    0.000    1.636    3.636    0.000    6.364    2.909 
#    0.000    2.273    0.000    5.455    0.000    0.000 
#    0.000    0.000    0.000    0.000    0.000    0.000 
#
# Total GULP energy -245087.259492 kJ/mol
# GULP energy per Si atom -5570.164988 kJ/mol
# Density = 1.961891 g / cm^3
# Si number density = 19.663669 Si / 1000 Ang^3
#
#
#
# Elastic Constant Matrix: (Units=GPa)
#
#
# Indices 1 2 3 4 5 6 
#
# 1 100.3389 16.2381 55.1849 0.0000 0.0000 0.0000
# 2 16.2381 87.4694 14.5500 0.0000 0.0000 0.0000
# 3 55.1849 14.5500 148.1681 0.0000 0.0000 0.0000
# 4 0.0000 0.0000 0.0000 16.8561 0.0000 0.0000
# 5 0.0000 0.0000 0.0000 0.0000 -906.6849 0.0000
# 6 0.0000 0.0000 0.0000 0.0000 0.0000 10.4392
#
#
#
# Elastic Compliance Matrix: (Units=1/GPa)
#
#
# Indices 1 2 3 4 5 6 
#
# 1 0.012751 -0.001603 -0.004592 0.000000 0.000000 0.000000
# 2 -0.001603 0.011824 -0.000564 0.000000 0.000000 0.000000
# 3 -0.004592 -0.000564 0.008515 0.000000 0.000000 0.000000
# 4 0.000000 0.000000 0.000000 0.059326 0.000000 0.000000
# 5 0.000000 0.000000 0.000000 0.000000 -0.001103 0.000000
# 6 0.000000 0.000000 0.000000 0.000000 0.000000 0.095793
#
#
# Mechanical properties :
#
#
# Convention : Reuss Voigt Hill
#
# Bulk Modulus (GPa) = 51.09393 56.43582 53.76488
# Shear Modulus (GPa) = 24.13747 -159.21101 -67.53677
#
# Velocity S-wave (km/s) = 3.50739 -9.00793 -5.86690
# Velocity P-wave (km/s) = 6.51481 8.91222 4.30028
#
# Compressibility (1/GPa) = 0.01957180
#
# Stress axis : x y z
#
# Youngs Moduli (GPa) = 78.42505 84.57352 117.44510
#
# Poissons Ratio (x) = 0.13560 0.53927
# Poissons Ratio (y) = 0.12574 0.06623
# Poissons Ratio (z) = 0.36010 0.04770
#
# Static dielectric constant tensor:
#      x y z
#    x 1.659700 0.000000 0.000000 
#    y 0.000000 1.769880 0.000000 
#    z 0.000000 0.000000 1.756860 
# 
# From -- ./inp_files/37805.got.cif
#   From: 2010.05.17/outbox.cif.g08.bks.cpg/sg63_19_cif.got.tgz:37805.got - 2010.06.03 15:47:04.
