data_PCOD9474374
_publ_section_title
;
Structure prediction by ZEFSAII (Michael W. Deem and Ramdas Pophale) SiO2 
 PCOD9474374
Probable space group: C M C M
;
_chemical_formula_sum "Si O2"
_cell_formula_units_Z 100
_cell_length_a 21.706224
_cell_length_b 27.228912
_cell_length_c 8.306886
_cell_angle_alpha 90.000000
_cell_angle_beta 90.000000
_cell_angle_gamma 90.000000
_cell_volume 4909.675844
_symmetry_space_group_name_H-M "C M C M"
_symmetry_group_IT_number 63
_symmetry_cell_setting 'orthorhombic'
loop_
_space_group_symop_operation_xyz
x,y,z
-x,-y,1/2+z
x,-y,-z
-x,y,1/2-z
-x,-y,-z
x,y,1/2-z
-x,y,z
x,-y,1/2+z
1/2+x,1/2+y,z
1/2-x,1/2-y,1/2+z
1/2+x,1/2-y,-z
1/2-x,1/2+y,1/2-z
1/2-x,1/2-y,-z
1/2+x,1/2+y,1/2-z
1/2-x,1/2+y,z
1/2+x,1/2-y,1/2+z
loop_
_atom_site_type_symbol
_atom_site_label
_atom_site_fract_x
_atom_site_fract_y
_atom_site_fract_z
Si Si1 0.680931 0.262808 0.944339
Si Si2 0.905856 0.581253 0.062372
Si Si3 0.273929 0.946701 0.061939
Si Si4 0.328844 0.624991 0.061118
Si Si5 0.926699 0.946226 0.439196
Si Si6 0.000000 0.500000 0.500000
Si Si7 0.930200 0.308461 0.444971
O O1 0.680455 0.260704 0.750000
O O2 0.667539 0.318828 0.993574
O O3 0.626128 0.226462 0.000258
O O4 0.750000 0.250000 0.000000
O O5 0.922679 0.574429 0.250000
O O6 0.946696 0.541860 0.969182
O O7 0.834800 0.569119 0.033374
O O8 0.919655 0.636741 0.010482
O O9 0.288916 0.950022 0.250000
O O10 0.222243 0.906024 0.032741
O O11 0.252990 0.000000 0.000000
O O12 0.312580 0.624518 0.250000
O O13 0.392085 0.596200 0.033793
O O14 0.912554 0.942131 0.250000
O O15 0.000000 0.942783 0.461001
O O16 0.907065 0.000000 0.500000
O O17 0.928043 0.310186 0.250000
O O18 0.000000 0.292274 0.490098
#
# Coordination Sequence:
#
# PCOD9474374 Si02
#       7
#    16  16  16  16  16   4  16
#     4  10  23  42  64  90 119 160 206 255 311 369
#     4  12  25  42  64  93 128 164 207 250 302 362
#     4  12  25  41  62  89 124 164 207 253 307 364
#     4  11  23  40  63  91 124 160 205 257 311 367
#     4  10  21  38  61  91 127 165 205 249 305 369
#     4  12  26  40  64  90 134 168 204 248 300 360
#     4  10  22  41  65  91 123 161 206 255 307 363
#
# _framework density 20.367941999999999
#
# number of rings (size 3 to 8) (size 9 to 14) (size 15 to 20)
#    0.000    1.120    1.600    4.560    0.000    8.000 
#    0.000    1.600    0.000    0.000    0.000    0.000 
#    0.000    0.000    0.000    0.000    0.000    0.000 
#
# Total GULP energy -279095.901569 kJ/mol
# GULP energy per Si atom -5581.918031 kJ/mol
# Density = 2.032158 g / cm^3
# Si number density = 20.367942 Si / 1000 Ang^3
#
#
#
# Elastic Constant Matrix: (Units=GPa)
#
#
# Indices 1 2 3 4 5 6 
#
# 1 95.7023 67.6268 11.5620 0.0000 0.0000 0.0000
# 2 67.6268 167.9305 8.5330 0.0000 0.0000 0.0000
# 3 11.5620 8.5330 23.2941 0.0000 0.0000 0.0000
# 4 0.0000 0.0000 0.0000 19.8039 0.0000 0.0000
# 5 0.0000 0.0000 0.0000 0.0000 16.8199 0.0000
# 6 0.0000 0.0000 0.0000 0.0000 0.0000 142.9355
#
#
#
# Elastic Compliance Matrix: (Units=1/GPa)
#
#
# Indices 1 2 3 4 5 6 
#
# 1 0.015248 -0.005865 -0.005420 0.000000 0.000000 0.000000
# 2 -0.005865 0.008324 -0.000138 0.000000 0.000000 0.000000
# 3 -0.005420 -0.000138 0.045670 0.000000 0.000000 0.000000
# 4 0.000000 0.000000 0.000000 0.050495 0.000000 0.000000
# 5 0.000000 0.000000 0.000000 0.000000 0.059453 0.000000
# 6 0.000000 0.000000 0.000000 0.000000 0.000000 0.006996
#
#
# Mechanical properties :
#
#
# Convention : Reuss Voigt Hill
#
# Bulk Modulus (GPa) = 21.55364 51.37450 36.46407
# Shear Modulus (GPa) = 22.27186 49.19221 35.73203
#
# Velocity S-wave (km/s) = 3.31036 4.91978 4.19301
# Velocity P-wave (km/s) = 5.02160 7.58619 6.43299
#
# Compressibility (1/GPa) = 0.04639587
#
# Stress axis : x y z
#
# Youngs Moduli (GPa) = 65.58026 120.13683 21.89623
#
# Poissons Ratio (x) = 0.70464 0.11868
# Poissons Ratio (y) = 0.38465 0.00302
# Poissons Ratio (z) = 0.35544 0.01657
#
# Static dielectric constant tensor:
#      x y z
#    x 1.589270 0.000000 0.000000 
#    y 0.000000 1.684980 0.000000 
#    z 0.000000 0.000000 1.721820 
# 
# From -- ./inp_files/8766.got.cif
#   From: 2010.05.17/outbox.cif.g08.bks.cpg/sg63_5_cif.got.tgz:8766.got - 2010.06.03 15:47:04.
