data_PCOD9474076
_publ_section_title
;
Structure prediction by ZEFSAII (Michael W. Deem and Ramdas Pophale) SiO2 
 PCOD9474076
Probable space group: C M C M
;
_chemical_formula_sum "Si O2"
_cell_formula_units_Z 72
_cell_length_a 14.517359
_cell_length_b 7.409924
_cell_length_c 25.957698
_cell_angle_alpha 90.000000
_cell_angle_beta 90.000000
_cell_angle_gamma 90.000000
_cell_volume 2792.335166
_symmetry_space_group_name_H-M "C M C M"
_symmetry_group_IT_number 63
_symmetry_cell_setting 'orthorhombic'
loop_
_space_group_symop_operation_xyz
x,y,z
-x,-y,1/2+z
x,-y,-z
-x,y,1/2-z
-x,-y,-z
x,y,1/2-z
-x,y,z
x,-y,1/2+z
1/2+x,1/2+y,z
1/2-x,1/2-y,1/2+z
1/2+x,1/2-y,-z
1/2-x,1/2+y,1/2-z
1/2-x,1/2-y,-z
1/2+x,1/2+y,1/2-z
1/2-x,1/2+y,z
1/2+x,1/2-y,1/2+z
loop_
_atom_site_type_symbol
_atom_site_label
_atom_site_fract_x
_atom_site_fract_y
_atom_site_fract_z
Si Si1 0.679154 0.646211 0.463113
Si Si2 0.848249 0.357788 0.193770
Si Si3 0.143379 0.497635 0.587675
Si Si4 0.500000 0.732974 0.895688
Si Si5 0.631255 0.568275 0.808290
O O1 0.630791 0.500000 0.500000
O O2 0.750000 0.750000 0.500000
O O3 0.749221 0.549319 0.422484
O O4 0.623792 0.806160 0.436622
O O5 0.876441 0.424958 0.250000
O O6 0.884597 0.475906 0.147222
O O7 0.737757 0.371204 0.189741
O O8 0.874281 0.149129 0.189256
O O9 0.080366 0.335365 0.569826
O O10 0.578526 0.644681 0.857104
O O11 0.600403 0.619405 0.750000
#
# Coordination Sequence:
#
# PCOD9474076 Si02
#       5
#    16  16  16   8  16
#     4   9  20  42  69  91 116 160 212 259 310 381
#     4  10  21  39  64  91 122 169 223 260 298 370
#     4  11  22  39  65  97 129 164 208 260 320 380
#     4  12  25  36  54  92 133 164 200 258 324 376
#     4  10  21  37  56  83 124 172 217 258 302 361
#
# _framework density 25.784872
#
# number of rings (size 3 to 8) (size 9 to 14) (size 15 to 20)
#    0.000    1.778    0.000    4.333    0.000    6.222 
#    0.000    6.667    0.000    0.000    0.000    0.000 
#    0.000    0.000    0.000    0.000    0.000    0.000 
#
# Total GULP energy -200474.056679 kJ/mol
# GULP energy per Si atom -5568.723797 kJ/mol
# Density = 2.572618 g / cm^3
# Si number density = 25.784872 Si / 1000 Ang^3
#
#
#
# Elastic Constant Matrix: (Units=GPa)
#
#
# Indices 1 2 3 4 5 6 
#
# 1 64.4594 8.4178 1.6030 0.0000 0.0000 0.0000
# 2 8.4178 115.6911 40.5823 0.0000 0.0000 0.0000
# 3 1.6030 40.5823 101.1229 0.0000 0.0000 0.0000
# 4 0.0000 0.0000 0.0000 46.5750 0.0000 0.0000
# 5 0.0000 0.0000 0.0000 0.000013442.0779 0.0000
# 6 0.0000 0.0000 0.0000 0.0000 0.0000 112.0315
#
#
#
# Elastic Compliance Matrix: (Units=1/GPa)
#
#
# Indices 1 2 3 4 5 6 
#
# 1 0.015668 -0.001225 0.000243 0.000000 0.000000 0.000000
# 2 -0.001225 0.010156 -0.004056 0.000000 0.000000 0.000000
# 3 0.000243 -0.004056 0.011513 0.000000 0.000000 0.000000
# 4 0.000000 0.000000 0.000000 0.021471 0.000000 0.000000
# 5 0.000000 0.000000 0.000000 0.000000 0.000074 0.000000
# 6 0.000000 0.000000 0.000000 0.000000 0.000000 0.008926
#
#
# Mechanical properties :
#
#
# Convention : Reuss Voigt Hill
#
# Bulk Modulus (GPa) = 36.68399 42.49774 39.59087
# Shear Modulus (GPa) = 57.49076 2735.51490 1396.50283
#
# Velocity S-wave (km/s) = 4.72702 32.60678 23.29750
# Velocity P-wave (km/s) = 6.63708 37.86978 27.18613
#
# Compressibility (1/GPa) = 0.02725985
#
# Stress axis : x y z
#
# Youngs Moduli (GPa) = 63.82593 98.46671 86.85883
#
# Poissons Ratio (x) = 0.12066 -0.02114
# Poissons Ratio (y) = 0.07821 0.35232
# Poissons Ratio (z) = -0.01553 0.39940
#
# Static dielectric constant tensor:
#      x y z
#    x 1.999200 0.000000 0.000000 
#    y 0.000000 2.125210 0.000000 
#    z 0.000000 0.000000 2.081130 
# 
# From -- ./inp_files/69066.got.cif
#   From: 2010.05.17/outbox.cif.g08.bks.cpg/sg63_35_cif.got.tgz:69066.got - 2010.06.03 15:47:04.
