data_PCOD9474282
_publ_section_title
;
Structure prediction by ZEFSAII (Michael W. Deem and Ramdas Pophale) SiO2 
 PCOD9474282
Probable space group: C M C M
;
_chemical_formula_sum "Si O2"
_cell_formula_units_Z 116
_cell_length_a 17.029592
_cell_length_b 14.437728
_cell_length_c 23.811752
_cell_angle_alpha 90.000000
_cell_angle_beta 90.000000
_cell_angle_gamma 90.000000
_cell_volume 5854.562538
_symmetry_space_group_name_H-M "C M C M"
_symmetry_group_IT_number 63
_symmetry_cell_setting 'orthorhombic'
loop_
_space_group_symop_operation_xyz
x,y,z
-x,-y,1/2+z
x,-y,-z
-x,y,1/2-z
-x,-y,-z
x,y,1/2-z
-x,y,z
x,-y,1/2+z
1/2+x,1/2+y,z
1/2-x,1/2-y,1/2+z
1/2+x,1/2-y,-z
1/2-x,1/2+y,1/2-z
1/2-x,1/2-y,-z
1/2+x,1/2+y,1/2-z
1/2-x,1/2+y,z
1/2+x,1/2-y,1/2+z
loop_
_atom_site_type_symbol
_atom_site_label
_atom_site_fract_x
_atom_site_fract_y
_atom_site_fract_z
Si Si1 0.822940 0.457834 0.598125
Si Si2 0.000000 0.115072 0.250000
Si Si3 0.628678 0.676214 0.896678
Si Si4 0.082550 0.819881 0.857600
Si Si5 0.816060 0.670833 0.899728
Si Si6 0.639889 0.523120 0.434075
Si Si7 0.909559 0.670266 0.183704
Si Si8 0.089994 0.328215 0.987372
O O1 0.839311 0.564765 0.611859
O O2 0.731270 0.456583 0.581018
O O3 0.848539 0.394009 0.650203
O O4 0.872326 0.414215 0.546768
O O5 0.067365 0.124406 0.199698
O O6 0.722836 0.680056 0.903253
O O7 0.609167 0.568871 0.902826
O O8 0.603120 0.726002 0.839576
O O9 0.593548 0.740215 0.945734
O O10 0.150813 0.745009 0.856067
O O11 0.000000 0.767051 0.866560
O O12 0.095116 0.889153 0.909338
O O13 0.856073 0.692459 0.959347
O O14 0.633727 0.500000 0.500000
O O15 0.899445 0.664739 0.250000
O O16 0.000000 0.643083 0.169660
O O17 0.000000 0.347233 0.002482
#
# Coordination Sequence:
#
# PCOD9474282 Si02
#       8
#    16   4  16  16  16  16  16  16
#     4  10  21  38  58  90 122 158 194 242 308 363
#     4   8  24  48  54  80 114 166 214 242 306 352
#     4  10  21  38  59  88 116 156 195 243 305 353
#     4  10  22  41  59  83 117 162 202 251 296 363
#     4  11  21  36  58  89 118 155 198 236 297 365
#     4  11  22  39  63  93 125 157 199 253 309 371
#     4  10  22  43  63  87 117 156 209 263 305 356
#     4  11  21  34  59  88 125 156 190 243 299 363
#
# _framework density 19.813606
#
# number of rings (size 3 to 8) (size 9 to 14) (size 15 to 20)
#    0.414    1.241    0.000    7.034    0.000    4.138 
#    7.448    1.379    0.000    0.000    0.000    0.000 
#    0.000    0.000    0.000    0.000    0.000    0.000 
#
# Total GULP energy -323204.266819 kJ/mol
# GULP energy per Si atom -5572.487359 kJ/mol
# Density = 1.976851 g / cm^3
# Si number density = 19.813606 Si / 1000 Ang^3
#
#
#
# Elastic Constant Matrix: (Units=GPa)
#
#
# Indices 1 2 3 4 5 6 
#
# 1 53.8831 7.6786 13.7719 0.0000 0.0000 0.0000
# 2 7.6786 70.2634 11.9269 0.0000 0.0000 0.0000
# 3 13.7719 11.9269 91.1917 0.0000 0.0000 0.0000
# 4 0.0000 0.0000 0.0000 9.0736 0.0000 0.0000
# 5 0.0000 0.0000 0.0000 0.0000 28.3562 0.0000
# 6 0.0000 0.0000 0.0000 0.0000 0.0000 -25.8860
#
#
#
# Elastic Compliance Matrix: (Units=1/GPa)
#
#
# Indices 1 2 3 4 5 6 
#
# 1 0.019493 -0.001668 -0.002726 0.000000 0.000000 0.000000
# 2 -0.001668 0.014698 -0.001670 0.000000 0.000000 0.000000
# 3 -0.002726 -0.001670 0.011596 0.000000 0.000000 0.000000
# 4 0.000000 0.000000 0.000000 0.110210 0.000000 0.000000
# 5 0.000000 0.000000 0.000000 0.000000 0.035266 0.000000
# 6 0.000000 0.000000 0.000000 0.000000 0.000000 -0.038631
#
#
# Mechanical properties :
#
#
# Convention : Reuss Voigt Hill
#
# Bulk Modulus (GPa) = 29.70944 31.34368 30.52656
# Shear Modulus (GPa) = 28.41255 14.43951 21.42603
#
# Velocity S-wave (km/s) = 3.79092 2.70250 3.29200
# Velocity P-wave (km/s) = 5.84709 5.05881 5.46718
#
# Compressibility (1/GPa) = 0.03365933
#
# Stress axis : x y z
#
# Youngs Moduli (GPa) = 51.30047 68.03672 86.23636
#
# Poissons Ratio (x) = 0.11346 0.23506
# Poissons Ratio (y) = 0.08555 0.14406
# Poissons Ratio (z) = 0.13983 0.11365
#
# Static dielectric constant tensor:
#      x y z
#    x 1.705250 0.000000 0.000000 
#    y 0.000000 1.719900 0.000000 
#    z 0.000000 0.000000 1.683560 
# 
# From -- ./inp_files/63929.got.cif
#   From: 2010.05.17/outbox.cif.g08.bks.cpg/sg63_32_cif.got.tgz:63929.got - 2010.06.03 15:47:04.
