data_PCOD9474241
_publ_section_title
;
Structure prediction by ZEFSAII (Michael W. Deem and Ramdas Pophale) SiO2 
 PCOD9474241
Probable space group: C M C M
;
_chemical_formula_sum "Si O2"
_cell_formula_units_Z 88
_cell_length_a 12.391780
_cell_length_b 20.481216
_cell_length_c 16.144721
_cell_angle_alpha 90.000000
_cell_angle_beta 90.000000
_cell_angle_gamma 90.000000
_cell_volume 4097.509570
_symmetry_space_group_name_H-M "C M C M"
_symmetry_group_IT_number 63
_symmetry_cell_setting 'orthorhombic'
loop_
_space_group_symop_operation_xyz
x,y,z
-x,-y,1/2+z
x,-y,-z
-x,y,1/2-z
-x,-y,-z
x,y,1/2-z
-x,y,z
x,-y,1/2+z
1/2+x,1/2+y,z
1/2-x,1/2-y,1/2+z
1/2+x,1/2-y,-z
1/2-x,1/2+y,1/2-z
1/2-x,1/2-y,-z
1/2+x,1/2+y,1/2-z
1/2-x,1/2+y,z
1/2+x,1/2-y,1/2+z
loop_
_atom_site_type_symbol
_atom_site_label
_atom_site_fract_x
_atom_site_fract_y
_atom_site_fract_z
Si Si1 0.500000 0.802873 0.147900
Si Si2 0.210764 0.633164 0.931547
Si Si3 0.241578 0.991623 0.157784
Si Si4 0.248567 0.642444 0.126812
Si Si5 0.878377 0.226247 0.655979
Si Si6 0.500000 0.474454 0.846202
Si Si7 0.000000 0.841344 0.879158
O O1 0.500000 0.794015 0.250000
O O2 0.605770 0.839026 0.114824
O O3 0.500000 0.734091 0.098602
O O4 0.212596 0.556736 0.909970
O O5 0.309961 0.674270 0.894511
O O6 0.224467 0.643246 0.028933
O O7 0.269156 0.967303 0.250000
O O8 0.273842 0.067760 0.153222
O O9 0.111667 0.988587 0.147296
O O10 0.177774 0.702766 0.157950
O O11 0.373923 0.655318 0.152060
O O12 0.882008 0.202056 0.750000
O O13 0.000000 0.232423 0.623640
O O14 0.500000 0.446609 0.750000
O O15 0.500000 0.415724 0.913428
#
# Coordination Sequence:
#
# PCOD9474241 Si02
#       7
#     8  16  16  16  16   8   8
#     4  12  25  42  66  92 125 168 219 266 316 375
#     4  12  26  41  66  96 132 165 210 268 326 377
#     4  10  21  41  64  92 129 169 217 259 313 377
#     4  11  24  42  67  95 132 169 215 262 319 377
#     4  11  25  43  67  95 129 172 217 259 316 385
#     4   8  17  33  61  92 119 162 211 261 305 360
#     4  10  21  37  66  94 126 166 212 263 309 373
#
# _framework density 21.476459999999999
#
# number of rings (size 3 to 8) (size 9 to 14) (size 15 to 20)
#    0.000    1.273    1.818    3.545    3.818    1.455 
#    1.636    3.636    0.000    0.000    0.000    0.000 
#    0.000    0.000    0.000    0.000    0.000    0.000 
#
# Total GULP energy -245119.267199 kJ/mol
# GULP energy per Si atom -5570.892436 kJ/mol
# Density = 2.142758 g / cm^3
# Si number density = 21.476460 Si / 1000 Ang^3
#
#
#
# Elastic Constant Matrix: (Units=GPa)
#
#
# Indices 1 2 3 4 5 6 
#
# 1 97.5251 16.8530 11.9720 0.0000 0.0000 0.0000
# 2 16.8530 89.5708 6.7010 0.0000 0.0000 0.0000
# 3 11.9720 6.7010 108.8119 0.0000 0.0000 0.0000
# 4 0.0000 0.0000 0.0000 -9.9594 0.0000 0.0000
# 5 0.0000 0.0000 0.0000 0.0000 -9.0562 0.0000
# 6 0.0000 0.0000 0.0000 0.0000 0.0000 -31.6967
#
#
#
# Elastic Compliance Matrix: (Units=1/GPa)
#
#
# Indices 1 2 3 4 5 6 
#
# 1 0.010719 -0.001937 -0.001060 0.000000 0.000000 0.000000
# 2 -0.001937 0.011566 -0.000499 0.000000 0.000000 0.000000
# 3 -0.001060 -0.000499 0.009338 0.000000 0.000000 0.000000
# 4 0.000000 0.000000 0.000000 -0.100407 0.000000 0.000000
# 5 0.000000 0.000000 0.000000 0.000000 -0.110421 0.000000
# 6 0.000000 0.000000 0.000000 0.000000 0.000000 -0.031549
#
#
# Mechanical properties :
#
#
# Convention : Reuss Voigt Hill
#
# Bulk Modulus (GPa) = 40.60203 40.77330 40.68767
# Shear Modulus (GPa) = -25.56864 7.21631 -9.17616
#
# Velocity S-wave (km/s) = -3.45417 1.83505 -2.06928
# Velocity P-wave (km/s) = 1.74300 4.84935 3.64378
#
# Compressibility (1/GPa) = 0.02462931
#
# Stress axis : x y z
#
# Youngs Moduli (GPa) = 93.29486 86.45859 107.09463
#
# Poissons Ratio (x) = 0.16751 0.11352
# Poissons Ratio (y) = 0.18075 0.05345
# Poissons Ratio (z) = 0.09889 0.04315
#
# Static dielectric constant tensor:
#      x y z
#    x 1.766260 0.000000 0.000000 
#    y 0.000000 1.755920 0.000000 
#    z 0.000000 0.000000 1.599550 
# 
# From -- ./inp_files/42328.got.cif
#   From: 2010.05.17/outbox.cif.g08.bks.cpg/sg63_22_cif.got.tgz:42328.got - 2010.06.03 15:47:04.
