data_PCOD9474767
_publ_section_title
;
Structure prediction by ZEFSAII (Michael W. Deem and Ramdas Pophale) SiO2 
 PCOD9474767
Probable space group: C M C M
;
_chemical_formula_sum "Si O2"
_cell_formula_units_Z 64
_cell_length_a 17.587451
_cell_length_b 10.311228
_cell_length_c 15.867281
_cell_angle_alpha 90.000000
_cell_angle_beta 90.000000
_cell_angle_gamma 90.000000
_cell_volume 2877.503121
_symmetry_space_group_name_H-M "C M C M"
_symmetry_group_IT_number 63
_symmetry_cell_setting 'orthorhombic'
loop_
_space_group_symop_operation_xyz
x,y,z
-x,-y,1/2+z
x,-y,-z
-x,y,1/2-z
-x,-y,-z
x,y,1/2-z
-x,y,z
x,-y,1/2+z
1/2+x,1/2+y,z
1/2-x,1/2-y,1/2+z
1/2+x,1/2-y,-z
1/2-x,1/2+y,1/2-z
1/2-x,1/2-y,-z
1/2+x,1/2+y,1/2-z
1/2-x,1/2+y,z
1/2+x,1/2-y,1/2+z
loop_
_atom_site_type_symbol
_atom_site_label
_atom_site_fract_x
_atom_site_fract_y
_atom_site_fract_z
Si Si1 0.703873 0.652763 0.900442
Si Si2 0.869998 0.910384 0.934320
Si Si3 0.122270 0.342886 0.348528
Si Si4 0.583911 0.130677 0.148175
O O1 0.665765 0.515543 0.870795
O O2 0.786705 0.663128 0.861914
O O3 0.649765 0.772579 0.879351
O O4 0.697738 0.636937 0.002172
O O5 0.907180 0.785078 0.895221
O O6 0.916249 0.000000 0.000000
O O7 0.103555 0.335139 0.250000
O O8 0.095897 0.482654 0.381463
O O9 0.585661 0.126564 0.250000
O O10 0.500000 0.176177 0.121419
#
# Coordination Sequence:
#
# PCOD9474767 Si02
#       4
#    16  16  16  16
#     4   9  19  36  58  82 112 152 196 236 280 346
#     4   8  21  36  54  83 114 148 189 250 290 329
#     4  11  20  34  59  86 114 153 201 239 281 348
#     4  10  22  38  57  87 123 152 185 239 299 342
#
# _framework density 22.241505
#
# number of rings (size 3 to 8) (size 9 to 14) (size 15 to 20)
#    1.500    0.750    0.000    3.000    0.000    5.000 
#    0.000    6.250    0.000    3.000    0.000    0.000 
#    0.000    0.000    0.000    0.000    0.000    0.000 
#
# Total GULP energy -178280.064438 kJ/mol
# GULP energy per Si atom -5571.252014 kJ/mol
# Density = 2.219088 g / cm^3
# Si number density = 22.241505 Si / 1000 Ang^3
#
#
#
# Elastic Constant Matrix: (Units=GPa)
#
#
# Indices 1 2 3 4 5 6 
#
# 1 101.5429 33.1761 1.4739 0.0000 0.0000 0.0000
# 2 33.1761 154.2571 28.9821 0.0000 0.0000 0.0000
# 3 1.4739 28.9821 39.1116 0.0000 0.0000 0.0000
# 4 0.0000 0.0000 0.0000 26.9637 0.0000 0.0000
# 5 0.0000 0.0000 0.0000 0.0000 -64.3490 0.0000
# 6 0.0000 0.0000 0.0000 0.0000 0.0000 -47.2272
#
#
#
# Elastic Compliance Matrix: (Units=1/GPa)
#
#
# Indices 1 2 3 4 5 6 
#
# 1 0.010668 -0.002578 0.001508 0.000000 0.000000 0.000000
# 2 -0.002578 0.008154 -0.005945 0.000000 0.000000 0.000000
# 3 0.001508 -0.005945 0.029916 0.000000 0.000000 0.000000
# 4 0.000000 0.000000 0.000000 0.037087 0.000000 0.000000
# 5 0.000000 0.000000 0.000000 0.000000 -0.015540 0.000000
# 6 0.000000 0.000000 0.000000 0.000000 0.000000 -0.021174
#
#
# Mechanical properties :
#
#
# Convention : Reuss Voigt Hill
#
# Bulk Modulus (GPa) = 28.81067 46.90841 37.85954
# Shear Modulus (GPa) = 66.92492 -1.50386 32.71053
#
# Velocity S-wave (km/s) = 5.49140 -0.82318 3.83913
# Velocity P-wave (km/s) = 7.29307 4.49809 6.05895
#
# Compressibility (1/GPa) = 0.03470937
#
# Stress axis : x y z
#
# Youngs Moduli (GPa) = 93.73495 122.63810 33.42643
#
# Poissons Ratio (x) = 0.31614 -0.05041
# Poissons Ratio (y) = 0.24163 0.19872
# Poissons Ratio (z) = -0.14137 0.72910
#
# Static dielectric constant tensor:
#      x y z
#    x 1.817870 0.000000 0.000000 
#    y 0.000000 1.899870 0.000000 
#    z 0.000000 0.000000 1.836600 
# 
# From -- ./inp_files/46722.got.cif
#   From: 2010.05.17/outbox.cif.g08.bks.cpg/sg63_24_cif.got.tgz:46722.got - 2010.06.03 15:47:04.
