data_PCOD9474007
_publ_section_title
;
Structure prediction by ZEFSAII (Michael W. Deem and Ramdas Pophale) SiO2 
 PCOD9474007
Probable space group: C M C M
;
_chemical_formula_sum "Si O2"
_cell_formula_units_Z 96
_cell_length_a 17.897092
_cell_length_b 10.462353
_cell_length_c 25.910881
_cell_angle_alpha 90.000000
_cell_angle_beta 90.000000
_cell_angle_gamma 90.000000
_cell_volume 4851.700900
_symmetry_space_group_name_H-M "C M C M"
_symmetry_group_IT_number 63
_symmetry_cell_setting 'orthorhombic'
loop_
_space_group_symop_operation_xyz
x,y,z
-x,-y,1/2+z
x,-y,-z
-x,y,1/2-z
-x,-y,-z
x,y,1/2-z
-x,y,z
x,-y,1/2+z
1/2+x,1/2+y,z
1/2-x,1/2-y,1/2+z
1/2+x,1/2-y,-z
1/2-x,1/2+y,1/2-z
1/2-x,1/2-y,-z
1/2+x,1/2+y,1/2-z
1/2-x,1/2+y,z
1/2+x,1/2-y,1/2+z
loop_
_atom_site_type_symbol
_atom_site_label
_atom_site_fract_x
_atom_site_fract_y
_atom_site_fract_z
Si Si1 0.086469 0.381608 0.472719
Si Si2 0.587214 0.723407 0.119910
Si Si3 0.837096 0.001574 0.062212
Si Si4 0.210770 0.694732 0.689039
Si Si5 0.702512 0.920620 0.632255
Si Si6 0.585911 0.243938 0.080460
O O1 0.125250 0.500000 0.500000
O O2 0.119857 0.327262 0.420848
O O3 0.083447 0.280568 0.518821
O O4 0.000000 0.417443 0.460212
O O5 0.500000 0.742226 0.127396
O O6 0.601651 0.593792 0.088568
O O7 0.632426 0.740395 0.172011
O O8 0.759458 0.055185 0.084717
O O9 0.858301 0.863010 0.084502
O O10 0.838540 0.000000 0.000000
O O11 0.221080 0.688468 0.750000
O O12 0.268754 0.796140 0.664039
O O13 0.208870 0.550045 0.666153
O O14 0.622153 0.877241 0.609729
O O15 0.500000 0.266631 0.096928
#
# Coordination Sequence:
#
# PCOD9474007 Si02
#       6
#    16  16  16  16  16  16
#     4   9  17  30  51  84 124 161 196 247 309 368
#     4  10  21  36  59  92 125 162 213 263 316 382
#     4  11  22  38  64  94 134 177 215 255 315 391
#     4  11  24  43  67  89 120 168 219 273 338 390
#     4  11  24  43  65  97 127 168 217 277 323 386
#     4  11  22  38  64  95 131 173 212 255 316 388
#
# _framework density 19.786875999999999
#
# number of rings (size 3 to 8) (size 9 to 14) (size 15 to 20)
#    0.000    1.500    3.333    2.000    0.000    5.667 
#    0.000    0.000    0.000    1.500    0.000    0.000 
#    0.000    0.000    0.000    0.000    0.000    0.000 
#
# Total GULP energy -267625.573513 kJ/mol
# GULP energy per Si atom -5575.532782 kJ/mol
# Density = 1.974184 g / cm^3
# Si number density = 19.786876 Si / 1000 Ang^3
#
#
#
# Elastic Constant Matrix: (Units=GPa)
#
#
# Indices 1 2 3 4 5 6 
#
# 1 70.3437 8.0819 41.4984 0.0000 0.0000 0.0000
# 2 8.0819 103.7085 46.3436 0.0000 0.0000 0.0000
# 3 41.4984 46.3436 90.3411 0.0000 0.0000 0.0000
# 4 0.0000 0.0000 0.0000 27.0565 0.0000 0.0000
# 5 0.0000 0.0000 0.0000 0.0000 12.9542 0.0000
# 6 0.0000 0.0000 0.0000 0.0000 0.0000 22.1776
#
#
#
# Elastic Compliance Matrix: (Units=1/GPa)
#
#
# Indices 1 2 3 4 5 6 
#
# 1 0.020367 0.003365 -0.011082 0.000000 0.000000 0.000000
# 2 0.003365 0.013066 -0.008248 0.000000 0.000000 0.000000
# 3 -0.011082 -0.008248 0.020391 0.000000 0.000000 0.000000
# 4 0.000000 0.000000 0.000000 0.036960 0.000000 0.000000
# 5 0.000000 0.000000 0.000000 0.000000 0.077195 0.000000
# 6 0.000000 0.000000 0.000000 0.000000 0.000000 0.045090
#
#
# Mechanical properties :
#
#
# Convention : Reuss Voigt Hill
#
# Bulk Modulus (GPa) = 45.67592 50.69346 48.18469
# Shear Modulus (GPa) = 19.81791 23.66895 21.74343
#
# Velocity S-wave (km/s) = 3.16819 3.46236 3.31853
# Velocity P-wave (km/s) = 6.04295 6.45440 6.25206
#
# Compressibility (1/GPa) = 0.02189337
#
# Stress axis : x y z
#
# Youngs Moduli (GPa) = 49.09952 76.53415 49.04179
#
# Poissons Ratio (x) = -0.25752 0.54346
# Poissons Ratio (y) = -0.16521 0.40451
# Poissons Ratio (z) = 0.54410 0.63128
#
# Static dielectric constant tensor:
#      x y z
#    x 1.700120 0.000000 0.000000 
#    y 0.000000 1.806110 0.000000 
#    z 0.000000 0.000000 1.665030 
# 
# From -- ./inp_files/69865.got.cif
#   From: 2010.05.17/outbox.cif.g08.bks.cpg/sg63_35_cif.got.tgz:69865.got - 2010.06.03 15:47:04.
