data_PCOD9474644
_publ_section_title
;
Structure prediction by ZEFSAII (Michael W. Deem and Ramdas Pophale) SiO2 
 PCOD9474644
Probable space group: C M C M
;
_chemical_formula_sum "Si O2"
_cell_formula_units_Z 68
_cell_length_a 23.450475
_cell_length_b 16.732614
_cell_length_c 7.782555
_cell_angle_alpha 90.000000
_cell_angle_beta 90.000000
_cell_angle_gamma 90.000000
_cell_volume 3053.779217
_symmetry_space_group_name_H-M "C M C M"
_symmetry_group_IT_number 63
_symmetry_cell_setting 'orthorhombic'
loop_
_space_group_symop_operation_xyz
x,y,z
-x,-y,1/2+z
x,-y,-z
-x,y,1/2-z
-x,-y,-z
x,y,1/2-z
-x,y,z
x,-y,1/2+z
1/2+x,1/2+y,z
1/2-x,1/2-y,1/2+z
1/2+x,1/2-y,-z
1/2-x,1/2+y,1/2-z
1/2-x,1/2-y,-z
1/2+x,1/2+y,1/2-z
1/2-x,1/2+y,z
1/2+x,1/2-y,1/2+z
loop_
_atom_site_type_symbol
_atom_site_label
_atom_site_fract_x
_atom_site_fract_y
_atom_site_fract_z
Si Si1 0.169102 0.906440 0.454911
Si Si2 0.938527 0.802170 0.550510
Si Si3 0.418859 0.872721 0.561408
Si Si4 0.706431 0.093793 0.955465
Si Si5 0.500000 0.075100 0.750000
O O1 0.169121 0.899696 0.250000
O O2 0.115361 0.857927 0.522107
O O3 0.231384 0.876018 0.516197
O O4 0.164081 0.000000 0.500000
O O5 0.938512 0.777069 0.750000
O O6 0.935464 0.720286 0.446827
O O7 0.000000 0.842002 0.514810
O O8 0.433966 0.906520 0.750000
O O9 0.350762 0.873272 0.538040
O O10 0.450534 0.915562 0.404065
O O11 0.702758 0.104357 0.750000
O O12 0.706597 0.000000 0.000000
#
# Coordination Sequence:
#
# PCOD9474644 Si02
#       5
#    16  16  16  16   4
#     4  10  22  39  62  91 122 163 208 257 316 372
#     4  11  22  40  62  88 126 164 205 262 310 368
#     4  12  23  40  68  92 125 168 208 252 316 365
#     4  10  21  41  64  90 126 161 206 262 310 368
#     4  12  22  44  62  94 128 164 204 266 294 384
#
# _framework density 22.267489999999999
#
# number of rings (size 3 to 8) (size 9 to 14) (size 15 to 20)
#    0.000    1.176    3.529    2.471    0.000    5.647 
#    0.000    0.588    0.000    0.000    0.000    0.000 
#    0.000    0.000    0.000    0.000    0.000    0.000 
#
# Total GULP energy -189622.446807 kJ/mol
# GULP energy per Si atom -5577.130788 kJ/mol
# Density = 2.221681 g / cm^3
# Si number density = 22.267490 Si / 1000 Ang^3
#
#
#
# Elastic Constant Matrix: (Units=GPa)
#
#
# Indices 1 2 3 4 5 6 
#
# 1 234.7402 44.3675 52.3172 0.0000 0.0000 0.0000
# 2 44.3675 38.9289 14.5845 0.0000 0.0000 0.0000
# 3 52.3172 14.5845 157.0167 0.0000 0.0000 0.0000
# 4 0.0000 0.0000 0.0000 29.0255 0.0000 0.0000
# 5 0.0000 0.0000 0.0000 0.0000 18.1488 0.0000
# 6 0.0000 0.0000 0.0000 0.0000 0.0000 44.8261
#
#
#
# Elastic Compliance Matrix: (Units=1/GPa)
#
#
# Indices 1 2 3 4 5 6 
#
# 1 0.005689 -0.005982 -0.001340 0.000000 0.000000 0.000000
# 2 -0.005982 0.032904 -0.001063 0.000000 0.000000 0.000000
# 3 -0.001340 -0.001063 0.006914 0.000000 0.000000 0.000000
# 4 0.000000 0.000000 0.000000 0.034452 0.000000 0.000000
# 5 0.000000 0.000000 0.000000 0.000000 0.055100 0.000000
# 6 0.000000 0.000000 0.000000 0.000000 0.000000 0.022308
#
#
# Mechanical properties :
#
#
# Convention : Reuss Voigt Hill
#
# Bulk Modulus (GPa) = 34.79850 72.58048 53.68949
# Shear Modulus (GPa) = 27.21567 39.69453 33.45510
#
# Velocity S-wave (km/s) = 3.49981 4.22669 3.88031
# Velocity P-wave (km/s) = 5.65624 7.51568 6.65126
#
# Compressibility (1/GPa) = 0.02873687
#
# Stress axis : x y z
#
# Youngs Moduli (GPa) = 175.76703 30.39142 144.63451
#
# Poissons Ratio (x) = 0.18181 0.19381
# Poissons Ratio (y) = 1.05147 0.15376
# Poissons Ratio (z) = 0.23553 0.03231
#
# Static dielectric constant tensor:
#      x y z
#    x 1.856170 0.000000 0.000000 
#    y 0.000000 1.777730 0.000000 
#    z 0.000000 0.000000 1.827840 
# 
# From -- ./inp_files/7596.got.cif
#   From: 2010.05.17/outbox.cif.g08.bks.cpg/sg63_4_cif.got.tgz:7596.got - 2010.06.03 15:47:04.
