data_PCOD9474614
_publ_section_title
;
Structure prediction by ZEFSAII (Michael W. Deem and Ramdas Pophale) SiO2 
 PCOD9474614
Probable space group: C M C M
;
_chemical_formula_sum "Si O2"
_cell_formula_units_Z 104
_cell_length_a 21.993747
_cell_length_b 9.661553
_cell_length_c 25.634985
_cell_angle_alpha 90.000000
_cell_angle_beta 90.000000
_cell_angle_gamma 90.000000
_cell_volume 5447.274153
_symmetry_space_group_name_H-M "C M C M"
_symmetry_group_IT_number 63
_symmetry_cell_setting 'orthorhombic'
loop_
_space_group_symop_operation_xyz
x,y,z
-x,-y,1/2+z
x,-y,-z
-x,y,1/2-z
-x,-y,-z
x,y,1/2-z
-x,y,z
x,-y,1/2+z
1/2+x,1/2+y,z
1/2-x,1/2-y,1/2+z
1/2+x,1/2-y,-z
1/2-x,1/2+y,1/2-z
1/2-x,1/2-y,-z
1/2+x,1/2+y,1/2-z
1/2-x,1/2+y,z
1/2+x,1/2-y,1/2+z
loop_
_atom_site_type_symbol
_atom_site_label
_atom_site_fract_x
_atom_site_fract_y
_atom_site_fract_z
Si Si1 0.604382 0.036264 0.882800
Si Si2 0.431248 0.267369 0.086976
Si Si3 0.429761 0.273959 0.808332
Si Si4 0.235147 0.510723 0.333512
Si Si5 0.639845 0.469417 0.613041
Si Si6 0.261528 0.262861 0.250000
Si Si7 0.927988 0.229825 0.037360
O O1 0.574336 0.127690 0.837216
O O2 0.673918 0.020247 0.865539
O O3 0.592858 0.129128 0.934249
O O4 0.576588 0.885771 0.890711
O O5 0.500000 0.317780 0.096687
O O6 0.384329 0.374843 0.111237
O O7 0.422298 0.262132 0.024575
O O8 0.404985 0.261902 0.750000
O O9 0.500000 0.316922 0.807118
O O10 0.391310 0.384672 0.839965
O O11 0.289248 0.534758 0.375104
O O12 0.251026 0.382029 0.295922
O O13 0.229107 0.643398 0.295987
O O14 0.613314 0.391006 0.562164
O O15 0.000000 0.206049 0.049826
#
# Coordination Sequence:
#
# PCOD9474614 Si02
#       7
#    16  16  16  16  16   8  16
#     4  11  22  38  60  88 122 151 200 250 291 351
#     4  11  22  38  61  92 121 153 196 249 304 348
#     4  10  22  39  61  85 113 160 202 240 297 356
#     4  11  24  38  61  88 116 156 207 236 301 344
#     4  11  22  38  60  88 122 151 200 250 291 351
#     4  10  22  40  60  80 112 162 204 242 270 350
#     4  10  21  40  66  86 113 163 207 236 289 361
#
# _framework density 19.092117999999999
#
# number of rings (size 3 to 8) (size 9 to 14) (size 15 to 20)
#    0.000    1.385    0.000    7.385    6.462    2.462 
#    0.000    4.615    0.000    2.769    0.000    0.000 
#    0.000    0.000    0.000    0.000    0.000    0.000 
#
# Total GULP energy -289481.245729 kJ/mol
# GULP energy per Si atom -5566.947033 kJ/mol
# Density = 1.904866 g / cm^3
# Si number density = 19.092118 Si / 1000 Ang^3
#
#
#
# Elastic Constant Matrix: (Units=GPa)
#
#
# Indices 1 2 3 4 5 6 
#
# 1 93.3069 1.5950 27.5948 0.0000 0.0000 0.0000
# 2 1.5950 75.6773 8.3838 0.0000 0.0000 0.0000
# 3 27.5948 8.3838 78.5475 0.0000 0.0000 0.0000
# 4 0.0000 0.0000 0.0000 6.6762 0.0000 0.0000
# 5 0.0000 0.0000 0.0000 0.0000 19.4907 0.0000
# 6 0.0000 0.0000 0.0000 0.0000 0.0000 -9.5493
#
#
#
# Elastic Compliance Matrix: (Units=1/GPa)
#
#
# Indices 1 2 3 4 5 6 
#
# 1 0.011963 0.000216 -0.004226 0.000000 0.000000 0.000000
# 2 0.000216 0.013376 -0.001504 0.000000 0.000000 0.000000
# 3 -0.004226 -0.001504 0.014376 0.000000 0.000000 0.000000
# 4 0.000000 0.000000 0.000000 0.149786 0.000000 0.000000
# 5 0.000000 0.000000 0.000000 0.000000 0.051307 0.000000
# 6 0.000000 0.000000 0.000000 0.000000 0.000000 -0.104720
#
#
# Mechanical properties :
#
#
# Convention : Reuss Voigt Hill
#
# Bulk Modulus (GPa) = 34.85697 35.85319 35.35508
# Shear Modulus (GPa) = 31.91247 17.32073 24.61660
#
# Velocity S-wave (km/s) = 4.09283 3.01527 3.59466
# Velocity P-wave (km/s) = 6.37432 5.56258 5.98223
#
# Compressibility (1/GPa) = 0.02868867
#
# Stress axis : x y z
#
# Youngs Moduli (GPa) = 83.58805 74.76066 69.55905
#
# Poissons Ratio (x) = -0.01615 0.29395
# Poissons Ratio (y) = -0.01806 0.10459
# Poissons Ratio (z) = 0.35324 0.11241
#
# Static dielectric constant tensor:
#      x y z
#    x 2.603140 0.000000 0.000000 
#    y 0.000000 1.649630 0.000000 
#    z 0.000000 0.000000 1.653400 
# 
# From -- ./inp_files/70695.got.cif
#   From: 2010.05.17/outbox.cif.g08.bks.cpg/sg63_36_cif.got.tgz:70695.got - 2010.06.03 15:47:04.
