data_PCOD9474721
_publ_section_title
;
Structure prediction by ZEFSAII (Michael W. Deem and Ramdas Pophale) SiO2 
 PCOD9474721
Probable space group: C M C M
;
_chemical_formula_sum "Si O2"
_cell_formula_units_Z 64
_cell_length_a 8.211653
_cell_length_b 21.056541
_cell_length_c 18.779174
_cell_angle_alpha 90.000000
_cell_angle_beta 90.000000
_cell_angle_gamma 90.000000
_cell_volume 3247.088349
_symmetry_space_group_name_H-M "C M C M"
_symmetry_group_IT_number 63
_symmetry_cell_setting 'orthorhombic'
loop_
_space_group_symop_operation_xyz
x,y,z
-x,-y,1/2+z
x,-y,-z
-x,y,1/2-z
-x,-y,-z
x,y,1/2-z
-x,y,z
x,-y,1/2+z
1/2+x,1/2+y,z
1/2-x,1/2-y,1/2+z
1/2+x,1/2-y,-z
1/2-x,1/2+y,1/2-z
1/2-x,1/2-y,-z
1/2+x,1/2+y,1/2-z
1/2-x,1/2+y,z
1/2+x,1/2-y,1/2+z
loop_
_atom_site_type_symbol
_atom_site_label
_atom_site_fract_x
_atom_site_fract_y
_atom_site_fract_z
Si Si1 0.319265 0.053074 0.061618
Si Si2 0.807676 0.303874 0.554356
Si Si3 0.500000 0.635796 0.835858
Si Si4 0.819230 0.280454 0.334714
Si Si5 0.000000 0.001964 0.587305
O O1 0.500000 0.056002 0.095183
O O2 0.280754 0.123419 0.031895
O O3 0.167048 0.032429 0.109230
O O4 0.329645 0.000000 0.000000
O O5 0.750000 0.250000 0.500000
O O6 0.714557 0.285998 0.626520
O O7 0.000000 0.296619 0.564806
O O8 0.500000 0.624196 0.750000
O O9 0.334476 0.674728 0.852763
O O10 0.500000 0.571988 0.881228
O O11 0.818855 0.273628 0.250000
O O12 0.000000 0.304352 0.356731
O O13 0.000000 0.000000 0.500000
#
# Coordination Sequence:
#
# PCOD9474721 Si02
#       5
#    16  16   8  16   8
#     4   9  21  38  54  83 122 158 195 242 303 355
#     4  11  23  36  61  95 125 159 209 259 307 370
#     4  10  22  42  64  92 121 160 208 252 308 376
#     4  10  22  40  63  91 125 160 202 260 318 370
#     4  10  22  36  62  82 122 160 197 248 304 356
#
# _framework density 19.709966000000001
#
# number of rings (size 3 to 8) (size 9 to 14) (size 15 to 20)
#    0.000    2.000    1.250    0.750   10.500    1.000 
#    0.000    1.250    0.000    1.500    0.000    0.000 
#    0.000    0.000    0.000    0.000    0.000    0.000 
#
# Total GULP energy -178350.243201 kJ/mol
# GULP energy per Si atom -5573.445100 kJ/mol
# Density = 1.966511 g / cm^3
# Si number density = 19.709966 Si / 1000 Ang^3
#
#
#
# Elastic Constant Matrix: (Units=GPa)
#
#
# Indices 1 2 3 4 5 6 
#
# 1 177.4163 68.2603 25.2768 0.0000 0.0000 0.0000
# 2 68.2603 158.4444 40.0182 0.0000 0.0000 0.0000
# 3 25.2768 40.0182 32.0335 0.0000 0.0000 0.0000
# 4 0.0000 0.0000 0.0000 30.4232 0.0000 0.0000
# 5 0.0000 0.0000 0.0000 0.0000 17.0569 0.0000
# 6 0.0000 0.0000 0.0000 0.0000 0.0000 21.6602
#
#
#
# Elastic Compliance Matrix: (Units=1/GPa)
#
#
# Indices 1 2 3 4 5 6 
#
# 1 0.006894 -0.002332 -0.002527 0.000000 0.000000 0.000000
# 2 -0.002332 0.010009 -0.010664 0.000000 0.000000 0.000000
# 3 -0.002527 -0.010664 0.046534 0.000000 0.000000 0.000000
# 4 0.000000 0.000000 0.000000 0.032870 0.000000 0.000000
# 5 0.000000 0.000000 0.000000 0.000000 0.058627 0.000000
# 6 0.000000 0.000000 0.000000 0.000000 0.000000 0.046168
#
#
# Mechanical properties :
#
#
# Convention : Reuss Voigt Hill
#
# Bulk Modulus (GPa) = 30.87268 70.55609 50.71439
# Shear Modulus (GPa) = 20.58086 29.45063 25.01574
#
# Velocity S-wave (km/s) = 3.23489 3.86968 3.56644
# Velocity P-wave (km/s) = 5.44520 7.47267 6.53800
#
# Compressibility (1/GPa) = 0.03239110
#
# Stress axis : x y z
#
# Youngs Moduli (GPa) = 145.06318 99.90591 21.48977
#
# Poissons Ratio (x) = 0.23295 0.05430
# Poissons Ratio (y) = 0.33824 0.22918
# Poissons Ratio (z) = 0.36652 1.06545
#
# Static dielectric constant tensor:
#      x y z
#    x 1.776100 0.000000 0.000000 
#    y 0.000000 1.687230 0.000000 
#    z 0.000000 0.000000 1.688250 
# 
# From -- ./inp_files/39864.got.cif
#   From: 2010.05.17/outbox.cif.g08.bks.cpg/sg63_20_cif.got.tgz:39864.got - 2010.06.03 15:47:04.
