data_PCOD9474845
_publ_section_title
;
Structure prediction by ZEFSAII (Michael W. Deem and Ramdas Pophale) SiO2 
 PCOD9474845
Probable space group: C M C M
;
_chemical_formula_sum "Si O2"
_cell_formula_units_Z 88
_cell_length_a 12.726293
_cell_length_b 26.998092
_cell_length_c 12.762123
_cell_angle_alpha 90.000000
_cell_angle_beta 90.000000
_cell_angle_gamma 90.000000
_cell_volume 4384.882061
_symmetry_space_group_name_H-M "C M C M"
_symmetry_group_IT_number 63
_symmetry_cell_setting 'orthorhombic'
loop_
_space_group_symop_operation_xyz
x,y,z
-x,-y,1/2+z
x,-y,-z
-x,y,1/2-z
-x,-y,-z
x,y,1/2-z
-x,y,z
x,-y,1/2+z
1/2+x,1/2+y,z
1/2-x,1/2-y,1/2+z
1/2+x,1/2-y,-z
1/2-x,1/2+y,1/2-z
1/2-x,1/2-y,-z
1/2+x,1/2+y,1/2-z
1/2-x,1/2+y,z
1/2+x,1/2-y,1/2+z
loop_
_atom_site_type_symbol
_atom_site_label
_atom_site_fract_x
_atom_site_fract_y
_atom_site_fract_z
Si Si1 0.874720 0.262227 0.872907
Si Si2 0.000000 0.018167 0.374118
Si Si3 0.312780 0.404359 0.868460
Si Si4 0.621077 0.973359 0.876461
Si Si5 0.736782 0.669944 0.974440
Si Si6 0.120653 0.586428 0.875368
O O1 0.855714 0.272654 0.750000
O O2 0.816623 0.301192 0.948298
O O3 0.000000 0.262555 0.890255
O O4 0.824902 0.209278 0.904237
O O5 0.103281 0.051855 0.370537
O O6 0.000000 0.993520 0.250000
O O7 0.000000 0.000000 0.500000
O O8 0.306839 0.384972 0.750000
O O9 0.201524 0.429160 0.898643
O O10 0.339026 0.361516 0.949801
O O11 0.624622 0.976043 0.750000
O O12 0.500000 0.963119 0.903465
O O13 0.647352 0.970140 0.089322
O O14 0.801574 0.629557 0.909424
O O15 0.122330 0.584751 0.750000
O O16 0.000000 0.597296 0.906304
#
# Coordination Sequence:
#
# PCOD9474845 Si02
#       6
#    16   8  16  16  16  16
#     4  10  23  43  61  83 114 145 186 247 310 368
#     4  10  24  44  64  90 130 174 216 254 296 351
#     4  10  22  39  60  88 123 161 203 252 298 354
#     4   8  16  32  54  84 123 162 196 237 291 348
#     4  11  22  36  63  87 111 148 198 241 302 364
#     4   9  18  33  54  85 124 160 197 241 288 346
#
# _framework density 20.068954999999999
#
# number of rings (size 3 to 8) (size 9 to 14) (size 15 to 20)
#    0.000    2.364    0.000    2.727    3.818    1.455 
#    0.000    4.545    0.000    3.273    0.000    0.000 
#    0.000    0.000    0.000    0.000    0.000    0.000 
#
# Total GULP energy -245307.877642 kJ/mol
# GULP energy per Si atom -5575.179037 kJ/mol
# Density = 2.002328 g / cm^3
# Si number density = 20.068955 Si / 1000 Ang^3
#
#
#
# Elastic Constant Matrix: (Units=GPa)
#
#
# Indices 1 2 3 4 5 6 
#
# 1 40.1482 5.7492 6.2697 0.0000 0.0000 0.0000
# 2 5.7492 53.9915 12.0932 0.0000 0.0000 0.0000
# 3 6.2697 12.0932 81.9788 0.0000 0.0000 0.0000
# 4 0.0000 0.0000 0.0000 33.3505 0.0000 0.0000
# 5 0.0000 0.0000 0.0000 0.0000 28.2103 0.0000
# 6 0.0000 0.0000 0.0000 0.0000 0.0000 -70.3165
#
#
#
# Elastic Compliance Matrix: (Units=1/GPa)
#
#
# Indices 1 2 3 4 5 6 
#
# 1 0.025495 -0.002356 -0.001602 0.000000 0.000000 0.000000
# 2 -0.002356 0.019372 -0.002677 0.000000 0.000000 0.000000
# 3 -0.001602 -0.002677 0.012716 0.000000 0.000000 0.000000
# 4 0.000000 0.000000 0.000000 0.029985 0.000000 0.000000
# 5 0.000000 0.000000 0.000000 0.000000 0.035448 0.000000
# 6 0.000000 0.000000 0.000000 0.000000 0.000000 -0.014221
#
#
# Mechanical properties :
#
#
# Convention : Reuss Voigt Hill
#
# Bulk Modulus (GPa) = 22.56745 24.92697 23.74721
# Shear Modulus (GPa) = 36.53998 8.38262 22.46130
#
# Velocity S-wave (km/s) = 4.27162 2.04597 3.34908
# Velocity P-wave (km/s) = 5.96644 4.24605 5.17819
#
# Compressibility (1/GPa) = 0.04431160
#
# Stress axis : x y z
#
# Youngs Moduli (GPa) = 39.22287 51.62090 78.64237
#
# Poissons Ratio (x) = 0.12161 0.12601
# Poissons Ratio (y) = 0.09241 0.21056
# Poissons Ratio (z) = 0.06285 0.13821
#
# Static dielectric constant tensor:
#      x y z
#    x 1.437970 0.000000 0.000000 
#    y 0.000000 1.685390 0.000000 
#    z 0.000000 0.000000 1.822430 
# 
# From -- ./inp_files/18006.got.cif
#   From: 2010.05.17/outbox.cif.g08.bks.cpg/sg63_10_cif.got.tgz:18006.got - 2010.06.03 15:47:04.
