data_PCOD9474439
_publ_section_title
;
Structure prediction by ZEFSAII (Michael W. Deem and Ramdas Pophale) SiO2 
 PCOD9474439
Probable space group: C M C M
;
_chemical_formula_sum "Si O2"
_cell_formula_units_Z 64
_cell_length_a 18.932530
_cell_length_b 10.706369
_cell_length_c 15.021255
_cell_angle_alpha 90.000000
_cell_angle_beta 90.000000
_cell_angle_gamma 90.000000
_cell_volume 3044.788144
_symmetry_space_group_name_H-M "C M C M"
_symmetry_group_IT_number 63
_symmetry_cell_setting 'orthorhombic'
loop_
_space_group_symop_operation_xyz
x,y,z
-x,-y,1/2+z
x,-y,-z
-x,y,1/2-z
-x,-y,-z
x,y,1/2-z
-x,y,z
x,-y,1/2+z
1/2+x,1/2+y,z
1/2-x,1/2-y,1/2+z
1/2+x,1/2-y,-z
1/2-x,1/2+y,1/2-z
1/2-x,1/2-y,-z
1/2+x,1/2+y,1/2-z
1/2-x,1/2+y,z
1/2+x,1/2-y,1/2+z
loop_
_atom_site_type_symbol
_atom_site_label
_atom_site_fract_x
_atom_site_fract_y
_atom_site_fract_z
Si Si1 0.418428 0.570895 0.906464
Si Si2 0.283911 0.732122 0.597288
Si Si3 0.687108 0.995983 0.108757
Si Si4 0.914368 0.886259 0.750000
Si Si5 0.915777 0.402243 0.250000
O O1 0.500000 0.607091 0.888227
O O2 0.364676 0.685506 0.907270
O O3 0.394417 0.467951 0.835046
O O4 0.415879 0.500000 0.000000
O O5 0.250000 0.750000 0.500000
O O6 0.239679 0.616349 0.634878
O O7 0.283068 0.869558 0.638154
O O8 0.615937 0.967057 0.162159
O O9 0.679059 0.000000 0.000000
O O10 0.891498 0.743223 0.750000
O O11 0.000000 0.880985 0.750000
O O12 0.000000 0.406395 0.250000
#
# Coordination Sequence:
#
# PCOD9474439 Si02
#       5
#    16  16  16   8   8
#     4  10  21  38  67  99 133 179 222 274 334 389
#     4  10  22  42  65  99 134 171 222 279 327 406
#     4  10  24  42  67  96 133 180 219 273 341 387
#     4   9  22  40  62  99 134 170 221 273 326 395
#     4  11  26  44  66  99 139 176 225 273 331 407
#
# _framework density 21.019525999999999
#
# number of rings (size 3 to 8) (size 9 to 14) (size 15 to 20)
#    0.000    2.000    0.000    2.250   10.500    4.500 
#    0.000    1.250    0.000    0.000    0.000    0.000 
#    0.000    0.000    0.000    0.000    0.000    0.000 
#
# Total GULP energy -178674.025507 kJ/mol
# GULP energy per Si atom -5583.563297 kJ/mol
# Density = 2.097168 g / cm^3
# Si number density = 21.019526 Si / 1000 Ang^3
#
#
#
# Elastic Constant Matrix: (Units=GPa)
#
#
# Indices 1 2 3 4 5 6 
#
# 1 124.9674 73.1155 28.4318 0.0000 0.0000 0.0000
# 2 73.1155 185.8544 39.7548 0.0000 0.0000 0.0000
# 3 28.4318 39.7548 103.2538 0.0000 0.0000 0.0000
# 4 0.0000 0.0000 0.0000 18.2318 0.0000 0.0000
# 5 0.0000 0.0000 0.0000 0.0000 42.8181 0.0000
# 6 0.0000 0.0000 0.0000 0.0000 0.0000 46.3220
#
#
#
# Elastic Compliance Matrix: (Units=1/GPa)
#
#
# Indices 1 2 3 4 5 6 
#
# 1 0.010585 -0.003858 -0.001429 0.000000 0.000000 0.000000
# 2 -0.003858 0.007270 -0.001737 0.000000 0.000000 0.000000
# 3 -0.001429 -0.001737 0.010747 0.000000 0.000000 0.000000
# 4 0.000000 0.000000 0.000000 0.054849 0.000000 0.000000
# 5 0.000000 0.000000 0.000000 0.000000 0.023355 0.000000
# 6 0.000000 0.000000 0.000000 0.000000 0.000000 0.021588
#
#
# Mechanical properties :
#
#
# Convention : Reuss Voigt Hill
#
# Bulk Modulus (GPa) = 68.71182 77.40887 73.06035
# Shear Modulus (GPa) = 33.94601 39.65927 36.80264
#
# Velocity S-wave (km/s) = 4.02304 4.34842 4.18889
# Velocity P-wave (km/s) = 7.37158 7.88155 7.63083
#
# Compressibility (1/GPa) = 0.01455354
#
# Stress axis : x y z
#
# Youngs Moduli (GPa) = 94.47654 137.55331 93.04920
#
# Poissons Ratio (x) = 0.53073 0.13297
# Poissons Ratio (y) = 0.36452 0.16159
# Poissons Ratio (z) = 0.13501 0.23888
#
# Static dielectric constant tensor:
#      x y z
#    x 1.766190 0.000000 0.000000 
#    y 0.000000 1.750840 0.000000 
#    z 0.000000 0.000000 1.739740 
# 
# From -- ./inp_files/33417.got.cif
#   From: 2010.05.17/outbox.cif.g08.bks.cpg/sg63_17_cif.got.tgz:33417.got - 2010.06.03 15:47:04.
