data_PCOD9474049
_publ_section_title
;
Structure prediction by ZEFSAII (Michael W. Deem and Ramdas Pophale) SiO2 
 PCOD9474049
Probable space group: C M C M
;
_chemical_formula_sum "Si O2"
_cell_formula_units_Z 80
_cell_length_a 7.669350
_cell_length_b 17.592715
_cell_length_c 30.824103
_cell_angle_alpha 90.000000
_cell_angle_beta 90.000000
_cell_angle_gamma 90.000000
_cell_volume 4158.932504
_symmetry_space_group_name_H-M "C M C M"
_symmetry_group_IT_number 63
_symmetry_cell_setting 'orthorhombic'
loop_
_space_group_symop_operation_xyz
x,y,z
-x,-y,1/2+z
x,-y,-z
-x,y,1/2-z
-x,-y,-z
x,y,1/2-z
-x,y,z
x,-y,1/2+z
1/2+x,1/2+y,z
1/2-x,1/2-y,1/2+z
1/2+x,1/2-y,-z
1/2-x,1/2+y,1/2-z
1/2-x,1/2-y,-z
1/2+x,1/2+y,1/2-z
1/2-x,1/2+y,z
1/2+x,1/2-y,1/2+z
loop_
_atom_site_type_symbol
_atom_site_label
_atom_site_fract_x
_atom_site_fract_y
_atom_site_fract_z
Si Si1 0.203386 0.967164 0.634707
Si Si2 0.000000 0.467153 0.700695
Si Si3 0.000000 0.718114 0.299795
Si Si4 0.201198 0.031770 0.955701
Si Si5 0.297679 0.716018 0.366325
Si Si6 0.207725 0.704737 0.956254
O O1 0.328428 0.990267 0.673990
O O2 0.209957 0.875635 0.630609
O O3 0.000000 0.988822 0.641324
O O4 0.273407 0.002205 0.589799
O O5 0.000000 0.374498 0.701575
O O6 0.000000 0.494218 0.750000
O O7 0.830474 0.740653 0.327768
O O8 0.000000 0.744705 0.250000
O O9 0.207102 0.122204 0.957120
O O10 0.000000 0.004158 0.955075
O O11 0.282464 0.000000 0.000000
O O12 0.500000 0.736775 0.358288
O O13 0.241505 0.750523 0.412564
O O14 0.000000 0.694153 0.954491
O O15 0.250000 0.750000 0.000000
#
# Coordination Sequence:
#
# PCOD9474049 Si02
#       6
#    16   8   8  16  16  16
#     4   9  18  34  55  78 109 146 179 223 275 323
#     4   9  18  32  53  83 111 134 178 232 272 325
#     4   9  18  32  56  85 108 140 181 228 284 327
#     4  10  21  37  55  79 111 146 181 225 270 328
#     4   9  19  35  54  80 112 145 181 228 275 327
#     4  11  23  36  54  81 110 148 185 224 273 328
#
# _framework density 19.235703999999998
#
# number of rings (size 3 to 8) (size 9 to 14) (size 15 to 20)
#    0.000    2.400    0.000    1.800    4.200    4.400 
#    3.600    4.000    0.000    1.200    0.000    0.000 
#    0.000    0.000    0.000    0.000    0.000    0.000 
#
# Total GULP energy -223190.018292 kJ/mol
# GULP energy per Si atom -5579.750457 kJ/mol
# Density = 1.919192 g / cm^3
# Si number density = 19.235704 Si / 1000 Ang^3
#
#
#
# Elastic Constant Matrix: (Units=GPa)
#
#
# Indices 1 2 3 4 5 6 
#
# 1 88.8190 19.9051 82.2337 0.0000 0.0000 0.0000
# 2 19.9051 27.3903 40.6765 0.0000 0.0000 0.0000
# 3 82.2337 40.6765 224.1342 0.0000 0.0000 0.0000
# 4 0.0000 0.0000 0.0000 25.6066 0.0000 0.0000
# 5 0.0000 0.0000 0.0000 0.0000 64.1032 0.0000
# 6 0.0000 0.0000 0.0000 0.0000 0.0000 46.8209
#
#
#
# Elastic Compliance Matrix: (Units=1/GPa)
#
#
# Indices 1 2 3 4 5 6 
#
# 1 0.017419 -0.004337 -0.005604 0.000000 0.000000 0.000000
# 2 -0.004337 0.051059 -0.007675 0.000000 0.000000 0.000000
# 3 -0.005604 -0.007675 0.007911 0.000000 0.000000 0.000000
# 4 0.000000 0.000000 0.000000 0.039052 0.000000 0.000000
# 5 0.000000 0.000000 0.000000 0.000000 0.015600 0.000000
# 6 0.000000 0.000000 0.000000 0.000000 0.000000 0.021358
#
#
# Mechanical properties :
#
#
# Convention : Reuss Voigt Hill
#
# Bulk Modulus (GPa) = 24.29706 69.55268 46.92487
# Shear Modulus (GPa) = 24.83239 40.47469 32.65354
#
# Velocity S-wave (km/s) = 3.59688 4.59207 4.12460
# Velocity P-wave (km/s) = 5.46889 8.02202 6.86518
#
# Compressibility (1/GPa) = 0.04115725
#
# Stress axis : x y z
#
# Youngs Moduli (GPa) = 57.40787 19.58516 126.41221
#
# Poissons Ratio (x) = 0.08493 0.70842
# Poissons Ratio (y) = 0.24895 0.97025
# Poissons Ratio (z) = 0.32171 0.15032
#
# Static dielectric constant tensor:
#      x y z
#    x 1.703380 0.000000 0.000000 
#    y 0.000000 1.644910 0.000000 
#    z 0.000000 0.000000 1.658150 
# 
# From -- ./inp_files/71621.got.cif
#   From: 2010.05.17/outbox.cif.g08.bks.cpg/sg63_36_cif.got.tgz:71621.got - 2010.06.03 15:47:04.
