data_PCOD9474455
_publ_section_title
;
Structure prediction by ZEFSAII (Michael W. Deem and Ramdas Pophale) SiO2 
 PCOD9474455
Probable space group: C M C M
;
_chemical_formula_sum "Si O2"
_cell_formula_units_Z 72
_cell_length_a 26.742614
_cell_length_b 13.626612
_cell_length_c 10.331221
_cell_angle_alpha 90.000000
_cell_angle_beta 90.000000
_cell_angle_gamma 90.000000
_cell_volume 3764.812899
_symmetry_space_group_name_H-M "C M C M"
_symmetry_group_IT_number 63
_symmetry_cell_setting 'orthorhombic'
loop_
_space_group_symop_operation_xyz
x,y,z
-x,-y,1/2+z
x,-y,-z
-x,y,1/2-z
-x,-y,-z
x,y,1/2-z
-x,y,z
x,-y,1/2+z
1/2+x,1/2+y,z
1/2-x,1/2-y,1/2+z
1/2+x,1/2-y,-z
1/2-x,1/2+y,1/2-z
1/2-x,1/2-y,-z
1/2+x,1/2+y,1/2-z
1/2-x,1/2+y,z
1/2+x,1/2-y,1/2+z
loop_
_atom_site_type_symbol
_atom_site_label
_atom_site_fract_x
_atom_site_fract_y
_atom_site_fract_z
Si Si1 0.000000 0.597154 0.091519
Si Si2 0.165854 0.616320 0.250000
Si Si3 0.396521 0.804129 0.510909
Si Si4 0.771499 0.881706 0.250000
Si Si5 0.659012 0.383379 0.495366
Si Si6 0.155322 0.619275 0.750000
Si Si7 0.721235 0.618454 0.250000
O O1 0.048945 0.658032 0.049457
O O2 0.000000 0.579331 0.250000
O O3 0.000000 0.500000 0.000000
O O4 0.139287 0.654461 0.122240
O O5 0.159907 0.498677 0.250000
O O6 0.222440 0.655369 0.250000
O O7 0.388922 0.686735 0.511133
O O8 0.375338 0.845817 0.375647
O O9 0.803969 0.859446 0.376831
O O10 0.713845 0.846634 0.250000
O O11 0.770345 0.000760 0.250000
O O12 0.648073 0.500000 0.500000
O O13 0.689631 0.357469 0.624010
#
# Coordination Sequence:
#
# PCOD9474455 Si02
#       7
#     8   8  16   8  16   8   8
#     4  12  28  50  71  94 122 156 201 264 323 373
#     4  11  21  38  59  91 127 167 206 256 302 368
#     4  12  25  39  65  91 120 163 212 254 313 371
#     4   9  19  35  59  87 131 174 204 245 298 357
#     4  10  21  39  59  90 128 168 206 250 297 359
#     4  11  23  38  59  95 131 163 206 254 306 370
#     4   9  19  35  57  87 131 168 204 245 302 359
#
# _framework density 19.124455999999999
#
# number of rings (size 3 to 8) (size 9 to 14) (size 15 to 20)
#    0.000    1.333    1.111    4.667    1.556    8.889 
#    0.000    0.556    0.000    0.000    0.000    0.000 
#    0.000    0.000    0.000    0.000    0.000    0.000 
#
# Total GULP energy -201158.274802 kJ/mol
# GULP energy per Si atom -5587.729856 kJ/mol
# Density = 1.908093 g / cm^3
# Si number density = 19.124456 Si / 1000 Ang^3
#
#
#
# Elastic Constant Matrix: (Units=GPa)
#
#
# Indices 1 2 3 4 5 6 
#
# 1 148.7851 68.2694 66.9401 0.0000 0.0000 0.0000
# 2 68.2694 138.2556 49.4965 0.0000 0.0000 0.0000
# 3 66.9401 49.4965 188.6057 0.0000 0.0000 0.0000
# 4 0.0000 0.0000 0.0000 -19.1738 0.0000 0.0000
# 5 0.0000 0.0000 0.0000 0.0000 23.5501 0.0000
# 6 0.0000 0.0000 0.0000 0.0000 0.0000 37.4944
#
#
#
# Elastic Compliance Matrix: (Units=1/GPa)
#
#
# Indices 1 2 3 4 5 6 
#
# 1 0.009569 -0.003873 -0.002380 0.000000 0.000000 0.000000
# 2 -0.003873 0.009551 -0.001132 0.000000 0.000000 0.000000
# 3 -0.002380 -0.001132 0.006444 0.000000 0.000000 0.000000
# 4 0.000000 0.000000 0.000000 -0.052154 0.000000 0.000000
# 5 0.000000 0.000000 0.000000 0.000000 0.042463 0.000000
# 6 0.000000 0.000000 0.000000 0.000000 0.000000 0.026671
#
#
# Mechanical properties :
#
#
# Convention : Reuss Voigt Hill
#
# Bulk Modulus (GPa) = 92.64382 93.89536 93.26959
# Shear Modulus (GPa) = 82.08903 27.77017 54.92960
#
# Velocity S-wave (km/s) = 6.55872 3.81475 5.36512
# Velocity P-wave (km/s) = 10.29094 8.28291 9.34104
#
# Compressibility (1/GPa) = 0.01079403
#
# Stress axis : x y z
#
# Youngs Moduli (GPa) = 104.50477 104.70487 155.18978
#
# Poissons Ratio (x) = 0.40553 0.36932
# Poissons Ratio (y) = 0.40475 0.17564
# Poissons Ratio (z) = 0.24870 0.11850
#
# Static dielectric constant tensor:
#      x y z
#    x 1.637750 0.000000 0.000000 
#    y 0.000000 1.736860 0.000000 
#    z 0.000000 0.000000 2.144900 
# 
# From -- ./inp_files/11826.got.cif
#   From: 2010.05.17/outbox.cif.g08.bks.cpg/sg63_6_cif.got.tgz:11826.got - 2010.06.03 15:47:04.
