data_PCOD9474090
_publ_section_title
;
Structure prediction by ZEFSAII (Michael W. Deem and Ramdas Pophale) SiO2 
 PCOD9474090
Probable space group: C M C M
;
_chemical_formula_sum "Si O2"
_cell_formula_units_Z 116
_cell_length_a 16.548441
_cell_length_b 22.456062
_cell_length_c 16.326677
_cell_angle_alpha 90.000000
_cell_angle_beta 90.000000
_cell_angle_gamma 90.000000
_cell_volume 6067.202434
_symmetry_space_group_name_H-M "C M C M"
_symmetry_group_IT_number 63
_symmetry_cell_setting 'orthorhombic'
loop_
_space_group_symop_operation_xyz
x,y,z
-x,-y,1/2+z
x,-y,-z
-x,y,1/2-z
-x,-y,-z
x,y,1/2-z
-x,y,z
x,-y,1/2+z
1/2+x,1/2+y,z
1/2-x,1/2-y,1/2+z
1/2+x,1/2-y,-z
1/2-x,1/2+y,1/2-z
1/2-x,1/2-y,-z
1/2+x,1/2+y,1/2-z
1/2-x,1/2+y,z
1/2+x,1/2-y,1/2+z
loop_
_atom_site_type_symbol
_atom_site_label
_atom_site_fract_x
_atom_site_fract_y
_atom_site_fract_z
Si Si1 0.094255 0.967521 0.153582
Si Si2 0.500000 0.746529 0.750000
Si Si3 0.409876 0.750832 0.454411
Si Si4 0.235980 0.956777 0.922770
Si Si5 0.589791 0.937078 0.843869
Si Si6 0.340103 0.636789 0.537147
Si Si7 0.378467 0.800324 0.872368
Si Si8 0.763003 0.721034 0.843977
O O1 0.101246 0.950538 0.250000
O O2 0.113787 0.912575 0.092176
O O3 0.000000 0.986158 0.140351
O O4 0.162561 0.017338 0.133024
O O5 0.430566 0.752526 0.821604
O O6 0.500000 0.757373 0.425397
O O7 0.395584 0.685673 0.493302
O O8 0.393591 0.794027 0.531588
O O9 0.348762 0.765952 0.383022
O O10 0.325296 0.956059 0.883870
O O11 0.209908 0.894922 0.964566
O O12 0.240497 0.000000 0.000000
O O13 0.590649 0.957823 0.750000
O O14 0.500000 0.953180 0.878646
O O15 0.594591 0.865079 0.843944
O O16 0.282055 0.673117 0.598627
O O17 0.287560 0.782285 0.852394
O O18 0.765264 0.702070 0.750000
#
# Coordination Sequence:
#
# PCOD9474090 Si02
#       8
#    16   4  16  16  16  16  16  16
#     4  10  21  39  60  84 111 146 186 233 288 346
#     4  12  16  32  56  84 110 136 170 228 284 332
#     4  11  22  35  54  80 115 153 188 224 270 336
#     4  10  22  37  55  77 108 143 181 233 285 332
#     4  11  19  32  54  80 105 135 172 216 271 334
#     4  10  21  37  57  82 108 143 189 238 285 325
#     4  11  19  34  53  84 112 136 173 226 285 331
#     4  11  22  36  55  79 115 153 186 230 276 332
#
# _framework density 19.11919
#
# number of rings (size 3 to 8) (size 9 to 14) (size 15 to 20)
#    0.000    1.379    2.759    4.552    0.000    3.586 
#    0.000    0.690    0.000    0.828    0.000    0.000 
#    0.000    0.000    0.000    0.000    0.000    0.000 
#
# Total GULP energy -323017.972622 kJ/mol
# GULP energy per Si atom -5569.275390 kJ/mol
# Density = 1.907567 g / cm^3
# Si number density = 19.119190 Si / 1000 Ang^3
#
#
#
# Elastic Constant Matrix: (Units=GPa)
#
#
# Indices 1 2 3 4 5 6 
#
# 1 168.1414 10.2767 47.5081 0.0000 0.0000 0.0000
# 2 10.2767 29.4241 4.6440 0.0000 0.0000 0.0000
# 3 47.5081 4.6440 35.8169 0.0000 0.0000 0.0000
# 4 0.0000 0.0000 0.0000 1.8991 0.0000 0.0000
# 5 0.0000 0.0000 0.0000 0.0000 44.3536 0.0000
# 6 0.0000 0.0000 0.0000 0.0000 0.0000 0.2748
#
#
#
# Elastic Compliance Matrix: (Units=1/GPa)
#
#
# Indices 1 2 3 4 5 6 
#
# 1 0.009566 -0.001366 -0.012511 0.000000 0.000000 0.000000
# 2 -0.001366 0.034891 -0.002712 0.000000 0.000000 0.000000
# 3 -0.012511 -0.002712 0.044866 0.000000 0.000000 0.000000
# 4 0.000000 0.000000 0.000000 0.526552 0.000000 0.000000
# 5 0.000000 0.000000 0.000000 0.000000 0.022546 0.000000
# 6 0.000000 0.000000 0.000000 0.000000 0.000000 3.638798
#
#
# Mechanical properties :
#
#
# Convention : Reuss Voigt Hill
#
# Bulk Modulus (GPa) = 17.81104 39.80445 28.80774
# Shear Modulus (GPa) = 1.15497 20.70242 10.92870
#
# Velocity S-wave (km/s) = 0.77808 3.29418 2.39343
# Velocity P-wave (km/s) = 3.18484 5.94416 4.76845
#
# Compressibility (1/GPa) = 0.05614495
#
# Stress axis : x y z
#
# Youngs Moduli (GPa) = 104.53784 28.66077 22.28837
#
# Poissons Ratio (x) = 0.03916 0.27885
# Poissons Ratio (y) = 0.14284 0.06044
# Poissons Ratio (z) = 1.30790 0.07772
#
# Static dielectric constant tensor:
#      x y z
#    x 1.700240 0.000000 0.000000 
#    y 0.000000 1.715170 0.000000 
#    z 0.000000 0.000000 1.681190 
# 
# From -- ./inp_files/44626.got.cif
#   From: 2010.05.17/outbox.cif.g08.bks.cpg/sg63_23_cif.got.tgz:44626.got - 2010.06.03 15:47:04.
