data_PCOD9474333
_publ_section_title
;
Structure prediction by ZEFSAII (Michael W. Deem and Ramdas Pophale) SiO2 
 PCOD9474333
Probable space group: C M C M
;
_chemical_formula_sum "Si O2"
_cell_formula_units_Z 64
_cell_length_a 17.404882
_cell_length_b 10.054312
_cell_length_c 15.240663
_cell_angle_alpha 90.000000
_cell_angle_beta 90.000000
_cell_angle_gamma 90.000000
_cell_volume 2667.026318
_symmetry_space_group_name_H-M "C M C M"
_symmetry_group_IT_number 63
_symmetry_cell_setting 'orthorhombic'
loop_
_space_group_symop_operation_xyz
x,y,z
-x,-y,1/2+z
x,-y,-z
-x,y,1/2-z
-x,-y,-z
x,y,1/2-z
-x,y,z
x,-y,1/2+z
1/2+x,1/2+y,z
1/2-x,1/2-y,1/2+z
1/2+x,1/2-y,-z
1/2-x,1/2+y,1/2-z
1/2-x,1/2-y,-z
1/2+x,1/2+y,1/2-z
1/2-x,1/2+y,z
1/2+x,1/2-y,1/2+z
loop_
_atom_site_type_symbol
_atom_site_label
_atom_site_fract_x
_atom_site_fract_y
_atom_site_fract_z
Si Si1 0.622088 0.839908 0.412189
Si Si2 0.209521 0.850057 0.149317
Si Si3 0.585467 0.867135 0.883452
Si Si4 0.582748 0.451172 0.854465
O O1 0.714360 0.833877 0.407172
O O2 0.592467 0.848731 0.511487
O O3 0.592020 0.704729 0.370240
O O4 0.596745 0.976523 0.365968
O O5 0.233393 0.880314 0.250000
O O6 0.154835 0.721215 0.152185
O O7 0.155001 0.966056 0.111704
O O8 0.500000 0.825456 0.854986
O O9 0.582820 0.475781 0.750000
O O10 0.500000 0.495970 0.890032
#
# Coordination Sequence:
#
# PCOD9474333 Si02
#       4
#    16  16  16  16
#     4  11  22  40  62  90 123 158 203 251 302 359
#     4  11  24  41  62  90 123 160 203 250 302 361
#     4  11  24  42  64  91 124 161 203 251 302 360
#     4  10  21  38  60  87 120 158 201 249 301 360
#
# _framework density 23.996763999999999
#
# number of rings (size 3 to 8) (size 9 to 14) (size 15 to 20)
#    0.000    1.250    0.000    6.750    0.000    8.500 
#    0.000    2.500    0.000    0.000    0.000    0.000 
#    0.000    0.000    0.000    0.000    0.000    0.000 
#
# Total GULP energy -179218.065173 kJ/mol
# GULP energy per Si atom -5600.564537 kJ/mol
# Density = 2.394215 g / cm^3
# Si number density = 23.996764 Si / 1000 Ang^3
#
#
#
# Elastic Constant Matrix: (Units=GPa)
#
#
# Indices 1 2 3 4 5 6 
#
# 1 181.0534 18.6234 18.8097 0.0000 0.0000 0.0000
# 2 18.6234 96.0681 -4.4738 0.0000 0.0000 0.0000
# 3 18.8097 -4.4738 55.7590 0.0000 0.0000 0.0000
# 4 0.0000 0.0000 0.0000 28.5396 0.0000 0.0000
# 5 0.0000 0.0000 0.0000 0.0000 -115.8268 0.0000
# 6 0.0000 0.0000 0.0000 0.0000 0.0000 39.4248
#
#
#
# Elastic Compliance Matrix: (Units=1/GPa)
#
#
# Indices 1 2 3 4 5 6 
#
# 1 0.005866 -0.001234 -0.002078 0.000000 0.000000 0.000000
# 2 -0.001234 0.010708 0.001275 0.000000 0.000000 0.000000
# 3 -0.002078 0.001275 0.018738 0.000000 0.000000 0.000000
# 4 0.000000 0.000000 0.000000 0.035039 0.000000 0.000000
# 5 0.000000 0.000000 0.000000 0.000000 -0.008634 0.000000
# 6 0.000000 0.000000 0.000000 0.000000 0.000000 0.025365
#
#
# Mechanical properties :
#
#
# Convention : Reuss Voigt Hill
#
# Bulk Modulus (GPa) = 32.01150 44.31100 38.16125
# Shear Modulus (GPa) = 49.22842 10.42229 29.82535
#
# Velocity S-wave (km/s) = 4.53422 2.08630 3.52929
# Velocity P-wave (km/s) = 6.38601 4.93042 5.70483
#
# Compressibility (1/GPa) = 0.03123877
#
# Stress axis : x y z
#
# Youngs Moduli (GPa) = 170.47325 93.38919 53.36861
#
# Poissons Ratio (x) = 0.11524 0.11089
# Poissons Ratio (y) = 0.21035 -0.06807
# Poissons Ratio (z) = 0.35422 -0.11911
#
# Static dielectric constant tensor:
#      x y z
#    x 1.750730 0.000000 0.000000 
#    y 0.000000 1.895090 0.000000 
#    z 0.000000 0.000000 1.897490 
# 
# From -- ./inp_files/33353.got.cif
#   From: 2010.05.17/outbox.cif.g08.bks.cpg/sg63_17_cif.got.tgz:33353.got - 2010.06.03 15:47:04.
