data_PCOD9474048
_publ_section_title
;
Structure prediction by ZEFSAII (Michael W. Deem and Ramdas Pophale) SiO2 
 PCOD9474048
Probable space group: C M C M
;
_chemical_formula_sum "Si O2"
_cell_formula_units_Z 48
_cell_length_a 7.673683
_cell_length_b 39.070135
_cell_length_c 8.755005
_cell_angle_alpha 90.000000
_cell_angle_beta 90.000000
_cell_angle_gamma 90.000000
_cell_volume 2624.854077
_symmetry_space_group_name_H-M "C M C M"
_symmetry_group_IT_number 63
_symmetry_cell_setting 'orthorhombic'
loop_
_space_group_symop_operation_xyz
x,y,z
-x,-y,1/2+z
x,-y,-z
-x,y,1/2-z
-x,-y,-z
x,y,1/2-z
-x,y,z
x,-y,1/2+z
1/2+x,1/2+y,z
1/2-x,1/2-y,1/2+z
1/2+x,1/2-y,-z
1/2-x,1/2+y,1/2-z
1/2-x,1/2-y,-z
1/2+x,1/2+y,1/2-z
1/2-x,1/2+y,z
1/2+x,1/2-y,1/2+z
loop_
_atom_site_type_symbol
_atom_site_label
_atom_site_fract_x
_atom_site_fract_y
_atom_site_fract_z
Si Si1 0.297214 0.212862 0.432764
Si Si2 0.000000 0.165117 0.932136
Si Si3 0.799512 0.536807 0.066104
Si Si4 0.500000 0.410685 0.565075
O O1 0.274069 0.213653 0.250000
O O2 0.500000 0.205541 0.465494
O O3 0.250000 0.250000 0.500000
O O4 0.168280 0.185104 0.503945
O O5 0.000000 0.166643 0.750000
O O6 0.000000 0.126311 0.990166
O O7 0.794856 0.534529 0.250000
O O8 0.668602 0.566845 0.020833
O O9 0.000000 0.543245 0.019111
O O10 0.745992 0.500000 0.000000
O O11 0.500000 0.406911 0.750000
#
# Coordination Sequence:
#
# PCOD9474048 Si02
#       4
#    16   8  16   8
#     4  11  23  40  65  91 117 151 193 243 296 353
#     4  12  26  41  59  88 123 160 200 246 301 357
#     4   9  18  33  55  82 111 146 189 237 289 346
#     4  10  21  37  55  78 114 154 194 240 290 347
#
# _framework density 18.286729000000001
#
# number of rings (size 3 to 8) (size 9 to 14) (size 15 to 20)
#    0.000    1.667    1.667    3.000    0.000    4.667 
#    0.000    3.333    0.000    0.000    0.000    0.000 
#    0.000    0.000    0.000    0.000    0.000    0.000 
#
# Total GULP energy -134114.607942 kJ/mol
# GULP energy per Si atom -5588.108664 kJ/mol
# Density = 1.824511 g / cm^3
# Si number density = 18.286729 Si / 1000 Ang^3
#
#
#
# Elastic Constant Matrix: (Units=GPa)
#
#
# Indices 1 2 3 4 5 6 
#
# 1 159.9715 122.8225 76.9557 0.0000 0.0000 0.0000
# 2 122.8225 200.0693 66.8055 0.0000 0.0000 0.0000
# 3 76.9557 66.8055 68.5521 0.0000 0.0000 0.0000
# 4 0.0000 0.0000 0.0000 38.8306 0.0000 0.0000
# 5 0.0000 0.0000 0.0000 0.0000 22.7626 0.0000
# 6 0.0000 0.0000 0.0000 0.0000 0.0000 7.9723
#
#
#
# Elastic Compliance Matrix: (Units=1/GPa)
#
#
# Indices 1 2 3 4 5 6 
#
# 1 0.017657 -0.006257 -0.013724 0.000000 0.000000 0.000000
# 2 -0.006257 0.009627 -0.002357 0.000000 0.000000 0.000000
# 3 -0.013724 -0.002357 0.032291 0.000000 0.000000 0.000000
# 4 0.000000 0.000000 0.000000 0.025753 0.000000 0.000000
# 5 0.000000 0.000000 0.000000 0.000000 0.043932 0.000000
# 6 0.000000 0.000000 0.000000 0.000000 0.000000 0.125434
#
#
# Mechanical properties :
#
#
# Convention : Reuss Voigt Hill
#
# Bulk Modulus (GPa) = 67.12255 106.86226 86.99241
# Shear Modulus (GPa) = 16.42917 24.71372 20.57144
#
# Velocity S-wave (km/s) = 3.00062 3.68020 3.35765
# Velocity P-wave (km/s) = 6.98500 8.75343 7.91873
#
# Compressibility (1/GPa) = 0.01489812
#
# Stress axis : x y z
#
# Youngs Moduli (GPa) = 56.63352 103.87851 30.96833
#
# Poissons Ratio (x) = 0.64999 0.42501
# Poissons Ratio (y) = 0.35437 0.07300
# Poissons Ratio (z) = 0.77725 0.24485
#
# Static dielectric constant tensor:
#      x y z
#    x 1.634760 0.000000 0.000000 
#    y 0.000000 1.577580 0.000000 
#    z 0.000000 0.000000 1.611880 
# 
# From -- ./inp_files/2014.got.cif
#   From: 2010.05.17/outbox.cif.g08.bks.cpg/sg63_2_cif.got.tgz:2014.got - 2010.06.03 15:47:04.
