data_PCOD9474796
_publ_section_title
;
Structure prediction by ZEFSAII (Michael W. Deem and Ramdas Pophale) SiO2 
 PCOD9474796
Probable space group: C M C M
;
_chemical_formula_sum "Si O2"
_cell_formula_units_Z 116
_cell_length_a 19.833527
_cell_length_b 18.781904
_cell_length_c 16.804326
_cell_angle_alpha 90.000000
_cell_angle_beta 90.000000
_cell_angle_gamma 90.000000
_cell_volume 6259.803006
_symmetry_space_group_name_H-M "C M C M"
_symmetry_group_IT_number 63
_symmetry_cell_setting 'orthorhombic'
loop_
_space_group_symop_operation_xyz
x,y,z
-x,-y,1/2+z
x,-y,-z
-x,y,1/2-z
-x,-y,-z
x,y,1/2-z
-x,y,z
x,-y,1/2+z
1/2+x,1/2+y,z
1/2-x,1/2-y,1/2+z
1/2+x,1/2-y,-z
1/2-x,1/2+y,1/2-z
1/2-x,1/2-y,-z
1/2+x,1/2+y,1/2-z
1/2-x,1/2+y,z
1/2+x,1/2-y,1/2+z
loop_
_atom_site_type_symbol
_atom_site_label
_atom_site_fract_x
_atom_site_fract_y
_atom_site_fract_z
Si Si1 0.579704 0.916553 0.516801
Si Si2 0.150721 0.285458 0.443752
Si Si3 0.921885 0.140240 0.435526
Si Si4 0.207116 0.239878 0.617753
Si Si5 0.316815 0.461300 0.653661
Si Si6 0.117378 0.893375 0.117993
Si Si7 0.500000 0.590006 0.750000
Si Si8 0.324515 0.894988 0.838453
O O1 0.500000 0.901616 0.517007
O O2 0.616413 0.861964 0.456436
O O3 0.613622 0.901805 0.601937
O O4 0.589900 0.000000 0.500000
O O5 0.098248 0.222900 0.423345
O O6 0.181697 0.261442 0.529057
O O7 0.215297 0.284273 0.386264
O O8 0.871379 0.092919 0.382948
O O9 0.909422 0.120470 0.528435
O O10 0.000000 0.127253 0.415921
O O11 0.159197 0.176100 0.643990
O O12 0.197757 0.312707 0.664438
O O13 0.321224 0.461447 0.750000
O O14 0.333995 0.538533 0.619547
O O15 0.241570 0.436660 0.631317
O O16 0.058438 0.908327 0.180096
O O17 0.341451 0.920194 0.750000
#
# Coordination Sequence:
#
# PCOD9474796 Si02
#       8
#    16  16  16  16  16  16   4  16
#     4  10  22  38  61  92 122 158 200 258 320 369
#     4   9  18  37  59  85 117 148 202 252 288 351
#     4  11  22  37  61  88 115 160 207 243 300 373
#     4   9  19  37  59  85 111 156 196 247 296 347
#     4  11  24  39  57  87 122 158 205 256 303 355
#     4  11  24  38  60  85 122 163 198 245 306 371
#     4  12  24  44  54  92 138 160 188 258 312 368
#     4  10  22  40  60  87 120 155 206 257 306 373
#
# _framework density 18.530934999999999
#
# number of rings (size 3 to 8) (size 9 to 14) (size 15 to 20)
#    0.000    1.793    2.759    0.828    5.793    1.103 
#    1.241    0.000    0.000    0.828    0.000    1.931 
#    0.000    0.000    0.000    0.000    0.000    0.000 
#
# Total GULP energy -323163.006975 kJ/mol
# GULP energy per Si atom -5571.775982 kJ/mol
# Density = 1.848876 g / cm^3
# Si number density = 18.530935 Si / 1000 Ang^3
#
#
#
# Elastic Constant Matrix: (Units=GPa)
#
#
# Indices 1 2 3 4 5 6 
#
# 1 66.7198 37.1815 3.2155 0.0000 0.0000 0.0000
# 2 37.1815 103.4815 -10.9210 0.0000 0.0000 0.0000
# 3 3.2155 -10.9210 15.3010 0.0000 0.0000 0.0000
# 4 0.0000 0.0000 0.0000 0.1987 0.0000 0.0000
# 5 0.0000 0.0000 0.0000 0.0000 27.7744 0.0000
# 6 0.0000 0.0000 0.0000 0.0000 0.0000 18.7975
#
#
#
# Elastic Compliance Matrix: (Units=1/GPa)
#
#
# Indices 1 2 3 4 5 6 
#
# 1 0.020097 -0.008291 -0.010141 0.000000 0.000000 0.000000
# 2 -0.008291 0.013871 0.011643 0.000000 0.000000 0.000000
# 3 -0.010141 0.011643 0.075796 0.000000 0.000000 0.000000
# 4 0.000000 0.000000 0.000000 5.032652 0.000000 0.000000
# 5 0.000000 0.000000 0.000000 0.000000 0.036004 0.000000
# 6 0.000000 0.000000 0.000000 0.000000 0.000000 0.053199
#
#
# Mechanical properties :
#
#
# Convention : Reuss Voigt Hill
#
# Bulk Modulus (GPa) = 10.39654 27.16161 18.77908
# Shear Modulus (GPa) = 0.94746 19.75586 10.35166
#
# Velocity S-wave (km/s) = 0.71582 3.26866 2.36607
# Velocity P-wave (km/s) = 2.51112 5.37911 4.19765
#
# Compressibility (1/GPa) = 0.09618581
#
# Stress axis : x y z
#
# Youngs Moduli (GPa) = 49.75752 72.09034 13.19324
#
# Poissons Ratio (x) = 0.59773 0.13380
# Poissons Ratio (y) = 0.41256 -0.15361
# Poissons Ratio (z) = 0.50461 -0.83936
#
# Static dielectric constant tensor:
#      x y z
#    x 1.623760 0.000000 0.000000 
#    y 0.000000 1.639840 0.000000 
#    z 0.000000 0.000000 1.648470 
# 
# From -- ./inp_files/45929.got.cif
#   From: 2010.05.17/outbox.cif.g08.bks.cpg/sg63_23_cif.got.tgz:45929.got - 2010.06.03 15:47:04.
