data_PCOD9474550
_publ_section_title
;
Structure prediction by ZEFSAII (Michael W. Deem and Ramdas Pophale) SiO2 
 PCOD9474550
Probable space group: C M C M
;
_chemical_formula_sum "Si O2"
_cell_formula_units_Z 48
_cell_length_a 19.250962
_cell_length_b 11.706111
_cell_length_c 8.517445
_cell_angle_alpha 90.000000
_cell_angle_beta 90.000000
_cell_angle_gamma 90.000000
_cell_volume 1919.439432
_symmetry_space_group_name_H-M "C M C M"
_symmetry_group_IT_number 63
_symmetry_cell_setting 'orthorhombic'
loop_
_space_group_symop_operation_xyz
x,y,z
-x,-y,1/2+z
x,-y,-z
-x,y,1/2-z
-x,-y,-z
x,y,1/2-z
-x,y,z
x,-y,1/2+z
1/2+x,1/2+y,z
1/2-x,1/2-y,1/2+z
1/2+x,1/2-y,-z
1/2-x,1/2+y,1/2-z
1/2-x,1/2-y,-z
1/2+x,1/2+y,1/2-z
1/2-x,1/2+y,z
1/2+x,1/2-y,1/2+z
loop_
_atom_site_type_symbol
_atom_site_label
_atom_site_fract_x
_atom_site_fract_y
_atom_site_fract_z
Si Si1 0.079982 0.651022 0.069400
Si Si2 0.774270 0.624045 0.931370
Si Si3 0.582380 0.385611 0.575439
O O1 0.090357 0.615894 0.250000
O O2 0.000000 0.624409 0.022581
O O3 0.142093 0.615293 0.956390
O O4 0.087888 0.786930 0.052068
O O5 0.755698 0.626802 0.750000
O O6 0.750963 0.500000 0.000000
O O7 0.750000 0.750000 0.000000
O O8 0.609555 0.500000 0.500000
O O9 0.611538 0.359212 0.750000
O O10 0.500000 0.399767 0.596730
#
# Coordination Sequence:
#
# PCOD9474550 Si02
#       3
#    16  16  16
#     4  10  21  39  65 100 141 184 234 294 360 429
#     4  12  27  50  78 109 147 193 247 304 367 439
#     4   9  16  27  46  77 120 170 222 277 340 410
#
# _framework density 25.007300999999998
#
# number of rings (size 3 to 8) (size 9 to 14) (size 15 to 20)
#    0.000    1.667    0.000    5.000    0.000    8.000 
#    0.000    6.667    0.000    0.000    0.000    0.000 
#    0.000    0.000    0.000    0.000    0.000    0.000 
#
# Total GULP energy -133862.484150 kJ/mol
# GULP energy per Si atom -5577.603506 kJ/mol
# Density = 2.495038 g / cm^3
# Si number density = 25.007301 Si / 1000 Ang^3
#
#
#
# Elastic Constant Matrix: (Units=GPa)
#
#
# Indices 1 2 3 4 5 6 
#
# 1 128.3129 20.3987 30.0833 0.0000 0.0000 0.0000
# 2 20.3987 208.9306 69.6784 0.0000 0.0000 0.0000
# 3 30.0833 69.6784 152.8536 0.0000 0.0000 0.0000
# 4 0.0000 0.0000 0.0000 32.7010 0.0000 0.0000
# 5 0.0000 0.0000 0.0000 0.0000 26.1893 0.0000
# 6 0.0000 0.0000 0.0000 0.0000 0.0000 -10.7367
#
#
#
# Elastic Compliance Matrix: (Units=1/GPa)
#
#
# Indices 1 2 3 4 5 6 
#
# 1 0.008187 -0.000309 -0.001471 0.000000 0.000000 0.000000
# 2 -0.000309 0.005656 -0.002518 0.000000 0.000000 0.000000
# 3 -0.001471 -0.002518 0.007979 0.000000 0.000000 0.000000
# 4 0.000000 0.000000 0.000000 0.030580 0.000000 0.000000
# 5 0.000000 0.000000 0.000000 0.000000 0.038184 0.000000
# 6 0.000000 0.000000 0.000000 0.000000 0.000000 -0.093138
#
#
# Mechanical properties :
#
#
# Convention : Reuss Voigt Hill
#
# Bulk Modulus (GPa) = 75.59351 81.15756 78.37554
# Shear Modulus (GPa) = 478.40290 34.29315 256.34803
#
# Velocity S-wave (km/s) = 13.84632 3.70716 10.13567
# Velocity P-wave (km/s) = 16.90922 7.13078 12.97632
#
# Compressibility (1/GPa) = 0.01322865
#
# Stress axis : x y z
#
# Youngs Moduli (GPa) = 122.13989 176.80247 125.32539
#
# Poissons Ratio (x) = 0.05462 0.18429
# Poissons Ratio (y) = 0.03773 0.31551
# Poissons Ratio (z) = 0.17961 0.44510
#
# Static dielectric constant tensor:
#      x y z
#    x 2.036100 0.000000 0.000000 
#    y 0.000000 2.188060 0.000000 
#    z 0.000000 0.000000 1.930040 
# 
# From -- ./inp_files/9388.got.cif
#   From: 2010.05.17/outbox.cif.g08.bks.cpg/sg63_5_cif.got.tgz:9388.got - 2010.06.03 15:47:04.
