data_PCOD9474791
_publ_section_title
;
Structure prediction by ZEFSAII (Michael W. Deem and Ramdas Pophale) SiO2 
 PCOD9474791
Probable space group: C M C M
;
_chemical_formula_sum "Si O2"
_cell_formula_units_Z 88
_cell_length_a 8.114719
_cell_length_b 24.684589
_cell_length_c 20.259856
_cell_angle_alpha 90.000000
_cell_angle_beta 90.000000
_cell_angle_gamma 90.000000
_cell_volume 4058.221434
_symmetry_space_group_name_H-M "C M C M"
_symmetry_group_IT_number 63
_symmetry_cell_setting 'orthorhombic'
loop_
_space_group_symop_operation_xyz
x,y,z
-x,-y,1/2+z
x,-y,-z
-x,y,1/2-z
-x,-y,-z
x,y,1/2-z
-x,y,z
x,-y,1/2+z
1/2+x,1/2+y,z
1/2-x,1/2-y,1/2+z
1/2+x,1/2-y,-z
1/2-x,1/2+y,1/2-z
1/2-x,1/2-y,-z
1/2+x,1/2+y,1/2-z
1/2-x,1/2+y,z
1/2+x,1/2-y,1/2+z
loop_
_atom_site_type_symbol
_atom_site_label
_atom_site_fract_x
_atom_site_fract_y
_atom_site_fract_z
Si Si1 0.765375 0.608455 0.250000
Si Si2 0.800536 0.709476 0.825514
Si Si3 0.192925 0.094266 0.018814
Si Si4 0.308213 0.524963 0.142803
Si Si5 0.690578 0.092218 0.627135
Si Si6 0.196182 0.319996 0.623386
O O1 0.791796 0.561895 0.307242
O O2 0.738223 0.653504 0.191239
O O3 0.749481 0.720111 0.750000
O O4 0.745501 0.649314 0.845723
O O5 0.734341 0.756518 0.872686
O O6 0.000000 0.710437 0.828675
O O7 0.229897 0.044597 0.068603
O O8 0.226197 0.147920 0.062173
O O9 0.000000 0.090736 0.001231
O O10 0.294455 0.093739 0.952051
O O11 0.500000 0.539258 0.156686
O O12 0.282243 0.461569 0.150782
O O13 0.500000 0.086972 0.646859
O O14 0.000000 0.328646 0.622956
#
# Coordination Sequence:
#
# PCOD9474791 Si02
#       6
#     8  16  16  16  16  16
#     4  10  22  38  60  92 124 152 196 254 306 358
#     4  10  23  42  62  86 123 166 203 246 306 370
#     4  10  22  41  64  90 123 164 206 250 306 368
#     4  10  22  39  62  90 122 164 208 249 301 367
#     4  11  24  40  61  90 125 164 206 254 307 360
#     4  11  22  39  65  95 122 153 203 260 308 359
#
# _framework density 21.684374999999999
#
# number of rings (size 3 to 8) (size 9 to 14) (size 15 to 20)
#    0.000    1.636    0.909    2.727    1.273   10.909 
#    0.000    0.000    0.000    0.000    0.000    0.000 
#    0.000    0.000    0.000    0.000    0.000    0.000 
#
# Total GULP energy -244981.912214 kJ/mol
# GULP energy per Si atom -5567.770732 kJ/mol
# Density = 2.163502 g / cm^3
# Si number density = 21.684375 Si / 1000 Ang^3
#
#
#
# Elastic Constant Matrix: (Units=GPa)
#
#
# Indices 1 2 3 4 5 6 
#
# 1 27.1218 2.8521 -0.6331 0.0000 0.0000 0.0000
# 2 2.8521 150.5138 -3.0502 0.0000 0.0000 0.0000
# 3 -0.6331 -3.0502 21.9104 0.0000 0.0000 0.0000
# 4 0.0000 0.0000 0.0000 21.0878 0.0000 0.0000
# 5 0.0000 0.0000 0.0000 0.0000 -30.9296 0.0000
# 6 0.0000 0.0000 0.0000 0.0000 0.0000 21.5629
#
#
#
# Elastic Compliance Matrix: (Units=1/GPa)
#
#
# Indices 1 2 3 4 5 6 
#
# 1 0.036965 -0.000681 0.000973 0.000000 0.000000 0.000000
# 2 -0.000681 0.006675 0.000910 0.000000 0.000000 0.000000
# 3 0.000973 0.000910 0.045795 0.000000 0.000000 0.000000
# 4 0.000000 0.000000 0.000000 0.047421 0.000000 0.000000
# 5 0.000000 0.000000 0.000000 0.000000 -0.032332 0.000000
# 6 0.000000 0.000000 0.000000 0.000000 0.000000 0.046376
#
#
# Mechanical properties :
#
#
# Convention : Reuss Voigt Hill
#
# Bulk Modulus (GPa) = 10.88852 21.98706 16.43779
# Shear Modulus (GPa) = 27.91586 15.70270 21.80928
#
# Velocity S-wave (km/s) = 3.59189 2.69392 3.17481
# Velocity P-wave (km/s) = 4.71535 4.45397 4.58652
#
# Compressibility (1/GPa) = 0.09183982
#
# Stress axis : x y z
#
# Youngs Moduli (GPa) = 27.05264 149.80726 21.83631
#
# Poissons Ratio (x) = 0.10198 -0.02125
# Poissons Ratio (y) = 0.01842 -0.01986
# Poissons Ratio (z) = -0.02633 -0.13627
#
# Static dielectric constant tensor:
#      x y z
#    x 1.816520 0.000000 0.000000 
#    y 0.000000 1.778950 0.000000 
#    z 0.000000 0.000000 1.759430 
# 
# From -- ./inp_files/51054.got.cif
#   From: 2010.05.17/outbox.cif.g08.bks.cpg/sg63_26_cif.got.tgz:51054.got - 2010.06.03 15:47:04.
