data_PCOD9474075
_publ_section_title
;
Structure prediction by ZEFSAII (Michael W. Deem and Ramdas Pophale) SiO2 
 PCOD9474075
Probable space group: C M C M
;
_chemical_formula_sum "Si O2"
_cell_formula_units_Z 112
_cell_length_a 29.282873
_cell_length_b 11.547802
_cell_length_c 15.504401
_cell_angle_alpha 90.000000
_cell_angle_beta 90.000000
_cell_angle_gamma 90.000000
_cell_volume 5242.856911
_symmetry_space_group_name_H-M "C M C M"
_symmetry_group_IT_number 63
_symmetry_cell_setting 'orthorhombic'
loop_
_space_group_symop_operation_xyz
x,y,z
-x,-y,1/2+z
x,-y,-z
-x,y,1/2-z
-x,-y,-z
x,y,1/2-z
-x,y,z
x,-y,1/2+z
1/2+x,1/2+y,z
1/2-x,1/2-y,1/2+z
1/2+x,1/2-y,-z
1/2-x,1/2+y,1/2-z
1/2-x,1/2-y,-z
1/2+x,1/2+y,1/2-z
1/2-x,1/2+y,z
1/2+x,1/2-y,1/2+z
loop_
_atom_site_type_symbol
_atom_site_label
_atom_site_fract_x
_atom_site_fract_y
_atom_site_fract_z
Si Si1 0.417243 0.441401 0.153743
Si Si2 0.777660 0.513045 0.653956
Si Si3 0.854685 0.381959 0.946409
Si Si4 0.566394 0.283758 0.653061
Si Si5 0.679502 0.500298 0.401656
Si Si6 0.949661 0.267597 0.955343
Si Si7 0.667797 0.238339 0.884383
O O1 0.431015 0.403840 0.250000
O O2 0.430717 0.576410 0.144112
O O3 0.361794 0.437583 0.147265
O O4 0.439948 0.360396 0.082460
O O5 0.764067 0.479793 0.750000
O O6 0.813797 0.418576 0.617686
O O7 0.731457 0.540258 0.601961
O O8 0.803386 0.635158 0.653418
O O9 0.905546 0.339899 0.921511
O O10 0.861773 0.500000 0.000000
O O11 0.836043 0.285700 0.012884
O O12 0.547779 0.259987 0.750000
O O13 0.549223 0.237305 0.560292
O O14 0.617307 0.233936 0.652903
O O15 0.663209 0.500000 0.500000
O O16 0.683795 0.632138 0.369223
O O17 0.000000 0.307822 0.926633
#
# Coordination Sequence:
#
# PCOD9474075 Si02
#       7
#    16  16  16  16  16  16  16
#     4  10  21  37  56  83 120 158 196 238 289 355
#     4  11  23  36  55  85 117 154 199 245 298 360
#     4   9  20  40  60  78 106 147 196 248 298 348
#     4   9  18  35  59  83 112 152 195 241 292 350
#     4  11  21  36  60  88 119 154 195 246 304 362
#     4  11  23  38  59  87 119 156 198 247 304 360
#     4   9  19  37  57  79 112 153 194 241 297 352
#
# _framework density 21.362399
#
# number of rings (size 3 to 8) (size 9 to 14) (size 15 to 20)
#    0.000    2.000    0.000    5.143    0.000    7.714 
#    0.000    1.429    0.000    0.000    0.000    2.000 
#    0.000    0.000    0.000    0.000    0.000    0.000 
#
# Total GULP energy -312169.763892 kJ/mol
# GULP energy per Si atom -5574.460069 kJ/mol
# Density = 2.131378 g / cm^3
# Si number density = 21.362399 Si / 1000 Ang^3
#
#
#
# Elastic Constant Matrix: (Units=GPa)
#
#
# Indices 1 2 3 4 5 6 
#
# 1 62.9971 7.1800 -9.0166 0.0000 0.0000 0.0000
# 2 7.1800 19.6432 -5.8080 0.0000 0.0000 0.0000
# 3 -9.0166 -5.8080 71.3812 0.0000 0.0000 0.0000
# 4 0.0000 0.0000 0.0000 11.8294 0.0000 0.0000
# 5 0.0000 0.0000 0.0000 0.0000 25.4272 0.0000
# 6 0.0000 0.0000 0.0000 0.0000 0.0000 17.1104
#
#
#
# Elastic Compliance Matrix: (Units=1/GPa)
#
#
# Indices 1 2 3 4 5 6 
#
# 1 0.016753 -0.005633 0.001658 0.000000 0.000000 0.000000
# 2 -0.005633 0.054058 0.003687 0.000000 0.000000 0.000000
# 3 0.001658 0.003687 0.014519 0.000000 0.000000 0.000000
# 4 0.000000 0.000000 0.000000 0.084535 0.000000 0.000000
# 5 0.000000 0.000000 0.000000 0.000000 0.039328 0.000000
# 6 0.000000 0.000000 0.000000 0.000000 0.000000 0.058444
#
#
# Mechanical properties :
#
#
# Convention : Reuss Voigt Hill
#
# Bulk Modulus (GPa) = 11.79918 15.41471 13.60694
# Shear Modulus (GPa) = 16.86544 21.65115 19.25829
#
# Velocity S-wave (km/s) = 2.81284 3.18703 3.00576
# Velocity P-wave (km/s) = 4.01058 4.55789 4.29297
#
# Compressibility (1/GPa) = 0.08475168
#
# Stress axis : x y z
#
# Youngs Moduli (GPa) = 59.69045 18.49881 68.87679
#
# Poissons Ratio (x) = 0.10421 -0.11418
# Poissons Ratio (y) = 0.33626 -0.25394
# Poissons Ratio (z) = -0.09896 -0.06820
#
# Static dielectric constant tensor:
#      x y z
#    x 1.807970 0.000000 0.000000 
#    y 0.000000 1.761800 0.000000 
#    z 0.000000 0.000000 1.832810 
# 
# From -- ./inp_files/38565.got.cif
#   From: 2010.05.17/outbox.cif.g08.bks.cpg/sg63_20_cif.got.tgz:38565.got - 2010.06.03 15:47:04.
