data_PCOD9474780
_publ_section_title
;
Structure prediction by ZEFSAII (Michael W. Deem and Ramdas Pophale) SiO2 
 PCOD9474780
Probable space group: C M C M
;
_chemical_formula_sum "Si O2"
_cell_formula_units_Z 72
_cell_length_a 17.458369
_cell_length_b 9.101747
_cell_length_c 20.167330
_cell_angle_alpha 90.000000
_cell_angle_beta 90.000000
_cell_angle_gamma 90.000000
_cell_volume 3204.622168
_symmetry_space_group_name_H-M "C M C M"
_symmetry_group_IT_number 63
_symmetry_cell_setting 'orthorhombic'
loop_
_space_group_symop_operation_xyz
x,y,z
-x,-y,1/2+z
x,-y,-z
-x,y,1/2-z
-x,-y,-z
x,y,1/2-z
-x,y,z
x,-y,1/2+z
1/2+x,1/2+y,z
1/2-x,1/2-y,1/2+z
1/2+x,1/2-y,-z
1/2-x,1/2+y,1/2-z
1/2-x,1/2-y,-z
1/2+x,1/2+y,1/2-z
1/2-x,1/2+y,z
1/2+x,1/2-y,1/2+z
loop_
_atom_site_type_symbol
_atom_site_label
_atom_site_fract_x
_atom_site_fract_y
_atom_site_fract_z
Si Si1 0.086057 0.037983 0.075427
Si Si2 0.294042 0.216059 0.890814
Si Si3 0.363505 0.000000 0.500000
Si Si4 0.115109 0.287155 0.891208
Si Si5 0.356659 0.814059 0.750000
Si Si6 0.761391 0.583328 0.750000
O O1 0.147271 0.149234 0.104774
O O2 0.000000 0.100866 0.076089
O O3 0.085456 0.878249 0.108088
O O4 0.108068 0.000000 0.000000
O O5 0.207405 0.272326 0.899361
O O6 0.297264 0.140980 0.818706
O O7 0.315019 0.101297 0.949072
O O8 0.409467 0.889332 0.548079
O O9 0.100564 0.347905 0.817840
O O10 0.325089 0.646467 0.750000
O O11 0.278283 0.910491 0.750000
#
# Coordination Sequence:
#
# PCOD9474780 Si02
#       6
#    16  16   8  16   8   8
#     4  11  25  44  62  94 136 171 206 263 328 381
#     4  11  23  38  65  93 128 165 217 262 315 375
#     4  12  20  34  61  94 117 158 212 266 304 360
#     4  11  23  38  65  93 128 165 217 262 315 375
#     4  10  22  38  58  93 133 165 205 267 325 369
#     4  10  22  38  58  93 133 165 205 267 325 369
#
# _framework density 22.467548000000001
#
# number of rings (size 3 to 8) (size 9 to 14) (size 15 to 20)
#    0.000    1.111    4.444    2.000   12.444    0.000 
#    0.000    4.444    0.000    1.333    0.000    0.000 
#    0.000    0.000    0.000    0.000    0.000    0.000 
#
# Total GULP energy -201285.832752 kJ/mol
# GULP energy per Si atom -5591.273132 kJ/mol
# Density = 2.241641 g / cm^3
# Si number density = 22.467548 Si / 1000 Ang^3
#
#
#
# Elastic Constant Matrix: (Units=GPa)
#
#
# Indices 1 2 3 4 5 6 
#
# 1 65.8112 22.0671 21.5002 0.0000 0.0000 0.0000
# 2 22.0671 94.8018 37.7833 0.0000 0.0000 0.0000
# 3 21.5002 37.7833 183.7371 0.0000 0.0000 0.0000
# 4 0.0000 0.0000 0.0000 37.5251 0.0000 0.0000
# 5 0.0000 0.0000 0.0000 0.0000 -37.9525 0.0000
# 6 0.0000 0.0000 0.0000 0.0000 0.0000 -1.8787
#
#
#
# Elastic Compliance Matrix: (Units=1/GPa)
#
#
# Indices 1 2 3 4 5 6 
#
# 1 0.016745 -0.003395 -0.001261 0.000000 0.000000 0.000000
# 2 -0.003395 0.012178 -0.002107 0.000000 0.000000 0.000000
# 3 -0.001261 -0.002107 0.006023 0.000000 0.000000 0.000000
# 4 0.000000 0.000000 0.000000 0.026649 0.000000 0.000000
# 5 0.000000 0.000000 0.000000 0.000000 -0.026349 0.000000
# 6 0.000000 0.000000 0.000000 0.000000 0.000000 -0.532284
#
#
# Mechanical properties :
#
#
# Convention : Reuss Voigt Hill
#
# Bulk Modulus (GPa) = 46.68479 56.33904 51.51192
# Shear Modulus (GPa) = -10.49605 17.07207 3.28801
#
# Velocity S-wave (km/s) = -2.16374 2.75954 1.21104
# Velocity P-wave (km/s) = 3.81857 5.94000 4.99325
#
# Compressibility (1/GPa) = 0.02142025
#
# Stress axis : x y z
#
# Youngs Moduli (GPa) = 59.71760 82.11275 166.01798
#
# Poissons Ratio (x) = 0.27879 0.20940
# Poissons Ratio (y) = 0.20275 0.34981
# Poissons Ratio (z) = 0.07532 0.17302
#
# Static dielectric constant tensor:
#      x y z
#    x 1.815340 0.000000 0.000000 
#    y 0.000000 1.903090 0.000000 
#    z 0.000000 0.000000 1.864450 
# 
# From -- ./inp_files/56351.got.cif
#   From: 2010.05.17/outbox.cif.g08.bks.cpg/sg63_29_cif.got.tgz:56351.got - 2010.06.03 15:47:04.
