data_PCOD9474440
_publ_section_title
;
Structure prediction by ZEFSAII (Michael W. Deem and Ramdas Pophale) SiO2 
 PCOD9474440
Probable space group: C M C M
;
_chemical_formula_sum "Si O2"
_cell_formula_units_Z 88
_cell_length_a 32.219780
_cell_length_b 7.975923
_cell_length_c 16.891223
_cell_angle_alpha 90.000000
_cell_angle_beta 90.000000
_cell_angle_gamma 90.000000
_cell_volume 4340.748450
_symmetry_space_group_name_H-M "C M C M"
_symmetry_group_IT_number 63
_symmetry_cell_setting 'orthorhombic'
loop_
_space_group_symop_operation_xyz
x,y,z
-x,-y,1/2+z
x,-y,-z
-x,y,1/2-z
-x,-y,-z
x,y,1/2-z
-x,y,z
x,-y,1/2+z
1/2+x,1/2+y,z
1/2-x,1/2-y,1/2+z
1/2+x,1/2-y,-z
1/2-x,1/2+y,1/2-z
1/2-x,1/2-y,-z
1/2+x,1/2+y,1/2-z
1/2-x,1/2+y,z
1/2+x,1/2-y,1/2+z
loop_
_atom_site_type_symbol
_atom_site_label
_atom_site_fract_x
_atom_site_fract_y
_atom_site_fract_z
Si Si1 0.767374 0.121346 0.838852
Si Si2 0.952201 0.672057 0.549819
Si Si3 0.149587 0.062184 0.339405
Si Si4 0.599561 0.500000 0.000000
Si Si5 0.117230 0.563010 0.838482
Si Si6 0.805564 0.433835 0.912287
O O1 0.769442 0.193484 0.750000
O O2 0.801560 0.974540 0.843683
O O3 0.784470 0.255112 0.900766
O O4 0.722227 0.052987 0.856973
O O5 0.951417 0.500000 0.500000
O O6 0.928099 0.830680 0.510953
O O7 0.927066 0.614327 0.627159
O O8 0.000000 0.719150 0.563931
O O9 0.136093 0.001305 0.250000
O O10 0.126627 0.990963 0.418249
O O11 0.141059 0.259451 0.340497
O O12 0.114334 0.498207 0.750000
O O13 0.146204 0.438578 0.888343
O O14 0.801770 0.500000 0.000000
#
# Coordination Sequence:
#
# PCOD9474440 Si02
#       6
#    16  16  16   8  16  16
#     4  11  23  39  57  82 119 162 202 250 303 363
#     4  10  22  40  63  92 122 156 201 254 314 380
#     4   9  21  37  59  88 119 160 206 251 303 366
#     4  10  21  38  68  88 128 164 204 250 319 370
#     4  10  21  39  60  85 118 158 201 252 307 367
#     4  12  25  37  58  86 118 156 206 253 308 367
#
# _framework density 20.273
#
# number of rings (size 3 to 8) (size 9 to 14) (size 15 to 20)
#    0.000    1.636    0.000    4.091    8.909    1.818 
#    0.000    0.000    0.000    2.727    0.000    0.000 
#    0.000    0.000    0.000    0.000    0.000    0.000 
#
# Total GULP energy -245572.321160 kJ/mol
# GULP energy per Si atom -5581.189117 kJ/mol
# Density = 2.022686 g / cm^3
# Si number density = 20.273000 Si / 1000 Ang^3
#
#
#
# Elastic Constant Matrix: (Units=GPa)
#
#
# Indices 1 2 3 4 5 6 
#
# 1 112.7199 12.6343 40.1270 0.0000 0.0000 0.0000
# 2 12.6343 42.6850 5.5720 0.0000 0.0000 0.0000
# 3 40.1270 5.5720 78.6253 0.0000 0.0000 0.0000
# 4 0.0000 0.0000 0.0000 11.4434 0.0000 0.0000
# 5 0.0000 0.0000 0.0000 0.0000 24.7347 0.0000
# 6 0.0000 0.0000 0.0000 0.0000 0.0000 24.3073
#
#
#
# Elastic Compliance Matrix: (Units=1/GPa)
#
#
# Indices 1 2 3 4 5 6 
#
# 1 0.011114 -0.002573 -0.005490 0.000000 0.000000 0.000000
# 2 -0.002573 0.024242 -0.000405 0.000000 0.000000 0.000000
# 3 -0.005490 -0.000405 0.015549 0.000000 0.000000 0.000000
# 4 0.000000 0.000000 0.000000 0.087386 0.000000 0.000000
# 5 0.000000 0.000000 0.000000 0.000000 0.040429 0.000000
# 6 0.000000 0.000000 0.000000 0.000000 0.000000 0.041140
#
#
# Mechanical properties :
#
#
# Convention : Reuss Voigt Hill
#
# Bulk Modulus (GPa) = 29.43801 38.96630 34.20216
# Shear Modulus (GPa) = 20.15161 23.81023 21.98092
#
# Velocity S-wave (km/s) = 3.15622 3.43079 3.29636
# Velocity P-wave (km/s) = 5.27585 5.91238 5.60316
#
# Compressibility (1/GPa) = 0.03396969
#
# Stress axis : x y z
#
# Youngs Moduli (GPa) = 89.97426 41.25098 64.31261
#
# Poissons Ratio (x) = 0.10614 0.35307
# Poissons Ratio (y) = 0.23151 0.02603
# Poissons Ratio (z) = 0.49395 0.01670
#
# Static dielectric constant tensor:
#      x y z
#    x 1.698590 0.000000 0.000000 
#    y 0.000000 1.746240 0.000000 
#    z 0.000000 0.000000 1.737490 
# 
# From -- ./inp_files/49489.got.cif
#   From: 2010.05.17/outbox.cif.g08.bks.cpg/sg63_25_cif.got.tgz:49489.got - 2010.06.03 15:47:04.
