data_PCOD9474143
_publ_section_title
;
Structure prediction by ZEFSAII (Michael W. Deem and Ramdas Pophale) SiO2 
 PCOD9474143
Probable space group: C M C M
;
_chemical_formula_sum "Si O2"
_cell_formula_units_Z 64
_cell_length_a 22.062171
_cell_length_b 8.375890
_cell_length_c 14.104730
_cell_angle_alpha 90.000000
_cell_angle_beta 90.000000
_cell_angle_gamma 90.000000
_cell_volume 2606.417534
_symmetry_space_group_name_H-M "C M C M"
_symmetry_group_IT_number 63
_symmetry_cell_setting 'orthorhombic'
loop_
_space_group_symop_operation_xyz
x,y,z
-x,-y,1/2+z
x,-y,-z
-x,y,1/2-z
-x,-y,-z
x,y,1/2-z
-x,y,z
x,-y,1/2+z
1/2+x,1/2+y,z
1/2-x,1/2-y,1/2+z
1/2+x,1/2-y,-z
1/2-x,1/2+y,1/2-z
1/2-x,1/2-y,-z
1/2+x,1/2+y,1/2-z
1/2-x,1/2+y,z
1/2+x,1/2-y,1/2+z
loop_
_atom_site_type_symbol
_atom_site_label
_atom_site_fract_x
_atom_site_fract_y
_atom_site_fract_z
Si Si1 0.105952 0.231872 0.857293
Si Si2 0.637971 0.072588 0.863311
Si Si3 0.931171 0.111780 0.365160
Si Si4 0.272261 0.379308 0.073327
O O1 0.082334 0.247141 0.750000
O O2 0.105558 0.410533 0.900146
O O3 0.177313 0.184741 0.856635
O O4 0.076141 0.071916 0.899483
O O5 0.629277 0.072161 0.750000
O O6 0.612704 0.244001 0.897838
O O7 0.710098 0.057898 0.881371
O O8 0.921481 0.100277 0.250000
O O9 0.000000 0.163729 0.381695
O O10 0.302765 0.500000 0.000000
O O11 0.250000 0.250000 0.000000
#
# Coordination Sequence:
#
# PCOD9474143 Si02
#       4
#    16  16  16  16
#     4  10  21  37  58  86 118 152 191 237 288 344
#     4  10  21  37  58  85 116 151 189 236 289 341
#     4   9  19  36  59  87 115 147 192 240 284 336
#     4  12  22  36  56  84 118 154 189 236 287 345
#
# _framework density 24.554777000000001
#
# number of rings (size 3 to 8) (size 9 to 14) (size 15 to 20)
#    0.000    1.750    2.500    2.250    0.000    1.000 
#    0.000    5.000    0.000    7.500    0.000    0.000 
#    0.000    0.000    0.000    0.000    0.000    0.000 
#
# Total GULP energy -178547.053796 kJ/mol
# GULP energy per Si atom -5579.595431 kJ/mol
# Density = 2.449889 g / cm^3
# Si number density = 24.554777 Si / 1000 Ang^3
#
#
#
# Elastic Constant Matrix: (Units=GPa)
#
#
# Indices 1 2 3 4 5 6 
#
# 1 72.8031 35.1674 -5.7556 0.0000 0.0000 0.0000
# 2 35.1674 178.0298 32.2274 0.0000 0.0000 0.0000
# 3 -5.7556 32.2274 55.5891 0.0000 0.0000 0.0000
# 4 0.0000 0.0000 0.0000 30.5094 0.0000 0.0000
# 5 0.0000 0.0000 0.0000 0.0000 8.7052 0.0000
# 6 0.0000 0.0000 0.0000 0.0000 0.0000 30.9031
#
#
#
# Elastic Compliance Matrix: (Units=1/GPa)
#
#
# Indices 1 2 3 4 5 6 
#
# 1 0.015897 -0.003841 0.003873 0.000000 0.000000 0.000000
# 2 -0.003841 0.007204 -0.004574 0.000000 0.000000 0.000000
# 3 0.003873 -0.004574 0.021042 0.000000 0.000000 0.000000
# 4 0.000000 0.000000 0.000000 0.032777 0.000000 0.000000
# 5 0.000000 0.000000 0.000000 0.000000 0.114874 0.000000
# 6 0.000000 0.000000 0.000000 0.000000 0.000000 0.032359
#
#
# Mechanical properties :
#
#
# Convention : Reuss Voigt Hill
#
# Bulk Modulus (GPa) = 28.52394 47.74450 38.13422
# Shear Modulus (GPa) = 20.41443 30.34239 25.37841
#
# Velocity S-wave (km/s) = 2.88650 3.51907 3.21836
# Velocity P-wave (km/s) = 4.76978 5.99984 5.41982
#
# Compressibility (1/GPa) = 0.03505827
#
# Stress axis : x y z
#
# Youngs Moduli (GPa) = 62.90310 138.81394 47.52403
#
# Poissons Ratio (x) = 0.53325 -0.18406
# Poissons Ratio (y) = 0.24164 0.21738
# Poissons Ratio (z) = -0.24363 0.63496
#
# Static dielectric constant tensor:
#      x y z
#    x 1.950040 0.000000 0.000000 
#    y 0.000000 1.939210 0.000000 
#    z 0.000000 0.000000 1.939830 
# 
# From -- ./inp_files/36202.got.cif
#   From: 2010.05.17/outbox.cif.g08.bks.cpg/sg63_19_cif.got.tgz:36202.got - 2010.06.03 15:47:04.
