data_PCOD9474577
_publ_section_title
;
Structure prediction by ZEFSAII (Michael W. Deem and Ramdas Pophale) SiO2 
 PCOD9474577
Probable space group: C M C M
;
_chemical_formula_sum "Si O2"
_cell_formula_units_Z 52
_cell_length_a 24.120375
_cell_length_b 5.388440
_cell_length_c 18.198463
_cell_angle_alpha 90.000000
_cell_angle_beta 90.000000
_cell_angle_gamma 90.000000
_cell_volume 2365.275955
_symmetry_space_group_name_H-M "C M C M"
_symmetry_group_IT_number 63
_symmetry_cell_setting 'orthorhombic'
loop_
_space_group_symop_operation_xyz
x,y,z
-x,-y,1/2+z
x,-y,-z
-x,y,1/2-z
-x,-y,-z
x,y,1/2-z
-x,y,z
x,-y,1/2+z
1/2+x,1/2+y,z
1/2-x,1/2-y,1/2+z
1/2+x,1/2-y,-z
1/2-x,1/2+y,1/2-z
1/2-x,1/2-y,-z
1/2+x,1/2+y,1/2-z
1/2-x,1/2+y,z
1/2+x,1/2-y,1/2+z
loop_
_atom_site_type_symbol
_atom_site_label
_atom_site_fract_x
_atom_site_fract_y
_atom_site_fract_z
Si Si1 0.903306 0.751939 0.910645
Si Si2 0.273692 0.768332 0.081937
Si Si3 0.000000 0.000000 0.000000
Si Si4 0.438330 0.259656 0.337707
O O1 0.839374 0.714630 0.930125
O O2 0.920781 0.507809 0.865951
O O3 0.903577 0.004839 0.862751
O O4 0.949430 0.805283 0.972370
O O5 0.252431 0.513331 0.118520
O O6 0.250000 0.750000 0.000000
O O7 0.441278 0.253481 0.250000
O O8 0.500000 0.317555 0.370400
#
# Coordination Sequence:
#
# PCOD9474577 Si02
#       4
#    16  16   4  16
#     4  12  24  40  67  99 135 166 218 276 327 401
#     4  10  21  40  61  90 124 177 213 249 317 392
#     4  12  24  38  58 106 136 158 200 270 344 382
#     4  11  23  44  66  94 132 177 221 264 330 398
#
# _framework density 21.984748
#
# number of rings (size 3 to 8) (size 9 to 14) (size 15 to 20)
#    0.000    0.923    3.077    4.615    0.000    7.385 
#    0.000    0.000    0.000   18.462    0.000    0.000 
#    0.000    0.000    0.000    0.000    0.000    0.000 
#
# Total GULP energy -144848.563452 kJ/mol
# GULP energy per Si atom -5571.098594 kJ/mol
# Density = 2.193471 g / cm^3
# Si number density = 21.984748 Si / 1000 Ang^3
#
#
#
# Elastic Constant Matrix: (Units=GPa)
#
#
# Indices 1 2 3 4 5 6 
#
# 1 155.3913 -10.2897 2.8683 0.0000 0.0000 0.0000
# 2 -10.2897 154.8557 12.2411 0.0000 0.0000 0.0000
# 3 2.8683 12.2411 25.4756 0.0000 0.0000 0.0000
# 4 0.0000 0.0000 0.0000 13.8313 0.0000 0.0000
# 5 0.0000 0.0000 0.0000 0.0000 53.3301 0.0000
# 6 0.0000 0.0000 0.0000 0.0000 0.0000 31.8529
#
#
#
# Elastic Compliance Matrix: (Units=1/GPa)
#
#
# Indices 1 2 3 4 5 6 
#
# 1 0.006487 0.000508 -0.000975 0.000000 0.000000 0.000000
# 2 0.000508 0.006752 -0.003302 0.000000 0.000000 0.000000
# 3 -0.000975 -0.003302 0.040949 0.000000 0.000000 0.000000
# 4 0.000000 0.000000 0.000000 0.072300 0.000000 0.000000
# 5 0.000000 0.000000 0.000000 0.000000 0.018751 0.000000
# 6 0.000000 0.000000 0.000000 0.000000 0.000000 0.031394
#
#
# Mechanical properties :
#
#
# Convention : Reuss Voigt Hill
#
# Bulk Modulus (GPa) = 21.43511 38.37357 29.90434
# Shear Modulus (GPa) = 25.03493 41.86306 33.44899
#
# Velocity S-wave (km/s) = 3.37818 4.36843 3.90483
# Velocity P-wave (km/s) = 4.99873 6.55262 5.82770
#
# Compressibility (1/GPa) = 0.04665242
#
# Stress axis : x y z
#
# Youngs Moduli (GPa) = 154.15454 148.09584 24.42039
#
# Poissons Ratio (x) = -0.07524 0.02380
# Poissons Ratio (y) = -0.07832 0.08063
# Poissons Ratio (z) = 0.15022 0.48897
#
# Static dielectric constant tensor:
#      x y z
#    x 1.801770 0.000000 0.000000 
#    y 0.000000 1.589280 0.000000 
#    z 0.000000 0.000000 2.606210 
# 
# From -- ./inp_files/56200.got.cif
#   From: 2010.05.17/outbox.cif.g08.bks.cpg/sg63_29_cif.got.tgz:56200.got - 2010.06.03 15:47:04.
