data_PCOD9474066
_publ_section_title
;
Structure prediction by ZEFSAII (Michael W. Deem and Ramdas Pophale) SiO2 
 PCOD9474066
Probable space group: C M C M
;
_chemical_formula_sum "Si O2"
_cell_formula_units_Z 96
_cell_length_a 8.277422
_cell_length_b 24.454614
_cell_length_c 26.006585
_cell_angle_alpha 90.000000
_cell_angle_beta 90.000000
_cell_angle_gamma 90.000000
_cell_volume 5264.283101
_symmetry_space_group_name_H-M "C M C M"
_symmetry_group_IT_number 63
_symmetry_cell_setting 'orthorhombic'
loop_
_space_group_symop_operation_xyz
x,y,z
-x,-y,1/2+z
x,-y,-z
-x,y,1/2-z
-x,-y,-z
x,y,1/2-z
-x,y,z
x,-y,1/2+z
1/2+x,1/2+y,z
1/2-x,1/2-y,1/2+z
1/2+x,1/2-y,-z
1/2-x,1/2+y,1/2-z
1/2-x,1/2-y,-z
1/2+x,1/2+y,1/2-z
1/2-x,1/2+y,z
1/2+x,1/2-y,1/2+z
loop_
_atom_site_type_symbol
_atom_site_label
_atom_site_fract_x
_atom_site_fract_y
_atom_site_fract_z
Si Si1 0.802528 0.366923 0.402028
Si Si2 0.805112 0.440306 0.308558
Si Si3 0.693420 0.250343 0.559205
Si Si4 0.193204 0.633621 0.401244
Si Si5 0.802709 0.437314 0.501126
Si Si6 0.693128 0.561358 0.191146
O O1 0.747638 0.395504 0.349440
O O2 0.749025 0.305047 0.412720
O O3 0.753468 0.404298 0.450377
O O4 0.000000 0.366601 0.401221
O O5 0.746091 0.432030 0.250000
O O6 0.757420 0.501595 0.325070
O O7 0.000000 0.438069 0.307584
O O8 0.500000 0.249362 0.558814
O O9 0.750000 0.250000 0.500000
O O10 0.750206 0.305139 0.587238
O O11 0.251295 0.594936 0.448136
O O12 0.250994 0.607580 0.348077
O O13 0.000000 0.632976 0.402043
O O14 0.748427 0.500000 0.500000
O O15 0.000000 0.437744 0.501671
O O16 0.749199 0.570728 0.250000
O O17 0.500000 0.559315 0.191294
#
# Coordination Sequence:
#
# PCOD9474066 Si02
#       6
#    16  16  16  16  16  16
#     4   9  17  31  51  77 108 142 181 222 266 319
#     4   9  17  32  57  84 106 136 180 223 263 316
#     4  11  21  36  55  76 108 149 189 229 276 327
#     4  11  21  35  56  80 106 141 186 229 272 325
#     4   9  16  27  48  76 103 134 172 216 267 320
#     4  10  21  37  56  80 112 146 176 215 273 330
#
# _framework density 18.236101999999999
#
# number of rings (size 3 to 8) (size 9 to 14) (size 15 to 20)
#    0.000    2.167    1.667    2.500    0.000    3.667 
#    0.000    2.500    0.000    5.000    0.000    0.000 
#    0.000    0.000    0.000    0.000    0.000    0.000 
#
# Total GULP energy -267928.599996 kJ/mol
# GULP energy per Si atom -5581.845833 kJ/mol
# Density = 1.819460 g / cm^3
# Si number density = 18.236102 Si / 1000 Ang^3
#
#
#
# Elastic Constant Matrix: (Units=GPa)
#
#
# Indices 1 2 3 4 5 6 
#
# 1 18.4017 14.6580 13.9021 0.0000 0.0000 0.0000
# 2 14.6580 192.6462 100.2063 0.0000 0.0000 0.0000
# 3 13.9021 100.2063 118.7250 0.0000 0.0000 0.0000
# 4 0.0000 0.0000 0.0000 27.4995 0.0000 0.0000
# 5 0.0000 0.0000 0.0000 0.0000 19.2793 0.0000
# 6 0.0000 0.0000 0.0000 0.0000 0.0000 25.2607
#
#
#
# Elastic Compliance Matrix: (Units=1/GPa)
#
#
# Indices 1 2 3 4 5 6 
#
# 1 0.059899 -0.001621 -0.005646 0.000000 0.000000 0.000000
# 2 -0.001621 0.009297 -0.007657 0.000000 0.000000 0.000000
# 3 -0.005646 -0.007657 0.015547 0.000000 0.000000 0.000000
# 4 0.000000 0.000000 0.000000 0.036364 0.000000 0.000000
# 5 0.000000 0.000000 0.000000 0.000000 0.051869 0.000000
# 6 0.000000 0.000000 0.000000 0.000000 0.000000 0.039587
#
#
# Mechanical properties :
#
#
# Convention : Reuss Voigt Hill
#
# Bulk Modulus (GPa) = 18.21651 65.25621 41.73636
# Shear Modulus (GPa) = 19.17840 27.80832 23.49336
#
# Velocity S-wave (km/s) = 3.24647 3.90924 3.59317
# Velocity P-wave (km/s) = 4.90547 7.49920 6.33647
#
# Compressibility (1/GPa) = 0.05489527
#
# Stress axis : x y z
#
# Youngs Moduli (GPa) = 16.69471 107.56014 64.32217
#
# Poissons Ratio (x) = 0.17434 0.36316
# Poissons Ratio (y) = 0.02706 0.49253
# Poissons Ratio (z) = 0.09426 0.82361
#
# Static dielectric constant tensor:
#      x y z
#    x 1.643060 0.000000 0.000000 
#    y 0.000000 1.591730 0.000000 
#    z 0.000000 0.000000 1.618630 
# 
# From -- ./inp_files/59890.got.cif
#   From: 2010.05.17/outbox.cif.g08.bks.cpg/sg63_30_cif.got.tgz:59890.got - 2010.06.03 15:47:04.
