data_PCOD9474367
_publ_section_title
;
Structure prediction by ZEFSAII (Michael W. Deem and Ramdas Pophale) SiO2 
 PCOD9474367
Probable space group: C M C M
;
_chemical_formula_sum "Si O2"
_cell_formula_units_Z 112
_cell_length_a 14.778245
_cell_length_b 12.376723
_cell_length_c 30.351452
_cell_angle_alpha 90.000000
_cell_angle_beta 90.000000
_cell_angle_gamma 90.000000
_cell_volume 5551.470109
_symmetry_space_group_name_H-M "C M C M"
_symmetry_group_IT_number 63
_symmetry_cell_setting 'orthorhombic'
loop_
_space_group_symop_operation_xyz
x,y,z
-x,-y,1/2+z
x,-y,-z
-x,y,1/2-z
-x,-y,-z
x,y,1/2-z
-x,y,z
x,-y,1/2+z
1/2+x,1/2+y,z
1/2-x,1/2-y,1/2+z
1/2+x,1/2-y,-z
1/2-x,1/2+y,1/2-z
1/2-x,1/2-y,-z
1/2+x,1/2+y,1/2-z
1/2-x,1/2+y,z
1/2+x,1/2-y,1/2+z
loop_
_atom_site_type_symbol
_atom_site_label
_atom_site_fract_x
_atom_site_fract_y
_atom_site_fract_z
Si Si1 0.397283 0.279360 0.197769
Si Si2 0.662271 0.942799 0.934624
Si Si3 0.102331 0.667511 0.598714
Si Si4 0.399436 0.493479 0.360753
Si Si5 0.897386 0.268798 0.998370
Si Si6 0.152406 0.940692 0.041266
Si Si7 0.254175 0.317153 0.641121
O O1 0.390984 0.295686 0.250000
O O2 0.500000 0.237859 0.188201
O O3 0.388473 0.391964 0.171459
O O4 0.315123 0.206451 0.180357
O O5 0.691217 0.851235 0.899919
O O6 0.610497 0.039617 0.910228
O O7 0.753416 0.998504 0.951640
O O8 0.613930 0.883765 0.974919
O O9 0.114693 0.722504 0.550576
O O10 0.182043 0.715083 0.628870
O O11 0.000000 0.692140 0.613963
O O12 0.500000 0.539756 0.354307
O O13 0.393275 0.451163 0.411215
O O14 0.322870 0.582804 0.352798
O O15 0.000000 0.231397 0.989822
O O16 0.834312 0.181016 0.975217
O O17 0.105644 0.000000 0.000000
#
# Coordination Sequence:
#
# PCOD9474367 Si02
#       7
#    16  16  16  16  16  16  16
#     4  10  23  44  68  92 116 145 189 244 299 361
#     4  11  22  35  53  78 112 156 205 250 292 341
#     4  11  23  37  54  82 120 160 201 244 291 345
#     4  10  21  38  61  90 124 161 199 241 295 356
#     4  11  22  35  52  76 112 160 209 251 290 336
#     4  11  22  34  55  85 120 161 210 256 294 341
#     4  11  22  38  61  88 116 150 189 237 298 356
#
# _framework density 20.174835999999999
#
# number of rings (size 3 to 8) (size 9 to 14) (size 15 to 20)
#    0.000    1.286    0.000    7.714    0.000    8.000 
#    0.000    0.000    0.000    1.286    0.000    0.000 
#    0.000    0.000    0.000    0.000    0.000    0.000 
#
# Total GULP energy -313062.758974 kJ/mol
# GULP energy per Si atom -5590.406410 kJ/mol
# Density = 2.012892 g / cm^3
# Si number density = 20.174836 Si / 1000 Ang^3
#
#
#
# Elastic Constant Matrix: (Units=GPa)
#
#
# Indices 1 2 3 4 5 6 
#
# 1 97.7077 19.9445 52.7128 0.0000 0.0000 0.0000
# 2 19.9445 69.8710 22.4502 0.0000 0.0000 0.0000
# 3 52.7128 22.4502 88.1938 0.0000 0.0000 0.0000
# 4 0.0000 0.0000 0.0000 21.9731 0.0000 0.0000
# 5 0.0000 0.0000 0.0000 0.0000 25.5200 0.0000
# 6 0.0000 0.0000 0.0000 0.0000 0.0000 22.1432
#
#
#
# Elastic Compliance Matrix: (Units=1/GPa)
#
#
# Indices 1 2 3 4 5 6 
#
# 1 0.015258 -0.001552 -0.008725 0.000000 0.000000 0.000000
# 2 -0.001552 0.015745 -0.003080 0.000000 0.000000 0.000000
# 3 -0.008725 -0.003080 0.017337 0.000000 0.000000 0.000000
# 4 0.000000 0.000000 0.000000 0.045510 0.000000 0.000000
# 5 0.000000 0.000000 0.000000 0.000000 0.039185 0.000000
# 6 0.000000 0.000000 0.000000 0.000000 0.000000 0.045161
#
#
# Mechanical properties :
#
#
# Convention : Reuss Voigt Hill
#
# Bulk Modulus (GPa) = 46.23956 49.55417 47.89687
# Shear Modulus (GPa) = 23.57164 24.63827 24.10495
#
# Velocity S-wave (km/s) = 3.42185 3.49841 3.46034
# Velocity P-wave (km/s) = 6.21138 6.39798 6.30537
#
# Compressibility (1/GPa) = 0.02162650
#
# Stress axis : x y z
#
# Youngs Moduli (GPa) = 65.53783 63.51283 57.67865
#
# Poissons Ratio (x) = 0.09858 0.50323
# Poissons Ratio (y) = 0.10172 0.17766
# Poissons Ratio (z) = 0.57180 0.19563
#
# Static dielectric constant tensor:
#      x y z
#    x 1.769870 0.000000 0.000000 
#    y 0.000000 1.742550 0.000000 
#    z 0.000000 0.000000 1.679930 
# 
# From -- ./inp_files/73445.got.cif
#   From: 2010.05.17/outbox.cif.g08.bks.cpg/sg63_37_cif.got.tgz:73445.got - 2010.06.03 15:47:04.
