data_PCOD9474485
_publ_section_title
;
Structure prediction by ZEFSAII (Michael W. Deem and Ramdas Pophale) SiO2 
 PCOD9474485
Probable space group: C M C M
;
_chemical_formula_sum "Si O2"
_cell_formula_units_Z 88
_cell_length_a 23.800972
_cell_length_b 5.381082
_cell_length_c 30.520237
_cell_angle_alpha 90.000000
_cell_angle_beta 90.000000
_cell_angle_gamma 90.000000
_cell_volume 3908.878805
_symmetry_space_group_name_H-M "C M C M"
_symmetry_group_IT_number 63
_symmetry_cell_setting 'orthorhombic'
loop_
_space_group_symop_operation_xyz
x,y,z
-x,-y,1/2+z
x,-y,-z
-x,y,1/2-z
-x,-y,-z
x,y,1/2-z
-x,y,z
x,-y,1/2+z
1/2+x,1/2+y,z
1/2-x,1/2-y,1/2+z
1/2+x,1/2-y,-z
1/2-x,1/2+y,1/2-z
1/2-x,1/2-y,-z
1/2+x,1/2+y,1/2-z
1/2-x,1/2+y,z
1/2+x,1/2-y,1/2+z
loop_
_atom_site_type_symbol
_atom_site_label
_atom_site_fract_x
_atom_site_fract_y
_atom_site_fract_z
Si Si1 0.775230 0.412238 0.576402
Si Si2 0.877476 0.239635 0.973206
Si Si3 0.500000 0.149548 0.360515
Si Si4 0.000000 0.028244 0.297951
Si Si5 0.500000 0.821583 0.542277
Si Si6 0.723147 0.992641 0.679970
Si Si7 0.905692 0.431848 0.299151
O O1 0.764182 0.689513 0.558016
O O2 0.836812 0.304916 0.566853
O O3 0.766659 0.455346 0.627952
O O4 0.941242 0.177894 0.959365
O O5 0.878340 0.500000 0.000000
O O6 0.857001 0.000000 0.000000
O O7 0.500000 0.438795 0.348716
O O8 0.500000 0.056344 0.409672
O O9 0.444299 0.074436 0.333870
O O10 0.000000 0.888525 0.250000
O O11 0.058222 0.180213 0.295961
O O12 0.500000 0.000000 0.500000
O O13 0.738705 0.718951 0.697618
O O14 0.658785 0.073433 0.686719
O O15 0.905886 0.539551 0.250000
#
# Coordination Sequence:
#
# PCOD9474485 Si02
#       7
#    16  16   8   8   8  16  16
#     4  10  21  39  61  90 123 162 213 267 316 382
#     4  11  23  41  62  90 123 163 208 268 334 390
#     4  11  21  42  69  96 126 179 222 277 349 396
#     4   9  20  39  63  99 131 164 219 281 333 395
#     4  10  24  45  63  93 131 169 219 273 335 413
#     4  10  23  41  62  93 133 179 221 266 327 398
#     4  10  22  40  64  98 133 172 224 279 333 399
#
# _framework density 22.512848999999999
#
# number of rings (size 3 to 8) (size 9 to 14) (size 15 to 20)
#    0.000    1.818    0.000    3.818    2.545    2.909 
#   19.636    0.000    0.000    0.000    0.000    0.000 
#    0.000    0.000    0.000    0.000    0.000    0.000 
#
# Total GULP energy -244966.686088 kJ/mol
# GULP energy per Si atom -5567.424684 kJ/mol
# Density = 2.246161 g / cm^3
# Si number density = 22.512849 Si / 1000 Ang^3
#
#
#
# Elastic Constant Matrix: (Units=GPa)
#
#
# Indices 1 2 3 4 5 6 
#
# 1 111.8356 25.9663 -0.9577 0.0000 0.0000 0.0000
# 2 25.9663 99.6361 29.1910 0.0000 0.0000 0.0000
# 3 -0.9577 29.1910 67.2319 0.0000 0.0000 0.0000
# 4 0.0000 0.0000 0.0000 21.9115 0.0000 0.0000
# 5 0.0000 0.0000 0.0000 0.0000 56.2590 0.0000
# 6 0.0000 0.0000 0.0000 0.0000 0.0000 655.2318
#
#
#
# Elastic Compliance Matrix: (Units=1/GPa)
#
#
# Indices 1 2 3 4 5 6 
#
# 1 0.009632 -0.002922 0.001406 0.000000 0.000000 0.000000
# 2 -0.002922 0.012386 -0.005419 0.000000 0.000000 0.000000
# 3 0.001406 -0.005419 0.017247 0.000000 0.000000 0.000000
# 4 0.000000 0.000000 0.000000 0.045638 0.000000 0.000000
# 5 0.000000 0.000000 0.000000 0.000000 0.017775 0.000000
# 6 0.000000 0.000000 0.000000 0.000000 0.000000 0.001526
#
#
# Mechanical properties :
#
#
# Convention : Reuss Voigt Hill
#
# Bulk Modulus (GPa) = 39.37962 43.01140 41.19551
# Shear Modulus (GPa) = 39.51325 161.64741 100.58033
#
# Velocity S-wave (km/s) = 4.19399 8.48282 6.69133
# Velocity P-wave (km/s) = 6.40178 10.72805 8.83385
#
# Compressibility (1/GPa) = 0.02539385
#
# Stress axis : x y z
#
# Youngs Moduli (GPa) = 103.81823 80.73750 57.98139
#
# Poissons Ratio (x) = 0.23593 -0.08152
# Poissons Ratio (y) = 0.30338 0.31422
# Poissons Ratio (z) = -0.14597 0.43754
#
# Static dielectric constant tensor:
#      x y z
#    x 1.906080 0.000000 0.000000 
#    y 0.000000 1.853320 0.000000 
#    z 0.000000 0.000000 1.843590 
# 
# From -- ./inp_files/74265.got.cif
#   From: 2010.05.17/outbox.cif.g08.bks.cpg/sg63_38_cif.got.tgz:74265.got - 2010.06.03 15:47:04.
