data_PCOD9474948
_publ_section_title
;
Structure prediction by ZEFSAII (Michael W. Deem and Ramdas Pophale) SiO2 
 PCOD9474948
Probable space group: C M C M
;
_chemical_formula_sum "Si O2"
_cell_formula_units_Z 112
_cell_length_a 22.917807
_cell_length_b 14.777632
_cell_length_c 15.634142
_cell_angle_alpha 90.000000
_cell_angle_beta 90.000000
_cell_angle_gamma 90.000000
_cell_volume 5294.829225
_symmetry_space_group_name_H-M "C M C M"
_symmetry_group_IT_number 63
_symmetry_cell_setting 'orthorhombic'
loop_
_space_group_symop_operation_xyz
x,y,z
-x,-y,1/2+z
x,-y,-z
-x,y,1/2-z
-x,-y,-z
x,y,1/2-z
-x,y,z
x,-y,1/2+z
1/2+x,1/2+y,z
1/2-x,1/2-y,1/2+z
1/2+x,1/2-y,-z
1/2-x,1/2+y,1/2-z
1/2-x,1/2-y,-z
1/2+x,1/2+y,1/2-z
1/2-x,1/2+y,z
1/2+x,1/2-y,1/2+z
loop_
_atom_site_type_symbol
_atom_site_label
_atom_site_fract_x
_atom_site_fract_y
_atom_site_fract_z
Si Si1 0.138751 0.138295 0.940686
Si Si2 0.155169 0.675497 0.149271
Si Si3 0.932426 0.469072 0.900624
Si Si4 0.349167 0.124884 0.654608
Si Si5 0.761270 0.357266 0.997731
Si Si6 0.565100 0.491002 0.848421
Si Si7 0.568476 0.711386 0.402606
O O1 0.155267 0.217786 0.873518
O O2 0.196380 0.106984 0.991210
O O3 0.109801 0.051711 0.899018
O O4 0.093342 0.186871 0.004279
O O5 0.163019 0.661734 0.250000
O O6 0.095362 0.628884 0.116887
O O7 0.204581 0.627177 0.090593
O O8 0.891714 0.539028 0.850573
O O9 0.000000 0.472767 0.875429
O O10 0.928682 0.500000 0.000000
O O11 0.323381 0.132197 0.750000
O O12 0.302059 0.118270 0.578330
O O13 0.390425 0.211304 0.635820
O O14 0.750000 0.250000 0.000000
O O15 0.566336 0.518908 0.750000
O O16 0.500000 0.507219 0.883708
O O17 0.574664 0.383669 0.853504
O O18 0.500000 0.737767 0.403223
#
# Coordination Sequence:
#
# PCOD9474948 Si02
#       7
#    16  16  16  16  16  16  16
#     4  11  22  43  66  92 128 175 213 265 326 390
#     4  11  23  42  67  94 129 169 216 270 326 381
#     4  11  23  43  69  97 134 175 217 268 326 391
#     4  12  24  42  67  96 132 175 217 265 324 383
#     4  10  22  45  64  92 130 170 217 267 317 384
#     4  10  22  40  63  97 132 165 216 270 320 385
#     4  11  22  41  66  94 129 169 214 266 327 383
#
# _framework density 21.152711
#
# number of rings (size 3 to 8) (size 9 to 14) (size 15 to 20)
#    0.000    1.143    4.286    2.571    0.000    8.857 
#    5.143    0.000    0.000    0.000    0.000    0.000 
#    0.000    0.000    0.000    0.000    0.000    0.000 
#
# Total GULP energy -313041.739451 kJ/mol
# GULP energy per Si atom -5590.031062 kJ/mol
# Density = 2.110457 g / cm^3
# Si number density = 21.152711 Si / 1000 Ang^3
#
#
#
# Elastic Constant Matrix: (Units=GPa)
#
#
# Indices 1 2 3 4 5 6 
#
# 1 54.3361 25.7014 12.1173 0.0000 0.0000 0.0000
# 2 25.7014 58.0351 -2.1590 0.0000 0.0000 0.0000
# 3 12.1173 -2.1590 112.0712 0.0000 0.0000 0.0000
# 4 0.0000 0.0000 0.0000 27.4612 0.0000 0.0000
# 5 0.0000 0.0000 0.0000 0.0000 -0.3037 0.0000
# 6 0.0000 0.0000 0.0000 0.0000 0.0000 23.0293
#
#
#
# Elastic Compliance Matrix: (Units=1/GPa)
#
#
# Indices 1 2 3 4 5 6 
#
# 1 0.024138 -0.010795 -0.002818 0.000000 0.000000 0.000000
# 2 -0.010795 0.022071 0.001592 0.000000 0.000000 0.000000
# 3 -0.002818 0.001592 0.009258 0.000000 0.000000 0.000000
# 4 0.000000 0.000000 0.000000 0.036415 0.000000 0.000000
# 5 0.000000 0.000000 0.000000 0.000000 -3.292557 0.000000
# 6 0.000000 0.000000 0.000000 0.000000 0.000000 0.043423
#
#
# Mechanical properties :
#
#
# Convention : Reuss Voigt Hill
#
# Bulk Modulus (GPa) = 31.81989 32.86241 32.34115
# Shear Modulus (GPa) = -1.60116 22.62286 10.51085
#
# Velocity S-wave (km/s) = -0.87097 3.27387 2.23155
# Velocity P-wave (km/s) = 3.75022 5.46448 4.68640
#
# Compressibility (1/GPa) = 0.03142688
#
# Stress axis : x y z
#
# Youngs Moduli (GPa) = 41.42783 45.30886 108.01183
#
# Poissons Ratio (x) = 0.48910 0.30436
# Poissons Ratio (y) = 0.44720 -0.17199
# Poissons Ratio (z) = 0.11674 -0.07215
#
# Static dielectric constant tensor:
#      x y z
#    x 1.775400 0.000000 0.000000 
#    y 0.000000 1.781280 0.000000 
#    z 0.000000 0.000000 1.775050 
# 
# From -- ./inp_files/36855.got.cif
#   From: 2010.05.17/outbox.cif.g08.bks.cpg/sg63_19_cif.got.tgz:36855.got - 2010.06.03 15:47:04.
