data_PCOD9474239
_publ_section_title
;
Structure prediction by ZEFSAII (Michael W. Deem and Ramdas Pophale) SiO2 
 PCOD9474239
Probable space group: C M C M
;
_chemical_formula_sum "Si O2"
_cell_formula_units_Z 56
_cell_length_a 14.750393
_cell_length_b 10.332315
_cell_length_c 14.464170
_cell_angle_alpha 90.000000
_cell_angle_beta 90.000000
_cell_angle_gamma 90.000000
_cell_volume 2204.422053
_symmetry_space_group_name_H-M "C M C M"
_symmetry_group_IT_number 63
_symmetry_cell_setting 'orthorhombic'
loop_
_space_group_symop_operation_xyz
x,y,z
-x,-y,1/2+z
x,-y,-z
-x,y,1/2-z
-x,-y,-z
x,y,1/2-z
-x,y,z
x,-y,1/2+z
1/2+x,1/2+y,z
1/2-x,1/2-y,1/2+z
1/2+x,1/2-y,-z
1/2-x,1/2+y,1/2-z
1/2-x,1/2-y,-z
1/2+x,1/2+y,1/2-z
1/2-x,1/2+y,z
1/2+x,1/2-y,1/2+z
loop_
_atom_site_type_symbol
_atom_site_label
_atom_site_fract_x
_atom_site_fract_y
_atom_site_fract_z
Si Si1 0.396352 0.331365 0.101253
Si Si2 0.394516 0.219220 0.750000
Si Si3 0.598471 0.105627 0.250000
Si Si4 0.200884 0.993009 0.750000
Si Si5 0.390523 0.136945 0.542972
O O1 0.500000 0.382856 0.091842
O O2 0.402672 0.201408 0.162958
O O3 0.335439 0.429024 0.160066
O O4 0.359713 0.729251 0.993695
O O5 0.500000 0.253232 0.750000
O O6 0.341380 0.352124 0.750000
O O7 0.374990 0.151606 0.651628
O O8 0.500000 0.034667 0.250000
O O9 0.693445 0.035751 0.250000
O O10 0.500000 0.136259 0.529151
O O11 0.356925 0.000000 0.500000
#
# Coordination Sequence:
#
# PCOD9474239 Si02
#       5
#    16   8   8   8  16
#     4   9  19  40  70 100 142 197 235 284 367 436
#     4  10  21  37  64 107 151 190 242 307 359 424
#     4   9  20  41  68  98 137 193 247 295 358 433
#     4  11  21  38  66 109 150 177 247 302 365 435
#     4   9  19  38  65 103 149 198 246 291 353 430
#
# _framework density 25.403483999999999
#
# number of rings (size 3 to 8) (size 9 to 14) (size 15 to 20)
#    0.000    2.571    0.000    2.143    0.000    3.429 
#   10.286   15.714    0.000    6.857    0.000    0.000 
#    0.000    1.143    0.000    0.000    0.000    0.000 
#
# Total GULP energy -156687.406025 kJ/mol
# GULP energy per Si atom -5595.978787 kJ/mol
# Density = 2.534566 g / cm^3
# Si number density = 25.403484 Si / 1000 Ang^3
#
#
#
# Elastic Constant Matrix: (Units=GPa)
#
#
# Indices 1 2 3 4 5 6 
#
# 1 158.2911 83.2367 51.9309 0.0000 0.0000 0.0000
# 2 83.2367 106.1393 69.0155 0.0000 0.0000 0.0000
# 3 51.9309 69.0155 176.7709 0.0000 0.0000 0.0000
# 4 0.0000 0.0000 0.0000 -0.3388 0.0000 0.0000
# 5 0.0000 0.0000 0.0000 0.0000 -17.6677 0.0000
# 6 0.0000 0.0000 0.0000 0.0000 0.0000 25.0662
#
#
#
# Elastic Compliance Matrix: (Units=1/GPa)
#
#
# Indices 1 2 3 4 5 6 
#
# 1 0.010755 -0.008551 0.000179 0.000000 0.000000 0.000000
# 2 -0.008551 0.019425 -0.005072 0.000000 0.000000 0.000000
# 3 0.000179 -0.005072 0.007585 0.000000 0.000000 0.000000
# 4 0.000000 0.000000 0.000000 -2.951303 0.000000 0.000000
# 5 0.000000 0.000000 0.000000 0.000000 -0.056600 0.000000
# 6 0.000000 0.000000 0.000000 0.000000 0.000000 0.039894
#
#
# Mechanical properties :
#
#
# Convention : Reuss Voigt Hill
#
# Bulk Modulus (GPa) = 91.93526 94.39639 93.16582
# Shear Modulus (GPa) = -1.72430 17.21314 7.74442
#
# Velocity S-wave (km/s) = -0.82477 2.60588 1.74791
# Velocity P-wave (km/s) = 5.94656 6.80394 6.38965
#
# Compressibility (1/GPa) = 0.01087722
#
# Stress axis : x y z
#
# Youngs Moduli (GPa) = 92.97871 51.47941 131.84293
#
# Poissons Ratio (x) = 0.44018 -0.02357
# Poissons Ratio (y) = 0.79503 0.66872
# Poissons Ratio (z) = -0.01662 0.26111
#
# Static dielectric constant tensor:
#      x y z
#    x 1.951240 0.000000 0.000000 
#    y 0.000000 2.040110 0.000000 
#    z 0.000000 0.000000 2.030180 
# 
# From -- ./inp_files/43375.got.cif
#   From: 2010.05.17/outbox.cif.g08.bks.cpg/sg63_22_cif.got.tgz:43375.got - 2010.06.03 15:47:04.
