data_PCOD9474625
_publ_section_title
;
Structure prediction by ZEFSAII (Michael W. Deem and Ramdas Pophale) SiO2 
 PCOD9474625
Probable space group: C M C M
;
_chemical_formula_sum "Si O2"
_cell_formula_units_Z 52
_cell_length_a 17.318440
_cell_length_b 17.886805
_cell_length_c 7.556428
_cell_angle_alpha 90.000000
_cell_angle_beta 90.000000
_cell_angle_gamma 90.000000
_cell_volume 2340.766483
_symmetry_space_group_name_H-M "C M C M"
_symmetry_group_IT_number 63
_symmetry_cell_setting 'orthorhombic'
loop_
_space_group_symop_operation_xyz
x,y,z
-x,-y,1/2+z
x,-y,-z
-x,y,1/2-z
-x,-y,-z
x,y,1/2-z
-x,y,z
x,-y,1/2+z
1/2+x,1/2+y,z
1/2-x,1/2-y,1/2+z
1/2+x,1/2-y,-z
1/2-x,1/2+y,1/2-z
1/2-x,1/2-y,-z
1/2+x,1/2+y,1/2-z
1/2-x,1/2+y,z
1/2+x,1/2-y,1/2+z
loop_
_atom_site_type_symbol
_atom_site_label
_atom_site_fract_x
_atom_site_fract_y
_atom_site_fract_z
Si Si1 0.371112 0.388154 0.032460
Si Si2 0.086288 0.280935 0.959573
Si Si3 0.000000 0.066407 0.250000
Si Si4 0.302770 0.081798 0.957527
O O1 0.383032 0.398002 0.250000
O O2 0.380459 0.299675 0.988892
O O3 0.284945 0.411456 0.976087
O O4 0.433041 0.427471 0.907325
O O5 0.078327 0.276051 0.750000
O O6 0.000000 0.290876 0.036291
O O7 0.142398 0.350116 0.991410
O O8 0.294415 0.087202 0.750000
O O9 0.335291 0.000000 0.000000
#
# Coordination Sequence:
#
# PCOD9474625 Si02
#       4
#    16  16   4  16
#     4  10  23  42  65  99 130 163 216 268 316 381
#     4  10  21  40  66  95 129 161 210 271 317 373
#     4  12  22  36  78  90 130 168 212 264 330 370
#     4  11  25  42  64  90 130 172 213 262 318 385
#
# _framework density 22.214945
#
# number of rings (size 3 to 8) (size 9 to 14) (size 15 to 20)
#    0.000    1.538    1.538    2.308    6.462    1.231 
#    0.000    0.769    0.000    0.000    0.000    0.000 
#    0.000    0.000    0.000    0.000    0.000    0.000 
#
# Total GULP energy -144772.703017 kJ/mol
# GULP energy per Si atom -5568.180885 kJ/mol
# Density = 2.216438 g / cm^3
# Si number density = 22.214945 Si / 1000 Ang^3
#
#
#
# Elastic Constant Matrix: (Units=GPa)
#
#
# Indices 1 2 3 4 5 6 
#
# 1 71.0790 63.3741 4.3227 0.0000 0.0000 0.0000
# 2 63.3741 155.1377 31.1655 0.0000 0.0000 0.0000
# 3 4.3227 31.1655 66.4535 0.0000 0.0000 0.0000
# 4 0.0000 0.0000 0.0000 11.6426 0.0000 0.0000
# 5 0.0000 0.0000 0.0000 0.0000 47.2224 0.0000
# 6 0.0000 0.0000 0.0000 0.0000 0.0000 -44.1648
#
#
#
# Elastic Compliance Matrix: (Units=1/GPa)
#
#
# Indices 1 2 3 4 5 6 
#
# 1 0.022719 -0.009918 0.003174 0.000000 0.000000 0.000000
# 2 -0.009918 0.011446 -0.004723 0.000000 0.000000 0.000000
# 3 0.003174 -0.004723 0.017057 0.000000 0.000000 0.000000
# 4 0.000000 0.000000 0.000000 0.085891 0.000000 0.000000
# 5 0.000000 0.000000 0.000000 0.000000 0.021176 0.000000
# 6 0.000000 0.000000 0.000000 0.000000 0.000000 -0.022642
#
#
# Mechanical properties :
#
#
# Convention : Reuss Voigt Hill
#
# Bulk Modulus (GPa) = 35.35214 54.48833 44.92023
# Shear Modulus (GPa) = 29.75987 15.86056 22.81021
#
# Velocity S-wave (km/s) = 3.66407 2.67490 3.20784
# Velocity P-wave (km/s) = 5.81797 5.84133 5.82966
#
# Compressibility (1/GPa) = 0.02828683
#
# Stress axis : x y z
#
# Youngs Moduli (GPa) = 44.01587 87.36409 58.62811
#
# Poissons Ratio (x) = 0.86651 -0.18607
# Poissons Ratio (y) = 0.43657 0.27690
# Poissons Ratio (z) = -0.13969 0.41262
#
# Static dielectric constant tensor:
#      x y z
#    x 2.023220 0.000000 0.000000 
#    y 0.000000 1.788130 0.000000 
#    z 0.000000 0.000000 1.854860 
# 
# From -- ./inp_files/3869.got.cif
#   From: 2010.05.17/outbox.cif.g08.bks.cpg/sg63_2_cif.got.tgz:3869.got - 2010.06.03 15:47:04.
