data_PCOD9474649
_publ_section_title
;
Structure prediction by ZEFSAII (Michael W. Deem and Ramdas Pophale) SiO2 
 PCOD9474649
Probable space group: C M C M
;
_chemical_formula_sum "Si O2"
_cell_formula_units_Z 64
_cell_length_a 12.425480
_cell_length_b 19.191607
_cell_length_c 12.041144
_cell_angle_alpha 90.000000
_cell_angle_beta 90.000000
_cell_angle_gamma 90.000000
_cell_volume 2871.390548
_symmetry_space_group_name_H-M "C M C M"
_symmetry_group_IT_number 63
_symmetry_cell_setting 'orthorhombic'
loop_
_space_group_symop_operation_xyz
x,y,z
-x,-y,1/2+z
x,-y,-z
-x,y,1/2-z
-x,-y,-z
x,y,1/2-z
-x,y,z
x,-y,1/2+z
1/2+x,1/2+y,z
1/2-x,1/2-y,1/2+z
1/2+x,1/2-y,-z
1/2-x,1/2+y,1/2-z
1/2-x,1/2-y,-z
1/2+x,1/2+y,1/2-z
1/2-x,1/2+y,z
1/2+x,1/2-y,1/2+z
loop_
_atom_site_type_symbol
_atom_site_label
_atom_site_fract_x
_atom_site_fract_y
_atom_site_fract_z
Si Si1 0.727364 0.815368 0.126220
Si Si2 0.878840 0.939439 0.119091
Si Si3 0.380149 0.187321 0.409760
Si Si4 0.824191 0.472189 0.877299
O O1 0.695115 0.834835 0.250000
O O2 0.807286 0.874745 0.077574
O O3 0.793649 0.743801 0.128570
O O4 0.629321 0.810335 0.042923
O O5 0.889930 0.924678 0.250000
O O6 0.000000 0.942540 0.074157
O O7 0.802734 0.007571 0.114558
O O8 0.500000 0.205641 0.373985
O O9 0.351342 0.109083 0.375305
O O10 0.856466 0.498251 0.750000
O O11 0.867030 0.500000 0.000000
#
# Coordination Sequence:
#
# PCOD9474649 Si02
#       4
#    16  16  16  16
#     4  10  21  41  65  92 122 159 215 273 321 385
#     4   9  18  36  63  90 119 161 211 265 323 377
#     4  11  24  41  63  92 127 170 212 262 325 388
#     4  11  23  41  61  94 133 169 216 267 318 384
#
# _framework density 22.288851999999999
#
# number of rings (size 3 to 8) (size 9 to 14) (size 15 to 20)
#    0.000    1.750    2.500    1.500    0.000    4.500 
#    0.000    1.250    0.000    3.000    0.000    0.000 
#    0.000    0.000    0.000    0.000    0.000    0.000 
#
# Total GULP energy -178268.535053 kJ/mol
# GULP energy per Si atom -5570.891720 kJ/mol
# Density = 2.223812 g / cm^3
# Si number density = 22.288852 Si / 1000 Ang^3
#
#
#
# Elastic Constant Matrix: (Units=GPa)
#
#
# Indices 1 2 3 4 5 6 
#
# 1 81.4812 8.8497 20.2282 0.0000 0.0000 0.0000
# 2 8.8497 93.6158 11.9775 0.0000 0.0000 0.0000
# 3 20.2282 11.9775 171.3511 0.0000 0.0000 0.0000
# 4 0.0000 0.0000 0.0000 19.9178 0.0000 0.0000
# 5 0.0000 0.0000 0.0000 0.0000 4.5043 0.0000
# 6 0.0000 0.0000 0.0000 0.0000 0.0000 8.4268
#
#
#
# Elastic Compliance Matrix: (Units=1/GPa)
#
#
# Indices 1 2 3 4 5 6 
#
# 1 0.012739 -0.001021 -0.001433 0.000000 0.000000 0.000000
# 2 -0.001021 0.010860 -0.000639 0.000000 0.000000 0.000000
# 3 -0.001433 -0.000639 0.006050 0.000000 0.000000 0.000000
# 4 0.000000 0.000000 0.000000 0.050206 0.000000 0.000000
# 5 0.000000 0.000000 0.000000 0.000000 0.222010 0.000000
# 6 0.000000 0.000000 0.000000 0.000000 0.000000 0.118669
#
#
# Mechanical properties :
#
#
# Convention : Reuss Voigt Hill
#
# Bulk Modulus (GPa) = 42.61669 47.61763 45.11716
# Shear Modulus (GPa) = 11.50641 26.92929 19.21785
#
# Velocity S-wave (km/s) = 2.27456 3.47968 2.93954
# Velocity P-wave (km/s) = 5.10488 6.12817 5.63978
#
# Compressibility (1/GPa) = 0.02346498
#
# Stress axis : x y z
#
# Youngs Moduli (GPa) = 78.49727 92.07948 165.29698
#
# Poissons Ratio (x) = 0.09401 0.23679
# Poissons Ratio (y) = 0.08014 0.10556
# Poissons Ratio (z) = 0.11245 0.05880
#
# Static dielectric constant tensor:
#      x y z
#    x 1.809950 0.000000 0.000000 
#    y 0.000000 1.812810 0.000000 
#    z 0.000000 0.000000 1.953940 
# 
# From -- ./inp_files/17135.got.cif
#   From: 2010.05.17/outbox.cif.g08.bks.cpg/sg63_9_cif.got.tgz:17135.got - 2010.06.03 15:47:04.
