data_PCOD9474274
_publ_section_title
;
Structure prediction by ZEFSAII (Michael W. Deem and Ramdas Pophale) SiO2 
 PCOD9474274
Probable space group: C M C M
;
_chemical_formula_sum "Si O2"
_cell_formula_units_Z 96
_cell_length_a 20.508153
_cell_length_b 15.478561
_cell_length_c 16.069247
_cell_angle_alpha 90.000000
_cell_angle_beta 90.000000
_cell_angle_gamma 90.000000
_cell_volume 5100.968694
_symmetry_space_group_name_H-M "C M C M"
_symmetry_group_IT_number 63
_symmetry_cell_setting 'orthorhombic'
loop_
_space_group_symop_operation_xyz
x,y,z
-x,-y,1/2+z
x,-y,-z
-x,y,1/2-z
-x,-y,-z
x,y,1/2-z
-x,y,z
x,-y,1/2+z
1/2+x,1/2+y,z
1/2-x,1/2-y,1/2+z
1/2+x,1/2-y,-z
1/2-x,1/2+y,1/2-z
1/2-x,1/2-y,-z
1/2+x,1/2+y,1/2-z
1/2-x,1/2+y,z
1/2+x,1/2-y,1/2+z
loop_
_atom_site_type_symbol
_atom_site_label
_atom_site_fract_x
_atom_site_fract_y
_atom_site_fract_z
Si Si1 0.827361 0.815605 0.152232
Si Si2 0.297280 0.877149 0.652792
Si Si3 0.575330 0.086371 0.053326
Si Si4 0.186276 0.001531 0.903910
Si Si5 0.423862 0.277361 0.496516
Si Si6 0.423043 0.612442 0.342722
O O1 0.846808 0.816646 0.250000
O O2 0.789024 0.725703 0.139192
O O3 0.885341 0.809615 0.084594
O O4 0.792196 0.904713 0.128791
O O5 0.289254 0.894334 0.750000
O O6 0.369682 0.903519 0.623333
O O7 0.244151 0.933193 0.605577
O O8 0.500000 0.085804 0.083840
O O9 0.583386 0.173722 0.999087
O O10 0.585607 0.000000 0.000000
O O11 0.123640 0.969752 0.852350
O O12 0.166591 0.000000 0.000000
O O13 0.500000 0.296129 0.484240
O O14 0.404041 0.323541 0.582180
O O15 0.413510 0.649658 0.250000
O O16 0.500000 0.591685 0.351087
#
# Coordination Sequence:
#
# PCOD9474274 Si02
#       6
#    16  16  16  16  16  16
#     4  10  21  38  58  84 117 152 194 240 289 348
#     4  10  22  39  58  85 119 152 194 245 293 346
#     4   9  18  36  60  85 116 153 194 241 293 349
#     4  12  23  39  62  85 116 156 193 242 294 349
#     4   9  18  35  58  85 116 151 194 240 291 350
#     4  10  21  38  59  84 118 156 194 241 294 349
#
# _framework density 18.819953999999999
#
# number of rings (size 3 to 8) (size 9 to 14) (size 15 to 20)
#    0.000    2.000    1.667    2.000    0.000    2.333 
#    3.000    4.167    0.000    3.000    0.000    0.000 
#    0.000    0.000    0.000    0.000    0.000    0.000 
#
# Total GULP energy -267659.343393 kJ/mol
# GULP energy per Si atom -5576.236321 kJ/mol
# Density = 1.877712 g / cm^3
# Si number density = 18.819954 Si / 1000 Ang^3
#
#
#
# Elastic Constant Matrix: (Units=GPa)
#
#
# Indices 1 2 3 4 5 6 
#
# 1 42.3428 30.4224 23.4007 0.0000 0.0000 0.0000
# 2 30.4224 101.4398 39.6084 0.0000 0.0000 0.0000
# 3 23.4007 39.6084 98.8156 0.0000 0.0000 0.0000
# 4 0.0000 0.0000 0.0000 22.6671 0.0000 0.0000
# 5 0.0000 0.0000 0.0000 0.0000 14.2061 0.0000
# 6 0.0000 0.0000 0.0000 0.0000 0.0000 20.8368
#
#
#
# Elastic Compliance Matrix: (Units=1/GPa)
#
#
# Indices 1 2 3 4 5 6 
#
# 1 0.031619 -0.007776 -0.004371 0.000000 0.000000 0.000000
# 2 -0.007776 0.013600 -0.003610 0.000000 0.000000 0.000000
# 3 -0.004371 -0.003610 0.012602 0.000000 0.000000 0.000000
# 4 0.000000 0.000000 0.000000 0.044117 0.000000 0.000000
# 5 0.000000 0.000000 0.000000 0.000000 0.070392 0.000000
# 6 0.000000 0.000000 0.000000 0.000000 0.000000 0.047992
#
#
# Mechanical properties :
#
#
# Convention : Reuss Voigt Hill
#
# Bulk Modulus (GPa) = 38.01224 47.71791 42.86508
# Shear Modulus (GPa) = 19.18617 21.48645 20.33631
#
# Velocity S-wave (km/s) = 3.19636 3.38255 3.29077
# Velocity P-wave (km/s) = 5.81928 6.37695 6.10449
#
# Compressibility (1/GPa) = 0.02630732
#
# Stress axis : x y z
#
# Youngs Moduli (GPa) = 31.62614 73.53142 79.35365
#
# Poissons Ratio (x) = 0.57179 0.34685
# Poissons Ratio (y) = 0.24593 0.28644
# Poissons Ratio (z) = 0.13824 0.26542
#
# Static dielectric constant tensor:
#      x y z
#    x 1.639180 0.000000 0.000000 
#    y 0.000000 1.719280 0.000000 
#    z 0.000000 0.000000 1.631730 
# 
# From -- ./inp_files/35357.got.cif
#   From: 2010.05.17/outbox.cif.g08.bks.cpg/sg63_18_cif.got.tgz:35357.got - 2010.06.03 15:47:04.
