data_PCOD9474386
_publ_section_title
;
Structure prediction by ZEFSAII (Michael W. Deem and Ramdas Pophale) SiO2 
 PCOD9474386
Probable space group: C M C M
;
_chemical_formula_sum "Si O2"
_cell_formula_units_Z 64
_cell_length_a 18.261424
_cell_length_b 9.519750
_cell_length_c 15.991420
_cell_angle_alpha 90.000000
_cell_angle_beta 90.000000
_cell_angle_gamma 90.000000
_cell_volume 2780.015475
_symmetry_space_group_name_H-M "C M C M"
_symmetry_group_IT_number 63
_symmetry_cell_setting 'orthorhombic'
loop_
_space_group_symop_operation_xyz
x,y,z
-x,-y,1/2+z
x,-y,-z
-x,y,1/2-z
-x,-y,-z
x,y,1/2-z
-x,y,z
x,-y,1/2+z
1/2+x,1/2+y,z
1/2-x,1/2-y,1/2+z
1/2+x,1/2-y,-z
1/2-x,1/2+y,1/2-z
1/2-x,1/2-y,-z
1/2+x,1/2+y,1/2-z
1/2-x,1/2+y,z
1/2+x,1/2-y,1/2+z
loop_
_atom_site_type_symbol
_atom_site_label
_atom_site_fract_x
_atom_site_fract_y
_atom_site_fract_z
Si Si1 0.500000 0.373115 0.567526
Si Si2 0.420371 0.902929 0.417421
Si Si3 0.500000 0.361816 0.155060
Si Si4 0.339575 0.684004 0.853030
Si Si5 0.276241 0.972084 0.650773
O O1 0.500000 0.500000 0.500000
O O2 0.432796 0.262847 0.565306
O O3 0.500000 0.468798 0.650168
O O4 0.500000 0.943568 0.377431
O O5 0.348231 0.933732 0.365082
O O6 0.414802 0.000000 0.500000
O O7 0.500000 0.313775 0.250000
O O8 0.423416 0.309529 0.118976
O O9 0.340104 0.683302 0.750000
O O10 0.296166 0.547103 0.882156
O O11 0.295392 0.819277 0.883081
O O12 0.266588 0.957121 0.750000
#
# Coordination Sequence:
#
# PCOD9474386 Si02
#       5
#     8  16   8  16  16
#     4  10  23  38  63  86 120 166 199 254 307 356
#     4   9  22  40  59  87 123 163 202 253 305 365
#     4  10  22  38  63  95 120 157 211 251 298 363
#     4   9  21  37  60  90 127 162 197 255 309 359
#     4  10  21  38  62  90 124 161 202 254 313 359
#
# _framework density 23.021453999999999
#
# number of rings (size 3 to 8) (size 9 to 14) (size 15 to 20)
#    0.750    1.750    0.000    0.000    8.750    1.500 
#    0.000    2.500    0.000    0.000    0.000    0.000 
#    0.000    0.000    0.000    0.000    0.000    0.000 
#
# Total GULP energy -178418.956923 kJ/mol
# GULP energy per Si atom -5575.592404 kJ/mol
# Density = 2.296906 g / cm^3
# Si number density = 23.021454 Si / 1000 Ang^3
#
#
#
# Elastic Constant Matrix: (Units=GPa)
#
#
# Indices 1 2 3 4 5 6 
#
# 1 138.7534 49.3950 -5.3703 0.0000 0.0000 0.0000
# 2 49.3950 129.5967 -6.4157 0.0000 0.0000 0.0000
# 3 -5.3703 -6.4157 9.6249 0.0000 0.0000 0.0000
# 4 0.0000 0.0000 0.0000 26.6458 0.0000 0.0000
# 5 0.0000 0.0000 0.0000 0.0000 7.4222 0.0000
# 6 0.0000 0.0000 0.0000 0.0000 0.0000 60.6656
#
#
#
# Elastic Compliance Matrix: (Units=1/GPa)
#
#
# Indices 1 2 3 4 5 6 
#
# 1 0.008403 -0.003072 0.002641 0.000000 0.000000 0.000000
# 2 -0.003072 0.009103 0.004354 0.000000 0.000000 0.000000
# 3 0.002641 0.004354 0.108273 0.000000 0.000000 0.000000
# 4 0.000000 0.000000 0.000000 0.037529 0.000000 0.000000
# 5 0.000000 0.000000 0.000000 0.000000 0.134730 0.000000
# 6 0.000000 0.000000 0.000000 0.000000 0.000000 0.016484
#
#
# Mechanical properties :
#
#
# Convention : Reuss Voigt Hill
#
# Bulk Modulus (GPa) = 7.48375 39.24365 23.36370
# Shear Modulus (GPa) = 14.23617 34.97113 24.60365
#
# Velocity S-wave (km/s) = 2.48944 3.90175 3.27269
# Velocity P-wave (km/s) = 3.39424 6.11406 4.94483
#
# Compressibility (1/GPa) = 0.13362290
#
# Stress axis : x y z
#
# Youngs Moduli (GPa) = 119.00756 109.85834 9.23594
#
# Poissons Ratio (x) = 0.33748 -0.02439
# Poissons Ratio (y) = 0.36559 -0.04021
# Poissons Ratio (z) = -0.31426 -0.47828
#
# Static dielectric constant tensor:
#      x y z
#    x 1.859280 0.000000 0.000000 
#    y 0.000000 1.874190 0.000000 
#    z 0.000000 0.000000 1.882100 
# 
# From -- ./inp_files/55068.got.cif
#   From: 2010.05.17/outbox.cif.g08.bks.cpg/sg63_28_cif.got.tgz:55068.got - 2010.06.03 15:47:04.
