data_PCOD9474707
_publ_section_title
;
Structure prediction by ZEFSAII (Michael W. Deem and Ramdas Pophale) SiO2 
 PCOD9474707
Probable space group: C M C M
;
_chemical_formula_sum "Si O2"
_cell_formula_units_Z 96
_cell_length_a 17.467766
_cell_length_b 17.293914
_cell_length_c 16.233897
_cell_angle_alpha 90.000000
_cell_angle_beta 90.000000
_cell_angle_gamma 90.000000
_cell_volume 4904.033707
_symmetry_space_group_name_H-M "C M C M"
_symmetry_group_IT_number 63
_symmetry_cell_setting 'orthorhombic'
loop_
_space_group_symop_operation_xyz
x,y,z
-x,-y,1/2+z
x,-y,-z
-x,y,1/2-z
-x,-y,-z
x,y,1/2-z
-x,y,z
x,-y,1/2+z
1/2+x,1/2+y,z
1/2-x,1/2-y,1/2+z
1/2+x,1/2-y,-z
1/2-x,1/2+y,1/2-z
1/2-x,1/2-y,-z
1/2+x,1/2+y,1/2-z
1/2-x,1/2+y,z
1/2+x,1/2-y,1/2+z
loop_
_atom_site_type_symbol
_atom_site_label
_atom_site_fract_x
_atom_site_fract_y
_atom_site_fract_z
Si Si1 0.000000 0.823579 0.651007
Si Si2 0.413426 0.734546 0.848905
Si Si3 0.180227 0.381024 0.651821
Si Si4 0.678834 0.585921 0.596147
Si Si5 0.346932 0.055397 0.649730
Si Si6 0.000000 0.354808 0.149459
Si Si7 0.152994 0.088319 0.099187
O O1 0.000000 0.734340 0.622747
O O2 0.924013 0.867488 0.621470
O O3 0.000000 0.823712 0.750000
O O4 0.417367 0.742319 0.750000
O O5 0.500000 0.731439 0.881281
O O6 0.367788 0.809150 0.881982
O O7 0.368313 0.656281 0.866980
O O8 0.168932 0.382448 0.750000
O O9 0.154066 0.465690 0.621394
O O10 0.270538 0.373260 0.635670
O O11 0.768750 0.592393 0.616248
O O12 0.664910 0.587045 0.498703
O O13 0.652549 0.501346 0.628100
O O14 0.343248 0.056369 0.750000
O O15 0.423139 0.100306 0.623913
O O16 0.000000 0.355129 0.250000
#
# Coordination Sequence:
#
# PCOD9474707 Si02
#       7
#     8  16  16  16  16   8  16
#     4  11  24  39  59  87 116 147 193 243 289 341
#     4  10  22  36  56  86 117 149 191 239 283 337
#     4   9  19  37  60  84 113 149 190 234 285 342
#     4  10  22  39  60  82 116 152 194 236 290 347
#     4   9  18  36  62  87 114 152 193 236 287 341
#     4   9  20  36  59  88 116 147 190 240 281 332
#     4  10  23  40  60  82 114 153 192 238 292 344
#
# _framework density 19.575721999999999
#
# number of rings (size 3 to 8) (size 9 to 14) (size 15 to 20)
#    0.000    2.333    0.000    1.000    5.833    3.333 
#    0.000    0.000    0.000    2.000    0.000    0.000 
#    0.000    0.000    0.000    0.000    0.000    0.000 
#
# Total GULP energy -267994.371657 kJ/mol
# GULP energy per Si atom -5583.216076 kJ/mol
# Density = 1.953117 g / cm^3
# Si number density = 19.575722 Si / 1000 Ang^3
#
#
#
# Elastic Constant Matrix: (Units=GPa)
#
#
# Indices 1 2 3 4 5 6 
#
# 1 223.4218 146.2578 20.3152 0.0000 0.0000 0.0000
# 2 146.2578 140.3407 14.7442 0.0000 0.0000 0.0000
# 3 20.3152 14.7442 18.4448 0.0000 0.0000 0.0000
# 4 0.0000 0.0000 0.0000 11.6786 0.0000 0.0000
# 5 0.0000 0.0000 0.0000 0.0000 -16.4404 0.0000
# 6 0.0000 0.0000 0.0000 0.0000 0.0000 34.9465
#
#
#
# Elastic Compliance Matrix: (Units=1/GPa)
#
#
# Indices 1 2 3 4 5 6 
#
# 1 0.014379 -0.014542 -0.004212 0.000000 0.000000 0.000000
# 2 -0.014542 0.022487 -0.001958 0.000000 0.000000 0.000000
# 3 -0.004212 -0.001958 0.060420 0.000000 0.000000 0.000000
# 4 0.000000 0.000000 0.000000 0.085627 0.000000 0.000000
# 5 0.000000 0.000000 0.000000 0.000000 -0.060826 0.000000
# 6 0.000000 0.000000 0.000000 0.000000 0.000000 0.028615
#
#
# Mechanical properties :
#
#
# Convention : Reuss Voigt Hill
#
# Bulk Modulus (GPa) = 17.90166 82.76018 50.33092
# Shear Modulus (GPa) = 23.72506 19.42959 21.57733
#
# Velocity S-wave (km/s) = 3.48510 3.15387 3.32362
# Velocity P-wave (km/s) = 5.03580 7.45864 6.36359
#
# Compressibility (1/GPa) = 0.05586074
#
# Stress axis : x y z
#
# Youngs Moduli (GPa) = 69.54751 44.47062 16.55069
#
# Poissons Ratio (x) = 0.64671 0.06971
# Poissons Ratio (y) = 1.01139 0.03241
# Poissons Ratio (z) = 0.29294 0.08708
#
# Static dielectric constant tensor:
#      x y z
#    x 1.649110 0.000000 0.000000 
#    y 0.000000 1.689120 0.000000 
#    z 0.000000 0.000000 1.659080 
# 
# From -- ./inp_files/54262.got.cif
#   From: 2010.05.17/outbox.cif.g08.bks.cpg/sg63_28_cif.got.tgz:54262.got - 2010.06.03 15:47:04.
