data_PCOD9474334
_publ_section_title
;
Structure prediction by ZEFSAII (Michael W. Deem and Ramdas Pophale) SiO2 
 PCOD9474334
Probable space group: C M C M
;
_chemical_formula_sum "Si O2"
_cell_formula_units_Z 80
_cell_length_a 16.540440
_cell_length_b 28.029075
_cell_length_c 8.276434
_cell_angle_alpha 90.000000
_cell_angle_beta 90.000000
_cell_angle_gamma 90.000000
_cell_volume 3837.064327
_symmetry_space_group_name_H-M "C M C M"
_symmetry_group_IT_number 63
_symmetry_cell_setting 'orthorhombic'
loop_
_space_group_symop_operation_xyz
x,y,z
-x,-y,1/2+z
x,-y,-z
-x,y,1/2-z
-x,-y,-z
x,y,1/2-z
-x,y,z
x,-y,1/2+z
1/2+x,1/2+y,z
1/2-x,1/2-y,1/2+z
1/2+x,1/2-y,-z
1/2-x,1/2+y,1/2-z
1/2-x,1/2-y,-z
1/2+x,1/2+y,1/2-z
1/2-x,1/2+y,z
1/2+x,1/2-y,1/2+z
loop_
_atom_site_type_symbol
_atom_site_label
_atom_site_fract_x
_atom_site_fract_y
_atom_site_fract_z
Si Si1 0.681858 0.713098 0.056946
Si Si2 0.622841 0.447673 0.062621
Si Si3 0.000000 0.780213 0.070391
Si Si4 0.740589 0.888857 0.554282
Si Si5 0.408218 0.052854 0.444604
Si Si6 0.500000 0.376940 0.572843
O O1 0.680079 0.711461 0.250000
O O2 0.715826 0.660685 0.002296
O O3 0.750000 0.750000 0.000000
O O4 0.590529 0.728191 0.002893
O O5 0.600534 0.443033 0.250000
O O6 0.605601 0.500000 0.000000
O O7 0.713917 0.432382 0.032137
O O8 0.575279 0.410751 0.951342
O O9 0.000000 0.760171 0.250000
O O10 0.000000 0.837614 0.063505
O O11 0.748566 0.891539 0.750000
O O12 0.647828 0.901589 0.513387
O O13 0.409597 0.051174 0.250000
O O14 0.500000 0.058695 0.505276
O O15 0.379785 0.000000 0.500000
O O16 0.500000 0.353871 0.750000
#
# Coordination Sequence:
#
# PCOD9474334 Si02
#       6
#    16  16   8  16  16   8
#     4  11  24  44  69  97 131 168 212 268 327 390
#     4  12  24  37  56  85 122 164 208 252 302 362
#     4  12  24  43  71 100 128 168 214 261 330 399
#     4  10  21  38  60  87 121 161 205 257 315 375
#     4   9  18  34  56  83 117 159 207 254 308 371
#     4  12  23  39  60  86 123 164 206 251 301 361
#
# _framework density 20.849274000000001
#
# number of rings (size 3 to 8) (size 9 to 14) (size 15 to 20)
#    0.000    1.200    2.000    5.100    0.000    3.200 
#    1.800    0.000    0.000    0.000    0.000    0.000 
#    0.000    0.000    0.000    0.000    0.000    0.000 
#
# Total GULP energy -222967.649393 kJ/mol
# GULP energy per Si atom -5574.191235 kJ/mol
# Density = 2.080182 g / cm^3
# Si number density = 20.849274 Si / 1000 Ang^3
#
#
#
# Elastic Constant Matrix: (Units=GPa)
#
#
# Indices 1 2 3 4 5 6 
#
# 1 156.1584 46.3123 26.8222 0.0000 0.0000 0.0000
# 2 46.3123 56.5637 4.5290 0.0000 0.0000 0.0000
# 3 26.8222 4.5290 54.3059 0.0000 0.0000 0.0000
# 4 0.0000 0.0000 0.0000 23.7652 0.0000 0.0000
# 5 0.0000 0.0000 0.0000 0.0000 28.9173 0.0000
# 6 0.0000 0.0000 0.0000 0.0000 0.0000 33.3378
#
#
#
# Elastic Compliance Matrix: (Units=1/GPa)
#
#
# Indices 1 2 3 4 5 6 
#
# 1 0.009231 -0.007241 -0.003955 0.000000 0.000000 0.000000
# 2 -0.007241 0.023478 0.001618 0.000000 0.000000 0.000000
# 3 -0.003955 0.001618 0.020233 0.000000 0.000000 0.000000
# 4 0.000000 0.000000 0.000000 0.042078 0.000000 0.000000
# 5 0.000000 0.000000 0.000000 0.000000 0.034581 0.000000
# 6 0.000000 0.000000 0.000000 0.000000 0.000000 0.029996
#
#
# Mechanical properties :
#
#
# Convention : Reuss Voigt Hill
#
# Bulk Modulus (GPa) = 29.59814 46.92834 38.26324
# Shear Modulus (GPa) = 26.31373 29.82836 28.07105
#
# Velocity S-wave (km/s) = 3.55645 3.78652 3.67329
# Velocity P-wave (km/s) = 5.57598 6.45556 6.03182
#
# Compressibility (1/GPa) = 0.03378590
#
# Stress axis : x y z
#
# Youngs Moduli (GPa) = 108.33563 42.59266 49.42484
#
# Poissons Ratio (x) = 0.30841 0.19548
# Poissons Ratio (y) = 0.78445 -0.07999
# Poissons Ratio (z) = 0.42849 -0.06893
#
# Static dielectric constant tensor:
#      x y z
#    x 1.883840 0.000000 0.000000 
#    y 0.000000 1.738720 0.000000 
#    z 0.000000 0.000000 1.757440 
# 
# From -- ./inp_files/6502.got.cif
#   From: 2010.05.17/outbox.cif.g08.bks.cpg/sg63_4_cif.got.tgz:6502.got - 2010.06.03 15:47:04.
