data_PCOD9474181
_publ_section_title
;
Structure prediction by ZEFSAII (Michael W. Deem and Ramdas Pophale) SiO2 
 PCOD9474181
Probable space group: C M C M
;
_chemical_formula_sum "Si O2"
_cell_formula_units_Z 80
_cell_length_a 16.000705
_cell_length_b 10.867419
_cell_length_c 20.400199
_cell_angle_alpha 90.000000
_cell_angle_beta 90.000000
_cell_angle_gamma 90.000000
_cell_volume 3547.316460
_symmetry_space_group_name_H-M "C M C M"
_symmetry_group_IT_number 63
_symmetry_cell_setting 'orthorhombic'
loop_
_space_group_symop_operation_xyz
x,y,z
-x,-y,1/2+z
x,-y,-z
-x,y,1/2-z
-x,-y,-z
x,y,1/2-z
-x,y,z
x,-y,1/2+z
1/2+x,1/2+y,z
1/2-x,1/2-y,1/2+z
1/2+x,1/2-y,-z
1/2-x,1/2+y,1/2-z
1/2-x,1/2-y,-z
1/2+x,1/2+y,1/2-z
1/2-x,1/2+y,z
1/2+x,1/2-y,1/2+z
loop_
_atom_site_type_symbol
_atom_site_label
_atom_site_fract_x
_atom_site_fract_y
_atom_site_fract_z
Si Si1 0.775259 0.330115 0.822246
Si Si2 0.500000 0.922732 0.408529
Si Si3 0.177429 0.462472 0.074430
Si Si4 0.000000 0.295541 0.952434
Si Si5 0.408610 0.612567 0.325927
Si Si6 0.646080 0.369242 0.103329
O O1 0.790813 0.383639 0.750000
O O2 0.799018 0.421553 0.880540
O O3 0.676092 0.309432 0.828631
O O4 0.827837 0.207147 0.832246
O O5 0.402994 0.904551 0.388979
O O6 0.500000 0.840436 0.473857
O O7 0.500000 0.074214 0.413796
O O8 0.264267 0.387991 0.068403
O O9 0.152738 0.500000 0.000000
O O10 0.080362 0.212480 0.936162
O O11 0.411270 0.568446 0.250000
O O12 0.500000 0.670184 0.339249
O O13 0.393900 0.498035 0.374680
#
# Coordination Sequence:
#
# PCOD9474181 Si02
#       6
#    16   8  16   8  16  16
#     4  10  21  37  59  89 123 157 196 249 301 349
#     4  11  20  40  58  82 121 156 196 243 303 346
#     4  11  22  40  64  88 121 159 200 246 299 358
#     4  11  20  36  59  84 115 154 199 247 293 352
#     4   9  18  34  57  82 115 154 193 241 294 348
#     4  11  21  36  61  87 116 150 203 246 288 357
#
# _framework density 22.552258999999999
#
# number of rings (size 3 to 8) (size 9 to 14) (size 15 to 20)
#    0.000    1.600    5.000    0.600    0.000    4.000 
#    1.800    2.000    0.000    0.000    0.000    0.000 
#    0.000    0.000    0.000    0.000    0.000    0.000 
#
# Total GULP energy -222925.932559 kJ/mol
# GULP energy per Si atom -5573.148314 kJ/mol
# Density = 2.250093 g / cm^3
# Si number density = 22.552259 Si / 1000 Ang^3
#
#
#
# Elastic Constant Matrix: (Units=GPa)
#
#
# Indices 1 2 3 4 5 6 
#
# 1 176.9956 17.1422 10.3903 0.0000 0.0000 0.0000
# 2 17.1422 24.5382 15.8103 0.0000 0.0000 0.0000
# 3 10.3903 15.8103 50.0106 0.0000 0.0000 0.0000
# 4 0.0000 0.0000 0.0000 18.3999 0.0000 0.0000
# 5 0.0000 0.0000 0.0000 0.0000 25.7392 0.0000
# 6 0.0000 0.0000 0.0000 0.0000 0.0000 46.4532
#
#
#
# Elastic Compliance Matrix: (Units=1/GPa)
#
#
# Indices 1 2 3 4 5 6 
#
# 1 0.006060 -0.004298 0.000100 0.000000 0.000000 0.000000
# 2 -0.004298 0.054225 -0.016250 0.000000 0.000000 0.000000
# 3 0.000100 -0.016250 0.025112 0.000000 0.000000 0.000000
# 4 0.000000 0.000000 0.000000 0.054348 0.000000 0.000000
# 5 0.000000 0.000000 0.000000 0.000000 0.038851 0.000000
# 6 0.000000 0.000000 0.000000 0.000000 0.000000 0.021527
#
#
# Mechanical properties :
#
#
# Convention : Reuss Voigt Hill
#
# Bulk Modulus (GPa) = 22.47107 37.58113 30.02610
# Shear Modulus (GPa) = 19.54239 31.99857 25.77048
#
# Velocity S-wave (km/s) = 2.94690 3.77087 3.38405
# Velocity P-wave (km/s) = 4.64377 5.97155 5.34902
#
# Compressibility (1/GPa) = 0.04450167
#
# Stress axis : x y z
#
# Youngs Moduli (GPa) = 165.00949 18.44163 39.82115
#
# Poissons Ratio (x) = 0.07926 -0.00397
# Poissons Ratio (y) = 0.70918 0.64709
# Poissons Ratio (z) = -0.01644 0.29967
#
# Static dielectric constant tensor:
#      x y z
#    x 1.884320 0.000000 0.000000 
#    y 0.000000 1.872930 0.000000 
#    z 0.000000 0.000000 1.831220 
# 
# From -- ./inp_files/62609.got.cif
#   From: 2010.05.17/outbox.cif.g08.bks.cpg/sg63_32_cif.got.tgz:62609.got - 2010.06.03 15:47:04.
