data_PCOD9474763
_publ_section_title
;
Structure prediction by ZEFSAII (Michael W. Deem and Ramdas Pophale) SiO2 
 PCOD9474763
Probable space group: C M C M
;
_chemical_formula_sum "Si O2"
_cell_formula_units_Z 56
_cell_length_a 8.466265
_cell_length_b 11.012162
_cell_length_c 26.489994
_cell_angle_alpha 90.000000
_cell_angle_beta 90.000000
_cell_angle_gamma 90.000000
_cell_volume 2469.711987
_symmetry_space_group_name_H-M "C M C M"
_symmetry_group_IT_number 63
_symmetry_cell_setting 'orthorhombic'
loop_
_space_group_symop_operation_xyz
x,y,z
-x,-y,1/2+z
x,-y,-z
-x,y,1/2-z
-x,-y,-z
x,y,1/2-z
-x,y,z
x,-y,1/2+z
1/2+x,1/2+y,z
1/2-x,1/2-y,1/2+z
1/2+x,1/2-y,-z
1/2-x,1/2+y,1/2-z
1/2-x,1/2-y,-z
1/2+x,1/2+y,1/2-z
1/2-x,1/2+y,z
1/2+x,1/2-y,1/2+z
loop_
_atom_site_type_symbol
_atom_site_label
_atom_site_fract_x
_atom_site_fract_y
_atom_site_fract_z
Si Si1 0.000000 0.806307 0.514992
Si Si2 0.244808 0.500000 0.000000
Si Si3 0.000000 0.097862 0.375214
Si Si4 0.500000 0.673388 0.861495
Si Si5 0.824094 0.736002 0.690301
Si Si6 0.000000 0.397901 0.938006
O O1 0.850626 0.880916 0.495362
O O2 0.000000 0.674803 0.491675
O O3 0.000000 0.819670 0.574981
O O4 0.152007 0.519663 0.052816
O O5 0.147740 0.138851 0.340570
O O6 0.000000 0.957235 0.388504
O O7 0.336833 0.677657 0.829715
O O8 0.500000 0.793484 0.896758
O O9 0.810523 0.756217 0.750000
O O10 0.000000 0.674636 0.681958
#
# Coordination Sequence:
#
# PCOD9474763 Si02
#       6
#     8   8   8   8  16   8
#     4  11  21  39  64  86 127 177 209 261 316 366
#     4  10  22  38  56  86 126 166 210 256 304 368
#     4  10  23  41  64  96 131 167 223 269 319 395
#     4  12  22  41  71  95 126 176 215 265 327 385
#     4   9  22  44  65  95 129 159 210 272 329 396
#     4  11  24  38  59  93 130 169 217 258 314 381
#
# _framework density 22.674709
#
# number of rings (size 3 to 8) (size 9 to 14) (size 15 to 20)
#    0.857    0.857    0.000    4.714    0.000    4.571 
#    2.571    0.000    0.000    0.000    0.000    0.000 
#    0.000    0.000    0.000    0.000    0.000    0.000 
#
# Total GULP energy -156107.054219 kJ/mol
# GULP energy per Si atom -5575.251936 kJ/mol
# Density = 2.262310 g / cm^3
# Si number density = 22.674709 Si / 1000 Ang^3
#
#
#
# Elastic Constant Matrix: (Units=GPa)
#
#
# Indices 1 2 3 4 5 6 
#
# 1 131.1923 4.8064 34.3577 0.0000 0.0000 0.0000
# 2 4.8064 29.3237 14.6669 0.0000 0.0000 0.0000
# 3 34.3577 14.6669 122.3479 0.0000 0.0000 0.0000
# 4 0.0000 0.0000 0.0000 14.7504 0.0000 0.0000
# 5 0.0000 0.0000 0.0000 0.0000 64.1577 0.0000
# 6 0.0000 0.0000 0.0000 0.0000 0.0000 37.2969
#
#
#
# Elastic Compliance Matrix: (Units=1/GPa)
#
#
# Indices 1 2 3 4 5 6 
#
# 1 0.008229 -0.000205 -0.002286 0.000000 0.000000 0.000000
# 2 -0.000205 0.036282 -0.004292 0.000000 0.000000 0.000000
# 3 -0.002286 -0.004292 0.009330 0.000000 0.000000 0.000000
# 4 0.000000 0.000000 0.000000 0.067795 0.000000 0.000000
# 5 0.000000 0.000000 0.000000 0.000000 0.015587 0.000000
# 6 0.000000 0.000000 0.000000 0.000000 0.000000 0.026812
#
#
# Mechanical properties :
#
#
# Convention : Reuss Voigt Hill
#
# Bulk Modulus (GPa) = 24.82968 43.39177 34.11073
# Shear Modulus (GPa) = 26.17452 38.50987 32.34219
#
# Velocity S-wave (km/s) = 3.40126 4.12559 3.78081
# Velocity P-wave (km/s) = 5.13798 6.47087 5.84256
#
# Compressibility (1/GPa) = 0.04027438
#
# Stress axis : x y z
#
# Youngs Moduli (GPa) = 121.52685 27.56160 107.18217
#
# Poissons Ratio (x) = 0.00566 0.24504
# Poissons Ratio (y) = 0.02495 0.46001
# Poissons Ratio (z) = 0.27783 0.11829
#
# Static dielectric constant tensor:
#      x y z
#    x 1.981030 0.000000 0.000000 
#    y 0.000000 1.806220 0.000000 
#    z 0.000000 0.000000 1.837970 
# 
# From -- ./inp_files/71327.got.cif
#   From: 2010.05.17/outbox.cif.g08.bks.cpg/sg63_36_cif.got.tgz:71327.got - 2010.06.03 15:47:04.
