data_PCOD9474991
_publ_section_title
;
Structure prediction by ZEFSAII (Michael W. Deem and Ramdas Pophale) SiO2 
 PCOD9474991
Probable space group: C M C M
;
_chemical_formula_sum "Si O2"
_cell_formula_units_Z 112
_cell_length_a 31.474203
_cell_length_b 12.045939
_cell_length_c 15.853398
_cell_angle_alpha 90.000000
_cell_angle_beta 90.000000
_cell_angle_gamma 90.000000
_cell_volume 6010.599126
_symmetry_space_group_name_H-M "C M C M"
_symmetry_group_IT_number 63
_symmetry_cell_setting 'orthorhombic'
loop_
_space_group_symop_operation_xyz
x,y,z
-x,-y,1/2+z
x,-y,-z
-x,y,1/2-z
-x,-y,-z
x,y,1/2-z
-x,y,z
x,-y,1/2+z
1/2+x,1/2+y,z
1/2-x,1/2-y,1/2+z
1/2+x,1/2-y,-z
1/2-x,1/2+y,1/2-z
1/2-x,1/2-y,-z
1/2+x,1/2+y,1/2-z
1/2-x,1/2+y,z
1/2+x,1/2-y,1/2+z
loop_
_atom_site_type_symbol
_atom_site_label
_atom_site_fract_x
_atom_site_fract_y
_atom_site_fract_z
Si Si1 0.167977 0.365059 0.401445
Si Si2 0.548979 0.366543 0.008945
Si Si3 0.765788 0.178436 0.350582
Si Si4 0.172099 0.620158 0.398341
Si Si5 0.402802 0.700362 0.153904
Si Si6 0.385487 0.307200 0.156610
Si Si7 0.163978 0.011900 0.100304
O O1 0.207728 0.284951 0.381926
O O2 0.174443 0.491265 0.373250
O O3 0.162497 0.368481 0.502285
O O4 0.126790 0.307847 0.360413
O O5 0.500000 0.341153 0.028141
O O6 0.562973 0.311997 0.920270
O O7 0.553101 0.500000 0.000000
O O8 0.580398 0.328184 0.083212
O O9 0.766452 0.179207 0.250000
O O10 0.717893 0.174312 0.382248
O O11 0.790944 0.068414 0.381280
O O12 0.135456 0.686872 0.351152
O O13 0.418657 0.696298 0.250000
O O14 0.370570 0.597578 0.137590
O O15 0.403230 0.326191 0.250000
O O16 0.347042 0.394256 0.140753
O O17 0.158731 0.000000 0.000000
#
# Coordination Sequence:
#
# PCOD9474991 Si02
#       7
#    16  16  16  16  16  16  16
#     4  10  22  41  61  83 118 161 212 255 307 363
#     4  11  23  41  64  97 133 159 196 252 308 379
#     4  11  24  37  55  86 122 161 210 262 304 352
#     4  11  24  39  61  87 117 166 211 258 310 363
#     4  11  20  39  66  88 119 161 200 251 307 368
#     4  12  22  38  62  90 126 167 205 249 309 373
#     4  11  20  36  59  83 121 164 207 248 303 363
#
# _framework density 18.633749999999999
#
# number of rings (size 3 to 8) (size 9 to 14) (size 15 to 20)
#    0.000    1.000    4.286    4.286    4.000    2.857 
#    0.000    1.429    0.000    1.714    0.000    2.000 
#    0.000    0.000    0.000    0.000    0.000    0.000 
#
# Total GULP energy -312983.125603 kJ/mol
# GULP energy per Si atom -5588.984386 kJ/mol
# Density = 1.859134 g / cm^3
# Si number density = 18.633750 Si / 1000 Ang^3
#
#
#
# Elastic Constant Matrix: (Units=GPa)
#
#
# Indices 1 2 3 4 5 6 
#
# 1 92.9831 35.4813 31.7465 0.0000 0.0000 0.0000
# 2 35.4813 94.1149 30.7644 0.0000 0.0000 0.0000
# 3 31.7465 30.7644 134.0658 0.0000 0.0000 0.0000
# 4 0.0000 0.0000 0.0000 13.2076 0.0000 0.0000
# 5 0.0000 0.0000 0.0000 0.0000 0.8910 0.0000
# 6 0.0000 0.0000 0.0000 0.0000 0.0000 17.2150
#
#
#
# Elastic Compliance Matrix: (Units=1/GPa)
#
#
# Indices 1 2 3 4 5 6 
#
# 1 0.013100 -0.004243 -0.002128 0.000000 0.000000 0.000000
# 2 -0.004243 0.012861 -0.001947 0.000000 0.000000 0.000000
# 3 -0.002128 -0.001947 0.008410 0.000000 0.000000 0.000000
# 4 0.000000 0.000000 0.000000 0.075714 0.000000 0.000000
# 5 0.000000 0.000000 0.000000 0.000000 1.122305 0.000000
# 6 0.000000 0.000000 0.000000 0.000000 0.000000 0.058089
#
#
# Mechanical properties :
#
#
# Convention : Reuss Voigt Hill
#
# Bulk Modulus (GPa) = 56.38514 57.46090 56.92302
# Shear Modulus (GPa) = 3.80799 21.14084 12.47442
#
# Velocity S-wave (km/s) = 1.43110 3.37196 2.59019
# Velocity P-wave (km/s) = 5.74944 6.78705 6.28968
#
# Compressibility (1/GPa) = 0.01773517
#
# Stress axis : x y z
#
# Youngs Moduli (GPa) = 76.33306 77.75289 118.90998
#
# Poissons Ratio (x) = 0.32991 0.25310
# Poissons Ratio (y) = 0.32389 0.23146
# Poissons Ratio (z) = 0.16247 0.15135
#
# Static dielectric constant tensor:
#      x y z
#    x 1.616970 0.000000 0.000000 
#    y 0.000000 1.694360 0.000000 
#    z 0.000000 0.000000 1.653640 
# 
# From -- ./inp_files/38558.got.cif
#   From: 2010.05.17/outbox.cif.g08.bks.cpg/sg63_20_cif.got.tgz:38558.got - 2010.06.03 15:47:04.
