data_PCOD9474686
_publ_section_title
;
Structure prediction by ZEFSAII (Michael W. Deem and Ramdas Pophale) SiO2 
 PCOD9474686
Probable space group: C M C M
;
_chemical_formula_sum "Si O2"
_cell_formula_units_Z 64
_cell_length_a 14.501712
_cell_length_b 11.218281
_cell_length_c 19.113487
_cell_angle_alpha 90.000000
_cell_angle_beta 90.000000
_cell_angle_gamma 90.000000
_cell_volume 3109.463875
_symmetry_space_group_name_H-M "C M C M"
_symmetry_group_IT_number 63
_symmetry_cell_setting 'orthorhombic'
loop_
_space_group_symop_operation_xyz
x,y,z
-x,-y,1/2+z
x,-y,-z
-x,y,1/2-z
-x,-y,-z
x,y,1/2-z
-x,y,z
x,-y,1/2+z
1/2+x,1/2+y,z
1/2-x,1/2-y,1/2+z
1/2+x,1/2-y,-z
1/2-x,1/2+y,1/2-z
1/2-x,1/2-y,-z
1/2+x,1/2+y,1/2-z
1/2-x,1/2+y,z
1/2+x,1/2-y,1/2+z
loop_
_atom_site_type_symbol
_atom_site_label
_atom_site_fract_x
_atom_site_fract_y
_atom_site_fract_z
Si Si1 0.105039 0.578873 0.670660
Si Si2 0.500000 0.377396 0.165472
Si Si3 0.500000 0.592314 0.063401
Si Si4 0.811964 0.760089 0.569291
Si Si5 0.654441 0.810119 0.831197
O O1 0.139216 0.606315 0.750000
O O2 0.163277 0.636543 0.608515
O O3 0.103594 0.436499 0.664396
O O4 0.000000 0.624174 0.666029
O O5 0.500000 0.382860 0.250000
O O6 0.500000 0.507622 0.131898
O O7 0.589191 0.298205 0.143845
O O8 0.592309 0.671139 0.058608
O O9 0.500000 0.500000 0.000000
O O10 0.750000 0.750000 0.500000
O O11 0.746931 0.824438 0.625342
O O12 0.674797 0.787863 0.750000
#
# Coordination Sequence:
#
# PCOD9474686 Si02
#       5
#    16   8   8  16  16
#     4  10  21  44  72  97 128 169 225 283 329 387
#     4  10  22  43  70 101 138 173 214 271 338 404
#     4  12  28  47  62  92 136 179 219 272 341 402
#     4  12  27  44  67  95 134 178 226 280 333 395
#     4  10  22  42  69 100 132 174 220 272 335 399
#
# _framework density 20.582325999999998
#
# number of rings (size 3 to 8) (size 9 to 14) (size 15 to 20)
#    0.000    1.250    2.500    2.250    7.000    2.000 
#    0.000    1.250    0.000    0.000    0.000    0.000 
#    0.000    0.000    0.000    0.000    0.000    0.000 
#
# Total GULP energy -178710.081695 kJ/mol
# GULP energy per Si atom -5584.690053 kJ/mol
# Density = 2.053548 g / cm^3
# Si number density = 20.582326 Si / 1000 Ang^3
#
#
#
# Elastic Constant Matrix: (Units=GPa)
#
#
# Indices 1 2 3 4 5 6 
#
# 1 153.4787 46.7073 63.7217 0.0000 0.0000 0.0000
# 2 46.7073 81.1975 40.9053 0.0000 0.0000 0.0000
# 3 63.7217 40.9053 88.8255 0.0000 0.0000 0.0000
# 4 0.0000 0.0000 0.0000 26.6173 0.0000 0.0000
# 5 0.0000 0.0000 0.0000 0.0000 2.4571 0.0000
# 6 0.0000 0.0000 0.0000 0.0000 0.0000 34.4411
#
#
#
# Elastic Compliance Matrix: (Units=1/GPa)
#
#
# Indices 1 2 3 4 5 6 
#
# 1 0.009715 -0.002705 -0.005724 0.000000 0.000000 0.000000
# 2 -0.002705 0.016789 -0.005791 0.000000 0.000000 0.000000
# 3 -0.005724 -0.005791 0.018031 0.000000 0.000000 0.000000
# 4 0.000000 0.000000 0.000000 0.037570 0.000000 0.000000
# 5 0.000000 0.000000 0.000000 0.000000 0.406984 0.000000
# 6 0.000000 0.000000 0.000000 0.000000 0.000000 0.029035
#
#
# Mechanical properties :
#
#
# Convention : Reuss Voigt Hill
#
# Bulk Modulus (GPa) = 62.12897 69.57448 65.85173
# Shear Modulus (GPa) = 9.05914 24.18092 16.62003
#
# Velocity S-wave (km/s) = 2.10023 3.43131 2.84472
# Velocity P-wave (km/s) = 6.01103 7.04095 6.54627
#
# Compressibility (1/GPa) = 0.01609555
#
# Stress axis : x y z
#
# Youngs Moduli (GPa) = 102.93186 59.56265 55.45987
#
# Poissons Ratio (x) = 0.16111 0.31744
# Poissons Ratio (y) = 0.27842 0.32117
# Poissons Ratio (z) = 0.58916 0.34493
#
# Static dielectric constant tensor:
#      x y z
#    x 1.753310 0.000000 0.000000 
#    y 0.000000 1.726140 0.000000 
#    z 0.000000 0.000000 1.728120 
# 
# From -- ./inp_files/43474.got.cif
#   From: 2010.05.17/outbox.cif.g08.bks.cpg/sg63_22_cif.got.tgz:43474.got - 2010.06.03 15:47:04.
