data_PCOD9474812
_publ_section_title
;
Structure prediction by ZEFSAII (Michael W. Deem and Ramdas Pophale) SiO2 
 PCOD9474812
Probable space group: C M C M
;
_chemical_formula_sum "Si O2"
_cell_formula_units_Z 88
_cell_length_a 11.869546
_cell_length_b 14.709273
_cell_length_c 23.049637
_cell_angle_alpha 90.000000
_cell_angle_beta 90.000000
_cell_angle_gamma 90.000000
_cell_volume 4024.291270
_symmetry_space_group_name_H-M "C M C M"
_symmetry_group_IT_number 63
_symmetry_cell_setting 'orthorhombic'
loop_
_space_group_symop_operation_xyz
x,y,z
-x,-y,1/2+z
x,-y,-z
-x,y,1/2-z
-x,-y,-z
x,y,1/2-z
-x,y,z
x,-y,1/2+z
1/2+x,1/2+y,z
1/2-x,1/2-y,1/2+z
1/2+x,1/2-y,-z
1/2-x,1/2+y,1/2-z
1/2-x,1/2-y,-z
1/2+x,1/2+y,1/2-z
1/2-x,1/2+y,z
1/2+x,1/2-y,1/2+z
loop_
_atom_site_type_symbol
_atom_site_label
_atom_site_fract_x
_atom_site_fract_y
_atom_site_fract_z
Si Si1 0.247278 0.501734 0.682367
Si Si2 0.251271 0.390416 0.508169
Si Si3 0.000000 0.314716 0.358498
Si Si4 0.865239 0.835584 0.388449
Si Si5 0.000000 0.500903 0.185610
Si Si6 0.500000 0.893080 0.487002
Si Si7 0.794422 0.819132 0.866858
O O1 0.235884 0.526269 0.750000
O O2 0.310384 0.581424 0.648333
O O3 0.121161 0.481437 0.657028
O O4 0.305449 0.404635 0.675211
O O5 0.254934 0.500000 0.500000
O O6 0.313370 0.347518 0.452884
O O7 0.120261 0.359564 0.510069
O O8 0.305388 0.360241 0.568428
O O9 0.891183 0.253136 0.355917
O O10 0.000000 0.392013 0.310895
O O11 0.000000 0.368933 0.419314
O O12 0.820018 0.739863 0.363477
O O13 0.000000 0.841052 0.388787
O O14 0.000000 0.543391 0.250000
O O15 0.500000 0.000000 0.500000
#
# Coordination Sequence:
#
# PCOD9474812 Si02
#       7
#    16  16   8  16   8   8  16
#     4  11  26  49  72 100 134 181 235 283 344 406
#     4  11  23  42  67 100 139 179 227 272 341 411
#     4  12  24  44  69 101 136 177 238 279 342 407
#     4  12  27  46  69 102 143 183 221 283 346 411
#     4  10  22  46  76  94 127 178 232 293 336 395
#     4  10  22  38  66  97 131 179 219 284 328 394
#     4  12  27  42  71 105 137 183 227 286 342 412
#
# _framework density 21.867205999999999
#
# number of rings (size 3 to 8) (size 9 to 14) (size 15 to 20)
#    0.000    0.727    5.455    0.545    7.636    2.182 
#    0.000    0.000    0.000    0.000    0.000    0.000 
#    0.000    0.000    0.000    0.000    0.000    0.000 
#
# Total GULP energy -246023.824024 kJ/mol
# GULP energy per Si atom -5591.450546 kJ/mol
# Density = 2.181743 g / cm^3
# Si number density = 21.867206 Si / 1000 Ang^3
#
#
#
# Elastic Constant Matrix: (Units=GPa)
#
#
# Indices 1 2 3 4 5 6 
#
# 1 106.1326 13.5648 9.3275 0.0000 0.0000 0.0000
# 2 13.5648 112.0642 10.1030 0.0000 0.0000 0.0000
# 3 9.3275 10.1030 43.9752 0.0000 0.0000 0.0000
# 4 0.0000 0.0000 0.0000 16.9261 0.0000 0.0000
# 5 0.0000 0.0000 0.0000 0.0000 15.9441 0.0000
# 6 0.0000 0.0000 0.0000 0.0000 0.0000 -12.5635
#
#
#
# Elastic Compliance Matrix: (Units=1/GPa)
#
#
# Indices 1 2 3 4 5 6 
#
# 1 0.009712 -0.001011 -0.001828 0.000000 0.000000 0.000000
# 2 -0.001011 0.009217 -0.001903 0.000000 0.000000 0.000000
# 3 -0.001828 -0.001903 0.023565 0.000000 0.000000 0.000000
# 4 0.000000 0.000000 0.000000 0.059080 0.000000 0.000000
# 5 0.000000 0.000000 0.000000 0.000000 0.062719 0.000000
# 6 0.000000 0.000000 0.000000 0.000000 0.000000 -0.079596
#
#
# Mechanical properties :
#
#
# Convention : Reuss Voigt Hill
#
# Bulk Modulus (GPa) = 30.29311 36.46250 33.37780
# Shear Modulus (GPa) = 47.53499 19.33978 33.43738
#
# Velocity S-wave (km/s) = 4.66746 2.97714 3.91463
# Velocity P-wave (km/s) = 6.55212 5.34121 5.97741
#
# Compressibility (1/GPa) = 0.03301081
#
# Stress axis : x y z
#
# Youngs Moduli (GPa) = 102.96535 108.49058 42.43577
#
# Poissons Ratio (x) = 0.10966 0.07756
# Poissons Ratio (y) = 0.10408 0.08076
# Poissons Ratio (z) = 0.18820 0.20648
#
# Static dielectric constant tensor:
#      x y z
#    x 1.820260 0.000000 0.000000 
#    y 0.000000 1.796740 0.000000 
#    z 0.000000 0.000000 1.800750 
# 
# From -- ./inp_files/61274.got.cif
#   From: 2010.05.17/outbox.cif.g08.bks.cpg/sg63_31_cif.got.tgz:61274.got - 2010.06.03 15:47:04.
