data_PCOD9474830
_publ_section_title
;
Structure prediction by ZEFSAII (Michael W. Deem and Ramdas Pophale) SiO2 
 PCOD9474830
Probable space group: C M C M
;
_chemical_formula_sum "Si O2"
_cell_formula_units_Z 104
_cell_length_a 22.625912
_cell_length_b 28.205178
_cell_length_c 8.119045
_cell_angle_alpha 90.000000
_cell_angle_beta 90.000000
_cell_angle_gamma 90.000000
_cell_volume 5181.313698
_symmetry_space_group_name_H-M "C M C M"
_symmetry_group_IT_number 63
_symmetry_cell_setting 'orthorhombic'
loop_
_space_group_symop_operation_xyz
x,y,z
-x,-y,1/2+z
x,-y,-z
-x,y,1/2-z
-x,-y,-z
x,y,1/2-z
-x,y,z
x,-y,1/2+z
1/2+x,1/2+y,z
1/2-x,1/2-y,1/2+z
1/2+x,1/2-y,-z
1/2-x,1/2+y,1/2-z
1/2-x,1/2-y,-z
1/2+x,1/2+y,1/2-z
1/2-x,1/2+y,z
1/2+x,1/2-y,1/2+z
loop_
_atom_site_type_symbol
_atom_site_label
_atom_site_fract_x
_atom_site_fract_y
_atom_site_fract_z
Si Si1 0.500000 0.052862 0.447558
Si Si2 0.891751 0.387294 0.950078
Si Si3 0.778308 0.701807 0.941415
Si Si4 0.433249 0.318808 0.552916
Si Si5 0.316459 0.626476 0.052747
Si Si6 0.904452 0.287182 0.936335
Si Si7 0.724888 0.054712 0.945867
O O1 0.500000 0.058525 0.250000
O O2 0.560596 0.075063 0.507859
O O3 0.500000 0.000000 0.500000
O O4 0.890228 0.383776 0.750000
O O5 0.922258 0.337674 0.011215
O O6 0.827842 0.408753 0.001139
O O7 0.796846 0.702925 0.750000
O O8 0.750000 0.750000 0.000000
O O9 0.729700 0.662112 0.968527
O O10 0.835031 0.699807 0.056818
O O11 0.435646 0.323510 0.750000
O O12 0.500000 0.327225 0.488011
O O13 0.381663 0.355336 0.496877
O O14 0.415904 0.263766 0.517263
O O15 0.314215 0.632993 0.250000
O O16 0.287611 0.575418 0.013073
O O17 0.926198 0.282546 0.750000
O O18 0.727209 0.055768 0.750000
O O19 0.714429 0.000000 0.000000
#
# Coordination Sequence:
#
# PCOD9474830 Si02
#       7
#     8  16  16  16  16  16  16
#     4  10  22  40  58  78 108 154 206 256 301 352
#     4  10  22  39  59  84 119 158 203 251 301 354
#     4  12  22  34  55  85 119 155 195 239 290 349
#     4  10  23  41  61  87 123 165 205 250 303 365
#     4  11  22  39  62  88 122 158 199 249 305 367
#     4  11  22  35  57  85 119 160 201 246 295 350
#     4  12  25  41  64  91 121 153 197 251 311 368
#
# _framework density 20.072130999999999
#
# number of rings (size 3 to 8) (size 9 to 14) (size 15 to 20)
#    0.000    1.077    3.077    4.154    1.077    3.385 
#    0.000    0.000    0.000    0.462    0.000    0.000 
#    0.000    0.000    0.000    0.000    0.000    0.000 
#
# Total GULP energy -289729.716022 kJ/mol
# GULP energy per Si atom -5571.725308 kJ/mol
# Density = 2.002645 g / cm^3
# Si number density = 20.072131 Si / 1000 Ang^3
#
#
#
# Elastic Constant Matrix: (Units=GPa)
#
#
# Indices 1 2 3 4 5 6 
#
# 1 133.9849 37.1767 14.1479 0.0000 0.0000 0.0000
# 2 37.1767 74.9686 11.3149 0.0000 0.0000 0.0000
# 3 14.1479 11.3149 54.1993 0.0000 0.0000 0.0000
# 4 0.0000 0.0000 0.0000 27.6488 0.0000 0.0000
# 5 0.0000 0.0000 0.0000 0.0000 -2.6325 0.0000
# 6 0.0000 0.0000 0.0000 0.0000 0.0000 36.5713
#
#
#
# Elastic Compliance Matrix: (Units=1/GPa)
#
#
# Indices 1 2 3 4 5 6 
#
# 1 0.008760 -0.004129 -0.001425 0.000000 0.000000 0.000000
# 2 -0.004129 0.015719 -0.002204 0.000000 0.000000 0.000000
# 3 -0.001425 -0.002204 0.019282 0.000000 0.000000 0.000000
# 4 0.000000 0.000000 0.000000 0.036168 0.000000 0.000000
# 5 0.000000 0.000000 0.000000 0.000000 -0.379871 0.000000
# 6 0.000000 0.000000 0.000000 0.000000 0.000000 0.027344
#
#
# Mechanical properties :
#
#
# Convention : Reuss Voigt Hill
#
# Bulk Modulus (GPa) = 35.40265 43.15910 39.28088
# Shear Modulus (GPa) = -20.18830 25.68507 2.74838
#
# Velocity S-wave (km/s) = -3.17486 3.58108 1.17142
# Velocity P-wave (km/s) = 2.05825 6.21672 4.63055
#
# Compressibility (1/GPa) = 0.02824647
#
# Stress axis : x y z
#
# Youngs Moduli (GPa) = 114.16071 63.61724 51.86080
#
# Poissons Ratio (x) = 0.26267 0.07388
# Poissons Ratio (y) = 0.47135 0.11429
# Poissons Ratio (z) = 0.16263 0.14020
#
# Static dielectric constant tensor:
#      x y z
#    x 1.736930 0.000000 0.000000 
#    y 0.000000 1.489570 0.000000 
#    z 0.000000 0.000000 1.700410 
# 
# From -- ./inp_files/8831.got.cif
#   From: 2010.05.17/outbox.cif.g08.bks.cpg/sg63_5_cif.got.tgz:8831.got - 2010.06.03 15:47:04.
