data_PCOD9474777
_publ_section_title
;
Structure prediction by ZEFSAII (Michael W. Deem and Ramdas Pophale) SiO2 
 PCOD9474777
Probable space group: C M C M
;
_chemical_formula_sum "Si O2"
_cell_formula_units_Z 88
_cell_length_a 7.406013
_cell_length_b 19.845711
_cell_length_c 25.632972
_cell_angle_alpha 90.000000
_cell_angle_beta 90.000000
_cell_angle_gamma 90.000000
_cell_volume 3767.472543
_symmetry_space_group_name_H-M "C M C M"
_symmetry_group_IT_number 63
_symmetry_cell_setting 'orthorhombic'
loop_
_space_group_symop_operation_xyz
x,y,z
-x,-y,1/2+z
x,-y,-z
-x,y,1/2-z
-x,-y,-z
x,y,1/2-z
-x,y,z
x,-y,1/2+z
1/2+x,1/2+y,z
1/2-x,1/2-y,1/2+z
1/2+x,1/2-y,-z
1/2-x,1/2+y,1/2-z
1/2-x,1/2-y,-z
1/2+x,1/2+y,1/2-z
1/2-x,1/2+y,z
1/2+x,1/2-y,1/2+z
loop_
_atom_site_type_symbol
_atom_site_label
_atom_site_fract_x
_atom_site_fract_y
_atom_site_fract_z
Si Si1 0.217299 0.699397 0.660659
Si Si2 0.794010 0.066881 0.023744
Si Si3 0.500000 0.808759 0.684482
Si Si4 0.212733 0.307755 0.458202
Si Si5 0.292997 0.592254 0.137854
Si Si6 0.282473 0.045735 0.809905
O O1 0.341306 0.751108 0.690922
O O2 0.267594 0.712519 0.599794
O O3 0.261848 0.621525 0.672582
O O4 0.000000 0.707824 0.668047
O O5 0.721015 0.095755 0.078097
O O6 0.000000 0.048708 0.038118
O O7 0.795561 0.123977 0.980103
O O8 0.707288 0.000000 0.000000
O O9 0.341653 0.866028 0.673816
O O10 0.250000 0.250000 0.500000
O O11 0.000000 0.319990 0.455664
O O12 0.500000 0.618233 0.140004
O O13 0.291498 0.514126 0.154645
O O14 0.225937 0.035765 0.750000
O O15 0.500000 0.040965 0.812205
#
# Coordination Sequence:
#
# PCOD9474777 Si02
#       6
#    16  16   8  16  16  16
#     4  10  24  43  65 100 140 176 231 287 337 404
#     4  10  22  38  58  88 128 173 223 272 323 388
#     4  12  24  42  70  98 135 184 216 274 347 402
#     4  11  23  36  58  90 128 173 220 265 325 389
#     4  11  24  42  67  99 139 177 225 280 342 402
#     4  10  22  46  76 102 129 173 226 281 344 414
#
# _framework density 23.357835999999999
#
# number of rings (size 3 to 8) (size 9 to 14) (size 15 to 20)
#    0.000    1.455    0.909    3.273    7.636    3.636 
#    0.000    1.818    0.000    2.182    0.000    0.000 
#    0.000    0.000    0.000    0.000    0.000    0.000 
#
# Total GULP energy -245119.926291 kJ/mol
# GULP energy per Si atom -5570.907416 kJ/mol
# Density = 2.330467 g / cm^3
# Si number density = 23.357836 Si / 1000 Ang^3
#
#
#
# Elastic Constant Matrix: (Units=GPa)
#
#
# Indices 1 2 3 4 5 6 
#
# 1 127.9784 35.4299 16.0178 0.0000 0.0000 0.0000
# 2 35.4299 129.4514 4.2370 0.0000 0.0000 0.0000
# 3 16.0178 4.2370 71.1245 0.0000 0.0000 0.0000
# 4 0.0000 0.0000 0.0000 -21.4097 0.0000 0.0000
# 5 0.0000 0.0000 0.0000 0.0000 -17.6296 0.0000
# 6 0.0000 0.0000 0.0000 0.0000 0.0000 53.8232
#
#
#
# Elastic Compliance Matrix: (Units=1/GPa)
#
#
# Indices 1 2 3 4 5 6 
#
# 1 0.008683 -0.002317 -0.001817 0.000000 0.000000 0.000000
# 2 -0.002317 0.008358 0.000024 0.000000 0.000000 0.000000
# 3 -0.001817 0.000024 0.014468 0.000000 0.000000 0.000000
# 4 0.000000 0.000000 0.000000 -0.046708 0.000000 0.000000
# 5 0.000000 0.000000 0.000000 0.000000 -0.056723 0.000000
# 6 0.000000 0.000000 0.000000 0.000000 0.000000 0.018579
#
#
# Mechanical properties :
#
#
# Convention : Reuss Voigt Hill
#
# Bulk Modulus (GPa) = 42.94091 48.88040 45.91066
# Shear Modulus (GPa) = -133.83666 21.14808 -56.34429
#
# Velocity S-wave (km/s) = -7.57778 3.01224 -4.91677
# Velocity P-wave (km/s) = 7.62495 5.75068 3.54045
#
# Compressibility (1/GPa) = 0.02328781
#
# Stress axis : x y z
#
# Youngs Moduli (GPa) = 115.17150 119.64233 69.11944
#
# Poissons Ratio (x) = 0.27720 0.12562
# Poissons Ratio (y) = 0.26684 -0.00165
# Poissons Ratio (z) = 0.20931 -0.00286
#
# Static dielectric constant tensor:
#      x y z
#    x 1.903720 0.000000 0.000000 
#    y 0.000000 1.779400 0.000000 
#    z 0.000000 0.000000 1.916700 
# 
# From -- ./inp_files/71650.got.cif
#   From: 2010.05.17/outbox.cif.g08.bks.cpg/sg63_36_cif.got.tgz:71650.got - 2010.06.03 15:47:04.
