data_PCOD9474065
_publ_section_title
;
Structure prediction by ZEFSAII (Michael W. Deem and Ramdas Pophale) SiO2 
 PCOD9474065
Probable space group: C M C M
;
_chemical_formula_sum "Si O2"
_cell_formula_units_Z 80
_cell_length_a 18.825281
_cell_length_b 26.635044
_cell_length_c 7.832760
_cell_angle_alpha 90.000000
_cell_angle_beta 90.000000
_cell_angle_gamma 90.000000
_cell_volume 3927.441328
_symmetry_space_group_name_H-M "C M C M"
_symmetry_group_IT_number 63
_symmetry_cell_setting 'orthorhombic'
loop_
_space_group_symop_operation_xyz
x,y,z
-x,-y,1/2+z
x,-y,-z
-x,y,1/2-z
-x,-y,-z
x,y,1/2-z
-x,y,z
x,-y,1/2+z
1/2+x,1/2+y,z
1/2-x,1/2-y,1/2+z
1/2+x,1/2-y,-z
1/2-x,1/2+y,1/2-z
1/2-x,1/2-y,-z
1/2+x,1/2+y,1/2-z
1/2-x,1/2+y,z
1/2+x,1/2-y,1/2+z
loop_
_atom_site_type_symbol
_atom_site_label
_atom_site_fract_x
_atom_site_fract_y
_atom_site_fract_z
Si Si1 0.332650 0.249672 0.046704
Si Si2 0.668455 0.444102 0.455276
Si Si3 0.418203 0.347381 0.459314
Si Si4 0.919759 0.650784 0.954622
Si Si5 0.831171 0.444033 0.044338
O O1 0.337357 0.250999 0.250000
O O2 0.373214 0.299280 0.981784
O O3 0.250000 0.250000 0.000000
O O4 0.372284 0.199520 0.988045
O O5 0.643167 0.500000 0.500000
O O6 0.670925 0.440809 0.250000
O O7 0.619170 0.398857 0.516415
O O8 0.749777 0.438734 0.518951
O O9 0.417649 0.347397 0.250000
O O10 0.500000 0.344137 0.512933
O O11 0.924494 0.645460 0.750000
O O12 0.880627 0.600766 0.020632
O O13 0.000000 0.656558 0.021689
O O14 0.828714 0.440460 0.250000
O O15 0.856284 0.500000 0.000000
#
# Coordination Sequence:
#
# PCOD9474065 Si02
#       5
#    16  16  16  16  16
#     4  11  22  37  58  81 106 139 182 226 269 324
#     4   9  17  31  51  73 100 134 173 214 255 304
#     4   9  18  33  53  76 103 136 172 211 258 313
#     4  10  21  37  56  80 112 145 177 221 277 328
#     4   9  18  33  52  75 105 142 182 222 265 315
#
# _framework density 20.369496000000002
#
# number of rings (size 3 to 8) (size 9 to 14) (size 15 to 20)
#    0.000    2.400    0.000    2.400    0.000    6.000 
#    0.000    6.000    0.000    2.400    0.000    0.000 
#    0.000    0.000    0.000    0.000    0.000    0.000 
#
# Total GULP energy -223368.259668 kJ/mol
# GULP energy per Si atom -5584.206492 kJ/mol
# Density = 2.032313 g / cm^3
# Si number density = 20.369496 Si / 1000 Ang^3
#
#
#
# Elastic Constant Matrix: (Units=GPa)
#
#
# Indices 1 2 3 4 5 6 
#
# 1 176.3449 142.3424 4.4589 0.0000 0.0000 0.0000
# 2 142.3424 226.5959 2.4149 0.0000 0.0000 0.0000
# 3 4.4589 2.4149 22.0156 0.0000 0.0000 0.0000
# 4 0.0000 0.0000 0.0000 27.6967 0.0000 0.0000
# 5 0.0000 0.0000 0.0000 0.0000 1.0514 0.0000
# 6 0.0000 0.0000 0.0000 0.0000 0.0000 -31.4424
#
#
#
# Elastic Compliance Matrix: (Units=1/GPa)
#
#
# Indices 1 2 3 4 5 6 
#
# 1 0.011556 -0.007243 -0.001546 0.000000 0.000000 0.000000
# 2 -0.007243 0.008958 0.000484 0.000000 0.000000 0.000000
# 3 -0.001546 0.000484 0.045682 0.000000 0.000000 0.000000
# 4 0.000000 0.000000 0.000000 0.036105 0.000000 0.000000
# 5 0.000000 0.000000 0.000000 0.000000 0.951155 0.000000
# 6 0.000000 0.000000 0.000000 0.000000 0.000000 -0.031804
#
#
# Mechanical properties :
#
#
# Convention : Reuss Voigt Hill
#
# Bulk Modulus (GPa) = 20.16651 80.37654 50.27153
# Shear Modulus (GPa) = 4.74028 17.84381 11.29205
#
# Velocity S-wave (km/s) = 1.52715 2.96295 2.35704
# Velocity P-wave (km/s) = 3.60991 7.15894 5.66930
#
# Compressibility (1/GPa) = 0.04958716
#
# Stress axis : x y z
#
# Youngs Moduli (GPa) = 86.53507 111.63567 21.89031
#
# Poissons Ratio (x) = 0.80855 0.03384
# Poissons Ratio (y) = 0.62675 -0.01060
# Poissons Ratio (z) = 0.13378 -0.05407
#
# Static dielectric constant tensor:
#      x y z
#    x 1.696070 0.000000 0.000000 
#    y 0.000000 1.689890 0.000000 
#    z 0.000000 0.000000 1.752490 
# 
# From -- ./inp_files/6400.got.cif
#   From: 2010.05.17/outbox.cif.g08.bks.cpg/sg63_4_cif.got.tgz:6400.got - 2010.06.03 15:47:04.
