data_PCOD9474366
_publ_section_title
;
Structure prediction by ZEFSAII (Michael W. Deem and Ramdas Pophale) SiO2 
 PCOD9474366
Probable space group: C M C M
;
_chemical_formula_sum "Si O2"
_cell_formula_units_Z 52
_cell_length_a 17.621461
_cell_length_b 17.885827
_cell_length_c 8.097316
_cell_angle_alpha 90.000000
_cell_angle_beta 90.000000
_cell_angle_gamma 90.000000
_cell_volume 2552.066736
_symmetry_space_group_name_H-M "C M C M"
_symmetry_group_IT_number 63
_symmetry_cell_setting 'orthorhombic'
loop_
_space_group_symop_operation_xyz
x,y,z
-x,-y,1/2+z
x,-y,-z
-x,y,1/2-z
-x,-y,-z
x,y,1/2-z
-x,y,z
x,-y,1/2+z
1/2+x,1/2+y,z
1/2-x,1/2-y,1/2+z
1/2+x,1/2-y,-z
1/2-x,1/2+y,1/2-z
1/2-x,1/2-y,-z
1/2+x,1/2+y,1/2-z
1/2-x,1/2+y,z
1/2+x,1/2-y,1/2+z
loop_
_atom_site_type_symbol
_atom_site_label
_atom_site_fract_x
_atom_site_fract_y
_atom_site_fract_z
Si Si1 0.800235 0.417651 0.446469
Si Si2 0.414171 0.787893 0.551143
Si Si3 0.869580 0.879451 0.452110
Si Si4 0.500000 0.500000 0.500000
O O1 0.825468 0.500000 0.500000
O O2 0.796393 0.415838 0.250000
O O3 0.856834 0.352842 0.501694
O O4 0.714453 0.402746 0.508189
O O5 0.416418 0.785854 0.750000
O O6 0.500000 0.801248 0.490807
O O7 0.386345 0.705790 0.497684
O O8 0.873930 0.883566 0.250000
O O9 0.933559 0.935468 0.515166
#
# Coordination Sequence:
#
# PCOD9474366 Si02
#       4
#    16  16  16   4
#     4  11  23  40  61  89 122 158 203 248 297 355
#     4  10  21  40  64  88 119 160 202 246 301 355
#     4  10  21  38  61  90 124 159 195 242 302 362
#     4  12  18  36  64  94 124 152 194 232 300 364
#
# _framework density 20.375641999999999
#
# number of rings (size 3 to 8) (size 9 to 14) (size 15 to 20)
#    0.000    1.538    3.077    2.308    0.000    1.231 
#    0.000    4.615    0.000    0.000    0.000    0.000 
#    0.000    0.000    0.000    0.000    0.000    0.000 
#
# Total GULP energy -144814.050516 kJ/mol
# GULP energy per Si atom -5569.771174 kJ/mol
# Density = 2.032927 g / cm^3
# Si number density = 20.375642 Si / 1000 Ang^3
#
#
#
# Elastic Constant Matrix: (Units=GPa)
#
#
# Indices 1 2 3 4 5 6 
#
# 1 106.3615 111.9397 4.6726 0.0000 0.0000 0.0000
# 2 111.9397 235.6199 10.5123 0.0000 0.0000 0.0000
# 3 4.6726 10.5123 11.6002 0.0000 0.0000 0.0000
# 4 0.0000 0.0000 0.0000 -7.4976 0.0000 0.0000
# 5 0.0000 0.0000 0.0000 0.0000 15.9940 0.0000
# 6 0.0000 0.0000 0.0000 0.0000 0.0000 51.3590
#
#
#
# Elastic Compliance Matrix: (Units=1/GPa)
#
#
# Indices 1 2 3 4 5 6 
#
# 1 0.018807 -0.008959 0.000543 0.000000 0.000000 0.000000
# 2 -0.008959 0.008691 -0.004267 0.000000 0.000000 0.000000
# 3 0.000543 -0.004267 0.089853 0.000000 0.000000 0.000000
# 4 0.000000 0.000000 0.000000 -0.133376 0.000000 0.000000
# 5 0.000000 0.000000 0.000000 0.000000 0.062524 0.000000
# 6 0.000000 0.000000 0.000000 0.000000 0.000000 0.019471
#
#
# Mechanical properties :
#
#
# Convention : Reuss Voigt Hill
#
# Bulk Modulus (GPa) = 10.87126 67.53677 39.20401
# Shear Modulus (GPa) = 40.98425 27.06818 34.02622
#
# Velocity S-wave (km/s) = 4.48977 3.64876 4.09093
# Velocity P-wave (km/s) = 5.67665 7.13926 6.44955
#
# Compressibility (1/GPa) = 0.09198570
#
# Stress axis : x y z
#
# Youngs Moduli (GPa) = 53.17117 115.06253 11.12924
#
# Poissons Ratio (x) = 1.03088 -0.00605
# Poissons Ratio (y) = 0.47638 0.04749
# Poissons Ratio (z) = -0.02889 0.49097
#
# Static dielectric constant tensor:
#      x y z
#    x 1.705400 0.000000 0.000000 
#    y 0.000000 1.745470 0.000000 
#    z 0.000000 0.000000 1.770360 
# 
# From -- ./inp_files/3883.got.cif
#   From: 2010.05.17/outbox.cif.g08.bks.cpg/sg63_2_cif.got.tgz:3883.got - 2010.06.03 15:47:04.
