data_PCOD9474213
_publ_section_title
;
Structure prediction by ZEFSAII (Michael W. Deem and Ramdas Pophale) SiO2 
 PCOD9474213
Probable space group: C M C M
;
_chemical_formula_sum "Si O2"
_cell_formula_units_Z 88
_cell_length_a 27.473644
_cell_length_b 19.570961
_cell_length_c 9.140414
_cell_angle_alpha 90.000000
_cell_angle_beta 90.000000
_cell_angle_gamma 90.000000
_cell_volume 4914.669125
_symmetry_space_group_name_H-M "C M C M"
_symmetry_group_IT_number 63
_symmetry_cell_setting 'orthorhombic'
loop_
_space_group_symop_operation_xyz
x,y,z
-x,-y,1/2+z
x,-y,-z
-x,y,1/2-z
-x,-y,-z
x,y,1/2-z
-x,y,z
x,-y,1/2+z
1/2+x,1/2+y,z
1/2-x,1/2-y,1/2+z
1/2+x,1/2-y,-z
1/2-x,1/2+y,1/2-z
1/2-x,1/2-y,-z
1/2+x,1/2+y,1/2-z
1/2-x,1/2+y,z
1/2+x,1/2-y,1/2+z
loop_
_atom_site_type_symbol
_atom_site_label
_atom_site_fract_x
_atom_site_fract_y
_atom_site_fract_z
Si Si1 0.058456 0.069686 0.420611
Si Si2 0.309568 0.073662 0.574399
Si Si3 0.899659 0.650953 0.425990
Si Si4 0.500000 0.925990 0.574497
Si Si5 0.884699 0.190042 0.574665
Si Si6 0.227943 0.816693 0.425024
O O1 0.071124 0.066444 0.250000
O O2 0.081913 0.135439 0.494840
O O3 0.000000 0.073867 0.433432
O O4 0.074423 0.000000 0.500000
O O5 0.313753 0.067440 0.750000
O O6 0.356230 0.113252 0.510012
O O7 0.261732 0.118632 0.539688
O O8 0.306787 0.000000 0.500000
O O9 0.892224 0.644184 0.250000
O O10 0.898220 0.731573 0.460501
O O11 0.951272 0.616264 0.463217
O O12 0.500000 0.935083 0.750000
O O13 0.500000 0.000000 0.500000
O O14 0.889473 0.181959 0.750000
O O15 0.828473 0.176699 0.533612
O O16 0.229597 0.807024 0.250000
O O17 0.250000 0.750000 0.500000
#
# Coordination Sequence:
#
# PCOD9474213 Si02
#       6
#    16  16  16   8  16  16
#     4  10  22  40  61  87 119 155 195 241 293 349
#     4  11  23  38  59  86 117 152 194 236 285 342
#     4  10  21  38  60  85 116 152 194 237 288 344
#     4  10  22  38  56  82 113 152 193 236 287 338
#     4  10  21  37  61  89 119 153 193 241 292 350
#     4  10  21  38  59  85 116 152 193 236 288 343
#
# _framework density 17.90558
#
# number of rings (size 3 to 8) (size 9 to 14) (size 15 to 20)
#    0.000    1.818    1.818    1.636    1.273    6.182 
#    0.000    1.818    0.000    0.000    0.000    0.000 
#    0.000    0.000    0.000    0.000    0.000    0.000 
#
# Total GULP energy -245775.867782 kJ/mol
# GULP energy per Si atom -5585.815177 kJ/mol
# Density = 1.786483 g / cm^3
# Si number density = 17.905580 Si / 1000 Ang^3
#
#
#
# Elastic Constant Matrix: (Units=GPa)
#
#
# Indices 1 2 3 4 5 6 
#
# 1 98.6319 84.3198 54.4379 0.0000 0.0000 0.0000
# 2 84.3198 194.3903 83.6944 0.0000 0.0000 0.0000
# 3 54.4379 83.6944 56.4871 0.0000 0.0000 0.0000
# 4 0.0000 0.0000 0.0000 37.1046 0.0000 0.0000
# 5 0.0000 0.0000 0.0000 0.0000 28.2918 0.0000
# 6 0.0000 0.0000 0.0000 0.0000 0.0000 36.4610
#
#
#
# Elastic Compliance Matrix: (Units=1/GPa)
#
#
# Indices 1 2 3 4 5 6 
#
# 1 0.021749 -0.001131 -0.019284 0.000000 0.000000 0.000000
# 2 -0.001131 0.014267 -0.020048 0.000000 0.000000 0.000000
# 3 -0.019284 -0.020048 0.065991 0.000000 0.000000 0.000000
# 4 0.000000 0.000000 0.000000 0.026951 0.000000 0.000000
# 5 0.000000 0.000000 0.000000 0.000000 0.035346 0.000000
# 6 0.000000 0.000000 0.000000 0.000000 0.000000 0.027427
#
#
# Mechanical properties :
#
#
# Convention : Reuss Voigt Hill
#
# Bulk Modulus (GPa) = 47.43597 88.26815 67.85206
# Shear Modulus (GPa) = 17.87731 28.84196 23.35964
#
# Velocity S-wave (km/s) = 3.16321 4.01781 3.61584
# Velocity P-wave (km/s) = 6.31593 8.42183 7.44373
#
# Compressibility (1/GPa) = 0.02108105
#
# Stress axis : x y z
#
# Youngs Moduli (GPa) = 45.97833 70.09377 15.15349
#
# Poissons Ratio (x) = 0.07931 0.29222
# Poissons Ratio (y) = 0.05202 0.30379
# Poissons Ratio (z) = 0.88664 1.40522
#
# Static dielectric constant tensor:
#      x y z
#    x 1.605640 0.000000 0.000000 
#    y 0.000000 1.574490 0.000000 
#    z 0.000000 0.000000 1.599420 
# 
# From -- ./inp_files/14229.got.cif
#   From: 2010.05.17/outbox.cif.g08.bks.cpg/sg63_8_cif.got.tgz:14229.got - 2010.06.03 15:47:04.
