data_PCOD9474887
_publ_section_title
;
Structure prediction by ZEFSAII (Michael W. Deem and Ramdas Pophale) SiO2 
 PCOD9474887
Probable space group: C M C M
;
_chemical_formula_sum "Si O2"
_cell_formula_units_Z 68
_cell_length_a 7.704074
_cell_length_b 27.705826
_cell_length_c 15.888087
_cell_angle_alpha 90.000000
_cell_angle_beta 90.000000
_cell_angle_gamma 90.000000
_cell_volume 3391.276164
_symmetry_space_group_name_H-M "C M C M"
_symmetry_group_IT_number 63
_symmetry_cell_setting 'orthorhombic'
loop_
_space_group_symop_operation_xyz
x,y,z
-x,-y,1/2+z
x,-y,-z
-x,y,1/2-z
-x,-y,-z
x,y,1/2-z
-x,y,z
x,-y,1/2+z
1/2+x,1/2+y,z
1/2-x,1/2-y,1/2+z
1/2+x,1/2-y,-z
1/2-x,1/2+y,1/2-z
1/2-x,1/2-y,-z
1/2+x,1/2+y,1/2-z
1/2-x,1/2+y,z
1/2+x,1/2-y,1/2+z
loop_
_atom_site_type_symbol
_atom_site_label
_atom_site_fract_x
_atom_site_fract_y
_atom_site_fract_z
Si Si1 0.699595 0.112522 0.404496
Si Si2 0.708286 0.094321 0.913351
Si Si3 0.203763 0.008853 0.346398
Si Si4 0.000000 0.244777 0.750000
Si Si5 0.810146 0.823916 0.750000
Si Si6 0.289425 0.840830 0.250000
O O1 0.500000 0.129423 0.404332
O O2 0.773176 0.116414 0.498808
O O3 0.703448 0.055784 0.382382
O O4 0.794554 0.141979 0.332001
O O5 0.500000 0.091612 0.920425
O O6 0.747771 0.126870 0.832669
O O7 0.771030 0.039945 0.898326
O O8 0.261423 0.999874 0.250000
O O9 0.000000 0.020485 0.345414
O O10 0.152638 0.286877 0.750000
O O11 0.155884 0.203219 0.750000
O O12 0.000000 0.800243 0.750000
O O13 0.500000 0.829899 0.250000
#
# Coordination Sequence:
#
# PCOD9474887 Si02
#       6
#    16  16  16   4   8   8
#     4  11  22  40  65  96 135 177 219 270 324 387
#     4  10  22  39  65  96 134 176 220 266 324 389
#     4  11  22  34  56  95 136 182 224 261 316 387
#     4  12  26  48  76  98 124 170 218 284 344 388
#     4  12  25  46  72  97 128 172 218 274 337 396
#     4  10  23  46  72  97 130 170 216 276 335 396
#
# _framework density 20.051448000000001
#
# number of rings (size 3 to 8) (size 9 to 14) (size 15 to 20)
#    0.000    1.176    3.529    2.471    1.647    5.647 
#    0.000    1.176    0.000    0.000    0.000    0.000 
#    0.000    0.000    0.000    0.000    0.000    0.000 
#
# Total GULP energy -189474.075447 kJ/mol
# GULP energy per Si atom -5572.766925 kJ/mol
# Density = 2.000581 g / cm^3
# Si number density = 20.051448 Si / 1000 Ang^3
#
#
#
# Elastic Constant Matrix: (Units=GPa)
#
#
# Indices 1 2 3 4 5 6 
#
# 1 100.2711 40.9489 22.2995 0.0000 0.0000 0.0000
# 2 40.9489 104.2570 23.1446 0.0000 0.0000 0.0000
# 3 22.2995 23.1446 108.2242 0.0000 0.0000 0.0000
# 4 0.0000 0.0000 0.0000 -11.4982 0.0000 0.0000
# 5 0.0000 0.0000 0.0000 0.0000 5.7722 0.0000
# 6 0.0000 0.0000 0.0000 0.0000 0.0000 43.9803
#
#
#
# Elastic Compliance Matrix: (Units=1/GPa)
#
#
# Indices 1 2 3 4 5 6 
#
# 1 0.012122 -0.004416 -0.001553 0.000000 0.000000 0.000000
# 2 -0.004416 0.011679 -0.001588 0.000000 0.000000 0.000000
# 3 -0.001553 -0.001588 0.009900 0.000000 0.000000 0.000000
# 4 0.000000 0.000000 0.000000 -0.086970 0.000000 0.000000
# 5 0.000000 0.000000 0.000000 0.000000 0.173243 0.000000
# 6 0.000000 0.000000 0.000000 0.000000 0.000000 0.022737
#
#
# Mechanical properties :
#
#
# Convention : Reuss Voigt Hill
#
# Bulk Modulus (GPa) = 53.80406 53.94871 53.87639
# Shear Modulus (GPa) = 30.48402 22.74148 26.61275
#
# Velocity S-wave (km/s) = 3.90332 3.37138 3.64706
# Velocity P-wave (km/s) = 6.87065 6.48987 6.68297
#
# Compressibility (1/GPa) = 0.01858596
#
# Stress axis : x y z
#
# Youngs Moduli (GPa) = 82.49506 85.62585 101.01372
#
# Poissons Ratio (x) = 0.37815 0.15690
# Poissons Ratio (y) = 0.36432 0.16037
# Poissons Ratio (z) = 0.12814 0.13594
#
# Static dielectric constant tensor:
#      x y z
#    x 1.725680 0.000000 0.000000 
#    y 0.000000 1.640210 0.000000 
#    z 0.000000 0.000000 1.738990 
# 
# From -- ./inp_files/27823.got.cif
#   From: 2010.05.17/outbox.cif.g08.bks.cpg/sg63_14_cif.got.tgz:27823.got - 2010.06.03 15:47:04.
