data_PCOD9474985
_publ_section_title
;
Structure prediction by ZEFSAII (Michael W. Deem and Ramdas Pophale) SiO2 
 PCOD9474985
Probable space group: C M C M
;
_chemical_formula_sum "Si O2"
_cell_formula_units_Z 108
_cell_length_a 30.855512
_cell_length_b 4.900852
_cell_length_c 30.636982
_cell_angle_alpha 90.000000
_cell_angle_beta 90.000000
_cell_angle_gamma 90.000000
_cell_volume 4632.872265
_symmetry_space_group_name_H-M "C M C M"
_symmetry_group_IT_number 63
_symmetry_cell_setting 'orthorhombic'
loop_
_space_group_symop_operation_xyz
x,y,z
-x,-y,1/2+z
x,-y,-z
-x,y,1/2-z
-x,-y,-z
x,y,1/2-z
-x,y,z
x,-y,1/2+z
1/2+x,1/2+y,z
1/2-x,1/2-y,1/2+z
1/2+x,1/2-y,-z
1/2-x,1/2+y,1/2-z
1/2-x,1/2-y,-z
1/2+x,1/2+y,1/2-z
1/2-x,1/2+y,z
1/2+x,1/2-y,1/2+z
loop_
_atom_site_type_symbol
_atom_site_label
_atom_site_fract_x
_atom_site_fract_y
_atom_site_fract_z
Si Si1 0.669896 0.738776 0.971625
Si Si2 0.000000 0.035437 0.750000
Si Si3 0.157277 0.117964 0.675861
Si Si4 0.779204 0.673109 0.114358
Si Si5 0.781784 0.884118 0.750000
Si Si6 0.950763 0.460370 0.891341
Si Si7 0.395231 0.447973 0.592365
Si Si8 0.567992 0.856880 0.795815
O O1 0.699207 0.855450 0.932635
O O2 0.631529 0.572920 0.947625
O O3 0.692735 0.500000 0.000000
O O4 0.656848 0.000000 0.000000
O O5 0.962376 0.095460 0.712351
O O6 0.185943 0.350987 0.652455
O O7 0.187571 0.949830 0.708536
O O8 0.135859 0.955740 0.635016
O O9 0.117123 0.260919 0.699837
O O10 0.739032 0.476296 0.118725
O O11 0.740486 0.089394 0.750000
O O12 0.934858 0.152170 0.897961
O O13 0.946057 0.508672 0.839313
O O14 0.000000 0.503852 0.905160
O O15 0.915733 0.653488 0.914380
O O16 0.559886 0.016002 0.750000
#
# Coordination Sequence:
#
# PCOD9474985 Si02
#       8
#    16   4  16  16   8  16  16  16
#     4  11  23  42  68  96 127 163 209 257 322 394
#     4   8  14  32  56  90 124 158 208 286 306 354
#     4  10  22  41  59  91 124 175 213 259 314 378
#     4  11  24  41  64  94 131 164 208 266 318 375
#     4  12  25  40  62  87 120 167 220 264 301 364
#     4  11  20  39  62  93 126 168 214 262 319 382
#     4  10  24  39  65  91 126 167 208 261 321 380
#     4   9  17  34  61  87 128 163 218 267 317 365
#
# _framework density 23.311672999999999
#
# number of rings (size 3 to 8) (size 9 to 14) (size 15 to 20)
#    0.444    1.185    1.481    3.111    0.000   10.074 
#    1.333    0.000    0.000   11.556    0.000    0.000 
#    0.000    0.000    0.000    0.000    0.000    0.000 
#
# Total GULP energy -301468.882473 kJ/mol
# GULP energy per Si atom -5582.757083 kJ/mol
# Density = 2.325861 g / cm^3
# Si number density = 23.311673 Si / 1000 Ang^3
#
#
#
# Elastic Constant Matrix: (Units=GPa)
#
#
# Indices 1 2 3 4 5 6 
#
# 1 69.3746 -15.5477 8.8026 0.0000 0.0000 0.0000
# 2 -15.5477 49.5801 12.3409 0.0000 0.0000 0.0000
# 3 8.8026 12.3409 68.5615 0.0000 0.0000 0.0000
# 4 0.0000 0.0000 0.0000 17.9695 0.0000 0.0000
# 5 0.0000 0.0000 0.0000 0.0000 22.9319 0.0000
# 6 0.0000 0.0000 0.0000 0.0000 0.0000 22.9498
#
#
#
# Elastic Compliance Matrix: (Units=1/GPa)
#
#
# Indices 1 2 3 4 5 6 
#
# 1 0.016117 0.005830 -0.003119 0.000000 0.000000 0.000000
# 2 0.005830 0.023225 -0.004929 0.000000 0.000000 0.000000
# 3 -0.003119 -0.004929 0.015873 0.000000 0.000000 0.000000
# 4 0.000000 0.000000 0.000000 0.055650 0.000000 0.000000
# 5 0.000000 0.000000 0.000000 0.000000 0.043607 0.000000
# 6 0.000000 0.000000 0.000000 0.000000 0.000000 0.043573
#
#
# Mechanical properties :
#
#
# Convention : Reuss Voigt Hill
#
# Bulk Modulus (GPa) = 19.69284 22.07864 20.88574
# Shear Modulus (GPa) = 22.78878 24.89826 23.84352
#
# Velocity S-wave (km/s) = 3.13000 3.27166 3.20162
# Velocity P-wave (km/s) = 4.63988 4.87477 4.75877
#
# Compressibility (1/GPa) = 0.05077988
#
# Stress axis : x y z
#
# Youngs Moduli (GPa) = 62.04680 43.05791 62.99987
#
# Poissons Ratio (x) = -0.25104 0.19648
# Poissons Ratio (y) = -0.36175 0.31052
# Poissons Ratio (z) = 0.19350 0.21223
#
# Static dielectric constant tensor:
#      x y z
#    x 1.834180 0.000000 0.000000 
#    y 0.000000 1.887380 0.000000 
#    z 0.000000 0.000000 1.910200 
# 
# From -- ./inp_files/74546.got.cif
#   From: 2010.05.17/outbox.cif.g08.bks.cpg/sg63_38_cif.got.tgz:74546.got - 2010.06.03 15:47:04.
