data_PCOD9474852
_publ_section_title
;
Structure prediction by ZEFSAII (Michael W. Deem and Ramdas Pophale) SiO2 
 PCOD9474852
Probable space group: C M C M
;
_chemical_formula_sum "Si O2"
_cell_formula_units_Z 88
_cell_length_a 23.368395
_cell_length_b 9.469397
_cell_length_c 17.614542
_cell_angle_alpha 90.000000
_cell_angle_beta 90.000000
_cell_angle_gamma 90.000000
_cell_volume 3897.827048
_symmetry_space_group_name_H-M "C M C M"
_symmetry_group_IT_number 63
_symmetry_cell_setting 'orthorhombic'
loop_
_space_group_symop_operation_xyz
x,y,z
-x,-y,1/2+z
x,-y,-z
-x,y,1/2-z
-x,-y,-z
x,y,1/2-z
-x,y,z
x,-y,1/2+z
1/2+x,1/2+y,z
1/2-x,1/2-y,1/2+z
1/2+x,1/2-y,-z
1/2-x,1/2+y,1/2-z
1/2-x,1/2-y,-z
1/2+x,1/2+y,1/2-z
1/2-x,1/2+y,z
1/2+x,1/2-y,1/2+z
loop_
_atom_site_type_symbol
_atom_site_label
_atom_site_fract_x
_atom_site_fract_y
_atom_site_fract_z
Si Si1 0.187385 0.937238 0.097898
Si Si2 0.500000 0.711910 0.339972
Si Si3 0.742908 0.551491 0.250000
Si Si4 0.714251 0.000000 0.000000
Si Si5 0.000000 0.525589 0.090588
Si Si6 0.882774 0.670066 0.432701
Si Si7 0.383495 0.708973 0.402619
Si Si8 0.326093 0.173043 0.750000
O O1 0.212568 0.982770 0.177937
O O2 0.140791 0.815051 0.101611
O O3 0.157899 0.083425 0.071779
O O4 0.242527 0.899491 0.046384
O O5 0.500000 0.700662 0.250000
O O6 0.443517 0.645984 0.375681
O O7 0.500000 0.877652 0.364559
O O8 0.728184 0.717565 0.250000
O O9 0.806689 0.489291 0.250000
O O10 0.673144 0.070958 0.061884
O O11 0.059775 0.608785 0.104333
O O12 0.000000 0.500000 0.000000
O O13 0.894108 0.697136 0.523010
O O14 0.359561 0.788258 0.327685
#
# Coordination Sequence:
#
# PCOD9474852 Si02
#       8
#    16   8   8   8   8  16  16   8
#     4  11  25  40  62  99 131 170 218 262 331 393
#     4  12  24  45  69  93 123 168 224 269 330 394
#     4  10  24  40  58  89 139 169 219 263 334 405
#     4  12  22  37  68  97 134 172 210 264 320 390
#     4  12  24  45  65  96 127 165 218 271 323 382
#     4  12  23  42  68  94 134 170 214 275 322 388
#     4  11  21  41  65  94 126 167 218 267 324 393
#     4  10  22  39  60  93 133 174 215 273 324 403
#
# _framework density 22.576681000000001
#
# number of rings (size 3 to 8) (size 9 to 14) (size 15 to 20)
#    0.000    0.727    5.455    1.636    5.091    0.727 
#    1.636    1.818    0.000    0.000    0.000    0.000 
#    0.000    0.000    0.000    0.000    0.000    0.000 
#
# Total GULP energy -245940.131718 kJ/mol
# GULP energy per Si atom -5589.548448 kJ/mol
# Density = 2.252530 g / cm^3
# Si number density = 22.576681 Si / 1000 Ang^3
#
#
#
# Elastic Constant Matrix: (Units=GPa)
#
#
# Indices 1 2 3 4 5 6 
#
# 1 131.7894 24.6916 12.6177 0.0000 0.0000 0.0000
# 2 24.6916 42.3052 0.5311 0.0000 0.0000 0.0000
# 3 12.6177 0.5311 49.7083 0.0000 0.0000 0.0000
# 4 0.0000 0.0000 0.0000 20.2812 0.0000 0.0000
# 5 0.0000 0.0000 0.0000 0.0000 9.7744 0.0000
# 6 0.0000 0.0000 0.0000 0.0000 0.0000 47.1331
#
#
#
# Elastic Compliance Matrix: (Units=1/GPa)
#
#
# Indices 1 2 3 4 5 6 
#
# 1 0.008747 -0.005078 -0.002166 0.000000 0.000000 0.000000
# 2 -0.005078 0.026589 0.001005 0.000000 0.000000 0.000000
# 3 -0.002166 0.001005 0.020656 0.000000 0.000000 0.000000
# 4 0.000000 0.000000 0.000000 0.049307 0.000000 0.000000
# 5 0.000000 0.000000 0.000000 0.000000 0.102309 0.000000
# 6 0.000000 0.000000 0.000000 0.000000 0.000000 0.021217
#
#
# Mechanical properties :
#
#
# Convention : Reuss Voigt Hill
#
# Bulk Modulus (GPa) = 22.98109 33.27596 28.12852
# Shear Modulus (GPa) = 19.54606 27.83523 23.69065
#
# Velocity S-wave (km/s) = 2.94558 3.51510 3.24287
# Velocity P-wave (km/s) = 4.66581 5.58978 5.14857
#
# Compressibility (1/GPa) = 0.04351404
#
# Stress axis : x y z
#
# Youngs Moduli (GPa) = 114.33021 37.60981 48.41112
#
# Poissons Ratio (x) = 0.19098 0.10486
# Poissons Ratio (y) = 0.58055 -0.04865
# Poissons Ratio (z) = 0.24763 -0.03779
#
# Static dielectric constant tensor:
#      x y z
#    x 1.866590 0.000000 0.000000 
#    y 0.000000 1.878660 0.000000 
#    z 0.000000 0.000000 1.836450 
# 
# From -- ./inp_files/57439.got.cif
#   From: 2010.05.17/outbox.cif.g08.bks.cpg/sg63_29_cif.got.tgz:57439.got - 2010.06.03 15:47:04.
