data_PCOD9474807
_publ_section_title
;
Structure prediction by ZEFSAII (Michael W. Deem and Ramdas Pophale) SiO2 
 PCOD9474807
Probable space group: C M C M
;
_chemical_formula_sum "Si O2"
_cell_formula_units_Z 88
_cell_length_a 14.205084
_cell_length_b 13.147492
_cell_length_c 24.500467
_cell_angle_alpha 90.000000
_cell_angle_beta 90.000000
_cell_angle_gamma 90.000000
_cell_volume 4575.737310
_symmetry_space_group_name_H-M "C M C M"
_symmetry_group_IT_number 63
_symmetry_cell_setting 'orthorhombic'
loop_
_space_group_symop_operation_xyz
x,y,z
-x,-y,1/2+z
x,-y,-z
-x,y,1/2-z
-x,-y,-z
x,y,1/2-z
-x,y,z
x,-y,1/2+z
1/2+x,1/2+y,z
1/2-x,1/2-y,1/2+z
1/2+x,1/2-y,-z
1/2-x,1/2+y,1/2-z
1/2-x,1/2-y,-z
1/2+x,1/2+y,1/2-z
1/2-x,1/2+y,z
1/2+x,1/2-y,1/2+z
loop_
_atom_site_type_symbol
_atom_site_label
_atom_site_fract_x
_atom_site_fract_y
_atom_site_fract_z
Si Si1 0.181127 0.086990 0.399606
Si Si2 0.886851 0.321409 0.106346
Si Si3 0.500000 0.772466 0.575091
Si Si4 0.183625 0.347464 0.510779
Si Si5 0.500000 0.126722 0.310297
Si Si6 0.685619 0.012962 0.686957
Si Si7 0.500000 0.468203 0.437076
O O1 0.146800 0.204007 0.394300
O O2 0.250956 0.081838 0.451833
O O3 0.236152 0.048217 0.346703
O O4 0.092130 0.016070 0.410159
O O5 0.838694 0.383396 0.155105
O O6 0.000000 0.324784 0.110418
O O7 0.855332 0.373636 0.049185
O O8 0.592806 0.818104 0.546704
O O9 0.500000 0.798073 0.638891
O O10 0.500000 0.652497 0.566162
O O11 0.250000 0.250000 0.500000
O O12 0.500000 0.175327 0.250000
O O13 0.591233 0.055112 0.314438
O O14 0.711153 0.030385 0.750000
O O15 0.500000 0.500000 0.500000
#
# Coordination Sequence:
#
# PCOD9474807 Si02
#       7
#    16  16   8  16   8  16   8
#     4  11  25  43  63  98 132 173 216 267 324 394
#     4  11  22  42  66  96 133 171 217 275 328 389
#     4  12  22  43  66 101 132 178 218 269 335 394
#     4  10  22  38  62  97 138 166 208 263 328 396
#     4  10  22  44  67  98 135 169 219 279 327 384
#     4  11  25  43  67  95 127 173 224 271 332 387
#     4  12  26  41  67  97 139 175 206 261 339 401
#
# _framework density 19.231873
#
# number of rings (size 3 to 8) (size 9 to 14) (size 15 to 20)
#    0.000    1.091    4.545    2.182    7.636    0.727 
#    0.000    5.000    0.000    0.000    0.000    0.000 
#    0.000    0.000    0.000    0.000    0.000    0.000 
#
# Total GULP energy -245986.499300 kJ/mol
# GULP energy per Si atom -5590.602257 kJ/mol
# Density = 1.918810 g / cm^3
# Si number density = 19.231873 Si / 1000 Ang^3
#
#
#
# Elastic Constant Matrix: (Units=GPa)
#
#
# Indices 1 2 3 4 5 6 
#
# 1 133.0590 17.9124 47.6530 0.0000 0.0000 0.0000
# 2 17.9124 52.4288 26.8215 0.0000 0.0000 0.0000
# 3 47.6530 26.8215 158.0039 0.0000 0.0000 0.0000
# 4 0.0000 0.0000 0.0000 30.9824 0.0000 0.0000
# 5 0.0000 0.0000 0.0000 0.0000 25.4179 0.0000
# 6 0.0000 0.0000 0.0000 0.0000 0.0000 36.9586
#
#
#
# Elastic Compliance Matrix: (Units=1/GPa)
#
#
# Indices 1 2 3 4 5 6 
#
# 1 0.008571 -0.001759 -0.002286 0.000000 0.000000 0.000000
# 2 -0.001759 0.021248 -0.003077 0.000000 0.000000 0.000000
# 3 -0.002286 -0.003077 0.007541 0.000000 0.000000 0.000000
# 4 0.000000 0.000000 0.000000 0.032276 0.000000 0.000000
# 5 0.000000 0.000000 0.000000 0.000000 0.039342 0.000000
# 6 0.000000 0.000000 0.000000 0.000000 0.000000 0.027057
#
#
# Mechanical properties :
#
#
# Convention : Reuss Voigt Hill
#
# Bulk Modulus (GPa) = 43.25850 58.69618 50.97734
# Shear Modulus (GPa) = 31.64858 35.41210 33.53034
#
# Velocity S-wave (km/s) = 4.06104 4.29572 4.18003
# Velocity P-wave (km/s) = 6.67318 7.42905 7.06124
#
# Compressibility (1/GPa) = 0.02311684
#
# Stress axis : x y z
#
# Youngs Moduli (GPa) = 116.67158 47.06274 132.61218
#
# Poissons Ratio (x) = 0.08277 0.30321
# Poissons Ratio (y) = 0.20518 0.40799
# Poissons Ratio (z) = 0.26676 0.14479
#
# Static dielectric constant tensor:
#      x y z
#    x 1.643870 0.000000 0.000000 
#    y 0.000000 1.681150 0.000000 
#    z 0.000000 0.000000 1.662300 
# 
# From -- ./inp_files/61306.got.cif
#   From: 2010.05.17/outbox.cif.g08.bks.cpg/sg63_31_cif.got.tgz:61306.got - 2010.06.03 15:47:04.
