data_PCOD9474521
_publ_section_title
;
Structure prediction by ZEFSAII (Michael W. Deem and Ramdas Pophale) SiO2 
 PCOD9474521
Probable space group: C M C M
;
_chemical_formula_sum "Si O2"
_cell_formula_units_Z 96
_cell_length_a 20.633104
_cell_length_b 28.187569
_cell_length_c 8.642678
_cell_angle_alpha 90.000000
_cell_angle_beta 90.000000
_cell_angle_gamma 90.000000
_cell_volume 5026.555966
_symmetry_space_group_name_H-M "C M C M"
_symmetry_group_IT_number 63
_symmetry_cell_setting 'orthorhombic'
loop_
_space_group_symop_operation_xyz
x,y,z
-x,-y,1/2+z
x,-y,-z
-x,y,1/2-z
-x,-y,-z
x,y,1/2-z
-x,y,z
x,-y,1/2+z
1/2+x,1/2+y,z
1/2-x,1/2-y,1/2+z
1/2+x,1/2-y,-z
1/2-x,1/2+y,1/2-z
1/2-x,1/2-y,-z
1/2+x,1/2+y,1/2-z
1/2-x,1/2+y,z
1/2+x,1/2-y,1/2+z
loop_
_atom_site_type_symbol
_atom_site_label
_atom_site_fract_x
_atom_site_fract_y
_atom_site_fract_z
Si Si1 0.702285 0.551372 0.566107
Si Si2 0.812847 0.618772 0.434278
Si Si3 0.427054 0.705147 0.061906
Si Si4 0.075630 0.447363 0.065143
Si Si5 0.186240 0.724734 0.936343
Si Si6 0.924924 0.904443 0.563336
O O1 0.720908 0.500000 0.500000
O O2 0.707804 0.550950 0.750000
O O3 0.750012 0.591040 0.497445
O O4 0.628964 0.563391 0.515437
O O5 0.809055 0.620922 0.250000
O O6 0.875544 0.589177 0.487473
O O7 0.816647 0.671413 0.502472
O O8 0.427358 0.705449 0.250000
O O9 0.500000 0.716436 0.009974
O O10 0.374724 0.743354 0.010994
O O11 0.412346 0.650657 0.018556
O O12 0.085331 0.447284 0.250000
O O13 0.000000 0.436012 0.034052
O O14 0.087989 0.500000 0.000000
O O15 0.187329 0.724270 0.750000
O O16 0.250000 0.750000 0.000000
O O17 0.918721 0.908025 0.750000
O O18 0.000000 0.915388 0.524452
#
# Coordination Sequence:
#
# PCOD9474521 Si02
#       6
#    16  16  16  16  16  16
#     4  12  25  41  61  85 115 151 195 244 296 352
#     4  12  25  41  60  84 118 156 197 245 296 349
#     4   8  16  33  58  85 113 148 188 230 278 333
#     4  10  21  39  63  90 120 154 193 238 291 352
#     4  11  22  37  59  87 118 153 195 242 294 348
#     4   9  18  36  62  90 120 154 192 235 287 345
#
# _framework density 19.098565000000001
#
# number of rings (size 3 to 8) (size 9 to 14) (size 15 to 20)
#    0.000    1.667    0.000    6.500    0.000    3.667 
#    0.000    2.500    0.000    3.500    0.000    0.000 
#    0.000    0.000    0.000    0.000    0.000    0.000 
#
# Total GULP energy -268336.338792 kJ/mol
# GULP energy per Si atom -5590.340391 kJ/mol
# Density = 1.905510 g / cm^3
# Si number density = 19.098565 Si / 1000 Ang^3
#
#
#
# Elastic Constant Matrix: (Units=GPa)
#
#
# Indices 1 2 3 4 5 6 
#
# 1 70.1372 27.8786 30.1054 0.0000 0.0000 0.0000
# 2 27.8786 49.3480 17.4001 0.0000 0.0000 0.0000
# 3 30.1054 17.4001 87.7501 0.0000 0.0000 0.0000
# 4 0.0000 0.0000 0.0000 31.0248 0.0000 0.0000
# 5 0.0000 0.0000 0.0000 0.0000 30.7681 0.0000
# 6 0.0000 0.0000 0.0000 0.0000 0.0000 116.5161
#
#
#
# Elastic Compliance Matrix: (Units=1/GPa)
#
#
# Indices 1 2 3 4 5 6 
#
# 1 0.020263 -0.009672 -0.005034 0.000000 0.000000 0.000000
# 2 -0.009672 0.026405 -0.001917 0.000000 0.000000 0.000000
# 3 -0.005034 -0.001917 0.013503 0.000000 0.000000 0.000000
# 4 0.000000 0.000000 0.000000 0.032232 0.000000 0.000000
# 5 0.000000 0.000000 0.000000 0.000000 0.032501 0.000000
# 6 0.000000 0.000000 0.000000 0.000000 0.000000 0.008583
#
#
# Mechanical properties :
#
#
# Convention : Reuss Voigt Hill
#
# Bulk Modulus (GPa) = 37.14229 39.77817 38.46023
# Shear Modulus (GPa) = 28.45613 44.45189 36.45401
#
# Velocity S-wave (km/s) = 3.86419 4.82965 4.37364
# Velocity P-wave (km/s) = 6.27688 7.20928 6.75918
#
# Compressibility (1/GPa) = 0.02692349
#
# Stress axis : x y z
#
# Youngs Moduli (GPa) = 49.35062 37.87214 74.05626
#
# Poissons Ratio (x) = 0.36632 0.37279
# Poissons Ratio (y) = 0.47734 0.14199
# Poissons Ratio (z) = 0.24843 0.07262
#
# Static dielectric constant tensor:
#      x y z
#    x 1.617080 0.000000 0.000000 
#    y 0.000000 1.631820 0.000000 
#    z 0.000000 0.000000 1.640510 
# 
# From -- ./inp_files/8543.got.cif
#   From: 2010.05.17/outbox.cif.g08.bks.cpg/sg63_5_cif.got.tgz:8543.got - 2010.06.03 15:47:04.
