data_PCOD9474364
_publ_section_title
;
Structure prediction by ZEFSAII (Michael W. Deem and Ramdas Pophale) SiO2 
 PCOD9474364
Probable space group: C M C M
;
_chemical_formula_sum "Si O2"
_cell_formula_units_Z 112
_cell_length_a 25.826236
_cell_length_b 13.878820
_cell_length_c 13.894809
_cell_angle_alpha 90.000000
_cell_angle_beta 90.000000
_cell_angle_gamma 90.000000
_cell_volume 4980.423112
_symmetry_space_group_name_H-M "C M C M"
_symmetry_group_IT_number 63
_symmetry_cell_setting 'orthorhombic'
loop_
_space_group_symop_operation_xyz
x,y,z
-x,-y,1/2+z
x,-y,-z
-x,y,1/2-z
-x,-y,-z
x,y,1/2-z
-x,y,z
x,-y,1/2+z
1/2+x,1/2+y,z
1/2-x,1/2-y,1/2+z
1/2+x,1/2-y,-z
1/2-x,1/2+y,1/2-z
1/2-x,1/2-y,-z
1/2+x,1/2+y,1/2-z
1/2-x,1/2+y,z
1/2+x,1/2-y,1/2+z
loop_
_atom_site_type_symbol
_atom_site_label
_atom_site_fract_x
_atom_site_fract_y
_atom_site_fract_z
Si Si1 0.365886 0.465076 0.866411
Si Si2 0.202064 0.306811 0.038485
Si Si3 0.150779 0.368209 0.857907
Si Si4 0.893151 0.245645 0.360804
Si Si5 0.558597 0.845278 0.538220
Si Si6 0.248293 0.510595 0.860233
Si Si7 0.057758 0.866527 0.366069
O O1 0.366642 0.462967 0.750000
O O2 0.394748 0.365924 0.893889
O O3 0.304739 0.471466 0.891415
O O4 0.397446 0.559548 0.897683
O O5 0.335869 0.200737 0.053418
O O6 0.167896 0.269928 0.126880
O O7 0.225064 0.408829 0.070317
O O8 0.250000 0.250000 0.000000
O O9 0.142800 0.330842 0.750000
O O10 0.098087 0.413079 0.901417
O O11 0.202264 0.432809 0.854999
O O12 0.908948 0.253713 0.250000
O O13 0.923784 0.318327 0.430078
O O14 0.500000 0.880379 0.540226
O O15 0.560724 0.741574 0.593245
O O16 0.255050 0.548318 0.750000
O O17 0.060795 0.860896 0.250000
O O18 0.000000 0.904144 0.390866
#
# Coordination Sequence:
#
# PCOD9474364 Si02
#       7
#    16  16  16  16  16  16  16
#     4   9  19  35  56  85 123 166 207 250 304 378
#     4  11  23  37  58  89 120 162 207 256 305 363
#     4  10  22  39  60  87 121 159 200 256 318 370
#     4  10  22  39  56  82 121 160 204 256 315 379
#     4  10  22  39  61  91 119 156 211 264 318 377
#     4  10  21  38  61  89 125 166 207 253 311 373
#     4   9  18  34  56  84 119 157 202 259 315 368
#
# _framework density 22.488049
#
# number of rings (size 3 to 8) (size 9 to 14) (size 15 to 20)
#    0.000    2.143    0.000    2.143    4.000    4.571 
#    0.000    2.857    0.000    6.857    0.000    6.000 
#    0.000    0.000    0.000    0.000    0.000    0.000 
#
# Total GULP energy -312361.306441 kJ/mol
# GULP energy per Si atom -5577.880472 kJ/mol
# Density = 2.243687 g / cm^3
# Si number density = 22.488049 Si / 1000 Ang^3
#
#
#
# Elastic Constant Matrix: (Units=GPa)
#
#
# Indices 1 2 3 4 5 6 
#
# 1 134.9859 2.4440 15.9028 0.0000 0.0000 0.0000
# 2 2.4440 24.6282 -3.3328 0.0000 0.0000 0.0000
# 3 15.9028 -3.3328 123.4643 0.0000 0.0000 0.0000
# 4 0.0000 0.0000 0.0000 25.5662 0.0000 0.0000
# 5 0.0000 0.0000 0.0000 0.0000 5.1360 0.0000
# 6 0.0000 0.0000 0.0000 0.0000 0.0000 28.3280
#
#
#
# Elastic Compliance Matrix: (Units=1/GPa)
#
#
# Indices 1 2 3 4 5 6 
#
# 1 0.007541 -0.000883 -0.000995 0.000000 0.000000 0.000000
# 2 -0.000883 0.040856 0.001217 0.000000 0.000000 0.000000
# 3 -0.000995 0.001217 0.008261 0.000000 0.000000 0.000000
# 4 0.000000 0.000000 0.000000 0.039114 0.000000 0.000000
# 5 0.000000 0.000000 0.000000 0.000000 0.194703 0.000000
# 6 0.000000 0.000000 0.000000 0.000000 0.000000 0.035301
#
#
# Mechanical properties :
#
#
# Convention : Reuss Voigt Hill
#
# Bulk Modulus (GPa) = 18.07180 34.78962 26.43071
# Shear Modulus (GPa) = 14.46992 29.67700 22.07346
#
# Velocity S-wave (km/s) = 2.53938 3.63668 3.13639
# Velocity P-wave (km/s) = 4.08063 5.75654 4.98946
#
# Compressibility (1/GPa) = 0.05533482
#
# Stress axis : x y z
#
# Youngs Moduli (GPa) = 132.60109 24.47608 121.05751
#
# Poissons Ratio (x) = 0.02161 0.12048
# Poissons Ratio (y) = 0.11710 -0.14728
# Poissons Ratio (z) = 0.13197 -0.02978
#
# Static dielectric constant tensor:
#      x y z
#    x 2.020470 0.000000 0.000000 
#    y 0.000000 1.849930 0.000000 
#    z 0.000000 0.000000 1.872800 
# 
# From -- ./inp_files/36878.got.cif
#   From: 2010.05.17/outbox.cif.g08.bks.cpg/sg63_19_cif.got.tgz:36878.got - 2010.06.03 15:47:04.
