data_PCOD9474473
_publ_section_title
;
Structure prediction by ZEFSAII (Michael W. Deem and Ramdas Pophale) SiO2 
 PCOD9474473
Probable space group: C M C M
;
_chemical_formula_sum "Si O2"
_cell_formula_units_Z 116
_cell_length_a 7.657820
_cell_length_b 24.292375
_cell_length_c 30.380980
_cell_angle_alpha 90.000000
_cell_angle_beta 90.000000
_cell_angle_gamma 90.000000
_cell_volume 5651.671481
_symmetry_space_group_name_H-M "C M C M"
_symmetry_group_IT_number 63
_symmetry_cell_setting 'orthorhombic'
loop_
_space_group_symop_operation_xyz
x,y,z
-x,-y,1/2+z
x,-y,-z
-x,y,1/2-z
-x,-y,-z
x,y,1/2-z
-x,y,z
x,-y,1/2+z
1/2+x,1/2+y,z
1/2-x,1/2-y,1/2+z
1/2+x,1/2-y,-z
1/2-x,1/2+y,1/2-z
1/2-x,1/2-y,-z
1/2+x,1/2+y,1/2-z
1/2-x,1/2+y,z
1/2+x,1/2-y,1/2+z
loop_
_atom_site_type_symbol
_atom_site_label
_atom_site_fract_x
_atom_site_fract_y
_atom_site_fract_z
Si Si1 0.697646 0.049276 0.368689
Si Si2 0.298850 0.482009 0.452072
Si Si3 0.709166 0.276913 0.415223
Si Si4 0.000000 0.308416 0.250000
Si Si5 0.297346 0.131521 0.980539
Si Si6 0.286908 0.337702 0.323680
Si Si7 0.214831 0.651456 0.079515
Si Si8 0.294099 0.540290 0.700699
O O1 0.500000 0.061694 0.356364
O O2 0.777910 0.106875 0.384933
O O3 0.703182 0.010369 0.411795
O O4 0.769048 0.013299 0.328871
O O5 0.230142 0.500000 0.500000
O O6 0.500000 0.500122 0.449020
O O7 0.292620 0.416047 0.452131
O O8 0.780512 0.310018 0.456926
O O9 0.747008 0.310678 0.370976
O O10 0.769891 0.213963 0.412208
O O11 0.000000 0.224557 0.579586
O O12 0.843135 0.311230 0.211855
O O13 0.500000 0.116215 0.982500
O O14 0.229392 0.133849 0.030407
O O15 0.500000 0.332187 0.314828
O O16 0.238691 0.402820 0.322372
O O17 0.000000 0.650080 0.079496
O O18 0.216598 0.536973 0.750000
O O19 0.500000 0.546366 0.705541
#
# Coordination Sequence:
#
# PCOD9474473 Si02
#       8
#    16  16  16   4  16  16  16  16
#     4  11  22  36  60  87 117 154 199 243 295 355
#     4  11  22  36  55  81 116 155 197 235 290 357
#     4  10  21  39  61  83 119 158 201 245 296 358
#     4  12  22  36  72  90 132 146 202 246 316 372
#     4  11  21  35  58  86 119 153 201 249 295 346
#     4  10  22  39  63  94 124 159 193 248 312 367
#     4   9  20  38  57  83 118 161 199 243 294 350
#     4  10  21  39  61  87 120 150 190 242 302 363
#
# _framework density 20.524901
#
# number of rings (size 3 to 8) (size 9 to 14) (size 15 to 20)
#    0.000    1.655    2.069    2.690    1.931    1.931 
#    0.000    2.069    1.517    0.000    0.000    0.000 
#    0.000    0.000    0.000    0.000    0.000    0.000 
#
# Total GULP energy -323290.839655 kJ/mol
# GULP energy per Si atom -5573.979994 kJ/mol
# Density = 2.047819 g / cm^3
# Si number density = 20.524901 Si / 1000 Ang^3
#
#
#
# Elastic Constant Matrix: (Units=GPa)
#
#
# Indices 1 2 3 4 5 6 
#
# 1 51.8432 -4.0986 6.8732 0.0000 0.0000 0.0000
# 2 -4.0986 121.9618 33.1342 0.0000 0.0000 0.0000
# 3 6.8732 33.1342 59.1216 0.0000 0.0000 0.0000
# 4 0.0000 0.0000 0.0000 2.2080 0.0000 0.0000
# 5 0.0000 0.0000 0.0000 0.0000 -14.0768 0.0000
# 6 0.0000 0.0000 0.0000 0.0000 0.0000 -14.3154
#
#
#
# Elastic Compliance Matrix: (Units=1/GPa)
#
#
# Indices 1 2 3 4 5 6 
#
# 1 0.019828 0.001525 -0.003160 0.000000 0.000000 0.000000
# 2 0.001525 0.009789 -0.005664 0.000000 0.000000 0.000000
# 3 -0.003160 -0.005664 0.020456 0.000000 0.000000 0.000000
# 4 0.000000 0.000000 0.000000 0.452889 0.000000 0.000000
# 5 0.000000 0.000000 0.000000 0.000000 -0.071039 0.000000
# 6 0.000000 0.000000 0.000000 0.000000 0.000000 -0.069855
#
#
# Mechanical properties :
#
#
# Convention : Reuss Voigt Hill
#
# Bulk Modulus (GPa) = 28.18781 33.86047 31.02414
# Shear Modulus (GPa) = 12.87032 7.89771 10.38401
#
# Velocity S-wave (km/s) = 2.50683 1.96373 2.25171
# Velocity P-wave (km/s) = 4.70555 4.65561 4.68065
#
# Compressibility (1/GPa) = 0.03547632
#
# Stress axis : x y z
#
# Youngs Moduli (GPa) = 50.43281 102.15364 48.88617
#
# Poissons Ratio (x) = -0.15576 0.15447
# Poissons Ratio (y) = -0.07690 0.27687
# Poissons Ratio (z) = 0.15935 0.57855
#
# Static dielectric constant tensor:
#      x y z
#    x 1.766520 0.000000 0.000000 
#    y 0.000000 1.749350 0.000000 
#    z 0.000000 0.000000 1.599280 
# 
# From -- ./inp_files/67483.got.cif
#   From: 2010.05.17/outbox.cif.g08.bks.cpg/sg63_34_cif.got.tgz:67483.got - 2010.06.03 15:47:04.
