data_PCOD9474375
_publ_section_title
;
Structure prediction by ZEFSAII (Michael W. Deem and Ramdas Pophale) SiO2 
 PCOD9474375
Probable space group: C M C M
;
_chemical_formula_sum "Si O2"
_cell_formula_units_Z 88
_cell_length_a 19.047992
_cell_length_b 8.755309
_cell_length_c 25.023793
_cell_angle_alpha 90.000000
_cell_angle_beta 90.000000
_cell_angle_gamma 90.000000
_cell_volume 4173.244378
_symmetry_space_group_name_H-M "C M C M"
_symmetry_group_IT_number 63
_symmetry_cell_setting 'orthorhombic'
loop_
_space_group_symop_operation_xyz
x,y,z
-x,-y,1/2+z
x,-y,-z
-x,y,1/2-z
-x,-y,-z
x,y,1/2-z
-x,y,z
x,-y,1/2+z
1/2+x,1/2+y,z
1/2-x,1/2-y,1/2+z
1/2+x,1/2-y,-z
1/2-x,1/2+y,1/2-z
1/2-x,1/2-y,-z
1/2+x,1/2+y,1/2-z
1/2-x,1/2+y,z
1/2+x,1/2-y,1/2+z
loop_
_atom_site_type_symbol
_atom_site_label
_atom_site_fract_x
_atom_site_fract_y
_atom_site_fract_z
Si Si1 0.921497 0.258072 0.932984
Si Si2 0.830435 0.500000 0.500000
Si Si3 0.669925 0.458993 0.250000
Si Si4 0.699267 0.811300 0.099655
Si Si5 0.173856 0.407445 0.750000
Si Si6 0.168851 0.976494 0.130418
Si Si7 0.921206 0.518047 0.653802
O O1 0.877350 0.366518 0.972697
O O2 0.882962 0.108389 0.910646
O O3 0.927268 0.365953 0.881247
O O4 0.000000 0.227343 0.953832
O O5 0.788822 0.597968 0.544270
O O6 0.746616 0.535811 0.250000
O O7 0.671182 0.275422 0.250000
O O8 0.639468 0.503712 0.190878
O O9 0.763047 0.867294 0.136786
O O10 0.697160 0.630520 0.103321
O O11 0.621948 0.861574 0.118714
O O12 0.130744 0.474736 0.799200
O O13 0.000000 0.566353 0.669166
#
# Coordination Sequence:
#
# PCOD9474375 Si02
#       7
#    16   8   8  16   8  16  16
#     4  10  22  42  66  94 128 170 217 268 329 389
#     4  10  23  44  68  96 127 170 220 278 333 398
#     4  12  24  38  65  95 131 168 219 260 320 384
#     4  11  24  41  65  94 132 170 221 273 332 386
#     4  12  21  38  63  93 122 174 213 266 321 386
#     4  12  24  42  65  96 132 173 215 278 323 395
#     4  10  21  38  61  91 127 167 215 264 319 387
#
# _framework density 21.08671
#
# number of rings (size 3 to 8) (size 9 to 14) (size 15 to 20)
#    0.000    1.091    3.636    3.818    0.000    5.091 
#    0.000    1.364    0.000    0.000    0.000    0.000 
#    0.000    0.000    0.000    0.000    0.000    0.000 
#
# Total GULP energy -245494.044787 kJ/mol
# GULP energy per Si atom -5579.410109 kJ/mol
# Density = 2.103872 g / cm^3
# Si number density = 21.086710 Si / 1000 Ang^3
#
#
#
# Elastic Constant Matrix: (Units=GPa)
#
#
# Indices 1 2 3 4 5 6 
#
# 1 35.2619 17.2343 -11.2260 0.0000 0.0000 0.0000
# 2 17.2343 110.5449 22.0925 0.0000 0.0000 0.0000
# 3 -11.2260 22.0925 90.9490 0.0000 0.0000 0.0000
# 4 0.0000 0.0000 0.0000 5.3233 0.0000 0.0000
# 5 0.0000 0.0000 0.0000 0.0000 8.9645 0.0000
# 6 0.0000 0.0000 0.0000 0.0000 0.0000 3.9488
#
#
#
# Elastic Compliance Matrix: (Units=1/GPa)
#
#
# Indices 1 2 3 4 5 6 
#
# 1 0.033236 -0.006308 0.005635 0.000000 0.000000 0.000000
# 2 -0.006308 0.010705 -0.003379 0.000000 0.000000 0.000000
# 3 0.005635 -0.003379 0.012511 0.000000 0.000000 0.000000
# 4 0.000000 0.000000 0.000000 0.187852 0.000000 0.000000
# 5 0.000000 0.000000 0.000000 0.000000 0.111551 0.000000
# 6 0.000000 0.000000 0.000000 0.000000 0.000000 0.253243
#
#
# Mechanical properties :
#
#
# Convention : Reuss Voigt Hill
#
# Bulk Modulus (GPa) = 20.68328 32.55083 26.61705
# Shear Modulus (GPa) = 7.89493 17.55766 12.72630
#
# Velocity S-wave (km/s) = 1.93705 2.88868 2.45933
# Velocity P-wave (km/s) = 3.85134 5.15715 4.55132
#
# Compressibility (1/GPa) = 0.04834823
#
# Stress axis : x y z
#
# Youngs Moduli (GPa) = 30.08789 93.41641 79.92688
#
# Poissons Ratio (x) = 0.58924 -0.45036
# Poissons Ratio (y) = 0.18978 0.27006
# Poissons Ratio (z) = -0.16953 0.31564
#
# Static dielectric constant tensor:
#      x y z
#    x 1.774200 0.000000 0.000000 
#    y 0.000000 1.728980 0.000000 
#    z 0.000000 0.000000 1.892470 
# 
# From -- ./inp_files/73851.got.cif
#   From: 2010.05.17/outbox.cif.g08.bks.cpg/sg63_37_cif.got.tgz:73851.got - 2010.06.03 15:47:04.
