data_PCOD9474349
_publ_section_title
;
Structure prediction by ZEFSAII (Michael W. Deem and Ramdas Pophale) SiO2 
 PCOD9474349
Probable space group: C M C M
;
_chemical_formula_sum "Si O2"
_cell_formula_units_Z 80
_cell_length_a 9.158683
_cell_length_b 16.679135
_cell_length_c 25.124505
_cell_angle_alpha 90.000000
_cell_angle_beta 90.000000
_cell_angle_gamma 90.000000
_cell_volume 3837.992003
_symmetry_space_group_name_H-M "C M C M"
_symmetry_group_IT_number 63
_symmetry_cell_setting 'orthorhombic'
loop_
_space_group_symop_operation_xyz
x,y,z
-x,-y,1/2+z
x,-y,-z
-x,y,1/2-z
-x,-y,-z
x,y,1/2-z
-x,y,z
x,-y,1/2+z
1/2+x,1/2+y,z
1/2-x,1/2-y,1/2+z
1/2+x,1/2-y,-z
1/2-x,1/2+y,1/2-z
1/2-x,1/2-y,-z
1/2+x,1/2+y,1/2-z
1/2-x,1/2+y,z
1/2+x,1/2-y,1/2+z
loop_
_atom_site_type_symbol
_atom_site_label
_atom_site_fract_x
_atom_site_fract_y
_atom_site_fract_z
Si Si1 0.326182 0.422635 0.311506
Si Si2 0.677145 0.413589 0.628870
Si Si3 0.331984 0.243792 0.338081
Si Si4 0.837537 0.198368 0.957723
Si Si5 0.160935 0.409911 0.984643
O O1 0.307493 0.446041 0.250000
O O2 0.500000 0.414254 0.323132
O O3 0.278008 0.498914 0.347155
O O4 0.271352 0.329938 0.316943
O O5 0.500000 0.409515 0.627212
O O6 0.739791 0.338732 0.664192
O O7 0.744768 0.403934 0.569452
O O8 0.500000 0.231730 0.318634
O O9 0.339596 0.262917 0.400768
O O10 0.000000 0.181177 0.975889
O O11 0.750000 0.250000 0.000000
O O12 0.743004 0.119683 0.962319
O O13 0.000000 0.371181 0.976632
O O14 0.139558 0.500000 0.000000
#
# Coordination Sequence:
#
# PCOD9474349 Si02
#       5
#    16  16  16  16  16
#     4   9  20  40  63  87 116 153 198 247 301 362
#     4  11  22  37  61  89 117 154 198 247 298 356
#     4  10  21  38  61  87 119 157 197 243 296 358
#     4  11  21  34  55  83 118 156 195 237 286 349
#     4  11  23  37  55  82 118 158 199 245 293 347
#
# _framework density 20.844234
#
# number of rings (size 3 to 8) (size 9 to 14) (size 15 to 20)
#    0.000    1.600    2.000    3.000    0.000    4.800 
#    0.000    2.000    0.000    4.200    0.000    0.000 
#    0.000    0.000    0.000    0.000    0.000    0.000 
#
# Total GULP energy -222671.370883 kJ/mol
# GULP energy per Si atom -5566.784272 kJ/mol
# Density = 2.079679 g / cm^3
# Si number density = 20.844234 Si / 1000 Ang^3
#
#
#
# Elastic Constant Matrix: (Units=GPa)
#
#
# Indices 1 2 3 4 5 6 
#
# 1 87.2727 36.8286 7.7974 0.0000 0.0000 0.0000
# 2 36.8286 128.1634 23.7394 0.0000 0.0000 0.0000
# 3 7.7974 23.7394 41.9828 0.0000 0.0000 0.0000
# 4 0.0000 0.0000 0.0000 33.4232 0.0000 0.0000
# 5 0.0000 0.0000 0.0000 0.0000 8.0910 0.0000
# 6 0.0000 0.0000 0.0000 0.0000 0.0000 24.9104
#
#
#
# Elastic Compliance Matrix: (Units=1/GPa)
#
#
# Indices 1 2 3 4 5 6 
#
# 1 0.013044 -0.003686 -0.000339 0.000000 0.000000 0.000000
# 2 -0.003686 0.009757 -0.004832 0.000000 0.000000 0.000000
# 3 -0.000339 -0.004832 0.026615 0.000000 0.000000 0.000000
# 4 0.000000 0.000000 0.000000 0.029919 0.000000 0.000000
# 5 0.000000 0.000000 0.000000 0.000000 0.123594 0.000000
# 6 0.000000 0.000000 0.000000 0.000000 0.000000 0.040144
#
#
# Mechanical properties :
#
#
# Convention : Reuss Voigt Hill
#
# Bulk Modulus (GPa) = 31.54366 43.79439 37.66903
# Shear Modulus (GPa) = 18.42619 25.88848 22.15734
#
# Velocity S-wave (km/s) = 2.97643 3.52802 3.26390
# Velocity P-wave (km/s) = 5.19404 6.13611 5.68462
#
# Compressibility (1/GPa) = 0.03170209
#
# Stress axis : x y z
#
# Youngs Moduli (GPa) = 76.66441 102.49356 37.57316
#
# Poissons Ratio (x) = 0.37774 0.01272
# Poissons Ratio (y) = 0.28255 0.18157
# Poissons Ratio (z) = 0.02596 0.49530
#
# Static dielectric constant tensor:
#      x y z
#    x 1.450560 0.000000 0.000000 
#    y 0.000000 2.397450 0.000000 
#    z 0.000000 0.000000 1.765540 
# 
# From -- ./inp_files/71599.got.cif
#   From: 2010.05.17/outbox.cif.g08.bks.cpg/sg63_36_cif.got.tgz:71599.got - 2010.06.03 15:47:04.
