data_PCOD9474853
_publ_section_title
;
Structure prediction by ZEFSAII (Michael W. Deem and Ramdas Pophale) SiO2 
 PCOD9474853
Probable space group: C M C M
;
_chemical_formula_sum "Si O2"
_cell_formula_units_Z 64
_cell_length_a 13.522953
_cell_length_b 28.849228
_cell_length_c 8.855360
_cell_angle_alpha 90.000000
_cell_angle_beta 90.000000
_cell_angle_gamma 90.000000
_cell_volume 3454.712855
_symmetry_space_group_name_H-M "C M C M"
_symmetry_group_IT_number 63
_symmetry_cell_setting 'orthorhombic'
loop_
_space_group_symop_operation_xyz
x,y,z
-x,-y,1/2+z
x,-y,-z
-x,y,1/2-z
-x,-y,-z
x,y,1/2-z
-x,y,z
x,-y,1/2+z
1/2+x,1/2+y,z
1/2-x,1/2-y,1/2+z
1/2+x,1/2-y,-z
1/2-x,1/2+y,1/2-z
1/2-x,1/2-y,-z
1/2+x,1/2+y,1/2-z
1/2-x,1/2+y,z
1/2+x,1/2-y,1/2+z
loop_
_atom_site_type_symbol
_atom_site_label
_atom_site_fract_x
_atom_site_fract_y
_atom_site_fract_z
Si Si1 0.797331 0.613870 0.074444
Si Si2 0.000000 0.351811 0.430519
Si Si3 0.111327 0.051570 0.433060
Si Si4 0.184898 0.211147 0.423951
Si Si5 0.000000 0.247508 0.573835
O O1 0.819876 0.602140 0.250000
O O2 0.710352 0.579251 0.017988
O O3 0.742822 0.663385 0.072801
O O4 0.900800 0.621714 0.987960
O O5 0.000000 0.298334 0.492975
O O6 0.000000 0.349780 0.250000
O O7 0.114175 0.050607 0.250000
O O8 0.000000 0.070381 0.473083
O O9 0.115987 0.000000 0.500000
O O10 0.160756 0.222008 0.250000
O O11 0.250000 0.250000 0.500000
O O12 0.089343 0.215144 0.524530
O O13 0.000000 0.257981 0.750000
#
# Coordination Sequence:
#
# PCOD9474853 Si02
#       5
#    16   8  16  16   8
#     4  10  22  39  61  85 117 156 195 238 294 354
#     4  12  24  38  59  83 116 155 200 248 290 343
#     4   9  19  38  64  91 118 150 185 232 291 351
#     4  11  22  36  57  83 114 154 198 242 288 345
#     4  12  24  38  54  77 116 159 198 244 292 343
#
# _framework density 18.525417999999998
#
# number of rings (size 3 to 8) (size 9 to 14) (size 15 to 20)
#    0.000    1.500    2.500    3.000    1.750    2.000 
#    0.000    0.625    0.000    0.000    0.000    0.000 
#    0.000    0.000    0.000    0.000    0.000    0.000 
#
# Total GULP energy -178318.321374 kJ/mol
# GULP energy per Si atom -5572.447543 kJ/mol
# Density = 1.848325 g / cm^3
# Si number density = 18.525418 Si / 1000 Ang^3
#
#
#
# Elastic Constant Matrix: (Units=GPa)
#
#
# Indices 1 2 3 4 5 6 
#
# 1 161.5530 31.3771 61.2769 0.0000 0.0000 0.0000
# 2 31.3771 48.2074 25.0690 0.0000 0.0000 0.0000
# 3 61.2769 25.0690 94.2261 0.0000 0.0000 0.0000
# 4 0.0000 0.0000 0.0000 23.8119 0.0000 0.0000
# 5 0.0000 0.0000 0.0000 0.0000 28.4311 0.0000
# 6 0.0000 0.0000 0.0000 0.0000 0.0000 31.7093
#
#
#
# Elastic Compliance Matrix: (Units=1/GPa)
#
#
# Indices 1 2 3 4 5 6 
#
# 1 0.008603 -0.003122 -0.004764 0.000000 0.000000 0.000000
# 2 -0.003122 0.025208 -0.004676 0.000000 0.000000 0.000000
# 3 -0.004764 -0.004676 0.014955 0.000000 0.000000 0.000000
# 4 0.000000 0.000000 0.000000 0.041996 0.000000 0.000000
# 5 0.000000 0.000000 0.000000 0.000000 0.035173 0.000000
# 6 0.000000 0.000000 0.000000 0.000000 0.000000 0.031536
#
#
# Mechanical properties :
#
#
# Convention : Reuss Voigt Hill
#
# Bulk Modulus (GPa) = 42.29944 59.93695 51.11820
# Shear Modulus (GPa) = 26.24995 29.20804 27.72899
#
# Velocity S-wave (km/s) = 3.76835 3.97501 3.87306
# Velocity P-wave (km/s) = 6.46658 7.31380 6.90320
#
# Compressibility (1/GPa) = 0.02364097
#
# Stress axis : x y z
#
# Youngs Moduli (GPa) = 116.23300 39.67060 66.86667
#
# Poissons Ratio (x) = 0.12386 0.31857
# Poissons Ratio (y) = 0.36291 0.31267
# Poissons Ratio (z) = 0.55377 0.18550
#
# Static dielectric constant tensor:
#      x y z
#    x 1.634010 0.000000 0.000000 
#    y 0.000000 1.600420 0.000000 
#    z 0.000000 0.000000 1.696840 
# 
# From -- ./inp_files/3174.got.cif
#   From: 2010.05.17/outbox.cif.g08.bks.cpg/sg63_2_cif.got.tgz:3174.got - 2010.06.03 15:47:04.
