data_PCOD9474178
_publ_section_title
;
Structure prediction by ZEFSAII (Michael W. Deem and Ramdas Pophale) SiO2 
 PCOD9474178
Probable space group: C M C M
;
_chemical_formula_sum "Si O2"
_cell_formula_units_Z 116
_cell_length_a 20.472900
_cell_length_b 8.320745
_cell_length_c 31.000811
_cell_angle_alpha 90.000000
_cell_angle_beta 90.000000
_cell_angle_gamma 90.000000
_cell_volume 5280.981343
_symmetry_space_group_name_H-M "C M C M"
_symmetry_group_IT_number 63
_symmetry_cell_setting 'orthorhombic'
loop_
_space_group_symop_operation_xyz
x,y,z
-x,-y,1/2+z
x,-y,-z
-x,y,1/2-z
-x,-y,-z
x,y,1/2-z
-x,y,z
x,-y,1/2+z
1/2+x,1/2+y,z
1/2-x,1/2-y,1/2+z
1/2+x,1/2-y,-z
1/2-x,1/2+y,1/2-z
1/2-x,1/2-y,-z
1/2+x,1/2+y,1/2-z
1/2-x,1/2+y,z
1/2+x,1/2-y,1/2+z
loop_
_atom_site_type_symbol
_atom_site_label
_atom_site_fract_x
_atom_site_fract_y
_atom_site_fract_z
Si Si1 0.226104 0.973210 0.798289
Si Si2 0.000000 0.896556 0.750000
Si Si3 0.104085 0.230436 0.183886
Si Si4 0.119137 0.407009 0.702449
Si Si5 0.163707 0.251093 0.029785
Si Si6 0.203464 0.396918 0.556394
Si Si7 0.575728 0.586460 0.407465
Si Si8 0.343893 0.306503 0.132838
O O1 0.213721 0.040472 0.750000
O O2 0.178105 0.820437 0.804420
O O3 0.302028 0.928784 0.799824
O O4 0.203893 0.092535 0.836091
O O5 0.057000 0.880391 0.787649
O O6 0.091170 0.415084 0.195808
O O7 0.090971 0.200069 0.133749
O O8 0.100358 0.348195 0.750000
O O9 0.105299 0.283927 0.664320
O O10 0.183005 0.418152 0.053491
O O11 0.222460 0.128810 0.040694
O O12 0.099450 0.175976 0.049719
O O13 0.162923 0.297650 0.979660
O O14 0.193055 0.321522 0.603083
O O15 0.500000 0.548312 0.408669
O O16 0.618687 0.430092 0.397660
#
# Coordination Sequence:
#
# PCOD9474178 Si02
#       8
#    16   4  16  16  16  16  16  16
#     4  10  21  37  59  88 127 164 207 267 326 389
#     4  12  20  40  60  86 120 176 236 268 300 390
#     4  11  22  39  64  87 120 171 223 263 319 383
#     4  11  22  38  58  93 127 163 213 275 334 375
#     4  10  22  43  70  93 134 158 205 265 323 396
#     4  10  22  41  68 105 123 160 202 263 335 389
#     4  11  25  44  62  91 126 179 221 259 313 391
#     4  11  24  36  59  91 128 162 213 258 324 382
#
# _framework density 21.965615
#
# number of rings (size 3 to 8) (size 9 to 14) (size 15 to 20)
#    0.000    1.379    2.069    2.897    7.724    3.862 
#    1.241    3.448    0.000    0.828    0.000    0.000 
#    0.000    0.000    0.000    0.000    0.000    0.000 
#
# Total GULP energy -324063.942739 kJ/mol
# GULP energy per Si atom -5587.309358 kJ/mol
# Density = 2.191562 g / cm^3
# Si number density = 21.965615 Si / 1000 Ang^3
#
#
#
# Elastic Constant Matrix: (Units=GPa)
#
#
# Indices 1 2 3 4 5 6 
#
# 1 48.7091 -4.3590 2.9060 0.0000 0.0000 0.0000
# 2 -4.3590 72.9883 19.8204 0.0000 0.0000 0.0000
# 3 2.9060 19.8204 88.5956 0.0000 0.0000 0.0000
# 4 0.0000 0.0000 0.0000 31.1545 0.0000 0.0000
# 5 0.0000 0.0000 0.0000 0.0000 17.7392 0.0000
# 6 0.0000 0.0000 0.0000 0.0000 0.0000 -0.0192
#
#
#
# Elastic Compliance Matrix: (Units=1/GPa)
#
#
# Indices 1 2 3 4 5 6 
#
# 1 0.020726 0.001514 -0.001019 0.000000 0.000000 0.000000
# 2 0.001514 0.014698 -0.003338 0.000000 0.000000 0.000000
# 3 -0.001019 -0.003338 0.012067 0.000000 0.000000 0.000000
# 4 0.000000 0.000000 0.000000 0.032098 0.000000 0.000000
# 5 0.000000 0.000000 0.000000 0.000000 0.056372 0.000000
# 6 0.000000 0.000000 0.000000 0.000000 0.000000-52.135322
#
#
# Mechanical properties :
#
#
# Convention : Reuss Voigt Hill
#
# Bulk Modulus (GPa) = 23.91923 27.44754 25.68338
# Shear Modulus (GPa) = -0.09619 22.56993 11.23687
#
# Velocity S-wave (km/s) = -0.20949 3.20896 2.26424
# Velocity P-wave (km/s) = 3.29462 5.12374 4.30739
#
# Compressibility (1/GPa) = 0.04180737
#
# Stress axis : x y z
#
# Youngs Moduli (GPa) = 48.24773 68.03794 82.86800
#
# Poissons Ratio (x) = -0.10304 0.08441
# Poissons Ratio (y) = -0.07307 0.27660
# Poissons Ratio (z) = 0.04915 0.22710
#
# Static dielectric constant tensor:
#      x y z
#    x 1.781170 0.000000 0.000000 
#    y 0.000000 1.838570 0.000000 
#    z 0.000000 0.000000 1.832300 
# 
# From -- ./inp_files/74344.got.cif
#   From: 2010.05.17/outbox.cif.g08.bks.cpg/sg63_38_cif.got.tgz:74344.got - 2010.06.03 15:47:04.
