data_PCOD9474860
_publ_section_title
;
Structure prediction by ZEFSAII (Michael W. Deem and Ramdas Pophale) SiO2 
 PCOD9474860
Probable space group: C M C M
;
_chemical_formula_sum "Si O2"
_cell_formula_units_Z 48
_cell_length_a 10.477107
_cell_length_b 15.186021
_cell_length_c 13.668047
_cell_angle_alpha 90.000000
_cell_angle_beta 90.000000
_cell_angle_gamma 90.000000
_cell_volume 2174.662367
_symmetry_space_group_name_H-M "C M C M"
_symmetry_group_IT_number 63
_symmetry_cell_setting 'orthorhombic'
loop_
_space_group_symop_operation_xyz
x,y,z
-x,-y,1/2+z
x,-y,-z
-x,y,1/2-z
-x,-y,-z
x,y,1/2-z
-x,y,z
x,-y,1/2+z
1/2+x,1/2+y,z
1/2-x,1/2-y,1/2+z
1/2+x,1/2-y,-z
1/2-x,1/2+y,1/2-z
1/2-x,1/2-y,-z
1/2+x,1/2+y,1/2-z
1/2-x,1/2+y,z
1/2+x,1/2-y,1/2+z
loop_
_atom_site_type_symbol
_atom_site_label
_atom_site_fract_x
_atom_site_fract_y
_atom_site_fract_z
Si Si1 0.142102 0.980516 0.614371
Si Si2 0.858168 0.343125 0.577522
Si Si3 0.763805 0.666155 0.857069
O O1 0.190909 0.073848 0.651991
O O2 0.000000 0.955290 0.647136
O O3 0.133094 0.000000 0.500000
O O4 0.248863 0.905388 0.622666
O O5 0.844493 0.340123 0.458383
O O6 0.832612 0.245935 0.619153
O O7 0.000000 0.374505 0.601856
O O8 0.825913 0.682747 0.750000
#
# Coordination Sequence:
#
# PCOD9474860 Si02
#       3
#    16  16  16
#     4   9  19  37  60  84 113 152 197 243 295 357
#     4  10  22  40  62  90 124 158 198 253 308 355
#     4  10  22  39  61  88 121 163 206 246 297 363
#
# _framework density 22.072392000000001
#
# number of rings (size 3 to 8) (size 9 to 14) (size 15 to 20)
#    0.000    2.333    0.000    1.000    0.000   18.667 
#    0.000    0.000    0.000    0.000    0.000    0.000 
#    0.000    0.000    0.000    0.000    0.000    0.000 
#
# Total GULP energy -133809.382019 kJ/mol
# GULP energy per Si atom -5575.390917 kJ/mol
# Density = 2.202215 g / cm^3
# Si number density = 22.072392 Si / 1000 Ang^3
#
#
#
# Elastic Constant Matrix: (Units=GPa)
#
#
# Indices 1 2 3 4 5 6 
#
# 1 152.4640 61.3495 10.8986 0.0000 0.0000 0.0000
# 2 61.3495 115.0150 45.6287 0.0000 0.0000 0.0000
# 3 10.8986 45.6287 139.4070 0.0000 0.0000 0.0000
# 4 0.0000 0.0000 0.0000 48.2808 0.0000 0.0000
# 5 0.0000 0.0000 0.0000 0.0000 -80.4120 0.0000
# 6 0.0000 0.0000 0.0000 0.0000 0.0000 14.4481
#
#
#
# Elastic Compliance Matrix: (Units=1/GPa)
#
#
# Indices 1 2 3 4 5 6 
#
# 1 0.008457 -0.004882 0.000937 0.000000 0.000000 0.000000
# 2 -0.004882 0.012811 -0.003811 0.000000 0.000000 0.000000
# 3 0.000937 -0.003811 0.008347 0.000000 0.000000 0.000000
# 4 0.000000 0.000000 0.000000 0.020712 0.000000 0.000000
# 5 0.000000 0.000000 0.000000 0.000000 -0.012436 0.000000
# 6 0.000000 0.000000 0.000000 0.000000 0.000000 0.069213
#
#
# Mechanical properties :
#
#
# Convention : Reuss Voigt Hill
#
# Bulk Modulus (GPa) = 70.91625 71.40438 71.16031
# Shear Modulus (GPa) = 39.27147 15.73065 27.50106
#
# Velocity S-wave (km/s) = 4.22265 2.67251 3.53363
# Velocity P-wave (km/s) = 7.48151 6.47637 6.99701
#
# Compressibility (1/GPa) = 0.01410114
#
# Stress axis : x y z
#
# Youngs Moduli (GPa) = 118.25083 78.05845 119.79664
#
# Poissons Ratio (x) = 0.38112 -0.11224
# Poissons Ratio (y) = 0.57736 0.45659
# Poissons Ratio (z) = -0.11079 0.29751
#
# Static dielectric constant tensor:
#      x y z
#    x 1.800150 0.000000 0.000000 
#    y 0.000000 1.757790 0.000000 
#    z 0.000000 0.000000 2.010530 
# 
# From -- ./inp_files/26859.got.cif
#   From: 2010.05.17/outbox.cif.g08.bks.cpg/sg63_14_cif.got.tgz:26859.got - 2010.06.03 15:47:04.
