data_PCOD9474480
_publ_section_title
;
Structure prediction by ZEFSAII (Michael W. Deem and Ramdas Pophale) SiO2 
 PCOD9474480
Probable space group: C M C M
;
_chemical_formula_sum "Si O2"
_cell_formula_units_Z 72
_cell_length_a 7.598525
_cell_length_b 29.349223
_cell_length_c 18.215471
_cell_angle_alpha 90.000000
_cell_angle_beta 90.000000
_cell_angle_gamma 90.000000
_cell_volume 4062.246846
_symmetry_space_group_name_H-M "C M C M"
_symmetry_group_IT_number 63
_symmetry_cell_setting 'orthorhombic'
loop_
_space_group_symop_operation_xyz
x,y,z
-x,-y,1/2+z
x,-y,-z
-x,y,1/2-z
-x,-y,-z
x,y,1/2-z
-x,y,z
x,-y,1/2+z
1/2+x,1/2+y,z
1/2-x,1/2-y,1/2+z
1/2+x,1/2-y,-z
1/2-x,1/2+y,1/2-z
1/2-x,1/2-y,-z
1/2+x,1/2+y,1/2-z
1/2-x,1/2+y,z
1/2+x,1/2-y,1/2+z
loop_
_atom_site_type_symbol
_atom_site_label
_atom_site_fract_x
_atom_site_fract_y
_atom_site_fract_z
Si Si1 0.205796 0.702277 0.663664
Si Si2 0.500000 0.959865 0.836679
Si Si3 0.000000 0.631880 0.431107
Si Si4 0.294090 0.620962 0.946589
Si Si5 0.793027 0.983160 0.083432
Si Si6 0.000000 0.723437 0.162719
O O1 0.232224 0.691432 0.750000
O O2 0.258306 0.659635 0.613666
O O3 0.330327 0.745066 0.646530
O O4 0.000000 0.712672 0.652285
O O5 0.500000 0.953584 0.750000
O O6 0.500000 0.911826 0.878542
O O7 0.669146 0.988514 0.863282
O O8 0.830738 0.629561 0.484185
O O9 0.000000 0.677963 0.384449
O O10 0.500000 0.621222 0.967169
O O11 0.254045 0.570693 0.915051
O O12 0.000000 0.990067 0.098912
O O13 0.759733 0.000000 0.000000
O O14 0.000000 0.713262 0.250000
#
# Coordination Sequence:
#
# PCOD9474480 Si02
#       6
#    16   8   8  16  16   8
#     4  10  21  39  61  87 119 153 196 252 310 364
#     4  12  25  40  62  93 125 164 210 252 293 359
#     4  12  24  40  61  87 124 161 209 248 296 358
#     4  11  22  38  63  93 120 158 198 247 307 360
#     4  10  21  40  64  87 124 164 199 247 307 360
#     4  10  23  43  61  81 121 166 199 247 309 360
#
# _framework density 17.72418
#
# number of rings (size 3 to 8) (size 9 to 14) (size 15 to 20)
#    0.000    1.333    4.444    1.333    0.000    3.111 
#    0.000    2.222    0.000    4.000    0.000    0.000 
#    0.000    0.000    0.000    0.000    0.000    0.000 
#
# Total GULP energy -201181.040453 kJ/mol
# GULP energy per Si atom -5588.362235 kJ/mol
# Density = 1.768384 g / cm^3
# Si number density = 17.724180 Si / 1000 Ang^3
#
#
#
# Elastic Constant Matrix: (Units=GPa)
#
#
# Indices 1 2 3 4 5 6 
#
# 1 117.5915 87.8045 74.9585 0.0000 0.0000 0.0000
# 2 87.8045 180.0893 97.8067 0.0000 0.0000 0.0000
# 3 74.9585 97.8067 110.6787 0.0000 0.0000 0.0000
# 4 0.0000 0.0000 0.0000 17.9633 0.0000 0.0000
# 5 0.0000 0.0000 0.0000 0.0000 -9.2358 0.0000
# 6 0.0000 0.0000 0.0000 0.0000 0.0000 -90.9415
#
#
#
# Elastic Compliance Matrix: (Units=1/GPa)
#
#
# Indices 1 2 3 4 5 6 
#
# 1 0.016165 -0.003722 -0.007659 0.000000 0.000000 0.000000
# 2 -0.003722 0.011534 -0.007672 0.000000 0.000000 0.000000
# 3 -0.007659 -0.007672 0.021002 0.000000 0.000000 0.000000
# 4 0.000000 0.000000 0.000000 0.055669 0.000000 0.000000
# 5 0.000000 0.000000 0.000000 0.000000 -0.108275 0.000000
# 6 0.000000 0.000000 0.000000 0.000000 0.000000 -0.010996
#
#
# Mechanical properties :
#
#
# Convention : Reuss Voigt Hill
#
# Bulk Modulus (GPa) = 94.37911 103.27766 98.82839
# Shear Modulus (GPa) = 186.99778 -6.59016 90.20381
#
# Velocity S-wave (km/s) = 10.28267 -1.93035 7.14168
# Velocity P-wave (km/s) = 13.94067 7.30941 11.13036
#
# Compressibility (1/GPa) = 0.01059556
#
# Stress axis : x y z
#
# Youngs Moduli (GPa) = 61.86014 86.69906 47.61408
#
# Poissons Ratio (x) = 0.32269 0.36469
# Poissons Ratio (y) = 0.23024 0.36529
# Poissons Ratio (z) = 0.47380 0.66515
#
# Static dielectric constant tensor:
#      x y z
#    x 1.610820 0.000000 0.000000 
#    y 0.000000 1.575000 0.000000 
#    z 0.000000 0.000000 1.572250 
# 
# From -- ./inp_files/27962.got.cif
#   From: 2010.05.17/outbox.cif.g08.bks.cpg/sg63_14_cif.got.tgz:27962.got - 2010.06.03 15:47:04.
