data_PCOD9474368
_publ_section_title
;
Structure prediction by ZEFSAII (Michael W. Deem and Ramdas Pophale) SiO2 
 PCOD9474368
Probable space group: C M C M
;
_chemical_formula_sum "Si O2"
_cell_formula_units_Z 104
_cell_length_a 21.875574
_cell_length_b 27.158884
_cell_length_c 8.662130
_cell_angle_alpha 90.000000
_cell_angle_beta 90.000000
_cell_angle_gamma 90.000000
_cell_volume 5146.311558
_symmetry_space_group_name_H-M "C M C M"
_symmetry_group_IT_number 63
_symmetry_cell_setting 'orthorhombic'
loop_
_space_group_symop_operation_xyz
x,y,z
-x,-y,1/2+z
x,-y,-z
-x,y,1/2-z
-x,-y,-z
x,y,1/2-z
-x,y,z
x,-y,1/2+z
1/2+x,1/2+y,z
1/2-x,1/2-y,1/2+z
1/2+x,1/2-y,-z
1/2-x,1/2+y,1/2-z
1/2-x,1/2-y,-z
1/2+x,1/2+y,1/2-z
1/2-x,1/2+y,z
1/2+x,1/2-y,1/2+z
loop_
_atom_site_type_symbol
_atom_site_label
_atom_site_fract_x
_atom_site_fract_y
_atom_site_fract_z
Si Si1 0.208149 0.447170 0.567929
Si Si2 0.317738 0.395675 0.433288
Si Si3 0.889477 0.623958 0.564834
Si Si4 0.000000 0.553968 0.565435
Si Si5 0.305558 0.716856 0.936435
Si Si6 0.570411 0.770466 0.936335
Si Si7 0.928054 0.054295 0.067556
O O1 0.188646 0.500000 0.500000
O O2 0.199235 0.447832 0.750000
O O3 0.277736 0.435996 0.522371
O O4 0.171962 0.401398 0.493864
O O5 0.308332 0.401027 0.250000
O O6 0.299181 0.340374 0.479833
O O7 0.387340 0.406430 0.477668
O O8 0.887780 0.629038 0.750000
O O9 0.908308 0.675714 0.492375
O O10 0.941162 0.584827 0.518340
O O11 0.000000 0.500000 0.500000
O O12 0.000000 0.551168 0.750000
O O13 0.303382 0.719826 0.750000
O O14 0.373327 0.735303 0.985876
O O15 0.250000 0.750000 0.000000
O O16 0.568937 0.769589 0.750000
O O17 0.500000 0.760533 0.989314
O O18 0.914383 0.055173 0.250000
O O19 0.000000 0.063749 0.046946
O O20 0.915377 0.000000 0.000000
#
# Coordination Sequence:
#
# PCOD9474368 Si02
#       7
#    16  16  16   8  16  16  16
#     4  12  25  41  61  88 121 160 203 249 301 360
#     4  11  23  40  62  89 121 158 199 250 307 363
#     4  11  22  39  59  86 120 157 200 246 298 354
#     4  10  22  36  54  80 114 150 190 238 287 342
#     4  10  23  41  62  89 120 157 203 255 311 367
#     4  10  21  39  63  90 120 159 206 254 305 364
#     4  10  21  38  61  90 124 161 200 243 295 360
#
# _framework density 20.208648
#
# number of rings (size 3 to 8) (size 9 to 14) (size 15 to 20)
#    0.000    1.385    0.769    4.615    0.000    8.308 
#    0.000    1.538    0.000    0.000    0.000    0.000 
#    0.000    0.000    0.000    0.000    0.000    0.000 
#
# Total GULP energy -290595.885750 kJ/mol
# GULP energy per Si atom -5588.382418 kJ/mol
# Density = 2.016265 g / cm^3
# Si number density = 20.208648 Si / 1000 Ang^3
#
#
#
# Elastic Constant Matrix: (Units=GPa)
#
#
# Indices 1 2 3 4 5 6 
#
# 1 96.4414 29.1690 13.1929 0.0000 0.0000 0.0000
# 2 29.1690 67.0398 4.3560 0.0000 0.0000 0.0000
# 3 13.1929 4.3560 13.0211 0.0000 0.0000 0.0000
# 4 0.0000 0.0000 0.0000 27.6545 0.0000 0.0000
# 5 0.0000 0.0000 0.0000 0.0000 17.1100 0.0000
# 6 0.0000 0.0000 0.0000 0.0000 0.0000 44.0239
#
#
#
# Elastic Compliance Matrix: (Units=1/GPa)
#
#
# Indices 1 2 3 4 5 6 
#
# 1 0.013563 -0.005120 -0.012029 0.000000 0.000000 0.000000
# 2 -0.005120 0.017180 -0.000560 0.000000 0.000000 0.000000
# 3 -0.012029 -0.000560 0.089173 0.000000 0.000000 0.000000
# 4 0.000000 0.000000 0.000000 0.036160 0.000000 0.000000
# 5 0.000000 0.000000 0.000000 0.000000 0.058445 0.000000
# 6 0.000000 0.000000 0.000000 0.000000 0.000000 0.022715
#
#
# Mechanical properties :
#
#
# Convention : Reuss Voigt Hill
#
# Bulk Modulus (GPa) = 11.83450 29.99314 20.91382
# Shear Modulus (GPa) = 16.62111 26.40997 21.51554
#
# Velocity S-wave (km/s) = 2.87099 3.61898 3.26647
# Velocity P-wave (km/s) = 4.10597 5.68653 4.95962
#
# Compressibility (1/GPa) = 0.08449871
#
# Stress axis : x y z
#
# Youngs Moduli (GPa) = 73.72999 58.20560 11.21409
#
# Poissons Ratio (x) = 0.29799 0.13490
# Poissons Ratio (y) = 0.37747 0.00628
# Poissons Ratio (z) = 0.88691 0.03261
#
# Static dielectric constant tensor:
#      x y z
#    x 1.838470 0.000000 0.000000 
#    y 0.000000 1.683030 0.000000 
#    z 0.000000 0.000000 1.694530 
# 
# From -- ./inp_files/8744.got.cif
#   From: 2010.05.17/outbox.cif.g08.bks.cpg/sg63_5_cif.got.tgz:8744.got - 2010.06.03 15:47:04.
