data_PCOD9474218
_publ_section_title
;
Structure prediction by ZEFSAII (Michael W. Deem and Ramdas Pophale) SiO2 
 PCOD9474218
Probable space group: C M C M
;
_chemical_formula_sum "Si O2"
_cell_formula_units_Z 64
_cell_length_a 22.487483
_cell_length_b 8.014086
_cell_length_c 13.730439
_cell_angle_alpha 90.000000
_cell_angle_beta 90.000000
_cell_angle_gamma 90.000000
_cell_volume 2474.453345
_symmetry_space_group_name_H-M "C M C M"
_symmetry_group_IT_number 63
_symmetry_cell_setting 'orthorhombic'
loop_
_space_group_symop_operation_xyz
x,y,z
-x,-y,1/2+z
x,-y,-z
-x,y,1/2-z
-x,-y,-z
x,y,1/2-z
-x,y,z
x,-y,1/2+z
1/2+x,1/2+y,z
1/2-x,1/2-y,1/2+z
1/2+x,1/2-y,-z
1/2-x,1/2+y,1/2-z
1/2-x,1/2-y,-z
1/2+x,1/2+y,1/2-z
1/2-x,1/2+y,z
1/2+x,1/2-y,1/2+z
loop_
_atom_site_type_symbol
_atom_site_label
_atom_site_fract_x
_atom_site_fract_y
_atom_site_fract_z
Si Si1 0.160175 0.022108 0.613922
Si Si2 0.264023 0.826805 0.605948
Si Si3 0.931044 0.251189 0.545942
Si Si4 0.873045 0.429127 0.364659
O O1 0.200320 0.129576 0.347984
O O2 0.195214 0.184250 0.650688
O O3 0.092954 0.090420 0.606883
O O4 0.172828 0.000000 0.500000
O O5 0.250000 0.750000 0.500000
O O6 0.307902 0.988791 0.611926
O O7 0.894451 0.289900 0.444534
O O8 0.916979 0.415540 0.609487
O O9 0.000000 0.235487 0.524027
O O10 0.878561 0.388819 0.250000
#
# Coordination Sequence:
#
# PCOD9474218 Si02
#       4
#    16  16  16  16
#     4   9  19  32  61  86 119 160 198 252 311 373
#     4   9  19  32  60  89 118 160 197 250 321 374
#     4  10  22  37  60  89 121 166 214 255 308 370
#     4  10  21  37  61  91 123 162 209 260 314 372
#
# _framework density 25.864298000000002
#
# number of rings (size 3 to 8) (size 9 to 14) (size 15 to 20)
#    0.000    2.500    0.000    1.500   24.500    2.500 
#    0.000    5.000    0.000   13.500    0.000   10.500 
#    0.000    0.000    0.000    0.000    0.000    0.000 
#
# Total GULP energy -178160.861268 kJ/mol
# GULP energy per Si atom -5567.526915 kJ/mol
# Density = 2.580543 g / cm^3
# Si number density = 25.864298 Si / 1000 Ang^3
#
#
#
# Elastic Constant Matrix: (Units=GPa)
#
#
# Indices 1 2 3 4 5 6 
#
# 1 214.1567 42.4515 43.3972 0.0000 0.0000 0.0000
# 2 42.4515 90.3545 25.2020 0.0000 0.0000 0.0000
# 3 43.3972 25.2020 190.5485 0.0000 0.0000 0.0000
# 4 0.0000 0.0000 0.0000 -26.1668 0.0000 0.0000
# 5 0.0000 0.0000 0.0000 0.0000 -24.4745 0.0000
# 6 0.0000 0.0000 0.0000 0.0000 0.0000 34.7303
#
#
#
# Elastic Compliance Matrix: (Units=1/GPa)
#
#
# Indices 1 2 3 4 5 6 
#
# 1 0.005297 -0.002235 -0.000911 0.000000 0.000000 0.000000
# 2 -0.002235 0.012434 -0.001136 0.000000 0.000000 0.000000
# 3 -0.000911 -0.001136 0.005606 0.000000 0.000000 0.000000
# 4 0.000000 0.000000 0.000000 -0.038216 0.000000 0.000000
# 5 0.000000 0.000000 0.000000 0.000000 -0.040859 0.000000
# 6 0.000000 0.000000 0.000000 0.000000 0.000000 0.028793
#
#
# Mechanical properties :
#
#
# Convention : Reuss Voigt Hill
#
# Bulk Modulus (GPa) = 67.68353 79.68458 73.68406
# Shear Modulus (GPa) = -371.52710 22.41840 -174.55435
#
# Velocity S-wave (km/s) = -11.99819 2.94729 -8.22405
# Velocity P-wave (km/s) = 12.87310 6.51595 7.85045
#
# Compressibility (1/GPa) = 0.01477464
#
# Stress axis : x y z
#
# Youngs Moduli (GPa) = 188.78538 80.42344 178.39164
#
# Poissons Ratio (x) = 0.17972 0.16248
# Poissons Ratio (y) = 0.42187 0.20258
# Poissons Ratio (z) = 0.17195 0.09133
#
# Static dielectric constant tensor:
#      x y z
#    x 2.099230 0.000000 0.000000 
#    y 0.000000 2.246700 0.000000 
#    z 0.000000 0.000000 2.030580 
# 
# From -- ./inp_files/33365.got.cif
#   From: 2010.05.17/outbox.cif.g08.bks.cpg/sg63_17_cif.got.tgz:33365.got - 2010.06.03 15:47:04.
