data_PCOD9474921
_publ_section_title
;
Structure prediction by ZEFSAII (Michael W. Deem and Ramdas Pophale) SiO2 
 PCOD9474921
Probable space group: C M C M
;
_chemical_formula_sum "Si O2"
_cell_formula_units_Z 68
_cell_length_a 15.866914
_cell_length_b 9.345800
_cell_length_c 21.706258
_cell_angle_alpha 90.000000
_cell_angle_beta 90.000000
_cell_angle_gamma 90.000000
_cell_volume 3218.799398
_symmetry_space_group_name_H-M "C M C M"
_symmetry_group_IT_number 63
_symmetry_cell_setting 'orthorhombic'
loop_
_space_group_symop_operation_xyz
x,y,z
-x,-y,1/2+z
x,-y,-z
-x,y,1/2-z
-x,-y,-z
x,y,1/2-z
-x,y,z
x,-y,1/2+z
1/2+x,1/2+y,z
1/2-x,1/2-y,1/2+z
1/2+x,1/2-y,-z
1/2-x,1/2+y,1/2-z
1/2-x,1/2-y,-z
1/2+x,1/2+y,1/2-z
1/2-x,1/2+y,z
1/2+x,1/2-y,1/2+z
loop_
_atom_site_type_symbol
_atom_site_label
_atom_site_fract_x
_atom_site_fract_y
_atom_site_fract_z
Si Si1 0.685962 0.108265 0.679222
Si Si2 0.598138 0.389043 0.682014
Si Si3 0.000000 0.270379 0.750000
Si Si4 0.650666 0.203204 0.146350
Si Si5 0.898591 0.064280 0.563811
O O1 0.686122 0.060044 0.750000
O O2 0.609695 0.220710 0.672026
O O3 0.766798 0.208619 0.667924
O O4 0.672574 0.963938 0.641705
O O5 0.635143 0.423636 0.750000
O O6 0.500000 0.426892 0.686314
O O7 0.631260 0.471966 0.622915
O O8 0.074808 0.273757 0.804523
O O9 0.625517 0.274943 0.081508
O O10 0.000000 0.054220 0.561920
O O11 0.865726 0.000000 0.500000
#
# Coordination Sequence:
#
# PCOD9474921 Si02
#       5
#    16  16   4  16  16
#     4  11  22  38  61  96 134 156 201 262 319 360
#     4   9  20  35  62  92 124 161 208 258 314 370
#     4  12  24  36  66  98 124 160 214 250 304 376
#     4  12  24  39  63  94 128 166 205 254 312 371
#     4  10  22  40  61  89 125 167 212 258 309 371
#
# _framework density 21.125889999999998
#
# number of rings (size 3 to 8) (size 9 to 14) (size 15 to 20)
#    0.000    1.412    3.529    1.412    3.294    1.882 
#    0.000    5.882    0.000    5.647    0.000    0.000 
#    0.000    0.000    0.000    0.000    0.000    0.000 
#
# Total GULP energy -189291.136144 kJ/mol
# GULP energy per Si atom -5567.386357 kJ/mol
# Density = 2.107781 g / cm^3
# Si number density = 21.125890 Si / 1000 Ang^3
#
#
#
# Elastic Constant Matrix: (Units=GPa)
#
#
# Indices 1 2 3 4 5 6 
#
# 1 49.6711 2.6142 13.0887 0.0000 0.0000 0.0000
# 2 2.6142 117.7233 40.1333 0.0000 0.0000 0.0000
# 3 13.0887 40.1333 85.4049 0.0000 0.0000 0.0000
# 4 0.0000 0.0000 0.0000 94.7773 0.0000 0.0000
# 5 0.0000 0.0000 0.0000 0.0000 13.9040 0.0000
# 6 0.0000 0.0000 0.0000 0.0000 0.0000 28.1635
#
#
#
# Elastic Compliance Matrix: (Units=1/GPa)
#
#
# Indices 1 2 3 4 5 6 
#
# 1 0.021036 0.000752 -0.003577 0.000000 0.000000 0.000000
# 2 0.000752 0.010142 -0.004881 0.000000 0.000000 0.000000
# 3 -0.003577 -0.004881 0.014551 0.000000 0.000000 0.000000
# 4 0.000000 0.000000 0.000000 0.010551 0.000000 0.000000
# 5 0.000000 0.000000 0.000000 0.000000 0.071922 0.000000
# 6 0.000000 0.000000 0.000000 0.000000 0.000000 0.035507
#
#
# Mechanical properties :
#
#
# Convention : Reuss Voigt Hill
#
# Bulk Modulus (GPa) = 32.98577 40.49687 36.74132
# Shear Modulus (GPa) = 26.42351 40.49984 33.46167
#
# Velocity S-wave (km/s) = 3.54045 4.38319 3.98416
# Velocity P-wave (km/s) = 5.68866 6.69532 6.21242
#
# Compressibility (1/GPa) = 0.03031611
#
# Stress axis : x y z
#
# Youngs Moduli (GPa) = 47.53867 98.60158 68.72422
#
# Poissons Ratio (x) = -0.07419 0.24585
# Poissons Ratio (y) = -0.03577 0.33545
# Poissons Ratio (z) = 0.17006 0.48129
#
# Static dielectric constant tensor:
#      x y z
#    x 1.815010 0.000000 0.000000 
#    y 0.000000 1.811680 0.000000 
#    z 0.000000 0.000000 1.761170 
# 
# From -- ./inp_files/55107.got.cif
#   From: 2010.05.17/outbox.cif.g08.bks.cpg/sg63_28_cif.got.tgz:55107.got - 2010.06.03 15:47:04.
