data_PCOD9474746
_publ_section_title
;
Structure prediction by ZEFSAII (Michael W. Deem and Ramdas Pophale) SiO2 
 PCOD9474746
Probable space group: C M C M
;
_chemical_formula_sum "Si O2"
_cell_formula_units_Z 104
_cell_length_a 22.277848
_cell_length_b 26.762091
_cell_length_c 8.315860
_cell_angle_alpha 90.000000
_cell_angle_beta 90.000000
_cell_angle_gamma 90.000000
_cell_volume 4957.930663
_symmetry_space_group_name_H-M "C M C M"
_symmetry_group_IT_number 63
_symmetry_cell_setting 'orthorhombic'
loop_
_space_group_symop_operation_xyz
x,y,z
-x,-y,1/2+z
x,-y,-z
-x,y,1/2-z
-x,-y,-z
x,y,1/2-z
-x,y,z
x,-y,1/2+z
1/2+x,1/2+y,z
1/2-x,1/2-y,1/2+z
1/2+x,1/2-y,-z
1/2-x,1/2+y,1/2-z
1/2-x,1/2-y,-z
1/2+x,1/2+y,1/2-z
1/2-x,1/2+y,z
1/2+x,1/2-y,1/2+z
loop_
_atom_site_type_symbol
_atom_site_label
_atom_site_fract_x
_atom_site_fract_y
_atom_site_fract_z
Si Si1 0.933569 0.094940 0.250000
Si Si2 0.100678 0.846969 0.066961
Si Si3 0.071900 0.015943 0.750000
Si Si4 0.568267 0.230934 0.058001
Si Si5 0.276029 0.596598 0.935364
Si Si6 0.660300 0.500000 0.000000
Si Si7 0.068264 0.552683 0.056892
Si Si8 0.847057 0.643042 0.444766
O O1 0.926535 0.126039 0.411493
O O2 0.901208 0.041584 0.250000
O O3 0.000000 0.073989 0.250000
O O4 0.078293 0.859602 0.250000
O O5 0.087821 0.788417 0.042471
O O6 0.169897 0.863361 0.060464
O O7 0.109949 0.033299 0.598538
O O8 0.000000 0.024985 0.750000
O O9 0.564206 0.221038 0.250000
O O10 0.500000 0.223502 0.993843
O O11 0.620387 0.193881 0.997631
O O12 0.269180 0.579355 0.750000
O O13 0.294109 0.546486 0.034897
O O14 0.217146 0.625965 0.990527
O O15 0.066171 0.552714 0.250000
O O16 0.107436 0.599187 0.006726
O O17 0.000000 0.556683 0.995523
O O18 0.093894 0.500000 0.000000
O O19 0.842385 0.644992 0.250000
#
# Coordination Sequence:
#
# PCOD9474746 Si02
#       8
#     8  16   8  16  16   8  16  16
#     4  11  22  38  64  97 128 162 212 263 315 381
#     4  10  22  41  64  95 128 169 209 257 320 377
#     4  11  24  42  66  95 124 160 208 261 317 377
#     4   9  18  38  66  93 124 160 204 258 317 380
#     4  11  25  41  60  86 126 167 209 257 308 375
#     4  12  23  44  64  88 125 168 208 254 310 372
#     4   9  18  34  55  82 116 152 198 254 313 375
#     4  10  22  37  61  91 116 160 210 254 310 370
#
# _framework density 20.976493999999999
#
# number of rings (size 3 to 8) (size 9 to 14) (size 15 to 20)
#    0.000    1.846    2.308    1.154    3.231    4.000 
#    1.385    0.000    0.000    0.923    0.000    0.000 
#    0.000    0.000    0.000    0.000    0.000    0.000 
#
# Total GULP energy -289494.373277 kJ/mol
# GULP energy per Si atom -5567.199486 kJ/mol
# Density = 2.092875 g / cm^3
# Si number density = 20.976494 Si / 1000 Ang^3
#
#
#
# Elastic Constant Matrix: (Units=GPa)
#
#
# Indices 1 2 3 4 5 6 
#
# 1 114.6236 56.0943 18.4854 0.0000 0.0000 0.0000
# 2 56.0943 93.5154 25.0788 0.0000 0.0000 0.0000
# 3 18.4854 25.0788 46.1484 0.0000 0.0000 0.0000
# 4 0.0000 0.0000 0.0000 -34.8142 0.0000 0.0000
# 5 0.0000 0.0000 0.0000 0.0000 193.3136 0.0000
# 6 0.0000 0.0000 0.0000 0.0000 0.0000 25.6261
#
#
#
# Elastic Compliance Matrix: (Units=1/GPa)
#
#
# Indices 1 2 3 4 5 6 
#
# 1 0.012395 -0.007145 -0.001082 0.000000 0.000000 0.000000
# 2 -0.007145 0.016636 -0.006179 0.000000 0.000000 0.000000
# 3 -0.001082 -0.006179 0.025461 0.000000 0.000000 0.000000
# 4 0.000000 0.000000 0.000000 -0.028724 0.000000 0.000000
# 5 0.000000 0.000000 0.000000 0.000000 0.005173 0.000000
# 6 0.000000 0.000000 0.000000 0.000000 0.000000 0.039023
#
#
# Mechanical properties :
#
#
# Convention : Reuss Voigt Hill
#
# Bulk Modulus (GPa) = 38.94066 50.40049 44.67058
# Shear Modulus (GPa) = 46.58266 47.13368 46.85817
#
# Velocity S-wave (km/s) = 4.71755 4.74537 4.73148
# Velocity P-wave (km/s) = 6.94823 7.35554 7.15479
#
# Compressibility (1/GPa) = 0.02568010
#
# Stress axis : x y z
#
# Youngs Moduli (GPa) = 80.67540 60.10953 39.27649
#
# Poissons Ratio (x) = 0.42948 0.04251
# Poissons Ratio (y) = 0.57643 0.24268
# Poissons Ratio (z) = 0.08731 0.37140
#
# Static dielectric constant tensor:
#      x y z
#    x 1.741480 0.000000 0.000000 
#    y 0.000000 1.756070 0.000000 
#    z 0.000000 0.000000 2.091160 
# 
# From -- ./inp_files/8853.got.cif
#   From: 2010.05.17/outbox.cif.g08.bks.cpg/sg63_5_cif.got.tgz:8853.got - 2010.06.03 15:47:04.
