data_PCOD9474838
_publ_section_title
;
Structure prediction by ZEFSAII (Michael W. Deem and Ramdas Pophale) SiO2 
 PCOD9474838
Probable space group: C M C M
;
_chemical_formula_sum "Si O2"
_cell_formula_units_Z 72
_cell_length_a 14.768336
_cell_length_b 30.543669
_cell_length_c 8.732927
_cell_angle_alpha 90.000000
_cell_angle_beta 90.000000
_cell_angle_gamma 90.000000
_cell_volume 3939.241432
_symmetry_space_group_name_H-M "C M C M"
_symmetry_group_IT_number 63
_symmetry_cell_setting 'orthorhombic'
loop_
_space_group_symop_operation_xyz
x,y,z
-x,-y,1/2+z
x,-y,-z
-x,y,1/2-z
-x,-y,-z
x,y,1/2-z
-x,y,z
x,-y,1/2+z
1/2+x,1/2+y,z
1/2-x,1/2-y,1/2+z
1/2+x,1/2-y,-z
1/2-x,1/2+y,1/2-z
1/2-x,1/2-y,-z
1/2+x,1/2+y,1/2-z
1/2-x,1/2+y,z
1/2+x,1/2-y,1/2+z
loop_
_atom_site_type_symbol
_atom_site_label
_atom_site_fract_x
_atom_site_fract_y
_atom_site_fract_z
Si Si1 0.809636 0.710507 0.432296
Si Si2 0.680607 0.371600 0.566301
Si Si3 0.000000 0.168181 0.568722
Si Si4 0.198423 0.548891 0.435158
Si Si5 0.500000 0.233935 0.932339
Si Si6 0.500000 0.049128 0.065535
O O1 0.817441 0.716344 0.250000
O O2 0.750000 0.750000 0.500000
O O3 0.755632 0.665812 0.461761
O O4 0.908992 0.711956 0.504259
O O5 0.664250 0.372638 0.750000
O O6 0.589139 0.357823 0.483064
O O7 0.723411 0.417755 0.517066
O O8 0.000000 0.215582 0.487926
O O9 0.000000 0.175026 0.750000
O O10 0.208402 0.500000 0.500000
O O11 0.199885 0.546583 0.250000
O O12 0.098348 0.567301 0.480721
O O13 0.500000 0.233182 0.750000
O O14 0.500000 0.047982 0.250000
O O15 0.500000 0.000000 0.000000
#
# Coordination Sequence:
#
# PCOD9474838 Si02
#       6
#    16  16   8  16   8   8
#     4  11  22  37  59  86 116 152 194 239 289 345
#     4  10  22  39  60  84 115 152 192 238 294 349
#     4  12  24  38  60  84 110 148 197 243 292 353
#     4   9  18  34  57  85 116 152 189 232 283 341
#     4  12  24  39  59  84 120 157 194 241 292 348
#     4   8  14  27  50  78 108 141 179 216 266 329
#
# _framework density 18.277632000000001
#
# number of rings (size 3 to 8) (size 9 to 14) (size 15 to 20)
#    0.000    1.778    2.222    2.667    0.000    2.667 
#    0.000    3.889    0.000    5.333    0.000    0.000 
#    0.000    0.000    0.000    0.000    0.000    0.000 
#
# Total GULP energy -200963.453257 kJ/mol
# GULP energy per Si atom -5582.318146 kJ/mol
# Density = 1.823603 g / cm^3
# Si number density = 18.277632 Si / 1000 Ang^3
#
#
#
# Elastic Constant Matrix: (Units=GPa)
#
#
# Indices 1 2 3 4 5 6 
#
# 1 165.4528 51.9320 72.0986 0.0000 0.0000 0.0000
# 2 51.9320 75.0162 45.8918 0.0000 0.0000 0.0000
# 3 72.0986 45.8918 66.9610 0.0000 0.0000 0.0000
# 4 0.0000 0.0000 0.0000 22.6293 0.0000 0.0000
# 5 0.0000 0.0000 0.0000 0.0000 32.5222 0.0000
# 6 0.0000 0.0000 0.0000 0.0000 0.0000 21.1041
#
#
#
# Elastic Compliance Matrix: (Units=1/GPa)
#
#
# Indices 1 2 3 4 5 6 
#
# 1 0.011406 -0.000660 -0.011829 0.000000 0.000000 0.000000
# 2 -0.000660 0.022993 -0.015048 0.000000 0.000000 0.000000
# 3 -0.011829 -0.015048 0.037983 0.000000 0.000000 0.000000
# 4 0.000000 0.000000 0.000000 0.044190 0.000000 0.000000
# 5 0.000000 0.000000 0.000000 0.000000 0.030748 0.000000
# 6 0.000000 0.000000 0.000000 0.000000 0.000000 0.047384
#
#
# Mechanical properties :
#
#
# Convention : Reuss Voigt Hill
#
# Bulk Modulus (GPa) = 57.77197 71.91941 64.84569
# Shear Modulus (GPa) = 19.56591 24.41830 21.99211
#
# Velocity S-wave (km/s) = 3.27537 3.65905 3.47252
# Velocity P-wave (km/s) = 6.78091 7.56870 7.18561
#
# Compressibility (1/GPa) = 0.01730943
#
# Stress axis : x y z
#
# Youngs Moduli (GPa) = 87.67673 43.49201 26.32734
#
# Poissons Ratio (x) = 0.02869 0.31142
# Poissons Ratio (y) = 0.05783 0.39617
# Poissons Ratio (z) = 1.03709 0.65446
#
# Static dielectric constant tensor:
#      x y z
#    x 1.631670 0.000000 0.000000 
#    y 0.000000 1.603470 0.000000 
#    z 0.000000 0.000000 1.617960 
# 
# From -- ./inp_files/4964.got.cif
#   From: 2010.05.17/outbox.cif.g08.bks.cpg/sg63_3_cif.got.tgz:4964.got - 2010.06.03 15:47:04.
