data_PCOD9474870
_publ_section_title
;
Structure prediction by ZEFSAII (Michael W. Deem and Ramdas Pophale) SiO2 
 PCOD9474870
Probable space group: C M C M
;
_chemical_formula_sum "Si O2"
_cell_formula_units_Z 68
_cell_length_a 7.877704
_cell_length_b 19.216521
_cell_length_c 19.328320
_cell_angle_alpha 90.000000
_cell_angle_beta 90.000000
_cell_angle_gamma 90.000000
_cell_volume 2925.960982
_symmetry_space_group_name_H-M "C M C M"
_symmetry_group_IT_number 63
_symmetry_cell_setting 'orthorhombic'
loop_
_space_group_symop_operation_xyz
x,y,z
-x,-y,1/2+z
x,-y,-z
-x,y,1/2-z
-x,-y,-z
x,y,1/2-z
-x,y,z
x,-y,1/2+z
1/2+x,1/2+y,z
1/2-x,1/2-y,1/2+z
1/2+x,1/2-y,-z
1/2-x,1/2+y,1/2-z
1/2-x,1/2-y,-z
1/2+x,1/2+y,1/2-z
1/2-x,1/2+y,z
1/2+x,1/2-y,1/2+z
loop_
_atom_site_type_symbol
_atom_site_label
_atom_site_fract_x
_atom_site_fract_y
_atom_site_fract_z
Si Si1 0.801099 0.221403 0.824307
Si Si2 0.686855 0.988667 0.115152
Si Si3 0.000000 0.443458 0.250000
Si Si4 0.199124 0.144357 0.957268
Si Si5 0.299786 0.643698 0.388433
O O1 0.721718 0.202438 0.750000
O O2 0.723879 0.187405 0.893304
O O3 0.788460 0.303932 0.835825
O O4 0.000000 0.201507 0.822128
O O5 0.500000 0.003467 0.084799
O O6 0.773382 0.062613 0.126524
O O7 0.645918 0.951880 0.188271
O O8 0.782087 0.935861 0.064899
O O9 0.000000 0.161646 0.961622
O O10 0.269066 0.157194 0.033671
O O11 0.500000 0.658553 0.386085
#
# Coordination Sequence:
#
# PCOD9474870 Si02
#       5
#    16  16   4  16  16
#     4  10  23  40  61  85 119 160 201 242 299 361
#     4  10  22  39  63  86 122 157 196 244 297 354
#     4   8  24  40  56  92 128 152 200 246 296 360
#     4  10  22  41  63  90 121 155 199 249 300 355
#     4  11  23  39  61  91 122 155 200 250 297 352
#
# _framework density 23.240227999999998
#
# number of rings (size 3 to 8) (size 9 to 14) (size 15 to 20)
#    0.706    1.176    0.000    2.824    3.294    6.118 
#    0.000    1.176    0.000    0.000    0.000    0.000 
#    0.000    0.000    0.000    0.000    0.000    0.000 
#
# Total GULP energy -189338.860533 kJ/mol
# GULP energy per Si atom -5568.790016 kJ/mol
# Density = 2.318733 g / cm^3
# Si number density = 23.240228 Si / 1000 Ang^3
#
#
#
# Elastic Constant Matrix: (Units=GPa)
#
#
# Indices 1 2 3 4 5 6 
#
# 1 30.8035 -18.7926 3.7084 0.0000 0.0000 0.0000
# 2 -18.7926 71.5990 4.0547 0.0000 0.0000 0.0000
# 3 3.7084 4.0547 116.3263 0.0000 0.0000 0.0000
# 4 0.0000 0.0000 0.0000 23.8976 0.0000 0.0000
# 5 0.0000 0.0000 0.0000 0.0000 25.8205 0.0000
# 6 0.0000 0.0000 0.0000 0.0000 0.0000 4.8183
#
#
#
# Elastic Compliance Matrix: (Units=1/GPa)
#
#
# Indices 1 2 3 4 5 6 
#
# 1 0.038949 0.010314 -0.001601 0.000000 0.000000 0.000000
# 2 0.010314 0.016725 -0.000912 0.000000 0.000000 0.000000
# 3 -0.001601 -0.000912 0.008679 0.000000 0.000000 0.000000
# 4 0.000000 0.000000 0.000000 0.041845 0.000000 0.000000
# 5 0.000000 0.000000 0.000000 0.000000 0.038729 0.000000
# 6 0.000000 0.000000 0.000000 0.000000 0.000000 0.207544
#
#
# Mechanical properties :
#
#
# Convention : Reuss Voigt Hill
#
# Bulk Modulus (GPa) = 12.50713 21.85223 17.17968
# Shear Modulus (GPa) = 13.75435 26.22449 19.98942
#
# Velocity S-wave (km/s) = 2.43540 3.36282 2.93596
# Velocity P-wave (km/s) = 3.64714 4.94988 4.34758
#
# Compressibility (1/GPa) = 0.07995441
#
# Stress axis : x y z
#
# Youngs Moduli (GPa) = 25.67485 59.78965 115.21625
#
# Poissons Ratio (x) = -0.61664 0.18448
# Poissons Ratio (y) = -0.26480 0.10505
# Poissons Ratio (z) = 0.04111 0.05451
#
# Static dielectric constant tensor:
#      x y z
#    x 1.874900 0.000000 0.000000 
#    y 0.000000 1.899570 0.000000 
#    z 0.000000 0.000000 1.903220 
# 
# From -- ./inp_files/50464.got.cif
#   From: 2010.05.17/outbox.cif.g08.bks.cpg/sg63_26_cif.got.tgz:50464.got - 2010.06.03 15:47:04.
