data_PCOD9474701
_publ_section_title
;
Structure prediction by ZEFSAII (Michael W. Deem and Ramdas Pophale) SiO2 
 PCOD9474701
Probable space group: C M C M
;
_chemical_formula_sum "Si O2"
_cell_formula_units_Z 96
_cell_length_a 11.914714
_cell_length_b 32.656629
_cell_length_c 13.706147
_cell_angle_alpha 90.000000
_cell_angle_beta 90.000000
_cell_angle_gamma 90.000000
_cell_volume 5332.984971
_symmetry_space_group_name_H-M "C M C M"
_symmetry_group_IT_number 63
_symmetry_cell_setting 'orthorhombic'
loop_
_space_group_symop_operation_xyz
x,y,z
-x,-y,1/2+z
x,-y,-z
-x,y,1/2-z
-x,-y,-z
x,y,1/2-z
-x,y,z
x,-y,1/2+z
1/2+x,1/2+y,z
1/2-x,1/2-y,1/2+z
1/2+x,1/2-y,-z
1/2-x,1/2+y,1/2-z
1/2-x,1/2-y,-z
1/2+x,1/2+y,1/2-z
1/2-x,1/2+y,z
1/2+x,1/2-y,1/2+z
loop_
_atom_site_type_symbol
_atom_site_label
_atom_site_fract_x
_atom_site_fract_y
_atom_site_fract_z
Si Si1 0.864101 0.564565 0.945081
Si Si2 0.250815 0.277464 0.133532
Si Si3 0.500000 0.839643 0.864550
Si Si4 0.632603 0.310448 0.636371
Si Si5 0.135798 0.479388 0.644845
Si Si6 0.293360 0.851807 0.002410
Si Si7 0.500000 0.258751 0.365101
O O1 0.832345 0.547721 0.052575
O O2 0.801428 0.607359 0.933402
O O3 0.000000 0.570412 0.939981
O O4 0.835206 0.526932 0.874241
O O5 0.247055 0.285902 0.250000
O O6 0.196772 0.232708 0.120328
O O7 0.380971 0.275467 0.099000
O O8 0.190225 0.312440 0.071766
O O9 0.500000 0.850404 0.750000
O O10 0.391938 0.855059 0.922393
O O11 0.500000 0.790322 0.873186
O O12 0.654815 0.321868 0.750000
O O13 0.500000 0.304597 0.624945
O O14 0.682786 0.343106 0.561171
O O15 0.177113 0.465242 0.750000
O O16 0.000000 0.478139 0.645108
O O17 0.500000 0.267762 0.250000
#
# Coordination Sequence:
#
# PCOD9474701 Si02
#       7
#    16  16   8  16  16  16   8
#     4   9  18  31  45  76 106 125 169 203 237 316
#     4  10  22  36  52  74 101 139 184 222 261 308
#     4  11  22  34  51  76 102 134 180 226 261 300
#     4  10  22  37  51  72 103 139 182 224 259 305
#     4   8  15  30  51  70  99 136 158 193 252 306
#     4  12  22  32  53  76 107 139 172 216 266 299
#     4   9  18  36  54  71  96 131 183 228 254 302
#
# _framework density 18.001176000000001
#
# number of rings (size 3 to 8) (size 9 to 14) (size 15 to 20)
#    0.000    2.167    2.500    2.000    2.333    2.000 
#    0.000    0.000    0.000    0.000    0.000    2.333 
#    0.000    1.333    0.000    0.000    0.000    0.000 
#
# Total GULP energy -267737.615284 kJ/mol
# GULP energy per Si atom -5577.866985 kJ/mol
# Density = 1.796020 g / cm^3
# Si number density = 18.001176 Si / 1000 Ang^3
#
#
#
# Elastic Constant Matrix: (Units=GPa)
#
#
# Indices 1 2 3 4 5 6 
#
# 1 53.9390 5.8313 4.0356 0.0000 0.0000 0.0000
# 2 5.8313 36.6883 -15.1125 0.0000 0.0000 0.0000
# 3 4.0356 -15.1125 50.1320 0.0000 0.0000 0.0000
# 4 0.0000 0.0000 0.0000 5.3389 0.0000 0.0000
# 5 0.0000 0.0000 0.0000 0.0000 20.5753 0.0000
# 6 0.0000 0.0000 0.0000 0.0000 0.0000 17.7381
#
#
#
# Elastic Compliance Matrix: (Units=1/GPa)
#
#
# Indices 1 2 3 4 5 6 
#
# 1 0.019206 -0.004212 -0.002816 0.000000 0.000000 0.000000
# 2 -0.004212 0.032045 0.009999 0.000000 0.000000 0.000000
# 3 -0.002816 0.009999 0.023188 0.000000 0.000000 0.000000
# 4 0.000000 0.000000 0.000000 0.187305 0.000000 0.000000
# 5 0.000000 0.000000 0.000000 0.000000 0.048602 0.000000
# 6 0.000000 0.000000 0.000000 0.000000 0.000000 0.056376
#
#
# Mechanical properties :
#
#
# Convention : Reuss Voigt Hill
#
# Bulk Modulus (GPa) = 12.44081 14.47422 13.45751
# Shear Modulus (GPa) = 12.90079 18.46413 15.68246
#
# Velocity S-wave (km/s) = 2.67996 3.20616 2.95480
# Velocity P-wave (km/s) = 4.06231 4.66520 4.37416
#
# Compressibility (1/GPa) = 0.08038064
#
# Stress axis : x y z
#
# Youngs Moduli (GPa) = 52.06826 31.20605 43.12512
#
# Poissons Ratio (x) = 0.13145 0.12144
# Poissons Ratio (y) = 0.21934 -0.43122
# Poissons Ratio (z) = 0.14662 -0.31204
#
# Static dielectric constant tensor:
#      x y z
#    x 1.610660 0.000000 0.000000 
#    y 0.000000 1.617380 0.000000 
#    z 0.000000 0.000000 1.668920 
# 
# From -- ./inp_files/30339.got.cif
#   From: 2010.05.17/outbox.cif.g08.bks.cpg/sg63_16_cif.got.tgz:30339.got - 2010.06.03 15:47:04.
