data_PCOD9474728
_publ_section_title
;
Structure prediction by ZEFSAII (Michael W. Deem and Ramdas Pophale) SiO2 
 PCOD9474728
Probable space group: C M C M
;
_chemical_formula_sum "Si O2"
_cell_formula_units_Z 100
_cell_length_a 14.947252
_cell_length_b 22.452050
_cell_length_c 17.111559
_cell_angle_alpha 90.000000
_cell_angle_beta 90.000000
_cell_angle_gamma 90.000000
_cell_volume 5742.578442
_symmetry_space_group_name_H-M "C M C M"
_symmetry_group_IT_number 63
_symmetry_cell_setting 'orthorhombic'
loop_
_space_group_symop_operation_xyz
x,y,z
-x,-y,1/2+z
x,-y,-z
-x,y,1/2-z
-x,-y,-z
x,y,1/2-z
-x,y,z
x,-y,1/2+z
1/2+x,1/2+y,z
1/2-x,1/2-y,1/2+z
1/2+x,1/2-y,-z
1/2-x,1/2+y,1/2-z
1/2-x,1/2-y,-z
1/2+x,1/2+y,1/2-z
1/2-x,1/2+y,z
1/2+x,1/2-y,1/2+z
loop_
_atom_site_type_symbol
_atom_site_label
_atom_site_fract_x
_atom_site_fract_y
_atom_site_fract_z
Si Si1 0.392102 0.089837 0.917931
Si Si2 0.738631 0.819725 0.338558
Si Si3 0.831694 0.642520 0.416596
Si Si4 0.899796 0.223476 0.562330
Si Si5 0.644785 0.302871 0.884321
Si Si6 0.000000 0.168781 0.250000
Si Si7 0.392955 0.028738 0.335875
O O1 0.500000 0.097484 0.909404
O O2 0.334572 0.130668 0.859713
O O3 0.368770 0.021315 0.899278
O O4 0.362005 0.111798 0.002827
O O5 0.770230 0.826542 0.250000
O O6 0.822477 0.816085 0.397663
O O7 0.688209 0.756874 0.348677
O O8 0.877107 0.707773 0.416203
O O9 0.726535 0.653743 0.406392
O O10 0.860512 0.595077 0.352163
O O11 0.895407 0.216092 0.468495
O O12 0.000000 0.208882 0.588866
O O13 0.577478 0.327987 0.819969
O O14 0.363191 0.008333 0.250000
O O15 0.500000 0.030829 0.336691
#
# Coordination Sequence:
#
# PCOD9474728 Si02
#       7
#    16  16  16  16  16   4  16
#     4  11  21  35  58  85 116 158 201 240 293 353
#     4  11  22  35  54  85 119 151 198 243 292 353
#     4  11  21  36  58  82 116 155 192 234 293 361
#     4  11  21  38  58  82 117 159 194 242 296 352
#     4  11  22  37  56  87 118 148 192 243 299 348
#     4  12  24  36  64  92 114 158 196 248 308 340
#     4  10  22  37  52  82 119 155 196 242 289 347
#
# _framework density 17.413781
#
# number of rings (size 3 to 8) (size 9 to 14) (size 15 to 20)
#    0.000    1.120    4.800    3.360    2.240    3.200 
#    0.000    0.000    0.000    0.000    2.080    2.240 
#    0.000    0.000    0.000    0.000    0.000    0.000 
#
# Total GULP energy -278349.003120 kJ/mol
# GULP energy per Si atom -5566.980062 kJ/mol
# Density = 1.737415 g / cm^3
# Si number density = 17.413781 Si / 1000 Ang^3
#
#
#
# Elastic Constant Matrix: (Units=GPa)
#
#
# Indices 1 2 3 4 5 6 
#
# 1 100.9849 25.7045 51.6758 0.0000 0.0000 0.0000
# 2 25.7045 63.3937 24.6214 0.0000 0.0000 0.0000
# 3 51.6758 24.6214 73.7909 0.0000 0.0000 0.0000
# 4 0.0000 0.0000 0.0000 6.3508 0.0000 0.0000
# 5 0.0000 0.0000 0.0000 0.0000 31.6281 0.0000
# 6 0.0000 0.0000 0.0000 0.0000 0.0000 13.8665
#
#
#
# Elastic Compliance Matrix: (Units=1/GPa)
#
#
# Indices 1 2 3 4 5 6 
#
# 1 0.015748 -0.002415 -0.010223 0.000000 0.000000 0.000000
# 2 -0.002415 0.018493 -0.004479 0.000000 0.000000 0.000000
# 3 -0.010223 -0.004479 0.022205 0.000000 0.000000 0.000000
# 4 0.000000 0.000000 0.000000 0.157461 0.000000 0.000000
# 5 0.000000 0.000000 0.000000 0.000000 0.031617 0.000000
# 6 0.000000 0.000000 0.000000 0.000000 0.000000 0.072116
#
#
# Mechanical properties :
#
#
# Convention : Reuss Voigt Hill
#
# Bulk Modulus (GPa) = 45.01902 49.13033 47.07467
# Shear Modulus (GPa) = 13.91671 19.44692 16.68182
#
# Velocity S-wave (km/s) = 2.83004 3.34541 3.09846
# Velocity P-wave (km/s) = 6.04876 6.57245 6.31604
#
# Compressibility (1/GPa) = 0.02221283
#
# Stress axis : x y z
#
# Youngs Moduli (GPa) = 63.49858 54.07333 45.03410
#
# Poissons Ratio (x) = 0.13060 0.46037
# Poissons Ratio (y) = 0.15336 0.20172
# Poissons Ratio (z) = 0.64913 0.24221
#
# Static dielectric constant tensor:
#      x y z
#    x 1.595290 0.000000 0.000000 
#    y 0.000000 1.586250 0.000000 
#    z 0.000000 0.000000 1.633510 
# 
# From -- ./inp_files/32217.got.cif
#   From: 2010.05.17/outbox.cif.g08.bks.cpg/sg63_17_cif.got.tgz:32217.got - 2010.06.03 15:47:04.
