data_PCOD9474339
_publ_section_title
;
Structure prediction by ZEFSAII (Michael W. Deem and Ramdas Pophale) SiO2 
 PCOD9474339
Probable space group: C M C M
;
_chemical_formula_sum "Si O2"
_cell_formula_units_Z 72
_cell_length_a 19.781507
_cell_length_b 19.904990
_cell_length_c 9.139079
_cell_angle_alpha 90.000000
_cell_angle_beta 90.000000
_cell_angle_gamma 90.000000
_cell_volume 3598.518745
_symmetry_space_group_name_H-M "C M C M"
_symmetry_group_IT_number 63
_symmetry_cell_setting 'orthorhombic'
loop_
_space_group_symop_operation_xyz
x,y,z
-x,-y,1/2+z
x,-y,-z
-x,y,1/2-z
-x,-y,-z
x,y,1/2-z
-x,y,z
x,-y,1/2+z
1/2+x,1/2+y,z
1/2-x,1/2-y,1/2+z
1/2+x,1/2-y,-z
1/2-x,1/2+y,1/2-z
1/2-x,1/2-y,-z
1/2+x,1/2+y,1/2-z
1/2-x,1/2+y,z
1/2+x,1/2-y,1/2+z
loop_
_atom_site_type_symbol
_atom_site_label
_atom_site_fract_x
_atom_site_fract_y
_atom_site_fract_z
Si Si1 0.130693 0.164595 0.425069
Si Si2 0.921254 0.294175 0.918722
Si Si3 0.391383 0.068318 0.580630
Si Si4 0.228221 0.068226 0.580985
Si Si5 0.000000 0.927213 0.925234
O O1 0.135696 0.168445 0.250000
O O2 0.118668 0.237659 0.492727
O O3 0.195780 0.129948 0.495567
O O4 0.066469 0.116687 0.462401
O O5 0.898627 0.298193 0.750000
O O6 0.000000 0.274200 0.920172
O O7 0.915522 0.366173 0.995393
O O8 0.412866 0.068706 0.750000
O O9 0.309451 0.070357 0.577960
O O10 0.412779 0.000000 0.500000
O O11 0.206180 0.067592 0.750000
O O12 0.206344 0.000000 0.500000
O O13 0.000000 0.936640 0.750000
O O14 0.000000 0.000000 0.000000
#
# Coordination Sequence:
#
# PCOD9474339 Si02
#       5
#    16  16  16  16   8
#     4  11  22  38  59  85 119 160 200 243 295 351
#     4  11  24  41  62  88 119 156 198 247 299 354
#     4  10  22  41  65  90 119 154 195 246 298 355
#     4  10  21  38  60  89 121 156 199 245 295 350
#     4  10  22  36  54  82 115 154 199 240 284 340
#
# _framework density 20.008234000000002
#
# number of rings (size 3 to 8) (size 9 to 14) (size 15 to 20)
#    0.000    1.556    1.111    3.333    0.000    8.889 
#    0.000    0.000    0.000    0.000    0.000    0.000 
#    0.000    0.000    0.000    0.000    0.000    0.000 
#
# Total GULP energy -201343.509329 kJ/mol
# GULP energy per Si atom -5592.875259 kJ/mol
# Density = 1.996269 g / cm^3
# Si number density = 20.008234 Si / 1000 Ang^3
#
#
#
# Elastic Constant Matrix: (Units=GPa)
#
#
# Indices 1 2 3 4 5 6 
#
# 1 29.6644 17.4672 28.3521 0.0000 0.0000 0.0000
# 2 17.4672 146.8056 71.0586 0.0000 0.0000 0.0000
# 3 28.3521 71.0586 150.3932 0.0000 0.0000 0.0000
# 4 0.0000 0.0000 0.0000 44.2389 0.0000 0.0000
# 5 0.0000 0.0000 0.0000 0.0000 -52.6647 0.0000
# 6 0.0000 0.0000 0.0000 0.0000 0.0000 16.4745
#
#
#
# Elastic Compliance Matrix: (Units=1/GPa)
#
#
# Indices 1 2 3 4 5 6 
#
# 1 0.041368 -0.001487 -0.007096 0.000000 0.000000 0.000000
# 2 -0.001487 0.008885 -0.003918 0.000000 0.000000 0.000000
# 3 -0.007096 -0.003918 0.009838 0.000000 0.000000 0.000000
# 4 0.000000 0.000000 0.000000 0.022605 0.000000 0.000000
# 5 0.000000 0.000000 0.000000 0.000000 -0.018988 0.000000
# 6 0.000000 0.000000 0.000000 0.000000 0.000000 0.060700
#
#
# Mechanical properties :
#
#
# Convention : Reuss Voigt Hill
#
# Bulk Modulus (GPa) = 28.49876 62.29103 45.39489
# Shear Modulus (GPa) = 31.03549 15.60876 23.32212
#
# Velocity S-wave (km/s) = 3.94272 2.79609 3.41783
# Velocity P-wave (km/s) = 5.91618 6.45170 6.18973
#
# Compressibility (1/GPa) = 0.03508925
#
# Stress axis : x y z
#
# Youngs Moduli (GPa) = 24.17311 112.54992 101.64690
#
# Poissons Ratio (x) = 0.16741 0.72128
# Poissons Ratio (y) = 0.03596 0.39821
# Poissons Ratio (z) = 0.17153 0.44093
#
# Static dielectric constant tensor:
#      x y z
#    x 1.723100 0.000000 0.000000 
#    y 0.000000 1.662910 0.000000 
#    z 0.000000 0.000000 1.672250 
# 
# From -- ./inp_files/9880.got.cif
#   From: 2010.05.17/outbox.cif.g08.bks.cpg/sg63_5_cif.got.tgz:9880.got - 2010.06.03 15:47:04.
