data_PCOD9474756
_publ_section_title
;
Structure prediction by ZEFSAII (Michael W. Deem and Ramdas Pophale) SiO2 
 PCOD9474756
Probable space group: C M C M
;
_chemical_formula_sum "Si O2"
_cell_formula_units_Z 64
_cell_length_a 19.568789
_cell_length_b 13.876587
_cell_length_c 10.888743
_cell_angle_alpha 90.000000
_cell_angle_beta 90.000000
_cell_angle_gamma 90.000000
_cell_volume 2956.816417
_symmetry_space_group_name_H-M "C M C M"
_symmetry_group_IT_number 63
_symmetry_cell_setting 'orthorhombic'
loop_
_space_group_symop_operation_xyz
x,y,z
-x,-y,1/2+z
x,-y,-z
-x,y,1/2-z
-x,-y,-z
x,y,1/2-z
-x,y,z
x,-y,1/2+z
1/2+x,1/2+y,z
1/2-x,1/2-y,1/2+z
1/2+x,1/2-y,-z
1/2-x,1/2+y,1/2-z
1/2-x,1/2-y,-z
1/2+x,1/2+y,1/2-z
1/2-x,1/2+y,z
1/2+x,1/2-y,1/2+z
loop_
_atom_site_type_symbol
_atom_site_label
_atom_site_fract_x
_atom_site_fract_y
_atom_site_fract_z
Si Si1 0.076536 0.420050 0.892523
Si Si2 0.280914 0.185160 0.390237
Si Si3 0.644440 0.399950 0.619742
Si Si4 0.919326 0.113692 0.618134
O O1 0.080881 0.456929 0.750000
O O2 0.142596 0.352614 0.908180
O O3 0.000000 0.374022 0.902074
O O4 0.079662 0.500000 0.000000
O O5 0.275286 0.226585 0.250000
O O6 0.250000 0.250000 0.500000
O O7 0.226040 0.097158 0.390368
O O8 0.626919 0.352670 0.750000
O O9 0.612997 0.344983 0.504390
O O10 0.612863 0.506563 0.623639
O O11 0.906112 0.161247 0.750000
O O12 0.000000 0.104629 0.603818
#
# Coordination Sequence:
#
# PCOD9474756 Si02
#       4
#    16  16  16  16
#     4   9  19  37  61  88 116 147 188 240 293 343
#     4  10  22  38  55  80 113 148 185 229 281 337
#     4   9  17  29  46  69  99 134 172 213 260 310
#     4   9  17  29  47  74 105 135 170 211 257 313
#
# _framework density 21.6449
#
# number of rings (size 3 to 8) (size 9 to 14) (size 15 to 20)
#    0.000    2.750    0.000    1.500    3.500    3.500 
#    0.000    2.500    0.000    6.000    0.000    0.000 
#    0.000    0.000    0.000    0.000    0.000    0.000 
#
# Total GULP energy -178160.675710 kJ/mol
# GULP energy per Si atom -5567.521116 kJ/mol
# Density = 2.159564 g / cm^3
# Si number density = 21.644900 Si / 1000 Ang^3
#
#
#
# Elastic Constant Matrix: (Units=GPa)
#
#
# Indices 1 2 3 4 5 6 
#
# 1 190.3479 48.6686 96.8081 0.0000 0.0000 0.0000
# 2 48.6686 36.8419 38.9609 0.0000 0.0000 0.0000
# 3 96.8081 38.9609 225.1263 0.0000 0.0000 0.0000
# 4 0.0000 0.0000 0.0000 17.4045 0.0000 0.0000
# 5 0.0000 0.0000 0.0000 0.0000 48.4823 0.0000
# 6 0.0000 0.0000 0.0000 0.0000 0.0000 44.1557
#
#
#
# Elastic Compliance Matrix: (Units=1/GPa)
#
#
# Indices 1 2 3 4 5 6 
#
# 1 0.008705 -0.009230 -0.002146 0.000000 0.000000 0.000000
# 2 -0.009230 0.043010 -0.003474 0.000000 0.000000 0.000000
# 3 -0.002146 -0.003474 0.005966 0.000000 0.000000 0.000000
# 4 0.000000 0.000000 0.000000 0.057456 0.000000 0.000000
# 5 0.000000 0.000000 0.000000 0.000000 0.020626 0.000000
# 6 0.000000 0.000000 0.000000 0.000000 0.000000 0.022647
#
#
# Mechanical properties :
#
#
# Convention : Reuss Voigt Hill
#
# Bulk Modulus (GPa) = 35.73917 91.24347 63.49132
# Shear Modulus (GPa) = 25.32446 39.86706 32.59576
#
# Velocity S-wave (km/s) = 3.42423 4.29636 3.88484
# Velocity P-wave (km/s) = 5.67285 8.17666 7.03701
#
# Compressibility (1/GPa) = 0.02798050
#
# Stress axis : x y z
#
# Youngs Moduli (GPa) = 114.87903 23.25043 167.61637
#
# Poissons Ratio (x) = 0.21460 0.35968
# Poissons Ratio (y) = 1.06032 0.58237
# Poissons Ratio (z) = 0.24652 0.08078
#
# Static dielectric constant tensor:
#      x y z
#    x 1.783860 0.000000 0.000000 
#    y 0.000000 1.774130 0.000000 
#    z 0.000000 0.000000 1.891950 
# 
# From -- ./inp_files/20561.got.cif
#   From: 2010.05.17/outbox.cif.g08.bks.cpg/sg63_11_cif.got.tgz:20561.got - 2010.06.03 15:47:04.
