data_PCOD9474634
_publ_section_title
;
Structure prediction by ZEFSAII (Michael W. Deem and Ramdas Pophale) SiO2 
 PCOD9474634
Probable space group: C M C M
;
_chemical_formula_sum "Si O2"
_cell_formula_units_Z 116
_cell_length_a 23.833622
_cell_length_b 9.630989
_cell_length_c 24.644210
_cell_angle_alpha 90.000000
_cell_angle_beta 90.000000
_cell_angle_gamma 90.000000
_cell_volume 5656.865265
_symmetry_space_group_name_H-M "C M C M"
_symmetry_group_IT_number 63
_symmetry_cell_setting 'orthorhombic'
loop_
_space_group_symop_operation_xyz
x,y,z
-x,-y,1/2+z
x,-y,-z
-x,y,1/2-z
-x,-y,-z
x,y,1/2-z
-x,y,z
x,-y,1/2+z
1/2+x,1/2+y,z
1/2-x,1/2-y,1/2+z
1/2+x,1/2-y,-z
1/2-x,1/2+y,1/2-z
1/2-x,1/2-y,-z
1/2+x,1/2+y,1/2-z
1/2-x,1/2+y,z
1/2+x,1/2-y,1/2+z
loop_
_atom_site_type_symbol
_atom_site_label
_atom_site_fract_x
_atom_site_fract_y
_atom_site_fract_z
Si Si1 0.500000 0.934171 0.250000
Si Si2 0.689864 0.264440 0.313081
Si Si3 0.114503 0.168006 0.902556
Si Si4 0.933071 0.344178 0.993541
Si Si5 0.731452 0.626971 0.961351
Si Si6 0.283513 0.033021 0.647025
Si Si7 0.395088 0.824855 0.190496
Si Si8 0.432428 0.358775 0.590474
O O1 0.449915 0.917755 0.203389
O O2 0.684203 0.231857 0.250000
O O3 0.629966 0.298132 0.340600
O O4 0.732090 0.393088 0.321839
O O5 0.716819 0.131282 0.343254
O O6 0.079531 0.282897 0.934456
O O7 0.175441 0.168416 0.930157
O O8 0.088243 0.016810 0.911516
O O9 0.000000 0.351682 0.000932
O O10 0.909809 0.500000 0.000000
O O11 0.912645 0.234610 0.039202
O O12 0.775508 0.577391 0.915589
O O13 0.718036 0.500000 0.000000
O O14 0.750000 0.750000 0.000000
O O15 0.342000 0.088795 0.670393
O O16 0.381855 0.760395 0.250000
O O17 0.410275 0.712511 0.145236
O O18 0.500000 0.359137 0.590703
#
# Coordination Sequence:
#
# PCOD9474634 Si02
#       8
#     4  16  16  16  16  16  16  16
#     4   8  20  44  64 104 126 164 238 290 326 404
#     4  11  25  45  65 101 134 180 232 276 339 422
#     4  11  25  39  65  95 136 173 217 284 345 399
#     4  10  23  42  65  95 128 175 232 284 342 412
#     4  11  24  41  60  94 133 173 219 269 328 414
#     4  11  25  43  69  96 136 180 227 277 343 400
#     4  10  21  40  67  99 126 171 224 284 331 395
#     4  11  22  41  69  97 131 175 227 279 349 417
#
# _framework density 20.506057999999999
#
# number of rings (size 3 to 8) (size 9 to 14) (size 15 to 20)
#    0.414    0.966    0.690    4.552    9.655    2.207 
#    0.000    0.000    1.517    1.241    0.000    0.000 
#    0.000    0.000    0.000    0.000    0.000    0.000 
#
# Total GULP energy -323508.755124 kJ/mol
# GULP energy per Si atom -5577.737157 kJ/mol
# Density = 2.045939 g / cm^3
# Si number density = 20.506058 Si / 1000 Ang^3
#
#
#
# Elastic Constant Matrix: (Units=GPa)
#
#
# Indices 1 2 3 4 5 6 
#
# 1 17.4395 5.8011 12.4962 0.0000 0.0000 0.0000
# 2 5.8011 112.1708 21.4517 0.0000 0.0000 0.0000
# 3 12.4962 21.4517 100.0088 0.0000 0.0000 0.0000
# 4 0.0000 0.0000 0.0000 15.7767 0.0000 0.0000
# 5 0.0000 0.0000 0.0000 0.0000 38.0305 0.0000
# 6 0.0000 0.0000 0.0000 0.0000 0.0000 30.7679
#
#
#
# Elastic Compliance Matrix: (Units=1/GPa)
#
#
# Indices 1 2 3 4 5 6 
#
# 1 0.063341 -0.001838 -0.007520 0.000000 0.000000 0.000000
# 2 -0.001838 0.009350 -0.001776 0.000000 0.000000 0.000000
# 3 -0.007520 -0.001776 0.011320 0.000000 0.000000 0.000000
# 4 0.000000 0.000000 0.000000 0.063385 0.000000 0.000000
# 5 0.000000 0.000000 0.000000 0.000000 0.026295 0.000000
# 6 0.000000 0.000000 0.000000 0.000000 0.000000 0.032501
#
#
# Mechanical properties :
#
#
# Convention : Reuss Voigt Hill
#
# Bulk Modulus (GPa) = 16.19622 34.34636 25.27129
# Shear Modulus (GPa) = 20.07709 29.57301 24.82505
#
# Velocity S-wave (km/s) = 3.13242 3.80170 3.48317
# Velocity P-wave (km/s) = 4.58237 6.00469 5.34109
#
# Compressibility (1/GPa) = 0.06174280
#
# Stress axis : x y z
#
# Youngs Moduli (GPa) = 15.78752 106.95608 88.34140
#
# Poissons Ratio (x) = 0.19654 0.66436
# Poissons Ratio (y) = 0.02901 0.15688
# Poissons Ratio (z) = 0.11873 0.18994
#
# Static dielectric constant tensor:
#      x y z
#    x 1.715720 0.000000 0.000000 
#    y 0.000000 1.761770 0.000000 
#    z 0.000000 0.000000 1.777730 
# 
# From -- ./inp_files/65513.got.cif
#   From: 2010.05.17/outbox.cif.g08.bks.cpg/sg63_33_cif.got.tgz:65513.got - 2010.06.03 15:47:04.
