data_PCOD9474883
_publ_section_title
;
Structure prediction by ZEFSAII (Michael W. Deem and Ramdas Pophale) SiO2 
 PCOD9474883
Probable space group: C M C M
;
_chemical_formula_sum "Si O2"
_cell_formula_units_Z 64
_cell_length_a 18.600838
_cell_length_b 10.393260
_cell_length_c 15.644781
_cell_angle_alpha 90.000000
_cell_angle_beta 90.000000
_cell_angle_gamma 90.000000
_cell_volume 3024.501403
_symmetry_space_group_name_H-M "C M C M"
_symmetry_group_IT_number 63
_symmetry_cell_setting 'orthorhombic'
loop_
_space_group_symop_operation_xyz
x,y,z
-x,-y,1/2+z
x,-y,-z
-x,y,1/2-z
-x,-y,-z
x,y,1/2-z
-x,y,z
x,-y,1/2+z
1/2+x,1/2+y,z
1/2-x,1/2-y,1/2+z
1/2+x,1/2-y,-z
1/2-x,1/2+y,1/2-z
1/2-x,1/2-y,-z
1/2+x,1/2+y,1/2-z
1/2-x,1/2+y,z
1/2+x,1/2-y,1/2+z
loop_
_atom_site_type_symbol
_atom_site_label
_atom_site_fract_x
_atom_site_fract_y
_atom_site_fract_z
Si Si1 0.414331 0.561933 0.907573
Si Si2 0.289174 0.731143 0.647284
Si Si3 0.681470 0.993037 0.402817
Si Si4 0.913346 0.880191 0.750000
Si Si5 0.914368 0.415931 0.250000
O O1 0.500000 0.587445 0.900760
O O2 0.366246 0.686389 0.890023
O O3 0.393209 0.459865 0.833979
O O4 0.400539 0.500000 0.000000
O O5 0.290360 0.722517 0.750000
O O6 0.275629 0.876805 0.619197
O O7 0.232156 0.630202 0.610554
O O8 0.618287 0.981410 0.333796
O O9 0.656122 0.000000 0.500000
O O10 0.888559 0.733359 0.750000
O O11 0.000000 0.874149 0.750000
O O12 0.000000 0.419625 0.250000
#
# Coordination Sequence:
#
# PCOD9474883 Si02
#       5
#    16  16  16   8   8
#     4  10  22  39  65 100 137 179 230 281 337 402
#     4  12  24  44  69 103 136 183 224 287 345 404
#     4  12  28  47  72 102 139 183 230 284 347 410
#     4   9  20  38  62  93 130 178 215 269 336 395
#     4  11  26  46  70 101 139 184 231 281 349 411
#
# _framework density 21.160513999999999
#
# number of rings (size 3 to 8) (size 9 to 14) (size 15 to 20)
#    0.000    1.000    3.750    1.500    7.000    1.500 
#    0.000    0.000    0.000    0.000    0.000    0.000 
#    0.000    0.000    0.000    0.000    0.000    0.000 
#
# Total GULP energy -179134.154619 kJ/mol
# GULP energy per Si atom -5597.942332 kJ/mol
# Density = 2.111235 g / cm^3
# Si number density = 21.160514 Si / 1000 Ang^3
#
#
#
# Elastic Constant Matrix: (Units=GPa)
#
#
# Indices 1 2 3 4 5 6 
#
# 1 84.4879 29.1620 37.0078 0.0000 0.0000 0.0000
# 2 29.1620 113.9845 24.6861 0.0000 0.0000 0.0000
# 3 37.0078 24.6861 172.6757 0.0000 0.0000 0.0000
# 4 0.0000 0.0000 0.0000 17.1567 0.0000 0.0000
# 5 0.0000 0.0000 0.0000 0.0000 -7.2942 0.0000
# 6 0.0000 0.0000 0.0000 0.0000 0.0000 32.1064
#
#
#
# Elastic Compliance Matrix: (Units=1/GPa)
#
#
# Indices 1 2 3 4 5 6 
#
# 1 0.014006 -0.003027 -0.002569 0.000000 0.000000 0.000000
# 2 -0.003027 0.009708 -0.000739 0.000000 0.000000 0.000000
# 3 -0.002569 -0.000739 0.006447 0.000000 0.000000 0.000000
# 4 0.000000 0.000000 0.000000 0.058286 0.000000 0.000000
# 5 0.000000 0.000000 0.000000 0.000000 -0.137095 0.000000
# 6 0.000000 0.000000 0.000000 0.000000 0.000000 0.031146
#
#
# Mechanical properties :
#
#
# Convention : Reuss Voigt Hill
#
# Bulk Modulus (GPa) = 57.17224 61.42888 59.30056
# Shear Modulus (GPa) = 5002.86982 27.07994 2514.97488
#
# Velocity S-wave (km/s) = 48.67628 3.58123 34.51236
# Velocity P-wave (km/s) = 56.44689 6.79656 40.20226
#
# Compressibility (1/GPa) = 0.01749100
#
# Stress axis : x y z
#
# Youngs Moduli (GPa) = 71.39737 103.01194 155.09984
#
# Poissons Ratio (x) = 0.31181 0.39846
# Poissons Ratio (y) = 0.21612 0.11463
# Poissons Ratio (z) = 0.18342 0.07613
#
# Static dielectric constant tensor:
#      x y z
#    x 1.750620 0.000000 0.000000 
#    y 0.000000 1.760840 0.000000 
#    z 0.000000 0.000000 1.732260 
# 
# From -- ./inp_files/33416.got.cif
#   From: 2010.05.17/outbox.cif.g08.bks.cpg/sg63_17_cif.got.tgz:33416.got - 2010.06.03 15:47:04.
