data_PCOD9474680
_publ_section_title
;
Structure prediction by ZEFSAII (Michael W. Deem and Ramdas Pophale) SiO2 
 PCOD9474680
Probable space group: C M C M
;
_chemical_formula_sum "Si O2"
_cell_formula_units_Z 56
_cell_length_a 9.832369
_cell_length_b 11.846553
_cell_length_c 19.751423
_cell_angle_alpha 90.000000
_cell_angle_beta 90.000000
_cell_angle_gamma 90.000000
_cell_volume 2300.639440
_symmetry_space_group_name_H-M "C M C M"
_symmetry_group_IT_number 63
_symmetry_cell_setting 'orthorhombic'
loop_
_space_group_symop_operation_xyz
x,y,z
-x,-y,1/2+z
x,-y,-z
-x,y,1/2-z
-x,-y,-z
x,y,1/2-z
-x,y,z
x,-y,1/2+z
1/2+x,1/2+y,z
1/2-x,1/2-y,1/2+z
1/2+x,1/2-y,-z
1/2-x,1/2+y,1/2-z
1/2-x,1/2-y,-z
1/2+x,1/2+y,1/2-z
1/2-x,1/2+y,z
1/2+x,1/2-y,1/2+z
loop_
_atom_site_type_symbol
_atom_site_label
_atom_site_fract_x
_atom_site_fract_y
_atom_site_fract_z
Si Si1 0.265214 0.064800 0.399961
Si Si2 0.500000 0.116943 0.750000
Si Si3 0.500000 0.673246 0.750000
Si Si4 0.724797 0.516628 0.250000
Si Si5 0.500000 0.126019 0.600294
Si Si6 0.000000 0.137661 0.024477
Si Si7 0.000000 0.738399 0.398604
O O1 0.212629 0.076513 0.322217
O O2 0.134805 0.079946 0.446505
O O3 0.366616 0.167154 0.414958
O O4 0.364475 0.953969 0.407037
O O5 0.500000 0.175461 0.677192
O O6 0.625587 0.033102 0.750000
O O7 0.372504 0.590623 0.750000
O O8 0.500000 0.743161 0.818408
O O9 0.500000 0.231977 0.550904
O O10 0.000000 0.149876 0.943325
#
# Coordination Sequence:
#
# PCOD9474680 Si02
#       7
#    16   4   4   8   8   8   8
#     4  10  23  45  70 102 143 181 242 286 343 428
#     4   8  18  37  67  96 132 176 244 277 337 406
#     4  12  26  43  71  98 138 176 232 299 353 414
#     4  10  21  43  69 104 131 186 234 288 354 408
#     4   9  22  43  69 102 143 194 227 295 353 405
#     4  12  25  45  72 104 143 190 236 282 361 423
#     4  11  26  47  67 101 141 184 227 298 357 416
#
# _framework density 24.341059000000001
#
# number of rings (size 3 to 8) (size 9 to 14) (size 15 to 20)
#    0.000    1.714    0.000    3.429    8.000    4.571 
#    5.143    1.429    0.000    0.000    0.000    0.000 
#    0.000    0.000    0.000    0.000    0.000    0.000 
#
# Total GULP energy -156778.271602 kJ/mol
# GULP energy per Si atom -5599.223986 kJ/mol
# Density = 2.428566 g / cm^3
# Si number density = 24.341059 Si / 1000 Ang^3
#
#
#
# Elastic Constant Matrix: (Units=GPa)
#
#
# Indices 1 2 3 4 5 6 
#
# 1 175.3019 63.6443 47.7430 0.0000 0.0000 0.0000
# 2 63.6443 104.5256 49.5199 0.0000 0.0000 0.0000
# 3 47.7430 49.5199 156.1073 0.0000 0.0000 0.0000
# 4 0.0000 0.0000 0.0000 35.2112 0.0000 0.0000
# 5 0.0000 0.0000 0.0000 0.0000 59.0998 0.0000
# 6 0.0000 0.0000 0.0000 0.0000 0.0000 26.1137
#
#
#
# Elastic Compliance Matrix: (Units=1/GPa)
#
#
# Indices 1 2 3 4 5 6 
#
# 1 0.007451 -0.004068 -0.000988 0.000000 0.000000 0.000000
# 2 -0.004068 0.013481 -0.003032 0.000000 0.000000 0.000000
# 3 -0.000988 -0.003032 0.007670 0.000000 0.000000 0.000000
# 4 0.000000 0.000000 0.000000 0.028400 0.000000 0.000000
# 5 0.000000 0.000000 0.000000 0.000000 0.016921 0.000000
# 6 0.000000 0.000000 0.000000 0.000000 0.000000 0.038294
#
#
# Mechanical properties :
#
#
# Convention : Reuss Voigt Hill
#
# Bulk Modulus (GPa) = 80.48915 84.19436 82.34175
# Shear Modulus (GPa) = 37.72606 42.42013 40.07310
#
# Velocity S-wave (km/s) = 3.94114 4.17914 4.06188
# Velocity P-wave (km/s) = 7.33820 7.61259 7.47665
#
# Compressibility (1/GPa) = 0.01242403
#
# Stress axis : x y z
#
# Youngs Moduli (GPa) = 134.21683 74.17992 130.38070
#
# Poissons Ratio (x) = 0.30180 0.12882
# Poissons Ratio (y) = 0.54606 0.39532
# Poissons Ratio (z) = 0.13261 0.22492
#
# Static dielectric constant tensor:
#      x y z
#    x 1.864790 0.000000 0.000000 
#    y 0.000000 1.924660 0.000000 
#    z 0.000000 0.000000 2.027640 
# 
# From -- ./inp_files/50211.got.cif
#   From: 2010.05.17/outbox.cif.g08.bks.cpg/sg63_26_cif.got.tgz:50211.got - 2010.06.03 15:47:04.
