data_PCOD9474495
_publ_section_title
;
Structure prediction by ZEFSAII (Michael W. Deem and Ramdas Pophale) SiO2 
 PCOD9474495
Probable space group: C M C M
;
_chemical_formula_sum "Si O2"
_cell_formula_units_Z 64
_cell_length_a 20.222851
_cell_length_b 9.403437
_cell_length_c 17.258311
_cell_angle_alpha 90.000000
_cell_angle_beta 90.000000
_cell_angle_gamma 90.000000
_cell_volume 3281.914723
_symmetry_space_group_name_H-M "C M C M"
_symmetry_group_IT_number 63
_symmetry_cell_setting 'orthorhombic'
loop_
_space_group_symop_operation_xyz
x,y,z
-x,-y,1/2+z
x,-y,-z
-x,y,1/2-z
-x,-y,-z
x,y,1/2-z
-x,y,z
x,-y,1/2+z
1/2+x,1/2+y,z
1/2-x,1/2-y,1/2+z
1/2+x,1/2-y,-z
1/2-x,1/2+y,1/2-z
1/2-x,1/2-y,-z
1/2+x,1/2+y,1/2-z
1/2-x,1/2+y,z
1/2+x,1/2-y,1/2+z
loop_
_atom_site_type_symbol
_atom_site_label
_atom_site_fract_x
_atom_site_fract_y
_atom_site_fract_z
Si Si1 0.921814 0.718669 0.159024
Si Si2 0.191355 0.465988 0.909558
Si Si3 0.810056 0.221122 0.157930
Si Si4 0.421933 0.528265 0.409377
O O1 0.907538 0.697607 0.250000
O O2 0.876879 0.614450 0.109090
O O3 0.000000 0.695546 0.146020
O O4 0.907466 0.881748 0.135899
O O5 0.194381 0.613781 0.863557
O O6 0.249774 0.363411 0.881154
O O7 0.197878 0.500000 0.000000
O O8 0.807811 0.202002 0.250000
O O9 0.876842 0.152729 0.123722
O O10 0.408157 0.500000 0.500000
O O11 0.500000 0.559667 0.401286
#
# Coordination Sequence:
#
# PCOD9474495 Si02
#       4
#    16  16  16  16
#     4  10  21  39  62  88 121 160 199 242 296 353
#     4  12  25  42  63  88 120 157 200 247 298 354
#     4  12  24  39  61  89 121 157 200 247 297 352
#     4  10  21  39  63  91 123 159 199 243 294 352
#
# _framework density 19.500810999999999
#
# number of rings (size 3 to 8) (size 9 to 14) (size 15 to 20)
#    0.000    1.000    0.000    7.500    0.000    3.000 
#    0.000    0.000    0.000    0.000    0.000    0.000 
#    0.000    0.000    0.000    0.000    0.000    0.000 
#
# Total GULP energy -179126.601975 kJ/mol
# GULP energy per Si atom -5597.706312 kJ/mol
# Density = 1.945643 g / cm^3
# Si number density = 19.500811 Si / 1000 Ang^3
#
#
#
# Elastic Constant Matrix: (Units=GPa)
#
#
# Indices 1 2 3 4 5 6 
#
# 1 40.9547 21.3270 5.7442 0.0000 0.0000 0.0000
# 2 21.3270 54.2806 -31.3649 0.0000 0.0000 0.0000
# 3 5.7442 -31.3649 51.2026 0.0000 0.0000 0.0000
# 4 0.0000 0.0000 0.0000 28.8710 0.0000 0.0000
# 5 0.0000 0.0000 0.0000 0.0000 49.4960 0.0000
# 6 0.0000 0.0000 0.0000 0.0000 0.0000 62.2840
#
#
#
# Elastic Compliance Matrix: (Units=1/GPa)
#
#
# Indices 1 2 3 4 5 6 
#
# 1 0.044039 -0.031202 -0.024054 0.000000 0.000000 0.000000
# 2 -0.031202 0.050624 0.034511 0.000000 0.000000 0.000000
# 3 -0.024054 0.034511 0.043369 0.000000 0.000000 0.000000
# 4 0.000000 0.000000 0.000000 0.034637 0.000000 0.000000
# 5 0.000000 0.000000 0.000000 0.000000 0.020204 0.000000
# 6 0.000000 0.000000 0.000000 0.000000 0.000000 0.016055
#
#
# Mechanical properties :
#
#
# Convention : Reuss Voigt Hill
#
# Bulk Modulus (GPa) = 10.35836 15.31669 12.83753
# Shear Modulus (GPa) = 17.69291 38.17898 27.93594
#
# Velocity S-wave (km/s) = 3.01539 4.42952 3.78901
# Velocity P-wave (km/s) = 4.17693 5.83372 5.07341
#
# Compressibility (1/GPa) = 0.09654040
#
# Stress axis : x y z
#
# Youngs Moduli (GPa) = 22.70694 19.75366 23.05806
#
# Poissons Ratio (x) = 0.61636 0.55464
# Poissons Ratio (y) = 0.70851 -0.79575
# Poissons Ratio (z) = 0.54619 -0.68171
#
# Static dielectric constant tensor:
#      x y z
#    x 1.673530 0.000000 0.000000 
#    y 0.000000 1.635080 0.000000 
#    z 0.000000 0.000000 1.658670 
# 
# From -- ./inp_files/46529.got.cif
#   From: 2010.05.17/outbox.cif.g08.bks.cpg/sg63_24_cif.got.tgz:46529.got - 2010.06.03 15:47:04.
