data_PCOD9474261
_publ_section_title
;
Structure prediction by ZEFSAII (Michael W. Deem and Ramdas Pophale) SiO2 
 PCOD9474261
Probable space group: C M C M
;
_chemical_formula_sum "Si O2"
_cell_formula_units_Z 52
_cell_length_a 7.387955
_cell_length_b 9.660849
_cell_length_c 27.374062
_cell_angle_alpha 90.000000
_cell_angle_beta 90.000000
_cell_angle_gamma 90.000000
_cell_volume 1953.794048
_symmetry_space_group_name_H-M "C M C M"
_symmetry_group_IT_number 63
_symmetry_cell_setting 'orthorhombic'
loop_
_space_group_symop_operation_xyz
x,y,z
-x,-y,1/2+z
x,-y,-z
-x,y,1/2-z
-x,-y,-z
x,y,1/2-z
-x,y,z
x,-y,1/2+z
1/2+x,1/2+y,z
1/2-x,1/2-y,1/2+z
1/2+x,1/2-y,-z
1/2-x,1/2+y,1/2-z
1/2-x,1/2-y,-z
1/2+x,1/2+y,1/2-z
1/2-x,1/2+y,z
1/2+x,1/2-y,1/2+z
loop_
_atom_site_type_symbol
_atom_site_label
_atom_site_fract_x
_atom_site_fract_y
_atom_site_fract_z
Si Si1 0.210492 0.817406 0.111079
Si Si2 0.718876 0.564839 0.449150
Si Si3 0.210190 0.375259 0.696434
Si Si4 0.000000 0.032164 0.750000
O O1 0.223380 0.719155 0.063312
O O2 0.284755 0.965001 0.094838
O O3 0.286146 0.726452 0.155326
O O4 0.000000 0.833578 0.121997
O O5 0.781340 0.500000 0.500000
O O6 0.500000 0.561949 0.449225
O O7 0.207562 0.299184 0.750000
O O8 0.341087 0.502806 0.707835
O O9 0.000000 0.411338 0.687451
#
# Coordination Sequence:
#
# PCOD9474261 Si02
#       4
#    16  16  16   4
#     4  10  21  38  57  85 118 151 191 243 292 345
#     4  10  22  38  59  85 115 152 198 242 292 352
#     4   8  16  31  53  82 118 148 191 241 286 349
#     4   8  14  28  56  82 112 150 198 224 296 348
#
# _framework density 26.614884
#
# number of rings (size 3 to 8) (size 9 to 14) (size 15 to 20)
#    0.923    1.846    0.000    0.923    2.154    1.846 
#    0.000    1.538    0.000    1.846    0.000    0.000 
#    0.000    0.000    0.000    0.000    0.000    0.000 
#
# Total GULP energy -144868.488978 kJ/mol
# GULP energy per Si atom -5571.864961 kJ/mol
# Density = 2.655431 g / cm^3
# Si number density = 26.614884 Si / 1000 Ang^3
#
#
#
# Elastic Constant Matrix: (Units=GPa)
#
#
# Indices 1 2 3 4 5 6 
#
# 1 139.5475 6.2289 19.0502 0.0000 0.0000 0.0000
# 2 6.2289 109.0958 14.4270 0.0000 0.0000 0.0000
# 3 19.0502 14.4270 102.2271 0.0000 0.0000 0.0000
# 4 0.0000 0.0000 0.0000 49.3940 0.0000 0.0000
# 5 0.0000 0.0000 0.0000 0.0000 22.6767 0.0000
# 6 0.0000 0.0000 0.0000 0.0000 0.0000 -5.7234
#
#
#
# Elastic Compliance Matrix: (Units=1/GPa)
#
#
# Indices 1 2 3 4 5 6 
#
# 1 0.007359 -0.000243 -0.001337 0.000000 0.000000 0.000000
# 2 -0.000243 0.009349 -0.001274 0.000000 0.000000 0.000000
# 3 -0.001337 -0.001274 0.010211 0.000000 0.000000 0.000000
# 4 0.000000 0.000000 0.000000 0.020245 0.000000 0.000000
# 5 0.000000 0.000000 0.000000 0.000000 0.044098 0.000000
# 6 0.000000 0.000000 0.000000 0.000000 0.000000 -0.174723
#
#
# Mechanical properties :
#
#
# Convention : Reuss Voigt Hill
#
# Bulk Modulus (GPa) = 47.14707 47.80920 47.47814
# Shear Modulus (GPa) = -70.74049 34.01375 -18.36337
#
# Velocity S-wave (km/s) = -5.16110 3.57879 -2.62957
# Velocity P-wave (km/s) = 4.21462 5.92278 2.94247
#
# Compressibility (1/GPa) = 0.02121022
#
# Stress axis : x y z
#
# Youngs Moduli (GPa) = 135.88036 106.96763 97.93260
#
# Poissons Ratio (x) = 0.02603 0.13095
# Poissons Ratio (y) = 0.03307 0.12477
# Poissons Ratio (z) = 0.18169 0.13628
#
# Static dielectric constant tensor:
#      x y z
#    x 1.972640 0.000000 0.000000 
#    y 0.000000 2.105590 0.000000 
#    z 0.000000 0.000000 2.202900 
# 
# From -- ./inp_files/66043.got.cif
#   From: 2010.05.17/outbox.cif.g08.bks.cpg/sg63_34_cif.got.tgz:66043.got - 2010.06.03 15:47:04.
