data_PCOD9474560
_publ_section_title
;
Structure prediction by ZEFSAII (Michael W. Deem and Ramdas Pophale) SiO2 
 PCOD9474560
Probable space group: C M C M
;
_chemical_formula_sum "Si O2"
_cell_formula_units_Z 64
_cell_length_a 8.435273
_cell_length_b 25.177293
_cell_length_c 15.613134
_cell_angle_alpha 90.000000
_cell_angle_beta 90.000000
_cell_angle_gamma 90.000000
_cell_volume 3315.875866
_symmetry_space_group_name_H-M "C M C M"
_symmetry_group_IT_number 63
_symmetry_cell_setting 'orthorhombic'
loop_
_space_group_symop_operation_xyz
x,y,z
-x,-y,1/2+z
x,-y,-z
-x,y,1/2-z
-x,-y,-z
x,y,1/2-z
-x,y,z
x,-y,1/2+z
1/2+x,1/2+y,z
1/2-x,1/2-y,1/2+z
1/2+x,1/2-y,-z
1/2-x,1/2+y,1/2-z
1/2-x,1/2-y,-z
1/2+x,1/2+y,1/2-z
1/2-x,1/2+y,z
1/2+x,1/2-y,1/2+z
loop_
_atom_site_type_symbol
_atom_site_label
_atom_site_fract_x
_atom_site_fract_y
_atom_site_fract_z
Si Si1 0.682928 0.122699 0.851923
Si Si2 0.311170 0.809751 0.750000
Si Si3 0.811628 0.930654 0.750000
Si Si4 0.191755 0.492705 0.100167
Si Si5 0.808582 0.737043 0.594522
O O1 0.679082 0.126237 0.750000
O O2 0.500000 0.121096 0.883706
O O3 0.753060 0.177593 0.885010
O O4 0.753869 0.065983 0.875819
O O5 0.500000 0.808288 0.750000
O O6 0.256772 0.871026 0.750000
O O7 0.249603 0.778367 0.833798
O O8 0.757318 0.963591 0.834162
O O9 0.000000 0.927118 0.750000
O O10 0.000000 0.493776 0.110929
O O11 0.226894 0.500000 0.000000
O O12 0.750000 0.750000 0.500000
O O13 0.000000 0.736675 0.598301
#
# Coordination Sequence:
#
# PCOD9474560 Si02
#       5
#    16   8   8  16  16
#     4   9  17  35  62  89 121 160 203 253 307 366
#     4  12  26  45  66  89 123 172 222 268 321 381
#     4  12  26  43  62  91 131 168 206 266 327 379
#     4  10  21  39  66  95 123 164 213 255 302 376
#     4  11  23  41  64  95 130 167 211 263 319 380
#
# _framework density 19.301085
#
# number of rings (size 3 to 8) (size 9 to 14) (size 15 to 20)
#    0.000    1.500    2.500    3.000    3.500    0.500 
#    0.000    3.750    0.000    0.000    0.000    0.000 
#    0.000    0.000    0.000    0.000    0.000    0.000 
#
# Total GULP energy -178653.652655 kJ/mol
# GULP energy per Si atom -5582.926645 kJ/mol
# Density = 1.925716 g / cm^3
# Si number density = 19.301085 Si / 1000 Ang^3
#
#
#
# Elastic Constant Matrix: (Units=GPa)
#
#
# Indices 1 2 3 4 5 6 
#
# 1 75.1001 41.5810 47.0353 0.0000 0.0000 0.0000
# 2 41.5810 197.6336 89.5240 0.0000 0.0000 0.0000
# 3 47.0353 89.5240 137.5004 0.0000 0.0000 0.0000
# 4 0.0000 0.0000 0.0000 36.2475 0.0000 0.0000
# 5 0.0000 0.0000 0.0000 0.0000 29.3107 0.0000
# 6 0.0000 0.0000 0.0000 0.0000 0.0000 24.9811
#
#
#
# Elastic Compliance Matrix: (Units=1/GPa)
#
#
# Indices 1 2 3 4 5 6 
#
# 1 0.017197 -0.001352 -0.005002 0.000000 0.000000 0.000000
# 2 -0.001352 0.007283 -0.004279 0.000000 0.000000 0.000000
# 3 -0.005002 -0.004279 0.011770 0.000000 0.000000 0.000000
# 4 0.000000 0.000000 0.000000 0.027588 0.000000 0.000000
# 5 0.000000 0.000000 0.000000 0.000000 0.034117 0.000000
# 6 0.000000 0.000000 0.000000 0.000000 0.000000 0.040030
#
#
# Mechanical properties :
#
#
# Convention : Reuss Voigt Hill
#
# Bulk Modulus (GPa) = 66.74422 85.16832 75.95627
# Shear Modulus (GPa) = 30.44198 33.58077 32.01137
#
# Velocity S-wave (km/s) = 3.97573 4.17566 4.07692
# Velocity P-wave (km/s) = 7.46531 8.21402 7.84860
#
# Compressibility (1/GPa) = 0.01498257
#
# Stress axis : x y z
#
# Youngs Moduli (GPa) = 58.14897 137.31152 84.96265
#
# Poissons Ratio (x) = 0.18568 0.42501
# Poissons Ratio (y) = 0.07863 0.36356
# Poissons Ratio (z) = 0.29088 0.58757
#
# Static dielectric constant tensor:
#      x y z
#    x 1.685530 0.000000 0.000000 
#    y 0.000000 1.657690 0.000000 
#    z 0.000000 0.000000 1.694710 
# 
# From -- ./inp_files/27594.got.cif
#   From: 2010.05.17/outbox.cif.g08.bks.cpg/sg63_14_cif.got.tgz:27594.got - 2010.06.03 15:47:04.
