data_PCOD9474021
_publ_section_title
;
Structure prediction by ZEFSAII (Michael W. Deem and Ramdas Pophale) SiO2 
 PCOD9474021
Probable space group: C M C M
;
_chemical_formula_sum "Si O2"
_cell_formula_units_Z 56
_cell_length_a 18.156397
_cell_length_b 12.253107
_cell_length_c 12.977946
_cell_angle_alpha 90.000000
_cell_angle_beta 90.000000
_cell_angle_gamma 90.000000
_cell_volume 2887.233174
_symmetry_space_group_name_H-M "C M C M"
_symmetry_group_IT_number 63
_symmetry_cell_setting 'orthorhombic'
loop_
_space_group_symop_operation_xyz
x,y,z
-x,-y,1/2+z
x,-y,-z
-x,y,1/2-z
-x,-y,-z
x,y,1/2-z
-x,y,z
x,-y,1/2+z
1/2+x,1/2+y,z
1/2-x,1/2-y,1/2+z
1/2+x,1/2-y,-z
1/2-x,1/2+y,1/2-z
1/2-x,1/2-y,-z
1/2+x,1/2+y,1/2-z
1/2-x,1/2+y,z
1/2+x,1/2-y,1/2+z
loop_
_atom_site_type_symbol
_atom_site_label
_atom_site_fract_x
_atom_site_fract_y
_atom_site_fract_z
Si Si1 0.200851 0.191891 0.628772
Si Si2 0.625289 0.500000 0.500000
Si Si3 0.500000 0.396991 0.863822
Si Si4 0.000000 0.362409 0.367249
Si Si5 0.343329 0.123177 0.974770
O O1 0.186047 0.189006 0.750000
O O2 0.168769 0.087635 0.568032
O O3 0.288433 0.182210 0.606396
O O4 0.166247 0.299446 0.575011
O O5 0.571966 0.565767 0.424057
O O6 0.500000 0.445767 0.750000
O O7 0.500000 0.267814 0.858295
O O8 0.074719 0.388054 0.429083
O O9 0.000000 0.408467 0.250000
O O10 0.318745 0.000000 0.000000
#
# Coordination Sequence:
#
# PCOD9474021 Si02
#       5
#    16   8   8   8  16
#     4  11  24  42  67  95 125 168 215 269 328 379
#     4  11  20  42  62  93 130 158 214 275 320 378
#     4  10  21  36  63  92 124 166 206 261 326 378
#     4  11  22  40  63  91 128 173 214 259 319 381
#     4  11  24  45  63  94 131 167 216 268 313 387
#
# _framework density 19.395731000000001
#
# number of rings (size 3 to 8) (size 9 to 14) (size 15 to 20)
#    0.000    1.143    4.286    2.143    0.000    2.286 
#    0.000    2.143    0.000    0.000    0.000    0.000 
#    0.000    0.000    0.000    0.000    0.000    0.000 
#
# Total GULP energy -156298.200333 kJ/mol
# GULP energy per Si atom -5582.078583 kJ/mol
# Density = 1.935159 g / cm^3
# Si number density = 19.395731 Si / 1000 Ang^3
#
#
#
# Elastic Constant Matrix: (Units=GPa)
#
#
# Indices 1 2 3 4 5 6 
#
# 1 117.2381 20.0839 61.8924 0.0000 0.0000 0.0000
# 2 20.0839 109.2764 59.2263 0.0000 0.0000 0.0000
# 3 61.8924 59.2263 183.1785 0.0000 0.0000 0.0000
# 4 0.0000 0.0000 0.0000 14.2692 0.0000 0.0000
# 5 0.0000 0.0000 0.0000 0.0000 20.1305 0.0000
# 6 0.0000 0.0000 0.0000 0.0000 0.0000 34.5239
#
#
#
# Elastic Compliance Matrix: (Units=1/GPa)
#
#
# Indices 1 2 3 4 5 6 
#
# 1 0.010381 -0.000008 -0.003505 0.000000 0.000000 0.000000
# 2 -0.000008 0.011095 -0.003585 0.000000 0.000000 0.000000
# 3 -0.003505 -0.003585 0.007802 0.000000 0.000000 0.000000
# 4 0.000000 0.000000 0.000000 0.070081 0.000000 0.000000
# 5 0.000000 0.000000 0.000000 0.000000 0.049676 0.000000
# 6 0.000000 0.000000 0.000000 0.000000 0.000000 0.028965
#
#
# Mechanical properties :
#
#
# Convention : Reuss Voigt Hill
#
# Bulk Modulus (GPa) = 66.29802 76.89978 71.59890
# Shear Modulus (GPa) = 25.35171 31.68407 28.51789
#
# Velocity S-wave (km/s) = 3.61927 4.04612 3.83863
# Velocity P-wave (km/s) = 7.19177 7.84614 7.52607
#
# Compressibility (1/GPa) = 0.01508341
#
# Stress axis : x y z
#
# Youngs Moduli (GPa) = 96.32579 90.12694 128.16531
#
# Poissons Ratio (x) = 0.00075 0.44922
# Poissons Ratio (y) = 0.00080 0.45942
# Poissons Ratio (z) = 0.33762 0.32307
#
# Static dielectric constant tensor:
#      x y z
#    x 1.715780 0.000000 0.000000 
#    y 0.000000 1.653500 0.000000 
#    z 0.000000 0.000000 1.674620 
# 
# From -- ./inp_files/22085.got.cif
#   From: 2010.05.17/outbox.cif.g08.bks.cpg/sg63_12_cif.got.tgz:22085.got - 2010.06.03 15:47:04.
