data_PCOD9474551
_publ_section_title
;
Structure prediction by ZEFSAII (Michael W. Deem and Ramdas Pophale) SiO2 
 PCOD9474551
Probable space group: C M C M
;
_chemical_formula_sum "Si O2"
_cell_formula_units_Z 80
_cell_length_a 8.858800
_cell_length_b 29.729578
_cell_length_c 16.058912
_cell_angle_alpha 90.000000
_cell_angle_beta 90.000000
_cell_angle_gamma 90.000000
_cell_volume 4229.409728
_symmetry_space_group_name_H-M "C M C M"
_symmetry_group_IT_number 63
_symmetry_cell_setting 'orthorhombic'
loop_
_space_group_symop_operation_xyz
x,y,z
-x,-y,1/2+z
x,-y,-z
-x,y,1/2-z
-x,-y,-z
x,y,1/2-z
-x,y,z
x,-y,1/2+z
1/2+x,1/2+y,z
1/2-x,1/2-y,1/2+z
1/2+x,1/2-y,-z
1/2-x,1/2+y,1/2-z
1/2-x,1/2-y,-z
1/2+x,1/2+y,1/2-z
1/2-x,1/2+y,z
1/2+x,1/2-y,1/2+z
loop_
_atom_site_type_symbol
_atom_site_label
_atom_site_fract_x
_atom_site_fract_y
_atom_site_fract_z
Si Si1 0.318361 0.643030 0.750000
Si Si2 0.319957 0.303431 0.580834
Si Si3 0.180545 0.701281 0.602057
Si Si4 0.317742 0.480141 0.910405
Si Si5 0.176265 0.609429 0.347056
Si Si6 0.183548 0.961434 0.250000
O O1 0.500000 0.644268 0.750000
O O2 0.256469 0.669052 0.669301
O O3 0.269400 0.590699 0.750000
O O4 0.500000 0.306018 0.570491
O O5 0.242173 0.307583 0.490578
O O6 0.284560 0.254120 0.617842
O O7 0.260371 0.344016 0.636008
O O8 0.000000 0.695721 0.604353
O O9 0.500000 0.476893 0.907213
O O10 0.248857 0.430991 0.898492
O O11 0.268923 0.511994 0.833401
O O12 0.275506 0.500000 0.000000
O O13 0.190515 0.597458 0.250000
O O14 0.000000 0.614583 0.367305
O O15 0.000000 0.961517 0.250000
#
# Coordination Sequence:
#
# PCOD9474551 Si02
#       6
#     8  16  16  16  16   8
#     4  11  23  37  60  89 124 165 204 243 294 361
#     4  10  22  40  64  88 118 159 203 247 301 364
#     4  10  22  41  61  89 123 157 202 253 301 354
#     4  10  21  39  65  90 116 156 204 250 301 363
#     4  11  24  40  60  91 125 156 197 250 307 362
#     4   9  20  39  58  87 122 153 200 253 294 351
#
# _framework density 18.915168000000001
#
# number of rings (size 3 to 8) (size 9 to 14) (size 15 to 20)
#    0.000    1.800    1.000    2.100    4.200    4.000 
#    0.000    2.000    0.000    0.000    0.000    0.000 
#    0.000    0.000    0.000    0.000    0.000    0.000 
#
# Total GULP energy -223485.879830 kJ/mol
# GULP energy per Si atom -5587.146996 kJ/mol
# Density = 1.887212 g / cm^3
# Si number density = 18.915168 Si / 1000 Ang^3
#
#
#
# Elastic Constant Matrix: (Units=GPa)
#
#
# Indices 1 2 3 4 5 6 
#
# 1 42.0874 29.6055 21.1370 0.0000 0.0000 0.0000
# 2 29.6055 94.4902 35.5788 0.0000 0.0000 0.0000
# 3 21.1370 35.5788 69.3631 0.0000 0.0000 0.0000
# 4 0.0000 0.0000 0.0000 33.7187 0.0000 0.0000
# 5 0.0000 0.0000 0.0000 0.0000 26.0413 0.0000
# 6 0.0000 0.0000 0.0000 0.0000 0.0000 32.3955
#
#
#
# Elastic Compliance Matrix: (Units=1/GPa)
#
#
# Indices 1 2 3 4 5 6 
#
# 1 0.032229 -0.007932 -0.005753 0.000000 0.000000 0.000000
# 2 -0.007932 0.015068 -0.005312 0.000000 0.000000 0.000000
# 3 -0.005753 -0.005312 0.018895 0.000000 0.000000 0.000000
# 4 0.000000 0.000000 0.000000 0.029657 0.000000 0.000000
# 5 0.000000 0.000000 0.000000 0.000000 0.038400 0.000000
# 6 0.000000 0.000000 0.000000 0.000000 0.000000 0.030869
#
#
# Mechanical properties :
#
#
# Convention : Reuss Voigt Hill
#
# Bulk Modulus (GPa) = 35.46245 42.06480 38.76363
# Shear Modulus (GPa) = 23.52830 26.40573 24.96701
#
# Velocity S-wave (km/s) = 3.53070 3.74037 3.63705
# Velocity P-wave (km/s) = 5.95063 6.39850 6.17862
#
# Compressibility (1/GPa) = 0.02819884
#
# Stress axis : x y z
#
# Youngs Moduli (GPa) = 31.02843 66.36379 52.92518
#
# Poissons Ratio (x) = 0.52638 0.30445
# Poissons Ratio (y) = 0.24611 0.28114
# Poissons Ratio (z) = 0.17849 0.35253
#
# Static dielectric constant tensor:
#      x y z
#    x 1.631730 0.000000 0.000000 
#    y 0.000000 1.636430 0.000000 
#    z 0.000000 0.000000 1.642090 
# 
# From -- ./inp_files/40573.got.cif
#   From: 2010.05.17/outbox.cif.g08.bks.cpg/sg63_21_cif.got.tgz:40573.got - 2010.06.03 15:47:04.
