data_PCOD9474130
_publ_section_title
;
Structure prediction by ZEFSAII (Michael W. Deem and Ramdas Pophale) SiO2 
 PCOD9474130
Probable space group: C M C M
;
_chemical_formula_sum "Si O2"
_cell_formula_units_Z 96
_cell_length_a 24.379144
_cell_length_b 13.359135
_cell_length_c 16.595561
_cell_angle_alpha 90.000000
_cell_angle_beta 90.000000
_cell_angle_gamma 90.000000
_cell_volume 5404.913267
_symmetry_space_group_name_H-M "C M C M"
_symmetry_group_IT_number 63
_symmetry_cell_setting 'orthorhombic'
loop_
_space_group_symop_operation_xyz
x,y,z
-x,-y,1/2+z
x,-y,-z
-x,y,1/2-z
-x,-y,-z
x,y,1/2-z
-x,y,z
x,-y,1/2+z
1/2+x,1/2+y,z
1/2-x,1/2-y,1/2+z
1/2+x,1/2-y,-z
1/2-x,1/2+y,1/2-z
1/2-x,1/2-y,-z
1/2+x,1/2+y,1/2-z
1/2-x,1/2+y,z
1/2+x,1/2-y,1/2+z
loop_
_atom_site_type_symbol
_atom_site_label
_atom_site_fract_x
_atom_site_fract_y
_atom_site_fract_z
Si Si1 0.199014 0.275050 0.057337
Si Si2 0.563861 0.535670 0.592660
Si Si3 0.723098 0.032294 0.655161
Si Si4 0.370471 0.086476 0.443338
Si Si5 0.934393 0.254262 0.657059
Si Si6 0.834924 0.083828 0.156782
O O1 0.218161 0.354563 0.124464
O O2 0.174434 0.177451 0.098759
O O3 0.250000 0.250000 0.000000
O O4 0.154643 0.331536 0.003176
O O5 0.567849 0.500000 0.500000
O O6 0.500000 0.522621 0.617945
O O7 0.578200 0.652388 0.607758
O O8 0.607453 0.469969 0.641152
O O9 0.711319 0.024439 0.750000
O O10 0.679607 0.966249 0.604737
O O11 0.784343 0.991565 0.640602
O O12 0.408499 0.147314 0.382476
O O13 0.396386 0.000000 0.500000
O O14 0.916002 0.241784 0.750000
O O15 0.000000 0.264315 0.656883
O O16 0.831071 0.115128 0.250000
#
# Coordination Sequence:
#
# PCOD9474130 Si02
#       6
#    16  16  16  16  16  16
#     4  11  22  37  55  79 115 150 187 234 277 344
#     4  10  22  38  59  86 118 151 190 239 285 337
#     4  10  22  37  54  82 115 146 187 233 286 344
#     4  10  21  37  58  83 112 152 187 236 288 334
#     4  10  21  38  60  87 116 149 192 239 285 335
#     4  11  23  36  57  84 114 154 192 229 286 346
#
# _framework density 17.761617000000001
#
# number of rings (size 3 to 8) (size 9 to 14) (size 15 to 20)
#    0.000    1.667    1.667    2.500    4.667    1.333 
#    0.000    0.000    0.000    1.000    0.000    0.000 
#    0.000    0.000    0.000    0.000    0.000    0.000 
#
# Total GULP energy -267982.238071 kJ/mol
# GULP energy per Si atom -5582.963293 kJ/mol
# Density = 1.772119 g / cm^3
# Si number density = 17.761617 Si / 1000 Ang^3
#
#
#
# Elastic Constant Matrix: (Units=GPa)
#
#
# Indices 1 2 3 4 5 6 
#
# 1 53.7925 49.6599 34.8964 0.0000 0.0000 0.0000
# 2 49.6599 100.4454 42.7721 0.0000 0.0000 0.0000
# 3 34.8964 42.7721 78.7582 0.0000 0.0000 0.0000
# 4 0.0000 0.0000 0.0000 38.3984 0.0000 0.0000
# 5 0.0000 0.0000 0.0000 0.0000 28.9659 0.0000
# 6 0.0000 0.0000 0.0000 0.0000 0.0000 29.5107
#
#
#
# Elastic Compliance Matrix: (Units=1/GPa)
#
#
# Indices 1 2 3 4 5 6 
#
# 1 0.038288 -0.015227 -0.008695 0.000000 0.000000 0.000000
# 2 -0.015227 0.019006 -0.003575 0.000000 0.000000 0.000000
# 3 -0.008695 -0.003575 0.018491 0.000000 0.000000 0.000000
# 4 0.000000 0.000000 0.000000 0.026043 0.000000 0.000000
# 5 0.000000 0.000000 0.000000 0.000000 0.034523 0.000000
# 6 0.000000 0.000000 0.000000 0.000000 0.000000 0.033886
#
#
# Mechanical properties :
#
#
# Convention : Reuss Voigt Hill
#
# Bulk Modulus (GPa) = 48.09792 54.18364 51.14078
# Shear Modulus (GPa) = 21.53673 26.41953 23.97813
#
# Velocity S-wave (km/s) = 3.48594 3.86093 3.67822
# Velocity P-wave (km/s) = 6.58338 7.10267 6.84795
#
# Compressibility (1/GPa) = 0.02079092
#
# Stress axis : x y z
#
# Youngs Moduli (GPa) = 26.11815 52.61489 54.07902
#
# Poissons Ratio (x) = 0.80114 0.47023
# Poissons Ratio (y) = 0.39769 0.19334
# Poissons Ratio (z) = 0.22711 0.18811
#
# Static dielectric constant tensor:
#      x y z
#    x 1.586940 0.000000 0.000000 
#    y 0.000000 1.585200 0.000000 
#    z 0.000000 0.000000 1.611090 
# 
# From -- ./inp_files/48037.got.cif
#   From: 2010.05.17/outbox.cif.g08.bks.cpg/sg63_25_cif.got.tgz:48037.got - 2010.06.03 15:47:04.
