data_PCOD9474110
_publ_section_title
;
Structure prediction by ZEFSAII (Michael W. Deem and Ramdas Pophale) SiO2 
 PCOD9474110
Probable space group: C M C M
;
_chemical_formula_sum "Si O2"
_cell_formula_units_Z 96
_cell_length_a 18.033116
_cell_length_b 14.958802
_cell_length_c 19.854837
_cell_angle_alpha 90.000000
_cell_angle_beta 90.000000
_cell_angle_gamma 90.000000
_cell_volume 5355.917961
_symmetry_space_group_name_H-M "C M C M"
_symmetry_group_IT_number 63
_symmetry_cell_setting 'orthorhombic'
loop_
_space_group_symop_operation_xyz
x,y,z
-x,-y,1/2+z
x,-y,-z
-x,y,1/2-z
-x,-y,-z
x,y,1/2-z
-x,y,z
x,-y,1/2+z
1/2+x,1/2+y,z
1/2-x,1/2-y,1/2+z
1/2+x,1/2-y,-z
1/2-x,1/2+y,1/2-z
1/2-x,1/2-y,-z
1/2+x,1/2+y,1/2-z
1/2-x,1/2+y,z
1/2+x,1/2-y,1/2+z
loop_
_atom_site_type_symbol
_atom_site_label
_atom_site_fract_x
_atom_site_fract_y
_atom_site_fract_z
Si Si1 0.222520 0.786914 0.329523
Si Si2 0.411743 0.589145 0.039990
Si Si3 0.317973 0.608112 0.325937
Si Si4 0.412870 0.736329 0.572920
Si Si5 0.693834 0.959738 0.327082
Si Si6 0.412525 0.051980 0.067619
O O1 0.208515 0.801912 0.250000
O O2 0.262386 0.691454 0.336660
O O3 0.146058 0.790496 0.370130
O O4 0.280422 0.862875 0.352458
O O5 0.500000 0.579845 0.049424
O O6 0.373927 0.601519 0.112156
O O7 0.385595 0.500000 0.000000
O O8 0.398658 0.674744 0.992147
O O9 0.350240 0.617666 0.250000
O O10 0.267535 0.519966 0.326681
O O11 0.500000 0.723524 0.591817
O O12 0.401423 0.841794 0.559834
O O13 0.667107 0.951608 0.250000
O O14 0.634291 0.010103 0.372163
O O15 0.500000 0.037404 0.079233
O O16 0.391028 0.000000 0.000000
#
# Coordination Sequence:
#
# PCOD9474110 Si02
#       6
#    16  16  16  16  16  16
#     4  10  21  37  57  85 117 149 190 237 286 344
#     4  10  22  39  58  84 117 151 192 240 290 344
#     4  10  21  38  58  83 114 150 192 236 285 341
#     4  10  21  38  60  86 116 151 191 241 292 339
#     4  10  21  38  58  82 114 148 186 236 287 339
#     4  10  22  38  57  83 114 149 191 235 284 342
#
# _framework density 17.924098000000001
#
# number of rings (size 3 to 8) (size 9 to 14) (size 15 to 20)
#    0.000    2.000    1.667    1.000    2.333    3.667 
#    0.000    1.667    0.000    9.000    0.000    0.000 
#    0.000    0.000    0.000    0.000    0.000    0.000 
#
# Total GULP energy -267814.848772 kJ/mol
# GULP energy per Si atom -5579.476016 kJ/mol
# Density = 1.788330 g / cm^3
# Si number density = 17.924098 Si / 1000 Ang^3
#
#
#
# Elastic Constant Matrix: (Units=GPa)
#
#
# Indices 1 2 3 4 5 6 
#
# 1 48.1922 19.5849 68.3136 0.0000 0.0000 0.0000
# 2 19.5849 63.8948 32.7127 0.0000 0.0000 0.0000
# 3 68.3136 32.7127 124.4597 0.0000 0.0000 0.0000
# 4 0.0000 0.0000 0.0000 24.6035 0.0000 0.0000
# 5 0.0000 0.0000 0.0000 0.0000 54.9227 0.0000
# 6 0.0000 0.0000 0.0000 0.0000 0.0000 27.9830
#
#
#
# Elastic Compliance Matrix: (Units=1/GPa)
#
#
# Indices 1 2 3 4 5 6 
#
# 1 0.093913 -0.002767 -0.050820 0.000000 0.000000 0.000000
# 2 -0.002767 0.018166 -0.003256 0.000000 0.000000 0.000000
# 3 -0.050820 -0.003256 0.036785 0.000000 0.000000 0.000000
# 4 0.000000 0.000000 0.000000 0.040645 0.000000 0.000000
# 5 0.000000 0.000000 0.000000 0.000000 0.018207 0.000000
# 6 0.000000 0.000000 0.000000 0.000000 0.000000 0.035736
#
#
# Mechanical properties :
#
#
# Convention : Reuss Voigt Hill
#
# Bulk Modulus (GPa) = 28.42716 53.08547 40.75631
# Shear Modulus (GPa) = 13.55515 29.23086 21.39301
#
# Velocity S-wave (km/s) = 2.75299 4.04271 3.45850
# Velocity P-wave (km/s) = 5.09896 7.17443 6.22382
#
# Compressibility (1/GPa) = 0.03517763
#
# Stress axis : x y z
#
# Youngs Moduli (GPa) = 10.64813 55.04839 27.18535
#
# Poissons Ratio (x) = 0.15234 1.38155
# Poissons Ratio (y) = 0.02947 0.08851
# Poissons Ratio (z) = 0.54114 0.17922
#
# Static dielectric constant tensor:
#      x y z
#    x 1.585240 0.000000 0.000000 
#    y 0.000000 1.616770 0.000000 
#    z 0.000000 0.000000 1.600850 
# 
# From -- ./inp_files/54154.got.cif
#   From: 2010.05.17/outbox.cif.g08.bks.cpg/sg63_28_cif.got.tgz:54154.got - 2010.06.03 15:47:04.
