data_PCOD9474722
_publ_section_title
;
Structure prediction by ZEFSAII (Michael W. Deem and Ramdas Pophale) SiO2 
 PCOD9474722
Probable space group: C M C M
;
_chemical_formula_sum "Si O2"
_cell_formula_units_Z 88
_cell_length_a 15.756053
_cell_length_b 17.807905
_cell_length_c 16.122673
_cell_angle_alpha 90.000000
_cell_angle_beta 90.000000
_cell_angle_gamma 90.000000
_cell_volume 4523.736592
_symmetry_space_group_name_H-M "C M C M"
_symmetry_group_IT_number 63
_symmetry_cell_setting 'orthorhombic'
loop_
_space_group_symop_operation_xyz
x,y,z
-x,-y,1/2+z
x,-y,-z
-x,y,1/2-z
-x,-y,-z
x,y,1/2-z
-x,y,z
x,-y,1/2+z
1/2+x,1/2+y,z
1/2-x,1/2-y,1/2+z
1/2+x,1/2-y,-z
1/2-x,1/2+y,1/2-z
1/2-x,1/2-y,-z
1/2+x,1/2+y,1/2-z
1/2-x,1/2+y,z
1/2+x,1/2-y,1/2+z
loop_
_atom_site_type_symbol
_atom_site_label
_atom_site_fract_x
_atom_site_fract_y
_atom_site_fract_z
Si Si1 0.000000 0.730470 0.489787
Si Si2 0.680928 0.467082 0.085071
Si Si3 0.500000 0.137895 0.653203
Si Si4 0.642020 0.986633 0.344567
Si Si5 0.600358 0.397787 0.655560
Si Si6 0.500000 0.112607 0.343113
Si Si7 0.175389 0.812767 0.001081
O O1 0.913821 0.775158 0.477789
O O2 0.000000 0.700959 0.584327
O O3 0.000000 0.665661 0.421388
O O4 0.777696 0.492629 0.097538
O O5 0.626121 0.513802 0.150916
O O6 0.644283 0.500000 0.000000
O O7 0.687224 0.378204 0.069947
O O8 0.500000 0.161619 0.750000
O O9 0.581932 0.084851 0.639203
O O10 0.673507 0.979380 0.250000
O O11 0.581377 0.058334 0.348762
O O12 0.613969 0.371218 0.750000
O O13 0.500000 0.389276 0.635419
O O14 0.658422 0.352844 0.588807
O O15 0.500000 0.146965 0.250000
O O16 0.250000 0.750000 0.000000
#
# Coordination Sequence:
#
# PCOD9474722 Si02
#       7
#     8  16   8  16  16   8  16
#     4  12  24  39  63  82 132 174 196 252 326 382
#     4  10  22  36  63  87 118 155 210 254 304 365
#     4   9  20  34  56  89 122 158 205 254 310 378
#     4   9  18  36  58  87 119 150 200 263 308 363
#     4  10  22  43  69  92 118 163 219 271 318 368
#     4   9  22  38  58  89 122 158 205 254 318 388
#     4  11  25  42  61  95 130 168 209 254 321 392
#
# _framework density 19.452945
#
# number of rings (size 3 to 8) (size 9 to 14) (size 15 to 20)
#    0.000    2.000    0.909    2.727    8.909    2.545 
#    0.000    3.636    0.000    0.000    0.000    0.000 
#    0.000    0.000    0.000    0.000    0.000    0.000 
#
# Total GULP energy -245255.878402 kJ/mol
# GULP energy per Si atom -5573.997236 kJ/mol
# Density = 1.940867 g / cm^3
# Si number density = 19.452945 Si / 1000 Ang^3
#
#
#
# Elastic Constant Matrix: (Units=GPa)
#
#
# Indices 1 2 3 4 5 6 
#
# 1 97.1728 39.2496 34.9571 0.0000 0.0000 0.0000
# 2 39.2496 86.5668 23.1183 0.0000 0.0000 0.0000
# 3 34.9571 23.1183 60.4244 0.0000 0.0000 0.0000
# 4 0.0000 0.0000 0.0000 85.8816 0.0000 0.0000
# 5 0.0000 0.0000 0.0000 0.0000 20.8093 0.0000
# 6 0.0000 0.0000 0.0000 0.0000 0.0000 11.6118
#
#
#
# Elastic Compliance Matrix: (Units=1/GPa)
#
#
# Indices 1 2 3 4 5 6 
#
# 1 0.014634 -0.004872 -0.006602 0.000000 0.000000 0.000000
# 2 -0.004872 0.014488 -0.002725 0.000000 0.000000 0.000000
# 3 -0.006602 -0.002725 0.021412 0.000000 0.000000 0.000000
# 4 0.000000 0.000000 0.000000 0.011644 0.000000 0.000000
# 5 0.000000 0.000000 0.000000 0.000000 0.048055 0.000000
# 6 0.000000 0.000000 0.000000 0.000000 0.000000 0.086119
#
#
# Mechanical properties :
#
#
# Convention : Reuss Voigt Hill
#
# Bulk Modulus (GPa) = 45.17451 48.75713 46.96582
# Shear Modulus (GPa) = 21.53980 33.44979 27.49480
#
# Velocity S-wave (km/s) = 3.33119 4.15121 3.76360
# Velocity P-wave (km/s) = 6.16998 6.93508 6.56368
#
# Compressibility (1/GPa) = 0.02213638
#
# Stress axis : x y z
#
# Youngs Moduli (GPa) = 68.33486 69.02096 46.70374
#
# Poissons Ratio (x) = 0.33626 0.30834
# Poissons Ratio (y) = 0.33292 0.12725
# Poissons Ratio (z) = 0.45115 0.18806
#
# Static dielectric constant tensor:
#      x y z
#    x 1.610040 0.000000 0.000000 
#    y 0.000000 1.716590 0.000000 
#    z 0.000000 0.000000 1.724770 
# 
# From -- ./inp_files/44159.got.cif
#   From: 2010.05.17/outbox.cif.g08.bks.cpg/sg63_23_cif.got.tgz:44159.got - 2010.06.03 15:47:04.
