data_PCOD9474849
_publ_section_title
;
Structure prediction by ZEFSAII (Michael W. Deem and Ramdas Pophale) SiO2 
 PCOD9474849
Probable space group: C M C M
;
_chemical_formula_sum "Si O2"
_cell_formula_units_Z 96
_cell_length_a 24.331549
_cell_length_b 11.546847
_cell_length_c 15.293093
_cell_angle_alpha 90.000000
_cell_angle_beta 90.000000
_cell_angle_gamma 90.000000
_cell_volume 4296.635366
_symmetry_space_group_name_H-M "C M C M"
_symmetry_group_IT_number 63
_symmetry_cell_setting 'orthorhombic'
loop_
_space_group_symop_operation_xyz
x,y,z
-x,-y,1/2+z
x,-y,-z
-x,y,1/2-z
-x,-y,-z
x,y,1/2-z
-x,y,z
x,-y,1/2+z
1/2+x,1/2+y,z
1/2-x,1/2-y,1/2+z
1/2+x,1/2-y,-z
1/2-x,1/2+y,1/2-z
1/2-x,1/2-y,-z
1/2+x,1/2+y,1/2-z
1/2-x,1/2+y,z
1/2+x,1/2-y,1/2+z
loop_
_atom_site_type_symbol
_atom_site_label
_atom_site_fract_x
_atom_site_fract_y
_atom_site_fract_z
Si Si1 0.227521 0.523928 0.103437
Si Si2 0.651574 0.189746 0.649002
Si Si3 0.363673 0.195124 0.355872
Si Si4 0.562858 0.411348 0.353438
Si Si5 0.061379 0.481499 0.356413
Si Si6 0.154468 0.935158 0.908294
O O1 0.192981 0.418498 0.143910
O O2 0.196312 0.646732 0.117524
O O3 0.289673 0.522238 0.138491
O O4 0.228657 0.500000 0.000000
O O5 0.649996 0.230023 0.750000
O O6 0.593535 0.134693 0.622142
O O7 0.663264 0.297953 0.587965
O O8 0.362025 0.198890 0.250000
O O9 0.394181 0.312296 0.385685
O O10 0.403784 0.091504 0.385865
O O11 0.557608 0.390893 0.250000
O O12 0.500000 0.408555 0.389189
O O13 0.596302 0.530399 0.366280
O O14 0.060642 0.487595 0.250000
O O15 0.000000 0.484993 0.389093
O O16 0.153622 0.000000 0.000000
#
# Coordination Sequence:
#
# PCOD9474849 Si02
#       6
#    16  16  16  16  16  16
#     4  10  23  39  63  89 124 161 201 253 317 374
#     4  10  22  39  60  90 121 155 206 260 310 368
#     4   9  18  34  60  91 120 155 199 252 306 366
#     4  10  22  40  63  91 123 163 209 255 306 368
#     4   8  14  29  55  84 113 147 190 243 301 356
#     4  11  26  41  61  86 124 170 209 250 309 371
#
# _framework density 22.343063999999998
#
# number of rings (size 3 to 8) (size 9 to 14) (size 15 to 20)
#    0.000    2.333    0.000    2.500    4.667    7.000 
#    0.000    1.667    0.000    2.500    0.000    0.000 
#    0.000    0.000    0.000    0.000    0.000    0.000 
#
# Total GULP energy -267791.186717 kJ/mol
# GULP energy per Si atom -5578.983057 kJ/mol
# Density = 2.229221 g / cm^3
# Si number density = 22.343064 Si / 1000 Ang^3
#
#
#
# Elastic Constant Matrix: (Units=GPa)
#
#
# Indices 1 2 3 4 5 6 
#
# 1 126.8071 25.3852 17.5922 0.0000 0.0000 0.0000
# 2 25.3852 74.2854 -0.2310 0.0000 0.0000 0.0000
# 3 17.5922 -0.2310 36.1745 0.0000 0.0000 0.0000
# 4 0.0000 0.0000 0.0000 25.5018 0.0000 0.0000
# 5 0.0000 0.0000 0.0000 0.0000 20.1499 0.0000
# 6 0.0000 0.0000 0.0000 0.0000 0.0000 11.1131
#
#
#
# Elastic Compliance Matrix: (Units=1/GPa)
#
#
# Indices 1 2 3 4 5 6 
#
# 1 0.009132 -0.003135 -0.004461 0.000000 0.000000 0.000000
# 2 -0.003135 0.014538 0.001617 0.000000 0.000000 0.000000
# 3 -0.004461 0.001617 0.029824 0.000000 0.000000 0.000000
# 4 0.000000 0.000000 0.000000 0.039213 0.000000 0.000000
# 5 0.000000 0.000000 0.000000 0.000000 0.049628 0.000000
# 6 0.000000 0.000000 0.000000 0.000000 0.000000 0.089984
#
#
# Mechanical properties :
#
#
# Convention : Reuss Voigt Hill
#
# Bulk Modulus (GPa) = 24.07513 35.86221 29.96867
# Shear Modulus (GPa) = 19.37068 24.32097 21.84583
#
# Velocity S-wave (km/s) = 2.94762 3.30286 3.13028
# Velocity P-wave (km/s) = 4.73109 5.53450 5.14849
#
# Compressibility (1/GPa) = 0.04153663
#
# Stress axis : x y z
#
# Youngs Moduli (GPa) = 109.49978 68.78606 33.53043
#
# Poissons Ratio (x) = 0.21562 0.14959
# Poissons Ratio (y) = 0.34325 -0.05423
# Poissons Ratio (z) = 0.48851 -0.11125
#
# Static dielectric constant tensor:
#      x y z
#    x 1.853510 0.000000 0.000000 
#    y 0.000000 1.812780 0.000000 
#    z 0.000000 0.000000 1.857670 
# 
# From -- ./inp_files/48062.got.cif
#   From: 2010.05.17/outbox.cif.g08.bks.cpg/sg63_25_cif.got.tgz:48062.got - 2010.06.03 15:47:04.
