data_PCOD9474792
_publ_section_title
;
Structure prediction by ZEFSAII (Michael W. Deem and Ramdas Pophale) SiO2 
 PCOD9474792
Probable space group: C M C M
;
_chemical_formula_sum "Si O2"
_cell_formula_units_Z 80
_cell_length_a 24.185259
_cell_length_b 4.995515
_cell_length_c 25.567945
_cell_angle_alpha 90.000000
_cell_angle_beta 90.000000
_cell_angle_gamma 90.000000
_cell_volume 3089.063482
_symmetry_space_group_name_H-M "C M C M"
_symmetry_group_IT_number 63
_symmetry_cell_setting 'orthorhombic'
loop_
_space_group_symop_operation_xyz
x,y,z
-x,-y,1/2+z
x,-y,-z
-x,y,1/2-z
-x,-y,-z
x,y,1/2-z
-x,y,z
x,-y,1/2+z
1/2+x,1/2+y,z
1/2-x,1/2-y,1/2+z
1/2+x,1/2-y,-z
1/2-x,1/2+y,1/2-z
1/2-x,1/2-y,-z
1/2+x,1/2+y,1/2-z
1/2-x,1/2+y,z
1/2+x,1/2-y,1/2+z
loop_
_atom_site_type_symbol
_atom_site_label
_atom_site_fract_x
_atom_site_fract_y
_atom_site_fract_z
Si Si1 0.560459 0.273907 0.691173
Si Si2 0.644417 0.034118 0.128296
Si Si3 0.660873 0.265951 0.534542
Si Si4 0.786828 0.075712 0.691882
Si Si5 0.437876 0.405654 0.415723
O O1 0.564413 0.383070 0.750000
O O2 0.500000 0.130631 0.688349
O O3 0.614021 0.099982 0.677403
O O4 0.559268 0.482003 0.643641
O O5 0.681261 0.846108 0.090816
O O6 0.674782 0.300074 0.147637
O O7 0.593233 0.125928 0.091505
O O8 0.690164 0.500000 0.500000
O O9 0.602981 0.407410 0.551231
O O10 0.658121 0.000000 0.500000
O O11 0.811088 0.117294 0.750000
O O12 0.766534 0.772068 0.689378
O O13 0.500000 0.386234 0.436110
#
# Coordination Sequence:
#
# PCOD9474792 Si02
#       5
#    16  16  16  16  16
#     4   9  19  34  54  88 131 169 206 249 304 377
#     4  11  22  39  66  89 126 168 210 261 320 373
#     4  11  23  42  62  93 126 170 213 264 320 374
#     4  10  24  43  67  99 129 161 208 260 315 381
#     4  10  22  38  60  93 128 172 221 260 306 375
#
# _framework density 25.897818000000001
#
# number of rings (size 3 to 8) (size 9 to 14) (size 15 to 20)
#    0.000    1.800    2.000    1.200    5.600    3.200 
#    0.000    2.000    0.000    3.600    0.000    0.000 
#    0.000    0.000    0.000    0.000    0.000    0.000 
#
# Total GULP energy -223514.169831 kJ/mol
# GULP energy per Si atom -5587.854246 kJ/mol
# Density = 2.583887 g / cm^3
# Si number density = 25.897818 Si / 1000 Ang^3
#
#
#
# Elastic Constant Matrix: (Units=GPa)
#
#
# Indices 1 2 3 4 5 6 
#
# 1 59.7763 0.4161 6.1935 0.0000 0.0000 0.0000
# 2 0.4161 63.1890 38.1530 0.0000 0.0000 0.0000
# 3 6.1935 38.1530 150.2604 0.0000 0.0000 0.0000
# 4 0.0000 0.0000 0.0000 40.8198 0.0000 0.0000
# 5 0.0000 0.0000 0.0000 0.0000 22.5413 0.0000
# 6 0.0000 0.0000 0.0000 0.0000 0.0000 32.7509
#
#
#
# Elastic Compliance Matrix: (Units=1/GPa)
#
#
# Indices 1 2 3 4 5 6 
#
# 1 0.016808 0.000363 -0.000785 0.000000 0.000000 0.000000
# 2 0.000363 0.018699 -0.004763 0.000000 0.000000 0.000000
# 3 -0.000785 -0.004763 0.007897 0.000000 0.000000 0.000000
# 4 0.000000 0.000000 0.000000 0.024498 0.000000 0.000000
# 5 0.000000 0.000000 0.000000 0.000000 0.044363 0.000000
# 6 0.000000 0.000000 0.000000 0.000000 0.000000 0.030534
#
#
# Mechanical properties :
#
#
# Convention : Reuss Voigt Hill
#
# Bulk Modulus (GPa) = 30.27148 40.30567 35.28857
# Shear Modulus (GPa) = 30.45461 34.45327 32.45394
#
# Velocity S-wave (km/s) = 3.43294 3.65136 3.54383
# Velocity P-wave (km/s) = 5.23714 5.77700 5.51368
#
# Compressibility (1/GPa) = 0.03303440
#
# Stress axis : x y z
#
# Youngs Moduli (GPa) = 59.49604 53.47903 126.63325
#
# Poissons Ratio (x) = -0.01943 0.09941
# Poissons Ratio (y) = -0.02162 0.60314
# Poissons Ratio (z) = 0.04671 0.25471
#
# Static dielectric constant tensor:
#      x y z
#    x 2.118740 0.000000 0.000000 
#    y 0.000000 2.057600 0.000000 
#    z 0.000000 0.000000 2.065440 
# 
# From -- ./inp_files/70893.got.cif
#   From: 2010.05.17/outbox.cif.g08.bks.cpg/sg63_36_cif.got.tgz:70893.got - 2010.06.03 15:47:04.
