data_PCOD9474217
_publ_section_title
;
Structure prediction by ZEFSAII (Michael W. Deem and Ramdas Pophale) SiO2 
 PCOD9474217
Probable space group: C M C M
;
_chemical_formula_sum "Si O2"
_cell_formula_units_Z 100
_cell_length_a 7.378878
_cell_length_b 20.071464
_cell_length_c 28.260934
_cell_angle_alpha 90.000000
_cell_angle_beta 90.000000
_cell_angle_gamma 90.000000
_cell_volume 4185.582356
_symmetry_space_group_name_H-M "C M C M"
_symmetry_group_IT_number 63
_symmetry_cell_setting 'orthorhombic'
loop_
_space_group_symop_operation_xyz
x,y,z
-x,-y,1/2+z
x,-y,-z
-x,y,1/2-z
-x,-y,-z
x,y,1/2-z
-x,y,z
x,-y,1/2+z
1/2+x,1/2+y,z
1/2-x,1/2-y,1/2+z
1/2+x,1/2-y,-z
1/2-x,1/2+y,1/2-z
1/2-x,1/2-y,-z
1/2+x,1/2+y,1/2-z
1/2-x,1/2+y,z
1/2+x,1/2-y,1/2+z
loop_
_atom_site_type_symbol
_atom_site_label
_atom_site_fract_x
_atom_site_fract_y
_atom_site_fract_z
Si Si1 0.291078 0.960859 0.151757
Si Si2 0.786842 0.188872 0.391362
Si Si3 0.716044 0.327837 0.992704
Si Si4 0.781145 0.045518 0.544523
Si Si5 0.777784 0.690579 0.833765
Si Si6 0.781177 0.594597 0.197309
Si Si7 0.000000 0.221849 0.750000
O O1 0.500000 0.957127 0.166356
O O2 0.282684 0.976548 0.096067
O O3 0.221270 0.886344 0.159709
O O4 0.212424 0.021502 0.182010
O O5 0.711957 0.158049 0.439648
O O6 0.727451 0.263575 0.378749
O O7 0.762650 0.144706 0.344840
O O8 0.000000 0.193760 0.399765
O O9 0.500000 0.338467 0.993558
O O10 0.750000 0.250000 0.000000
O O11 0.784681 0.380017 0.031424
O O12 0.000000 0.042895 0.547476
O O13 0.727942 0.000000 0.500000
O O14 0.660207 0.718980 0.790923
O O15 0.000000 0.694513 0.827336
O O16 0.718432 0.613282 0.250000
O O17 0.000000 0.593238 0.199213
#
# Coordination Sequence:
#
# PCOD9474217 Si02
#       7
#    16  16  16  16  16  16   4
#     4  10  22  42  63  88 125 165 206 264 318 373
#     4  10  22  41  62  89 126 164 199 253 314 372
#     4  10  21  38  61  89 120 157 198 246 310 369
#     4  10  21  37  61  90 122 159 206 260 309 373
#     4  10  24  43  66  94 129 165 214 265 315 379
#     4  10  23  40  62  87 119 161 207 254 310 369
#     4  12  26  40  68  98 122 172 212 262 328 374
#
# _framework density 23.891539000000002
#
# number of rings (size 3 to 8) (size 9 to 14) (size 15 to 20)
#    0.000    1.920    0.000    2.160    4.480    5.120 
#    0.000    0.000    0.000    0.000    0.000    0.000 
#    0.000    0.000    0.000    0.000    0.000    0.000 
#
# Total GULP energy -278884.444932 kJ/mol
# GULP energy per Si atom -5577.688899 kJ/mol
# Density = 2.383716 g / cm^3
# Si number density = 23.891539 Si / 1000 Ang^3
#
#
#
# Elastic Constant Matrix: (Units=GPa)
#
#
# Indices 1 2 3 4 5 6 
#
# 1 87.9800 -16.3350 -18.3103 0.0000 0.0000 0.0000
# 2 -16.3350 72.0901 -7.1800 0.0000 0.0000 0.0000
# 3 -18.3103 -7.1800 84.9257 0.0000 0.0000 0.0000
# 4 0.0000 0.0000 0.0000 9.9819 0.0000 0.0000
# 5 0.0000 0.0000 0.0000 0.0000 2.4512 0.0000
# 6 0.0000 0.0000 0.0000 0.0000 0.0000 10.1349
#
#
#
# Elastic Compliance Matrix: (Units=1/GPa)
#
#
# Indices 1 2 3 4 5 6 
#
# 1 0.012569 0.003145 0.002976 0.000000 0.000000 0.000000
# 2 0.003145 0.014776 0.001927 0.000000 0.000000 0.000000
# 3 0.002976 0.001927 0.012580 0.000000 0.000000 0.000000
# 4 0.000000 0.000000 0.000000 0.100181 0.000000 0.000000
# 5 0.000000 0.000000 0.000000 0.000000 0.407970 0.000000
# 6 0.000000 0.000000 0.000000 0.000000 0.000000 0.098669
#
#
# Mechanical properties :
#
#
# Convention : Reuss Voigt Hill
#
# Bulk Modulus (GPa) = 17.85076 17.92725 17.88901
# Shear Modulus (GPa) = 7.70032 23.63501 15.66767
#
# Velocity S-wave (km/s) = 1.79723 3.14867 2.56360
# Velocity P-wave (km/s) = 3.43431 4.55398 4.03319
#
# Compressibility (1/GPa) = 0.05602001
#
# Stress axis : x y z
#
# Youngs Moduli (GPa) = 79.55839 67.67733 79.49420
#
# Poissons Ratio (x) = -0.21281 -0.23656
# Poissons Ratio (y) = -0.25017 -0.15320
# Poissons Ratio (z) = -0.23675 -0.13043
#
# Static dielectric constant tensor:
#      x y z
#    x 1.939250 0.000000 0.000000 
#    y 0.000000 1.901940 0.000000 
#    z 0.000000 0.000000 1.680760 
# 
# From -- ./inp_files/67105.got.cif
#   From: 2010.05.17/outbox.cif.g08.bks.cpg/sg63_34_cif.got.tgz:67105.got - 2010.06.03 15:47:04.
