data_PCOD9474602
_publ_section_title
;
Structure prediction by ZEFSAII (Michael W. Deem and Ramdas Pophale) SiO2 
 PCOD9474602
Probable space group: C M C M
;
_chemical_formula_sum "Si O2"
_cell_formula_units_Z 88
_cell_length_a 13.246571
_cell_length_b 13.159632
_cell_length_c 24.841874
_cell_angle_alpha 90.000000
_cell_angle_beta 90.000000
_cell_angle_gamma 90.000000
_cell_volume 4330.435466
_symmetry_space_group_name_H-M "C M C M"
_symmetry_group_IT_number 63
_symmetry_cell_setting 'orthorhombic'
loop_
_space_group_symop_operation_xyz
x,y,z
-x,-y,1/2+z
x,-y,-z
-x,y,1/2-z
-x,-y,-z
x,y,1/2-z
-x,y,z
x,-y,1/2+z
1/2+x,1/2+y,z
1/2-x,1/2-y,1/2+z
1/2+x,1/2-y,-z
1/2-x,1/2+y,1/2-z
1/2-x,1/2-y,-z
1/2+x,1/2+y,1/2-z
1/2-x,1/2+y,z
1/2+x,1/2-y,1/2+z
loop_
_atom_site_type_symbol
_atom_site_label
_atom_site_fract_x
_atom_site_fract_y
_atom_site_fract_z
Si Si1 0.112434 0.071827 0.813833
Si Si2 0.615289 0.792573 0.635097
Si Si3 0.887159 0.604280 0.582808
Si Si4 0.768881 0.000000 0.500000
Si Si5 0.326025 0.010095 0.188715
Si Si6 0.706150 0.305295 0.552449
O O1 0.111108 0.094712 0.750000
O O2 0.131531 0.177740 0.844609
O O3 0.205364 0.996038 0.822246
O O4 0.000000 0.034643 0.828593
O O5 0.500000 0.800655 0.615434
O O6 0.697316 0.820235 0.590612
O O7 0.632328 0.876541 0.681017
O O8 0.804222 0.552121 0.544279
O O9 0.874066 0.560552 0.642855
O O10 0.868099 0.725247 0.580085
O O11 0.000000 0.580752 0.563748
O O12 0.831466 0.913738 0.531133
O O13 0.343731 0.975642 0.250000
O O14 0.750000 0.250000 0.500000
#
# Coordination Sequence:
#
# PCOD9474602 Si02
#       6
#    16  16  16   8  16  16
#     4   9  19  37  60  84 114 154 196 237 284 344
#     4  11  21  37  62  88 116 155 203 245 291 353
#     4  11  22  38  61  89 121 157 199 246 302 357
#     4  10  21  40  65  82 114 158 203 250 295 360
#     4  11  22  36  61  94 126 156 197 247 295 354
#     4  10  22  38  58  87 118 150 198 250 302 349
#
# _framework density 20.321282
#
# number of rings (size 3 to 8) (size 9 to 14) (size 15 to 20)
#    0.000    1.636    3.636    1.364    0.000    5.091 
#    0.000    1.364    0.000    1.091    0.000    0.000 
#    0.000    0.000    0.000    0.000    0.000    0.000 
#
# Total GULP energy -245536.862050 kJ/mol
# GULP energy per Si atom -5580.383228 kJ/mol
# Density = 2.027503 g / cm^3
# Si number density = 20.321282 Si / 1000 Ang^3
#
#
#
# Elastic Constant Matrix: (Units=GPa)
#
#
# Indices 1 2 3 4 5 6 
#
# 1 28.1024 3.9973 2.2259 0.0000 0.0000 0.0000
# 2 3.9973 57.5441 9.1236 0.0000 0.0000 0.0000
# 3 2.2259 9.1236 74.8899 0.0000 0.0000 0.0000
# 4 0.0000 0.0000 0.0000 28.8591 0.0000 0.0000
# 5 0.0000 0.0000 0.0000 0.0000 1.0372 0.0000
# 6 0.0000 0.0000 0.0000 0.0000 0.0000 3.0450
#
#
#
# Elastic Compliance Matrix: (Units=1/GPa)
#
#
# Indices 1 2 3 4 5 6 
#
# 1 0.035984 -0.002376 -0.000780 0.000000 0.000000 0.000000
# 2 -0.002376 0.017877 -0.002107 0.000000 0.000000 0.000000
# 3 -0.000780 -0.002107 0.013633 0.000000 0.000000 0.000000
# 4 0.000000 0.000000 0.000000 0.034651 0.000000 0.000000
# 5 0.000000 0.000000 0.000000 0.000000 0.964124 0.000000
# 6 0.000000 0.000000 0.000000 0.000000 0.000000 0.328407
#
#
# Mechanical properties :
#
#
# Convention : Reuss Voigt Hill
#
# Bulk Modulus (GPa) = 17.55396 21.24780 19.40088
# Shear Modulus (GPa) = 3.51076 16.26756 9.88916
#
# Velocity S-wave (km/s) = 1.31582 2.83241 2.20839
# Velocity P-wave (km/s) = 3.31142 4.60167 4.00879
#
# Compressibility (1/GPa) = 0.05696721
#
# Stress axis : x y z
#
# Youngs Moduli (GPa) = 27.79021 55.93739 73.35219
#
# Poissons Ratio (x) = 0.13290 0.05722
# Poissons Ratio (y) = 0.06603 0.15458
# Poissons Ratio (z) = 0.02168 0.11788
#
# Static dielectric constant tensor:
#      x y z
#    x 1.723380 0.000000 0.000000 
#    y 0.000000 1.744750 0.000000 
#    z 0.000000 0.000000 1.711110 
# 
# From -- ./inp_files/62679.got.cif
#   From: 2010.05.17/outbox.cif.g08.bks.cpg/sg63_32_cif.got.tgz:62679.got - 2010.06.03 15:47:04.
