data_PCOD9474291
_publ_section_title
;
Structure prediction by ZEFSAII (Michael W. Deem and Ramdas Pophale) SiO2 
 PCOD9474291
Probable space group: C M C M
;
_chemical_formula_sum "Si O2"
_cell_formula_units_Z 96
_cell_length_a 20.734935
_cell_length_b 28.785917
_cell_length_c 8.562645
_cell_angle_alpha 90.000000
_cell_angle_beta 90.000000
_cell_angle_gamma 90.000000
_cell_volume 5110.821181
_symmetry_space_group_name_H-M "C M C M"
_symmetry_group_IT_number 63
_symmetry_cell_setting 'orthorhombic'
loop_
_space_group_symop_operation_xyz
x,y,z
-x,-y,1/2+z
x,-y,-z
-x,y,1/2-z
-x,-y,-z
x,y,1/2-z
-x,y,z
x,-y,1/2+z
1/2+x,1/2+y,z
1/2-x,1/2-y,1/2+z
1/2+x,1/2-y,-z
1/2-x,1/2+y,1/2-z
1/2-x,1/2-y,-z
1/2+x,1/2+y,1/2-z
1/2-x,1/2+y,z
1/2+x,1/2-y,1/2+z
loop_
_atom_site_type_symbol
_atom_site_label
_atom_site_fract_x
_atom_site_fract_y
_atom_site_fract_z
Si Si1 0.074720 0.782930 0.062795
Si Si2 0.189316 0.721246 0.937454
Si Si3 0.687620 0.447974 0.437359
Si Si4 0.308926 0.885435 0.059572
Si Si5 0.926556 0.448763 0.061345
Si Si6 0.425260 0.385366 0.937106
O O1 0.078773 0.782567 0.250000
O O2 0.000000 0.774289 0.017175
O O3 0.123947 0.745749 0.994085
O O4 0.092275 0.834497 0.003029
O O5 0.190839 0.721616 0.750000
O O6 0.193605 0.667843 0.992028
O O7 0.250000 0.750000 0.000000
O O8 0.694414 0.500000 0.500000
O O9 0.687543 0.449136 0.250000
O O10 0.747356 0.415659 0.489956
O O11 0.622383 0.423868 0.496255
O O12 0.308775 0.885043 0.250000
O O13 0.374126 0.911371 0.008853
O O14 0.925657 0.450047 0.250000
O O15 0.000000 0.438167 0.011495
O O16 0.909817 0.500000 0.000000
O O17 0.420835 0.384303 0.750000
O O18 0.500000 0.394155 0.980562
#
# Coordination Sequence:
#
# PCOD9474291 Si02
#       6
#    16  16  16  16  16  16
#     4  10  21  38  59  84 116 151 186 229 283 340
#     4  11  22  37  58  83 112 147 190 236 283 336
#     4  11  22  37  57  81 112 147 185 230 280 334
#     4   9  20  36  54  78 107 142 183 226 270 320
#     4   9  17  32  54  78 105 137 173 214 261 312
#     4  10  21  38  60  85 111 142 184 230 277 334
#
# _framework density 18.783676
#
# number of rings (size 3 to 8) (size 9 to 14) (size 15 to 20)
#    0.000    2.000    0.000    3.500    0.000    4.333 
#    0.000    6.667    0.000    2.000    0.000    0.000 
#    0.000    0.000    0.000    0.000    0.000    0.000 
#
# Total GULP energy -268154.856617 kJ/mol
# GULP energy per Si atom -5586.559513 kJ/mol
# Density = 1.874092 g / cm^3
# Si number density = 18.783676 Si / 1000 Ang^3
#
#
#
# Elastic Constant Matrix: (Units=GPa)
#
#
# Indices 1 2 3 4 5 6 
#
# 1 111.2093 111.0969 28.8690 0.0000 0.0000 0.0000
# 2 111.0969 189.1063 35.9716 0.0000 0.0000 0.0000
# 3 28.8690 35.9716 38.6875 0.0000 0.0000 0.0000
# 4 0.0000 0.0000 0.0000 22.9851 0.0000 0.0000
# 5 0.0000 0.0000 0.0000 0.0000 25.2107 0.0000
# 6 0.0000 0.0000 0.0000 0.0000 0.0000 42.2452
#
#
#
# Elastic Compliance Matrix: (Units=1/GPa)
#
#
# Indices 1 2 3 4 5 6 
#
# 1 0.022695 -0.012284 -0.005513 0.000000 0.000000 0.000000
# 2 -0.012284 0.013073 -0.002989 0.000000 0.000000 0.000000
# 3 -0.005513 -0.002989 0.032741 0.000000 0.000000 0.000000
# 4 0.000000 0.000000 0.000000 0.043506 0.000000 0.000000
# 5 0.000000 0.000000 0.000000 0.000000 0.039666 0.000000
# 6 0.000000 0.000000 0.000000 0.000000 0.000000 0.023671
#
#
# Mechanical properties :
#
#
# Convention : Reuss Voigt Hill
#
# Bulk Modulus (GPa) = 37.12422 76.76426 56.94424
# Shear Modulus (GPa) = 22.13313 28.95925 25.54619
#
# Velocity S-wave (km/s) = 3.43639 3.93074 3.69185
# Velocity P-wave (km/s) = 5.96255 7.84584 6.96811
#
# Compressibility (1/GPa) = 0.02693659
#
# Stress axis : x y z
#
# Youngs Moduli (GPa) = 44.06223 76.49114 30.54232
#
# Poissons Ratio (x) = 0.93964 0.16839
# Poissons Ratio (y) = 0.54127 0.09129
# Poissons Ratio (z) = 0.24294 0.22863
#
# Static dielectric constant tensor:
#      x y z
#    x 1.645650 0.000000 0.000000 
#    y 0.000000 1.599300 0.000000 
#    z 0.000000 0.000000 1.636700 
# 
# From -- ./inp_files/8534.got.cif
#   From: 2010.05.17/outbox.cif.g08.bks.cpg/sg63_5_cif.got.tgz:8534.got - 2010.06.03 15:47:04.
