data_PCOD9474734
_publ_section_title
;
Structure prediction by ZEFSAII (Michael W. Deem and Ramdas Pophale) SiO2 
 PCOD9474734
Probable space group: C M C M
;
_chemical_formula_sum "Si O2"
_cell_formula_units_Z 112
_cell_length_a 13.872072
_cell_length_b 24.803580
_cell_length_c 14.908148
_cell_angle_alpha 90.000000
_cell_angle_beta 90.000000
_cell_angle_gamma 90.000000
_cell_volume 5129.551549
_symmetry_space_group_name_H-M "C M C M"
_symmetry_group_IT_number 63
_symmetry_cell_setting 'orthorhombic'
loop_
_space_group_symop_operation_xyz
x,y,z
-x,-y,1/2+z
x,-y,-z
-x,y,1/2-z
-x,-y,-z
x,y,1/2-z
-x,y,z
x,-y,1/2+z
1/2+x,1/2+y,z
1/2-x,1/2-y,1/2+z
1/2+x,1/2-y,-z
1/2-x,1/2+y,1/2-z
1/2-x,1/2-y,-z
1/2+x,1/2+y,1/2-z
1/2-x,1/2+y,z
1/2+x,1/2-y,1/2+z
loop_
_atom_site_type_symbol
_atom_site_label
_atom_site_fract_x
_atom_site_fract_y
_atom_site_fract_z
Si Si1 0.763096 0.905688 0.150198
Si Si2 0.114136 0.912627 0.972397
Si Si3 0.117681 0.254653 0.647761
Si Si4 0.108247 0.626987 0.142715
Si Si5 0.887547 0.312156 0.357442
Si Si6 0.883467 0.794124 0.535773
Si Si7 0.278788 0.980366 0.596040
O O1 0.798734 0.891011 0.250000
O O2 0.680666 0.863010 0.122324
O O3 0.719089 0.966002 0.154057
O O4 0.843634 0.910071 0.073309
O O5 0.141165 0.853970 0.931911
O O6 0.169786 0.959252 0.919841
O O7 0.000000 0.919714 0.972091
O O8 0.151384 0.243815 0.750000
O O9 0.147393 0.314461 0.614201
O O10 0.144425 0.214125 0.568509
O O11 0.000000 0.255751 0.651955
O O12 0.102325 0.632826 0.250000
O O13 0.165247 0.572853 0.124144
O O14 0.000000 0.621581 0.105986
O O15 0.885404 0.304408 0.250000
O O16 0.853916 0.257039 0.405181
O O17 0.000000 0.322180 0.382803
O O18 0.000000 0.792811 0.536931
O O19 0.316788 0.000000 0.500000
#
# Coordination Sequence:
#
# PCOD9474734 Si02
#       7
#    16  16  16  16  16  16  16
#     4  10  22  39  59  86 117 150 196 248 298 355
#     4  10  23  42  60  82 113 154 202 254 305 345
#     4   8  15  28  49  81 118 151 184 225 278 347
#     4   9  18  34  55  81 117 153 183 227 289 354
#     4   9  19  37  60  89 126 161 191 232 291 363
#     4   9  18  34  60  85 115 158 196 237 293 356
#     4  10  22  37  56  82 113 151 198 250 290 345
#
# _framework density 21.834268000000002
#
# number of rings (size 3 to 8) (size 9 to 14) (size 15 to 20)
#    0.000    2.714    0.000    1.286    4.000    4.857 
#    0.000    4.286    0.000    3.000    0.000    0.000 
#    0.000    0.000    0.000    0.000    0.000    0.000 
#
# Total GULP energy -312646.587306 kJ/mol
# GULP energy per Si atom -5582.974773 kJ/mol
# Density = 2.178457 g / cm^3
# Si number density = 21.834268 Si / 1000 Ang^3
#
#
#
# Elastic Constant Matrix: (Units=GPa)
#
#
# Indices 1 2 3 4 5 6 
#
# 1 68.6509 21.3717 -0.3470 0.0000 0.0000 0.0000
# 2 21.3717 154.3508 20.9839 0.0000 0.0000 0.0000
# 3 -0.3470 20.9839 40.0235 0.0000 0.0000 0.0000
# 4 0.0000 0.0000 0.0000 -27.0456 0.0000 0.0000
# 5 0.0000 0.0000 0.0000 0.0000 3.9733 0.0000
# 6 0.0000 0.0000 0.0000 0.0000 0.0000 24.4130
#
#
#
# Elastic Compliance Matrix: (Units=1/GPa)
#
#
# Indices 1 2 3 4 5 6 
#
# 1 0.015289 -0.002299 0.001338 0.000000 0.000000 0.000000
# 2 -0.002299 0.007322 -0.003859 0.000000 0.000000 0.000000
# 3 0.001338 -0.003859 0.027020 0.000000 0.000000 0.000000
# 4 0.000000 0.000000 0.000000 -0.036975 0.000000 0.000000
# 5 0.000000 0.000000 0.000000 0.000000 0.251680 0.000000
# 6 0.000000 0.000000 0.000000 0.000000 0.000000 0.040962
#
#
# Mechanical properties :
#
#
# Convention : Reuss Voigt Hill
#
# Bulk Modulus (GPa) = 25.00550 38.56028 31.78289
# Shear Modulus (GPa) = 15.23149 15.00258 15.11703
#
# Velocity S-wave (km/s) = 2.64407 2.62412 2.63412
# Velocity P-wave (km/s) = 4.56056 5.18461 4.88257
#
# Compressibility (1/GPa) = 0.03999121
#
# Stress axis : x y z
#
# Youngs Moduli (GPa) = 65.40717 136.58192 37.00970
#
# Poissons Ratio (x) = 0.31397 -0.04951
# Poissons Ratio (y) = 0.15036 0.14280
# Poissons Ratio (z) = -0.08750 0.52701
#
# Static dielectric constant tensor:
#      x y z
#    x 1.810340 0.000000 0.000000 
#    y 0.000000 1.821220 0.000000 
#    z 0.000000 0.000000 1.824700 
# 
# From -- ./inp_files/32586.got.cif
#   From: 2010.05.17/outbox.cif.g08.bks.cpg/sg63_17_cif.got.tgz:32586.got - 2010.06.03 15:47:04.
