data_PCOD9474344
_publ_section_title
;
Structure prediction by ZEFSAII (Michael W. Deem and Ramdas Pophale) SiO2 
 PCOD9474344
Probable space group: C M C M
;
_chemical_formula_sum "Si O2"
_cell_formula_units_Z 72
_cell_length_a 26.483132
_cell_length_b 8.836955
_cell_length_c 14.299053
_cell_angle_alpha 90.000000
_cell_angle_beta 90.000000
_cell_angle_gamma 90.000000
_cell_volume 3346.410887
_symmetry_space_group_name_H-M "C M C M"
_symmetry_group_IT_number 63
_symmetry_cell_setting 'orthorhombic'
loop_
_space_group_symop_operation_xyz
x,y,z
-x,-y,1/2+z
x,-y,-z
-x,y,1/2-z
-x,-y,-z
x,y,1/2-z
-x,y,z
x,-y,1/2+z
1/2+x,1/2+y,z
1/2-x,1/2-y,1/2+z
1/2+x,1/2-y,-z
1/2-x,1/2+y,1/2-z
1/2-x,1/2-y,-z
1/2+x,1/2+y,1/2-z
1/2-x,1/2+y,z
1/2+x,1/2-y,1/2+z
loop_
_atom_site_type_symbol
_atom_site_label
_atom_site_fract_x
_atom_site_fract_y
_atom_site_fract_z
Si Si1 0.890162 0.871167 0.934258
Si Si2 0.658424 0.595612 0.250000
Si Si3 0.301940 0.176987 0.036204
Si Si4 0.133653 0.442027 0.250000
Si Si5 0.555977 0.072098 0.601539
Si Si6 0.221860 0.365522 0.750000
O O1 0.863029 0.959739 0.848373
O O2 0.932343 0.750338 0.905143
O O3 0.847345 0.770138 0.987452
O O4 0.911475 0.000000 0.000000
O O5 0.634527 0.763087 0.250000
O O6 0.718611 0.607917 0.250000
O O7 0.297368 0.197713 0.149646
O O8 0.250000 0.250000 0.000000
O O9 0.304304 0.000000 0.000000
O O10 0.101574 0.496422 0.338122
O O11 0.192165 0.476944 0.250000
O O12 0.500000 0.046486 0.640649
O O13 0.557696 0.000000 0.500000
#
# Coordination Sequence:
#
# PCOD9474344 Si02
#       6
#    16   8  16   8  16   8
#     4  11  23  41  60  90 126 160 211 262 315 383
#     4  10  22  37  57  82 124 171 203 246 312 375
#     4  12  25  40  59  88 125 172 216 262 310 376
#     4  10  21  38  60  92 122 161 210 259 301 383
#     4  10  21  41  67  90 119 159 207 264 323 374
#     4  12  24  35  63  86 126 168 212 253 313 366
#
# _framework density 21.515588000000001
#
# number of rings (size 3 to 8) (size 9 to 14) (size 15 to 20)
#    0.000    1.111    2.222    5.667    0.000    1.333 
#    0.000    1.111    0.000    0.000    0.000    0.000 
#    0.000    0.000    0.000    0.000    0.000    0.000 
#
# Total GULP energy -200812.030728 kJ/mol
# GULP energy per Si atom -5578.111965 kJ/mol
# Density = 2.146662 g / cm^3
# Si number density = 21.515588 Si / 1000 Ang^3
#
#
#
# Elastic Constant Matrix: (Units=GPa)
#
#
# Indices 1 2 3 4 5 6 
#
# 1 80.5774 -1.9920 18.1856 0.0000 0.0000 0.0000
# 2 -1.9920 49.7451 8.0153 0.0000 0.0000 0.0000
# 3 18.1856 8.0153 142.4400 0.0000 0.0000 0.0000
# 4 0.0000 0.0000 0.0000 20.4698 0.0000 0.0000
# 5 0.0000 0.0000 0.0000 0.0000 10.0345 0.0000
# 6 0.0000 0.0000 0.0000 0.0000 0.0000 26.3419
#
#
#
# Elastic Compliance Matrix: (Units=1/GPa)
#
#
# Indices 1 2 3 4 5 6 
#
# 1 0.012809 0.000784 -0.001679 0.000000 0.000000 0.000000
# 2 0.000784 0.020334 -0.001244 0.000000 0.000000 0.000000
# 3 -0.001679 -0.001244 0.007305 0.000000 0.000000 0.000000
# 4 0.000000 0.000000 0.000000 0.048852 0.000000 0.000000
# 5 0.000000 0.000000 0.000000 0.000000 0.099656 0.000000
# 6 0.000000 0.000000 0.000000 0.000000 0.000000 0.037962
#
#
# Mechanical properties :
#
#
# Convention : Reuss Voigt Hill
#
# Bulk Modulus (GPa) = 27.64894 35.68670 31.66782
# Shear Modulus (GPa) = 20.55456 27.93949 24.24703
#
# Velocity S-wave (km/s) = 3.09420 3.60748 3.36065
# Velocity P-wave (km/s) = 5.06399 5.82875 5.45977
#
# Compressibility (1/GPa) = 0.03616775
#
# Stress axis : x y z
#
# Youngs Moduli (GPa) = 78.07114 49.17786 136.89383
#
# Poissons Ratio (x) = -0.03853 0.22990
# Poissons Ratio (y) = -0.06117 0.17033
# Poissons Ratio (z) = 0.13111 0.06119
#
# Static dielectric constant tensor:
#      x y z
#    x 1.738580 0.000000 0.000000 
#    y 0.000000 1.788930 0.000000 
#    z 0.000000 0.000000 2.003290 
# 
# From -- ./inp_files/37584.got.cif
#   From: 2010.05.17/outbox.cif.g08.bks.cpg/sg63_19_cif.got.tgz:37584.got - 2010.06.03 15:47:04.
