data_PCOD9474140
_publ_section_title
;
Structure prediction by ZEFSAII (Michael W. Deem and Ramdas Pophale) SiO2 
 PCOD9474140
Probable space group: C M C M
;
_chemical_formula_sum "Si O2"
_cell_formula_units_Z 68
_cell_length_a 22.111981
_cell_length_b 16.822751
_cell_length_c 7.874474
_cell_angle_alpha 90.000000
_cell_angle_beta 90.000000
_cell_angle_gamma 90.000000
_cell_volume 2929.181096
_symmetry_space_group_name_H-M "C M C M"
_symmetry_group_IT_number 63
_symmetry_cell_setting 'orthorhombic'
loop_
_space_group_symop_operation_xyz
x,y,z
-x,-y,1/2+z
x,-y,-z
-x,y,1/2-z
-x,-y,-z
x,y,1/2-z
-x,y,z
x,-y,1/2+z
1/2+x,1/2+y,z
1/2-x,1/2-y,1/2+z
1/2+x,1/2-y,-z
1/2-x,1/2+y,1/2-z
1/2-x,1/2-y,-z
1/2+x,1/2+y,1/2-z
1/2-x,1/2+y,z
1/2+x,1/2-y,1/2+z
loop_
_atom_site_type_symbol
_atom_site_label
_atom_site_fract_x
_atom_site_fract_y
_atom_site_fract_z
Si Si1 0.565125 0.188490 0.550379
Si Si2 0.086721 0.124461 0.056548
Si Si3 0.000000 0.071798 0.750000
Si Si4 0.827864 0.416541 0.942212
Si Si5 0.716613 0.668587 0.939983
O O1 0.570524 0.168344 0.750000
O O2 0.500000 0.160123 0.486322
O O3 0.566473 0.283449 0.539403
O O4 0.621471 0.150347 0.458636
O O5 0.071069 0.097162 0.250000
O O6 0.053007 0.079883 0.903256
O O7 0.159372 0.133819 0.040298
O O8 0.806417 0.420463 0.750000
O O9 0.854812 0.500000 0.000000
O O10 0.770454 0.394755 0.054685
O O11 0.694542 0.683423 0.750000
O O12 0.750000 0.750000 0.000000
#
# Coordination Sequence:
#
# PCOD9474140 Si02
#       5
#    16  16   4  16  16
#     4  10  21  37  58  84 122 165 211 259 309 369
#     4  11  22  37  59  94 130 164 209 263 316 379
#     4  12  22  36  60  94 132 164 204 260 330 382
#     4  12  26  42  61  86 123 167 214 266 319 378
#     4  12  23  39  63  93 126 165 213 265 323 379
#
# _framework density 23.214680999999999
#
# number of rings (size 3 to 8) (size 9 to 14) (size 15 to 20)
#    0.000    0.706    4.706    4.588    1.647    0.941 
#    0.000    0.000    0.000    0.000    0.000    0.824 
#    0.000    0.000    0.000    0.000    0.000    0.000 
#
# Total GULP energy -189648.092875 kJ/mol
# GULP energy per Si atom -5577.885085 kJ/mol
# Density = 2.316184 g / cm^3
# Si number density = 23.214681 Si / 1000 Ang^3
#
#
#
# Elastic Constant Matrix: (Units=GPa)
#
#
# Indices 1 2 3 4 5 6 
#
# 1 153.1435 6.7271 31.8659 0.0000 0.0000 0.0000
# 2 6.7271 56.1000 26.5897 0.0000 0.0000 0.0000
# 3 31.8659 26.5897 159.1803 0.0000 0.0000 0.0000
# 4 0.0000 0.0000 0.0000 25.5123 0.0000 0.0000
# 5 0.0000 0.0000 0.0000 0.0000 29.3981 0.0000
# 6 0.0000 0.0000 0.0000 0.0000 0.0000 -47.1122
#
#
#
# Elastic Compliance Matrix: (Units=1/GPa)
#
#
# Indices 1 2 3 4 5 6 
#
# 1 0.006815 -0.000185 -0.001333 0.000000 0.000000 0.000000
# 2 -0.000185 0.019363 -0.003197 0.000000 0.000000 0.000000
# 3 -0.001333 -0.003197 0.007083 0.000000 0.000000 0.000000
# 4 0.000000 0.000000 0.000000 0.039197 0.000000 0.000000
# 5 0.000000 0.000000 0.000000 0.000000 0.034016 0.000000
# 6 0.000000 0.000000 0.000000 0.000000 0.000000 -0.021226
#
#
# Mechanical properties :
#
#
# Convention : Reuss Voigt Hill
#
# Bulk Modulus (GPa) = 41.96463 55.42101 48.69282
# Shear Modulus (GPa) = 48.72179 21.77570 35.24874
#
# Velocity S-wave (km/s) = 4.58618 3.06602 3.90087
# Velocity P-wave (km/s) = 6.79412 6.03814 6.42725
#
# Compressibility (1/GPa) = 0.02382959
#
# Stress axis : x y z
#
# Youngs Moduli (GPa) = 146.72616 51.64498 141.17906
#
# Poissons Ratio (x) = 0.00957 0.18825
# Poissons Ratio (y) = 0.02718 0.45140
# Poissons Ratio (z) = 0.19565 0.16513
#
# Static dielectric constant tensor:
#      x y z
#    x 1.978080 0.000000 0.000000 
#    y 0.000000 1.903380 0.000000 
#    z 0.000000 0.000000 1.824770 
# 
# From -- ./inp_files/7621.got.cif
#   From: 2010.05.17/outbox.cif.g08.bks.cpg/sg63_4_cif.got.tgz:7621.got - 2010.06.03 15:47:04.
