data_PCOD9474932
_publ_section_title
;
Structure prediction by ZEFSAII (Michael W. Deem and Ramdas Pophale) SiO2 
 PCOD9474932
Probable space group: C M C M
;
_chemical_formula_sum "Si O2"
_cell_formula_units_Z 88
_cell_length_a 23.401469
_cell_length_b 13.779200
_cell_length_c 13.588797
_cell_angle_alpha 90.000000
_cell_angle_beta 90.000000
_cell_angle_gamma 90.000000
_cell_volume 4381.755448
_symmetry_space_group_name_H-M "C M C M"
_symmetry_group_IT_number 63
_symmetry_cell_setting 'orthorhombic'
loop_
_space_group_symop_operation_xyz
x,y,z
-x,-y,1/2+z
x,-y,-z
-x,y,1/2-z
-x,-y,-z
x,y,1/2-z
-x,y,z
x,-y,1/2+z
1/2+x,1/2+y,z
1/2-x,1/2-y,1/2+z
1/2+x,1/2-y,-z
1/2-x,1/2+y,1/2-z
1/2-x,1/2-y,-z
1/2+x,1/2+y,1/2-z
1/2-x,1/2+y,z
1/2+x,1/2-y,1/2+z
loop_
_atom_site_type_symbol
_atom_site_label
_atom_site_fract_x
_atom_site_fract_y
_atom_site_fract_z
Si Si1 0.341348 0.829824 0.366247
Si Si2 0.434203 0.826403 0.974616
Si Si3 0.728748 0.643199 0.132042
Si Si4 0.652083 0.500000 0.000000
Si Si5 0.653403 0.051462 0.366383
Si Si6 0.934006 0.122859 0.633765
O O1 0.353525 0.824218 0.250000
O O2 0.396961 0.803411 0.429095
O O3 0.291549 0.752927 0.386707
O O4 0.327228 0.941802 0.389303
O O5 0.500000 0.845386 0.997480
O O6 0.403213 0.915837 0.921618
O O7 0.430517 0.733996 0.902409
O O8 0.720985 0.623387 0.250000
O O9 0.795055 0.624404 0.109869
O O10 0.690845 0.571117 0.066382
O O11 0.611036 0.561179 0.928045
O O12 0.642955 0.055985 0.250000
O O13 0.922617 0.116522 0.750000
O O14 0.000000 0.090919 0.616386
#
# Coordination Sequence:
#
# PCOD9474932 Si02
#       6
#    16  16  16   8  16  16
#     4  10  22  42  63  91 130 162 204 257 308 371
#     4  11  23  41  65  92 122 163 214 258 309 369
#     4  10  23  41  62  94 129 163 205 255 309 372
#     4  12  21  38  66  94 123 168 210 254 312 380
#     4  10  23  41  64  92 125 166 206 252 313 370
#     4  10  22  40  62  92 128 164 210 263 309 364
#
# _framework density 20.083276000000001
#
# number of rings (size 3 to 8) (size 9 to 14) (size 15 to 20)
#    0.000    1.636    1.818    1.909    2.545    5.091 
#    0.000    5.455    0.000    0.000    0.000    0.000 
#    0.000    0.000    0.000    0.000    0.000    0.000 
#
# Total GULP energy -246019.336041 kJ/mol
# GULP energy per Si atom -5591.348546 kJ/mol
# Density = 2.003757 g / cm^3
# Si number density = 20.083276 Si / 1000 Ang^3
#
#
#
# Elastic Constant Matrix: (Units=GPa)
#
#
# Indices 1 2 3 4 5 6 
#
# 1 94.5896 26.9444 25.0546 0.0000 0.0000 0.0000
# 2 26.9444 67.0346 11.1917 0.0000 0.0000 0.0000
# 3 25.0546 11.1917 70.8370 0.0000 0.0000 0.0000
# 4 0.0000 0.0000 0.0000 33.3861 0.0000 0.0000
# 5 0.0000 0.0000 0.0000 0.0000 34.8541 0.0000
# 6 0.0000 0.0000 0.0000 0.0000 0.0000 26.7700
#
#
#
# Elastic Compliance Matrix: (Units=1/GPa)
#
#
# Indices 1 2 3 4 5 6 
#
# 1 0.012881 -0.004537 -0.003839 0.000000 0.000000 0.000000
# 2 -0.004537 0.016920 -0.001069 0.000000 0.000000 0.000000
# 3 -0.003839 -0.001069 0.015644 0.000000 0.000000 0.000000
# 4 0.000000 0.000000 0.000000 0.029953 0.000000 0.000000
# 5 0.000000 0.000000 0.000000 0.000000 0.028691 0.000000
# 6 0.000000 0.000000 0.000000 0.000000 0.000000 0.037355
#
#
# Mechanical properties :
#
#
# Convention : Reuss Voigt Hill
#
# Bulk Modulus (GPa) = 37.65691 39.87137 38.76414
# Shear Modulus (GPa) = 29.55362 30.28673 29.92018
#
# Velocity S-wave (km/s) = 3.84025 3.88758 3.86399
# Velocity P-wave (km/s) = 6.20116 6.32829 6.26505
#
# Compressibility (1/GPa) = 0.02655555
#
# Stress axis : x y z
#
# Youngs Moduli (GPa) = 77.63258 59.10324 63.92370
#
# Poissons Ratio (x) = 0.26813 0.24542
# Poissons Ratio (y) = 0.35219 0.06831
# Poissons Ratio (z) = 0.29805 0.06316
#
# Static dielectric constant tensor:
#      x y z
#    x 1.665360 0.000000 0.000000 
#    y 0.000000 1.706980 0.000000 
#    z 0.000000 0.000000 1.721940 
# 
# From -- ./inp_files/36586.got.cif
#   From: 2010.05.17/outbox.cif.g08.bks.cpg/sg63_19_cif.got.tgz:36586.got - 2010.06.03 15:47:04.
