data_PCOD9474335
_publ_section_title
;
Structure prediction by ZEFSAII (Michael W. Deem and Ramdas Pophale) SiO2 
 PCOD9474335
Probable space group: C M C M
;
_chemical_formula_sum "Si O2"
_cell_formula_units_Z 48
_cell_length_a 13.362461
_cell_length_b 6.873623
_cell_length_c 17.651075
_cell_angle_alpha 90.000000
_cell_angle_beta 90.000000
_cell_angle_gamma 90.000000
_cell_volume 1621.225102
_symmetry_space_group_name_H-M "C M C M"
_symmetry_group_IT_number 63
_symmetry_cell_setting 'orthorhombic'
loop_
_space_group_symop_operation_xyz
x,y,z
-x,-y,1/2+z
x,-y,-z
-x,y,1/2-z
-x,-y,-z
x,y,1/2-z
-x,y,z
x,-y,1/2+z
1/2+x,1/2+y,z
1/2-x,1/2-y,1/2+z
1/2+x,1/2-y,-z
1/2-x,1/2+y,1/2-z
1/2-x,1/2-y,-z
1/2+x,1/2+y,1/2-z
1/2-x,1/2+y,z
1/2+x,1/2-y,1/2+z
loop_
_atom_site_type_symbol
_atom_site_label
_atom_site_fract_x
_atom_site_fract_y
_atom_site_fract_z
Si Si1 0.380885 0.054224 0.250000
Si Si2 0.388252 0.472385 0.250000
Si Si3 0.162017 0.617486 0.425367
Si Si4 0.388978 0.430381 0.911350
O O1 0.500000 0.387535 0.250000
O O2 0.354400 0.017928 0.158360
O O3 0.328215 0.273856 0.250000
O O4 0.500000 0.012411 0.250000
O O5 0.380698 0.599722 0.177638
O O6 0.124712 0.500000 0.500000
O O7 0.281551 0.641493 0.437715
O O8 0.114449 0.833112 0.420369
O O9 0.500000 0.364547 0.934566
#
# Coordination Sequence:
#
# PCOD9474335 Si02
#       4
#     8   8  16  16
#     4   9  19  36  60  89 120 156 198 247 300 353
#     4   7  13  30  55  79 108 152 195 233 287 345
#     4  11  22  39  63  91 121 158 204 247 296 361
#     4  10  21  38  60  87 122 160 199 248 300 351
#
# _framework density 29.607240000000001
#
# number of rings (size 3 to 8) (size 9 to 14) (size 15 to 20)
#    0.000    2.333    0.000    5.000    0.000    3.333 
#    0.000    3.333    0.000    2.000    0.000    0.000 
#    0.000    0.000    0.000    0.000    0.000    0.000 
#
# Total GULP energy -133865.687933 kJ/mol
# GULP energy per Si atom -5577.736997 kJ/mol
# Density = 2.953985 g / cm^3
# Si number density = 29.607240 Si / 1000 Ang^3
#
#
#
# Elastic Constant Matrix: (Units=GPa)
#
#
# Indices 1 2 3 4 5 6 
#
# 1 228.9000 42.7726 89.0182 0.0000 0.0000 0.0000
# 2 42.7726 128.6148 36.6953 0.0000 0.0000 0.0000
# 3 89.0182 36.6953 296.7326 0.0000 0.0000 0.0000
# 4 0.0000 0.0000 0.0000 19.5828 0.0000 0.0000
# 5 0.0000 0.0000 0.0000 0.0000 51.5395 0.0000
# 6 0.0000 0.0000 0.0000 0.0000 0.0000 31.4576
#
#
#
# Elastic Compliance Matrix: (Units=1/GPa)
#
#
# Indices 1 2 3 4 5 6 
#
# 1 0.005153 -0.001319 -0.001383 0.000000 0.000000 0.000000
# 2 -0.001319 0.008397 -0.000643 0.000000 0.000000 0.000000
# 3 -0.001383 -0.000643 0.003864 0.000000 0.000000 0.000000
# 4 0.000000 0.000000 0.000000 0.051065 0.000000 0.000000
# 5 0.000000 0.000000 0.000000 0.000000 0.019403 0.000000
# 6 0.000000 0.000000 0.000000 0.000000 0.000000 0.031789
#
#
# Mechanical properties :
#
#
# Convention : Reuss Voigt Hill
#
# Bulk Modulus (GPa) = 93.23728 110.13551 101.68639
# Shear Modulus (GPa) = 38.48062 52.90005 45.69033
#
# Velocity S-wave (km/s) = 3.60905 4.23155 3.93264
# Velocity P-wave (km/s) = 6.99477 7.82012 7.41893
#
# Compressibility (1/GPa) = 0.01072532
#
# Stress axis : x y z
#
# Youngs Moduli (GPa) = 194.06321 119.08688 258.77727
#
# Poissons Ratio (x) = 0.15710 0.35782
# Poissons Ratio (y) = 0.25600 0.16631
# Poissons Ratio (z) = 0.26834 0.07654
#
# Static dielectric constant tensor:
#      x y z
#    x 2.220410 0.000000 0.000000 
#    y 0.000000 2.444200 0.000000 
#    z 0.000000 0.000000 2.423610 
# 
# From -- ./inp_files/41139.got.cif
#   From: 2010.05.17/outbox.cif.g08.bks.cpg/sg63_21_cif.got.tgz:41139.got - 2010.06.03 15:47:04.
