data_PCOD9474681
_publ_section_title
;
Structure prediction by ZEFSAII (Michael W. Deem and Ramdas Pophale) SiO2 
 PCOD9474681
Probable space group: C M C M
;
_chemical_formula_sum "Si O2"
_cell_formula_units_Z 68
_cell_length_a 7.732234
_cell_length_b 23.564989
_cell_length_c 17.456737
_cell_angle_alpha 90.000000
_cell_angle_beta 90.000000
_cell_angle_gamma 90.000000
_cell_volume 3180.792209
_symmetry_space_group_name_H-M "C M C M"
_symmetry_group_IT_number 63
_symmetry_cell_setting 'orthorhombic'
loop_
_space_group_symop_operation_xyz
x,y,z
-x,-y,1/2+z
x,-y,-z
-x,y,1/2-z
-x,-y,-z
x,y,1/2-z
-x,y,z
x,-y,1/2+z
1/2+x,1/2+y,z
1/2-x,1/2-y,1/2+z
1/2+x,1/2-y,-z
1/2-x,1/2+y,1/2-z
1/2-x,1/2-y,-z
1/2+x,1/2+y,1/2-z
1/2-x,1/2+y,z
1/2+x,1/2-y,1/2+z
loop_
_atom_site_type_symbol
_atom_site_label
_atom_site_fract_x
_atom_site_fract_y
_atom_site_fract_z
Si Si1 0.208626 0.867680 0.836253
Si Si2 0.308192 0.125882 0.633174
Si Si3 0.500000 0.401072 0.250000
Si Si4 0.796876 0.753080 0.089812
Si Si5 0.290139 0.436049 0.980843
O O1 0.274594 0.875096 0.750000
O O2 0.255428 0.806163 0.869652
O O3 0.267349 0.914410 0.897625
O O4 0.000000 0.870861 0.833474
O O5 0.500000 0.108944 0.658437
O O6 0.153092 0.101711 0.683773
O O7 0.294904 0.194200 0.630720
O O8 0.280410 0.105175 0.546180
O O9 0.000000 0.764591 0.095695
O O10 0.750000 0.750000 0.000000
O O11 0.500000 0.433423 0.983032
O O12 0.237651 0.500000 0.000000
#
# Coordination Sequence:
#
# PCOD9474681 Si02
#       5
#    16  16   4  16  16
#     4  10  22  39  62  97 135 179 233 287 342 406
#     4  12  25  44  69 102 138 182 228 281 348 419
#     4  12  26  48  66 102 142 176 228 292 338 420
#     4  12  23  39  64  96 136 179 223 276 344 422
#     4  10  21  43  69  98 135 186 237 287 347 412
#
# _framework density 21.378322000000001
#
# number of rings (size 3 to 8) (size 9 to 14) (size 15 to 20)
#    0.000    0.941    4.706    2.471    1.647    0.941 
#    2.118    0.000    0.000    0.000    0.000    0.000 
#    0.000    0.000    0.000    0.000    0.000    0.000 
#
# Total GULP energy -189684.707560 kJ/mol
# GULP energy per Si atom -5578.961987 kJ/mol
# Density = 2.132966 g / cm^3
# Si number density = 21.378322 Si / 1000 Ang^3
#
#
#
# Elastic Constant Matrix: (Units=GPa)
#
#
# Indices 1 2 3 4 5 6 
#
# 1 126.9201 6.6745 41.9397 0.0000 0.0000 0.0000
# 2 6.6745 104.6165 46.2337 0.0000 0.0000 0.0000
# 3 41.9397 46.2337 180.9371 0.0000 0.0000 0.0000
# 4 0.0000 0.0000 0.0000 4.2818 0.0000 0.0000
# 5 0.0000 0.0000 0.0000 0.0000 17.1467 0.0000
# 6 0.0000 0.0000 0.0000 0.0000 0.0000 16.7544
#
#
#
# Elastic Compliance Matrix: (Units=1/GPa)
#
#
# Indices 1 2 3 4 5 6 
#
# 1 0.008545 0.000372 -0.002076 0.000000 0.000000 0.000000
# 2 0.000372 0.010792 -0.002844 0.000000 0.000000 0.000000
# 3 -0.002076 -0.002844 0.006735 0.000000 0.000000 0.000000
# 4 0.000000 0.000000 0.000000 0.233548 0.000000 0.000000
# 5 0.000000 0.000000 0.000000 0.000000 0.058320 0.000000
# 6 0.000000 0.000000 0.000000 0.000000 0.000000 0.059686
#
#
# Mechanical properties :
#
#
# Convention : Reuss Voigt Hill
#
# Bulk Modulus (GPa) = 58.90399 66.90772 62.90585
# Shear Modulus (GPa) = 12.74277 28.81162 20.77720
#
# Velocity S-wave (km/s) = 2.44408 3.67509 3.12088
# Velocity P-wave (km/s) = 5.96470 7.02661 6.51732
#
# Compressibility (1/GPa) = 0.01697678
#
# Stress axis : x y z
#
# Youngs Moduli (GPa) = 117.02282 92.66326 148.48668
#
# Poissons Ratio (x) = -0.03449 0.30824
# Poissons Ratio (y) = -0.04356 0.42227
# Poissons Ratio (z) = 0.24292 0.26352
#
# Static dielectric constant tensor:
#      x y z
#    x 1.792130 0.000000 0.000000 
#    y 0.000000 1.820640 0.000000 
#    z 0.000000 0.000000 1.634940 
# 
# From -- ./inp_files/39949.got.cif
#   From: 2010.05.17/outbox.cif.g08.bks.cpg/sg63_20_cif.got.tgz:39949.got - 2010.06.03 15:47:04.
