data_PCOD9474022
_publ_section_title
;
Structure prediction by ZEFSAII (Michael W. Deem and Ramdas Pophale) SiO2 
 PCOD9474022
Probable space group: C M C M
;
_chemical_formula_sum "Si O2"
_cell_formula_units_Z 64
_cell_length_a 27.347206
_cell_length_b 8.806885
_cell_length_c 13.018601
_cell_angle_alpha 90.000000
_cell_angle_beta 90.000000
_cell_angle_gamma 90.000000
_cell_volume 3135.448012
_symmetry_space_group_name_H-M "C M C M"
_symmetry_group_IT_number 63
_symmetry_cell_setting 'orthorhombic'
loop_
_space_group_symop_operation_xyz
x,y,z
-x,-y,1/2+z
x,-y,-z
-x,y,1/2-z
-x,-y,-z
x,y,1/2-z
-x,y,z
x,-y,1/2+z
1/2+x,1/2+y,z
1/2-x,1/2-y,1/2+z
1/2+x,1/2-y,-z
1/2-x,1/2+y,1/2-z
1/2-x,1/2-y,-z
1/2+x,1/2+y,1/2-z
1/2-x,1/2+y,z
1/2+x,1/2-y,1/2+z
loop_
_atom_site_type_symbol
_atom_site_label
_atom_site_fract_x
_atom_site_fract_y
_atom_site_fract_z
Si Si1 0.876081 0.874820 0.075362
Si Si2 0.872277 0.375001 0.076767
Si Si3 0.695716 0.021378 0.250000
Si Si4 0.804082 0.890097 0.250000
Si Si5 0.557087 0.771489 0.750000
Si Si6 0.943522 0.639841 0.750000
O O1 0.834632 0.940415 0.150269
O O2 0.915084 0.795040 0.150597
O O3 0.852012 0.751953 0.999114
O O4 0.898113 0.000000 0.000000
O O5 0.833155 0.455054 0.151176
O O6 0.914165 0.307833 0.149896
O O7 0.894329 0.500000 0.000000
O O8 0.750334 0.957683 0.250000
O O9 0.695229 0.204787 0.250000
O O10 0.500000 0.731821 0.750000
O O11 0.560872 0.954919 0.750000
O O12 0.000000 0.681838 0.750000
#
# Coordination Sequence:
#
# PCOD9474022 Si02
#       6
#    16  16   8   8   8   8
#     4  11  24  41  63  88 124 163 199 243 302 361
#     4  11  20  41  62  86 121 159 197 248 298 349
#     4  11  25  39  63  90 124 155 201 254 298 351
#     4  11  25  43  59  92 122 155 201 254 300 355
#     4  10  21  40  62  90 125 157 198 251 301 352
#     4  10  21  36  64  96 119 153 206 253 291 354
#
# _framework density 20.411756
#
# number of rings (size 3 to 8) (size 9 to 14) (size 15 to 20)
#    0.000    1.250    5.000    1.500    3.500    7.000 
#    0.000    1.250    0.000    0.000    0.000    0.000 
#    0.000    0.000    0.000    0.000    0.000    0.000 
#
# Total GULP energy -178738.904701 kJ/mol
# GULP energy per Si atom -5585.590772 kJ/mol
# Density = 2.036530 g / cm^3
# Si number density = 20.411756 Si / 1000 Ang^3
#
#
#
# Elastic Constant Matrix: (Units=GPa)
#
#
# Indices 1 2 3 4 5 6 
#
# 1 118.6334 -9.3820 39.7080 0.0000 0.0000 0.0000
# 2 -9.3820 37.8563 23.2218 0.0000 0.0000 0.0000
# 3 39.7080 23.2218 142.8702 0.0000 0.0000 0.0000
# 4 0.0000 0.0000 0.0000 58.3401 0.0000 0.0000
# 5 0.0000 0.0000 0.0000 0.0000 2.2186 0.0000
# 6 0.0000 0.0000 0.0000 0.0000 0.0000 25.7174
#
#
#
# Elastic Compliance Matrix: (Units=1/GPa)
#
#
# Indices 1 2 3 4 5 6 
#
# 1 0.009976 0.004635 -0.003526 0.000000 0.000000 0.000000
# 2 0.004635 0.031495 -0.006407 0.000000 0.000000 0.000000
# 3 -0.003526 -0.006407 0.009021 0.000000 0.000000 0.000000
# 4 0.000000 0.000000 0.000000 0.017141 0.000000 0.000000
# 5 0.000000 0.000000 0.000000 0.000000 0.450732 0.000000
# 6 0.000000 0.000000 0.000000 0.000000 0.000000 0.038884
#
#
# Mechanical properties :
#
#
# Convention : Reuss Voigt Hill
#
# Bulk Modulus (GPa) = 25.06543 45.16174 35.11359
# Shear Modulus (GPa) = 8.60373 33.64269 21.12321
#
# Velocity S-wave (km/s) = 2.05529 4.06421 3.22041
# Velocity P-wave (km/s) = 4.23543 6.64809 5.57387
#
# Compressibility (1/GPa) = 0.03989559
#
# Stress axis : x y z
#
# Youngs Moduli (GPa) = 100.23917 31.75114 110.85456
#
# Poissons Ratio (x) = -0.14718 0.39088
# Poissons Ratio (y) = -0.46465 0.71029
# Poissons Ratio (z) = 0.35345 0.20344
#
# Static dielectric constant tensor:
#      x y z
#    x 1.681720 0.000000 0.000000 
#    y 0.000000 1.773700 0.000000 
#    z 0.000000 0.000000 1.706410 
# 
# From -- ./inp_files/25531.got.cif
#   From: 2010.05.17/outbox.cif.g08.bks.cpg/sg63_13_cif.got.tgz:25531.got - 2010.06.03 15:47:04.
