data_PCOD9474642
_publ_section_title
;
Structure prediction by ZEFSAII (Michael W. Deem and Ramdas Pophale) SiO2 
 PCOD9474642
Probable space group: C M C M
;
_chemical_formula_sum "Si O2"
_cell_formula_units_Z 72
_cell_length_a 15.020861
_cell_length_b 15.066308
_cell_length_c 16.255428
_cell_angle_alpha 90.000000
_cell_angle_beta 90.000000
_cell_angle_gamma 90.000000
_cell_volume 3678.748326
_symmetry_space_group_name_H-M "C M C M"
_symmetry_group_IT_number 63
_symmetry_cell_setting 'orthorhombic'
loop_
_space_group_symop_operation_xyz
x,y,z
-x,-y,1/2+z
x,-y,-z
-x,y,1/2-z
-x,-y,-z
x,y,1/2-z
-x,y,z
x,-y,1/2+z
1/2+x,1/2+y,z
1/2-x,1/2-y,1/2+z
1/2+x,1/2-y,-z
1/2-x,1/2+y,1/2-z
1/2-x,1/2-y,-z
1/2+x,1/2+y,1/2-z
1/2-x,1/2+y,z
1/2+x,1/2-y,1/2+z
loop_
_atom_site_type_symbol
_atom_site_label
_atom_site_fract_x
_atom_site_fract_y
_atom_site_fract_z
Si Si1 0.164026 0.628491 0.656570
Si Si2 0.500000 0.714255 0.980261
Si Si3 0.000000 0.597306 0.535838
Si Si4 0.500000 0.435668 0.152005
Si Si5 0.810897 0.200500 0.067278
Si Si6 0.189618 0.979708 0.847774
O O1 0.134965 0.612796 0.750000
O O2 0.188387 0.731153 0.643246
O O3 0.246904 0.564137 0.639088
O O4 0.086118 0.609022 0.592817
O O5 0.500000 0.655438 0.898702
O O6 0.500000 0.821300 0.971025
O O7 0.410627 0.692494 0.031152
O O8 0.000000 0.500000 0.500000
O O9 0.500000 0.418660 0.250000
O O10 0.588853 0.491056 0.132156
O O11 0.781492 0.103849 0.097462
O O12 0.750000 0.250000 0.000000
O O13 0.192748 0.957579 0.750000
#
# Coordination Sequence:
#
# PCOD9474642 Si02
#       6
#    16   8   8   8  16  16
#     4  10  22  40  61  86 119 159 203 249 297 361
#     4  10  23  39  57  92 113 153 200 245 304 347
#     4  10  23  40  63  83 121 154 204 248 296 362
#     4  10  21  41  63  87 123 156 196 249 304 364
#     4  11  23  37  61  88 121 158 199 250 304 352
#     4  10  22  39  62  89 120 161 200 244 302 362
#
# _framework density 19.571874000000001
#
# number of rings (size 3 to 8) (size 9 to 14) (size 15 to 20)
#    0.000    1.778    0.000    3.000    6.222    3.556 
#    0.000    5.556    0.000    0.000    0.000    0.000 
#    0.000    0.000    0.000    0.000    0.000    0.000 
#
# Total GULP energy -201119.460819 kJ/mol
# GULP energy per Si atom -5586.651689 kJ/mol
# Density = 1.952733 g / cm^3
# Si number density = 19.571874 Si / 1000 Ang^3
#
#
#
# Elastic Constant Matrix: (Units=GPa)
#
#
# Indices 1 2 3 4 5 6 
#
# 1 85.7700 16.0099 25.4783 0.0000 0.0000 0.0000
# 2 16.0099 126.3596 53.5658 0.0000 0.0000 0.0000
# 3 25.4783 53.5658 60.4169 0.0000 0.0000 0.0000
# 4 0.0000 0.0000 0.0000 42.9385 0.0000 0.0000
# 5 0.0000 0.0000 0.0000 0.0000 -6.1329 0.0000
# 6 0.0000 0.0000 0.0000 0.0000 0.0000 17.0041
#
#
#
# Elastic Compliance Matrix: (Units=1/GPa)
#
#
# Indices 1 2 3 4 5 6 
#
# 1 0.013427 0.001120 -0.006655 0.000000 0.000000 0.000000
# 2 0.001120 0.012773 -0.011797 0.000000 0.000000 0.000000
# 3 -0.006655 -0.011797 0.029817 0.000000 0.000000 0.000000
# 4 0.000000 0.000000 0.000000 0.023289 0.000000 0.000000
# 5 0.000000 0.000000 0.000000 0.000000 -0.163054 0.000000
# 6 0.000000 0.000000 0.000000 0.000000 0.000000 0.058809
#
#
# Mechanical properties :
#
#
# Convention : Reuss Voigt Hill
#
# Bulk Modulus (GPa) = 46.83166 51.40607 49.11887
# Shear Modulus (GPa) = 296.84904 22.59475 159.72189
#
# Velocity S-wave (km/s) = 12.32885 3.40141 9.04351
# Velocity P-wave (km/s) = 15.05481 6.46130 11.58438
#
# Compressibility (1/GPa) = 0.02135308
#
# Stress axis : x y z
#
# Youngs Moduli (GPa) = 74.47674 78.29097 33.53750
#
# Poissons Ratio (x) = -0.08769 0.22320
# Poissons Ratio (y) = -0.08342 0.39564
# Poissons Ratio (z) = 0.49567 0.92358
#
# Static dielectric constant tensor:
#      x y z
#    x 1.694980 0.000000 0.000000 
#    y 0.000000 1.672860 0.000000 
#    z 0.000000 0.000000 1.686590 
# 
# From -- ./inp_files/43792.got.cif
#   From: 2010.05.17/outbox.cif.g08.bks.cpg/sg63_22_cif.got.tgz:43792.got - 2010.06.03 15:47:04.
