data_PCOD9474827
_publ_section_title
;
Structure prediction by ZEFSAII (Michael W. Deem and Ramdas Pophale) SiO2 
 PCOD9474827
Probable space group: C M C M
;
_chemical_formula_sum "Si O2"
_cell_formula_units_Z 72
_cell_length_a 23.302310
_cell_length_b 19.508783
_cell_length_c 8.521522
_cell_angle_alpha 90.000000
_cell_angle_beta 90.000000
_cell_angle_gamma 90.000000
_cell_volume 3873.881423
_symmetry_space_group_name_H-M "C M C M"
_symmetry_group_IT_number 63
_symmetry_cell_setting 'orthorhombic'
loop_
_space_group_symop_operation_xyz
x,y,z
-x,-y,1/2+z
x,-y,-z
-x,y,1/2-z
-x,-y,-z
x,y,1/2-z
-x,y,z
x,-y,1/2+z
1/2+x,1/2+y,z
1/2-x,1/2-y,1/2+z
1/2+x,1/2-y,-z
1/2-x,1/2+y,1/2-z
1/2-x,1/2-y,-z
1/2+x,1/2+y,1/2-z
1/2-x,1/2+y,z
1/2+x,1/2-y,1/2+z
loop_
_atom_site_type_symbol
_atom_site_label
_atom_site_fract_x
_atom_site_fract_y
_atom_site_fract_z
Si Si1 0.101195 0.172488 0.438523
Si Si2 0.728733 0.676331 0.561403
Si Si3 0.000000 0.922799 0.436852
Si Si4 0.435229 0.173631 0.941249
Si Si5 0.831703 0.423001 0.439544
O O1 0.099916 0.170252 0.250000
O O2 0.165638 0.160777 0.497091
O O3 0.082292 0.249323 0.487967
O O4 0.055783 0.118254 0.503369
O O5 0.727279 0.678559 0.750000
O O6 0.750000 0.750000 0.500000
O O7 0.775249 0.619422 0.512304
O O8 0.000000 0.923794 0.250000
O O9 0.000000 0.000000 0.500000
O O10 0.435042 0.172992 0.750000
O O11 0.500000 0.158371 0.993383
O O12 0.387667 0.119375 0.993955
O O13 0.831426 0.500000 0.500000
O O14 0.832706 0.423932 0.250000
#
# Coordination Sequence:
#
# PCOD9474827 Si02
#       5
#    16  16   8  16  16
#     4  11  21  39  66  93 122 161 203 254 317 371
#     4  11  22  38  61  90 123 161 211 261 310 371
#     4  12  26  44  64  94 129 164 207 256 311 373
#     4   9  17  34  61  88 117 155 197 241 301 368
#     4  10  22  39  58  86 122 161 199 247 307 363
#
# _framework density 18.586010000000002
#
# number of rings (size 3 to 8) (size 9 to 14) (size 15 to 20)
#    0.000    1.556    3.333    2.333    0.000    3.111 
#    0.000    2.222    0.000    0.000    0.000    0.000 
#    0.000    0.000    0.000    0.000    0.000    0.000 
#
# Total GULP energy -201166.268344 kJ/mol
# GULP energy per Si atom -5587.951898 kJ/mol
# Density = 1.854371 g / cm^3
# Si number density = 18.586010 Si / 1000 Ang^3
#
#
#
# Elastic Constant Matrix: (Units=GPa)
#
#
# Indices 1 2 3 4 5 6 
#
# 1 231.2815 126.6787 48.2006 0.0000 0.0000 0.0000
# 2 126.6787 198.0647 43.2460 0.0000 0.0000 0.0000
# 3 48.2006 43.2460 52.8631 0.0000 0.0000 0.0000
# 4 0.0000 0.0000 0.0000 32.1770 0.0000 0.0000
# 5 0.0000 0.0000 0.0000 0.0000 30.6248 0.0000
# 6 0.0000 0.0000 0.0000 0.0000 0.0000 35.1728
#
#
#
# Elastic Compliance Matrix: (Units=1/GPa)
#
#
# Indices 1 2 3 4 5 6 
#
# 1 0.007115 -0.003816 -0.003366 0.000000 0.000000 0.000000
# 2 -0.003816 0.008193 -0.003223 0.000000 0.000000 0.000000
# 3 -0.003366 -0.003223 0.024623 0.000000 0.000000 0.000000
# 4 0.000000 0.000000 0.000000 0.031078 0.000000 0.000000
# 5 0.000000 0.000000 0.000000 0.000000 0.032653 0.000000
# 6 0.000000 0.000000 0.000000 0.000000 0.000000 0.028431
#
#
# Mechanical properties :
#
#
# Convention : Reuss Voigt Hill
#
# Bulk Modulus (GPa) = 52.29893 102.05111 77.17502
# Shear Modulus (GPa) = 31.39165 37.20052 34.29608
#
# Velocity S-wave (km/s) = 4.11419 4.47870 4.30031
# Velocity P-wave (km/s) = 7.12522 9.04277 8.14065
#
# Compressibility (1/GPa) = 0.01912085
#
# Stress axis : x y z
#
# Youngs Moduli (GPa) = 140.54249 122.05233 40.61256
#
# Poissons Ratio (x) = 0.46573 0.13670
# Poissons Ratio (y) = 0.53629 0.13091
# Poissons Ratio (z) = 0.47307 0.39342
#
# Static dielectric constant tensor:
#      x y z
#    x 1.637470 0.000000 0.000000 
#    y 0.000000 1.603580 0.000000 
#    z 0.000000 0.000000 1.639830 
# 
# From -- ./inp_files/9844.got.cif
#   From: 2010.05.17/outbox.cif.g08.bks.cpg/sg63_5_cif.got.tgz:9844.got - 2010.06.03 15:47:04.
