data_PCOD9474112
_publ_section_title
;
Structure prediction by ZEFSAII (Michael W. Deem and Ramdas Pophale) SiO2 
 PCOD9474112
Probable space group: C M C M
;
_chemical_formula_sum "Si O2"
_cell_formula_units_Z 100
_cell_length_a 13.486894
_cell_length_b 28.068652
_cell_length_c 14.952197
_cell_angle_alpha 90.000000
_cell_angle_beta 90.000000
_cell_angle_gamma 90.000000
_cell_volume 5660.287761
_symmetry_space_group_name_H-M "C M C M"
_symmetry_group_IT_number 63
_symmetry_cell_setting 'orthorhombic'
loop_
_space_group_symop_operation_xyz
x,y,z
-x,-y,1/2+z
x,-y,-z
-x,y,1/2-z
-x,-y,-z
x,y,1/2-z
-x,y,z
x,-y,1/2+z
1/2+x,1/2+y,z
1/2-x,1/2-y,1/2+z
1/2+x,1/2-y,-z
1/2-x,1/2+y,1/2-z
1/2-x,1/2-y,-z
1/2+x,1/2+y,1/2-z
1/2-x,1/2+y,z
1/2+x,1/2-y,1/2+z
loop_
_atom_site_type_symbol
_atom_site_label
_atom_site_fract_x
_atom_site_fract_y
_atom_site_fract_z
Si Si1 0.500000 0.694563 0.641502
Si Si2 0.616674 0.555170 0.994402
Si Si3 0.819714 0.127084 0.851848
Si Si4 0.114483 0.867500 0.857122
Si Si5 0.705016 0.801222 0.913165
Si Si6 0.000000 0.697187 0.144851
Si Si7 0.500000 0.771370 0.250000
Si Si8 0.812818 0.287386 0.377278
O O1 0.500000 0.696371 0.750000
O O2 0.594923 0.663508 0.614839
O O3 0.500000 0.748427 0.606638
O O4 0.500000 0.557356 0.967509
O O5 0.678964 0.583813 0.920513
O O6 0.644647 0.500000 0.000000
O O7 0.623942 0.583079 0.088615
O O8 0.842546 0.112092 0.750000
O O9 0.722645 0.159964 0.850505
O O10 0.129505 0.871574 0.750000
O O11 0.197010 0.832701 0.898514
O O12 0.000000 0.850400 0.869718
O O13 0.604151 0.825811 0.881152
O O14 0.729014 0.752780 0.858621
O O15 0.682998 0.788723 0.015708
O O16 0.000000 0.701438 0.250000
O O17 0.412269 0.773115 0.327396
#
# Coordination Sequence:
#
# PCOD9474112 Si02
#       8
#     8  16  16  16  16   8   4  16
#     4   9  18  29  50  77 112 149 188 233 274 327
#     4  10  21  37  57  85 120 153 192 248 310 371
#     4  11  19  35  57  83 112 154 196 240 294 359
#     4  10  22  37  58  85 122 166 205 244 301 367
#     4  11  23  38  55  84 120 165 204 242 291 354
#     4  11  21  33  54  78 114 158 202 246 275 327
#     4  12  26  40  58  86 128 160 198 274 300 352
#     4  11  24  37  55  83 119 158 201 239 296 353
#
# _framework density 17.666947
#
# number of rings (size 3 to 8) (size 9 to 14) (size 15 to 20)
#    0.000    1.440    4.800    0.960    3.360    0.640 
#    1.440    1.600    0.000    0.000    0.000    2.240 
#    2.400    0.000    0.000    0.000    0.000    0.000 
#
# Total GULP energy -278414.468245 kJ/mol
# GULP energy per Si atom -5568.289365 kJ/mol
# Density = 1.762674 g / cm^3
# Si number density = 17.666947 Si / 1000 Ang^3
#
#
#
# Elastic Constant Matrix: (Units=GPa)
#
#
# Indices 1 2 3 4 5 6 
#
# 1 108.0243 21.8453 41.2117 0.0000 0.0000 0.0000
# 2 21.8453 71.8351 22.8780 0.0000 0.0000 0.0000
# 3 41.2117 22.8780 109.2920 0.0000 0.0000 0.0000
# 4 0.0000 0.0000 0.0000 8.0581 0.0000 0.0000
# 5 0.0000 0.0000 0.0000 0.0000 31.6438 0.0000
# 6 0.0000 0.0000 0.0000 0.0000 0.0000 13.8482
#
#
#
# Elastic Compliance Matrix: (Units=1/GPa)
#
#
# Indices 1 2 3 4 5 6 
#
# 1 0.011126 -0.002194 -0.003736 0.000000 0.000000 0.000000
# 2 -0.002194 0.015348 -0.002386 0.000000 0.000000 0.000000
# 3 -0.003736 -0.002386 0.011058 0.000000 0.000000 0.000000
# 4 0.000000 0.000000 0.000000 0.124099 0.000000 0.000000
# 5 0.000000 0.000000 0.000000 0.000000 0.031602 0.000000
# 6 0.000000 0.000000 0.000000 0.000000 0.000000 0.072211
#
#
# Mechanical properties :
#
#
# Convention : Reuss Voigt Hill
#
# Bulk Modulus (GPa) = 47.84460 51.22462 49.53461
# Shear Modulus (GPa) = 17.29852 24.25778 20.77815
#
# Velocity S-wave (km/s) = 3.13253 3.70950 3.43316
# Velocity P-wave (km/s) = 6.34223 6.88511 6.61924
#
# Compressibility (1/GPa) = 0.02090100
#
# Stress axis : x y z
#
# Youngs Moduli (GPa) = 89.87808 65.15682 90.43202
#
# Poissons Ratio (x) = 0.14293 0.33788
# Poissons Ratio (y) = 0.19716 0.21573
# Poissons Ratio (z) = 0.33581 0.15543
#
# Static dielectric constant tensor:
#      x y z
#    x 1.641300 0.000000 0.000000 
#    y 0.000000 1.596510 0.000000 
#    z 0.000000 0.000000 1.629530 
# 
# From -- ./inp_files/32480.got.cif
#   From: 2010.05.17/outbox.cif.g08.bks.cpg/sg63_17_cif.got.tgz:32480.got - 2010.06.03 15:47:04.
