data_PCOD9474834
_publ_section_title
;
Structure prediction by ZEFSAII (Michael W. Deem and Ramdas Pophale) SiO2 
 PCOD9474834
Probable space group: C M C M
;
_chemical_formula_sum "Si O2"
_cell_formula_units_Z 104
_cell_length_a 27.297586
_cell_length_b 19.486884
_cell_length_c 9.657123
_cell_angle_alpha 90.000000
_cell_angle_beta 90.000000
_cell_angle_gamma 90.000000
_cell_volume 5137.057250
_symmetry_space_group_name_H-M "C M C M"
_symmetry_group_IT_number 63
_symmetry_cell_setting 'orthorhombic'
loop_
_space_group_symop_operation_xyz
x,y,z
-x,-y,1/2+z
x,-y,-z
-x,y,1/2-z
-x,-y,-z
x,y,1/2-z
-x,y,z
x,-y,1/2+z
1/2+x,1/2+y,z
1/2-x,1/2-y,1/2+z
1/2+x,1/2-y,-z
1/2-x,1/2+y,1/2-z
1/2-x,1/2-y,-z
1/2+x,1/2+y,1/2-z
1/2-x,1/2+y,z
1/2+x,1/2-y,1/2+z
loop_
_atom_site_type_symbol
_atom_site_label
_atom_site_fract_x
_atom_site_fract_y
_atom_site_fract_z
Si Si1 0.192178 0.294540 0.531282
Si Si2 0.232717 0.263228 0.250000
Si Si3 0.444537 0.655226 0.911987
Si Si4 0.920265 0.688143 0.095728
Si Si5 0.867259 0.070830 0.085208
Si Si6 0.941581 0.439008 0.405137
Si Si7 0.253025 0.430606 0.913825
O O1 0.192227 0.270148 0.373806
O O2 0.224628 0.246519 0.630011
O O3 0.137845 0.300908 0.588402
O O4 0.218216 0.369303 0.538752
O O5 0.432615 0.639817 0.750000
O O6 0.500000 0.630322 0.939354
O O7 0.443531 0.737371 0.926026
O O8 0.404806 0.622764 0.013968
O O9 0.934184 0.663211 0.250000
O O10 0.934006 0.632569 0.982072
O O11 0.876178 0.062195 0.250000
O O12 0.809988 0.091602 0.069591
O O13 0.872384 0.000000 0.000000
O O14 0.920654 0.500000 0.500000
O O15 0.920887 0.439664 0.250000
O O16 0.000000 0.449929 0.394628
O O17 0.245449 0.442516 0.750000
O O18 0.245492 0.500000 0.000000
#
# Coordination Sequence:
#
# PCOD9474834 Si02
#       7
#    16   8  16  16  16  16  16
#     4  11  23  40  60  90 121 162 201 246 294 354
#     4  10  24  38  60  86 124 158 202 246 292 354
#     4  10  23  40  60  87 120 155 194 247 302 355
#     4  11  23  39  62  94 125 161 201 250 304 362
#     4  10  22  39  62  88 116 156 199 244 296 355
#     4  10  22  41  65  90 121 162 205 251 304 364
#     4  10  22  39  59  87 122 156 198 244 290 348
#
# _framework density 20.245054
#
# number of rings (size 3 to 8) (size 9 to 14) (size 15 to 20)
#    0.000    1.692    1.538    1.385    6.462    4.000 
#    0.000    1.538    0.000    0.000    0.000    0.000 
#    0.000    0.000    0.000    0.000    0.000    0.000 
#
# Total GULP energy -289495.094738 kJ/mol
# GULP energy per Si atom -5567.213360 kJ/mol
# Density = 2.019898 g / cm^3
# Si number density = 20.245054 Si / 1000 Ang^3
#
#
#
# Elastic Constant Matrix: (Units=GPa)
#
#
# Indices 1 2 3 4 5 6 
#
# 1 54.9057 12.9430 12.4772 0.0000 0.0000 0.0000
# 2 12.9430 41.5179 27.7408 0.0000 0.0000 0.0000
# 3 12.4772 27.7408 147.0248 0.0000 0.0000 0.0000
# 4 0.0000 0.0000 0.0000 17.9313 0.0000 0.0000
# 5 0.0000 0.0000 0.0000 0.0000 -80.4009 0.0000
# 6 0.0000 0.0000 0.0000 0.0000 0.0000 38.6668
#
#
#
# Elastic Compliance Matrix: (Units=1/GPa)
#
#
# Indices 1 2 3 4 5 6 
#
# 1 0.019702 -0.005750 -0.000587 0.000000 0.000000 0.000000
# 2 -0.005750 0.029238 -0.005029 0.000000 0.000000 0.000000
# 3 -0.000587 -0.005029 0.007800 0.000000 0.000000 0.000000
# 4 0.000000 0.000000 0.000000 0.055768 0.000000 0.000000
# 5 0.000000 0.000000 0.000000 0.000000 -0.012438 0.000000
# 6 0.000000 0.000000 0.000000 0.000000 0.000000 0.025862
#
#
# Mechanical properties :
#
#
# Convention : Reuss Voigt Hill
#
# Bulk Modulus (GPa) = 29.40367 38.86338 34.13353
# Shear Modulus (GPa) = 31.24981 7.92526 19.58754
#
# Velocity S-wave (km/s) = 3.93310 1.98070 3.11388
# Velocity P-wave (km/s) = 5.93137 4.94662 5.46123
#
# Compressibility (1/GPa) = 0.03400936
#
# Stress axis : x y z
#
# Youngs Moduli (GPa) = 50.75669 34.20151 128.20119
#
# Poissons Ratio (x) = 0.19665 0.07527
# Poissons Ratio (y) = 0.29183 0.64470
# Poissons Ratio (z) = 0.02980 0.17199
#
# Static dielectric constant tensor:
#      x y z
#    x 1.712710 0.000000 0.000000 
#    y 0.000000 1.737850 0.000000 
#    z 0.000000 0.000000 1.707920 
# 
# From -- ./inp_files/12492.got.cif
#   From: 2010.05.17/outbox.cif.g08.bks.cpg/sg63_7_cif.got.tgz:12492.got - 2010.06.03 15:47:04.
