data_PCOD9474949
_publ_section_title
;
Structure prediction by ZEFSAII (Michael W. Deem and Ramdas Pophale) SiO2 
 PCOD9474949
Probable space group: C M C M
;
_chemical_formula_sum "Si O2"
_cell_formula_units_Z 40
_cell_length_a 7.381685
_cell_length_b 13.693887
_cell_length_c 14.633237
_cell_angle_alpha 90.000000
_cell_angle_beta 90.000000
_cell_angle_gamma 90.000000
_cell_volume 1479.185547
_symmetry_space_group_name_H-M "C M C M"
_symmetry_group_IT_number 63
_symmetry_cell_setting 'orthorhombic'
loop_
_space_group_symop_operation_xyz
x,y,z
-x,-y,1/2+z
x,-y,-z
-x,y,1/2-z
-x,-y,-z
x,y,1/2-z
-x,y,z
x,-y,1/2+z
1/2+x,1/2+y,z
1/2-x,1/2-y,1/2+z
1/2+x,1/2-y,-z
1/2-x,1/2+y,1/2-z
1/2-x,1/2-y,-z
1/2+x,1/2+y,1/2-z
1/2-x,1/2+y,z
1/2+x,1/2-y,1/2+z
loop_
_atom_site_type_symbol
_atom_site_label
_atom_site_fract_x
_atom_site_fract_y
_atom_site_fract_z
Si Si1 0.500000 0.000000 0.500000
Si Si2 0.287538 0.263038 0.892947
Si Si3 0.000000 0.808409 0.250000
Si Si4 0.213897 0.008790 0.143633
O O1 0.657684 0.040017 0.570279
O O2 0.500000 0.251648 0.873248
O O3 0.157160 0.200266 0.829873
O O4 0.239190 0.375980 0.868468
O O5 0.250000 0.250000 0.000000
O O6 0.245152 0.986545 0.250000
O O7 0.000000 0.997390 0.126219
#
# Coordination Sequence:
#
# PCOD9474949 Si02
#       4
#     4  16   4  16
#     4  12  22  36  68  94 120 170 226 260 308 382
#     4  11  22  38  66  98 130 169 217 264 324 393
#     4  12  20  36  60  92 136 172 204 260 318 384
#     4  10  22  40  64  92 126 165 212 267 317 378
#
# _framework density 27.041907999999999
#
# number of rings (size 3 to 8) (size 9 to 14) (size 15 to 20)
#    0.000    1.200    4.000    3.000    0.000    0.000 
#    0.000    0.000    8.800    0.000    0.000    0.000 
#    0.000    0.000    0.000    0.000    0.000    0.000 
#
# Total GULP energy -111405.491197 kJ/mol
# GULP energy per Si atom -5570.274560 kJ/mol
# Density = 2.698036 g / cm^3
# Si number density = 27.041908 Si / 1000 Ang^3
#
#
#
# Elastic Constant Matrix: (Units=GPa)
#
#
# Indices 1 2 3 4 5 6 
#
# 1 190.5547 0.2912 126.6381 0.0000 0.0000 0.0000
# 2 0.2912 104.8041 26.1519 0.0000 0.0000 0.0000
# 3 126.6381 26.1519 256.7851 0.0000 0.0000 0.0000
# 4 0.0000 0.0000 0.0000 44.9772 0.0000 0.0000
# 5 0.0000 0.0000 0.0000 0.0000 96.6105 0.0000
# 6 0.0000 0.0000 0.0000 0.0000 0.0000 -41.8822
#
#
#
# Elastic Compliance Matrix: (Units=1/GPa)
#
#
# Indices 1 2 3 4 5 6 
#
# 1 0.007902 0.000975 -0.003996 0.000000 0.000000 0.000000
# 2 0.000975 0.009911 -0.001490 0.000000 0.000000 0.000000
# 3 -0.003996 -0.001490 0.006017 0.000000 0.000000 0.000000
# 4 0.000000 0.000000 0.000000 0.022233 0.000000 0.000000
# 5 0.000000 0.000000 0.000000 0.000000 0.010351 0.000000
# 6 0.000000 0.000000 0.000000 0.000000 0.000000 -0.023877
#
#
# Mechanical properties :
#
#
# Convention : Reuss Voigt Hill
#
# Bulk Modulus (GPa) = 67.53530 95.36735 81.45133
# Shear Modulus (GPa) = 107.53442 46.54527 77.03985
#
# Velocity S-wave (km/s) = 6.31286 4.15327 5.34330
# Velocity P-wave (km/s) = 8.84108 7.63823 8.26158
#
# Compressibility (1/GPa) = 0.01480707
#
# Stress axis : x y z
#
# Youngs Moduli (GPa) = 126.54507 100.90013 166.19492
#
# Poissons Ratio (x) = -0.09841 0.66420
# Poissons Ratio (y) = -0.12342 0.24769
# Poissons Ratio (z) = 0.50574 0.15037
#
# Static dielectric constant tensor:
#      x y z
#    x 1.921860 0.000000 0.000000 
#    y 0.000000 2.504330 0.000000 
#    z 0.000000 0.000000 2.031050 
# 
# From -- ./inp_files/26817.got.cif
#   From: 2010.05.17/outbox.cif.g08.bks.cpg/sg63_14_cif.got.tgz:26817.got - 2010.06.03 15:47:04.
