data_PCOD9474376
_publ_section_title
;
Structure prediction by ZEFSAII (Michael W. Deem and Ramdas Pophale) SiO2 
 PCOD9474376
Probable space group: C M C M
;
_chemical_formula_sum "Si O2"
_cell_formula_units_Z 120
_cell_length_a 21.837438
_cell_length_b 10.270754
_cell_length_c 27.426158
_cell_angle_alpha 90.000000
_cell_angle_beta 90.000000
_cell_angle_gamma 90.000000
_cell_volume 6151.329429
_symmetry_space_group_name_H-M "C M C M"
_symmetry_group_IT_number 63
_symmetry_cell_setting 'orthorhombic'
loop_
_space_group_symop_operation_xyz
x,y,z
-x,-y,1/2+z
x,-y,-z
-x,y,1/2-z
-x,-y,-z
x,y,1/2-z
-x,y,z
x,-y,1/2+z
1/2+x,1/2+y,z
1/2-x,1/2-y,1/2+z
1/2+x,1/2-y,-z
1/2-x,1/2+y,1/2-z
1/2-x,1/2-y,-z
1/2+x,1/2+y,1/2-z
1/2-x,1/2+y,z
1/2+x,1/2-y,1/2+z
loop_
_atom_site_type_symbol
_atom_site_label
_atom_site_fract_x
_atom_site_fract_y
_atom_site_fract_z
Si Si1 0.348984 0.187267 0.083722
Si Si2 0.763158 0.876712 0.968207
Si Si3 0.852472 0.098215 0.118344
Si Si4 0.713948 0.636054 0.836004
Si Si5 0.374374 0.742474 0.750000
Si Si6 0.928660 0.917555 0.049848
Si Si7 0.145792 0.315664 0.306291
Si Si8 0.071566 0.427082 0.831245
O O1 0.302488 0.092329 0.056317
O O2 0.304356 0.275098 0.117783
O O3 0.386567 0.288653 0.050290
O O4 0.396059 0.113378 0.118389
O O5 0.814115 0.849166 0.927537
O O6 0.750000 0.750000 0.000000
O O7 0.782802 0.000000 0.000000
O O8 0.875933 0.207664 0.155075
O O9 0.804932 0.009381 0.148899
O O10 0.904075 0.005473 0.094827
O O11 0.671142 0.682236 0.792246
O O12 0.784346 0.650048 0.821064
O O13 0.415831 0.812512 0.707194
O O14 0.000000 0.883972 0.056961
O O15 0.923839 0.000000 0.000000
O O16 0.144584 0.270088 0.250000
O O17 0.105632 0.445102 0.311169
O O18 0.000000 0.449742 0.837445
#
# Coordination Sequence:
#
# PCOD9474376 Si02
#       8
#    16  16  16  16   8  16  16  16
#     4  10  21  40  65  93 123 166 211 267 318 390
#     4  12  24  39  67 101 141 171 209 275 345 415
#     4  11  24  40  61  95 133 166 212 263 331 391
#     4  10  21  38  61  93 127 160 209 266 328 383
#     4  10  21  38  64  88 121 162 214 266 314 378
#     4  10  21  42  68  92 123 166 216 266 320 387
#     4  12  25  37  64  92 132 174 208 266 327 392
#     4  11  24  42  63  88 127 178 223 262 313 383
#
# _framework density 19.507978999999999
#
# number of rings (size 3 to 8) (size 9 to 14) (size 15 to 20)
#    0.000    1.200    2.667    4.200    4.667    0.533 
#    0.000    0.667    0.000    0.800    0.000    0.000 
#    0.000    0.000    0.000    0.000    0.000    0.000 
#
# Total GULP energy -334258.536165 kJ/mol
# GULP energy per Si atom -5570.975603 kJ/mol
# Density = 1.946358 g / cm^3
# Si number density = 19.507979 Si / 1000 Ang^3
#
#
#
# Elastic Constant Matrix: (Units=GPa)
#
#
# Indices 1 2 3 4 5 6 
#
# 1 98.4545 10.7712 23.8035 0.0000 0.0000 0.0000
# 2 10.7712 24.9811 3.1990 0.0000 0.0000 0.0000
# 3 23.8035 3.1990 68.9957 0.0000 0.0000 0.0000
# 4 0.0000 0.0000 0.0000 18.3785 0.0000 0.0000
# 5 0.0000 0.0000 0.0000 0.0000 12.9870 0.0000
# 6 0.0000 0.0000 0.0000 0.0000 0.0000 18.4438
#
#
#
# Elastic Compliance Matrix: (Units=1/GPa)
#
#
# Indices 1 2 3 4 5 6 
#
# 1 0.011564 -0.004502 -0.003781 0.000000 0.000000 0.000000
# 2 -0.004502 0.042022 -0.000395 0.000000 0.000000 0.000000
# 3 -0.003781 -0.000395 0.015816 0.000000 0.000000 0.000000
# 4 0.000000 0.000000 0.000000 0.054411 0.000000 0.000000
# 5 0.000000 0.000000 0.000000 0.000000 0.077000 0.000000
# 6 0.000000 0.000000 0.000000 0.000000 0.000000 0.054219
#
#
# Mechanical properties :
#
#
# Convention : Reuss Voigt Hill
#
# Bulk Modulus (GPa) = 19.21360 29.77538 24.49449
# Shear Modulus (GPa) = 17.25705 20.27235 18.76470
#
# Velocity S-wave (km/s) = 2.97747 3.22713 3.10481
# Velocity P-wave (km/s) = 4.65735 5.40205 5.04347
#
# Compressibility (1/GPa) = 0.05204647
#
# Stress axis : x y z
#
# Youngs Moduli (GPa) = 86.47867 23.79708 63.22579
#
# Poissons Ratio (x) = 0.10713 0.23904
# Poissons Ratio (y) = 0.38931 0.02499
# Poissons Ratio (z) = 0.32695 0.00941
#
# Static dielectric constant tensor:
#      x y z
#    x 1.678720 0.000000 0.000000 
#    y 0.000000 1.741770 0.000000 
#    z 0.000000 0.000000 1.736070 
# 
# From -- ./inp_files/64683.got.cif
#   From: 2010.05.17/outbox.cif.g08.bks.cpg/sg63_33_cif.got.tgz:64683.got - 2010.06.03 15:47:04.
