data_PCOD9474235
_publ_section_title
;
Structure prediction by ZEFSAII (Michael W. Deem and Ramdas Pophale) SiO2 
 PCOD9474235
Probable space group: C M C M
;
_chemical_formula_sum "Si O2"
_cell_formula_units_Z 96
_cell_length_a 13.489961
_cell_length_b 21.235486
_cell_length_c 16.093136
_cell_angle_alpha 90.000000
_cell_angle_beta 90.000000
_cell_angle_gamma 90.000000
_cell_volume 4610.134333
_symmetry_space_group_name_H-M "C M C M"
_symmetry_group_IT_number 63
_symmetry_cell_setting 'orthorhombic'
loop_
_space_group_symop_operation_xyz
x,y,z
-x,-y,1/2+z
x,-y,-z
-x,y,1/2-z
-x,-y,-z
x,y,1/2-z
-x,y,z
x,-y,1/2+z
1/2+x,1/2+y,z
1/2-x,1/2-y,1/2+z
1/2+x,1/2-y,-z
1/2-x,1/2+y,1/2-z
1/2-x,1/2-y,-z
1/2+x,1/2+y,1/2-z
1/2-x,1/2+y,z
1/2+x,1/2-y,1/2+z
loop_
_atom_site_type_symbol
_atom_site_label
_atom_site_fract_x
_atom_site_fract_y
_atom_site_fract_z
Si Si1 0.777704 0.998760 0.340926
Si Si2 0.500000 0.618810 0.001640
Si Si3 0.500000 0.811316 0.845689
Si Si4 0.500000 0.468704 0.660788
Si Si5 0.820969 0.728129 0.656237
Si Si6 0.785053 0.359207 0.882620
Si Si7 0.500000 0.239458 0.534629
Si Si8 0.717932 0.378228 0.433003
O O1 0.738790 0.981936 0.250000
O O2 0.897235 0.994236 0.339426
O O3 0.754162 0.071984 0.356652
O O4 0.742147 0.946470 0.405275
O O5 0.398632 0.615268 0.951193
O O6 0.500000 0.569285 0.075843
O O7 0.500000 0.686027 0.044954
O O8 0.500000 0.783544 0.750000
O O9 0.398137 0.850386 0.854053
O O10 0.500000 0.772794 0.934593
O O11 0.500000 0.432239 0.750000
O O12 0.858100 0.719246 0.750000
O O13 0.775861 0.798570 0.649695
O O14 0.738071 0.675993 0.634286
O O15 0.904468 0.717632 0.586293
O O16 0.769170 0.358069 0.981334
#
# Coordination Sequence:
#
# PCOD9474235 Si02
#       8
#    16   8   8   8  16  16   8  16
#     4  11  23  41  65  98 137 178 226 277 338 408
#     4  12  23  38  69  97 142 177 222 274 338 411
#     4  12  26  45  69  99 134 173 230 290 337 403
#     4  10  21  37  62  98 136 175 222 276 332 404
#     4  12  25  45  71 101 138 182 231 284 341 406
#     4  12  24  45  70  96 133 184 229 279 335 406
#     4  12  23  44  69 103 137 176 229 284 343 405
#     4  12  24  42  66 103 137 182 221 283 347 407
#
# _framework density 20.823688000000001
#
# number of rings (size 3 to 8) (size 9 to 14) (size 15 to 20)
#    0.000    0.333    5.000    4.750    0.000    2.667 
#    0.000    4.583    0.000    0.000    0.000    0.000 
#    0.000    0.000    0.000    0.000    0.000    0.000 
#
# Total GULP energy -267939.225069 kJ/mol
# GULP energy per Si atom -5582.067189 kJ/mol
# Density = 2.077629 g / cm^3
# Si number density = 20.823688 Si / 1000 Ang^3
#
#
#
# Elastic Constant Matrix: (Units=GPa)
#
#
# Indices 1 2 3 4 5 6 
#
# 1 92.0307 12.8656 36.9908 0.0000 0.0000 0.0000
# 2 12.8656 75.5891 41.6992 0.0000 0.0000 0.0000
# 3 36.9908 41.6992 130.8381 0.0000 0.0000 0.0000
# 4 0.0000 0.0000 0.0000 29.8973 0.0000 0.0000
# 5 0.0000 0.0000 0.0000 0.0000 27.5881 0.0000
# 6 0.0000 0.0000 0.0000 0.0000 0.0000-1191.0216
#
#
#
# Elastic Compliance Matrix: (Units=1/GPa)
#
#
# Indices 1 2 3 4 5 6 
#
# 1 0.012262 -0.000212 -0.003399 0.000000 0.000000 0.000000
# 2 -0.000212 0.016055 -0.005057 0.000000 0.000000 0.000000
# 3 -0.003399 -0.005057 0.010216 0.000000 0.000000 0.000000
# 4 0.000000 0.000000 0.000000 0.033448 0.000000 0.000000
# 5 0.000000 0.000000 0.000000 0.000000 0.036248 0.000000
# 6 0.000000 0.000000 0.000000 0.000000 0.000000 -0.000840
#
#
# Mechanical properties :
#
#
# Convention : Reuss Voigt Hill
#
# Bulk Modulus (GPa) = 47.17713 53.50767 50.34240
# Shear Modulus (GPa) = 37.93905 -212.91376 -87.48736
#
# Velocity S-wave (km/s) = 4.27302 -10.12264 -6.48880
# Velocity P-wave (km/s) = 6.85928 10.52960 5.64902
#
# Compressibility (1/GPa) = 0.02119671
#
# Stress axis : x y z
#
# Youngs Moduli (GPa) = 81.55399 62.28501 97.88779
#
# Poissons Ratio (x) = 0.01319 0.33274
# Poissons Ratio (y) = 0.01728 0.49502
# Poissons Ratio (z) = 0.27722 0.31498
#
# Static dielectric constant tensor:
#      x y z
#    x 1.772800 0.000000 0.000000 
#    y 0.000000 1.737510 0.000000 
#    z 0.000000 0.000000 1.799550 
# 
# From -- ./inp_files/32011.got.cif
#   From: 2010.05.17/outbox.cif.g08.bks.cpg/sg63_17_cif.got.tgz:32011.got - 2010.06.03 15:47:04.
