data_PCOD9474009
_publ_section_title
;
Structure prediction by ZEFSAII (Michael W. Deem and Ramdas Pophale) SiO2 
 PCOD9474009
Probable space group: C M C M
;
_chemical_formula_sum "Si O2"
_cell_formula_units_Z 88
_cell_length_a 25.366387
_cell_length_b 9.159311
_cell_length_c 20.751219
_cell_angle_alpha 90.000000
_cell_angle_beta 90.000000
_cell_angle_gamma 90.000000
_cell_volume 4821.309741
_symmetry_space_group_name_H-M "C M C M"
_symmetry_group_IT_number 63
_symmetry_cell_setting 'orthorhombic'
loop_
_space_group_symop_operation_xyz
x,y,z
-x,-y,1/2+z
x,-y,-z
-x,y,1/2-z
-x,-y,-z
x,y,1/2-z
-x,y,z
x,-y,1/2+z
1/2+x,1/2+y,z
1/2-x,1/2-y,1/2+z
1/2+x,1/2-y,-z
1/2-x,1/2+y,1/2-z
1/2-x,1/2-y,-z
1/2+x,1/2+y,1/2-z
1/2-x,1/2+y,z
1/2+x,1/2-y,1/2+z
loop_
_atom_site_type_symbol
_atom_site_label
_atom_site_fract_x
_atom_site_fract_y
_atom_site_fract_z
Si Si1 0.500000 0.605291 0.318745
Si Si2 0.500000 0.166789 0.521439
Si Si3 0.414887 0.185295 0.868539
Si Si4 0.500000 0.312740 0.384643
Si Si5 0.304011 0.838782 0.577953
Si Si6 0.399297 0.150208 0.173739
Si Si7 0.306625 0.189036 0.929426
O O1 0.500000 0.527175 0.250000
O O2 0.551175 0.707736 0.324351
O O3 0.500000 0.485533 0.374250
O O4 0.551327 0.185333 0.565625
O O5 0.500000 0.267444 0.459118
O O6 0.500000 0.000000 0.500000
O O7 0.355986 0.233428 0.885725
O O8 0.412055 0.020605 0.841258
O O9 0.551179 0.243245 0.350813
O O10 0.348599 0.806089 0.630724
O O11 0.318657 0.786023 0.505457
O O12 0.246996 0.768914 0.590119
O O13 0.299484 0.014480 0.576540
O O14 0.390703 0.168075 0.250000
#
# Coordination Sequence:
#
# PCOD9474009 Si02
#       7
#     8   8  16   8  16  16  16
#     4  11  24  40  52  79 119 153 185 229 288 352
#     4  11  19  35  60  90 114 142 192 250 287 333
#     4  10  21  36  60  82 110 152 190 235 287 343
#     4  12  23  36  58  83 116 150 185 235 296 338
#     4   9  19  34  55  80 107 140 179 235 281 336
#     4  11  21  36  56  81 108 150 198 230 273 350
#     4   9  18  35  57  80 106 139 185 232 292 331
#
# _framework density 18.252302
#
# number of rings (size 3 to 8) (size 9 to 14) (size 15 to 20)
#    0.000    1.818    1.818    3.000    2.545    2.909 
#    0.000    8.182    0.000    0.000    0.000    0.000 
#    0.000    0.000    0.000    0.000    0.000    0.000 
#
# Total GULP energy -245589.658936 kJ/mol
# GULP energy per Si atom -5581.583158 kJ/mol
# Density = 1.821076 g / cm^3
# Si number density = 18.252302 Si / 1000 Ang^3
#
#
#
# Elastic Constant Matrix: (Units=GPa)
#
#
# Indices 1 2 3 4 5 6 
#
# 1 142.8113 25.7448 60.2150 0.0000 0.0000 0.0000
# 2 25.7448 28.9926 23.2240 0.0000 0.0000 0.0000
# 3 60.2150 23.2240 108.8903 0.0000 0.0000 0.0000
# 4 0.0000 0.0000 0.0000 20.4235 0.0000 0.0000
# 5 0.0000 0.0000 0.0000 0.0000 13.9276 0.0000
# 6 0.0000 0.0000 0.0000 0.0000 0.0000 33.3290
#
#
#
# Elastic Compliance Matrix: (Units=1/GPa)
#
#
# Indices 1 2 3 4 5 6 
#
# 1 0.009748 -0.005232 -0.004275 0.000000 0.000000 0.000000
# 2 -0.005232 0.044406 -0.006578 0.000000 0.000000 0.000000
# 3 -0.004275 -0.006578 0.012950 0.000000 0.000000 0.000000
# 4 0.000000 0.000000 0.000000 0.048963 0.000000 0.000000
# 5 0.000000 0.000000 0.000000 0.000000 0.071800 0.000000
# 6 0.000000 0.000000 0.000000 0.000000 0.000000 0.030004
#
#
# Mechanical properties :
#
#
# Convention : Reuss Voigt Hill
#
# Bulk Modulus (GPa) = 28.62377 55.45130 42.03754
# Shear Modulus (GPa) = 19.10697 24.97005 22.03851
#
# Velocity S-wave (km/s) = 3.23898 3.70273 3.47859
# Velocity P-wave (km/s) = 5.45016 6.98045 6.26223
#
# Compressibility (1/GPa) = 0.03493600
#
# Stress axis : x y z
#
# Youngs Moduli (GPa) = 102.58835 22.51938 77.21864
#
# Poissons Ratio (x) = 0.11781 0.33008
# Poissons Ratio (y) = 0.53671 0.50793
# Poissons Ratio (z) = 0.43852 0.14813
#
# Static dielectric constant tensor:
#      x y z
#    x 1.610290 0.000000 0.000000 
#    y 0.000000 1.612400 0.000000 
#    z 0.000000 0.000000 1.432490 
# 
# From -- ./inp_files/57399.got.cif
#   From: 2010.05.17/outbox.cif.g08.bks.cpg/sg63_29_cif.got.tgz:57399.got - 2010.06.03 15:47:04.
