data_PCOD9474416
_publ_section_title
;
Structure prediction by ZEFSAII (Michael W. Deem and Ramdas Pophale) SiO2 
 PCOD9474416
Probable space group: C M C M
;
_chemical_formula_sum "Si O2"
_cell_formula_units_Z 88
_cell_length_a 13.753825
_cell_length_b 20.250407
_cell_length_c 14.326492
_cell_angle_alpha 90.000000
_cell_angle_beta 90.000000
_cell_angle_gamma 90.000000
_cell_volume 3990.222490
_symmetry_space_group_name_H-M "C M C M"
_symmetry_group_IT_number 63
_symmetry_cell_setting 'orthorhombic'
loop_
_space_group_symop_operation_xyz
x,y,z
-x,-y,1/2+z
x,-y,-z
-x,y,1/2-z
-x,-y,-z
x,y,1/2-z
-x,y,z
x,-y,1/2+z
1/2+x,1/2+y,z
1/2-x,1/2-y,1/2+z
1/2+x,1/2-y,-z
1/2-x,1/2+y,1/2-z
1/2-x,1/2-y,-z
1/2+x,1/2+y,1/2-z
1/2-x,1/2+y,z
1/2+x,1/2-y,1/2+z
loop_
_atom_site_type_symbol
_atom_site_label
_atom_site_fract_x
_atom_site_fract_y
_atom_site_fract_z
Si Si1 0.000000 0.197443 0.437486
Si Si2 0.000000 0.346025 0.136375
Si Si3 0.782112 0.041635 0.134815
Si Si4 0.172467 0.781220 0.069448
Si Si5 0.109810 0.640154 0.360842
Si Si6 0.500000 0.434844 0.854969
Si Si7 0.296086 0.900550 0.139835
O O1 0.000000 0.271264 0.398951
O O2 0.908891 0.187731 0.504230
O O3 0.000000 0.144611 0.356010
O O4 0.098144 0.380760 0.102222
O O5 0.000000 0.345038 0.250000
O O6 0.785504 0.045647 0.250000
O O7 0.702652 0.097051 0.104250
O O8 0.894453 0.047980 0.103080
O O9 0.744351 0.969835 0.104895
O O10 0.129507 0.718083 0.123719
O O11 0.224399 0.838816 0.126458
O O12 0.250000 0.750000 0.000000
O O13 0.106934 0.627735 0.250000
O O14 0.000000 0.624596 0.396583
O O15 0.500000 0.462423 0.750000
O O16 0.309402 0.910492 0.250000
#
# Coordination Sequence:
#
# PCOD9474416 Si02
#       7
#     8   8  16  16  16   8  16
#     4  12  23  39  60  89 122 161 207 248 303 354
#     4  10  21  38  64  91 118 154 206 260 304 355
#     4   9  20  38  64  92 121 157 205 259 308 360
#     4  12  23  39  59  86 128 161 198 248 302 365
#     4  10  21  39  62  90 121 160 206 251 304 367
#     4  10  21  41  65  90 122 161 209 260 303 361
#     4  10  22  40  64  93 121 159 205 254 309 364
#
# _framework density 22.053908
#
# number of rings (size 3 to 8) (size 9 to 14) (size 15 to 20)
#    0.000    1.636    2.727    1.909    1.273    0.727 
#    0.000    5.455    0.000    2.182    0.000    0.000 
#    0.000    0.000    0.000    0.000    0.000    0.000 
#
# Total GULP energy -245775.759375 kJ/mol
# GULP energy per Si atom -5585.812713 kJ/mol
# Density = 2.200371 g / cm^3
# Si number density = 22.053908 Si / 1000 Ang^3
#
#
#
# Elastic Constant Matrix: (Units=GPa)
#
#
# Indices 1 2 3 4 5 6 
#
# 1 198.9210 72.5760 24.7530 0.0000 0.0000 0.0000
# 2 72.5760 139.0369 5.7559 0.0000 0.0000 0.0000
# 3 24.7530 5.7559 34.1032 0.0000 0.0000 0.0000
# 4 0.0000 0.0000 0.0000 25.3222 0.0000 0.0000
# 5 0.0000 0.0000 0.0000 0.0000 20.3216 0.0000
# 6 0.0000 0.0000 0.0000 0.0000 0.0000 158.8113
#
#
#
# Elastic Compliance Matrix: (Units=1/GPa)
#
#
# Indices 1 2 3 4 5 6 
#
# 1 0.006799 -0.003368 -0.004367 0.000000 0.000000 0.000000
# 2 -0.003368 0.008912 0.000941 0.000000 0.000000 0.000000
# 3 -0.004367 0.000941 0.032334 0.000000 0.000000 0.000000
# 4 0.000000 0.000000 0.000000 0.039491 0.000000 0.000000
# 5 0.000000 0.000000 0.000000 0.000000 0.049209 0.000000
# 6 0.000000 0.000000 0.000000 0.000000 0.000000 0.006297
#
#
# Mechanical properties :
#
#
# Convention : Reuss Voigt Hill
#
# Bulk Modulus (GPa) = 29.02258 64.24787 46.63523
# Shear Modulus (GPa) = 29.74148 58.82276 44.28212
#
# Velocity S-wave (km/s) = 3.67629 5.17012 4.48583
# Velocity P-wave (km/s) = 5.58646 8.05206 6.92980
#
# Compressibility (1/GPa) = 0.03445593
#
# Stress axis : x y z
#
# Youngs Moduli (GPa) = 147.06977 112.21189 30.92767
#
# Poissons Ratio (x) = 0.37799 0.13505
# Poissons Ratio (y) = 0.49540 -0.02910
# Poissons Ratio (z) = 0.64221 -0.10557
#
# Static dielectric constant tensor:
#      x y z
#    x 1.888450 0.000000 0.000000 
#    y 0.000000 1.780920 0.000000 
#    z 0.000000 0.000000 1.838300 
# 
# From -- ./inp_files/42319.got.cif
#   From: 2010.05.17/outbox.cif.g08.bks.cpg/sg63_22_cif.got.tgz:42319.got - 2010.06.03 15:47:04.
