data_PCOD9474409
_publ_section_title
;
Structure prediction by ZEFSAII (Michael W. Deem and Ramdas Pophale) SiO2 
 PCOD9474409
Probable space group: C M C M
;
_chemical_formula_sum "Si O2"
_cell_formula_units_Z 56
_cell_length_a 12.117373
_cell_length_b 20.290787
_cell_length_c 10.988850
_cell_angle_alpha 90.000000
_cell_angle_beta 90.000000
_cell_angle_gamma 90.000000
_cell_volume 2701.839918
_symmetry_space_group_name_H-M "C M C M"
_symmetry_group_IT_number 63
_symmetry_cell_setting 'orthorhombic'
loop_
_space_group_symop_operation_xyz
x,y,z
-x,-y,1/2+z
x,-y,-z
-x,y,1/2-z
-x,-y,-z
x,y,1/2-z
-x,y,z
x,-y,1/2+z
1/2+x,1/2+y,z
1/2-x,1/2-y,1/2+z
1/2+x,1/2-y,-z
1/2-x,1/2+y,1/2-z
1/2-x,1/2-y,-z
1/2+x,1/2+y,1/2-z
1/2-x,1/2+y,z
1/2+x,1/2-y,1/2+z
loop_
_atom_site_type_symbol
_atom_site_label
_atom_site_fract_x
_atom_site_fract_y
_atom_site_fract_z
Si Si1 0.000000 0.946299 0.108224
Si Si2 0.127793 0.447842 0.889196
Si Si3 0.797480 0.141357 0.979088
Si Si4 0.620923 0.230854 0.615117
O O1 0.889859 0.903416 0.082892
O O2 0.000000 0.969283 0.250000
O O3 0.000000 0.000000 0.000000
O O4 0.142600 0.473478 0.750000
O O5 0.000000 0.422718 0.893943
O O6 0.137260 0.500000 0.000000
O O7 0.225293 0.396095 0.918160
O O8 0.705092 0.170983 0.891328
O O9 0.853074 0.207832 0.029476
O O10 0.622585 0.258931 0.750000
O O11 0.500000 0.204684 0.586877
#
# Coordination Sequence:
#
# PCOD9474409 Si02
#       4
#     8  16  16  16
#     4  12  28  46  66  96 134 180 225 274 329 390
#     4  10  22  40  63  92 126 165 214 270 328 387
#     4  11  22  40  63  92 127 170 214 265 322 390
#     4  10  21  38  63  93 125 163 209 263 321 385
#
# _framework density 20.726617000000001
#
# number of rings (size 3 to 8) (size 9 to 14) (size 15 to 20)
#    0.000    1.429    1.429    3.429    0.000    6.857 
#    0.000    2.857    0.000    0.000    0.000    0.000 
#    0.000    0.000    0.000    0.000    0.000    0.000 
#
# Total GULP energy -156098.576648 kJ/mol
# GULP energy per Si atom -5574.949166 kJ/mol
# Density = 2.067944 g / cm^3
# Si number density = 20.726617 Si / 1000 Ang^3
#
#
#
# Elastic Constant Matrix: (Units=GPa)
#
#
# Indices 1 2 3 4 5 6 
#
# 1 147.0996 40.1138 44.1078 0.0000 0.0000 0.0000
# 2 40.1138 59.1324 38.6432 0.0000 0.0000 0.0000
# 3 44.1078 38.6432 141.9739 0.0000 0.0000 0.0000
# 4 0.0000 0.0000 0.0000 18.5510 0.0000 0.0000
# 5 0.0000 0.0000 0.0000 0.0000 11.4114 0.0000
# 6 0.0000 0.0000 0.0000 0.0000 0.0000 22.1346
#
#
#
# Elastic Compliance Matrix: (Units=1/GPa)
#
#
# Indices 1 2 3 4 5 6 
#
# 1 0.008536 -0.004936 -0.001309 0.000000 0.000000 0.000000
# 2 -0.004936 0.023424 -0.004842 0.000000 0.000000 0.000000
# 3 -0.001309 -0.004842 0.008768 0.000000 0.000000 0.000000
# 4 0.000000 0.000000 0.000000 0.053905 0.000000 0.000000
# 5 0.000000 0.000000 0.000000 0.000000 0.087632 0.000000
# 6 0.000000 0.000000 0.000000 0.000000 0.000000 0.045178
#
#
# Mechanical properties :
#
#
# Convention : Reuss Voigt Hill
#
# Bulk Modulus (GPa) = 53.89306 65.99286 59.94296
# Shear Modulus (GPa) = 19.54638 25.44215 22.49427
#
# Velocity S-wave (km/s) = 3.07426 3.50739 3.29794
# Velocity P-wave (km/s) = 6.21769 6.95062 6.59435
#
# Compressibility (1/GPa) = 0.01855526
#
# Stress axis : x y z
#
# Youngs Moduli (GPa) = 117.14446 42.69153 114.04989
#
# Poissons Ratio (x) = 0.21071 0.14925
# Poissons Ratio (y) = 0.57819 0.55226
# Poissons Ratio (z) = 0.15330 0.20672
#
# Static dielectric constant tensor:
#      x y z
#    x 1.768550 0.000000 0.000000 
#    y 0.000000 1.732940 0.000000 
#    z 0.000000 0.000000 1.765400 
# 
# From -- ./inp_files/17040.got.cif
#   From: 2010.05.17/outbox.cif.g08.bks.cpg/sg63_9_cif.got.tgz:17040.got - 2010.06.03 15:47:04.
