data_PCOD9474123
_publ_section_title
;
Structure prediction by ZEFSAII (Michael W. Deem and Ramdas Pophale) SiO2 
 PCOD9474123
Probable space group: C M C M
;
_chemical_formula_sum "Si O2"
_cell_formula_units_Z 80
_cell_length_a 23.040220
_cell_length_b 10.767184
_cell_length_c 14.253436
_cell_angle_alpha 90.000000
_cell_angle_beta 90.000000
_cell_angle_gamma 90.000000
_cell_volume 3535.968003
_symmetry_space_group_name_H-M "C M C M"
_symmetry_group_IT_number 63
_symmetry_cell_setting 'orthorhombic'
loop_
_space_group_symop_operation_xyz
x,y,z
-x,-y,1/2+z
x,-y,-z
-x,y,1/2-z
-x,-y,-z
x,y,1/2-z
-x,y,z
x,-y,1/2+z
1/2+x,1/2+y,z
1/2-x,1/2-y,1/2+z
1/2+x,1/2-y,-z
1/2-x,1/2+y,1/2-z
1/2-x,1/2-y,-z
1/2+x,1/2+y,1/2-z
1/2-x,1/2+y,z
1/2+x,1/2-y,1/2+z
loop_
_atom_site_type_symbol
_atom_site_label
_atom_site_fract_x
_atom_site_fract_y
_atom_site_fract_z
Si Si1 0.694568 0.485116 0.641494
Si Si2 0.937932 0.358715 0.138672
Si Si3 0.590715 0.632694 0.036316
Si Si4 0.880249 0.762636 0.351507
Si Si5 0.824612 0.506103 0.641864
O O1 0.697360 0.436585 0.750000
O O2 0.655895 0.397175 0.574894
O O3 0.660841 0.616077 0.646301
O O4 0.759278 0.510178 0.605465
O O5 0.936945 0.383724 0.250000
O O6 0.936538 0.211410 0.119657
O O7 0.878078 0.416513 0.099256
O O8 0.000000 0.408210 0.103015
O O9 0.568125 0.500000 0.000000
O O10 0.584098 0.721054 0.946073
O O11 0.911067 0.762436 0.250000
O O12 0.844118 0.636769 0.357162
O O13 0.818775 0.550035 0.750000
#
# Coordination Sequence:
#
# PCOD9474123 Si02
#       5
#    16  16  16  16  16
#     4   9  18  33  56  86 122 153 188 241 302 357
#     4  10  22  41  64  88 117 156 201 247 295 352
#     4  10  21  37  57  89 118 156 195 244 294 355
#     4   9  19  36  53  80 120 158 195 239 300 356
#     4   9  19  35  57  84 118 158 195 243 296 353
#
# _framework density 22.624639999999999
#
# number of rings (size 3 to 8) (size 9 to 14) (size 15 to 20)
#    0.000    2.600    0.000    0.600    2.800    2.800 
#    7.200    2.000    0.000    3.000    0.000    5.600 
#    0.000    0.000    0.000    0.000    0.000    0.000 
#
# Total GULP energy -222871.782591 kJ/mol
# GULP energy per Si atom -5571.794565 kJ/mol
# Density = 2.257315 g / cm^3
# Si number density = 22.624640 Si / 1000 Ang^3
#
#
#
# Elastic Constant Matrix: (Units=GPa)
#
#
# Indices 1 2 3 4 5 6 
#
# 1 122.8394 7.1941 16.0967 0.0000 0.0000 0.0000
# 2 7.1941 30.9665 2.8577 0.0000 0.0000 0.0000
# 3 16.0967 2.8577 84.2077 0.0000 0.0000 0.0000
# 4 0.0000 0.0000 0.0000 31.7221 0.0000 0.0000
# 5 0.0000 0.0000 0.0000 0.0000 -13.5888 0.0000
# 6 0.0000 0.0000 0.0000 0.0000 0.0000 10.0456
#
#
#
# Elastic Compliance Matrix: (Units=1/GPa)
#
#
# Indices 1 2 3 4 5 6 
#
# 1 0.008451 -0.001820 -0.001554 0.000000 0.000000 0.000000
# 2 -0.001820 0.032786 -0.000765 0.000000 0.000000 0.000000
# 3 -0.001554 -0.000765 0.012198 0.000000 0.000000 0.000000
# 4 0.000000 0.000000 0.000000 0.031524 0.000000 0.000000
# 5 0.000000 0.000000 0.000000 0.000000 -0.073590 0.000000
# 6 0.000000 0.000000 0.000000 0.000000 0.000000 0.099546
#
#
# Mechanical properties :
#
#
# Convention : Reuss Voigt Hill
#
# Bulk Modulus (GPa) = 22.14402 32.25672 27.20037
# Shear Modulus (GPa) = 37.24529 19.76012 28.50271
#
# Velocity S-wave (km/s) = 4.06177 2.95852 3.55323
# Velocity P-wave (km/s) = 5.63969 5.09497 5.37424
#
# Compressibility (1/GPa) = 0.04515893
#
# Stress axis : x y z
#
# Youngs Moduli (GPa) = 118.33079 30.50046 81.97832
#
# Poissons Ratio (x) = 0.05551 0.12737
# Poissons Ratio (y) = 0.21535 0.06269
# Poissons Ratio (z) = 0.18385 0.02332
#
# Static dielectric constant tensor:
#      x y z
#    x 1.884520 0.000000 0.000000 
#    y 0.000000 1.800600 0.000000 
#    z 0.000000 0.000000 1.929060 
# 
# From -- ./inp_files/36463.got.cif
#   From: 2010.05.17/outbox.cif.g08.bks.cpg/sg63_19_cif.got.tgz:36463.got - 2010.06.03 15:47:04.
