data_PCOD9474427
_publ_section_title
;
Structure prediction by ZEFSAII (Michael W. Deem and Ramdas Pophale) SiO2 
 PCOD9474427
Probable space group: C M C M
;
_chemical_formula_sum "Si O2"
_cell_formula_units_Z 64
_cell_length_a 14.878101
_cell_length_b 9.913518
_cell_length_c 23.522662
_cell_angle_alpha 90.000000
_cell_angle_beta 90.000000
_cell_angle_gamma 90.000000
_cell_volume 3469.459085
_symmetry_space_group_name_H-M "C M C M"
_symmetry_group_IT_number 63
_symmetry_cell_setting 'orthorhombic'
loop_
_space_group_symop_operation_xyz
x,y,z
-x,-y,1/2+z
x,-y,-z
-x,y,1/2-z
-x,-y,-z
x,y,1/2-z
-x,y,z
x,-y,1/2+z
1/2+x,1/2+y,z
1/2-x,1/2-y,1/2+z
1/2+x,1/2-y,-z
1/2-x,1/2+y,1/2-z
1/2-x,1/2-y,-z
1/2+x,1/2+y,1/2-z
1/2-x,1/2+y,z
1/2+x,1/2-y,1/2+z
loop_
_atom_site_type_symbol
_atom_site_label
_atom_site_fract_x
_atom_site_fract_y
_atom_site_fract_z
Si Si1 0.185798 0.992518 0.250000
Si Si2 0.650061 0.187886 0.250000
Si Si3 0.166584 0.975069 0.874140
Si Si4 0.000000 0.108777 0.450150
Si Si5 0.500000 0.141152 0.468184
Si Si6 0.346782 0.795004 0.877514
O O1 0.200137 0.832307 0.250000
O O2 0.281189 0.065147 0.250000
O O3 0.137860 0.033219 0.192034
O O4 0.609353 0.187652 0.313865
O O5 0.258189 0.889256 0.880217
O O6 0.088650 0.916212 0.913068
O O7 0.177685 0.136081 0.885048
O O8 0.000000 0.249993 0.481731
O O9 0.000000 0.000000 0.500000
O O10 0.585187 0.163356 0.426924
O O11 0.500000 0.000000 0.500000
#
# Coordination Sequence:
#
# PCOD9474427 Si02
#       6
#     8   8  16   8   8  16
#     4   8  16  33  57  92 115 145 187 236 290 354
#     4   8  16  33  61  88 117 143 187 238 290 352
#     4  10  21  38  65  88 120 153 192 240 297 347
#     4  12  24  43  57  83 119 156 200 245 278 343
#     4  12  28  43  57  83 121 156 208 246 284 345
#     4  10  21  40  63  91 117 154 192 240 297 348
#
# _framework density 18.446680000000001
#
# number of rings (size 3 to 8) (size 9 to 14) (size 15 to 20)
#    0.000    2.000    2.500    0.000    3.500    3.000 
#    0.000    3.750    0.000    1.500    0.000    0.000 
#    0.000    0.000    0.000    0.000    0.000    0.000 
#
# Total GULP energy -178277.038443 kJ/mol
# GULP energy per Si atom -5571.157451 kJ/mol
# Density = 1.840469 g / cm^3
# Si number density = 18.446680 Si / 1000 Ang^3
#
#
#
# Elastic Constant Matrix: (Units=GPa)
#
#
# Indices 1 2 3 4 5 6 
#
# 1 109.6269 62.9048 86.4944 0.0000 0.0000 0.0000
# 2 62.9048 143.0561 105.0270 0.0000 0.0000 0.0000
# 3 86.4944 105.0270 133.3091 0.0000 0.0000 0.0000
# 4 0.0000 0.0000 0.0000 33.9587 0.0000 0.0000
# 5 0.0000 0.0000 0.0000 0.0000 43.6453 0.0000
# 6 0.0000 0.0000 0.0000 0.0000 0.0000 18.2377
#
#
#
# Elastic Compliance Matrix: (Units=1/GPa)
#
#
# Indices 1 2 3 4 5 6 
#
# 1 0.018849 0.001638 -0.013520 0.000000 0.000000 0.000000
# 2 0.001638 0.016723 -0.014238 0.000000 0.000000 0.000000
# 3 -0.013520 -0.014238 0.027491 0.000000 0.000000 0.000000
# 4 0.000000 0.000000 0.000000 0.029448 0.000000 0.000000
# 5 0.000000 0.000000 0.000000 0.000000 0.022912 0.000000
# 6 0.000000 0.000000 0.000000 0.000000 0.000000 0.054831
#
#
# Mechanical properties :
#
#
# Convention : Reuss Voigt Hill
#
# Bulk Modulus (GPa) = 92.39894 99.42717 95.91306
# Shear Modulus (GPa) = 22.11390 27.93940 25.02665
#
# Velocity S-wave (km/s) = 3.46613 3.89601 3.68734
# Velocity P-wave (km/s) = 8.13739 8.61715 8.38071
#
# Compressibility (1/GPa) = 0.01082263
#
# Stress axis : x y z
#
# Youngs Moduli (GPa) = 53.05182 59.79794 36.37600
#
# Poissons Ratio (x) = -0.09792 0.49181
# Poissons Ratio (y) = -0.08687 0.51791
# Poissons Ratio (z) = 0.71727 0.85138
#
# Static dielectric constant tensor:
#      x y z
#    x 1.609030 0.000000 0.000000 
#    y 0.000000 1.599800 0.000000 
#    z 0.000000 0.000000 1.670770 
# 
# From -- ./inp_files/55081.got.cif
#   From: 2010.05.17/outbox.cif.g08.bks.cpg/sg63_28_cif.got.tgz:55081.got - 2010.06.03 15:47:04.
