data_PCOD9474135
_publ_section_title
;
Structure prediction by ZEFSAII (Michael W. Deem and Ramdas Pophale) SiO2 
 PCOD9474135
Probable space group: C M C M
;
_chemical_formula_sum "Si O2"
_cell_formula_units_Z 96
_cell_length_a 22.663624
_cell_length_b 8.298125
_cell_length_c 23.554083
_cell_angle_alpha 90.000000
_cell_angle_beta 90.000000
_cell_angle_gamma 90.000000
_cell_volume 4429.712396
_symmetry_space_group_name_H-M "C M C M"
_symmetry_group_IT_number 63
_symmetry_cell_setting 'orthorhombic'
loop_
_space_group_symop_operation_xyz
x,y,z
-x,-y,1/2+z
x,-y,-z
-x,y,1/2-z
-x,-y,-z
x,y,1/2-z
-x,y,z
x,-y,1/2+z
1/2+x,1/2+y,z
1/2-x,1/2-y,1/2+z
1/2+x,1/2-y,-z
1/2-x,1/2+y,1/2-z
1/2-x,1/2-y,-z
1/2+x,1/2+y,1/2-z
1/2-x,1/2+y,z
1/2+x,1/2-y,1/2+z
loop_
_atom_site_type_symbol
_atom_site_label
_atom_site_fract_x
_atom_site_fract_y
_atom_site_fract_z
Si Si1 0.577785 0.181124 0.011492
Si Si2 0.436079 0.314935 0.362324
Si Si3 0.935084 0.197724 0.386266
Si Si4 0.176783 0.228304 0.312534
Si Si5 0.305485 0.330136 0.027606
Si Si6 0.692246 0.642710 0.660821
O O1 0.564347 0.281748 0.954518
O O2 0.647076 0.193631 0.017279
O O3 0.560379 0.245714 0.073460
O O4 0.559454 0.000000 0.000000
O O5 0.500000 0.276126 0.334641
O O6 0.433236 0.508764 0.370398
O O7 0.372667 0.270183 0.333480
O O8 0.874951 0.270898 0.358472
O O9 0.000000 0.260917 0.366530
O O10 0.155651 0.278113 0.250000
O O11 0.244403 0.289389 0.319418
O O12 0.183614 0.035240 0.315016
O O13 0.322773 0.500000 0.000000
O O14 0.250000 0.250000 0.000000
O O15 0.299386 0.366466 0.093373
#
# Coordination Sequence:
#
# PCOD9474135 Si02
#       6
#    16  16  16  16  16  16
#     4  11  21  32  51  84 123 156 184 218 272 348
#     4   9  19  36  57  82 115 153 187 226 280 343
#     4  10  21  38  59  82 112 150 192 237 285 337
#     4  11  23  40  60  81 108 145 194 245 291 335
#     4  11  20  33  54  83 119 154 189 230 281 345
#     4  10  21  37  58  84 112 146 186 232 286 341
#
# _framework density 21.671835999999999
#
# number of rings (size 3 to 8) (size 9 to 14) (size 15 to 20)
#    0.000    1.667    0.000    7.000    0.000    7.000 
#    0.000    0.000    0.000    1.500    0.000    0.000 
#    0.000    2.667    0.000    0.000    0.000    0.000 
#
# Total GULP energy -267276.371304 kJ/mol
# GULP energy per Si atom -5568.257736 kJ/mol
# Density = 2.162251 g / cm^3
# Si number density = 21.671836 Si / 1000 Ang^3
#
#
#
# Elastic Constant Matrix: (Units=GPa)
#
#
# Indices 1 2 3 4 5 6 
#
# 1 167.4592 6.8755 9.0915 0.0000 0.0000 0.0000
# 2 6.8755 29.8607 -2.2288 0.0000 0.0000 0.0000
# 3 9.0915 -2.2288 50.5296 0.0000 0.0000 0.0000
# 4 0.0000 0.0000 0.0000 8.7788 0.0000 0.0000
# 5 0.0000 0.0000 0.0000 0.0000 29.4696 0.0000
# 6 0.0000 0.0000 0.0000 0.0000 0.0000 3.8899
#
#
#
# Elastic Compliance Matrix: (Units=1/GPa)
#
#
# Indices 1 2 3 4 5 6 
#
# 1 0.006096 -0.001490 -0.001163 0.000000 0.000000 0.000000
# 2 -0.001490 0.033964 0.001766 0.000000 0.000000 0.000000
# 3 -0.001163 0.001766 0.020077 0.000000 0.000000 0.000000
# 4 0.000000 0.000000 0.000000 0.113911 0.000000 0.000000
# 5 0.000000 0.000000 0.000000 0.000000 0.033933 0.000000
# 6 0.000000 0.000000 0.000000 0.000000 0.000000 0.257079
#
#
# Mechanical properties :
#
#
# Convention : Reuss Voigt Hill
#
# Bulk Modulus (GPa) = 17.13390 30.59178 23.86284
# Shear Modulus (GPa) = 10.28196 24.03506 17.15851
#
# Velocity S-wave (km/s) = 2.18053 3.33385 2.81684
# Velocity P-wave (km/s) = 3.77661 5.38200 4.64913
#
# Compressibility (1/GPa) = 0.05836381
#
# Stress axis : x y z
#
# Youngs Moduli (GPa) = 164.04435 29.44311 49.80715
#
# Poissons Ratio (x) = 0.04388 0.05790
# Poissons Ratio (y) = 0.24449 -0.08797
# Poissons Ratio (z) = 0.19071 -0.05200
#
# Static dielectric constant tensor:
#      x y z
#    x 1.907900 0.000000 0.000000 
#    y 0.000000 1.779160 0.000000 
#    z 0.000000 0.000000 1.779620 
# 
# From -- ./inp_files/64970.got.cif
#   From: 2010.05.17/outbox.cif.g08.bks.cpg/sg63_33_cif.got.tgz:64970.got - 2010.06.03 15:47:04.
