data_PCOD9474393
_publ_section_title
;
Structure prediction by ZEFSAII (Michael W. Deem and Ramdas Pophale) SiO2 
 PCOD9474393
Probable space group: C M C M
;
_chemical_formula_sum "Si O2"
_cell_formula_units_Z 72
_cell_length_a 14.277941
_cell_length_b 25.859976
_cell_length_c 9.093393
_cell_angle_alpha 90.000000
_cell_angle_beta 90.000000
_cell_angle_gamma 90.000000
_cell_volume 3357.528141
_symmetry_space_group_name_H-M "C M C M"
_symmetry_group_IT_number 63
_symmetry_cell_setting 'orthorhombic'
loop_
_space_group_symop_operation_xyz
x,y,z
-x,-y,1/2+z
x,-y,-z
-x,y,1/2-z
-x,-y,-z
x,y,1/2-z
-x,y,z
x,-y,1/2+z
1/2+x,1/2+y,z
1/2-x,1/2-y,1/2+z
1/2+x,1/2-y,-z
1/2-x,1/2+y,1/2-z
1/2-x,1/2-y,-z
1/2+x,1/2+y,1/2-z
1/2-x,1/2+y,z
1/2+x,1/2-y,1/2+z
loop_
_atom_site_type_symbol
_atom_site_label
_atom_site_fract_x
_atom_site_fract_y
_atom_site_fract_z
Si Si1 0.394416 0.291532 0.750000
Si Si2 0.837665 0.321317 0.250000
Si Si3 0.607498 0.941357 0.250000
Si Si4 0.232333 0.851086 0.524967
Si Si5 0.611676 0.554113 0.424285
Si Si6 0.113101 0.430908 0.914600
O O1 0.500000 0.313036 0.750000
O O2 0.398467 0.229858 0.750000
O O3 0.333306 0.313784 0.617465
O O4 0.886056 0.377846 0.250000
O O5 0.770235 0.320553 0.388369
O O6 0.500000 0.957793 0.250000
O O7 0.639919 0.952951 0.420700
O O8 0.166262 0.900461 0.494872
O O9 0.325536 0.878328 0.591563
O O10 0.635341 0.500000 0.500000
O O11 0.636672 0.555074 0.250000
O O12 0.500000 0.560970 0.434329
O O13 0.130921 0.455749 0.750000
O O14 0.000000 0.423652 0.921854
#
# Coordination Sequence:
#
# PCOD9474393 Si02
#       6
#     8   8   8  16  16  16
#     4  12  23  40  62  85 123 168 212 261 319 375
#     4  10  23  36  56  85 118 161 212 257 302 368
#     4   8  15  28  46  72 105 141 190 244 295 347
#     4  11  21  39  61  88 124 165 209 261 317 379
#     4  10  21  38  62  92 124 161 206 255 316 382
#     4   9  16  29  52  80 110 150 197 246 302 365
#
# _framework density 21.444348000000002
#
# number of rings (size 3 to 8) (size 9 to 14) (size 15 to 20)
#    0.000    2.000    2.222    1.667    1.556    0.889 
#    0.000    1.667    0.000    2.000    0.000    0.000 
#    0.000    0.000    0.000    0.000    0.000    0.000 
#
# Total GULP energy -200553.927343 kJ/mol
# GULP energy per Si atom -5570.942426 kJ/mol
# Density = 2.139554 g / cm^3
# Si number density = 21.444348 Si / 1000 Ang^3
#
#
#
# Elastic Constant Matrix: (Units=GPa)
#
#
# Indices 1 2 3 4 5 6 
#
# 1 114.0436 32.1682 52.7217 0.0000 0.0000 0.0000
# 2 32.1682 89.4913 35.5580 0.0000 0.0000 0.0000
# 3 52.7217 35.5580 156.4840 0.0000 0.0000 0.0000
# 4 0.0000 0.0000 0.0000 52.7077 0.0000 0.0000
# 5 0.0000 0.0000 0.0000 0.0000 82.4266 0.0000
# 6 0.0000 0.0000 0.0000 0.0000 0.0000 35.0530
#
#
#
# Elastic Compliance Matrix: (Units=1/GPa)
#
#
# Indices 1 2 3 4 5 6 
#
# 1 0.010956 -0.002717 -0.003074 0.000000 0.000000 0.000000
# 2 -0.002717 0.012957 -0.002029 0.000000 0.000000 0.000000
# 3 -0.003074 -0.002029 0.007887 0.000000 0.000000 0.000000
# 4 0.000000 0.000000 0.000000 0.018973 0.000000 0.000000
# 5 0.000000 0.000000 0.000000 0.000000 0.012132 0.000000
# 6 0.000000 0.000000 0.000000 0.000000 0.000000 0.028528
#
#
# Mechanical properties :
#
#
# Convention : Reuss Voigt Hill
#
# Bulk Modulus (GPa) = 61.87792 66.76831 64.32311
# Shear Modulus (GPa) = 44.46064 50.00883 47.23474
#
# Velocity S-wave (km/s) = 4.55829 4.83435 4.69835
# Velocity P-wave (km/s) = 7.52475 7.89712 7.71318
#
# Compressibility (1/GPa) = 0.01616085
#
# Stress axis : x y z
#
# Youngs Moduli (GPa) = 91.27459 77.17835 126.78948
#
# Poissons Ratio (x) = 0.20968 0.38973
# Poissons Ratio (y) = 0.24798 0.25724
# Poissons Ratio (z) = 0.28057 0.15659
#
# Static dielectric constant tensor:
#      x y z
#    x 1.732250 0.000000 0.000000 
#    y 0.000000 1.818160 0.000000 
#    z 0.000000 0.000000 1.890000 
# 
# From -- ./inp_files/4724.got.cif
#   From: 2010.05.17/outbox.cif.g08.bks.cpg/sg63_3_cif.got.tgz:4724.got - 2010.06.03 15:47:04.
