data_PCOD9474909
_publ_section_title
;
Structure prediction by ZEFSAII (Michael W. Deem and Ramdas Pophale) SiO2 
 PCOD9474909
Probable space group: C M C M
;
_chemical_formula_sum "Si O2"
_cell_formula_units_Z 72
_cell_length_a 18.003939
_cell_length_b 24.025750
_cell_length_c 8.732249
_cell_angle_alpha 90.000000
_cell_angle_beta 90.000000
_cell_angle_gamma 90.000000
_cell_volume 3777.205363
_symmetry_space_group_name_H-M "C M C M"
_symmetry_group_IT_number 63
_symmetry_cell_setting 'orthorhombic'
loop_
_space_group_symop_operation_xyz
x,y,z
-x,-y,1/2+z
x,-y,-z
-x,y,1/2-z
-x,-y,-z
x,y,1/2-z
-x,y,z
x,-y,1/2+z
1/2+x,1/2+y,z
1/2-x,1/2-y,1/2+z
1/2+x,1/2-y,-z
1/2-x,1/2+y,1/2-z
1/2-x,1/2-y,-z
1/2+x,1/2+y,1/2-z
1/2-x,1/2+y,z
1/2+x,1/2-y,1/2+z
loop_
_atom_site_type_symbol
_atom_site_label
_atom_site_fract_x
_atom_site_fract_y
_atom_site_fract_z
Si Si1 0.332803 0.252661 0.067304
Si Si2 0.913172 0.139520 0.433613
Si Si3 0.288537 0.561880 0.932586
Si Si4 0.000000 0.561312 0.434718
Si Si5 0.852406 0.374236 0.933628
O O1 0.329768 0.261869 0.250000
O O2 0.364385 0.191085 0.037659
O O3 0.250000 0.250000 0.000000
O O4 0.379286 0.302112 0.991826
O O5 0.906416 0.137104 0.250000
O O6 0.863341 0.090794 0.505737
O O7 0.000000 0.135200 0.474732
O O8 0.289941 0.559091 0.750000
O O9 0.279301 0.500000 0.000000
O O10 0.220175 0.600779 0.986235
O O11 0.000000 0.500000 0.500000
O O12 0.074652 0.592663 0.483036
O O13 0.000000 0.560018 0.250000
O O14 0.841917 0.380779 0.750000
#
# Coordination Sequence:
#
# PCOD9474909 Si02
#       5
#    16  16  16   8  16
#     4  11  22  38  65  94 126 164 207 259 312 373
#     4  11  25  44  65  93 130 168 211 266 319 376
#     4  12  25  42  67  93 123 164 211 262 318 385
#     4  10  22  40  60  88 124 168 209 256 309 364
#     4  10  22  40  63  91 127 166 210 258 312 375
#
# _framework density 19.061710999999999
#
# number of rings (size 3 to 8) (size 9 to 14) (size 15 to 20)
#    0.000    1.111    2.222    4.000    1.556    5.778 
#    0.000    0.000    0.000    0.000    0.000    0.000 
#    0.000    0.000    0.000    0.000    0.000    0.000 
#
# Total GULP energy -201341.416380 kJ/mol
# GULP energy per Si atom -5592.817122 kJ/mol
# Density = 1.901833 g / cm^3
# Si number density = 19.061711 Si / 1000 Ang^3
#
#
#
# Elastic Constant Matrix: (Units=GPa)
#
#
# Indices 1 2 3 4 5 6 
#
# 1 90.4773 5.6036 28.1777 0.0000 0.0000 0.0000
# 2 5.6036 71.4752 28.9470 0.0000 0.0000 0.0000
# 3 28.1777 28.9470 65.3747 0.0000 0.0000 0.0000
# 4 0.0000 0.0000 0.0000 34.7913 0.0000 0.0000
# 5 0.0000 0.0000 0.0000 0.0000 17.6778 0.0000
# 6 0.0000 0.0000 0.0000 0.0000 0.0000 35.6599
#
#
#
# Elastic Compliance Matrix: (Units=1/GPa)
#
#
# Indices 1 2 3 4 5 6 
#
# 1 0.012899 0.001511 -0.006229 0.000000 0.000000 0.000000
# 2 0.001511 0.017225 -0.008278 0.000000 0.000000 0.000000
# 3 -0.006229 -0.008278 0.021647 0.000000 0.000000 0.000000
# 4 0.000000 0.000000 0.000000 0.028743 0.000000 0.000000
# 5 0.000000 0.000000 0.000000 0.000000 0.056568 0.000000
# 6 0.000000 0.000000 0.000000 0.000000 0.000000 0.028043
#
#
# Mechanical properties :
#
#
# Convention : Reuss Voigt Hill
#
# Bulk Modulus (GPa) = 38.79154 39.19819 38.99486
# Shear Modulus (GPa) = 25.03641 28.59906 26.81773
#
# Velocity S-wave (km/s) = 3.62807 3.87763 3.75492
# Velocity P-wave (km/s) = 6.15997 6.37624 6.26904
#
# Compressibility (1/GPa) = 0.02577882
#
# Stress axis : x y z
#
# Youngs Moduli (GPa) = 77.52678 58.05474 46.19620
#
# Poissons Ratio (x) = -0.08774 0.28775
# Poissons Ratio (y) = -0.11717 0.38244
# Poissons Ratio (z) = 0.48290 0.48061
#
# Static dielectric constant tensor:
#      x y z
#    x 1.650770 0.000000 0.000000 
#    y 0.000000 1.647210 0.000000 
#    z 0.000000 0.000000 1.645920 
# 
# From -- ./inp_files/6149.got.cif
#   From: 2010.05.17/outbox.cif.g08.bks.cpg/sg63_4_cif.got.tgz:6149.got - 2010.06.03 15:47:04.
