data_PCOD9474544
_publ_section_title
;
Structure prediction by ZEFSAII (Michael W. Deem and Ramdas Pophale) SiO2 
 PCOD9474544
Probable space group: C M C M
;
_chemical_formula_sum "Si O2"
_cell_formula_units_Z 112
_cell_length_a 28.772664
_cell_length_b 11.783075
_cell_length_c 14.586627
_cell_angle_alpha 90.000000
_cell_angle_beta 90.000000
_cell_angle_gamma 90.000000
_cell_volume 4945.310830
_symmetry_space_group_name_H-M "C M C M"
_symmetry_group_IT_number 63
_symmetry_cell_setting 'orthorhombic'
loop_
_space_group_symop_operation_xyz
x,y,z
-x,-y,1/2+z
x,-y,-z
-x,y,1/2-z
-x,-y,-z
x,y,1/2-z
-x,y,z
x,-y,1/2+z
1/2+x,1/2+y,z
1/2-x,1/2-y,1/2+z
1/2+x,1/2-y,-z
1/2-x,1/2+y,1/2-z
1/2-x,1/2-y,-z
1/2+x,1/2+y,1/2-z
1/2-x,1/2+y,z
1/2+x,1/2-y,1/2+z
loop_
_atom_site_type_symbol
_atom_site_label
_atom_site_fract_x
_atom_site_fract_y
_atom_site_fract_z
Si Si1 0.213910 0.223125 0.143181
Si Si2 0.597289 0.901816 0.858106
Si Si3 0.847226 0.003704 0.391123
Si Si4 0.051452 0.254030 0.504135
Si Si5 0.947936 0.951605 0.146804
Si Si6 0.183735 0.747701 0.143914
Si Si7 0.877550 0.664776 0.858639
O O1 0.220330 0.253061 0.250000
O O2 0.265414 0.227822 0.101891
O O3 0.175069 0.310717 0.109075
O O4 0.188627 0.101334 0.137605
O O5 0.588097 0.878678 0.750000
O O6 0.557346 0.858356 0.924932
O O7 0.641478 0.827698 0.891846
O O8 0.609028 0.033421 0.867333
O O9 0.900347 0.022407 0.358660
O O10 0.830264 0.879586 0.359593
O O11 0.847772 0.000000 0.500000
O O12 0.057088 0.142958 0.568053
O O13 0.088352 0.265498 0.423643
O O14 0.000000 0.254044 0.464726
O O15 0.947721 0.901043 0.250000
O O16 0.000000 0.003471 0.135255
O O17 0.186437 0.711205 0.250000
O O18 0.880991 0.694954 0.750000
#
# Coordination Sequence:
#
# PCOD9474544 Si02
#       7
#    16  16  16  16  16  16  16
#     4  10  23  41  64  90 124 170 215 259 317 386
#     4  10  21  39  64  93 126 165 212 268 323 382
#     4  12  24  40  63  96 135 167 211 267 327 395
#     4  11  22  39  64  95 125 162 215 272 329 384
#     4  10  21  40  69 100 130 169 221 279 330 381
#     4  10  22  41  66  93 123 166 216 263 317 377
#     4  10  23  42  60  89 133 174 215 261 320 391
#
# _framework density 22.647718000000001
#
# number of rings (size 3 to 8) (size 9 to 14) (size 15 to 20)
#    0.000    1.571    1.429    3.000    2.000    3.143 
#    0.000    2.143    0.000    0.857    0.000    0.000 
#    0.000    0.000    0.000    0.000    0.000    0.000 
#
# Total GULP energy -313037.189375 kJ/mol
# GULP energy per Si atom -5589.949810 kJ/mol
# Density = 2.259617 g / cm^3
# Si number density = 22.647718 Si / 1000 Ang^3
#
#
#
# Elastic Constant Matrix: (Units=GPa)
#
#
# Indices 1 2 3 4 5 6 
#
# 1 135.2688 27.1295 13.2237 0.0000 0.0000 0.0000
# 2 27.1295 80.5294 0.1487 0.0000 0.0000 0.0000
# 3 13.2237 0.1487 75.9190 0.0000 0.0000 0.0000
# 4 0.0000 0.0000 0.0000 -32.3373 0.0000 0.0000
# 5 0.0000 0.0000 0.0000 0.0000 32.7037 0.0000
# 6 0.0000 0.0000 0.0000 0.0000 0.0000 14.5176
#
#
#
# Elastic Compliance Matrix: (Units=1/GPa)
#
#
# Indices 1 2 3 4 5 6 
#
# 1 0.008075 -0.002718 -0.001401 0.000000 0.000000 0.000000
# 2 -0.002718 0.013333 0.000447 0.000000 0.000000 0.000000
# 3 -0.001401 0.000447 0.013415 0.000000 0.000000 0.000000
# 4 0.000000 0.000000 0.000000 -0.030924 0.000000 0.000000
# 5 0.000000 0.000000 0.000000 0.000000 0.030578 0.000000
# 6 0.000000 0.000000 0.000000 0.000000 0.000000 0.068882
#
#
# Mechanical properties :
#
#
# Convention : Reuss Voigt Hill
#
# Bulk Modulus (GPa) = 36.39112 41.41343 38.90227
# Shear Modulus (GPa) = 41.71505 19.72448 30.71976
#
# Velocity S-wave (km/s) = 4.29640 2.95435 3.68695
# Velocity P-wave (km/s) = 6.38086 5.47386 5.94468
#
# Compressibility (1/GPa) = 0.02747923
#
# Stress axis : x y z
#
# Youngs Moduli (GPa) = 123.84325 75.00434 74.54283
#
# Poissons Ratio (x) = 0.20384 0.10445
# Poissons Ratio (y) = 0.33657 -0.03334
# Poissons Ratio (z) = 0.17352 -0.03355
#
# Static dielectric constant tensor:
#      x y z
#    x 1.874170 0.000000 0.000000 
#    y 0.000000 1.820730 0.000000 
#    z 0.000000 0.000000 1.852260 
# 
# From -- ./inp_files/38496.got.cif
#   From: 2010.05.17/outbox.cif.g08.bks.cpg/sg63_20_cif.got.tgz:38496.got - 2010.06.03 15:47:04.
