data_PCOD9474176
_publ_section_title
;
Structure prediction by ZEFSAII (Michael W. Deem and Ramdas Pophale) SiO2 
 PCOD9474176
Probable space group: C M C M
;
_chemical_formula_sum "Si O2"
_cell_formula_units_Z 72
_cell_length_a 28.133023
_cell_length_b 5.735242
_cell_length_c 22.791455
_cell_angle_alpha 90.000000
_cell_angle_beta 90.000000
_cell_angle_gamma 90.000000
_cell_volume 3677.394315
_symmetry_space_group_name_H-M "C M C M"
_symmetry_group_IT_number 63
_symmetry_cell_setting 'orthorhombic'
loop_
_space_group_symop_operation_xyz
x,y,z
-x,-y,1/2+z
x,-y,-z
-x,y,1/2-z
-x,-y,-z
x,y,1/2-z
-x,y,z
x,-y,1/2+z
1/2+x,1/2+y,z
1/2-x,1/2-y,1/2+z
1/2+x,1/2-y,-z
1/2-x,1/2+y,1/2-z
1/2-x,1/2-y,-z
1/2+x,1/2+y,1/2-z
1/2-x,1/2+y,z
1/2+x,1/2-y,1/2+z
loop_
_atom_site_type_symbol
_atom_site_label
_atom_site_fract_x
_atom_site_fract_y
_atom_site_fract_z
Si Si1 0.447492 0.985190 0.682800
Si Si2 0.447440 0.373980 0.422826
Si Si3 0.399824 0.000000 0.500000
Si Si4 0.222858 0.148872 0.180713
Si Si5 0.628593 0.746605 0.110591
O O1 0.441413 0.911771 0.750000
O O2 0.500000 0.101366 0.678059
O O3 0.404373 0.143765 0.661481
O O4 0.448310 0.773510 0.637371
O O5 0.500000 0.478696 0.430256
O O6 0.403579 0.544281 0.416163
O O7 0.434606 0.199498 0.475341
O O8 0.368345 0.924813 0.444111
O O9 0.209584 0.150894 0.250000
O O10 0.251376 0.395955 0.171191
O O11 0.177434 0.164835 0.138528
#
# Coordination Sequence:
#
# PCOD9474176 Si02
#       5
#    16  16   8  16  16
#     4   9  19  34  54  87 125 157 196 249 311 377
#     4  10  21  37  59  87 125 169 210 251 306 376
#     4  10  23  38  58  88 126 160 212 258 315 366
#     4  10  24  45  70  98 127 163 211 267 329 393
#     4  11  22  38  62  87 120 162 208 261 314 379
#
# _framework density 19.579080999999999
#
# number of rings (size 3 to 8) (size 9 to 14) (size 15 to 20)
#    0.000    2.000    0.000    2.333    6.222    5.333 
#    0.000    3.333    0.000    0.000    0.000    0.000 
#    0.000    0.000    0.000    0.000    0.000    0.000 
#
# Total GULP energy -200727.151828 kJ/mol
# GULP energy per Si atom -5575.754217 kJ/mol
# Density = 1.953452 g / cm^3
# Si number density = 19.579081 Si / 1000 Ang^3
#
#
#
# Elastic Constant Matrix: (Units=GPa)
#
#
# Indices 1 2 3 4 5 6 
#
# 1 107.9018 52.2942 58.0142 0.0000 0.0000 0.0000
# 2 52.2942 74.9131 29.4136 0.0000 0.0000 0.0000
# 3 58.0142 29.4136 124.4428 0.0000 0.0000 0.0000
# 4 0.0000 0.0000 0.0000 16.8194 0.0000 0.0000
# 5 0.0000 0.0000 0.0000 0.0000 21.7994 0.0000
# 6 0.0000 0.0000 0.0000 0.0000 0.0000 27.8220
#
#
#
# Elastic Compliance Matrix: (Units=1/GPa)
#
#
# Indices 1 2 3 4 5 6 
#
# 1 0.016963 -0.009630 -0.005632 0.000000 0.000000 0.000000
# 2 -0.009630 0.020181 -0.000281 0.000000 0.000000 0.000000
# 3 -0.005632 -0.000281 0.010728 0.000000 0.000000 0.000000
# 4 0.000000 0.000000 0.000000 0.059455 0.000000 0.000000
# 5 0.000000 0.000000 0.000000 0.000000 0.045873 0.000000
# 6 0.000000 0.000000 0.000000 0.000000 0.000000 0.035943
#
#
# Mechanical properties :
#
#
# Convention : Reuss Voigt Hill
#
# Bulk Modulus (GPa) = 59.56995 65.18909 62.37952
# Shear Modulus (GPa) = 22.14124 24.45719 23.29922
#
# Velocity S-wave (km/s) = 3.36648 3.53816 3.45339
# Velocity P-wave (km/s) = 6.75294 7.07524 6.91597
#
# Compressibility (1/GPa) = 0.01678699
#
# Stress axis : x y z
#
# Youngs Moduli (GPa) = 58.95289 49.55086 93.21709
#
# Poissons Ratio (x) = 0.47717 0.52497
# Poissons Ratio (y) = 0.56771 0.02617
# Poissons Ratio (z) = 0.33201 0.01391
#
# Static dielectric constant tensor:
#      x y z
#    x 1.664170 0.000000 0.000000 
#    y 0.000000 1.769100 0.000000 
#    z 0.000000 0.000000 1.675110 
# 
# From -- ./inp_files/65276.got.cif
#   From: 2010.05.17/outbox.cif.g08.bks.cpg/sg63_33_cif.got.tgz:65276.got - 2010.06.03 15:47:04.
