data_PCOD9474489
_publ_section_title
;
Structure prediction by ZEFSAII (Michael W. Deem and Ramdas Pophale) SiO2 
 PCOD9474489
Probable space group: C M C M
;
_chemical_formula_sum "Si O2"
_cell_formula_units_Z 80
_cell_length_a 15.564584
_cell_length_b 10.540123
_cell_length_c 25.327381
_cell_angle_alpha 90.000000
_cell_angle_beta 90.000000
_cell_angle_gamma 90.000000
_cell_volume 4155.023459
_symmetry_space_group_name_H-M "C M C M"
_symmetry_group_IT_number 63
_symmetry_cell_setting 'orthorhombic'
loop_
_space_group_symop_operation_xyz
x,y,z
-x,-y,1/2+z
x,-y,-z
-x,y,1/2-z
-x,-y,-z
x,y,1/2-z
-x,y,z
x,-y,1/2+z
1/2+x,1/2+y,z
1/2-x,1/2-y,1/2+z
1/2+x,1/2-y,-z
1/2-x,1/2+y,1/2-z
1/2-x,1/2-y,-z
1/2+x,1/2+y,1/2-z
1/2-x,1/2+y,z
1/2+x,1/2-y,1/2+z
loop_
_atom_site_type_symbol
_atom_site_label
_atom_site_fract_x
_atom_site_fract_y
_atom_site_fract_z
Si Si1 0.735654 0.624190 0.947802
Si Si2 0.400807 0.008635 0.811030
Si Si3 0.239196 0.622405 0.122398
Si Si4 0.407254 0.293818 0.854833
Si Si5 0.099309 0.241667 0.019580
O O1 0.743246 0.491274 0.918568
O O2 0.729855 0.742216 0.906627
O O3 0.826547 0.648666 0.978441
O O4 0.650538 0.640489 0.983639
O O5 0.374282 0.016075 0.750000
O O6 0.500000 0.969791 0.813141
O O7 0.396294 0.148698 0.836675
O O8 0.343292 0.914611 0.844510
O O9 0.322608 0.630569 0.159986
O O10 0.500000 0.338830 0.835245
O O11 0.408318 0.297571 0.918931
O O12 0.000000 0.269300 0.002437
#
# Coordination Sequence:
#
# PCOD9474489 Si02
#       5
#    16  16  16  16  16
#     4  10  22  34  54  84 118 152 191 230 278 336
#     4  10  21  39  62  85 111 148 192 237 292 350
#     4  11  20  39  57  86 117 151 188 241 284 336
#     4   9  19  37  60  85 115 153 195 232 277 344
#     4   9  18  35  54  80 117 157 192 228 275 335
#
# _framework density 19.253802
#
# number of rings (size 3 to 8) (size 9 to 14) (size 15 to 20)
#    0.000    2.200    4.000    0.000    0.000    9.600 
#    0.000    6.000    0.000    0.000    0.000    0.000 
#    0.000    0.000    0.000    0.000    0.000    0.000 
#
# Total GULP energy -222818.806338 kJ/mol
# GULP energy per Si atom -5570.470158 kJ/mol
# Density = 1.920998 g / cm^3
# Si number density = 19.253802 Si / 1000 Ang^3
#
#
#
# Elastic Constant Matrix: (Units=GPa)
#
#
# Indices 1 2 3 4 5 6 
#
# 1 142.4225 36.1400 37.7168 0.0000 0.0000 0.0000
# 2 36.1400 80.2250 30.6656 0.0000 0.0000 0.0000
# 3 37.7168 30.6656 70.1028 0.0000 0.0000 0.0000
# 4 0.0000 0.0000 0.0000 3.1425 0.0000 0.0000
# 5 0.0000 0.0000 0.0000 0.0000 24.0183 0.0000
# 6 0.0000 0.0000 0.0000 0.0000 0.0000 22.4208
#
#
#
# Elastic Compliance Matrix: (Units=1/GPa)
#
#
# Indices 1 2 3 4 5 6 
#
# 1 0.008594 -0.002527 -0.003519 0.000000 0.000000 0.000000
# 2 -0.002527 0.015710 -0.005513 0.000000 0.000000 0.000000
# 3 -0.003519 -0.005513 0.018569 0.000000 0.000000 0.000000
# 4 0.000000 0.000000 0.000000 0.318222 0.000000 0.000000
# 5 0.000000 0.000000 0.000000 0.000000 0.041635 0.000000
# 6 0.000000 0.000000 0.000000 0.000000 0.000000 0.044601
#
#
# Mechanical properties :
#
#
# Convention : Reuss Voigt Hill
#
# Bulk Modulus (GPa) = 50.61316 55.75502 53.18409
# Shear Modulus (GPa) = 10.48142 22.46485 16.47313
#
# Velocity S-wave (km/s) = 2.33573 3.41951 2.92820
# Velocity P-wave (km/s) = 5.79816 6.67919 6.25421
#
# Compressibility (1/GPa) = 0.01975771
#
# Stress axis : x y z
#
# Youngs Moduli (GPa) = 116.35585 63.65198 53.85178
#
# Poissons Ratio (x) = 0.16082 0.18949
# Poissons Ratio (y) = 0.29398 0.29688
# Poissons Ratio (z) = 0.40942 0.35091
#
# Static dielectric constant tensor:
#      x y z
#    x 1.741720 0.000000 0.000000 
#    y 0.000000 1.666540 0.000000 
#    z 0.000000 0.000000 1.701180 
# 
# From -- ./inp_files/69172.got.cif
#   From: 2010.05.17/outbox.cif.g08.bks.cpg/sg63_35_cif.got.tgz:69172.got - 2010.06.03 15:47:04.
