data_PCOD9474735
_publ_section_title
;
Structure prediction by ZEFSAII (Michael W. Deem and Ramdas Pophale) SiO2 
 PCOD9474735
Probable space group: C M C M
;
_chemical_formula_sum "Si O2"
_cell_formula_units_Z 80
_cell_length_a 26.185882
_cell_length_b 11.385893
_cell_length_c 14.937313
_cell_angle_alpha 90.000000
_cell_angle_beta 90.000000
_cell_angle_gamma 90.000000
_cell_volume 4453.554651
_symmetry_space_group_name_H-M "C M C M"
_symmetry_group_IT_number 63
_symmetry_cell_setting 'orthorhombic'
loop_
_space_group_symop_operation_xyz
x,y,z
-x,-y,1/2+z
x,-y,-z
-x,y,1/2-z
-x,-y,-z
x,y,1/2-z
-x,y,z
x,-y,1/2+z
1/2+x,1/2+y,z
1/2-x,1/2-y,1/2+z
1/2+x,1/2-y,-z
1/2-x,1/2+y,1/2-z
1/2-x,1/2-y,-z
1/2+x,1/2+y,1/2-z
1/2-x,1/2+y,z
1/2+x,1/2-y,1/2+z
loop_
_atom_site_type_symbol
_atom_site_label
_atom_site_fract_x
_atom_site_fract_y
_atom_site_fract_z
Si Si1 0.145570 0.028170 0.104931
Si Si2 0.832264 0.233184 0.650273
Si Si3 0.059900 0.790175 0.854270
Si Si4 0.129522 0.364395 0.021510
Si Si5 0.788063 0.254279 0.145538
O O1 0.092555 0.091653 0.129459
O O2 0.188366 0.124909 0.129095
O O3 0.154278 0.904263 0.151190
O O4 0.147364 0.000000 0.000000
O O5 0.840704 0.282886 0.750000
O O6 0.863279 0.295634 0.571711
O O7 0.772107 0.243956 0.628249
O O8 0.067067 0.756457 0.750000
O O9 0.084653 0.694071 0.919932
O O10 0.000000 0.806284 0.870694
O O11 0.180420 0.340231 0.080812
O O12 0.122207 0.500000 0.000000
O O13 0.796184 0.284937 0.250000
#
# Coordination Sequence:
#
# PCOD9474735 Si02
#       5
#    16  16  16  16  16
#     4  11  20  37  62  86 118 152 191 246 291 341
#     4  11  23  36  55  86 122 161 196 237 286 336
#     4  10  22  43  68  88 110 148 195 243 298 353
#     4  11  23  38  59  85 119 152 195 244 290 345
#     4  10  22  37  56  82 118 163 203 233 277 344
#
# _framework density 17.963179
#
# number of rings (size 3 to 8) (size 9 to 14) (size 15 to 20)
#    0.000    1.400    4.000    4.200    2.800    2.400 
#    0.000    0.000    0.000    0.600    0.000    0.000 
#    0.000    0.000    0.000    0.000    0.000    0.000 
#
# Total GULP energy -223396.240574 kJ/mol
# GULP energy per Si atom -5584.906014 kJ/mol
# Density = 1.792229 g / cm^3
# Si number density = 17.963179 Si / 1000 Ang^3
#
#
#
# Elastic Constant Matrix: (Units=GPa)
#
#
# Indices 1 2 3 4 5 6 
#
# 1 99.2214 72.8804 64.6509 0.0000 0.0000 0.0000
# 2 72.8804 118.4171 38.5740 0.0000 0.0000 0.0000
# 3 64.6509 38.5740 119.6601 0.0000 0.0000 0.0000
# 4 0.0000 0.0000 0.0000 15.4005 0.0000 0.0000
# 5 0.0000 0.0000 0.0000 0.0000 33.4819 0.0000
# 6 0.0000 0.0000 0.0000 0.0000 0.0000 4.6709
#
#
#
# Elastic Compliance Matrix: (Units=1/GPa)
#
#
# Indices 1 2 3 4 5 6 
#
# 1 0.025814 -0.012675 -0.009861 0.000000 0.000000 0.000000
# 2 -0.012675 0.015659 0.001800 0.000000 0.000000 0.000000
# 3 -0.009861 0.001800 0.013104 0.000000 0.000000 0.000000
# 4 0.000000 0.000000 0.000000 0.064933 0.000000 0.000000
# 5 0.000000 0.000000 0.000000 0.000000 0.029867 0.000000
# 6 0.000000 0.000000 0.000000 0.000000 0.000000 0.214090
#
#
# Mechanical properties :
#
#
# Convention : Reuss Voigt Hill
#
# Bulk Modulus (GPa) = 76.30126 76.61213 76.45670
# Shear Modulus (GPa) = 12.21576 21.45688 16.83632
#
# Velocity S-wave (km/s) = 2.61059 3.45989 3.06480
# Velocity P-wave (km/s) = 7.18719 7.66181 7.42829
#
# Compressibility (1/GPa) = 0.01310594
#
# Stress axis : x y z
#
# Youngs Moduli (GPa) = 38.73903 63.86010 76.31027
#
# Poissons Ratio (x) = 0.80943 0.75249
# Poissons Ratio (y) = 0.49102 -0.13737
# Poissons Ratio (z) = 0.38200 -0.11496
#
# Static dielectric constant tensor:
#      x y z
#    x 1.595320 0.000000 0.000000 
#    y 0.000000 1.595520 0.000000 
#    z 0.000000 0.000000 2.400630 
# 
# From -- ./inp_files/37687.got.cif
#   From: 2010.05.17/outbox.cif.g08.bks.cpg/sg63_19_cif.got.tgz:37687.got - 2010.06.03 15:47:04.
