data_PCOD9474585
_publ_section_title
;
Structure prediction by ZEFSAII (Michael W. Deem and Ramdas Pophale) SiO2 
 PCOD9474585
Probable space group: C M C M
;
_chemical_formula_sum "Si O2"
_cell_formula_units_Z 48
_cell_length_a 26.307110
_cell_length_b 16.798041
_cell_length_c 5.272192
_cell_angle_alpha 90.000000
_cell_angle_beta 90.000000
_cell_angle_gamma 90.000000
_cell_volume 2329.823360
_symmetry_space_group_name_H-M "C M C M"
_symmetry_group_IT_number 63
_symmetry_cell_setting 'orthorhombic'
loop_
_space_group_symop_operation_xyz
x,y,z
-x,-y,1/2+z
x,-y,-z
-x,y,1/2-z
-x,-y,-z
x,y,1/2-z
-x,y,z
x,-y,1/2+z
1/2+x,1/2+y,z
1/2-x,1/2-y,1/2+z
1/2+x,1/2-y,-z
1/2-x,1/2+y,1/2-z
1/2-x,1/2-y,-z
1/2+x,1/2+y,1/2-z
1/2-x,1/2+y,z
1/2+x,1/2-y,1/2+z
loop_
_atom_site_type_symbol
_atom_site_label
_atom_site_fract_x
_atom_site_fract_y
_atom_site_fract_z
Si Si1 0.887862 0.771452 0.250000
Si Si2 0.000000 0.687416 0.250000
Si Si3 0.000000 0.421533 0.250000
Si Si4 0.656219 0.194492 0.750000
Si Si5 0.758011 0.444410 0.250000
Si Si6 0.360608 0.447115 0.250000
Si Si7 0.392939 0.036329 0.750000
O O1 0.854724 0.744189 0.495964
O O2 0.892500 0.866462 0.250000
O O3 0.945156 0.734148 0.250000
O O4 0.000000 0.634368 0.503480
O O5 0.048100 0.478973 0.250000
O O6 0.705449 0.134432 0.750000
O O7 0.611530 0.129645 0.750000
O O8 0.764469 0.500000 0.500000
O O9 0.698742 0.420545 0.250000
O O10 0.369235 0.500000 0.500000
O O11 0.369724 0.000000 0.500000
#
# Coordination Sequence:
#
# PCOD9474585 Si02
#       7
#     8   4   4   8   8   8   8
#     4  12  24  41  65  88 122 161 201 256 301 365
#     4  12  22  43  58  85 124 160 200 256 314 341
#     4  12  22  39  56  77 118 164 210 256 292 341
#     4  12  23  38  60  91 124 164 205 240 296 354
#     4  10  21  40  63  90 129 165 196 247 300 350
#     4  10  23  44  68  93 119 151 196 252 321 377
#     4  12  22  35  53  80 116 159 209 245 274 334
#
# _framework density 20.602421
#
# number of rings (size 3 to 8) (size 9 to 14) (size 15 to 20)
#    0.000    0.667    3.333    5.500    0.000    1.333 
#    0.000    0.833    0.000    0.000    0.000    0.000 
#    0.000    0.000    0.000    0.000    0.000    0.000 
#
# Total GULP energy -133931.742750 kJ/mol
# GULP energy per Si atom -5580.489281 kJ/mol
# Density = 2.055553 g / cm^3
# Si number density = 20.602421 Si / 1000 Ang^3
#
#
#
# Elastic Constant Matrix: (Units=GPa)
#
#
# Indices 1 2 3 4 5 6 
#
# 1 64.5009 17.9510 24.1854 0.0000 0.0000 0.0000
# 2 17.9510 119.7154 81.8441 0.0000 0.0000 0.0000
# 3 24.1854 81.8441 224.8054 0.0000 0.0000 0.0000
# 4 0.0000 0.0000 0.0000 24.6501 0.0000 0.0000
# 5 0.0000 0.0000 0.0000 0.0000 11.2204 0.0000
# 6 0.0000 0.0000 0.0000 0.0000 0.0000 20.1446
#
#
#
# Elastic Compliance Matrix: (Units=1/GPa)
#
#
# Indices 1 2 3 4 5 6 
#
# 1 0.016402 -0.001668 -0.001157 0.000000 0.000000 0.000000
# 2 -0.001668 0.011291 -0.003931 0.000000 0.000000 0.000000
# 3 -0.001157 -0.003931 0.006004 0.000000 0.000000 0.000000
# 4 0.000000 0.000000 0.000000 0.040568 0.000000 0.000000
# 5 0.000000 0.000000 0.000000 0.000000 0.089123 0.000000
# 6 0.000000 0.000000 0.000000 0.000000 0.000000 0.049641
#
#
# Mechanical properties :
#
#
# Convention : Reuss Voigt Hill
#
# Bulk Modulus (GPa) = 49.54559 72.99809 61.27184
# Shear Modulus (GPa) = 21.43438 30.20576 25.82007
#
# Velocity S-wave (km/s) = 3.22899 3.83316 3.54397
# Velocity P-wave (km/s) = 6.16462 7.42290 6.82283
#
# Compressibility (1/GPa) = 0.02018343
#
# Stress axis : x y z
#
# Youngs Moduli (GPa) = 60.96870 88.56735 166.55606
#
# Poissons Ratio (x) = 0.14776 0.19274
# Poissons Ratio (y) = 0.10171 0.65475
# Poissons Ratio (z) = 0.07055 0.34817
#
# Static dielectric constant tensor:
#      x y z
#    x 1.785150 0.000000 0.000000 
#    y 0.000000 1.684760 0.000000 
#    z 0.000000 0.000000 1.794810 
# 
# From -- ./inp_files/1230.got.cif
#   From: 2010.05.17/outbox.cif.g08.bks.cpg/sg63_1_cif.got.tgz:1230.got - 2010.06.03 15:47:04.
