data_PCOD9474797
_publ_section_title
;
Structure prediction by ZEFSAII (Michael W. Deem and Ramdas Pophale) SiO2 
 PCOD9474797
Probable space group: C M C M
;
_chemical_formula_sum "Si O2"
_cell_formula_units_Z 68
_cell_length_a 14.888507
_cell_length_b 20.116689
_cell_length_c 9.827022
_cell_angle_alpha 90.000000
_cell_angle_beta 90.000000
_cell_angle_gamma 90.000000
_cell_volume 2943.266448
_symmetry_space_group_name_H-M "C M C M"
_symmetry_group_IT_number 63
_symmetry_cell_setting 'orthorhombic'
loop_
_space_group_symop_operation_xyz
x,y,z
-x,-y,1/2+z
x,-y,-z
-x,y,1/2-z
-x,-y,-z
x,y,1/2-z
-x,y,z
x,-y,1/2+z
1/2+x,1/2+y,z
1/2-x,1/2-y,1/2+z
1/2+x,1/2-y,-z
1/2-x,1/2+y,1/2-z
1/2-x,1/2-y,-z
1/2+x,1/2+y,1/2-z
1/2-x,1/2+y,z
1/2+x,1/2-y,1/2+z
loop_
_atom_site_type_symbol
_atom_site_label
_atom_site_fract_x
_atom_site_fract_y
_atom_site_fract_z
Si Si1 0.109059 0.801737 0.397262
Si Si2 0.393010 0.189335 0.595981
Si Si3 0.000000 0.887681 0.750000
Si Si4 0.352105 0.426618 0.534664
Si Si5 0.355187 0.062990 0.092347
O O1 0.132119 0.771973 0.250000
O O2 0.141678 0.754836 0.519223
O O3 0.150602 0.874984 0.410701
O O4 0.000000 0.806381 0.401062
O O5 0.357972 0.179532 0.750000
O O6 0.500000 0.199459 0.608870
O O7 0.380707 0.127997 0.493748
O O8 0.921580 0.892069 0.634292
O O9 0.386943 0.500000 0.500000
O O10 0.253319 0.436996 0.594050
O O11 0.386769 0.061474 0.250000
O O12 0.384168 0.000000 0.000000
#
# Coordination Sequence:
#
# PCOD9474797 Si02
#       5
#    16  16   4  16  16
#     4  10  22  38  61  92 128 167 212 262 313 373
#     4  10  23  43  69  95 123 163 212 261 319 381
#     4  12  22  40  62  92 126 178 212 262 304 374
#     4  11  25  38  63  92 129 171 216 261 311 371
#     4  11  24  43  65  94 130 165 207 262 317 372
#
# _framework density 23.103581999999999
#
# number of rings (size 3 to 8) (size 9 to 14) (size 15 to 20)
#    0.000    1.412    2.353    1.765    3.294    4.706 
#    0.000    0.000    0.000    0.000    0.000    0.000 
#    0.000    0.000    0.000    0.000    0.000    0.000 
#
# Total GULP energy -189477.126711 kJ/mol
# GULP energy per Si atom -5572.856668 kJ/mol
# Density = 2.305100 g / cm^3
# Si number density = 23.103582 Si / 1000 Ang^3
#
#
#
# Elastic Constant Matrix: (Units=GPa)
#
#
# Indices 1 2 3 4 5 6 
#
# 1 58.9815 -11.2285 9.5037 0.0000 0.0000 0.0000
# 2 -11.2285 149.4539 78.2108 0.0000 0.0000 0.0000
# 3 9.5037 78.2108 219.7542 0.0000 0.0000 0.0000
# 4 0.0000 0.0000 0.0000 45.3399 0.0000 0.0000
# 5 0.0000 0.0000 0.0000 0.0000 19.0833 0.0000
# 6 0.0000 0.0000 0.0000 0.0000 0.0000 8.0264
#
#
#
# Elastic Compliance Matrix: (Units=1/GPa)
#
#
# Indices 1 2 3 4 5 6 
#
# 1 0.017601 0.002115 -0.001514 0.000000 0.000000 0.000000
# 2 0.002115 0.008476 -0.003108 0.000000 0.000000 0.000000
# 3 -0.001514 -0.003108 0.005722 0.000000 0.000000 0.000000
# 4 0.000000 0.000000 0.000000 0.022056 0.000000 0.000000
# 5 0.000000 0.000000 0.000000 0.000000 0.052402 0.000000
# 6 0.000000 0.000000 0.000000 0.000000 0.000000 0.124589
#
#
# Mechanical properties :
#
#
# Convention : Reuss Voigt Hill
#
# Bulk Modulus (GPa) = 37.33475 64.57352 50.95413
# Shear Modulus (GPa) = 20.42571 37.93681 29.18126
#
# Velocity S-wave (km/s) = 2.97660 4.05660 3.55781
# Velocity P-wave (km/s) = 5.29229 7.06764 6.24339
#
# Compressibility (1/GPa) = 0.02678470
#
# Stress axis : x y z
#
# Youngs Moduli (GPa) = 56.81519 117.97378 174.75709
#
# Poissons Ratio (x) = -0.24946 0.26454
# Poissons Ratio (y) = -0.12014 0.54319
# Poissons Ratio (z) = 0.08600 0.36669
#
# Static dielectric constant tensor:
#      x y z
#    x 1.868320 0.000000 0.000000 
#    y 0.000000 1.876650 0.000000 
#    z 0.000000 0.000000 1.871520 
# 
# From -- ./inp_files/5838.got.cif
#   From: 2010.05.17/outbox.cif.g08.bks.cpg/sg63_3_cif.got.tgz:5838.got - 2010.06.03 15:47:04.
