data_PCOD9474693
_publ_section_title
;
Structure prediction by ZEFSAII (Michael W. Deem and Ramdas Pophale) SiO2 
 PCOD9474693
Probable space group: C M C M
;
_chemical_formula_sum "Si O2"
_cell_formula_units_Z 128
_cell_length_a 18.917655
_cell_length_b 24.910216
_cell_length_c 18.762133
_cell_angle_alpha 90.000000
_cell_angle_beta 90.000000
_cell_angle_gamma 90.000000
_cell_volume 8841.521445
_symmetry_space_group_name_H-M "C M C M"
_symmetry_group_IT_number 63
_symmetry_cell_setting 'orthorhombic'
loop_
_space_group_symop_operation_xyz
x,y,z
-x,-y,1/2+z
x,-y,-z
-x,y,1/2-z
-x,-y,-z
x,y,1/2-z
-x,y,z
x,-y,1/2+z
1/2+x,1/2+y,z
1/2-x,1/2-y,1/2+z
1/2+x,1/2-y,-z
1/2-x,1/2+y,1/2-z
1/2-x,1/2-y,-z
1/2+x,1/2+y,1/2-z
1/2-x,1/2+y,z
1/2+x,1/2-y,1/2+z
loop_
_atom_site_type_symbol
_atom_site_label
_atom_site_fract_x
_atom_site_fract_y
_atom_site_fract_z
Si Si1 0.780910 0.670585 0.047051
Si Si2 0.084401 0.018023 0.167465
Si Si3 0.361926 0.314053 0.331537
Si Si4 0.081628 0.232153 0.414479
Si Si5 0.856341 0.112798 0.420081
Si Si6 0.780181 0.284091 0.394269
Si Si7 0.084885 0.086718 0.574358
Si Si8 0.919322 0.280976 0.574106
O O1 0.726756 0.626087 0.073703
O O2 0.750249 0.727406 0.076018
O O3 0.861797 0.671634 0.072225
O O4 0.779388 0.675615 0.961513
O O5 0.099663 0.005409 0.250000
O O6 0.124232 0.070782 0.140653
O O7 0.000000 0.027662 0.161318
O O8 0.101394 0.968057 0.116183
O O9 0.382277 0.322386 0.250000
O O10 0.277492 0.304761 0.338850
O O11 0.385366 0.363709 0.380125
O O12 0.399069 0.261558 0.365051
O O13 0.104246 0.169989 0.408839
O O14 0.139468 0.269117 0.374341
O O15 0.088428 0.249617 0.498048
O O16 0.000000 0.239333 0.393679
O O17 0.883433 0.089494 0.495378
O O18 0.000000 0.091764 0.569258
O O19 0.000000 0.298359 0.580711
#
# Coordination Sequence:
#
# PCOD9474693 Si02
#       8
#    16  16  16  16  16  16  16  16
#     4   8  14  26  44  62  82 110 141 178 210 245
#     4  10  22  35  43  58  87 116 143 184 229 256
#     4  11  19  27  41  61  89 123 148 177 220 261
#     4   9  15  25  46  68  84 109 148 184 211 247
#     4  11  17  29  49  65  83 112 152 184 210 254
#     4   8  14  27  39  58  88 112 140 175 214 252
#     4  11  20  31  45  63  83 111 151 187 216 255
#     4   9  16  27  42  64  92 116 140 172 213 260
#
# _framework density 14.477145999999999
#
# number of rings (size 3 to 8) (size 9 to 14) (size 15 to 20)
#    0.000    2.375    2.500    3.750    0.000    2.500 
#    0.000    5.625    0.000    1.125    0.000    0.000 
#    0.000    3.000    0.000    1.000    0.000    0.000 
#
# Total GULP energy -356539.423252 kJ/mol
# GULP energy per Si atom -5570.928488 kJ/mol
# Density = 1.444420 g / cm^3
# Si number density = 14.477146 Si / 1000 Ang^3
#
#
#
# Elastic Constant Matrix: (Units=GPa)
#
#
# Indices 1 2 3 4 5 6 
#
# 1 100.5961 19.8340 1.4693 0.0000 0.0000 0.0000
# 2 19.8340 34.8910 1.3891 0.0000 0.0000 0.0000
# 3 1.4693 1.3891 14.9769 0.0000 0.0000 0.0000
# 4 0.0000 0.0000 0.0000 4.3906 0.0000 0.0000
# 5 0.0000 0.0000 0.0000 0.0000 12.3315 0.0000
# 6 0.0000 0.0000 0.0000 0.0000 0.0000 20.3362
#
#
#
# Elastic Compliance Matrix: (Units=1/GPa)
#
#
# Indices 1 2 3 4 5 6 
#
# 1 0.011199 -0.006346 -0.000510 0.000000 0.000000 0.000000
# 2 -0.006346 0.032363 -0.002379 0.000000 0.000000 0.000000
# 3 -0.000510 -0.002379 0.067040 0.000000 0.000000 0.000000
# 4 0.000000 0.000000 0.000000 0.227761 0.000000 0.000000
# 5 0.000000 0.000000 0.000000 0.000000 0.081093 0.000000
# 6 0.000000 0.000000 0.000000 0.000000 0.000000 0.049173
#
#
# Mechanical properties :
#
#
# Convention : Reuss Voigt Hill
#
# Bulk Modulus (GPa) = 10.85400 21.76096 16.30748
# Shear Modulus (GPa) = 9.65603 15.92976 12.79289
#
# Velocity S-wave (km/s) = 2.58541 3.32073 2.97587
# Velocity P-wave (km/s) = 4.05290 5.45591 4.80588
#
# Compressibility (1/GPa) = 0.09213194
#
# Stress axis : x y z
#
# Youngs Moduli (GPa) = 89.29039 30.89963 14.91644
#
# Poissons Ratio (x) = 0.19609 0.00761
# Poissons Ratio (y) = 0.56664 0.03549
# Poissons Ratio (z) = 0.04555 0.07351
#
# Static dielectric constant tensor:
#      x y z
#    x 1.512960 0.000000 0.000000 
#    y 0.000000 1.453410 0.000000 
#    z 0.000000 0.000000 1.473140 
# 
# From -- ./inp_files/46308.got.cif
#   From: 2010.05.17/outbox.cif.g08.bks.cpg/sg63_24_cif.got.tgz:46308.got - 2010.06.03 15:47:04.
