data_PCOD9474249
_publ_section_title
;
Structure prediction by ZEFSAII (Michael W. Deem and Ramdas Pophale) SiO2 
 PCOD9474249
Probable space group: C M C M
;
_chemical_formula_sum "Si O2"
_cell_formula_units_Z 112
_cell_length_a 25.771065
_cell_length_b 14.305489
_cell_length_c 14.583759
_cell_angle_alpha 90.000000
_cell_angle_beta 90.000000
_cell_angle_gamma 90.000000
_cell_volume 5376.560696
_symmetry_space_group_name_H-M "C M C M"
_symmetry_group_IT_number 63
_symmetry_cell_setting 'orthorhombic'
loop_
_space_group_symop_operation_xyz
x,y,z
-x,-y,1/2+z
x,-y,-z
-x,y,1/2-z
-x,-y,-z
x,y,1/2-z
-x,y,z
x,-y,1/2+z
1/2+x,1/2+y,z
1/2-x,1/2-y,1/2+z
1/2+x,1/2-y,-z
1/2-x,1/2+y,1/2-z
1/2-x,1/2-y,-z
1/2+x,1/2+y,1/2-z
1/2-x,1/2+y,z
1/2+x,1/2-y,1/2+z
loop_
_atom_site_type_symbol
_atom_site_label
_atom_site_fract_x
_atom_site_fract_y
_atom_site_fract_z
Si Si1 0.647536 0.537013 0.898235
Si Si2 0.944671 0.377585 0.858376
Si Si3 0.805991 0.716356 0.529599
Si Si4 0.833554 0.378505 0.855644
Si Si5 0.885651 0.834484 0.854051
Si Si6 0.234330 0.447301 0.146397
Si Si7 0.941821 0.177363 0.542569
O O1 0.626216 0.444821 0.849074
O O2 0.703841 0.566576 0.861523
O O3 0.602432 0.614021 0.909050
O O4 0.659251 0.500000 0.000000
O O5 0.945938 0.354433 0.750000
O O6 0.889460 0.428886 0.870177
O O7 0.942856 0.281011 0.914551
O O8 0.000000 0.425364 0.880283
O O9 0.750000 0.750000 0.500000
O O10 0.833234 0.700879 0.432139
O O11 0.835939 0.783560 0.599355
O O12 0.797190 0.617878 0.578494
O O13 0.831140 0.345312 0.750000
O O14 0.784718 0.446731 0.869795
O O15 0.896027 0.800930 0.750000
O O16 0.928546 0.819710 0.933733
O O17 0.218722 0.424115 0.250000
O O18 0.000000 0.137604 0.555372
#
# Coordination Sequence:
#
# PCOD9474249 Si02
#       7
#    16  16  16  16  16  16  16
#     4  10  21  38  56  83 117 159 202 262 309 362
#     4   9  18  35  62  94 121 148 196 263 320 367
#     4  12  23  38  57  85 119 164 206 252 302 369
#     4  10  21  38  62  90 117 155 202 256 319 373
#     4  11  23  38  56  83 122 163 204 250 309 381
#     4  11  23  38  60  89 123 161 203 253 312 375
#     4  10  21  40  63  88 119 159 210 261 312 371
#
# _framework density 20.831161000000002
#
# number of rings (size 3 to 8) (size 9 to 14) (size 15 to 20)
#    0.000    1.571    1.429    4.714    0.000    6.286 
#    0.000    0.000    0.000    2.571    0.000    2.000 
#    0.000    0.000    0.000    0.000    0.000    0.000 
#
# Total GULP energy -312227.286157 kJ/mol
# GULP energy per Si atom -5575.487253 kJ/mol
# Density = 2.078375 g / cm^3
# Si number density = 20.831161 Si / 1000 Ang^3
#
#
#
# Elastic Constant Matrix: (Units=GPa)
#
#
# Indices 1 2 3 4 5 6 
#
# 1 138.1818 13.7385 16.0369 0.0000 0.0000 0.0000
# 2 13.7385 19.7089 12.0479 0.0000 0.0000 0.0000
# 3 16.0369 12.0479 84.7220 0.0000 0.0000 0.0000
# 4 0.0000 0.0000 0.0000 17.3566 0.0000 0.0000
# 5 0.0000 0.0000 0.0000 0.0000 37.5579 0.0000
# 6 0.0000 0.0000 0.0000 0.0000 0.0000 26.5741
#
#
#
# Elastic Compliance Matrix: (Units=1/GPa)
#
#
# Indices 1 2 3 4 5 6 
#
# 1 0.007822 -0.004980 -0.000772 0.000000 0.000000 0.000000
# 2 -0.004980 0.058740 -0.007410 0.000000 0.000000 0.000000
# 3 -0.000772 -0.007410 0.013003 0.000000 0.000000 0.000000
# 4 0.000000 0.000000 0.000000 0.057615 0.000000 0.000000
# 5 0.000000 0.000000 0.000000 0.000000 0.026626 0.000000
# 6 0.000000 0.000000 0.000000 0.000000 0.000000 0.037631
#
#
# Mechanical properties :
#
#
# Convention : Reuss Voigt Hill
#
# Bulk Modulus (GPa) = 18.78320 36.25104 27.51712
# Shear Modulus (GPa) = 20.36593 29.68368 25.02480
#
# Velocity S-wave (km/s) = 3.13016 3.77897 3.46976
# Velocity P-wave (km/s) = 4.70110 6.03994 5.41208
#
# Compressibility (1/GPa) = 0.05323907
#
# Stress axis : x y z
#
# Youngs Moduli (GPa) = 127.85083 17.02419 76.90347
#
# Poissons Ratio (x) = 0.08478 0.05940
# Poissons Ratio (y) = 0.63671 0.56989
# Poissons Ratio (z) = 0.09875 0.12616
#
# Static dielectric constant tensor:
#      x y z
#    x 4.065160 0.000000 0.000000 
#    y 0.000000 1.802740 0.000000 
#    z 0.000000 0.000000 1.604440 
# 
# From -- ./inp_files/37975.got.cif
#   From: 2010.05.17/outbox.cif.g08.bks.cpg/sg63_19_cif.got.tgz:37975.got - 2010.06.03 15:47:04.
