data_PCOD9474687
_publ_section_title
;
Structure prediction by ZEFSAII (Michael W. Deem and Ramdas Pophale) SiO2 
 PCOD9474687
Probable space group: C M C M
;
_chemical_formula_sum "Si O2"
_cell_formula_units_Z 36
_cell_length_a 12.841576
_cell_length_b 13.420551
_cell_length_c 7.876429
_cell_angle_alpha 90.000000
_cell_angle_beta 90.000000
_cell_angle_gamma 90.000000
_cell_volume 1357.431852
_symmetry_space_group_name_H-M "C M C M"
_symmetry_group_IT_number 63
_symmetry_cell_setting 'orthorhombic'
loop_
_space_group_symop_operation_xyz
x,y,z
-x,-y,1/2+z
x,-y,-z
-x,y,1/2-z
-x,-y,-z
x,y,1/2-z
-x,y,z
x,-y,1/2+z
1/2+x,1/2+y,z
1/2-x,1/2-y,1/2+z
1/2+x,1/2-y,-z
1/2-x,1/2+y,1/2-z
1/2-x,1/2-y,-z
1/2+x,1/2+y,1/2-z
1/2-x,1/2+y,z
1/2+x,1/2-y,1/2+z
loop_
_atom_site_type_symbol
_atom_site_label
_atom_site_fract_x
_atom_site_fract_y
_atom_site_fract_z
Si Si1 0.230603 0.364246 0.452157
Si Si2 0.500000 0.352513 0.250000
Si Si3 0.380249 0.554143 0.250000
Si Si4 0.500000 0.149797 0.062366
O O1 0.236815 0.374647 0.250000
O O2 0.250000 0.250000 0.500000
O O3 0.308821 0.416364 0.588870
O O4 0.108666 0.382443 0.485952
O O5 0.411340 0.436716 0.250000
O O6 0.500000 0.272180 0.096175
O O7 0.500000 0.599376 0.250000
O O8 0.500000 0.106655 0.250000
#
# Coordination Sequence:
#
# PCOD9474687 Si02
#       4
#    16   4   8   8
#     4  12  24  42  73 105 154 203 262 323 383 465
#     4   8  22  46  82 110 172 198 246 330 424 454
#     4  10  23  46  71 114 160 198 258 320 399 472
#     4  10  21  46  78 117 151 201 261 319 404 467
#
# _framework density 26.520669999999999
#
# number of rings (size 3 to 8) (size 9 to 14) (size 15 to 20)
#    1.333    0.000    4.444    0.667    3.111    0.889 
#    0.000    8.889    0.000    0.000   23.111    3.111 
#    0.000    0.000    0.000    0.000    0.000    0.000 
#
# Total GULP energy -100411.228477 kJ/mol
# GULP energy per Si atom -5578.401582 kJ/mol
# Density = 2.646031 g / cm^3
# Si number density = 26.520670 Si / 1000 Ang^3
#
#
#
# Elastic Constant Matrix: (Units=GPa)
#
#
# Indices 1 2 3 4 5 6 
#
# 1 349.0874 72.3763 179.6214 0.0000 0.0000 0.0000
# 2 72.3763 158.6248 76.7140 0.0000 0.0000 0.0000
# 3 179.6214 76.7140 303.6322 0.0000 0.0000 0.0000
# 4 0.0000 0.0000 0.0000 20.8000 0.0000 0.0000
# 5 0.0000 0.0000 0.0000 0.0000 17.1901 0.0000
# 6 0.0000 0.0000 0.0000 0.0000 0.0000 99.9179
#
#
#
# Elastic Compliance Matrix: (Units=1/GPa)
#
#
# Indices 1 2 3 4 5 6 
#
# 1 0.004209 -0.000816 -0.002284 0.000000 0.000000 0.000000
# 2 -0.000816 0.007340 -0.001372 0.000000 0.000000 0.000000
# 3 -0.002284 -0.001372 0.004991 0.000000 0.000000 0.000000
# 4 0.000000 0.000000 0.000000 0.048077 0.000000 0.000000
# 5 0.000000 0.000000 0.000000 0.000000 0.058173 0.000000
# 6 0.000000 0.000000 0.000000 0.000000 0.000000 0.010008
#
#
# Mechanical properties :
#
#
# Convention : Reuss Voigt Hill
#
# Bulk Modulus (GPa) = 131.63186 163.19643 147.41414
# Shear Modulus (GPa) = 34.65651 59.75712 47.20681
#
# Velocity S-wave (km/s) = 3.61885 4.75197 4.22358
# Velocity P-wave (km/s) = 8.19774 9.58005 8.91573
#
# Compressibility (1/GPa) = 0.00759695
#
# Stress axis : x y z
#
# Youngs Moduli (GPa) = 237.59465 136.24182 200.35982
#
# Poissons Ratio (x) = 0.11117 0.45756
# Poissons Ratio (y) = 0.19386 0.27485
# Poissons Ratio (z) = 0.54259 0.18689
#
# Static dielectric constant tensor:
#      x y z
#    x 2.324280 0.000000 0.000000 
#    y 0.000000 2.161340 0.000000 
#    z 0.000000 0.000000 2.070020 
# 
# From -- ./inp_files/3419.got.cif
#   From: 2010.05.17/outbox.cif.g08.bks.cpg/sg63_2_cif.got.tgz:3419.got - 2010.06.03 15:47:04.
