data_PCOD9474221
_publ_section_title
;
Structure prediction by ZEFSAII (Michael W. Deem and Ramdas Pophale) SiO2 
 PCOD9474221
Probable space group: C M C M
;
_chemical_formula_sum "Si O2"
_cell_formula_units_Z 68
_cell_length_a 15.199047
_cell_length_b 23.131242
_cell_length_c 9.077154
_cell_angle_alpha 90.000000
_cell_angle_beta 90.000000
_cell_angle_gamma 90.000000
_cell_volume 3191.280759
_symmetry_space_group_name_H-M "C M C M"
_symmetry_group_IT_number 63
_symmetry_cell_setting 'orthorhombic'
loop_
_space_group_symop_operation_xyz
x,y,z
-x,-y,1/2+z
x,-y,-z
-x,y,1/2-z
-x,-y,-z
x,y,1/2-z
-x,y,z
x,-y,1/2+z
1/2+x,1/2+y,z
1/2-x,1/2-y,1/2+z
1/2+x,1/2-y,-z
1/2-x,1/2+y,1/2-z
1/2-x,1/2-y,-z
1/2+x,1/2+y,1/2-z
1/2-x,1/2+y,z
1/2+x,1/2-y,1/2+z
loop_
_atom_site_type_symbol
_atom_site_label
_atom_site_fract_x
_atom_site_fract_y
_atom_site_fract_z
Si Si1 0.894930 0.823605 0.083954
Si Si2 0.854621 0.589779 0.078710
Si Si3 0.500000 0.000000 0.000000
Si Si4 0.392978 0.792397 0.077749
Si Si5 0.151672 0.941295 0.920193
O O1 0.858427 0.824346 0.250000
O O2 0.000000 0.816563 0.094228
O O3 0.863013 0.768309 0.992078
O O4 0.879022 0.883863 0.002962
O O5 0.884194 0.591503 0.250000
O O6 0.923297 0.550093 0.992926
O O7 0.757762 0.562910 0.075857
O O8 0.854117 0.653541 0.010491
O O9 0.370833 0.795207 0.250000
O O10 0.500000 0.795955 0.065854
O O11 0.123314 0.940901 0.750000
O O12 0.122955 0.000000 0.000000
#
# Coordination Sequence:
#
# PCOD9474221 Si02
#       5
#    16  16   4  16  16
#     4  10  22  42  67  92 120 157 203 254 310 367
#     4  11  24  40  62  91 126 167 208 251 301 360
#     4  12  22  40  64  94 128 168 210 250 294 360
#     4  10  21  37  61  92 124 161 206 254 304 361
#     4  11  24  42  62  90 125 161 204 253 306 365
#
# _framework density 21.308059
#
# number of rings (size 3 to 8) (size 9 to 14) (size 15 to 20)
#    0.000    1.412    2.353    2.471    0.000    7.529 
#    0.000    0.000    0.000    0.000    0.000    0.000 
#    0.000    0.000    0.000    0.000    0.000    0.000 
#
# Total GULP energy -189652.469400 kJ/mol
# GULP energy per Si atom -5578.013806 kJ/mol
# Density = 2.125956 g / cm^3
# Si number density = 21.308059 Si / 1000 Ang^3
#
#
#
# Elastic Constant Matrix: (Units=GPa)
#
#
# Indices 1 2 3 4 5 6 
#
# 1 26.3541 -5.4357 1.9525 0.0000 0.0000 0.0000
# 2 -5.4357 162.9629 18.3868 0.0000 0.0000 0.0000
# 3 1.9525 18.3868 42.4046 0.0000 0.0000 0.0000
# 4 0.0000 0.0000 0.0000 -4.1145 0.0000 0.0000
# 5 0.0000 0.0000 0.0000 0.0000 15.0042 0.0000
# 6 0.0000 0.0000 0.0000 0.0000 0.0000 -14.4849
#
#
#
# Elastic Compliance Matrix: (Units=1/GPa)
#
#
# Indices 1 2 3 4 5 6 
#
# 1 0.038447 0.001558 -0.002446 0.000000 0.000000 0.000000
# 2 0.001558 0.006515 -0.002897 0.000000 0.000000 0.000000
# 3 -0.002446 -0.002897 0.024951 0.000000 0.000000 0.000000
# 4 0.000000 0.000000 0.000000 -0.243041 0.000000 0.000000
# 5 0.000000 0.000000 0.000000 0.000000 0.066648 0.000000
# 6 0.000000 0.000000 0.000000 0.000000 0.000000 -0.069038
#
#
# Mechanical properties :
#
#
# Convention : Reuss Voigt Hill
#
# Bulk Modulus (GPa) = 16.03980 29.05874 22.54927
# Shear Modulus (GPa) = -33.97511 13.73550 -10.11980
#
# Velocity S-wave (km/s) = -3.99742 2.54168 -2.18165
# Velocity P-wave (km/s) = 3.70970 4.72023 2.06382
#
# Compressibility (1/GPa) = 0.06234490
#
# Stress axis : x y z
#
# Youngs Moduli (GPa) = 26.00957 153.48760 40.07853
#
# Poissons Ratio (x) = -0.23920 0.09803
# Poissons Ratio (y) = -0.04053 0.11610
# Poissons Ratio (z) = 0.06362 0.44462
#
# Static dielectric constant tensor:
#      x y z
#    x 1.799570 0.000000 0.000000 
#    y 0.000000 1.709360 0.000000 
#    z 0.000000 0.000000 1.763170 
# 
# From -- ./inp_files/5881.got.cif
#   From: 2010.05.17/outbox.cif.g08.bks.cpg/sg63_3_cif.got.tgz:5881.got - 2010.06.03 15:47:04.
