data_PCOD9474980
_publ_section_title
;
Structure prediction by ZEFSAII (Michael W. Deem and Ramdas Pophale) SiO2 
 PCOD9474980
Probable space group: C M C M
;
_chemical_formula_sum "Si O2"
_cell_formula_units_Z 72
_cell_length_a 26.298042
_cell_length_b 8.600909
_cell_length_c 13.951783
_cell_angle_alpha 90.000000
_cell_angle_beta 90.000000
_cell_angle_gamma 90.000000
_cell_volume 3155.712864
_symmetry_space_group_name_H-M "C M C M"
_symmetry_group_IT_number 63
_symmetry_cell_setting 'orthorhombic'
loop_
_space_group_symop_operation_xyz
x,y,z
-x,-y,1/2+z
x,-y,-z
-x,y,1/2-z
-x,-y,-z
x,y,1/2-z
-x,y,z
x,-y,1/2+z
1/2+x,1/2+y,z
1/2-x,1/2-y,1/2+z
1/2+x,1/2-y,-z
1/2-x,1/2+y,1/2-z
1/2-x,1/2-y,-z
1/2+x,1/2+y,1/2-z
1/2-x,1/2+y,z
1/2+x,1/2-y,1/2+z
loop_
_atom_site_type_symbol
_atom_site_label
_atom_site_fract_x
_atom_site_fract_y
_atom_site_fract_z
Si Si1 0.200685 0.328497 0.541277
Si Si2 0.772813 0.561058 0.250000
Si Si3 0.349082 0.497992 0.750000
Si Si4 0.895103 0.853907 0.442302
Si Si5 0.444227 0.937053 0.857775
Si Si6 0.630725 0.140105 0.750000
O O1 0.194104 0.500000 0.500000
O O2 0.250000 0.250000 0.500000
O O3 0.210030 0.346225 0.655119
O O4 0.154641 0.219478 0.509179
O O5 0.712975 0.517162 0.250000
O O6 0.810742 0.412928 0.250000
O O7 0.372055 0.583581 0.657612
O O8 0.370660 0.323193 0.750000
O O9 0.930781 0.705239 0.425748
O O10 0.916528 0.000000 0.500000
O O11 0.446572 0.867337 0.750000
O O12 0.500000 0.004497 0.878632
O O13 0.399773 0.063469 0.840607
#
# Coordination Sequence:
#
# PCOD9474980 Si02
#       6
#    16   8   8  16  16   8
#     4  12  26  43  64  97 139 188 232 281 338 408
#     4  12  25  39  66  92 136 184 231 269 339 403
#     4  12  26  41  65 101 141 173 226 281 337 410
#     4  12  25  42  64 101 140 174 226 281 342 408
#     4   9  19  44  71  92 126 174 224 279 344 405
#     4  10  22  40  69  95 123 183 228 280 334 413
#
# _framework density 22.815764999999999
#
# number of rings (size 3 to 8) (size 9 to 14) (size 15 to 20)
#    0.667    0.222    3.333    4.000    9.333    0.444 
#    0.000    2.222    0.000    4.667    0.000    0.000 
#    0.000    0.000    0.000    0.000    0.000    0.000 
#
# Total GULP energy -201284.283211 kJ/mol
# GULP energy per Si atom -5591.230089 kJ/mol
# Density = 2.276383 g / cm^3
# Si number density = 22.815765 Si / 1000 Ang^3
#
#
#
# Elastic Constant Matrix: (Units=GPa)
#
#
# Indices 1 2 3 4 5 6 
#
# 1 97.9932 28.9834 5.5584 0.0000 0.0000 0.0000
# 2 28.9834 122.3426 12.2741 0.0000 0.0000 0.0000
# 3 5.5584 12.2741 75.1977 0.0000 0.0000 0.0000
# 4 0.0000 0.0000 0.0000 35.4367 0.0000 0.0000
# 5 0.0000 0.0000 0.0000 0.0000 20.0697 0.0000
# 6 0.0000 0.0000 0.0000 0.0000 0.0000 16.7184
#
#
#
# Elastic Compliance Matrix: (Units=1/GPa)
#
#
# Indices 1 2 3 4 5 6 
#
# 1 0.010985 -0.002563 -0.000394 0.000000 0.000000 0.000000
# 2 -0.002563 0.008908 -0.001265 0.000000 0.000000 0.000000
# 3 -0.000394 -0.001265 0.013534 0.000000 0.000000 0.000000
# 4 0.000000 0.000000 0.000000 0.028219 0.000000 0.000000
# 5 0.000000 0.000000 0.000000 0.000000 0.049826 0.000000
# 6 0.000000 0.000000 0.000000 0.000000 0.000000 0.059814
#
#
# Mechanical properties :
#
#
# Convention : Reuss Voigt Hill
#
# Bulk Modulus (GPa) = 40.02479 43.24057 41.63268
# Shear Modulus (GPa) = 26.58768 31.02614 28.80691
#
# Velocity S-wave (km/s) = 3.41738 3.69162 3.55715
# Velocity P-wave (km/s) = 5.75778 6.09623 5.92942
#
# Compressibility (1/GPa) = 0.02498451
#
# Stress axis : x y z
#
# Youngs Moduli (GPa) = 91.03196 112.26119 73.88922
#
# Poissons Ratio (x) = 0.28772 0.02909
# Poissons Ratio (y) = 0.23331 0.09343
# Poissons Ratio (z) = 0.03584 0.14196
#
# Static dielectric constant tensor:
#      x y z
#    x 1.809320 0.000000 0.000000 
#    y 0.000000 1.797110 0.000000 
#    z 0.000000 0.000000 2.207460 
# 
# From -- ./inp_files/38355.got.cif
#   From: 2010.05.17/outbox.cif.g08.bks.cpg/sg63_20_cif.got.tgz:38355.got - 2010.06.03 15:47:04.
