data_PCOD9474527
_publ_section_title
;
Structure prediction by ZEFSAII (Michael W. Deem and Ramdas Pophale) SiO2 
 PCOD9474527
Probable space group: C M C M
;
_chemical_formula_sum "Si O2"
_cell_formula_units_Z 112
_cell_length_a 15.741087
_cell_length_b 19.596856
_cell_length_c 14.529998
_cell_angle_alpha 90.000000
_cell_angle_beta 90.000000
_cell_angle_gamma 90.000000
_cell_volume 4482.152978
_symmetry_space_group_name_H-M "C M C M"
_symmetry_group_IT_number 63
_symmetry_cell_setting 'orthorhombic'
loop_
_space_group_symop_operation_xyz
x,y,z
-x,-y,1/2+z
x,-y,-z
-x,y,1/2-z
-x,-y,-z
x,y,1/2-z
-x,y,z
x,-y,1/2+z
1/2+x,1/2+y,z
1/2-x,1/2-y,1/2+z
1/2+x,1/2-y,-z
1/2-x,1/2+y,1/2-z
1/2-x,1/2-y,-z
1/2+x,1/2+y,1/2-z
1/2-x,1/2+y,z
1/2+x,1/2-y,1/2+z
loop_
_atom_site_type_symbol
_atom_site_label
_atom_site_fract_x
_atom_site_fract_y
_atom_site_fract_z
Si Si1 0.096877 0.890364 0.146598
Si Si2 0.407445 0.445496 0.642585
Si Si3 0.336740 0.289424 0.017317
Si Si4 0.100956 0.728711 0.649207
Si Si5 0.904369 0.672289 0.357596
Si Si6 0.401147 0.924150 0.362595
Si Si7 0.218552 0.548643 0.362291
O O1 0.122776 0.870650 0.250000
O O2 0.092367 0.971715 0.143626
O O3 0.160216 0.858344 0.073776
O O4 0.000000 0.866056 0.130635
O O5 0.408358 0.422095 0.750000
O O6 0.500000 0.425148 0.601119
O O7 0.313185 0.435253 0.603211
O O8 0.391186 0.237969 0.080521
O O9 0.250000 0.250000 0.000000
O O10 0.377557 0.290573 0.916904
O O11 0.139856 0.737738 0.750000
O O12 0.124035 0.653403 0.611422
O O13 0.000000 0.725474 0.657241
O O14 0.890996 0.689473 0.250000
O O15 0.840116 0.612915 0.383719
O O16 0.000000 0.645939 0.367430
O O17 0.402673 0.924239 0.250000
O O18 0.500000 0.937495 0.391271
O O19 0.332416 0.980523 0.392018
O O20 0.225037 0.542979 0.250000
#
# Coordination Sequence:
#
# PCOD9474527 Si02
#       7
#    16  16  16  16  16  16  16
#     4   9  18  35  60  87 115 153 201 252 305 356
#     4   8  15  28  51  86 121 153 195 244 294 352
#     4  12  25  36  54  83 119 160 199 248 303 358
#     4   9  19  36  56  77 107 149 197 247 296 350
#     4  10  21  39  63  91 124 161 200 246 304 366
#     4   8  14  26  47  76 108 145 187 231 284 341
#     4   9  16  28  54  87 121 154 187 235 295 358
#
# _framework density 24.987991999999998
#
# number of rings (size 3 to 8) (size 9 to 14) (size 15 to 20)
#    0.000    2.714    0.000    3.857    2.000    4.000 
#    0.000    0.714    0.000    5.143    0.000    4.000 
#    0.000    0.000    0.000    0.000    0.000    0.000 
#
# Total GULP energy -313214.921094 kJ/mol
# GULP energy per Si atom -5593.123591 kJ/mol
# Density = 2.493112 g / cm^3
# Si number density = 24.987992 Si / 1000 Ang^3
#
#
#
# Elastic Constant Matrix: (Units=GPa)
#
#
# Indices 1 2 3 4 5 6 
#
# 1 135.0769 34.7658 34.9174 0.0000 0.0000 0.0000
# 2 34.7658 57.8231 28.0890 0.0000 0.0000 0.0000
# 3 34.9174 28.0890 82.8727 0.0000 0.0000 0.0000
# 4 0.0000 0.0000 0.0000 32.8738 0.0000 0.0000
# 5 0.0000 0.0000 0.0000 0.0000 18.1972 0.0000
# 6 0.0000 0.0000 0.0000 0.0000 0.0000 23.5158
#
#
#
# Elastic Compliance Matrix: (Units=1/GPa)
#
#
# Indices 1 2 3 4 5 6 
#
# 1 0.009134 -0.004336 -0.002379 0.000000 0.000000 0.000000
# 2 -0.004336 0.022761 -0.005888 0.000000 0.000000 0.000000
# 3 -0.002379 -0.005888 0.015065 0.000000 0.000000 0.000000
# 4 0.000000 0.000000 0.000000 0.030419 0.000000 0.000000
# 5 0.000000 0.000000 0.000000 0.000000 0.054954 0.000000
# 6 0.000000 0.000000 0.000000 0.000000 0.000000 0.042525
#
#
# Mechanical properties :
#
#
# Convention : Reuss Voigt Hill
#
# Bulk Modulus (GPa) = 45.96756 52.36855 49.16806
# Shear Modulus (GPa) = 24.11790 26.78406 25.45098
#
# Velocity S-wave (km/s) = 3.11010 3.27751 3.19490
# Velocity P-wave (km/s) = 5.59757 5.94354 5.77315
#
# Compressibility (1/GPa) = 0.02175447
#
# Stress axis : x y z
#
# Youngs Moduli (GPa) = 109.47890 43.93399 66.38081
#
# Poissons Ratio (x) = 0.19051 0.15791
# Poissons Ratio (y) = 0.47473 0.39083
# Poissons Ratio (z) = 0.26043 0.25867
#
# Static dielectric constant tensor:
#      x y z
#    x 1.966550 0.000000 0.000000 
#    y 0.000000 1.999600 0.000000 
#    z 0.000000 0.000000 1.941590 
# 
# From -- ./inp_files/32314.got.cif
#   From: 2010.05.17/outbox.cif.g08.bks.cpg/sg63_17_cif.got.tgz:32314.got - 2010.06.03 15:47:04.
