data_PCOD9474557
_publ_section_title
;
Structure prediction by ZEFSAII (Michael W. Deem and Ramdas Pophale) SiO2 
 PCOD9474557
Probable space group: C M C M
;
_chemical_formula_sum "Si O2"
_cell_formula_units_Z 48
_cell_length_a 15.359072
_cell_length_b 9.550301
_cell_length_c 14.214201
_cell_angle_alpha 90.000000
_cell_angle_beta 90.000000
_cell_angle_gamma 90.000000
_cell_volume 2084.992458
_symmetry_space_group_name_H-M "C M C M"
_symmetry_group_IT_number 63
_symmetry_cell_setting 'orthorhombic'
loop_
_space_group_symop_operation_xyz
x,y,z
-x,-y,1/2+z
x,-y,-z
-x,y,1/2-z
-x,-y,-z
x,y,1/2-z
-x,y,z
x,-y,1/2+z
1/2+x,1/2+y,z
1/2-x,1/2-y,1/2+z
1/2+x,1/2-y,-z
1/2-x,1/2+y,1/2-z
1/2-x,1/2-y,-z
1/2+x,1/2+y,1/2-z
1/2-x,1/2+y,z
1/2+x,1/2-y,1/2+z
loop_
_atom_site_type_symbol
_atom_site_label
_atom_site_fract_x
_atom_site_fract_y
_atom_site_fract_z
Si Si1 0.107461 0.416742 0.250000
Si Si2 0.106514 0.748552 0.250000
Si Si3 0.596447 0.620398 0.937016
Si Si4 0.329168 0.154473 0.956402
O O1 0.127463 0.584395 0.250000
O O2 0.150946 0.354776 0.345082
O O3 0.000000 0.400368 0.250000
O O4 0.139283 0.832676 0.159661
O O5 0.000000 0.751141 0.250000
O O6 0.500000 0.566890 0.912443
O O7 0.638106 0.500000 0.000000
O O8 0.591769 0.759700 0.998074
O O9 0.250000 0.250000 0.000000
O O10 0.326874 0.000000 0.000000
#
# Coordination Sequence:
#
# PCOD9474557 Si02
#       4
#     8   8  16  16
#     4  11  24  44  76 109 141 196 259 311 365 444
#     4   9  18  36  66  99 134 184 239 295 358 422
#     4  10  21  39  66 101 142 186 241 305 362 432
#     4  12  26  44  68 104 148 196 246 305 373 445
#
# _framework density 23.021667000000001
#
# number of rings (size 3 to 8) (size 9 to 14) (size 15 to 20)
#    0.000    1.333    3.333    2.000    0.000    5.333 
#    0.000    3.333    0.000    0.000    0.000    0.000 
#    0.000    0.000    0.000    0.000    0.000    0.000 
#
# Total GULP energy -133781.274946 kJ/mol
# GULP energy per Si atom -5574.219789 kJ/mol
# Density = 2.296927 g / cm^3
# Si number density = 23.021667 Si / 1000 Ang^3
#
#
#
# Elastic Constant Matrix: (Units=GPa)
#
#
# Indices 1 2 3 4 5 6 
#
# 1 114.5477 30.3677 37.8544 0.0000 0.0000 0.0000
# 2 30.3677 162.7889 92.3144 0.0000 0.0000 0.0000
# 3 37.8544 92.3144 282.0066 0.0000 0.0000 0.0000
# 4 0.0000 0.0000 0.0000 43.3755 0.0000 0.0000
# 5 0.0000 0.0000 0.0000 0.0000 -23.3706 0.0000
# 6 0.0000 0.0000 0.0000 0.0000 0.0000-1562.1031
#
#
#
# Elastic Compliance Matrix: (Units=1/GPa)
#
#
# Indices 1 2 3 4 5 6 
#
# 1 0.009343 -0.001267 -0.000839 0.000000 0.000000 0.000000
# 2 -0.001267 0.007715 -0.002355 0.000000 0.000000 0.000000
# 3 -0.000839 -0.002355 0.004430 0.000000 0.000000 0.000000
# 4 0.000000 0.000000 0.000000 0.023054 0.000000 0.000000
# 5 0.000000 0.000000 0.000000 0.000000 -0.042789 0.000000
# 6 0.000000 0.000000 0.000000 0.000000 0.000000 -0.000640
#
#
# Mechanical properties :
#
#
# Convention : Reuss Voigt Hill
#
# Bulk Modulus (GPa) = 79.58987 97.82401 88.70694
# Shear Modulus (GPa) = 351.48734 -281.83253 34.82740
#
# Velocity S-wave (km/s) = 12.36965 -11.07639 3.89371
# Velocity P-wave (km/s) = 15.44855 10.99988 7.67008
#
# Compressibility (1/GPa) = 0.01256441
#
# Stress axis : x y z
#
# Youngs Moduli (GPa) = 107.02894 129.61793 225.74686
#
# Poissons Ratio (x) = 0.16422 0.18950
# Poissons Ratio (y) = 0.13560 0.53173
# Poissons Ratio (z) = 0.08984 0.30531
#
# Static dielectric constant tensor:
#      x y z
#    x 2.030040 0.000000 0.000000 
#    y 0.000000 1.813260 0.000000 
#    z 0.000000 0.000000 1.883470 
# 
# From -- ./inp_files/20345.got.cif
#   From: 2010.05.17/outbox.cif.g08.bks.cpg/sg63_11_cif.got.tgz:20345.got - 2010.06.03 15:47:04.
