data_PCOD9474912
_publ_section_title
;
Structure prediction by ZEFSAII (Michael W. Deem and Ramdas Pophale) SiO2 
 PCOD9474912
Probable space group: C M C M
;
_chemical_formula_sum "Si O2"
_cell_formula_units_Z 116
_cell_length_a 7.483556
_cell_length_b 29.323073
_cell_length_c 22.237108
_cell_angle_alpha 90.000000
_cell_angle_beta 90.000000
_cell_angle_gamma 90.000000
_cell_volume 4879.730079
_symmetry_space_group_name_H-M "C M C M"
_symmetry_group_IT_number 63
_symmetry_cell_setting 'orthorhombic'
loop_
_space_group_symop_operation_xyz
x,y,z
-x,-y,1/2+z
x,-y,-z
-x,y,1/2-z
-x,-y,-z
x,y,1/2-z
-x,y,z
x,-y,1/2+z
1/2+x,1/2+y,z
1/2-x,1/2-y,1/2+z
1/2+x,1/2-y,-z
1/2-x,1/2+y,1/2-z
1/2-x,1/2-y,-z
1/2+x,1/2+y,1/2-z
1/2-x,1/2+y,z
1/2+x,1/2-y,1/2+z
loop_
_atom_site_type_symbol
_atom_site_label
_atom_site_fract_x
_atom_site_fract_y
_atom_site_fract_z
Si Si1 0.209973 0.706033 0.683988
Si Si2 0.282442 0.157875 0.316985
Si Si3 0.792717 0.523269 0.918281
Si Si4 0.715807 0.349753 0.505003
Si Si5 0.702357 0.269507 0.916884
Si Si6 0.000000 0.000000 0.000000
Si Si7 0.290124 0.922936 0.890524
Si Si8 0.286286 0.616162 0.874650
O O1 0.283923 0.719176 0.750000
O O2 0.288795 0.728983 0.622889
O O3 0.225511 0.652012 0.674893
O O4 0.000000 0.718133 0.684197
O O5 0.231174 0.169997 0.250000
O O6 0.500000 0.160405 0.322124
O O7 0.201202 0.191640 0.365161
O O8 0.225531 0.106807 0.334491
O O9 0.657803 0.533558 0.972400
O O10 0.716765 0.473796 0.897871
O O11 0.776927 0.564064 0.871013
O O12 0.000000 0.519999 0.936362
O O13 0.500000 0.347381 0.504732
O O14 0.778920 0.299418 0.527606
O O15 0.767864 0.388471 0.553398
O O16 0.779261 0.364577 0.439392
O O17 0.500000 0.256659 0.932765
O O18 0.500000 0.930448 0.882160
O O19 0.500000 0.616051 0.874785
#
# Coordination Sequence:
#
# PCOD9474912 Si02
#       8
#    16  16  16  16  16   4  16  16
#     4  10  22  40  61  82 109 152 205 256 303 357
#     4   9  17  31  52  80 114 148 188 241 298 357
#     4  11  23  38  58  87 124 165 207 254 302 358
#     4   9  19  33  54  83 117 151 182 233 302 363
#     4   9  18  35  57  83 113 147 192 242 298 366
#     4  12  22  36  60  90 118 156 202 248 300 360
#     4   9  19  33  52  80 114 155 196 234 290 357
#     4  11  23  39  58  85 120 155 201 254 307 366
#
# _framework density 23.771808
#
# number of rings (size 3 to 8) (size 9 to 14) (size 15 to 20)
#    0.000    2.207    0.690    1.862    2.897    4.414 
#    0.000    0.690    0.000    2.483    0.000    0.000 
#    0.000    0.000    0.000    0.000    0.000    0.000 
#
# Total GULP energy -323345.747415 kJ/mol
# GULP energy per Si atom -5574.926680 kJ/mol
# Density = 2.371770 g / cm^3
# Si number density = 23.771808 Si / 1000 Ang^3
#
#
#
# Elastic Constant Matrix: (Units=GPa)
#
#
# Indices 1 2 3 4 5 6 
#
# 1 107.6399 2.3535 3.8447 0.0000 0.0000 0.0000
# 2 2.3535 147.6543 15.3444 0.0000 0.0000 0.0000
# 3 3.8447 15.3444 49.8130 0.0000 0.0000 0.0000
# 4 0.0000 0.0000 0.0000 20.3665 0.0000 0.0000
# 5 0.0000 0.0000 0.0000 0.0000 12.5586 0.0000
# 6 0.0000 0.0000 0.0000 0.0000 0.0000 0.4367
#
#
#
# Elastic Compliance Matrix: (Units=1/GPa)
#
#
# Indices 1 2 3 4 5 6 
#
# 1 0.009317 -0.000076 -0.000696 0.000000 0.000000 0.000000
# 2 -0.000076 0.006997 -0.002150 0.000000 0.000000 0.000000
# 3 -0.000696 -0.002150 0.020791 0.000000 0.000000 0.000000
# 4 0.000000 0.000000 0.000000 0.049100 0.000000 0.000000
# 5 0.000000 0.000000 0.000000 0.000000 0.079627 0.000000
# 6 0.000000 0.000000 0.000000 0.000000 0.000000 2.289877
#
#
# Mechanical properties :
#
#
# Convention : Reuss Voigt Hill
#
# Bulk Modulus (GPa) = 31.98759 38.68803 35.33781
# Shear Modulus (GPa) = 2.02268 25.57667 13.79967
#
# Velocity S-wave (km/s) = 0.92343 3.28369 2.41198
# Velocity P-wave (km/s) = 3.82391 5.53957 4.75968
#
# Compressibility (1/GPa) = 0.03126212
#
# Stress axis : x y z
#
# Youngs Moduli (GPa) = 107.33357 142.91483 48.09795
#
# Poissons Ratio (x) = 0.01089 0.03346
# Poissons Ratio (y) = 0.00818 0.10339
# Poissons Ratio (z) = 0.07466 0.30720
#
# Static dielectric constant tensor:
#      x y z
#    x 1.964240 0.000000 0.000000 
#    y 0.000000 2.001460 0.000000 
#    z 0.000000 0.000000 1.981280 
# 
# From -- ./inp_files/60636.got.cif
#   From: 2010.05.17/outbox.cif.g08.bks.cpg/sg63_31_cif.got.tgz:60636.got - 2010.06.03 15:47:04.
