data_PCOD9474636
_publ_section_title
;
Structure prediction by ZEFSAII (Michael W. Deem and Ramdas Pophale) SiO2 
 PCOD9474636
Probable space group: C M C M
;
_chemical_formula_sum "Si O2"
_cell_formula_units_Z 52
_cell_length_a 17.827330
_cell_length_b 16.694498
_cell_length_c 7.775446
_cell_angle_alpha 90.000000
_cell_angle_beta 90.000000
_cell_angle_gamma 90.000000
_cell_volume 2314.115215
_symmetry_space_group_name_H-M "C M C M"
_symmetry_group_IT_number 63
_symmetry_cell_setting 'orthorhombic'
loop_
_space_group_symop_operation_xyz
x,y,z
-x,-y,1/2+z
x,-y,-z
-x,y,1/2-z
-x,-y,-z
x,y,1/2-z
-x,y,z
x,-y,1/2+z
1/2+x,1/2+y,z
1/2-x,1/2-y,1/2+z
1/2+x,1/2-y,-z
1/2-x,1/2+y,1/2-z
1/2-x,1/2-y,-z
1/2+x,1/2+y,1/2-z
1/2-x,1/2+y,z
1/2+x,1/2-y,1/2+z
loop_
_atom_site_type_symbol
_atom_site_label
_atom_site_fract_x
_atom_site_fract_y
_atom_site_fract_z
Si Si1 0.918751 0.906067 0.955216
Si Si2 0.393648 0.092021 0.447789
Si Si3 0.241744 0.158186 0.948279
Si Si4 0.000000 0.649257 0.750000
O O1 0.918004 0.896891 0.750000
O O2 0.000000 0.874805 0.018211
O O3 0.843998 0.866469 0.023868
O O4 0.916047 0.000000 0.000000
O O5 0.417297 0.105923 0.250000
O O6 0.304394 0.107268 0.453616
O O7 0.435035 0.143684 0.594988
O O8 0.409712 0.000000 0.500000
O O9 0.259434 0.147272 0.750000
O O10 0.250000 0.250000 0.000000
#
# Coordination Sequence:
#
# PCOD9474636 Si02
#       4
#    16  16  16   4
#     4  10  21  40  68  99 129 167 217 275 327 386
#     4  12  24  42  69  99 134 176 220 275 328 391
#     4  12  25  45  65  94 132 175 222 271 335 402
#     4  12  24  44  66 102 134 170 228 270 330 386
#
# _framework density 22.470793
#
# number of rings (size 3 to 8) (size 9 to 14) (size 15 to 20)
#    0.000    0.615    3.077    5.538    0.000    1.846 
#    2.769    0.000    0.000    0.000    0.000    0.000 
#    0.000    0.000    0.000    0.000    0.000    0.000 
#
# Total GULP energy -144920.613393 kJ/mol
# GULP energy per Si atom -5573.869746 kJ/mol
# Density = 2.241965 g / cm^3
# Si number density = 22.470793 Si / 1000 Ang^3
#
#
#
# Elastic Constant Matrix: (Units=GPa)
#
#
# Indices 1 2 3 4 5 6 
#
# 1 213.6524 38.7891 45.5543 0.0000 0.0000 0.0000
# 2 38.7891 28.2737 0.1001 0.0000 0.0000 0.0000
# 3 45.5543 0.1001 190.0145 0.0000 0.0000 0.0000
# 4 0.0000 0.0000 0.0000 23.7210 0.0000 0.0000
# 5 0.0000 0.0000 0.0000 0.0000 47.4429 0.0000
# 6 0.0000 0.0000 0.0000 0.0000 0.0000 17.1029
#
#
#
# Elastic Compliance Matrix: (Units=1/GPa)
#
#
# Indices 1 2 3 4 5 6 
#
# 1 0.006685 -0.009166 -0.001598 0.000000 0.000000 0.000000
# 2 -0.009166 0.047936 0.002172 0.000000 0.000000 0.000000
# 3 -0.001598 0.002172 0.005645 0.000000 0.000000 0.000000
# 4 0.000000 0.000000 0.000000 0.042157 0.000000 0.000000
# 5 0.000000 0.000000 0.000000 0.000000 0.021078 0.000000
# 6 0.000000 0.000000 0.000000 0.000000 0.000000 0.058470
#
#
# Mechanical properties :
#
#
# Convention : Reuss Voigt Hill
#
# Bulk Modulus (GPa) = 23.21130 66.75862 44.98496
# Shear Modulus (GPa) = 23.41763 40.81985 32.11874
#
# Velocity S-wave (km/s) = 3.23172 4.26675 3.78478
# Velocity P-wave (km/s) = 4.92720 7.35167 6.25797
#
# Compressibility (1/GPa) = 0.04308246
#
# Stress axis : x y z
#
# Youngs Moduli (GPa) = 149.58149 20.86120 177.15740
#
# Poissons Ratio (x) = 0.19121 0.28308
# Poissons Ratio (y) = 1.37107 -0.38483
# Poissons Ratio (z) = 0.23902 -0.04532
#
# Static dielectric constant tensor:
#      x y z
#    x 1.856820 0.000000 0.000000 
#    y 0.000000 1.811310 0.000000 
#    z 0.000000 0.000000 3.172620 
# 
# From -- ./inp_files/3892.got.cif
#   From: 2010.05.17/outbox.cif.g08.bks.cpg/sg63_2_cif.got.tgz:3892.got - 2010.06.03 15:47:04.
