data_PCOD9474788
_publ_section_title
;
Structure prediction by ZEFSAII (Michael W. Deem and Ramdas Pophale) SiO2 
 PCOD9474788
Probable space group: C M C M
;
_chemical_formula_sum "Si O2"
_cell_formula_units_Z 96
_cell_length_a 22.968387
_cell_length_b 12.027880
_cell_length_c 15.433258
_cell_angle_alpha 90.000000
_cell_angle_beta 90.000000
_cell_angle_gamma 90.000000
_cell_volume 4263.607329
_symmetry_space_group_name_H-M "C M C M"
_symmetry_group_IT_number 63
_symmetry_cell_setting 'orthorhombic'
loop_
_space_group_symop_operation_xyz
x,y,z
-x,-y,1/2+z
x,-y,-z
-x,y,1/2-z
-x,-y,-z
x,y,1/2-z
-x,y,z
x,-y,1/2+z
1/2+x,1/2+y,z
1/2-x,1/2-y,1/2+z
1/2+x,1/2-y,-z
1/2-x,1/2+y,1/2-z
1/2-x,1/2-y,-z
1/2+x,1/2+y,1/2-z
1/2-x,1/2+y,z
1/2+x,1/2-y,1/2+z
loop_
_atom_site_type_symbol
_atom_site_label
_atom_site_fract_x
_atom_site_fract_y
_atom_site_fract_z
Si Si1 0.153429 0.559541 0.411567
Si Si2 0.258361 0.754756 0.602564
Si Si3 0.068394 0.736433 0.147174
Si Si4 0.366074 0.323264 0.850763
Si Si5 0.564149 0.123269 0.853191
Si Si6 0.650223 0.566573 0.647260
O O1 0.172677 0.500000 0.500000
O O2 0.206780 0.631347 0.373163
O O3 0.104237 0.655639 0.415643
O O4 0.116463 0.463467 0.365691
O O5 0.250000 0.750000 0.500000
O O6 0.195313 0.759433 0.644742
O O7 0.296336 0.646400 0.623021
O O8 0.081562 0.708472 0.250000
O O9 0.092639 0.859897 0.132718
O O10 0.000000 0.726261 0.135862
O O11 0.381803 0.339762 0.750000
O O12 0.414945 0.242439 0.889141
O O13 0.355560 0.444002 0.892444
O O14 0.558819 0.133813 0.750000
O O15 0.500000 0.089144 0.886739
O O16 0.657085 0.551348 0.750000
#
# Coordination Sequence:
#
# PCOD9474788 Si02
#       6
#    16  16  16  16  16  16
#     4  11  23  37  57  86 116 156 196 241 296 348
#     4  11  24  39  59  82 117 155 200 249 298 347
#     4   9  18  35  59  85 114 149 191 241 293 346
#     4  10  22  38  60  86 116 155 194 241 295 352
#     4  10  22  40  61  89 124 158 194 239 297 360
#     4   9  20  38  58  85 114 148 196 243 291 351
#
# _framework density 22.516145000000002
#
# number of rings (size 3 to 8) (size 9 to 14) (size 15 to 20)
#    0.000    2.000    0.000    2.500    4.667    5.333 
#    0.000    3.333    0.000    0.000    0.000    7.000 
#    0.000    0.000    0.000    0.000    0.000    0.000 
#
# Total GULP energy -267845.481362 kJ/mol
# GULP energy per Si atom -5580.114195 kJ/mol
# Density = 2.246490 g / cm^3
# Si number density = 22.516145 Si / 1000 Ang^3
#
#
#
# Elastic Constant Matrix: (Units=GPa)
#
#
# Indices 1 2 3 4 5 6 
#
# 1 63.4560 20.7182 -9.4002 0.0000 0.0000 0.0000
# 2 20.7182 120.7095 7.9652 0.0000 0.0000 0.0000
# 3 -9.4002 7.9652 18.7138 0.0000 0.0000 0.0000
# 4 0.0000 0.0000 0.0000 24.4843 0.0000 0.0000
# 5 0.0000 0.0000 0.0000 0.0000 6.1093 0.0000
# 6 0.0000 0.0000 0.0000 0.0000 0.0000 12.5448
#
#
#
# Elastic Compliance Matrix: (Units=1/GPa)
#
#
# Indices 1 2 3 4 5 6 
#
# 1 0.018683 -0.003936 0.011060 0.000000 0.000000 0.000000
# 2 -0.003936 0.009353 -0.005958 0.000000 0.000000 0.000000
# 3 0.011060 -0.005958 0.061528 0.000000 0.000000 0.000000
# 4 0.000000 0.000000 0.000000 0.040843 0.000000 0.000000
# 5 0.000000 0.000000 0.000000 0.000000 0.163686 0.000000
# 6 0.000000 0.000000 0.000000 0.000000 0.000000 0.079714
#
#
# Mechanical properties :
#
#
# Convention : Reuss Voigt Hill
#
# Bulk Modulus (GPa) = 10.88207 26.82731 18.85469
# Shear Modulus (GPa) = 12.43448 20.86741 16.65094
#
# Velocity S-wave (km/s) = 2.35254 3.04760 2.72235
# Velocity P-wave (km/s) = 3.49611 4.93198 4.27476
#
# Compressibility (1/GPa) = 0.09189428
#
# Stress axis : x y z
#
# Youngs Moduli (GPa) = 53.52589 106.91586 16.25272
#
# Poissons Ratio (x) = 0.42087 -0.17975
# Poissons Ratio (y) = 0.21070 0.09684
# Poissons Ratio (z) = -0.59199 0.63704
#
# Static dielectric constant tensor:
#      x y z
#    x 1.847760 0.000000 0.000000 
#    y 0.000000 1.897630 0.000000 
#    z 0.000000 0.000000 1.872230 
# 
# From -- ./inp_files/47972.got.cif
#   From: 2010.05.17/outbox.cif.g08.bks.cpg/sg63_24_cif.got.tgz:47972.got - 2010.06.03 15:47:04.
