data_PCOD9474841
_publ_section_title
;
Structure prediction by ZEFSAII (Michael W. Deem and Ramdas Pophale) SiO2 
 PCOD9474841
Probable space group: C M C M
;
_chemical_formula_sum "Si O2"
_cell_formula_units_Z 80
_cell_length_a 20.286484
_cell_length_b 12.725240
_cell_length_c 14.675680
_cell_angle_alpha 90.000000
_cell_angle_beta 90.000000
_cell_angle_gamma 90.000000
_cell_volume 3788.532334
_symmetry_space_group_name_H-M "C M C M"
_symmetry_group_IT_number 63
_symmetry_cell_setting 'orthorhombic'
loop_
_space_group_symop_operation_xyz
x,y,z
-x,-y,1/2+z
x,-y,-z
-x,y,1/2-z
-x,-y,-z
x,y,1/2-z
-x,y,z
x,-y,1/2+z
1/2+x,1/2+y,z
1/2-x,1/2-y,1/2+z
1/2+x,1/2-y,-z
1/2-x,1/2+y,1/2-z
1/2-x,1/2-y,-z
1/2+x,1/2+y,1/2-z
1/2-x,1/2+y,z
1/2+x,1/2-y,1/2+z
loop_
_atom_site_type_symbol
_atom_site_label
_atom_site_fract_x
_atom_site_fract_y
_atom_site_fract_z
Si Si1 0.574536 0.448810 0.855378
Si Si2 0.300418 0.421892 0.417647
Si Si3 0.382901 0.262180 0.511102
Si Si4 0.926905 0.622388 0.145345
Si Si5 0.157605 0.420372 0.352425
O O1 0.580095 0.412340 0.750000
O O2 0.500000 0.490675 0.867718
O O3 0.632560 0.532565 0.873237
O O4 0.585726 0.355117 0.928003
O O5 0.283313 0.500000 0.500000
O O6 0.318631 0.311473 0.463014
O O7 0.236716 0.420294 0.355202
O O8 0.423654 0.215240 0.427274
O O9 0.366789 0.166908 0.577970
O O10 0.916648 0.658457 0.250000
O O11 0.872555 0.534148 0.123946
O O12 0.000000 0.573387 0.140687
O O13 0.134538 0.396464 0.250000
#
# Coordination Sequence:
#
# PCOD9474841 Si02
#       5
#    16  16  16  16  16
#     4  10  22  40  62  90 123 158 197 242 294 352
#     4  10  22  39  60  86 119 157 199 245 295 350
#     4  11  22  38  63  91 119 155 199 247 294 350
#     4  10  23  41  61  88 121 158 200 245 294 349
#     4  11  23  40  62  88 120 157 198 244 297 354
#
# _framework density 21.116356
#
# number of rings (size 3 to 8) (size 9 to 14) (size 15 to 20)
#    0.000    1.600    0.000    4.200    0.000   10.000 
#    0.000    8.000    0.000    0.000    0.000    0.000 
#    0.000    0.000    0.000    0.000    0.000    0.000 
#
# Total GULP energy -223446.429267 kJ/mol
# GULP energy per Si atom -5586.160732 kJ/mol
# Density = 2.106829 g / cm^3
# Si number density = 21.116356 Si / 1000 Ang^3
#
#
#
# Elastic Constant Matrix: (Units=GPa)
#
#
# Indices 1 2 3 4 5 6 
#
# 1 49.7776 -8.5376 17.6370 0.0000 0.0000 0.0000
# 2 -8.5376 39.7420 33.9781 0.0000 0.0000 0.0000
# 3 17.6370 33.9781 101.4027 0.0000 0.0000 0.0000
# 4 0.0000 0.0000 0.0000 25.4198 0.0000 0.0000
# 5 0.0000 0.0000 0.0000 0.0000 46.9545 0.0000
# 6 0.0000 0.0000 0.0000 0.0000 0.0000 15.9214
#
#
#
# Elastic Compliance Matrix: (Units=1/GPa)
#
#
# Indices 1 2 3 4 5 6 
#
# 1 0.025413 0.012948 -0.008759 0.000000 0.000000 0.000000
# 2 0.012948 0.041862 -0.016279 0.000000 0.000000 0.000000
# 3 -0.008759 -0.016279 0.016840 0.000000 0.000000 0.000000
# 4 0.000000 0.000000 0.000000 0.039339 0.000000 0.000000
# 5 0.000000 0.000000 0.000000 0.000000 0.021297 0.000000
# 6 0.000000 0.000000 0.000000 0.000000 0.000000 0.062809
#
#
# Mechanical properties :
#
#
# Convention : Reuss Voigt Hill
#
# Bulk Modulus (GPa) = 16.68464 30.78637 23.73551
# Shear Modulus (GPa) = 19.86341 27.51547 23.68944
#
# Velocity S-wave (km/s) = 3.07035 3.61368 3.35304
# Velocity P-wave (km/s) = 4.52635 5.65885 5.12399
#
# Compressibility (1/GPa) = 0.05993536
#
# Stress axis : x y z
#
# Youngs Moduli (GPa) = 39.34918 23.88799 59.38268
#
# Poissons Ratio (x) = -0.30930 0.52012
# Poissons Ratio (y) = -0.50949 0.96670
# Poissons Ratio (z) = 0.34465 0.38888
#
# Static dielectric constant tensor:
#      x y z
#    x 1.771450 0.000000 0.000000 
#    y 0.000000 1.736760 0.000000 
#    z 0.000000 0.000000 1.753310 
# 
# From -- ./inp_files/36487.got.cif
#   From: 2010.05.17/outbox.cif.g08.bks.cpg/sg63_19_cif.got.tgz:36487.got - 2010.06.03 15:47:04.
