data_PCOD9474934
_publ_section_title
;
Structure prediction by ZEFSAII (Michael W. Deem and Ramdas Pophale) SiO2 
 PCOD9474934
Probable space group: C M C M
;
_chemical_formula_sum "Si O2"
_cell_formula_units_Z 68
_cell_length_a 7.979172
_cell_length_b 19.268261
_cell_length_c 21.948317
_cell_angle_alpha 90.000000
_cell_angle_beta 90.000000
_cell_angle_gamma 90.000000
_cell_volume 3374.438920
_symmetry_space_group_name_H-M "C M C M"
_symmetry_group_IT_number 63
_symmetry_cell_setting 'orthorhombic'
loop_
_space_group_symop_operation_xyz
x,y,z
-x,-y,1/2+z
x,-y,-z
-x,y,1/2-z
-x,-y,-z
x,y,1/2-z
-x,y,z
x,-y,1/2+z
1/2+x,1/2+y,z
1/2-x,1/2-y,1/2+z
1/2+x,1/2-y,-z
1/2-x,1/2+y,1/2-z
1/2-x,1/2-y,-z
1/2+x,1/2+y,1/2-z
1/2-x,1/2+y,z
1/2+x,1/2-y,1/2+z
loop_
_atom_site_type_symbol
_atom_site_label
_atom_site_fract_x
_atom_site_fract_y
_atom_site_fract_z
Si Si1 0.500000 0.875221 0.181763
Si Si2 0.305261 0.073333 0.120051
Si Si3 0.500000 0.260729 0.750000
Si Si4 0.190975 0.175588 0.023399
Si Si5 0.794056 0.628576 0.250000
Si Si6 0.808290 0.431544 0.425875
O O1 0.500000 0.906100 0.250000
O O2 0.500000 0.792849 0.193066
O O3 0.656849 0.899400 0.141112
O O4 0.500000 0.054077 0.125304
O O5 0.287803 0.142465 0.080296
O O6 0.248932 0.087037 0.188592
O O7 0.230813 0.007514 0.083972
O O8 0.329659 0.305204 0.750000
O O9 0.000000 0.181282 0.042748
O O10 0.250000 0.250000 0.000000
O O11 0.210885 0.120707 0.968589
O O12 0.000000 0.641733 0.250000
O O13 0.000000 0.436015 0.452534
#
# Coordination Sequence:
#
# PCOD9474934 Si02
#       6
#     8  16   4  16   8  16
#     4   8  20  36  69  87 125 164 206 253 323 378
#     4  10  22  40  65  92 126 162 214 257 317 384
#     4  10  22  40  62  98 134 168 216 272 320 374
#     4  12  26  40  61  89 126 165 212 264 320 380
#     4  10  24  39  64  97 130 173 215 264 325 386
#     4   9  20  39  65  90 122 158 209 250 316 384
#
# _framework density 20.151496999999999
#
# number of rings (size 3 to 8) (size 9 to 14) (size 15 to 20)
#    1.059    0.941    0.000    2.824    6.588    3.765 
#    0.000    0.000    0.000    0.000    0.000    0.000 
#    0.000    0.000    0.000    0.000    0.000    0.000 
#
# Total GULP energy -189496.665943 kJ/mol
# GULP energy per Si atom -5573.431351 kJ/mol
# Density = 2.010563 g / cm^3
# Si number density = 20.151497 Si / 1000 Ang^3
#
#
#
# Elastic Constant Matrix: (Units=GPa)
#
#
# Indices 1 2 3 4 5 6 
#
# 1 34.6963 12.0211 -7.6413 0.0000 0.0000 0.0000
# 2 12.0211 135.8768 39.8366 0.0000 0.0000 0.0000
# 3 -7.6413 39.8366 110.6645 0.0000 0.0000 0.0000
# 4 0.0000 0.0000 0.0000 39.1626 0.0000 0.0000
# 5 0.0000 0.0000 0.0000 0.0000 13.8016 0.0000
# 6 0.0000 0.0000 0.0000 0.0000 0.0000 23.4764
#
#
#
# Elastic Compliance Matrix: (Units=1/GPa)
#
#
# Indices 1 2 3 4 5 6 
#
# 1 0.030890 -0.003754 0.003484 0.000000 0.000000 0.000000
# 2 -0.003754 0.008684 -0.003385 0.000000 0.000000 0.000000
# 3 0.003484 -0.003385 0.010496 0.000000 0.000000 0.000000
# 4 0.000000 0.000000 0.000000 0.025535 0.000000 0.000000
# 5 0.000000 0.000000 0.000000 0.000000 0.072455 0.000000
# 6 0.000000 0.000000 0.000000 0.000000 0.000000 0.042596
#
#
# Mechanical properties :
#
#
# Convention : Reuss Voigt Hill
#
# Bulk Modulus (GPa) = 23.38697 41.07449 32.23073
# Shear Modulus (GPa) = 23.56056 31.08954 27.32505
#
# Velocity S-wave (km/s) = 3.42302 3.93210 3.68636
# Velocity P-wave (km/s) = 5.22049 6.40643 5.84362
#
# Compressibility (1/GPa) = 0.04275885
#
# Stress axis : x y z
#
# Youngs Moduli (GPa) = 32.37322 115.15037 95.27825
#
# Poissons Ratio (x) = 0.43232 -0.33199
# Poissons Ratio (y) = 0.12154 0.32255
# Poissons Ratio (z) = -0.11280 0.38983
#
# Static dielectric constant tensor:
#      x y z
#    x 1.758030 0.000000 0.000000 
#    y 0.000000 1.630740 0.000000 
#    z 0.000000 0.000000 1.714810 
# 
# From -- ./inp_files/50500.got.cif
#   From: 2010.05.17/outbox.cif.g08.bks.cpg/sg63_26_cif.got.tgz:50500.got - 2010.06.03 15:47:04.
