data_PCOD9474568
_publ_section_title
;
Structure prediction by ZEFSAII (Michael W. Deem and Ramdas Pophale) SiO2 
 PCOD9474568
Probable space group: C M C M
;
_chemical_formula_sum "Si O2"
_cell_formula_units_Z 88
_cell_length_a 14.705225
_cell_length_b 13.254398
_cell_length_c 18.337128
_cell_angle_alpha 90.000000
_cell_angle_beta 90.000000
_cell_angle_gamma 90.000000
_cell_volume 3574.069536
_symmetry_space_group_name_H-M "C M C M"
_symmetry_group_IT_number 63
_symmetry_cell_setting 'orthorhombic'
loop_
_space_group_symop_operation_xyz
x,y,z
-x,-y,1/2+z
x,-y,-z
-x,y,1/2-z
-x,-y,-z
x,y,1/2-z
-x,y,z
x,-y,1/2+z
1/2+x,1/2+y,z
1/2-x,1/2-y,1/2+z
1/2+x,1/2-y,-z
1/2-x,1/2+y,1/2-z
1/2-x,1/2-y,-z
1/2+x,1/2+y,1/2-z
1/2-x,1/2+y,z
1/2+x,1/2-y,1/2+z
loop_
_atom_site_type_symbol
_atom_site_label
_atom_site_fract_x
_atom_site_fract_y
_atom_site_fract_z
Si Si1 0.395550 0.090366 0.338395
Si Si2 0.336888 0.895383 0.431619
Si Si3 0.719972 0.707480 0.163161
Si Si4 0.364601 0.605653 0.533561
Si Si5 0.106333 0.012577 0.332855
Si Si6 0.000000 0.708374 0.005165
O O1 0.395597 0.071211 0.250000
O O2 0.500000 0.117371 0.361073
O O3 0.358519 0.993403 0.381967
O O4 0.325160 0.181063 0.351448
O O5 0.321965 0.802848 0.375983
O O6 0.243575 0.892841 0.477512
O O7 0.420443 0.873116 0.483419
O O8 0.708799 0.718219 0.250000
O O9 0.663546 0.607943 0.140256
O O10 0.399142 0.500000 0.500000
O O11 0.376114 0.585137 0.619705
O O12 0.420999 0.702024 0.511876
O O13 0.134202 0.993216 0.250000
O O14 0.000000 0.038345 0.334647
#
# Coordination Sequence:
#
# PCOD9474568 Si02
#       6
#    16  16  16  16  16   8
#     4  10  21  42  70 100 137 185 232 287 351 414
#     4  12  25  44  68 100 139 181 236 287 348 415
#     4  10  22  40  69 105 141 176 228 292 352 414
#     4  12  26  46  72  98 141 189 232 291 351 414
#     4  10  21  39  68 102 132 175 230 284 350 418
#     4  12  27  44  65 100 132 182 233 293 337 419
#
# _framework density 24.621793
#
# number of rings (size 3 to 8) (size 9 to 14) (size 15 to 20)
#    0.000    1.091    3.636    2.455    3.818    0.727 
#    1.636    0.455    0.000    0.000    0.000    0.000 
#    0.000    0.000    0.000    0.000    0.000    0.000 
#
# Total GULP energy -245745.800541 kJ/mol
# GULP energy per Si atom -5585.131830 kJ/mol
# Density = 2.456575 g / cm^3
# Si number density = 24.621793 Si / 1000 Ang^3
#
#
#
# Elastic Constant Matrix: (Units=GPa)
#
#
# Indices 1 2 3 4 5 6 
#
# 1 164.1659 3.2787 1.3655 0.0000 0.0000 0.0000
# 2 3.2787 72.9800 3.0884 0.0000 0.0000 0.0000
# 3 1.3655 3.0884 46.4574 0.0000 0.0000 0.0000
# 4 0.0000 0.0000 0.0000 25.3102 0.0000 0.0000
# 5 0.0000 0.0000 0.0000 0.0000 28.2100 0.0000
# 6 0.0000 0.0000 0.0000 0.0000 0.0000 32.5200
#
#
#
# Elastic Compliance Matrix: (Units=1/GPa)
#
#
# Indices 1 2 3 4 5 6 
#
# 1 0.006098 -0.000267 -0.000161 0.000000 0.000000 0.000000
# 2 -0.000267 0.013753 -0.000906 0.000000 0.000000 0.000000
# 3 -0.000161 -0.000906 0.021590 0.000000 0.000000 0.000000
# 4 0.000000 0.000000 0.000000 0.039510 0.000000 0.000000
# 5 0.000000 0.000000 0.000000 0.000000 0.035448 0.000000
# 6 0.000000 0.000000 0.000000 0.000000 0.000000 0.030750
#
#
# Mechanical properties :
#
#
# Convention : Reuss Voigt Hill
#
# Bulk Modulus (GPa) = 25.79254 33.22982 29.51118
# Shear Modulus (GPa) = 30.72327 35.59942 33.16134
#
# Velocity S-wave (km/s) = 3.53626 3.80656 3.67390
# Velocity P-wave (km/s) = 5.21266 5.73108 5.47800
#
# Compressibility (1/GPa) = 0.03877090
#
# Stress axis : x y z
#
# Youngs Moduli (GPa) = 163.98610 72.71276 46.31752
#
# Poissons Ratio (x) = 0.01942 0.00748
# Poissons Ratio (y) = 0.04381 0.04198
# Poissons Ratio (z) = 0.02648 0.06591
#
# Static dielectric constant tensor:
#      x y z
#    x 1.928890 0.000000 0.000000 
#    y 0.000000 1.889590 0.000000 
#    z 0.000000 0.000000 2.155240 
# 
# From -- ./inp_files/62699.got.cif
#   From: 2010.05.17/outbox.cif.g08.bks.cpg/sg63_32_cif.got.tgz:62699.got - 2010.06.03 15:47:04.
