data_PCOD9474667
_publ_section_title
;
Structure prediction by ZEFSAII (Michael W. Deem and Ramdas Pophale) SiO2 
 PCOD9474667
Probable space group: C M C M
;
_chemical_formula_sum "Si O2"
_cell_formula_units_Z 64
_cell_length_a 9.679333
_cell_length_b 27.698924
_cell_length_c 11.862487
_cell_angle_alpha 90.000000
_cell_angle_beta 90.000000
_cell_angle_gamma 90.000000
_cell_volume 3180.417097
_symmetry_space_group_name_H-M "C M C M"
_symmetry_group_IT_number 63
_symmetry_cell_setting 'orthorhombic'
loop_
_space_group_symop_operation_xyz
x,y,z
-x,-y,1/2+z
x,-y,-z
-x,y,1/2-z
-x,-y,-z
x,y,1/2-z
-x,y,z
x,-y,1/2+z
1/2+x,1/2+y,z
1/2-x,1/2-y,1/2+z
1/2+x,1/2-y,-z
1/2-x,1/2+y,1/2-z
1/2-x,1/2-y,-z
1/2+x,1/2+y,1/2-z
1/2-x,1/2+y,z
1/2+x,1/2-y,1/2+z
loop_
_atom_site_type_symbol
_atom_site_label
_atom_site_fract_x
_atom_site_fract_y
_atom_site_fract_z
Si Si1 0.500000 0.799157 0.505147
Si Si2 0.500000 0.179351 0.750000
Si Si3 0.790860 0.847049 0.947930
Si Si4 0.500000 0.305629 0.383373
Si Si5 0.000000 0.819366 0.750000
Si Si6 0.842885 0.415665 0.250000
Si Si7 0.837284 0.945219 0.463060
O O1 0.500000 0.792165 0.367939
O O2 0.364438 0.828641 0.541233
O O3 0.500000 0.748521 0.568645
O O4 0.628123 0.141963 0.750000
O O5 0.878766 0.823207 0.848545
O O6 0.868121 0.831950 0.063086
O O7 0.804722 0.905041 0.941932
O O8 0.500000 0.306754 0.250000
O O9 0.759395 0.431934 0.141261
O O10 0.000000 0.435793 0.250000
O O11 0.000000 0.941067 0.434195
O O12 0.812313 0.000000 0.500000
#
# Coordination Sequence:
#
# PCOD9474667 Si02
#       7
#     8   4  16   8   4   8  16
#     4  12  25  45  72 107 134 184 235 288 352 408
#     4  10  22  41  74  98 142 178 228 276 353 412
#     4  11  24  47  69  99 140 184 228 291 344 413
#     4  11  27  44  70 105 140 181 243 284 348 417
#     4  10  24  43  70  88 146 184 224 274 357 406
#     4  10  21  42  66 102 136 178 224 287 344 405
#     4  11  23  41  69 100 132 183 230 276 342 416
#
# _framework density 20.123145999999998
#
# number of rings (size 3 to 8) (size 9 to 14) (size 15 to 20)
#    0.375    0.750    5.000    1.125    5.250    3.500 
#    0.000    0.000    0.000    0.000    0.000    0.000 
#    0.000    0.000    0.000    0.000    0.000    0.000 
#
# Total GULP energy -178321.421581 kJ/mol
# GULP energy per Si atom -5572.544424 kJ/mol
# Density = 2.007735 g / cm^3
# Si number density = 20.123146 Si / 1000 Ang^3
#
#
#
# Elastic Constant Matrix: (Units=GPa)
#
#
# Indices 1 2 3 4 5 6 
#
# 1 155.6098 42.7967 46.0542 0.0000 0.0000 0.0000
# 2 42.7967 119.9809 18.5943 0.0000 0.0000 0.0000
# 3 46.0542 18.5943 134.7869 0.0000 0.0000 0.0000
# 4 0.0000 0.0000 0.0000 20.3324 0.0000 0.0000
# 5 0.0000 0.0000 0.0000 0.0000 28.0911 0.0000
# 6 0.0000 0.0000 0.0000 0.0000 0.0000 241.7858
#
#
#
# Elastic Compliance Matrix: (Units=1/GPa)
#
#
# Indices 1 2 3 4 5 6 
#
# 1 0.007778 -0.002414 -0.002325 0.000000 0.000000 0.000000
# 2 -0.002414 0.009266 -0.000453 0.000000 0.000000 0.000000
# 3 -0.002325 -0.000453 0.008276 0.000000 0.000000 0.000000
# 4 0.000000 0.000000 0.000000 0.049183 0.000000 0.000000
# 5 0.000000 0.000000 0.000000 0.000000 0.035599 0.000000
# 6 0.000000 0.000000 0.000000 0.000000 0.000000 0.004136
#
#
# Mechanical properties :
#
#
# Convention : Reuss Voigt Hill
#
# Bulk Modulus (GPa) = 66.95324 69.47424 68.21374
# Shear Modulus (GPa) = 38.58008 78.23733 58.40870
#
# Velocity S-wave (km/s) = 4.38333 6.24209 5.39339
# Velocity P-wave (km/s) = 7.67868 9.30328 8.52975
#
# Compressibility (1/GPa) = 0.01493580
#
# Stress axis : x y z
#
# Youngs Moduli (GPa) = 128.56270 107.92062 120.83197
#
# Poissons Ratio (x) = 0.26054 0.28089
# Poissons Ratio (y) = 0.31038 0.05478
# Poissons Ratio (z) = 0.29886 0.04893
#
# Static dielectric constant tensor:
#      x y z
#    x 1.690820 0.000000 0.000000 
#    y 0.000000 1.767700 0.000000 
#    z 0.000000 0.000000 1.698420 
# 
# From -- ./inp_files/16321.got.cif
#   From: 2010.05.17/outbox.cif.g08.bks.cpg/sg63_9_cif.got.tgz:16321.got - 2010.06.03 15:47:04.
