data_PCOD9474785
_publ_section_title
;
Structure prediction by ZEFSAII (Michael W. Deem and Ramdas Pophale) SiO2 
 PCOD9474785
Probable space group: C M C M
;
_chemical_formula_sum "Si O2"
_cell_formula_units_Z 64
_cell_length_a 23.861945
_cell_length_b 4.990289
_cell_length_c 20.917676
_cell_angle_alpha 90.000000
_cell_angle_beta 90.000000
_cell_angle_gamma 90.000000
_cell_volume 2490.835057
_symmetry_space_group_name_H-M "C M C M"
_symmetry_group_IT_number 63
_symmetry_cell_setting 'orthorhombic'
loop_
_space_group_symop_operation_xyz
x,y,z
-x,-y,1/2+z
x,-y,-z
-x,y,1/2-z
-x,-y,-z
x,y,1/2-z
-x,y,z
x,-y,1/2+z
1/2+x,1/2+y,z
1/2-x,1/2-y,1/2+z
1/2+x,1/2-y,-z
1/2-x,1/2+y,1/2-z
1/2-x,1/2-y,-z
1/2+x,1/2+y,1/2-z
1/2-x,1/2+y,z
1/2+x,1/2-y,1/2+z
loop_
_atom_site_type_symbol
_atom_site_label
_atom_site_fract_x
_atom_site_fract_y
_atom_site_fract_z
Si Si1 0.067522 0.682095 0.322271
Si Si2 0.066196 0.171640 0.404690
Si Si3 0.213121 0.254522 0.611409
Si Si4 0.787870 0.392132 0.750000
Si Si5 0.639735 0.000000 0.000000
O O1 0.086787 0.728465 0.250000
O O2 0.074793 0.380510 0.346506
O O3 0.000000 0.725342 0.320401
O O4 0.085740 0.888795 0.377102
O O5 0.100792 0.288730 0.463113
O O6 0.000000 0.165097 0.420797
O O7 0.268713 0.445531 0.609817
O O8 0.186498 0.326799 0.680667
O O9 0.178493 0.349720 0.551010
O O10 0.767237 0.697966 0.750000
#
# Coordination Sequence:
#
# PCOD9474785 Si02
#       5
#    16  16  16   8   8
#     4   9  18  37  62  85 116 162 213 261 305 350
#     4  10  22  38  59  89 127 169 207 250 305 367
#     4  10  22  41  65  90 120 159 204 256 309 367
#     4   8  16  36  62  84 113 150 193 246 306 356
#     4  12  25  40  62  94 132 164 209 246 314 368
#
# _framework density 25.694196000000002
#
# number of rings (size 3 to 8) (size 9 to 14) (size 15 to 20)
#    0.000    2.250    0.000    1.875    0.000    8.000 
#    4.500    3.750    5.500    0.000    0.000    0.000 
#    0.000    0.000    0.000    0.000    0.000    0.000 
#
# Total GULP energy -179454.035017 kJ/mol
# GULP energy per Si atom -5607.938594 kJ/mol
# Density = 2.563571 g / cm^3
# Si number density = 25.694196 Si / 1000 Ang^3
#
#
#
# Elastic Constant Matrix: (Units=GPa)
#
#
# Indices 1 2 3 4 5 6 
#
# 1 65.3172 3.4622 54.6873 0.0000 0.0000 0.0000
# 2 3.4622 80.7824 4.1535 0.0000 0.0000 0.0000
# 3 54.6873 4.1535 173.9875 0.0000 0.0000 0.0000
# 4 0.0000 0.0000 0.0000 12.8676 0.0000 0.0000
# 5 0.0000 0.0000 0.0000 0.0000 53.4019 0.0000
# 6 0.0000 0.0000 0.0000 0.0000 0.0000 32.5565
#
#
#
# Elastic Compliance Matrix: (Units=1/GPa)
#
#
# Indices 1 2 3 4 5 6 
#
# 1 0.020803 -0.000556 -0.006525 0.000000 0.000000 0.000000
# 2 -0.000556 0.012409 -0.000121 0.000000 0.000000 0.000000
# 3 -0.006525 -0.000121 0.007801 0.000000 0.000000 0.000000
# 4 0.000000 0.000000 0.000000 0.077714 0.000000 0.000000
# 5 0.000000 0.000000 0.000000 0.000000 0.018726 0.000000
# 6 0.000000 0.000000 0.000000 0.000000 0.000000 0.030716
#
#
# Mechanical properties :
#
#
# Convention : Reuss Voigt Hill
#
# Bulk Modulus (GPa) = 37.58342 49.41033 43.49687
# Shear Modulus (GPa) = 26.11722 36.95080 31.53401
#
# Velocity S-wave (km/s) = 3.19166 3.79634 3.50706
# Velocity P-wave (km/s) = 5.31425 6.20388 5.77622
#
# Compressibility (1/GPa) = 0.02660748
#
# Stress axis : x y z
#
# Youngs Moduli (GPa) = 48.07035 80.58657 128.18064
#
# Poissons Ratio (x) = 0.04481 0.83643
# Poissons Ratio (y) = 0.02673 0.01557
# Poissons Ratio (z) = 0.31368 0.00979
#
# Static dielectric constant tensor:
#      x y z
#    x 2.084250 0.000000 0.000000 
#    y 0.000000 1.908970 0.000000 
#    z 0.000000 0.000000 1.994710 
# 
# From -- ./inp_files/57874.got.cif
#   From: 2010.05.17/outbox.cif.g08.bks.cpg/sg63_29_cif.got.tgz:57874.got - 2010.06.03 15:47:04.
