data_PCOD9474216
_publ_section_title
;
Structure prediction by ZEFSAII (Michael W. Deem and Ramdas Pophale) SiO2 
 PCOD9474216
Probable space group: C M C M
;
_chemical_formula_sum "Si O2"
_cell_formula_units_Z 96
_cell_length_a 21.689487
_cell_length_b 14.255204
_cell_length_c 15.917338
_cell_angle_alpha 90.000000
_cell_angle_beta 90.000000
_cell_angle_gamma 90.000000
_cell_volume 4921.450886
_symmetry_space_group_name_H-M "C M C M"
_symmetry_group_IT_number 63
_symmetry_cell_setting 'orthorhombic'
loop_
_space_group_symop_operation_xyz
x,y,z
-x,-y,1/2+z
x,-y,-z
-x,y,1/2-z
-x,-y,-z
x,y,1/2-z
-x,y,z
x,-y,1/2+z
1/2+x,1/2+y,z
1/2-x,1/2-y,1/2+z
1/2+x,1/2-y,-z
1/2-x,1/2+y,1/2-z
1/2-x,1/2-y,-z
1/2+x,1/2+y,1/2-z
1/2-x,1/2+y,z
1/2+x,1/2-y,1/2+z
loop_
_atom_site_type_symbol
_atom_site_label
_atom_site_fract_x
_atom_site_fract_y
_atom_site_fract_z
Si Si1 0.244641 0.981393 0.098207
Si Si2 0.573174 0.189767 0.422687
Si Si3 0.147301 0.834778 0.347088
Si Si4 0.239944 0.809109 0.846082
Si Si5 0.925937 0.583588 0.250000
Si Si6 0.851243 0.328054 0.089066
Si Si7 0.573621 0.133127 0.750000
O O1 0.183319 0.929345 0.130560
O O2 0.302393 0.910989 0.108407
O O3 0.253034 0.081905 0.141132
O O4 0.238336 0.000000 0.000000
O O5 0.500000 0.178150 0.436875
O O6 0.591636 0.297752 0.403963
O O7 0.590975 0.134774 0.336810
O O8 0.612726 0.156247 0.502398
O O9 0.128044 0.837680 0.250000
O O10 0.199690 0.754331 0.357590
O O11 0.218940 0.792714 0.750000
O O12 0.189122 0.767299 0.909507
O O13 0.906263 0.476151 0.250000
O O14 0.000000 0.584249 0.250000
O O15 0.898945 0.323394 0.165534
O O16 0.500000 0.137642 0.750000
#
# Coordination Sequence:
#
# PCOD9474216 Si02
#       7
#    16  16  16  16   8  16   8
#     4  11  23  36  59  92 123 157 200 259 310 364
#     4  11  22  40  63  89 123 164 207 252 302 363
#     4  10  21  37  61  90 119 158 202 251 313 368
#     4  10  21  39  61  89 122 159 203 252 309 366
#     4   9  22  38  57  86 118 162 208 245 294 353
#     4  11  24  39  62  93 122 166 207 246 308 369
#     4  11  24  40  57  86 130 168 205 251 296 363
#
# _framework density 19.506443000000001
#
# number of rings (size 3 to 8) (size 9 to 14) (size 15 to 20)
#    0.000    1.500    1.667    3.000    7.000    2.667 
#    0.000    2.500    0.000    5.500    0.000    0.000 
#    0.000    0.000    0.000    0.000    0.000    0.000 
#
# Total GULP energy -268186.770901 kJ/mol
# GULP energy per Si atom -5587.224394 kJ/mol
# Density = 1.946205 g / cm^3
# Si number density = 19.506443 Si / 1000 Ang^3
#
#
#
# Elastic Constant Matrix: (Units=GPa)
#
#
# Indices 1 2 3 4 5 6 
#
# 1 69.9470 18.2606 26.3669 0.0000 0.0000 0.0000
# 2 18.2606 74.3633 -6.1115 0.0000 0.0000 0.0000
# 3 26.3669 -6.1115 88.0300 0.0000 0.0000 0.0000
# 4 0.0000 0.0000 0.0000 37.2824 0.0000 0.0000
# 5 0.0000 0.0000 0.0000 0.0000 -17.6045 0.0000
# 6 0.0000 0.0000 0.0000 0.0000 0.0000 20.8011
#
#
#
# Elastic Compliance Matrix: (Units=1/GPa)
#
#
# Indices 1 2 3 4 5 6 
#
# 1 0.017671 -0.004802 -0.005626 0.000000 0.000000 0.000000
# 2 -0.004802 0.014829 0.002468 0.000000 0.000000 0.000000
# 3 -0.005626 0.002468 0.013216 0.000000 0.000000 0.000000
# 4 0.000000 0.000000 0.000000 0.026822 0.000000 0.000000
# 5 0.000000 0.000000 0.000000 0.000000 -0.056804 0.000000
# 6 0.000000 0.000000 0.000000 0.000000 0.000000 0.048074
#
#
# Mechanical properties :
#
#
# Convention : Reuss Voigt Hill
#
# Bulk Modulus (GPa) = 33.56113 34.37469 33.96791
# Shear Modulus (GPa) = 55.76501 21.01741 38.39121
#
# Velocity S-wave (km/s) = 5.35258 3.28603 4.44117
# Velocity P-wave (km/s) = 7.44598 5.66196 6.61439
#
# Compressibility (1/GPa) = 0.02979638
#
# Stress axis : x y z
#
# Youngs Moduli (GPa) = 56.59034 67.43366 75.66451
#
# Poissons Ratio (x) = 0.32379 0.42570
# Poissons Ratio (y) = 0.27173 -0.18672
# Poissons Ratio (z) = 0.31839 -0.16641
#
# Static dielectric constant tensor:
#      x y z
#    x 1.692460 0.000000 0.000000 
#    y 0.000000 1.713090 0.000000 
#    z 0.000000 0.000000 1.796830 
# 
# From -- ./inp_files/35442.got.cif
#   From: 2010.05.17/outbox.cif.g08.bks.cpg/sg63_18_cif.got.tgz:35442.got - 2010.06.03 15:47:04.
