data_PCOD9474672
_publ_section_title
;
Structure prediction by ZEFSAII (Michael W. Deem and Ramdas Pophale) SiO2 
 PCOD9474672
Probable space group: C M C M
;
_chemical_formula_sum "Si O2"
_cell_formula_units_Z 88
_cell_length_a 27.517904
_cell_length_b 6.659286
_cell_length_c 20.660169
_cell_angle_alpha 90.000000
_cell_angle_beta 90.000000
_cell_angle_gamma 90.000000
_cell_volume 3785.967558
_symmetry_space_group_name_H-M "C M C M"
_symmetry_group_IT_number 63
_symmetry_cell_setting 'orthorhombic'
loop_
_space_group_symop_operation_xyz
x,y,z
-x,-y,1/2+z
x,-y,-z
-x,y,1/2-z
-x,-y,-z
x,y,1/2-z
-x,y,z
x,-y,1/2+z
1/2+x,1/2+y,z
1/2-x,1/2-y,1/2+z
1/2+x,1/2-y,-z
1/2-x,1/2+y,1/2-z
1/2-x,1/2-y,-z
1/2+x,1/2+y,1/2-z
1/2-x,1/2+y,z
1/2+x,1/2-y,1/2+z
loop_
_atom_site_type_symbol
_atom_site_label
_atom_site_fract_x
_atom_site_fract_y
_atom_site_fract_z
Si Si1 0.500000 0.276418 0.821631
Si Si2 0.142375 0.787803 0.393452
Si Si3 0.587138 0.500000 0.000000
Si Si4 0.310559 0.377633 0.676667
Si Si5 0.000000 0.274150 0.027947
Si Si6 0.259955 0.129158 0.052075
Si Si7 0.396893 0.054530 0.678413
O O1 0.500000 0.389619 0.750000
O O2 0.550825 0.157951 0.820117
O O3 0.500000 0.326254 0.898608
O O4 0.121633 0.961050 0.439355
O O5 0.183602 0.664508 0.430943
O O6 0.103322 0.626702 0.371436
O O7 0.164963 0.904327 0.332737
O O8 0.550860 0.313887 0.996913
O O9 0.291674 0.352608 0.750000
O O10 0.271156 0.371692 0.619584
O O11 0.353046 0.211509 0.666370
O O12 0.000000 0.500000 0.000000
O O13 0.245568 0.377083 0.033448
O O14 0.387846 0.971397 0.750000
#
# Coordination Sequence:
#
# PCOD9474672 Si02
#       7
#     8  16   8  16   8  16  16
#     4  10  21  42  69  97 135 177 224 279 353 433
#     4  12  24  43  68  97 141 182 231 293 361 424
#     4  11  26  42  68 106 142 182 240 293 358 438
#     4  11  25  45  69 100 136 179 241 301 355 429
#     4  11  23  44  74 105 141 184 238 298 363 427
#     4  12  24  44  65  95 135 183 235 288 358 436
#     4  10  23  43  69 100 134 180 231 288 358 428
#
# _framework density 23.243727
#
# number of rings (size 3 to 8) (size 9 to 14) (size 15 to 20)
#    0.000    0.909    1.818    4.909    0.000    4.364 
#    0.000    1.818    0.000    5.455    0.000    0.000 
#    0.000    0.000    0.000    0.000    0.000    0.000 
#
# Total GULP energy -245357.226059 kJ/mol
# GULP energy per Si atom -5576.300592 kJ/mol
# Density = 2.319082 g / cm^3
# Si number density = 23.243727 Si / 1000 Ang^3
#
#
#
# Elastic Constant Matrix: (Units=GPa)
#
#
# Indices 1 2 3 4 5 6 
#
# 1 92.1276 15.2505 43.3601 0.0000 0.0000 0.0000
# 2 15.2505 97.6471 41.9547 0.0000 0.0000 0.0000
# 3 43.3601 41.9547 153.1761 0.0000 0.0000 0.0000
# 4 0.0000 0.0000 0.0000 41.6186 0.0000 0.0000
# 5 0.0000 0.0000 0.0000 0.0000 9.2778 0.0000
# 6 0.0000 0.0000 0.0000 0.0000 0.0000 1435.9141
#
#
#
# Elastic Compliance Matrix: (Units=1/GPa)
#
#
# Indices 1 2 3 4 5 6 
#
# 1 0.012544 -0.000491 -0.003416 0.000000 0.000000 0.000000
# 2 -0.000491 0.011626 -0.003045 0.000000 0.000000 0.000000
# 3 -0.003416 -0.003045 0.008330 0.000000 0.000000 0.000000
# 4 0.000000 0.000000 0.000000 0.024028 0.000000 0.000000
# 5 0.000000 0.000000 0.000000 0.000000 0.107784 0.000000
# 6 0.000000 0.000000 0.000000 0.000000 0.000000 0.000696
#
#
# Mechanical properties :
#
#
# Convention : Reuss Voigt Hill
#
# Bulk Modulus (GPa) = 53.78142 60.45347 57.11745
# Shear Modulus (GPa) = 27.01076 313.52113 170.26595
#
# Velocity S-wave (km/s) = 3.41261 11.62657 8.56805
# Velocity P-wave (km/s) = 6.22223 14.36318 11.06836
#
# Compressibility (1/GPa) = 0.01859378
#
# Stress axis : x y z
#
# Youngs Moduli (GPa) = 79.72137 86.01322 120.05401
#
# Poissons Ratio (x) = 0.04226 0.41013
# Poissons Ratio (y) = 0.03916 0.36560
# Poissons Ratio (z) = 0.27235 0.26194
#
# Static dielectric constant tensor:
#      x y z
#    x 1.794210 0.000000 0.000000 
#    y 0.000000 1.941440 0.000000 
#    z 0.000000 0.000000 1.977140 
# 
# From -- ./inp_files/65748.got.cif
#   From: 2010.05.17/outbox.cif.g08.bks.cpg/sg63_33_cif.got.tgz:65748.got - 2010.06.03 15:47:04.
