data_PCOD9474033
_publ_section_title
;
Structure prediction by ZEFSAII (Michael W. Deem and Ramdas Pophale) SiO2 
 PCOD9474033
Probable space group: C M C M
;
_chemical_formula_sum "Si O2"
_cell_formula_units_Z 96
_cell_length_a 15.350947
_cell_length_b 32.406078
_cell_length_c 9.288463
_cell_angle_alpha 90.000000
_cell_angle_beta 90.000000
_cell_angle_gamma 90.000000
_cell_volume 4620.675826
_symmetry_space_group_name_H-M "C M C M"
_symmetry_group_IT_number 63
_symmetry_cell_setting 'orthorhombic'
loop_
_space_group_symop_operation_xyz
x,y,z
-x,-y,1/2+z
x,-y,-z
-x,y,1/2-z
-x,-y,-z
x,y,1/2-z
-x,y,z
x,-y,1/2+z
1/2+x,1/2+y,z
1/2-x,1/2-y,1/2+z
1/2+x,1/2-y,-z
1/2-x,1/2+y,1/2-z
1/2-x,1/2-y,-z
1/2+x,1/2+y,1/2-z
1/2-x,1/2+y,z
1/2+x,1/2-y,1/2+z
loop_
_atom_site_type_symbol
_atom_site_label
_atom_site_fract_x
_atom_site_fract_y
_atom_site_fract_z
Si Si1 0.652322 0.376384 0.578468
Si Si2 0.604339 0.220212 0.911285
Si Si3 0.835774 0.371974 0.423270
Si Si4 0.397052 0.296029 0.090781
Si Si5 0.860611 0.539921 0.914136
Si Si6 0.147075 0.041307 0.917700
O O1 0.644480 0.379327 0.750000
O O2 0.751734 0.373442 0.524192
O O3 0.612759 0.334542 0.515176
O O4 0.617040 0.417585 0.500428
O O5 0.638209 0.228504 0.750000
O O6 0.500000 0.225099 0.906535
O O7 0.621889 0.172499 0.945704
O O8 0.639739 0.254088 0.021951
O O9 0.814690 0.375148 0.250000
O O10 0.888355 0.413878 0.458049
O O11 0.359890 0.305029 0.250000
O O12 0.500000 0.289697 0.106878
O O13 0.885943 0.533890 0.750000
O O14 0.753847 0.541091 0.921239
O O15 0.889965 0.500000 0.000000
O O16 0.121671 0.041680 0.750000
O O17 0.118522 0.000000 0.000000
#
# Coordination Sequence:
#
# PCOD9474033 Si02
#       6
#    16  16  16  16  16  16
#     4  11  21  32  50  76 103 132 167 206 246 288
#     4   9  18  34  55  75  95 125 166 208 251 301
#     4   9  18  32  49  72 102 131 162 205 253 297
#     4  10  21  37  55  73  96 128 163 201 249 303
#     4   8  14  24  40  63  92 126 159 193 234 280
#     4   9  16  28  46  70 101 133 165 201 243 291
#
# _framework density 20.776181999999999
#
# number of rings (size 3 to 8) (size 9 to 14) (size 15 to 20)
#    0.000    2.667    0.000    3.500    0.000    6.333 
#    0.000    0.000    0.000    1.000    0.000    0.000 
#    0.000    0.000    0.000    0.000    0.000    1.833 
#
# Total GULP energy -267677.980322 kJ/mol
# GULP energy per Si atom -5576.624590 kJ/mol
# Density = 2.072889 g / cm^3
# Si number density = 20.776182 Si / 1000 Ang^3
#
#
#
# Elastic Constant Matrix: (Units=GPa)
#
#
# Indices 1 2 3 4 5 6 
#
# 1 23.2706 8.0330 14.3807 0.0000 0.0000 0.0000
# 2 8.0330 201.8592 105.1494 0.0000 0.0000 0.0000
# 3 14.3807 105.1494 146.1561 0.0000 0.0000 0.0000
# 4 0.0000 0.0000 0.0000 42.1821 0.0000 0.0000
# 5 0.0000 0.0000 0.0000 0.0000 10.5795 0.0000
# 6 0.0000 0.0000 0.0000 0.0000 0.0000 36.8293
#
#
#
# Elastic Compliance Matrix: (Units=1/GPa)
#
#
# Indices 1 2 3 4 5 6 
#
# 1 0.045844 0.000840 -0.005115 0.000000 0.000000 0.000000
# 2 0.000840 0.007939 -0.005794 0.000000 0.000000 0.000000
# 3 -0.005115 -0.005794 0.011514 0.000000 0.000000 0.000000
# 4 0.000000 0.000000 0.000000 0.023707 0.000000 0.000000
# 5 0.000000 0.000000 0.000000 0.000000 0.094523 0.000000
# 6 0.000000 0.000000 0.000000 0.000000 0.000000 0.027152
#
#
# Mechanical properties :
#
#
# Convention : Reuss Voigt Hill
#
# Bulk Modulus (GPa) = 22.14440 69.60134 45.87287
# Shear Modulus (GPa) = 20.33608 34.16635 27.25122
#
# Velocity S-wave (km/s) = 3.13200 4.05964 3.62561
# Velocity P-wave (km/s) = 4.87452 7.45302 6.29716
#
# Compressibility (1/GPa) = 0.04515815
#
# Stress axis : x y z
#
# Youngs Moduli (GPa) = 21.81322 125.96659 86.85350
#
# Poissons Ratio (x) = -0.10583 0.44426
# Poissons Ratio (y) = -0.01833 0.50323
# Poissons Ratio (z) = 0.11158 0.72984
#
# Static dielectric constant tensor:
#      x y z
#    x 1.783230 0.000000 0.000000 
#    y 0.000000 1.760990 0.000000 
#    z 0.000000 0.000000 1.726260 
# 
# From -- ./inp_files/8576.got.cif
#   From: 2010.05.17/outbox.cif.g08.bks.cpg/sg63_5_cif.got.tgz:8576.got - 2010.06.03 15:47:04.
