data_PCOD9474555
_publ_section_title
;
Structure prediction by ZEFSAII (Michael W. Deem and Ramdas Pophale) SiO2 
 PCOD9474555
Probable space group: C M C M
;
_chemical_formula_sum "Si O2"
_cell_formula_units_Z 96
_cell_length_a 13.734966
_cell_length_b 14.272507
_cell_length_c 22.308598
_cell_angle_alpha 90.000000
_cell_angle_beta 90.000000
_cell_angle_gamma 90.000000
_cell_volume 4373.207970
_symmetry_space_group_name_H-M "C M C M"
_symmetry_group_IT_number 63
_symmetry_cell_setting 'orthorhombic'
loop_
_space_group_symop_operation_xyz
x,y,z
-x,-y,1/2+z
x,-y,-z
-x,y,1/2-z
-x,-y,-z
x,y,1/2-z
-x,y,z
x,-y,1/2+z
1/2+x,1/2+y,z
1/2-x,1/2-y,1/2+z
1/2+x,1/2-y,-z
1/2-x,1/2+y,1/2-z
1/2-x,1/2-y,-z
1/2+x,1/2+y,1/2-z
1/2-x,1/2+y,z
1/2+x,1/2-y,1/2+z
loop_
_atom_site_type_symbol
_atom_site_label
_atom_site_fract_x
_atom_site_fract_y
_atom_site_fract_z
Si Si1 0.617858 0.266914 0.949985
Si Si2 0.617575 0.948117 0.438501
Si Si3 0.882208 0.753584 0.315676
Si Si4 0.114942 0.940823 0.871297
Si Si5 0.117570 0.129938 0.569530
Si Si6 0.308376 0.959574 0.684315
O O1 0.500000 0.264340 0.953128
O O2 0.648031 0.160226 0.942010
O O3 0.639902 0.338616 0.896747
O O4 0.652424 0.316135 0.010938
O O5 0.500000 0.953490 0.437914
O O6 0.649411 0.000000 0.500000
O O7 0.652987 0.990477 0.375563
O O8 0.853756 0.790796 0.250000
O O9 0.848757 0.817665 0.370333
O O10 0.843768 0.647994 0.320470
O O11 0.000000 0.749880 0.317868
O O12 0.191338 0.962312 0.819704
O O13 0.000000 0.946399 0.856225
O O14 0.134692 0.019365 0.922586
O O15 0.000000 0.138027 0.568195
O O16 0.341153 0.995065 0.750000
#
# Coordination Sequence:
#
# PCOD9474555 Si02
#       6
#    16  16  16  16  16  16
#     4   9  18  35  59  86 117 154 194 238 294 357
#     4  10  21  39  65  96 127 156 191 240 298 361
#     4   9  18  34  57  84 112 143 184 238 299 359
#     4  10  22  39  57  81 116 158 204 250 294 343
#     4   9  17  33  59  85 112 149 192 242 298 353
#     4  11  24  40  60  87 119 158 201 245 297 354
#
# _framework density 21.95185
#
# number of rings (size 3 to 8) (size 9 to 14) (size 15 to 20)
#    0.000    2.333    0.000    2.000    0.000    9.333 
#    0.000    6.667    0.000    3.000    0.000    0.000 
#    0.000    0.000    0.000    0.000    0.000    0.000 
#
# Total GULP energy -268150.838730 kJ/mol
# GULP energy per Si atom -5586.475807 kJ/mol
# Density = 2.190189 g / cm^3
# Si number density = 21.951850 Si / 1000 Ang^3
#
#
#
# Elastic Constant Matrix: (Units=GPa)
#
#
# Indices 1 2 3 4 5 6 
#
# 1 68.2827 13.8905 41.2798 0.0000 0.0000 0.0000
# 2 13.8905 116.7308 43.2091 0.0000 0.0000 0.0000
# 3 41.2798 43.2091 111.5756 0.0000 0.0000 0.0000
# 4 0.0000 0.0000 0.0000 12.2377 0.0000 0.0000
# 5 0.0000 0.0000 0.0000 0.0000 17.8616 0.0000
# 6 0.0000 0.0000 0.0000 0.0000 0.0000 3.8855
#
#
#
# Elastic Compliance Matrix: (Units=1/GPa)
#
#
# Indices 1 2 3 4 5 6 
#
# 1 0.018880 0.000396 -0.007138 0.000000 0.000000 0.000000
# 2 0.000396 0.010009 -0.004022 0.000000 0.000000 0.000000
# 3 -0.007138 -0.004022 0.013161 0.000000 0.000000 0.000000
# 4 0.000000 0.000000 0.000000 0.081715 0.000000 0.000000
# 5 0.000000 0.000000 0.000000 0.000000 0.055986 0.000000
# 6 0.000000 0.000000 0.000000 0.000000 0.000000 0.257368
#
#
# Mechanical properties :
#
#
# Convention : Reuss Voigt Hill
#
# Bulk Modulus (GPa) = 48.73347 54.81646 51.77496
# Shear Modulus (GPa) = 10.74141 20.01092 15.37617
#
# Velocity S-wave (km/s) = 2.21445 3.02252 2.64947
# Velocity P-wave (km/s) = 5.36533 6.09969 5.74426
#
# Compressibility (1/GPa) = 0.02051978
#
# Stress axis : x y z
#
# Youngs Moduli (GPa) = 52.96644 99.91468 75.98099
#
# Poissons Ratio (x) = -0.03953 0.54237
# Poissons Ratio (y) = -0.02096 0.30562
# Poissons Ratio (z) = 0.37809 0.40189
#
# Static dielectric constant tensor:
#      x y z
#    x 1.843200 0.000000 0.000000 
#    y 0.000000 1.779680 0.000000 
#    z 0.000000 0.000000 1.801510 
# 
# From -- ./inp_files/54176.got.cif
#   From: 2010.05.17/outbox.cif.g08.bks.cpg/sg63_28_cif.got.tgz:54176.got - 2010.06.03 15:47:04.
