data_PCOD9474267
_publ_section_title
;
Structure prediction by ZEFSAII (Michael W. Deem and Ramdas Pophale) SiO2 
 PCOD9474267
Probable space group: C M C M
;
_chemical_formula_sum "Si O2"
_cell_formula_units_Z 88
_cell_length_a 20.342063
_cell_length_b 13.877631
_cell_length_c 15.607421
_cell_angle_alpha 90.000000
_cell_angle_beta 90.000000
_cell_angle_gamma 90.000000
_cell_volume 4405.969394
_symmetry_space_group_name_H-M "C M C M"
_symmetry_group_IT_number 63
_symmetry_cell_setting 'orthorhombic'
loop_
_space_group_symop_operation_xyz
x,y,z
-x,-y,1/2+z
x,-y,-z
-x,y,1/2-z
-x,-y,-z
x,y,1/2-z
-x,y,z
x,-y,1/2+z
1/2+x,1/2+y,z
1/2-x,1/2-y,1/2+z
1/2+x,1/2-y,-z
1/2-x,1/2+y,1/2-z
1/2-x,1/2-y,-z
1/2+x,1/2+y,1/2-z
1/2-x,1/2+y,z
1/2+x,1/2-y,1/2+z
loop_
_atom_site_type_symbol
_atom_site_label
_atom_site_fract_x
_atom_site_fract_y
_atom_site_fract_z
Si Si1 0.425462 0.215375 0.112343
Si Si2 0.120809 0.000000 0.500000
Si Si3 0.929265 0.194530 0.426812
Si Si4 0.925402 0.505972 0.853432
Si Si5 0.681373 0.625128 0.650855
Si Si6 0.828201 0.327466 0.148095
O O1 0.500000 0.229007 0.146822
O O2 0.407777 0.104000 0.125248
O O3 0.372592 0.289500 0.149802
O O4 0.428530 0.241408 0.012485
O O5 0.078729 0.085671 0.458552
O O6 0.160714 0.047579 0.578965
O O7 0.866475 0.230382 0.375235
O O8 0.000000 0.208348 0.382491
O O9 0.927388 0.512819 0.750000
O O10 0.872582 0.583423 0.885279
O O11 0.000000 0.525520 0.885049
O O12 0.685468 0.589028 0.750000
O O13 0.752415 0.665778 0.622351
O O14 0.827721 0.335408 0.250000
#
# Coordination Sequence:
#
# PCOD9474267 Si02
#       6
#    16   8  16  16  16  16
#     4   9  19  35  57  83 108 142 190 240 293 351
#     4  10  23  40  60  84 115 156 204 246 289 346
#     4  10  21  38  58  81 113 149 190 243 292 342
#     4   9  17  31  52  78 108 141 179 226 281 345
#     4  10  22  39  58  84 118 154 196 246 295 349
#     4  10  22  37  55  83 116 150 188 232 290 355
#
# _framework density 19.972904
#
# number of rings (size 3 to 8) (size 9 to 14) (size 15 to 20)
#    0.000    2.364    0.000    1.364    0.000   10.182 
#    0.000    6.364    0.000    0.000    0.000    0.000 
#    0.000    0.000    0.000    0.000    0.000    0.000 
#
# Total GULP energy -245401.149578 kJ/mol
# GULP energy per Si atom -5577.298854 kJ/mol
# Density = 1.992744 g / cm^3
# Si number density = 19.972904 Si / 1000 Ang^3
#
#
#
# Elastic Constant Matrix: (Units=GPa)
#
#
# Indices 1 2 3 4 5 6 
#
# 1 124.7744 58.6501 36.2576 0.0000 0.0000 0.0000
# 2 58.6501 107.6145 18.2290 0.0000 0.0000 0.0000
# 3 36.2576 18.2290 31.7876 0.0000 0.0000 0.0000
# 4 0.0000 0.0000 0.0000 24.5891 0.0000 0.0000
# 5 0.0000 0.0000 0.0000 0.0000 19.9333 0.0000
# 6 0.0000 0.0000 0.0000 0.0000 0.0000 14.4092
#
#
#
# Elastic Compliance Matrix: (Units=1/GPa)
#
#
# Indices 1 2 3 4 5 6 
#
# 1 0.014563 -0.005674 -0.013357 0.000000 0.000000 0.000000
# 2 -0.005674 0.012503 -0.000698 0.000000 0.000000 0.000000
# 3 -0.013357 -0.000698 0.047094 0.000000 0.000000 0.000000
# 4 0.000000 0.000000 0.000000 0.040668 0.000000 0.000000
# 5 0.000000 0.000000 0.000000 0.000000 0.050167 0.000000
# 6 0.000000 0.000000 0.000000 0.000000 0.000000 0.069400
#
#
# Mechanical properties :
#
#
# Convention : Reuss Voigt Hill
#
# Bulk Modulus (GPa) = 28.81662 54.49443 41.65552
# Shear Modulus (GPa) = 17.51798 21.85566 19.68682
#
# Velocity S-wave (km/s) = 2.96478 3.31156 3.14295
# Velocity P-wave (km/s) = 5.11655 6.47806 5.83714
#
# Compressibility (1/GPa) = 0.03470220
#
# Stress axis : x y z
#
# Youngs Moduli (GPa) = 68.66738 79.97992 21.23414
#
# Poissons Ratio (x) = 0.45383 0.28362
# Poissons Ratio (y) = 0.38964 0.01482
# Poissons Ratio (z) = 0.91718 0.05581
#
# Static dielectric constant tensor:
#      x y z
#    x 1.730780 0.000000 0.000000 
#    y 0.000000 1.683460 0.000000 
#    z 0.000000 0.000000 1.721950 
# 
# From -- ./inp_files/46930.got.cif
#   From: 2010.05.17/outbox.cif.g08.bks.cpg/sg63_24_cif.got.tgz:46930.got - 2010.06.03 15:47:04.
