data_PCOD9474098
_publ_section_title
;
Structure prediction by ZEFSAII (Michael W. Deem and Ramdas Pophale) SiO2 
 PCOD9474098
Probable space group: C M C M
;
_chemical_formula_sum "Si O2"
_cell_formula_units_Z 80
_cell_length_a 18.082968
_cell_length_b 9.121711
_cell_length_c 25.456461
_cell_angle_alpha 90.000000
_cell_angle_beta 90.000000
_cell_angle_gamma 90.000000
_cell_volume 4198.982353
_symmetry_space_group_name_H-M "C M C M"
_symmetry_group_IT_number 63
_symmetry_cell_setting 'orthorhombic'
loop_
_space_group_symop_operation_xyz
x,y,z
-x,-y,1/2+z
x,-y,-z
-x,y,1/2-z
-x,-y,-z
x,y,1/2-z
-x,y,z
x,-y,1/2+z
1/2+x,1/2+y,z
1/2-x,1/2-y,1/2+z
1/2+x,1/2-y,-z
1/2-x,1/2+y,1/2-z
1/2-x,1/2-y,-z
1/2+x,1/2+y,1/2-z
1/2-x,1/2+y,z
1/2+x,1/2-y,1/2+z
loop_
_atom_site_type_symbol
_atom_site_label
_atom_site_fract_x
_atom_site_fract_y
_atom_site_fract_z
Si Si1 0.161751 0.561806 0.908396
Si Si2 0.914667 0.989201 0.625704
Si Si3 0.916228 0.221759 0.475845
Si Si4 0.183642 0.219221 0.923485
Si Si5 0.911437 0.706038 0.810959
O O1 0.100166 0.621428 0.948954
O O2 0.180302 0.392174 0.913864
O O3 0.233948 0.657097 0.922472
O O4 0.132769 0.602209 0.850553
O O5 0.909399 0.894279 0.571748
O O6 0.894800 0.872911 0.670917
O O7 0.000000 0.033562 0.632153
O O8 0.862058 0.127298 0.619574
O O9 0.857581 0.192629 0.521255
O O10 0.000000 0.213500 0.496598
O O11 0.895020 0.682697 0.750000
O O12 0.000000 0.686778 0.819303
#
# Coordination Sequence:
#
# PCOD9474098 Si02
#       5
#    16  16  16  16  16
#     4  11  23  37  55  82 115 150 189 231 276 329
#     4   9  19  36  59  86 113 146 187 226 272 332
#     4  10  21  37  57  82 115 153 188 226 276 332
#     4  12  23  36  54  81 117 154 188 228 275 327
#     4   9  19  40  66  86 109 142 180 228 284 336
#
# _framework density 19.052235
#
# number of rings (size 3 to 8) (size 9 to 14) (size 15 to 20)
#    0.000    1.800    0.000    6.600    0.000    7.200 
#    0.000    5.000    0.000    2.400    0.000    0.000 
#    0.000    0.000    0.000    0.000    0.000    0.000 
#
# Total GULP energy -223549.246130 kJ/mol
# GULP energy per Si atom -5588.731153 kJ/mol
# Density = 1.900887 g / cm^3
# Si number density = 19.052235 Si / 1000 Ang^3
#
#
#
# Elastic Constant Matrix: (Units=GPa)
#
#
# Indices 1 2 3 4 5 6 
#
# 1 70.8122 25.3300 38.8245 0.0000 0.0000 0.0000
# 2 25.3300 94.9715 4.4363 0.0000 0.0000 0.0000
# 3 38.8245 4.4363 91.1378 0.0000 0.0000 0.0000
# 4 0.0000 0.0000 0.0000 12.1732 0.0000 0.0000
# 5 0.0000 0.0000 0.0000 0.0000 -4.5993 0.0000
# 6 0.0000 0.0000 0.0000 0.0000 0.0000 -54.3020
#
#
#
# Elastic Compliance Matrix: (Units=1/GPa)
#
#
# Indices 1 2 3 4 5 6 
#
# 1 0.020629 -0.005103 -0.008540 0.000000 0.000000 0.000000
# 2 -0.005103 0.011816 0.001599 0.000000 0.000000 0.000000
# 3 -0.008540 0.001599 0.014532 0.000000 0.000000 0.000000
# 4 0.000000 0.000000 0.000000 0.082148 0.000000 0.000000
# 5 0.000000 0.000000 0.000000 0.000000 -0.217424 0.000000
# 6 0.000000 0.000000 0.000000 0.000000 0.000000 -0.018416
#
#
# Mechanical properties :
#
#
# Convention : Reuss Voigt Hill
#
# Bulk Modulus (GPa) = 43.68803 43.78924 43.73863
# Shear Modulus (GPa) = -66.67045 3.20975 -31.73035
#
# Velocity S-wave (km/s) = -5.92195 1.29937 -4.08541
# Velocity P-wave (km/s) = 4.87636 5.02840 0.86775
#
# Compressibility (1/GPa) = 0.02288957
#
# Stress axis : x y z
#
# Youngs Moduli (GPa) = 48.47450 84.63186 68.81153
#
# Poissons Ratio (x) = 0.43189 0.58763
# Poissons Ratio (y) = 0.24738 -0.11002
# Poissons Ratio (z) = 0.41396 -0.13531
#
# Static dielectric constant tensor:
#      x y z
#    x 1.680650 0.000000 0.000000 
#    y 0.000000 1.672320 0.000000 
#    z 0.000000 0.000000 1.655320 
# 
# From -- ./inp_files/69708.got.cif
#   From: 2010.05.17/outbox.cif.g08.bks.cpg/sg63_35_cif.got.tgz:69708.got - 2010.06.03 15:47:04.
