data_PCOD9474457
_publ_section_title
;
Structure prediction by ZEFSAII (Michael W. Deem and Ramdas Pophale) SiO2 
 PCOD9474457
Probable space group: C M C M
;
_chemical_formula_sum "Si O2"
_cell_formula_units_Z 80
_cell_length_a 13.234064
_cell_length_b 13.057165
_cell_length_c 26.360287
_cell_angle_alpha 90.000000
_cell_angle_beta 90.000000
_cell_angle_gamma 90.000000
_cell_volume 4555.040651
_symmetry_space_group_name_H-M "C M C M"
_symmetry_group_IT_number 63
_symmetry_cell_setting 'orthorhombic'
loop_
_space_group_symop_operation_xyz
x,y,z
-x,-y,1/2+z
x,-y,-z
-x,y,1/2-z
-x,-y,-z
x,y,1/2-z
-x,y,z
x,-y,1/2+z
1/2+x,1/2+y,z
1/2-x,1/2-y,1/2+z
1/2+x,1/2-y,-z
1/2-x,1/2+y,1/2-z
1/2-x,1/2-y,-z
1/2+x,1/2+y,1/2-z
1/2-x,1/2+y,z
1/2+x,1/2-y,1/2+z
loop_
_atom_site_type_symbol
_atom_site_label
_atom_site_fract_x
_atom_site_fract_y
_atom_site_fract_z
Si Si1 0.755163 0.594340 0.036281
Si Si2 0.000000 0.416387 0.310798
Si Si3 0.386219 0.486810 0.310252
Si Si4 0.120206 0.712974 0.954382
Si Si5 0.806699 0.549966 0.873647
Si Si6 0.500000 0.321629 0.688910
O O1 0.664635 0.673118 0.045401
O O2 0.795898 0.544609 0.087723
O O3 0.723570 0.500000 0.000000
O O4 0.840886 0.656597 0.005486
O O5 0.899380 0.463240 0.335056
O O6 0.000000 0.295367 0.326062
O O7 0.000000 0.423569 0.250000
O O8 0.364336 0.481341 0.250000
O O9 0.500000 0.442680 0.317882
O O10 0.297537 0.439633 0.342955
O O11 0.404470 0.606919 0.325327
O O12 0.168671 0.647902 0.908579
O O13 0.000000 0.710671 0.951010
O O14 0.500000 0.322143 0.750000
#
# Coordination Sequence:
#
# PCOD9474457 Si02
#       6
#    16   8  16  16  16   8
#     4   9  22  39  57  86 113 148 190 239 297 346
#     4  11  22  34  53  90 120 152 196 238 283 344
#     4   8  17  35  58  81 111 152 194 242 285 327
#     4  10  21  39  60  83 116 149 195 239 290 354
#     4  11  21  32  59  87 115 153 189 238 290 347
#     4   7  16  34  56  78 102 148 199 232 274 320
#
# _framework density 17.562961000000001
#
# number of rings (size 3 to 8) (size 9 to 14) (size 15 to 20)
#    0.600    2.000    1.000    0.600    4.200    2.400 
#    0.000    8.000    0.000    0.000    0.000    0.000 
#    0.000    0.000    0.000    0.000    0.000    0.000 
#
# Total GULP energy -222805.419233 kJ/mol
# GULP energy per Si atom -5570.135481 kJ/mol
# Density = 1.752299 g / cm^3
# Si number density = 17.562961 Si / 1000 Ang^3
#
#
#
# Elastic Constant Matrix: (Units=GPa)
#
#
# Indices 1 2 3 4 5 6 
#
# 1 153.3369 61.8250 83.4250 0.0000 0.0000 0.0000
# 2 61.8250 88.6847 36.0266 0.0000 0.0000 0.0000
# 3 83.4250 36.0266 99.0240 0.0000 0.0000 0.0000
# 4 0.0000 0.0000 0.0000 13.1680 0.0000 0.0000
# 5 0.0000 0.0000 0.0000 0.0000 29.2806 0.0000
# 6 0.0000 0.0000 0.0000 0.0000 0.0000 14.9212
#
#
#
# Elastic Compliance Matrix: (Units=1/GPa)
#
#
# Indices 1 2 3 4 5 6 
#
# 1 0.014297 -0.005954 -0.009878 0.000000 0.000000 0.000000
# 2 -0.005954 0.015711 -0.000700 0.000000 0.000000 0.000000
# 3 -0.009878 -0.000700 0.018676 0.000000 0.000000 0.000000
# 4 0.000000 0.000000 0.000000 0.075942 0.000000 0.000000
# 5 0.000000 0.000000 0.000000 0.000000 0.034152 0.000000
# 6 0.000000 0.000000 0.000000 0.000000 0.000000 0.067019
#
#
# Mechanical properties :
#
#
# Convention : Reuss Voigt Hill
#
# Bulk Modulus (GPa) = 64.02610 78.17763 71.10187
# Shear Modulus (GPa) = 18.93468 22.12524 20.52996
#
# Velocity S-wave (km/s) = 3.28701 3.55317 3.42268
# Velocity P-wave (km/s) = 7.13724 7.83854 7.49610
#
# Compressibility (1/GPa) = 0.01561863
#
# Stress axis : x y z
#
# Youngs Moduli (GPa) = 69.94684 63.65059 53.54594
#
# Poissons Ratio (x) = 0.37895 0.52895
# Poissons Ratio (y) = 0.41644 0.03748
# Poissons Ratio (z) = 0.69096 0.04456
#
# Static dielectric constant tensor:
#      x y z
#    x 1.573500 0.000000 0.000000 
#    y 0.000000 1.604200 0.000000 
#    z 0.000000 0.000000 1.614520 
# 
# From -- ./inp_files/68130.got.cif
#   From: 2010.05.17/outbox.cif.g08.bks.cpg/sg63_35_cif.got.tgz:68130.got - 2010.06.03 15:47:04.
