data_PCOD9474106
_publ_section_title
;
Structure prediction by ZEFSAII (Michael W. Deem and Ramdas Pophale) SiO2 
 PCOD9474106
Probable space group: C M C M
;
_chemical_formula_sum "Si O2"
_cell_formula_units_Z 96
_cell_length_a 27.537153
_cell_length_b 11.456020
_cell_length_c 14.262465
_cell_angle_alpha 90.000000
_cell_angle_beta 90.000000
_cell_angle_gamma 90.000000
_cell_volume 4499.325287
_symmetry_space_group_name_H-M "C M C M"
_symmetry_group_IT_number 63
_symmetry_cell_setting 'orthorhombic'
loop_
_space_group_symop_operation_xyz
x,y,z
-x,-y,1/2+z
x,-y,-z
-x,y,1/2-z
-x,-y,-z
x,y,1/2-z
-x,y,z
x,-y,1/2+z
1/2+x,1/2+y,z
1/2-x,1/2-y,1/2+z
1/2+x,1/2-y,-z
1/2-x,1/2+y,1/2-z
1/2-x,1/2-y,-z
1/2+x,1/2+y,1/2-z
1/2-x,1/2+y,z
1/2+x,1/2-y,1/2+z
loop_
_atom_site_type_symbol
_atom_site_label
_atom_site_fract_x
_atom_site_fract_y
_atom_site_fract_z
Si Si1 0.443611 0.775358 0.949716
Si Si2 0.138978 0.583318 0.364531
Si Si3 0.188306 0.342699 0.137230
Si Si4 0.115571 0.950882 0.396638
Si Si5 0.404484 0.296470 0.853644
Si Si6 0.205163 0.795907 0.358778
O O1 0.500000 0.787081 0.929093
O O2 0.435328 0.754674 0.060967
O O3 0.411853 0.882209 0.910998
O O4 0.420610 0.659203 0.901437
O O5 0.134488 0.588452 0.250000
O O6 0.160219 0.458827 0.392930
O O7 0.176773 0.683695 0.397580
O O8 0.193375 0.356776 0.250000
O O9 0.151620 0.235589 0.122578
O O10 0.242463 0.325440 0.099128
O O11 0.166932 0.902162 0.361050
O O12 0.124172 0.000000 0.500000
O O13 0.092645 0.063850 0.348720
O O14 0.415358 0.247163 0.750000
O O15 0.213907 0.765675 0.250000
#
# Coordination Sequence:
#
# PCOD9474106 Si02
#       6
#    16  16  16  16  16  16
#     4  10  22  41  62  83 111 150 198 249 295 341
#     4   9  19  37  57  85 120 152 196 244 284 340
#     4   9  19  34  55  83 119 158 192 231 285 345
#     4   9  19  35  53  83 115 143 185 239 284 341
#     4  10  21  37  57  84 119 153 189 237 292 349
#     4   9  17  31  54  80 110 153 191 226 278 338
#
# _framework density 21.336531999999998
#
# number of rings (size 3 to 8) (size 9 to 14) (size 15 to 20)
#    0.000    2.667    0.000    0.500    2.333    5.000 
#    3.000    4.167    0.000    3.000    0.000    0.000 
#    0.000    0.000    0.000    0.000    0.000    0.000 
#
# Total GULP energy -267927.390828 kJ/mol
# GULP energy per Si atom -5581.820642 kJ/mol
# Density = 2.128797 g / cm^3
# Si number density = 21.336532 Si / 1000 Ang^3
#
#
#
# Elastic Constant Matrix: (Units=GPa)
#
#
# Indices 1 2 3 4 5 6 
#
# 1 171.1272 46.6495 24.7830 0.0000 0.0000 0.0000
# 2 46.6495 60.1768 16.3985 0.0000 0.0000 0.0000
# 3 24.7830 16.3985 72.3975 0.0000 0.0000 0.0000
# 4 0.0000 0.0000 0.0000 10.8845 0.0000 0.0000
# 5 0.0000 0.0000 0.0000 0.0000 72.7979 0.0000
# 6 0.0000 0.0000 0.0000 0.0000 0.0000 9.3343
#
#
#
# Elastic Compliance Matrix: (Units=1/GPa)
#
#
# Indices 1 2 3 4 5 6 
#
# 1 0.007529 -0.005472 -0.001338 0.000000 0.000000 0.000000
# 2 -0.005472 0.021688 -0.003039 0.000000 0.000000 0.000000
# 3 -0.001338 -0.003039 0.014959 0.000000 0.000000 0.000000
# 4 0.000000 0.000000 0.000000 0.091874 0.000000 0.000000
# 5 0.000000 0.000000 0.000000 0.000000 0.013737 0.000000
# 6 0.000000 0.000000 0.000000 0.000000 0.000000 0.107132
#
#
# Mechanical properties :
#
#
# Convention : Reuss Voigt Hill
#
# Bulk Modulus (GPa) = 40.85368 53.26261 47.05815
# Shear Modulus (GPa) = 17.55765 32.99469 25.27617
#
# Velocity S-wave (km/s) = 2.87172 3.93669 3.44560
# Velocity P-wave (km/s) = 5.49405 6.75875 6.15895
#
# Compressibility (1/GPa) = 0.02447760
#
# Stress axis : x y z
#
# Youngs Moduli (GPa) = 132.81926 46.10881 66.84927
#
# Poissons Ratio (x) = 0.25231 0.08944
# Poissons Ratio (y) = 0.72678 0.20317
# Poissons Ratio (z) = 0.17770 0.14014
#
# Static dielectric constant tensor:
#      x y z
#    x 1.731790 0.000000 0.000000 
#    y 0.000000 1.768090 0.000000 
#    z 0.000000 0.000000 1.878430 
# 
# From -- ./inp_files/48043.got.cif
#   From: 2010.05.17/outbox.cif.g08.bks.cpg/sg63_25_cif.got.tgz:48043.got - 2010.06.03 15:47:04.
