data_PCOD9474177
_publ_section_title
;
Structure prediction by ZEFSAII (Michael W. Deem and Ramdas Pophale) SiO2 
 PCOD9474177
Probable space group: C M C M
;
_chemical_formula_sum "Si O2"
_cell_formula_units_Z 80
_cell_length_a 9.344278
_cell_length_b 25.871357
_cell_length_c 16.878914
_cell_angle_alpha 90.000000
_cell_angle_beta 90.000000
_cell_angle_gamma 90.000000
_cell_volume 4080.463147
_symmetry_space_group_name_H-M "C M C M"
_symmetry_group_IT_number 63
_symmetry_cell_setting 'orthorhombic'
loop_
_space_group_symop_operation_xyz
x,y,z
-x,-y,1/2+z
x,-y,-z
-x,y,1/2-z
-x,-y,-z
x,y,1/2-z
-x,y,z
x,-y,1/2+z
1/2+x,1/2+y,z
1/2-x,1/2-y,1/2+z
1/2+x,1/2-y,-z
1/2-x,1/2+y,1/2-z
1/2-x,1/2-y,-z
1/2+x,1/2+y,1/2-z
1/2-x,1/2+y,z
1/2+x,1/2-y,1/2+z
loop_
_atom_site_type_symbol
_atom_site_label
_atom_site_fract_x
_atom_site_fract_y
_atom_site_fract_z
Si Si1 0.660181 0.083451 0.656237
Si Si2 0.828077 0.122695 0.156405
Si Si3 0.340672 0.677323 0.844038
Si Si4 0.171256 0.233895 0.080835
Si Si5 0.329328 0.023923 0.085846
O O1 0.651076 0.092733 0.750000
O O2 0.500000 0.090628 0.621911
O O3 0.770440 0.124980 0.622124
O O4 0.701524 0.024245 0.643567
O O5 0.787351 0.124793 0.250000
O O6 0.793117 0.176582 0.112345
O O7 0.753389 0.074714 0.112841
O O8 0.000000 0.116557 0.153292
O O9 0.355016 0.670815 0.750000
O O10 0.500000 0.686710 0.877166
O O11 0.233382 0.724134 0.858499
O O12 0.000000 0.237925 0.073673
O O13 0.250000 0.250000 0.000000
O O14 0.500000 0.034352 0.087219
O O15 0.293171 0.000000 0.000000
#
# Coordination Sequence:
#
# PCOD9474177 Si02
#       5
#    16  16  16  16  16
#     4   9  18  34  56  82 115 157 199 241 294 355
#     4  10  23  43  65  90 122 163 208 252 305 369
#     4  10  21  37  59  88 119 154 199 247 296 356
#     4  11  24  41  62  89 123 160 202 253 309 367
#     4  10  22  38  59  90 125 159 201 250 302 360
#
# _framework density 19.605616999999999
#
# number of rings (size 3 to 8) (size 9 to 14) (size 15 to 20)
#    0.000    2.000    0.000    2.400    2.800    6.000 
#    0.000    2.000    0.000    0.000    0.000    0.000 
#    0.000    0.000    0.000    0.000    0.000    0.000 
#
# Total GULP energy -223198.030313 kJ/mol
# GULP energy per Si atom -5579.950758 kJ/mol
# Density = 1.956099 g / cm^3
# Si number density = 19.605617 Si / 1000 Ang^3
#
#
#
# Elastic Constant Matrix: (Units=GPa)
#
#
# Indices 1 2 3 4 5 6 
#
# 1 88.5064 93.4736 41.8419 0.0000 0.0000 0.0000
# 2 93.4736 180.0751 54.5082 0.0000 0.0000 0.0000
# 3 41.8419 54.5082 67.6658 0.0000 0.0000 0.0000
# 4 0.0000 0.0000 0.0000 29.1748 0.0000 0.0000
# 5 0.0000 0.0000 0.0000 0.0000 25.6640 0.0000
# 6 0.0000 0.0000 0.0000 0.0000 0.0000 37.3635
#
#
#
# Elastic Compliance Matrix: (Units=1/GPa)
#
#
# Indices 1 2 3 4 5 6 
#
# 1 0.027473 -0.012059 -0.007274 0.000000 0.000000 0.000000
# 2 -0.012059 0.012637 -0.002723 0.000000 0.000000 0.000000
# 3 -0.007274 -0.002723 0.021470 0.000000 0.000000 0.000000
# 4 0.000000 0.000000 0.000000 0.034276 0.000000 0.000000
# 5 0.000000 0.000000 0.000000 0.000000 0.038965 0.000000
# 6 0.000000 0.000000 0.000000 0.000000 0.000000 0.026764
#
#
# Mechanical properties :
#
#
# Convention : Reuss Voigt Hill
#
# Bulk Modulus (GPa) = 57.24754 79.54384 68.39569
# Shear Modulus (GPa) = 23.63832 28.20206 25.92019
#
# Velocity S-wave (km/s) = 3.47607 3.79683 3.63999
# Velocity P-wave (km/s) = 6.73600 7.73830 7.25448
#
# Compressibility (1/GPa) = 0.01746800
#
# Stress axis : x y z
#
# Youngs Moduli (GPa) = 36.39898 79.13234 46.57624
#
# Poissons Ratio (x) = 0.95425 0.33881
# Poissons Ratio (y) = 0.43893 0.12683
# Poissons Ratio (z) = 0.26478 0.21548
#
# Static dielectric constant tensor:
#      x y z
#    x 1.695160 0.000000 0.000000 
#    y 0.000000 1.667180 0.000000 
#    z 0.000000 0.000000 1.765030 
# 
# From -- ./inp_files/40531.got.cif
#   From: 2010.05.17/outbox.cif.g08.bks.cpg/sg63_21_cif.got.tgz:40531.got - 2010.06.03 15:47:04.
