data_PCOD9474731
_publ_section_title
;
Structure prediction by ZEFSAII (Michael W. Deem and Ramdas Pophale) SiO2 
 PCOD9474731
Probable space group: C M C M
;
_chemical_formula_sum "Si O2"
_cell_formula_units_Z 64
_cell_length_a 13.337766
_cell_length_b 14.015279
_cell_length_c 15.518255
_cell_angle_alpha 90.000000
_cell_angle_beta 90.000000
_cell_angle_gamma 90.000000
_cell_volume 2900.866385
_symmetry_space_group_name_H-M "C M C M"
_symmetry_group_IT_number 63
_symmetry_cell_setting 'orthorhombic'
loop_
_space_group_symop_operation_xyz
x,y,z
-x,-y,1/2+z
x,-y,-z
-x,y,1/2-z
-x,-y,-z
x,y,1/2-z
-x,y,z
x,-y,1/2+z
1/2+x,1/2+y,z
1/2-x,1/2-y,1/2+z
1/2+x,1/2-y,-z
1/2-x,1/2+y,1/2-z
1/2-x,1/2-y,-z
1/2+x,1/2+y,1/2-z
1/2-x,1/2+y,z
1/2+x,1/2-y,1/2+z
loop_
_atom_site_type_symbol
_atom_site_label
_atom_site_fract_x
_atom_site_fract_y
_atom_site_fract_z
Si Si1 0.609687 0.513113 0.103692
Si Si2 0.687127 0.110346 0.157673
Si Si3 0.683563 0.681774 0.602106
Si Si4 0.888418 0.659653 0.982924
O O1 0.500000 0.553036 0.122720
O O2 0.701995 0.571668 0.140265
O O3 0.619857 0.404818 0.137128
O O4 0.620011 0.500000 0.000000
O O5 0.648680 0.074946 0.250000
O O6 0.693370 0.225274 0.159777
O O7 0.623551 0.096113 0.070112
O O8 0.793239 0.641556 0.577363
O O9 0.632168 0.731145 0.517418
O O10 0.000000 0.651139 0.947984
#
# Coordination Sequence:
#
# PCOD9474731 Si02
#       4
#    16  16  16  16
#     4  11  20  36  63  88 115 155 201 246 294 351
#     4  10  22  37  53  86 126 151 191 249 302 350
#     4   9  19  36  57  86 115 154 198 243 292 345
#     4   9  17  35  59  80 110 155 197 230 286 352
#
# _framework density 22.062374999999999
#
# number of rings (size 3 to 8) (size 9 to 14) (size 15 to 20)
#    1.500    0.750    2.500    0.750    0.000    5.000 
#    0.000    2.500    0.000    0.000    0.000    3.500 
#    0.000    0.000    0.000    0.000    0.000    0.000 
#
# Total GULP energy -178265.925302 kJ/mol
# GULP energy per Si atom -5570.810166 kJ/mol
# Density = 2.201216 g / cm^3
# Si number density = 22.062375 Si / 1000 Ang^3
#
#
#
# Elastic Constant Matrix: (Units=GPa)
#
#
# Indices 1 2 3 4 5 6 
#
# 1 109.8832 -2.7481 -3.7415 0.0000 0.0000 0.0000
# 2 -2.7481 58.9504 -12.1218 0.0000 0.0000 0.0000
# 3 -3.7415 -12.1218 45.9584 0.0000 0.0000 0.0000
# 4 0.0000 0.0000 0.0000 -18.6286 0.0000 0.0000
# 5 0.0000 0.0000 0.0000 0.0000 2.3280 0.0000
# 6 0.0000 0.0000 0.0000 0.0000 0.0000 21.4351
#
#
#
# Elastic Compliance Matrix: (Units=1/GPa)
#
#
# Indices 1 2 3 4 5 6 
#
# 1 0.009147 0.000613 0.000906 0.000000 0.000000 0.000000
# 2 0.000613 0.017977 0.004791 0.000000 0.000000 0.000000
# 3 0.000906 0.004791 0.023096 0.000000 0.000000 0.000000
# 4 0.000000 0.000000 0.000000 -0.053681 0.000000 0.000000
# 5 0.000000 0.000000 0.000000 0.000000 0.429561 0.000000
# 6 0.000000 0.000000 0.000000 0.000000 0.000000 0.046653
#
#
# Mechanical properties :
#
#
# Convention : Reuss Voigt Hill
#
# Bulk Modulus (GPa) = 15.91312 19.72993 17.82152
# Shear Modulus (GPa) = 10.39329 16.58712 13.49020
#
# Velocity S-wave (km/s) = 2.17281 2.74492 2.47545
# Velocity P-wave (km/s) = 3.67740 4.35986 4.03309
#
# Compressibility (1/GPa) = 0.06284125
#
# Stress axis : x y z
#
# Youngs Moduli (GPa) = 109.32837 55.62596 43.29691
#
# Poissons Ratio (x) = -0.03408 -0.03924
# Poissons Ratio (y) = -0.06699 -0.20746
# Poissons Ratio (z) = -0.09908 -0.26653
#
# Static dielectric constant tensor:
#      x y z
#    x 1.754180 0.000000 0.000000 
#    y 0.000000 1.857800 0.000000 
#    z 0.000000 0.000000 1.435910 
# 
# From -- ./inp_files/41487.got.cif
#   From: 2010.05.17/outbox.cif.g08.bks.cpg/sg63_21_cif.got.tgz:41487.got - 2010.06.03 15:47:04.
