data_PCOD9474114
_publ_section_title
;
Structure prediction by ZEFSAII (Michael W. Deem and Ramdas Pophale) SiO2 
 PCOD9474114
Probable space group: C M C M
;
_chemical_formula_sum "Si O2"
_cell_formula_units_Z 112
_cell_length_a 24.381627
_cell_length_b 14.880421
_cell_length_c 15.450812
_cell_angle_alpha 90.000000
_cell_angle_beta 90.000000
_cell_angle_gamma 90.000000
_cell_volume 5605.691711
_symmetry_space_group_name_H-M "C M C M"
_symmetry_group_IT_number 63
_symmetry_cell_setting 'orthorhombic'
loop_
_space_group_symop_operation_xyz
x,y,z
-x,-y,1/2+z
x,-y,-z
-x,y,1/2-z
-x,-y,-z
x,y,1/2-z
-x,y,z
x,-y,1/2+z
1/2+x,1/2+y,z
1/2-x,1/2-y,1/2+z
1/2+x,1/2-y,-z
1/2-x,1/2+y,1/2-z
1/2-x,1/2-y,-z
1/2+x,1/2+y,1/2-z
1/2-x,1/2+y,z
1/2+x,1/2-y,1/2+z
loop_
_atom_site_type_symbol
_atom_site_label
_atom_site_fract_x
_atom_site_fract_y
_atom_site_fract_z
Si Si1 0.726585 0.075377 0.848884
Si Si2 0.180664 0.950728 0.647904
Si Si3 0.559052 0.423509 0.572965
Si Si4 0.591414 0.774056 0.025311
Si Si5 0.935075 0.362770 0.847372
Si Si6 0.285240 0.262597 0.914673
Si Si7 0.898095 0.433655 0.353196
O O1 0.723737 0.043397 0.750000
O O2 0.732038 0.182381 0.851923
O O3 0.665546 0.055237 0.884319
O O4 0.780466 0.029866 0.889565
O O5 0.176029 0.963034 0.750000
O O6 0.117996 0.941205 0.617011
O O7 0.214396 0.860362 0.626613
O O8 0.557209 0.500000 0.500000
O O9 0.500000 0.431095 0.621602
O O10 0.561478 0.321239 0.537132
O O11 0.652620 0.754391 0.056748
O O12 0.573869 0.856219 0.088886
O O13 0.590100 0.808081 0.926869
O O14 0.914299 0.341093 0.750000
O O15 0.925470 0.469135 0.861085
O O16 0.000000 0.345467 0.848926
O O17 0.250000 0.250000 0.000000
O O18 0.897847 0.408663 0.250000
#
# Coordination Sequence:
#
# PCOD9474114 Si02
#       7
#    16  16  16  16  16  16  16
#     4   9  19  36  57  82 118 155 187 232 290 350
#     4  10  22  39  62  88 119 157 198 245 297 358
#     4  10  23  42  62  84 115 153 203 264 312 350
#     4  10  21  37  60  87 115 157 200 243 300 356
#     4  10  21  37  57  85 121 157 196 240 287 352
#     4  10  22  35  56  88 118 150 192 239 289 355
#     4   9  19  36  58  89 126 157 189 235 293 360
#
# _framework density 19.979693000000001
#
# number of rings (size 3 to 8) (size 9 to 14) (size 15 to 20)
#    0.000    2.286    0.000    1.286    6.000    5.429 
#    0.000    1.429    0.000    0.857    0.000    0.000 
#    0.000    0.000    0.000    0.000    0.000    0.000 
#
# Total GULP energy -311954.649519 kJ/mol
# GULP energy per Si atom -5570.618741 kJ/mol
# Density = 1.993422 g / cm^3
# Si number density = 19.979693 Si / 1000 Ang^3
#
#
#
# Elastic Constant Matrix: (Units=GPa)
#
#
# Indices 1 2 3 4 5 6 
#
# 1 62.6637 54.1035 14.3961 0.0000 0.0000 0.0000
# 2 54.1035 94.4597 32.2493 0.0000 0.0000 0.0000
# 3 14.3961 32.2493 68.5879 0.0000 0.0000 0.0000
# 4 0.0000 0.0000 0.0000 25.3718 0.0000 0.0000
# 5 0.0000 0.0000 0.0000 0.0000 14.3063 0.0000
# 6 0.0000 0.0000 0.0000 0.0000 0.0000 -21.6551
#
#
#
# Elastic Compliance Matrix: (Units=1/GPa)
#
#
# Indices 1 2 3 4 5 6 
#
# 1 0.031861 -0.019019 0.002255 0.000000 0.000000 0.000000
# 2 -0.019019 0.023964 -0.007276 0.000000 0.000000 0.000000
# 3 0.002255 -0.007276 0.017527 0.000000 0.000000 0.000000
# 4 0.000000 0.000000 0.000000 0.039414 0.000000 0.000000
# 5 0.000000 0.000000 0.000000 0.000000 0.069899 0.000000
# 6 0.000000 0.000000 0.000000 0.000000 0.000000 -0.046179
#
#
# Mechanical properties :
#
#
# Convention : Reuss Voigt Hill
#
# Bulk Modulus (GPa) = 39.56725 47.46767 43.51746
# Shear Modulus (GPa) = 25.90810 11.93543 18.92176
#
# Velocity S-wave (km/s) = 3.60491 2.44678 3.08076
# Velocity P-wave (km/s) = 6.09704 5.63843 5.87221
#
# Compressibility (1/GPa) = 0.02527343
#
# Stress axis : x y z
#
# Youngs Moduli (GPa) = 31.38644 41.72954 57.05346
#
# Poissons Ratio (x) = 0.79365 -0.12866
# Poissons Ratio (y) = 0.59693 0.41510
# Poissons Ratio (z) = -0.07078 0.30361
#
# Static dielectric constant tensor:
#      x y z
#    x 1.717660 0.000000 0.000000 
#    y 0.000000 1.713140 0.000000 
#    z 0.000000 0.000000 1.715790 
# 
# From -- ./inp_files/36942.got.cif
#   From: 2010.05.17/outbox.cif.g08.bks.cpg/sg63_19_cif.got.tgz:36942.got - 2010.06.03 15:47:04.
