data_PCOD9474004
_publ_section_title
;
Structure prediction by ZEFSAII (Michael W. Deem and Ramdas Pophale) SiO2 
 PCOD9474004
Probable space group: C M C M
;
_chemical_formula_sum "Si O2"
_cell_formula_units_Z 72
_cell_length_a 10.609999
_cell_length_b 14.573553
_cell_length_c 23.488573
_cell_angle_alpha 90.000000
_cell_angle_beta 90.000000
_cell_angle_gamma 90.000000
_cell_volume 3631.929591
_symmetry_space_group_name_H-M "C M C M"
_symmetry_group_IT_number 63
_symmetry_cell_setting 'orthorhombic'
loop_
_space_group_symop_operation_xyz
x,y,z
-x,-y,1/2+z
x,-y,-z
-x,y,1/2-z
-x,-y,-z
x,y,1/2-z
-x,y,z
x,-y,1/2+z
1/2+x,1/2+y,z
1/2-x,1/2-y,1/2+z
1/2+x,1/2-y,-z
1/2-x,1/2+y,1/2-z
1/2-x,1/2-y,-z
1/2+x,1/2+y,1/2-z
1/2-x,1/2+y,z
1/2+x,1/2-y,1/2+z
loop_
_atom_site_type_symbol
_atom_site_label
_atom_site_fract_x
_atom_site_fract_y
_atom_site_fract_z
Si Si1 0.641217 0.360886 0.908092
Si Si2 0.715649 0.500000 0.500000
Si Si3 0.850983 0.661496 0.933704
Si Si4 0.147342 0.614069 0.688988
Si Si5 0.355331 0.107500 0.315376
O O1 0.500000 0.352479 0.883042
O O2 0.661876 0.269368 0.946092
O O3 0.749393 0.364069 0.860389
O O4 0.645331 0.450559 0.947884
O O5 0.794115 0.584087 0.526409
O O6 0.796830 0.650345 0.869577
O O7 0.000000 0.641740 0.931599
O O8 0.204381 0.641405 0.750000
O O9 0.148058 0.503682 0.685574
O O10 0.000000 0.642250 0.690117
O O11 0.331624 0.137564 0.250000
O O12 0.500000 0.133692 0.330936
#
# Coordination Sequence:
#
# PCOD9474004 Si02
#       5
#    16   8  16  16  16
#     4  11  24  39  58  89 124 157 196 245 304 357
#     4  12  22  40  58  78 119 168 203 246 297 350
#     4  10  21  36  59  90 114 150 207 252 291 347
#     4   8  14  29  55  84 111 140 183 240 292 339
#     4   9  18  36  63  91 118 152 194 240 294 356
#
# _framework density 19.824172999999998
#
# number of rings (size 3 to 8) (size 9 to 14) (size 15 to 20)
#    0.000    2.222    2.222    2.667    0.000    2.222 
#    0.000    4.444    0.000    0.000    0.000    0.000 
#    0.000    0.000    0.000    0.000    0.000    0.000 
#
# Total GULP energy -200508.935142 kJ/mol
# GULP energy per Si atom -5569.692643 kJ/mol
# Density = 1.977905 g / cm^3
# Si number density = 19.824173 Si / 1000 Ang^3
#
#
#
# Elastic Constant Matrix: (Units=GPa)
#
#
# Indices 1 2 3 4 5 6 
#
# 1 110.0631 38.4372 61.7299 0.0000 0.0000 0.0000
# 2 38.4372 86.0584 25.8568 0.0000 0.0000 0.0000
# 3 61.7299 25.8568 82.5243 0.0000 0.0000 0.0000
# 4 0.0000 0.0000 0.0000 19.7132 0.0000 0.0000
# 5 0.0000 0.0000 0.0000 0.0000 3.2065 0.0000
# 6 0.0000 0.0000 0.0000 0.0000 0.0000 19.6401
#
#
#
# Elastic Compliance Matrix: (Units=1/GPa)
#
#
# Indices 1 2 3 4 5 6 
#
# 1 0.016889 -0.004137 -0.011337 0.000000 0.000000 0.000000
# 2 -0.004137 0.013841 -0.001242 0.000000 0.000000 0.000000
# 3 -0.011337 -0.001242 0.020987 0.000000 0.000000 0.000000
# 4 0.000000 0.000000 0.000000 0.050728 0.000000 0.000000
# 5 0.000000 0.000000 0.000000 0.000000 0.311863 0.000000
# 6 0.000000 0.000000 0.000000 0.000000 0.000000 0.050916
#
#
# Mechanical properties :
#
#
# Convention : Reuss Voigt Hill
#
# Bulk Modulus (GPa) = 54.69049 58.96594 56.82821
# Shear Modulus (GPa) = 9.90587 18.68676 14.29631
#
# Velocity S-wave (km/s) = 2.23779 3.07355 2.68835
# Velocity P-wave (km/s) = 5.85872 6.51189 6.19392
#
# Compressibility (1/GPa) = 0.01828471
#
# Stress axis : x y z
#
# Youngs Moduli (GPa) = 59.21032 72.24920 47.64808
#
# Poissons Ratio (x) = 0.29889 0.54019
# Poissons Ratio (y) = 0.24495 0.05919
# Poissons Ratio (z) = 0.67127 0.08974
#
# Static dielectric constant tensor:
#      x y z
#    x 1.674440 0.000000 0.000000 
#    y 0.000000 1.702270 0.000000 
#    z 0.000000 0.000000 1.768610 
# 
# From -- ./inp_files/60978.got.cif
#   From: 2010.05.17/outbox.cif.g08.bks.cpg/sg63_31_cif.got.tgz:60978.got - 2010.06.03 15:47:04.
