data_PCOD9474008
_publ_section_title
;
Structure prediction by ZEFSAII (Michael W. Deem and Ramdas Pophale) SiO2 
 PCOD9474008
Probable space group: C M C M
;
_chemical_formula_sum "Si O2"
_cell_formula_units_Z 120
_cell_length_a 24.068032
_cell_length_b 11.305514
_cell_length_c 21.973613
_cell_angle_alpha 90.000000
_cell_angle_beta 90.000000
_cell_angle_gamma 90.000000
_cell_volume 5979.052458
_symmetry_space_group_name_H-M "C M C M"
_symmetry_group_IT_number 63
_symmetry_cell_setting 'orthorhombic'
loop_
_space_group_symop_operation_xyz
x,y,z
-x,-y,1/2+z
x,-y,-z
-x,y,1/2-z
-x,-y,-z
x,y,1/2-z
-x,y,z
x,-y,1/2+z
1/2+x,1/2+y,z
1/2-x,1/2-y,1/2+z
1/2+x,1/2-y,-z
1/2-x,1/2+y,1/2-z
1/2-x,1/2-y,-z
1/2+x,1/2+y,1/2-z
1/2-x,1/2+y,z
1/2+x,1/2-y,1/2+z
loop_
_atom_site_type_symbol
_atom_site_label
_atom_site_fract_x
_atom_site_fract_y
_atom_site_fract_z
Si Si1 0.779320 0.886820 0.314385
Si Si2 0.126809 0.300843 0.821650
Si Si3 0.937502 0.155151 0.179805
Si Si4 0.169323 0.300591 0.352624
Si Si5 0.934805 0.090798 0.610384
Si Si6 0.277825 0.582283 0.414444
Si Si7 0.847925 0.521105 0.067987
Si Si8 0.133173 0.000000 0.000000
O O1 0.798153 0.942669 0.250000
O O2 0.813263 0.764812 0.319701
O O3 0.712919 0.872476 0.311939
O O4 0.789892 0.967436 0.372755
O O5 0.114924 0.335588 0.750000
O O6 0.087487 0.194972 0.846271
O O7 0.126572 0.400256 0.875619
O O8 0.938549 0.119657 0.250000
O O9 0.888024 0.248358 0.171812
O O10 0.000000 0.199363 0.163955
O O11 0.926307 0.037211 0.141570
O O12 0.208146 0.193899 0.374003
O O13 0.155816 0.389124 0.406589
O O14 0.903304 0.076501 0.546444
O O15 0.000000 0.107929 0.600354
O O16 0.214981 0.573239 0.438047
O O17 0.324077 0.585894 0.466116
O O18 0.872302 0.500000 0.000000
#
# Coordination Sequence:
#
# PCOD9474008 Si02
#       8
#    16  16  16  16  16  16  16   8
#     4  10  21  36  59  92 127 165 208 259 321 384
#     4  11  23  42  63  90 130 170 217 275 330 393
#     4  10  21  39  64  94 122 154 205 262 318 379
#     4  11  22  39  60  92 127 171 205 262 317 387
#     4  11  24  41  67  97 126 166 213 269 329 389
#     4  11  22  37  61  94 127 169 206 258 320 389
#     4  11  26  40  62  95 129 172 220 265 319 400
#     4  12  21  38  62  98 132 166 211 264 320 386
#
# _framework density 20.070070000000001
#
# number of rings (size 3 to 8) (size 9 to 14) (size 15 to 20)
#    0.000    1.200    4.667    1.000    1.867    6.133 
#    0.000    0.667    0.000    0.800    0.000    0.000 
#    0.000    0.000    0.000    0.000    0.000    0.000 
#
# Total GULP energy -334354.339881 kJ/mol
# GULP energy per Si atom -5572.572331 kJ/mol
# Density = 2.002439 g / cm^3
# Si number density = 20.070070 Si / 1000 Ang^3
#
#
#
# Elastic Constant Matrix: (Units=GPa)
#
#
# Indices 1 2 3 4 5 6 
#
# 1 104.7747 14.5517 33.7988 0.0000 0.0000 0.0000
# 2 14.5517 39.1674 25.3148 0.0000 0.0000 0.0000
# 3 33.7988 25.3148 126.1710 0.0000 0.0000 0.0000
# 4 0.0000 0.0000 0.0000 0.5514 0.0000 0.0000
# 5 0.0000 0.0000 0.0000 0.0000 24.4830 0.0000
# 6 0.0000 0.0000 0.0000 0.0000 0.0000 40.6980
#
#
#
# Elastic Compliance Matrix: (Units=1/GPa)
#
#
# Indices 1 2 3 4 5 6 
#
# 1 0.010644 -0.002426 -0.002365 0.000000 0.000000 0.000000
# 2 -0.002426 0.029889 -0.005347 0.000000 0.000000 0.000000
# 3 -0.002365 -0.005347 0.009632 0.000000 0.000000 0.000000
# 4 0.000000 0.000000 0.000000 1.813515 0.000000 0.000000
# 5 0.000000 0.000000 0.000000 0.000000 0.040845 0.000000
# 6 0.000000 0.000000 0.000000 0.000000 0.000000 0.024571
#
#
# Mechanical properties :
#
#
# Convention : Reuss Voigt Hill
#
# Bulk Modulus (GPa) = 33.45678 46.38263 39.91970
# Shear Modulus (GPa) = 2.55189 26.24298 14.39744
#
# Velocity S-wave (km/s) = 1.12883 3.61995 2.68126
# Velocity P-wave (km/s) = 4.29013 6.37437 5.43313
#
# Compressibility (1/GPa) = 0.02988931
#
# Stress axis : x y z
#
# Youngs Moduli (GPa) = 93.94937 33.45745 103.82116
#
# Poissons Ratio (x) = 0.08118 0.24549
# Poissons Ratio (y) = 0.22795 0.55512
# Poissons Ratio (z) = 0.22215 0.17889
#
# Static dielectric constant tensor:
#      x y z
#    x 1.719740 0.000000 0.000000 
#    y 0.000000 1.764730 0.000000 
#    z 0.000000 0.000000 1.869130 
# 
# From -- ./inp_files/57701.got.cif
#   From: 2010.05.17/outbox.cif.g08.bks.cpg/sg63_29_cif.got.tgz:57701.got - 2010.06.03 15:47:04.
