data_PCOD9474738
_publ_section_title
;
Structure prediction by ZEFSAII (Michael W. Deem and Ramdas Pophale) SiO2 
 PCOD9474738
Probable space group: C M C M
;
_chemical_formula_sum "Si O2"
_cell_formula_units_Z 116
_cell_length_a 24.221703
_cell_length_b 14.612682
_cell_length_c 17.671293
_cell_angle_alpha 90.000000
_cell_angle_beta 90.000000
_cell_angle_gamma 90.000000
_cell_volume 6254.648897
_symmetry_space_group_name_H-M "C M C M"
_symmetry_group_IT_number 63
_symmetry_cell_setting 'orthorhombic'
loop_
_space_group_symop_operation_xyz
x,y,z
-x,-y,1/2+z
x,-y,-z
-x,y,1/2-z
-x,-y,-z
x,y,1/2-z
-x,y,z
x,-y,1/2+z
1/2+x,1/2+y,z
1/2-x,1/2-y,1/2+z
1/2+x,1/2-y,-z
1/2-x,1/2+y,1/2-z
1/2-x,1/2-y,-z
1/2+x,1/2+y,1/2-z
1/2-x,1/2+y,z
1/2+x,1/2-y,1/2+z
loop_
_atom_site_type_symbol
_atom_site_label
_atom_site_fract_x
_atom_site_fract_y
_atom_site_fract_z
Si Si1 0.500000 0.739423 0.250000
Si Si2 0.717818 0.276646 0.336397
Si Si3 0.684026 0.884170 0.416433
Si Si4 0.398296 0.732751 0.127502
Si Si5 0.105336 0.891630 0.165956
Si Si6 0.285888 0.918726 0.590804
Si Si7 0.324395 0.430125 0.667017
Si Si8 0.063501 0.897150 0.005651
O O1 0.450786 0.738120 0.183028
O O2 0.736870 0.279392 0.250000
O O3 0.764015 0.325904 0.386379
O O4 0.660966 0.332512 0.341268
O O5 0.706757 0.172787 0.360905
O O6 0.629139 0.829273 0.394248
O O7 0.694583 0.895629 0.506154
O O8 0.684815 0.987452 0.384341
O O9 0.350923 0.669625 0.164694
O O10 0.410452 0.676709 0.050146
O O11 0.081261 0.877061 0.250000
O O12 0.068463 0.871086 0.093604
O O13 0.126448 0.996512 0.161949
O O14 0.220588 0.940438 0.601295
O O15 0.297740 0.446297 0.750000
O O16 0.000000 0.904224 0.982004
O O17 0.087907 0.000000 0.000000
#
# Coordination Sequence:
#
# PCOD9474738 Si02
#       8
#     4  16  16  16  16  16  16  16
#     4  12  28  48  66  94 130 170 232 296 334 394
#     4  11  22  36  56  89 128 164 200 250 310 393
#     4  11  25  38  63  93 127 173 217 259 324 403
#     4  12  24  43  65  92 128 171 224 278 337 390
#     4  10  22  37  56  88 129 174 208 251 323 397
#     4  11  23  39  59  95 131 167 213 260 314 394
#     4  11  21  35  59  92 134 173 204 254 322 391
#     4  11  23  38  58  89 119 162 217 275 329 385
#
# _framework density 18.546205
#
# number of rings (size 3 to 8) (size 9 to 14) (size 15 to 20)
#    0.000    0.966    5.517    1.655    2.897    0.828 
#    0.000    0.000    0.000    1.655    1.793    0.000 
#    0.000    0.000    0.000    0.000    0.000    0.000 
#
# Total GULP energy -323109.157260 kJ/mol
# GULP energy per Si atom -5570.847539 kJ/mol
# Density = 1.850399 g / cm^3
# Si number density = 18.546205 Si / 1000 Ang^3
#
#
#
# Elastic Constant Matrix: (Units=GPa)
#
#
# Indices 1 2 3 4 5 6 
#
# 1 47.7745 33.2219 29.1574 0.0000 0.0000 0.0000
# 2 33.2219 125.8778 33.5655 0.0000 0.0000 0.0000
# 3 29.1574 33.5655 96.7664 0.0000 0.0000 0.0000
# 4 0.0000 0.0000 0.0000 18.6032 0.0000 0.0000
# 5 0.0000 0.0000 0.0000 0.0000 34.4931 0.0000
# 6 0.0000 0.0000 0.0000 0.0000 0.0000 15.2420
#
#
#
# Elastic Compliance Matrix: (Units=1/GPa)
#
#
# Indices 1 2 3 4 5 6 
#
# 1 0.029142 -0.005895 -0.006736 0.000000 0.000000 0.000000
# 2 -0.005895 0.009946 -0.001674 0.000000 0.000000 0.000000
# 3 -0.006736 -0.001674 0.012945 0.000000 0.000000 0.000000
# 4 0.000000 0.000000 0.000000 0.053754 0.000000 0.000000
# 5 0.000000 0.000000 0.000000 0.000000 0.028991 0.000000
# 6 0.000000 0.000000 0.000000 0.000000 0.000000 0.065608
#
#
# Mechanical properties :
#
#
# Convention : Reuss Voigt Hill
#
# Bulk Modulus (GPa) = 42.69329 51.36758 47.03044
# Shear Modulus (GPa) = 21.11445 25.29926 23.20685
#
# Velocity S-wave (km/s) = 3.37779 3.69741 3.54121
# Velocity P-wave (km/s) = 6.18729 6.78122 6.49105
#
# Compressibility (1/GPa) = 0.02342288
#
# Stress axis : x y z
#
# Youngs Moduli (GPa) = 34.31449 100.53914 77.25281
#
# Poissons Ratio (x) = 0.59268 0.52039
# Poissons Ratio (y) = 0.20229 0.12931
# Poissons Ratio (z) = 0.23115 0.16829
#
# Static dielectric constant tensor:
#      x y z
#    x 1.629070 0.000000 0.000000 
#    y 0.000000 1.655660 0.000000 
#    z 0.000000 0.000000 1.673140 
# 
# From -- ./inp_files/48262.got.cif
#   From: 2010.05.17/outbox.cif.g08.bks.cpg/sg63_25_cif.got.tgz:48262.got - 2010.06.03 15:47:04.
