data_PCOD9474133
_publ_section_title
;
Structure prediction by ZEFSAII (Michael W. Deem and Ramdas Pophale) SiO2 
 PCOD9474133
Probable space group: C M C M
;
_chemical_formula_sum "Si O2"
_cell_formula_units_Z 80
_cell_length_a 13.423309
_cell_length_b 14.080844
_cell_length_c 23.822756
_cell_angle_alpha 90.000000
_cell_angle_beta 90.000000
_cell_angle_gamma 90.000000
_cell_volume 4502.775322
_symmetry_space_group_name_H-M "C M C M"
_symmetry_group_IT_number 63
_symmetry_cell_setting 'orthorhombic'
loop_
_space_group_symop_operation_xyz
x,y,z
-x,-y,1/2+z
x,-y,-z
-x,y,1/2-z
-x,-y,-z
x,y,1/2-z
-x,y,z
x,-y,1/2+z
1/2+x,1/2+y,z
1/2-x,1/2-y,1/2+z
1/2+x,1/2-y,-z
1/2-x,1/2+y,1/2-z
1/2-x,1/2-y,-z
1/2+x,1/2+y,1/2-z
1/2-x,1/2+y,z
1/2+x,1/2-y,1/2+z
loop_
_atom_site_type_symbol
_atom_site_label
_atom_site_fract_x
_atom_site_fract_y
_atom_site_fract_z
Si Si1 0.283925 0.092795 0.131955
Si Si2 0.114374 0.451755 0.444049
Si Si3 0.237337 0.786638 0.436062
Si Si4 0.884219 0.140111 0.750000
Si Si5 0.381187 0.563459 0.628674
Si Si6 0.381505 0.132361 0.250000
O O1 0.271215 0.195386 0.103693
O O2 0.320091 0.100385 0.195603
O O3 0.370378 0.032726 0.101689
O O4 0.183697 0.031661 0.121431
O O5 0.160020 0.500000 0.500000
O O6 0.169177 0.356108 0.426293
O O7 0.000000 0.430435 0.455276
O O8 0.250000 0.750000 0.500000
O O9 0.147453 0.857985 0.418452
O O10 0.846209 0.102517 0.690088
O O11 0.879782 0.253261 0.750000
O O12 0.000000 0.111482 0.750000
O O13 0.500000 0.548228 0.628414
O O14 0.500000 0.104561 0.250000
#
# Coordination Sequence:
#
# PCOD9474133 Si02
#       6
#    16  16  16   8  16   8
#     4  11  22  38  61  86 120 153 197 244 299 349
#     4  10  21  37  58  83 114 154 196 242 298 355
#     4  11  22  37  56  84 118 152 199 249 294 350
#     4   9  17  34  58  86 110 142 194 239 281 349
#     4  10  22  38  60  87 120 158 198 243 300 360
#     4  11  21  36  63  94 116 152 201 247 296 355
#
# _framework density 17.766821
#
# number of rings (size 3 to 8) (size 9 to 14) (size 15 to 20)
#    0.000    1.600    4.000    1.200    0.000    2.400 
#    0.000    1.000    0.000    0.000    0.000    0.000 
#    0.000    0.000    0.000    0.000    0.000    0.000 
#
# Total GULP energy -222818.819110 kJ/mol
# GULP energy per Si atom -5570.470478 kJ/mol
# Density = 1.772638 g / cm^3
# Si number density = 17.766821 Si / 1000 Ang^3
#
#
#
# Elastic Constant Matrix: (Units=GPa)
#
#
# Indices 1 2 3 4 5 6 
#
# 1 76.9085 37.9448 12.0361 0.0000 0.0000 0.0000
# 2 37.9448 111.8680 31.6017 0.0000 0.0000 0.0000
# 3 12.0361 31.6017 108.3602 0.0000 0.0000 0.0000
# 4 0.0000 0.0000 0.0000 13.4860 0.0000 0.0000
# 5 0.0000 0.0000 0.0000 0.0000 22.0346 0.0000
# 6 0.0000 0.0000 0.0000 0.0000 0.0000 8.3986
#
#
#
# Elastic Compliance Matrix: (Units=1/GPa)
#
#
# Indices 1 2 3 4 5 6 
#
# 1 0.015620 -0.005240 -0.000207 0.000000 0.000000 0.000000
# 2 -0.005240 0.011499 -0.002772 0.000000 0.000000 0.000000
# 3 -0.000207 -0.002772 0.010060 0.000000 0.000000 0.000000
# 4 0.000000 0.000000 0.000000 0.074151 0.000000 0.000000
# 5 0.000000 0.000000 0.000000 0.000000 0.045383 0.000000
# 6 0.000000 0.000000 0.000000 0.000000 0.000000 0.119068
#
#
# Mechanical properties :
#
#
# Convention : Reuss Voigt Hill
#
# Bulk Modulus (GPa) = 48.20995 51.14465 49.67730
# Shear Modulus (GPa) = 16.71504 23.15411 19.93458
#
# Velocity S-wave (km/s) = 3.07058 3.61393 3.35328
# Velocity P-wave (km/s) = 6.30595 6.80170 6.55851
#
# Compressibility (1/GPa) = 0.02074261
#
# Stress axis : x y z
#
# Youngs Moduli (GPa) = 64.02044 86.96155 99.40599
#
# Poissons Ratio (x) = 0.45566 0.02057
# Poissons Ratio (y) = 0.33545 0.27551
# Poissons Ratio (z) = 0.01325 0.24102
#
# Static dielectric constant tensor:
#      x y z
#    x 1.599610 0.000000 0.000000 
#    y 0.000000 1.586060 0.000000 
#    z 0.000000 0.000000 1.658520 
# 
# From -- ./inp_files/62587.got.cif
#   From: 2010.05.17/outbox.cif.g08.bks.cpg/sg63_32_cif.got.tgz:62587.got - 2010.06.03 15:47:04.
