data_PCOD9474747
_publ_section_title
;
Structure prediction by ZEFSAII (Michael W. Deem and Ramdas Pophale) SiO2 
 PCOD9474747
Probable space group: C M C M
;
_chemical_formula_sum "Si O2"
_cell_formula_units_Z 60
_cell_length_a 15.041423
_cell_length_b 23.029150
_cell_length_c 9.130593
_cell_angle_alpha 90.000000
_cell_angle_beta 90.000000
_cell_angle_gamma 90.000000
_cell_volume 3162.756943
_symmetry_space_group_name_H-M "C M C M"
_symmetry_group_IT_number 63
_symmetry_cell_setting 'orthorhombic'
loop_
_space_group_symop_operation_xyz
x,y,z
-x,-y,1/2+z
x,-y,-z
-x,y,1/2-z
-x,-y,-z
x,y,1/2-z
-x,y,z
x,-y,1/2+z
1/2+x,1/2+y,z
1/2-x,1/2-y,1/2+z
1/2+x,1/2-y,-z
1/2-x,1/2+y,1/2-z
1/2-x,1/2-y,-z
1/2+x,1/2+y,1/2-z
1/2-x,1/2+y,z
1/2+x,1/2-y,1/2+z
loop_
_atom_site_type_symbol
_atom_site_label
_atom_site_fract_x
_atom_site_fract_y
_atom_site_fract_z
Si Si1 0.000000 0.468484 0.250000
Si Si2 0.395262 0.203913 0.576388
Si Si3 0.761592 0.615600 0.420099
Si Si4 0.140800 0.500000 0.000000
Si Si5 0.603804 0.671636 0.576941
O O1 0.922472 0.472176 0.377240
O O2 0.376284 0.204837 0.750000
O O3 0.500000 0.188794 0.558874
O O4 0.333519 0.158368 0.494159
O O5 0.381198 0.267125 0.505481
O O6 0.750535 0.630988 0.250000
O O7 0.799100 0.551003 0.434410
O O8 0.670146 0.625699 0.506158
O O9 0.621178 0.678741 0.750000
O O10 0.500000 0.656536 0.558290
#
# Coordination Sequence:
#
# PCOD9474747 Si02
#       5
#     4  16  16   8  16
#     4  10  24  46  64  86 130 162 204 242 296 352
#     4  10  22  37  61  91 124 162 201 245 302 360
#     4  12  25  39  61  90 123 160 203 249 300 360
#     4  11  26  42  65  92 124 164 201 246 297 358
#     4  10  22  42  64  88 119 158 202 254 304 354
#
# _framework density 18.970790999999998
#
# number of rings (size 3 to 8) (size 9 to 14) (size 15 to 20)
#    0.000    1.333    1.333    3.200    7.467    3.200 
#    0.000    0.667    0.000    0.000    0.000    0.000 
#    0.000    0.000    0.000    0.000    0.000    0.000 
#
# Total GULP energy -167217.006588 kJ/mol
# GULP energy per Si atom -5573.900220 kJ/mol
# Density = 1.892761 g / cm^3
# Si number density = 18.970791 Si / 1000 Ang^3
#
#
#
# Elastic Constant Matrix: (Units=GPa)
#
#
# Indices 1 2 3 4 5 6 
#
# 1 83.0915 50.4266 47.9850 0.0000 0.0000 0.0000
# 2 50.4266 46.8760 18.8431 0.0000 0.0000 0.0000
# 3 47.9850 18.8431 137.8092 0.0000 0.0000 0.0000
# 4 0.0000 0.0000 0.0000 14.3386 0.0000 0.0000
# 5 0.0000 0.0000 0.0000 0.0000 22.1036 0.0000
# 6 0.0000 0.0000 0.0000 0.0000 0.0000 -7.5389
#
#
#
# Elastic Compliance Matrix: (Units=1/GPa)
#
#
# Indices 1 2 3 4 5 6 
#
# 1 0.043578 -0.043151 -0.009274 0.000000 0.000000 0.000000
# 2 -0.043151 0.065302 0.006096 0.000000 0.000000 0.000000
# 3 -0.009274 0.006096 0.009652 0.000000 0.000000 0.000000
# 4 0.000000 0.000000 0.000000 0.069742 0.000000 0.000000
# 5 0.000000 0.000000 0.000000 0.000000 0.045242 0.000000
# 6 0.000000 0.000000 0.000000 0.000000 0.000000 -0.132646
#
#
# Mechanical properties :
#
#
# Convention : Reuss Voigt Hill
#
# Bulk Modulus (GPa) = 38.64751 55.80956 47.22853
# Shear Modulus (GPa) = 24.73411 15.81547 20.27479
#
# Velocity S-wave (km/s) = 3.61473 2.89048 3.27270
# Velocity P-wave (km/s) = 6.15127 6.37357 6.26340
#
# Compressibility (1/GPa) = 0.02587489
#
# Stress axis : x y z
#
# Youngs Moduli (GPa) = 22.94751 15.31356 103.60637
#
# Poissons Ratio (x) = 0.66079 0.96080
# Poissons Ratio (y) = 0.99020 -0.63160
# Poissons Ratio (z) = 0.21281 -0.09335
#
# Static dielectric constant tensor:
#      x y z
#    x 1.653770 0.000000 0.000000 
#    y 0.000000 1.650470 0.000000 
#    z 0.000000 0.000000 1.634290 
# 
# From -- ./inp_files/4473.got.cif
#   From: 2010.05.17/outbox.cif.g08.bks.cpg/sg63_3_cif.got.tgz:4473.got - 2010.06.03 15:47:04.
