data_PCOD9474219
_publ_section_title
;
Structure prediction by ZEFSAII (Michael W. Deem and Ramdas Pophale) SiO2 
 PCOD9474219
Probable space group: C M C M
;
_chemical_formula_sum "Si O2"
_cell_formula_units_Z 108
_cell_length_a 30.305265
_cell_length_b 5.115562
_cell_length_c 31.529674
_cell_angle_alpha 90.000000
_cell_angle_beta 90.000000
_cell_angle_gamma 90.000000
_cell_volume 4887.996869
_symmetry_space_group_name_H-M "C M C M"
_symmetry_group_IT_number 63
_symmetry_cell_setting 'orthorhombic'
loop_
_space_group_symop_operation_xyz
x,y,z
-x,-y,1/2+z
x,-y,-z
-x,y,1/2-z
-x,-y,-z
x,y,1/2-z
-x,y,z
x,-y,1/2+z
1/2+x,1/2+y,z
1/2-x,1/2-y,1/2+z
1/2+x,1/2-y,-z
1/2-x,1/2+y,1/2-z
1/2-x,1/2-y,-z
1/2+x,1/2+y,1/2-z
1/2-x,1/2+y,z
1/2+x,1/2-y,1/2+z
loop_
_atom_site_type_symbol
_atom_site_label
_atom_site_fract_x
_atom_site_fract_y
_atom_site_fract_z
Si Si1 0.000000 0.486768 0.250000
Si Si2 0.281362 0.988820 0.549653
Si Si3 0.722242 0.893489 0.203907
Si Si4 0.948343 0.873408 0.588421
Si Si5 0.894933 0.052592 0.841887
Si Si6 0.053886 0.627747 0.456101
Si Si7 0.343673 0.948334 0.128406
Si Si8 0.068427 0.987398 0.250000
O O1 0.961595 0.723424 0.250000
O O2 0.961464 0.250965 0.250000
O O3 0.252889 0.726786 0.556806
O O4 0.321926 0.008359 0.582407
O O5 0.295260 0.000000 0.500000
O O6 0.700266 0.941605 0.250000
O O7 0.736324 0.591189 0.202784
O O8 0.694804 0.966160 0.163202
O O9 0.941032 0.985607 0.634951
O O10 0.932410 0.582709 0.579223
O O11 0.000000 0.858783 0.579836
O O12 0.929140 0.086819 0.555823
O O13 0.863697 0.838646 0.864241
O O14 0.877808 0.332861 0.855879
O O15 0.901505 0.017563 0.792239
O O16 0.067903 0.500000 0.500000
O O17 0.000000 0.647854 0.457565
#
# Coordination Sequence:
#
# PCOD9474219 Si02
#       8
#     4  16  16  16  16  16  16   8
#     4  10  24  46  76  94 116 160 234 308 328 394
#     4  10  21  41  71 102 134 180 234 277 318 380
#     4  10  21  37  61  92 121 162 210 248 298 371
#     4  10  21  38  58  86 116 159 211 268 311 373
#     4  12  27  42  63  93 132 169 217 265 345 403
#     4   9  17  33  58  84 111 144 190 245 310 371
#     4  12  24  41  65  94 139 172 211 266 334 397
#     4  11  26  48  68  98 124 171 226 277 354 406
#
# _framework density 22.094940999999999
#
# number of rings (size 3 to 8) (size 9 to 14) (size 15 to 20)
#    0.000    1.481    0.000    4.889    4.148    1.778 
#    2.667    4.444    0.000    0.000    0.000    0.000 
#    0.000    0.000    0.000    0.000    0.000    0.000 
#
# Total GULP energy -301041.508092 kJ/mol
# GULP energy per Si atom -5574.842742 kJ/mol
# Density = 2.204465 g / cm^3
# Si number density = 22.094941 Si / 1000 Ang^3
#
#
#
# Elastic Constant Matrix: (Units=GPa)
#
#
# Indices 1 2 3 4 5 6 
#
# 1 23.9273 10.5443 18.2245 0.0000 0.0000 0.0000
# 2 10.5443 108.3611 11.4077 0.0000 0.0000 0.0000
# 3 18.2245 11.4077 91.2548 0.0000 0.0000 0.0000
# 4 0.0000 0.0000 0.0000 22.2656 0.0000 0.0000
# 5 0.0000 0.0000 0.0000 0.0000 -27.1978 0.0000
# 6 0.0000 0.0000 0.0000 0.0000 0.0000 25.7540
#
#
#
# Elastic Compliance Matrix: (Units=1/GPa)
#
#
# Indices 1 2 3 4 5 6 
#
# 1 0.050894 -0.003934 -0.009672 0.000000 0.000000 0.000000
# 2 -0.003934 0.009656 -0.000421 0.000000 0.000000 0.000000
# 3 -0.009672 -0.000421 0.012943 0.000000 0.000000 0.000000
# 4 0.000000 0.000000 0.000000 0.044912 0.000000 0.000000
# 5 0.000000 0.000000 0.000000 0.000000 -0.036768 0.000000
# 6 0.000000 0.000000 0.000000 0.000000 0.000000 0.038829
#
#
# Mechanical properties :
#
#
# Convention : Reuss Voigt Hill
#
# Bulk Modulus (GPa) = 22.00861 33.76622 27.88741
# Shear Modulus (GPa) = 30.54992 16.38880 23.46936
#
# Velocity S-wave (km/s) = 3.72246 2.72645 3.26268
# Velocity P-wave (km/s) = 5.33461 5.02264 5.18098
#
# Compressibility (1/GPa) = 0.04543677
#
# Stress axis : x y z
#
# Youngs Moduli (GPa) = 19.64875 103.56708 77.26408
#
# Poissons Ratio (x) = 0.40744 0.74731
# Poissons Ratio (y) = 0.07730 0.03256
# Poissons Ratio (z) = 0.19005 0.04364
#
# Static dielectric constant tensor:
#      x y z
#    x 1.860270 0.000000 0.000000 
#    y 0.000000 1.800810 0.000000 
#    z 0.000000 0.000000 1.878440 
# 
# From -- ./inp_files/74552.got.cif
#   From: 2010.05.17/outbox.cif.g08.bks.cpg/sg63_38_cif.got.tgz:74552.got - 2010.06.03 15:47:04.
