data_PCOD9474946
_publ_section_title
;
Structure prediction by ZEFSAII (Michael W. Deem and Ramdas Pophale) SiO2 
 PCOD9474946
Probable space group: C M C M
;
_chemical_formula_sum "Si O2"
_cell_formula_units_Z 68
_cell_length_a 7.523800
_cell_length_b 23.245558
_cell_length_c 17.817931
_cell_angle_alpha 90.000000
_cell_angle_beta 90.000000
_cell_angle_gamma 90.000000
_cell_volume 3116.265782
_symmetry_space_group_name_H-M "C M C M"
_symmetry_group_IT_number 63
_symmetry_cell_setting 'orthorhombic'
loop_
_space_group_symop_operation_xyz
x,y,z
-x,-y,1/2+z
x,-y,-z
-x,y,1/2-z
-x,-y,-z
x,y,1/2-z
-x,y,z
x,-y,1/2+z
1/2+x,1/2+y,z
1/2-x,1/2-y,1/2+z
1/2+x,1/2-y,-z
1/2-x,1/2+y,1/2-z
1/2-x,1/2-y,-z
1/2+x,1/2+y,1/2-z
1/2-x,1/2+y,z
1/2+x,1/2-y,1/2+z
loop_
_atom_site_type_symbol
_atom_site_label
_atom_site_fract_x
_atom_site_fract_y
_atom_site_fract_z
Si Si1 0.288234 0.685371 0.975698
Si Si2 0.794213 0.125879 0.372936
Si Si3 0.787829 0.120296 0.834350
Si Si4 0.212825 0.499146 0.913256
Si Si5 0.500000 0.844183 0.750000
O O1 0.500000 0.679314 0.970692
O O2 0.215520 0.665717 0.895237
O O3 0.250000 0.750000 0.000000
O O4 0.233159 0.643621 0.043213
O O5 0.656742 0.152410 0.314944
O O6 0.000000 0.144123 0.361889
O O7 0.785774 0.056688 0.370776
O O8 0.715169 0.124170 0.750000
O O9 0.759438 0.057608 0.870475
O O10 0.000000 0.129159 0.828614
O O11 0.000000 0.493609 0.914287
O O12 0.276133 0.500000 0.000000
#
# Coordination Sequence:
#
# PCOD9474946 Si02
#       5
#    16  16  16  16   4
#     4  10  23  43  68  93 128 176 227 279 344 404
#     4  11  24  43  66  99 135 179 226 275 339 410
#     4  10  22  40  63  96 131 172 223 277 334 398
#     4  11  22  37  63  95 134 179 223 269 334 405
#     4  12  26  44  66  98 138 172 226 286 342 396
#
# _framework density 21.820988
#
# number of rings (size 3 to 8) (size 9 to 14) (size 15 to 20)
#    0.000    1.412    3.529    1.059    3.294    2.353 
#    2.118    0.000    0.000    0.000    0.000    0.000 
#    0.000    0.000    0.000    0.000    0.000    0.000 
#
# Total GULP energy -189524.932276 kJ/mol
# GULP energy per Si atom -5574.262714 kJ/mol
# Density = 2.177132 g / cm^3
# Si number density = 21.820988 Si / 1000 Ang^3
#
#
#
# Elastic Constant Matrix: (Units=GPa)
#
#
# Indices 1 2 3 4 5 6 
#
# 1 102.7645 -17.6738 44.5274 0.0000 0.0000 0.0000
# 2 -17.6738 94.8576 54.5307 0.0000 0.0000 0.0000
# 3 44.5274 54.5307 207.0629 0.0000 0.0000 0.0000
# 4 0.0000 0.0000 0.0000 -14.1363 0.0000 0.0000
# 5 0.0000 0.0000 0.0000 0.0000 28.2272 0.0000
# 6 0.0000 0.0000 0.0000 0.0000 0.0000 23.0988
#
#
#
# Elastic Compliance Matrix: (Units=1/GPa)
#
#
# Indices 1 2 3 4 5 6 
#
# 1 0.012128 0.004430 -0.003775 0.000000 0.000000 0.000000
# 2 0.004430 0.014041 -0.004650 0.000000 0.000000 0.000000
# 3 -0.003775 -0.004650 0.006866 0.000000 0.000000 0.000000
# 4 0.000000 0.000000 0.000000 -0.070740 0.000000 0.000000
# 5 0.000000 0.000000 0.000000 0.000000 0.035427 0.000000
# 6 0.000000 0.000000 0.000000 0.000000 0.000000 0.043292
#
#
# Mechanical properties :
#
#
# Convention : Reuss Voigt Hill
#
# Bulk Modulus (GPa) = 39.92897 63.05041 51.48969
# Shear Modulus (GPa) = 87.17995 28.99135 58.08565
#
# Velocity S-wave (km/s) = 6.32764 3.64895 5.16497
# Velocity P-wave (km/s) = 8.46898 6.83449 7.69525
#
# Compressibility (1/GPa) = 0.02504447
#
# Stress axis : x y z
#
# Youngs Moduli (GPa) = 82.45125 71.22126 145.64878
#
# Poissons Ratio (x) = -0.31549 0.54978
# Poissons Ratio (y) = -0.36524 0.67730
# Poissons Ratio (z) = 0.31123 0.33120
#
# Static dielectric constant tensor:
#      x y z
#    x 1.803010 0.000000 0.000000 
#    y 0.000000 1.898650 0.000000 
#    z 0.000000 0.000000 1.804140 
# 
# From -- ./inp_files/39942.got.cif
#   From: 2010.05.17/outbox.cif.g08.bks.cpg/sg63_20_cif.got.tgz:39942.got - 2010.06.03 15:47:04.
