data_PCOD9474131
_publ_section_title
;
Structure prediction by ZEFSAII (Michael W. Deem and Ramdas Pophale) SiO2 
 PCOD9474131
Probable space group: C M C M
;
_chemical_formula_sum "Si O2"
_cell_formula_units_Z 64
_cell_length_a 28.667917
_cell_length_b 10.124498
_cell_length_c 9.873312
_cell_angle_alpha 90.000000
_cell_angle_beta 90.000000
_cell_angle_gamma 90.000000
_cell_volume 2865.711711
_symmetry_space_group_name_H-M "C M C M"
_symmetry_group_IT_number 63
_symmetry_cell_setting 'orthorhombic'
loop_
_space_group_symop_operation_xyz
x,y,z
-x,-y,1/2+z
x,-y,-z
-x,y,1/2-z
-x,-y,-z
x,y,1/2-z
-x,y,z
x,-y,1/2+z
1/2+x,1/2+y,z
1/2-x,1/2-y,1/2+z
1/2+x,1/2-y,-z
1/2-x,1/2+y,1/2-z
1/2-x,1/2-y,-z
1/2+x,1/2+y,1/2-z
1/2-x,1/2+y,z
1/2+x,1/2-y,1/2+z
loop_
_atom_site_type_symbol
_atom_site_label
_atom_site_fract_x
_atom_site_fract_y
_atom_site_fract_z
Si Si1 0.715346 0.884011 0.392988
Si Si2 0.181147 0.848364 0.041583
Si Si3 0.555071 0.882356 0.093254
Si Si4 0.924091 0.131688 0.593479
O O1 0.704268 0.945579 0.250000
O O2 0.768477 0.828017 0.389942
O O3 0.682514 0.760328 0.423914
O O4 0.711365 0.000000 0.500000
O O5 0.131199 0.839943 0.108861
O O6 0.184064 0.000000 0.000000
O O7 0.573145 0.871559 0.250000
O O8 0.500000 0.911183 0.108186
O O9 0.558299 0.750938 0.001271
O O10 0.576214 0.000000 0.000000
O O11 0.942432 0.121836 0.750000
O O12 0.930453 0.000000 0.500000
#
# Coordination Sequence:
#
# PCOD9474131 Si02
#       4
#    16  16  16  16
#     4  10  21  37  58  83 113 151 196 245 294 346
#     4   9  21  37  56  81 114 153 197 243 292 343
#     4  10  22  42  67  93 121 154 193 238 290 349
#     4  11  23  39  61  89 122 158 197 243 294 350
#
# _framework density 22.333020999999999
#
# number of rings (size 3 to 8) (size 9 to 14) (size 15 to 20)
#    0.000    2.000    0.000    2.250    0.000   18.000 
#    0.000    0.000    0.000    0.000    0.000    0.000 
#    0.000    0.000    0.000    0.000    0.000    0.000 
#
# Total GULP energy -178188.944040 kJ/mol
# GULP energy per Si atom -5568.404501 kJ/mol
# Density = 2.228219 g / cm^3
# Si number density = 22.333021 Si / 1000 Ang^3
#
#
#
# Elastic Constant Matrix: (Units=GPa)
#
#
# Indices 1 2 3 4 5 6 
#
# 1 37.2124 6.5008 15.5193 0.0000 0.0000 0.0000
# 2 6.5008 122.0892 88.3140 0.0000 0.0000 0.0000
# 3 15.5193 88.3140 248.1213 0.0000 0.0000 0.0000
# 4 0.0000 0.0000 0.0000 21.0539 0.0000 0.0000
# 5 0.0000 0.0000 0.0000 0.0000 -3.2422 0.0000
# 6 0.0000 0.0000 0.0000 0.0000 0.0000 37.8964
#
#
#
# Elastic Compliance Matrix: (Units=1/GPa)
#
#
# Indices 1 2 3 4 5 6 
#
# 1 0.027601 -0.000297 -0.001620 0.000000 0.000000 0.000000
# 2 -0.000297 0.011034 -0.003909 0.000000 0.000000 0.000000
# 3 -0.001620 -0.003909 0.005523 0.000000 0.000000 0.000000
# 4 0.000000 0.000000 0.000000 0.047497 0.000000 0.000000
# 5 0.000000 0.000000 0.000000 0.000000 -0.308429 0.000000
# 6 0.000000 0.000000 0.000000 0.000000 0.000000 0.026388
#
#
# Mechanical properties :
#
#
# Convention : Reuss Voigt Hill
#
# Bulk Modulus (GPa) = 30.76536 69.78789 50.27663
# Shear Modulus (GPa) = -29.77982 30.94754 0.58386
#
# Velocity S-wave (km/s) = -3.65560 3.72658 0.51186
# Velocity P-wave (km/s) = 2.00305 7.05926 4.78649
#
# Compressibility (1/GPa) = 0.03250409
#
# Stress axis : x y z
#
# Youngs Moduli (GPa) = 36.23122 90.62917 181.06508
#
# Poissons Ratio (x) = 0.02696 0.29341
# Poissons Ratio (y) = 0.01078 0.70773
# Poissons Ratio (z) = 0.05871 0.35424
#
# Static dielectric constant tensor:
#      x y z
#    x 1.873890 0.000000 0.000000 
#    y 0.000000 1.778430 0.000000 
#    z 0.000000 0.000000 1.826820 
# 
# From -- ./inp_files/13727.got.cif
#   From: 2010.05.17/outbox.cif.g08.bks.cpg/sg63_7_cif.got.tgz:13727.got - 2010.06.03 15:47:04.
