data_PCOD9474673
_publ_section_title
;
Structure prediction by ZEFSAII (Michael W. Deem and Ramdas Pophale) SiO2 
 PCOD9474673
Probable space group: C M C M
;
_chemical_formula_sum "Si O2"
_cell_formula_units_Z 64
_cell_length_a 18.673232
_cell_length_b 7.632968
_cell_length_c 20.939791
_cell_angle_alpha 90.000000
_cell_angle_beta 90.000000
_cell_angle_gamma 90.000000
_cell_volume 2984.594108
_symmetry_space_group_name_H-M "C M C M"
_symmetry_group_IT_number 63
_symmetry_cell_setting 'orthorhombic'
loop_
_space_group_symop_operation_xyz
x,y,z
-x,-y,1/2+z
x,-y,-z
-x,y,1/2-z
-x,-y,-z
x,y,1/2-z
-x,y,z
x,-y,1/2+z
1/2+x,1/2+y,z
1/2-x,1/2-y,1/2+z
1/2+x,1/2-y,-z
1/2-x,1/2+y,1/2-z
1/2-x,1/2-y,-z
1/2+x,1/2+y,1/2-z
1/2-x,1/2+y,z
1/2+x,1/2-y,1/2+z
loop_
_atom_site_type_symbol
_atom_site_label
_atom_site_fract_x
_atom_site_fract_y
_atom_site_fract_z
Si Si1 0.582514 0.790948 0.997212
Si Si2 0.195225 0.534214 0.821518
Si Si3 0.838312 0.162278 0.624052
Si Si4 0.917874 0.177502 0.355657
O O1 0.500000 0.764950 0.974896
O O2 0.635552 0.701655 0.947468
O O3 0.587667 0.714138 0.068089
O O4 0.595329 0.000000 0.000000
O O5 0.226036 0.526782 0.750000
O O6 0.162925 0.347252 0.839859
O O7 0.258742 0.583355 0.869958
O O8 0.135125 0.682858 0.824590
O O9 0.890570 0.018832 0.654738
O O10 0.000000 0.201803 0.336537
#
# Coordination Sequence:
#
# PCOD9474673 Si02
#       4
#    16  16  16  16
#     4  10  21  42  71 105 145 179 219 286 358 422
#     4  12  27  46  67  98 140 184 237 294 342 403
#     4  12  24  44  72 101 135 189 230 282 352 413
#     4  11  25  46  72 105 142 180 226 286 355 421
#
# _framework density 21.443451
#
# number of rings (size 3 to 8) (size 9 to 14) (size 15 to 20)
#    0.000    0.750    5.000    2.250    0.000    5.500 
#    4.500    0.000    0.000    6.750    0.000    0.000 
#    0.000    0.000    0.000    0.000    0.000    0.000 
#
# Total GULP energy -179146.810226 kJ/mol
# GULP energy per Si atom -5598.337820 kJ/mol
# Density = 2.139465 g / cm^3
# Si number density = 21.443451 Si / 1000 Ang^3
#
#
#
# Elastic Constant Matrix: (Units=GPa)
#
#
# Indices 1 2 3 4 5 6 
#
# 1 92.9778 26.4319 36.6540 0.0000 0.0000 0.0000
# 2 26.4319 125.5117 30.2412 0.0000 0.0000 0.0000
# 3 36.6540 30.2412 67.4268 0.0000 0.0000 0.0000
# 4 0.0000 0.0000 0.0000-1898.4777 0.0000 0.0000
# 5 0.0000 0.0000 0.0000 0.0000 0.7999 0.0000
# 6 0.0000 0.0000 0.0000 0.0000 0.0000 35.1257
#
#
#
# Elastic Compliance Matrix: (Units=1/GPa)
#
#
# Indices 1 2 3 4 5 6 
#
# 1 0.013858 -0.001237 -0.006979 0.000000 0.000000 0.000000
# 2 -0.001237 0.009043 -0.003383 0.000000 0.000000 0.000000
# 3 -0.006979 -0.003383 0.020142 0.000000 0.000000 0.000000
# 4 0.000000 0.000000 0.000000 -0.000527 0.000000 0.000000
# 5 0.000000 0.000000 0.000000 0.000000 1.250197 0.000000
# 6 0.000000 0.000000 0.000000 0.000000 0.000000 0.028469
#
#
# Mechanical properties :
#
#
# Convention : Reuss Voigt Hill
#
# Bulk Modulus (GPa) = 50.39014 52.50783 51.44898
# Shear Modulus (GPa) = 3.70097 -359.67115 -177.98509
#
# Velocity S-wave (km/s) = 1.31517 -12.96511 -9.12043
# Velocity P-wave (km/s) = 5.08491 14.12748 9.32013
#
# Compressibility (1/GPa) = 0.01984515
#
# Stress axis : x y z
#
# Youngs Moduli (GPa) = 72.16036 110.58156 49.64741
#
# Poissons Ratio (x) = 0.13678 0.34647
# Poissons Ratio (y) = 0.08926 0.16798
# Poissons Ratio (z) = 0.50358 0.37415
#
# Static dielectric constant tensor:
#      x y z
#    x 1.754160 0.000000 0.000000 
#    y 0.000000 1.761520 0.000000 
#    z 0.000000 0.000000 1.824220 
# 
# From -- ./inp_files/55017.got.cif
#   From: 2010.05.17/outbox.cif.g08.bks.cpg/sg63_28_cif.got.tgz:55017.got - 2010.06.03 15:47:04.
