data_PCOD9474160
_publ_section_title
;
Structure prediction by ZEFSAII (Michael W. Deem and Ramdas Pophale) SiO2 
 PCOD9474160
Probable space group: C M C M
;
_chemical_formula_sum "Si O2"
_cell_formula_units_Z 116
_cell_length_a 26.607838
_cell_length_b 18.546628
_cell_length_c 11.972030
_cell_angle_alpha 90.000000
_cell_angle_beta 90.000000
_cell_angle_gamma 90.000000
_cell_volume 5908.025285
_symmetry_space_group_name_H-M "C M C M"
_symmetry_group_IT_number 63
_symmetry_cell_setting 'orthorhombic'
loop_
_space_group_symop_operation_xyz
x,y,z
-x,-y,1/2+z
x,-y,-z
-x,y,1/2-z
-x,-y,-z
x,y,1/2-z
-x,y,z
x,-y,1/2+z
1/2+x,1/2+y,z
1/2-x,1/2-y,1/2+z
1/2+x,1/2-y,-z
1/2-x,1/2+y,1/2-z
1/2-x,1/2-y,-z
1/2+x,1/2+y,1/2-z
1/2-x,1/2+y,z
1/2+x,1/2-y,1/2+z
loop_
_atom_site_type_symbol
_atom_site_label
_atom_site_fract_x
_atom_site_fract_y
_atom_site_fract_z
Si Si1 0.311329 0.160368 0.877771
Si Si2 0.717082 0.417360 0.478118
Si Si3 0.880673 0.962736 0.374378
Si Si4 0.442055 0.336396 0.045786
Si Si5 0.350926 0.682702 0.118045
Si Si6 0.440761 0.176616 0.369890
Si Si7 0.408505 0.074223 0.933032
Si Si8 0.500000 0.932997 0.250000
O O1 0.294894 0.170466 0.750000
O O2 0.264775 0.129459 0.945884
O O3 0.330521 0.238624 0.918505
O O4 0.357092 0.103349 0.879394
O O5 0.732333 0.500000 0.500000
O O6 0.673523 0.423562 0.384075
O O7 0.688187 0.378817 0.580412
O O8 0.883331 0.999113 0.250000
O O9 0.924385 0.903657 0.381110
O O10 0.883989 0.000000 0.500000
O O11 0.500000 0.342722 0.011383
O O12 0.435913 0.261829 0.112307
O O13 0.403746 0.332114 0.942279
O O14 0.357429 0.684367 0.250000
O O15 0.418705 0.154692 0.250000
O O16 0.500000 0.159970 0.367064
O O17 0.419733 0.134368 0.473832
O O18 0.455080 0.068275 0.847517
O O19 0.402022 0.000000 0.000000
#
# Coordination Sequence:
#
# PCOD9474160 Si02
#       8
#    16  16  16  16  16  16  16   4
#     4  11  22  41  63  92 127 168 217 276 330 386
#     4  10  22  40  65  92 126 167 217 270 332 394
#     4  10  22  40  65  94 128 169 216 267 332 399
#     4  10  21  39  61  92 128 168 213 264 316 384
#     4  10  22  40  64  94 132 173 218 268 327 393
#     4  10  21  37  59  84 117 160 210 257 311 373
#     4  12  25  40  63  91 126 171 218 266 324 385
#     4  12  26  44  62  92 136 174 218 272 330 392
#
# _framework density 19.634308999999998
#
# number of rings (size 3 to 8) (size 9 to 14) (size 15 to 20)
#    0.000    1.517    2.759    1.862    0.966    6.897 
#    0.000    0.690    0.000    0.000    0.000    0.000 
#    0.000    0.000    0.000    0.000    0.000    0.000 
#
# Total GULP energy -322895.153528 kJ/mol
# GULP energy per Si atom -5567.157819 kJ/mol
# Density = 1.958962 g / cm^3
# Si number density = 19.634309 Si / 1000 Ang^3
#
#
#
# Elastic Constant Matrix: (Units=GPa)
#
#
# Indices 1 2 3 4 5 6 
#
# 1 95.8363 38.2603 38.5797 0.0000 0.0000 0.0000
# 2 38.2603 80.3681 29.9393 0.0000 0.0000 0.0000
# 3 38.5797 29.9393 121.1944 0.0000 0.0000 0.0000
# 4 0.0000 0.0000 0.0000 -162.0712 0.0000 0.0000
# 5 0.0000 0.0000 0.0000 0.0000 -12.8163 0.0000
# 6 0.0000 0.0000 0.0000 0.0000 0.0000 17.1030
#
#
#
# Elastic Compliance Matrix: (Units=1/GPa)
#
#
# Indices 1 2 3 4 5 6 
#
# 1 0.013842 -0.005450 -0.003060 0.000000 0.000000 0.000000
# 2 -0.005450 0.015849 -0.002181 0.000000 0.000000 0.000000
# 3 -0.003060 -0.002181 0.009764 0.000000 0.000000 0.000000
# 4 0.000000 0.000000 0.000000 -0.006170 0.000000 0.000000
# 5 0.000000 0.000000 0.000000 0.000000 -0.078026 0.000000
# 6 0.000000 0.000000 0.000000 0.000000 0.000000 0.058469
#
#
# Mechanical properties :
#
#
# Convention : Reuss Voigt Hill
#
# Bulk Modulus (GPa) = 55.32567 56.77304 56.04935
# Shear Modulus (GPa) = 121.55174 -18.84895 51.35139
#
# Velocity S-wave (km/s) = 7.87669 -3.10175 5.11964
# Velocity P-wave (km/s) = 10.53386 4.01873 7.97221
#
# Compressibility (1/GPa) = 0.01807479
#
# Stress axis : x y z
#
# Youngs Moduli (GPa) = 72.24411 63.09354 102.41719
#
# Poissons Ratio (x) = 0.34384 0.31340
# Poissons Ratio (y) = 0.39371 0.22333
# Poissons Ratio (z) = 0.22107 0.13758
#
# Static dielectric constant tensor:
#      x y z
#    x 1.663300 0.000000 0.000000 
#    y 0.000000 1.733570 0.000000 
#    z 0.000000 0.000000 1.716760 
# 
# From -- ./inp_files/25100.got.cif
#   From: 2010.05.17/outbox.cif.g08.bks.cpg/sg63_13_cif.got.tgz:25100.got - 2010.06.03 15:47:04.
