data_PCOD9474670
_publ_section_title
;
Structure prediction by ZEFSAII (Michael W. Deem and Ramdas Pophale) SiO2 
 PCOD9474670
Probable space group: C M C M
;
_chemical_formula_sum "Si O2"
_cell_formula_units_Z 48
_cell_length_a 16.252238
_cell_length_b 24.940843
_cell_length_c 5.559884
_cell_angle_alpha 90.000000
_cell_angle_beta 90.000000
_cell_angle_gamma 90.000000
_cell_volume 2253.668491
_symmetry_space_group_name_H-M "C M C M"
_symmetry_group_IT_number 63
_symmetry_cell_setting 'orthorhombic'
loop_
_space_group_symop_operation_xyz
x,y,z
-x,-y,1/2+z
x,-y,-z
-x,y,1/2-z
-x,-y,-z
x,y,1/2-z
-x,y,z
x,-y,1/2+z
1/2+x,1/2+y,z
1/2-x,1/2-y,1/2+z
1/2+x,1/2-y,-z
1/2-x,1/2+y,1/2-z
1/2-x,1/2-y,-z
1/2+x,1/2+y,1/2-z
1/2-x,1/2+y,z
1/2+x,1/2-y,1/2+z
loop_
_atom_site_type_symbol
_atom_site_label
_atom_site_fract_x
_atom_site_fract_y
_atom_site_fract_z
Si Si1 0.403121 0.922097 0.001242
Si Si2 0.901317 0.967904 0.750000
Si Si3 0.167595 0.150469 0.250000
Si Si4 0.402861 0.698092 0.750000
Si Si5 0.859835 0.677243 0.250000
O O1 0.364010 0.938452 0.250000
O O2 0.500000 0.935597 0.005226
O O3 0.368196 0.943114 0.750000
O O4 0.396020 0.857822 0.970260
O O5 0.850335 0.912862 0.750000
O O6 0.000000 0.955312 0.750000
O O7 0.885308 0.000000 0.500000
O O8 0.131348 0.173492 0.500711
O O9 0.262883 0.167148 0.250000
O O10 0.500000 0.689832 0.750000
O O11 0.382605 0.761379 0.750000
#
# Coordination Sequence:
#
# PCOD9474670 Si02
#       5
#    16   8   8   8   8
#     4   8  15  27  46  69 101 148 199 227 253 316
#     4  10  21  42  68  86 107 145 193 246 304 358
#     4  12  26  39  61  91 119 148 200 257 297 340
#     4  12  25  40  56  81 125 169 201 230 276 350
#     4  10  22  35  55  82 123 160 190 231 291 340
#
# _framework density 21.298605999999999
#
# number of rings (size 3 to 8) (size 9 to 14) (size 15 to 20)
#    1.000    1.000    0.000    4.500    4.667    1.333 
#    0.000    0.000    0.000    0.000    0.000    0.000 
#    0.000   12.000    0.000    0.000    0.000    0.000 
#
# Total GULP energy -133698.125118 kJ/mol
# GULP energy per Si atom -5570.755213 kJ/mol
# Density = 2.125013 g / cm^3
# Si number density = 21.298606 Si / 1000 Ang^3
#
#
#
# Elastic Constant Matrix: (Units=GPa)
#
#
# Indices 1 2 3 4 5 6 
#
# 1 68.6643 -6.3660 16.1066 0.0000 0.0000 0.0000
# 2 -6.3660 99.4778 41.9355 0.0000 0.0000 0.0000
# 3 16.1066 41.9355 233.7977 0.0000 0.0000 0.0000
# 4 0.0000 0.0000 0.0000 4.0115 0.0000 0.0000
# 5 0.0000 0.0000 0.0000 0.0000 1.0526 0.0000
# 6 0.0000 0.0000 0.0000 0.0000 0.0000 21.8373
#
#
#
# Elastic Compliance Matrix: (Units=1/GPa)
#
#
# Indices 1 2 3 4 5 6 
#
# 1 0.015010 0.001511 -0.001305 0.000000 0.000000 0.000000
# 2 0.001511 0.011027 -0.002082 0.000000 0.000000 0.000000
# 3 -0.001305 -0.002082 0.004741 0.000000 0.000000 0.000000
# 4 0.000000 0.000000 0.000000 0.249283 0.000000 0.000000
# 5 0.000000 0.000000 0.000000 0.000000 0.950055 0.000000
# 6 0.000000 0.000000 0.000000 0.000000 0.000000 0.045793
#
#
# Mechanical properties :
#
#
# Convention : Reuss Voigt Hill
#
# Bulk Modulus (GPa) = 37.00327 56.14355 46.57341
# Shear Modulus (GPa) = 3.87997 28.73118 16.30558
#
# Velocity S-wave (km/s) = 1.35117 3.67682 2.76990
# Velocity P-wave (km/s) = 4.45483 6.66654 5.66958
#
# Compressibility (1/GPa) = 0.02702463
#
# Stress axis : x y z
#
# Youngs Moduli (GPa) = 66.62321 90.68802 210.94684
#
# Poissons Ratio (x) = -0.13700 0.27529
# Poissons Ratio (y) = -0.10065 0.43917
# Poissons Ratio (z) = 0.08694 0.18880
#
# Static dielectric constant tensor:
#      x y z
#    x 1.733760 0.000000 0.000000 
#    y 0.000000 1.763080 0.000000 
#    z 0.000000 0.000000 1.833740 
# 
# From -- ./inp_files/547.got.cif
#   From: 2010.05.17/outbox.cif.g08.bks.cpg/sg63_1_cif.got.tgz:547.got - 2010.06.03 15:47:04.
