data_PCOD9474002
_publ_section_title
;
Structure prediction by ZEFSAII (Michael W. Deem and Ramdas Pophale) SiO2 
 PCOD9474002
Probable space group: C M C M
;
_chemical_formula_sum "Si O2"
_cell_formula_units_Z 56
_cell_length_a 10.643649
_cell_length_b 25.107234
_cell_length_c 10.224234
_cell_angle_alpha 90.000000
_cell_angle_beta 90.000000
_cell_angle_gamma 90.000000
_cell_volume 2732.248492
_symmetry_space_group_name_H-M "C M C M"
_symmetry_group_IT_number 63
_symmetry_cell_setting 'orthorhombic'
loop_
_space_group_symop_operation_xyz
x,y,z
-x,-y,1/2+z
x,-y,-z
-x,y,1/2-z
-x,-y,-z
x,y,1/2-z
-x,y,z
x,-y,1/2+z
1/2+x,1/2+y,z
1/2-x,1/2-y,1/2+z
1/2+x,1/2-y,-z
1/2-x,1/2+y,1/2-z
1/2-x,1/2-y,-z
1/2+x,1/2+y,1/2-z
1/2-x,1/2+y,z
1/2+x,1/2-y,1/2+z
loop_
_atom_site_type_symbol
_atom_site_label
_atom_site_fract_x
_atom_site_fract_y
_atom_site_fract_z
Si Si1 0.000000 0.445855 0.411488
Si Si2 0.263767 0.131621 0.972235
Si Si3 0.354917 0.533910 0.613969
Si Si4 0.650435 0.664558 0.250000
Si Si5 0.852236 0.707768 0.750000
O O1 0.000000 0.500000 0.500000
O O2 0.118834 0.408620 0.452288
O O3 0.000000 0.452953 0.250000
O O4 0.152360 0.096076 0.912489
O O5 0.291334 0.181985 0.879850
O O6 0.222447 0.144625 0.119744
O O7 0.296179 0.500000 0.500000
O O8 0.291101 0.520840 0.750000
O O9 0.500000 0.517969 0.622263
O O10 0.500000 0.649442 0.250000
O O11 0.656523 0.728731 0.250000
O O12 0.000000 0.693119 0.750000
#
# Coordination Sequence:
#
# PCOD9474002 Si02
#       5
#     8  16  16   8   8
#     4  12  26  44  74 110 144 186 232 282 359 430
#     4  12  22  44  68  95 140 176 224 286 350 407
#     4  10  21  36  59  88 125 170 217 266 329 397
#     4  11  28  43  69 101 133 183 241 289 343 416
#     4  11  22  48  70  96 134 179 232 294 358 411
#
# _framework density 20.495939
#
# number of rings (size 3 to 8) (size 9 to 14) (size 15 to 20)
#    0.000    0.857    4.286    2.571    4.000    0.000 
#    0.000    0.000    6.286    0.000    0.000    0.000 
#    0.000    0.000    0.000    0.000    0.000    0.000 
#
# Total GULP energy -156137.916189 kJ/mol
# GULP energy per Si atom -5576.354150 kJ/mol
# Density = 2.044929 g / cm^3
# Si number density = 20.495939 Si / 1000 Ang^3
#
#
#
# Elastic Constant Matrix: (Units=GPa)
#
#
# Indices 1 2 3 4 5 6 
#
# 1 92.8284 29.9491 63.1303 0.0000 0.0000 0.0000
# 2 29.9491 77.4637 76.1161 0.0000 0.0000 0.0000
# 3 63.1303 76.1161 254.7361 0.0000 0.0000 0.0000
# 4 0.0000 0.0000 0.0000 44.9411 0.0000 0.0000
# 5 0.0000 0.0000 0.0000 0.0000 14.5133 0.0000
# 6 0.0000 0.0000 0.0000 0.0000 0.0000 27.9420
#
#
#
# Elastic Compliance Matrix: (Units=1/GPa)
#
#
# Indices 1 2 3 4 5 6 
#
# 1 0.013345 -0.002703 -0.002499 0.000000 0.000000 0.000000
# 2 -0.002703 0.018823 -0.004954 0.000000 0.000000 0.000000
# 3 -0.002499 -0.004954 0.006025 0.000000 0.000000 0.000000
# 4 0.000000 0.000000 0.000000 0.022251 0.000000 0.000000
# 5 0.000000 0.000000 0.000000 0.000000 0.068902 0.000000
# 6 0.000000 0.000000 0.000000 0.000000 0.000000 0.035788
#
#
# Mechanical properties :
#
#
# Convention : Reuss Voigt Hill
#
# Bulk Modulus (GPa) = 55.93339 84.82434 70.37887
# Shear Modulus (GPa) = 26.12220 34.53480 30.32850
#
# Velocity S-wave (km/s) = 3.57390 4.10928 3.85090
# Velocity P-wave (km/s) = 6.66180 7.99942 7.36105
#
# Compressibility (1/GPa) = 0.01787841
#
# Stress axis : x y z
#
# Youngs Moduli (GPa) = 74.93723 53.12779 165.96451
#
# Poissons Ratio (x) = 0.14363 0.41480
# Poissons Ratio (y) = 0.20259 0.82223
# Poissons Ratio (z) = 0.18729 0.26321
#
# Static dielectric constant tensor:
#      x y z
#    x 1.821710 0.000000 0.000000 
#    y 0.000000 1.710020 0.000000 
#    z 0.000000 0.000000 1.907720 
# 
# From -- ./inp_files/2865.got.cif
#   From: 2010.05.17/outbox.cif.g08.bks.cpg/sg63_2_cif.got.tgz:2865.got - 2010.06.03 15:47:04.
