data_PCOD9474141
_publ_section_title
;
Structure prediction by ZEFSAII (Michael W. Deem and Ramdas Pophale) SiO2 
 PCOD9474141
Probable space group: C M C M
;
_chemical_formula_sum "Si O2"
_cell_formula_units_Z 80
_cell_length_a 26.024614
_cell_length_b 10.170935
_cell_length_c 14.555021
_cell_angle_alpha 90.000000
_cell_angle_beta 90.000000
_cell_angle_gamma 90.000000
_cell_volume 3852.636297
_symmetry_space_group_name_H-M "C M C M"
_symmetry_group_IT_number 63
_symmetry_cell_setting 'orthorhombic'
loop_
_space_group_symop_operation_xyz
x,y,z
-x,-y,1/2+z
x,-y,-z
-x,y,1/2-z
-x,-y,-z
x,y,1/2-z
-x,y,z
x,-y,1/2+z
1/2+x,1/2+y,z
1/2-x,1/2-y,1/2+z
1/2+x,1/2-y,-z
1/2-x,1/2+y,1/2-z
1/2-x,1/2-y,-z
1/2+x,1/2+y,1/2-z
1/2-x,1/2+y,z
1/2+x,1/2-y,1/2+z
loop_
_atom_site_type_symbol
_atom_site_label
_atom_site_fract_x
_atom_site_fract_y
_atom_site_fract_z
Si Si1 0.641657 0.235325 0.641917
Si Si2 0.558442 0.969325 0.362124
Si Si3 0.742053 0.876715 0.437301
Si Si4 0.148613 0.966025 0.138945
Si Si5 0.441336 0.269939 0.362118
O O1 0.631264 0.249554 0.750000
O O2 0.597627 0.140326 0.603530
O O3 0.695910 0.162833 0.629491
O O4 0.643354 0.383800 0.604393
O O5 0.559416 0.967438 0.250000
O O6 0.500000 0.941397 0.390474
O O7 0.571347 0.119334 0.388124
O O8 0.750000 0.750000 0.500000
O O9 0.795917 0.912155 0.390259
O O10 0.726610 0.000000 0.500000
O O11 0.147519 0.967689 0.250000
O O12 0.101853 0.872939 0.107890
O O13 0.441894 0.272964 0.250000
O O14 0.500000 0.299639 0.391854
#
# Coordination Sequence:
#
# PCOD9474141 Si02
#       5
#    16  16  16  16  16
#     4  10  21  37  58  85 113 144 186 231 276 328
#     4   8  15  29  52  83 114 143 179 224 272 323
#     4  12  25  42  57  78 112 150 189 231 282 334
#     4  10  21  37  58  85 113 144 187 231 275 330
#     4   8  15  29  52  83 114 143 178 223 274 325
#
# _framework density 20.765001999999999
#
# number of rings (size 3 to 8) (size 9 to 14) (size 15 to 20)
#    0.000    2.400    2.000    1.800    2.800    0.800 
#    0.000    4.000    0.000    2.400    0.000    0.000 
#    0.000    0.000    0.000    0.000    0.000    0.000 
#
# Total GULP energy -223410.203616 kJ/mol
# GULP energy per Si atom -5585.255090 kJ/mol
# Density = 2.071774 g / cm^3
# Si number density = 20.765002 Si / 1000 Ang^3
#
#
#
# Elastic Constant Matrix: (Units=GPa)
#
#
# Indices 1 2 3 4 5 6 
#
# 1 174.3593 132.5001 15.8457 0.0000 0.0000 0.0000
# 2 132.5001 195.7354 16.7771 0.0000 0.0000 0.0000
# 3 15.8457 16.7771 45.2101 0.0000 0.0000 0.0000
# 4 0.0000 0.0000 0.0000 14.7474 0.0000 0.0000
# 5 0.0000 0.0000 0.0000 0.0000 -11.3753 0.0000
# 6 0.0000 0.0000 0.0000 0.0000 0.0000 43.9627
#
#
#
# Elastic Compliance Matrix: (Units=1/GPa)
#
#
# Indices 1 2 3 4 5 6 
#
# 1 0.011876 -0.007935 -0.001218 0.000000 0.000000 0.000000
# 2 -0.007935 0.010578 -0.001144 0.000000 0.000000 0.000000
# 3 -0.001218 -0.001144 0.022970 0.000000 0.000000 0.000000
# 4 0.000000 0.000000 0.000000 0.067809 0.000000 0.000000
# 5 0.000000 0.000000 0.000000 0.000000 -0.087910 0.000000
# 6 0.000000 0.000000 0.000000 0.000000 0.000000 0.022747
#
#
# Mechanical properties :
#
#
# Convention : Reuss Voigt Hill
#
# Bulk Modulus (GPa) = 40.27308 82.83896 61.55602
# Shear Modulus (GPa) = 64.98493 26.14576 45.56535
#
# Velocity S-wave (km/s) = 5.60030 3.55227 4.68945
# Velocity P-wave (km/s) = 7.82653 7.53691 7.68308
#
# Compressibility (1/GPa) = 0.02483048
#
# Stress axis : x y z
#
# Youngs Moduli (GPa) = 84.20509 94.53289 43.53415
#
# Poissons Ratio (x) = 0.75009 0.05302
# Poissons Ratio (y) = 0.66814 0.04982
# Poissons Ratio (z) = 0.10255 0.10819
#
# Static dielectric constant tensor:
#      x y z
#    x 1.712670 0.000000 0.000000 
#    y 0.000000 1.720520 0.000000 
#    z 0.000000 0.000000 1.775120 
# 
# From -- ./inp_files/48751.got.cif
#   From: 2010.05.17/outbox.cif.g08.bks.cpg/sg63_25_cif.got.tgz:48751.got - 2010.06.03 15:47:04.
