data_PCOD9474157
_publ_section_title
;
Structure prediction by ZEFSAII (Michael W. Deem and Ramdas Pophale) SiO2 
 PCOD9474157
Probable space group: C M C M
;
_chemical_formula_sum "Si O2"
_cell_formula_units_Z 96
_cell_length_a 19.771286
_cell_length_b 9.371737
_cell_length_c 27.469028
_cell_angle_alpha 90.000000
_cell_angle_beta 90.000000
_cell_angle_gamma 90.000000
_cell_volume 5089.771703
_symmetry_space_group_name_H-M "C M C M"
_symmetry_group_IT_number 63
_symmetry_cell_setting 'orthorhombic'
loop_
_space_group_symop_operation_xyz
x,y,z
-x,-y,1/2+z
x,-y,-z
-x,y,1/2-z
-x,-y,-z
x,y,1/2-z
-x,y,z
x,-y,1/2+z
1/2+x,1/2+y,z
1/2-x,1/2-y,1/2+z
1/2+x,1/2-y,-z
1/2-x,1/2+y,1/2-z
1/2-x,1/2-y,-z
1/2+x,1/2+y,1/2-z
1/2-x,1/2+y,z
1/2+x,1/2-y,1/2+z
loop_
_atom_site_type_symbol
_atom_site_label
_atom_site_fract_x
_atom_site_fract_y
_atom_site_fract_z
Si Si1 0.193704 0.679195 0.190961
Si Si2 0.800088 0.376580 0.363233
Si Si3 0.718337 0.365109 0.464171
Si Si4 0.076682 0.103906 0.807702
Si Si5 0.921400 0.834892 0.865204
Si Si6 0.073713 0.925856 0.447832
O O1 0.195885 0.663133 0.250000
O O2 0.193696 0.527941 0.163683
O O3 0.255876 0.772452 0.171017
O O4 0.127839 0.773211 0.176665
O O5 0.762503 0.389608 0.415533
O O6 0.871738 0.297425 0.369986
O O7 0.714666 0.500000 0.500000
O O8 0.750000 0.250000 0.500000
O O9 0.641349 0.331812 0.447299
O O10 0.074293 0.111621 0.750000
O O11 0.000000 0.122133 0.826640
O O12 0.099170 0.944697 0.822350
O O13 0.000000 0.792979 0.859021
O O14 0.916626 0.942843 0.910739
O O15 0.000000 0.142689 0.561210
O O16 0.070228 0.000000 0.500000
#
# Coordination Sequence:
#
# PCOD9474157 Si02
#       6
#    16  16  16  16  16  16
#     4  11  23  37  57  84 116 154 192 234 284 343
#     4  12  23  38  58  83 117 152 192 239 288 341
#     4  11  22  37  58  85 114 147 188 236 288 341
#     4   9  19  37  59  83 112 146 186 233 286 343
#     4  10  21  37  59  84 110 145 191 240 288 340
#     4   9  17  32  55  80 106 139 180 226 277 333
#
# _framework density 18.861357000000002
#
# number of rings (size 3 to 8) (size 9 to 14) (size 15 to 20)
#    0.000    1.667    0.000    6.500    0.000    3.333 
#    0.000    0.000    0.000    4.000    0.000    0.000 
#    0.000    0.000    0.000    0.000    0.000    0.000 
#
# Total GULP energy -267746.947207 kJ/mol
# GULP energy per Si atom -5578.061400 kJ/mol
# Density = 1.881843 g / cm^3
# Si number density = 18.861357 Si / 1000 Ang^3
#
#
#
# Elastic Constant Matrix: (Units=GPa)
#
#
# Indices 1 2 3 4 5 6 
#
# 1 147.2306 73.5897 46.1398 0.0000 0.0000 0.0000
# 2 73.5897 73.1876 18.5631 0.0000 0.0000 0.0000
# 3 46.1398 18.5631 90.6536 0.0000 0.0000 0.0000
# 4 0.0000 0.0000 0.0000 34.5547 0.0000 0.0000
# 5 0.0000 0.0000 0.0000 0.0000 25.0649 0.0000
# 6 0.0000 0.0000 0.0000 0.0000 0.0000 40.1649
#
#
#
# Elastic Compliance Matrix: (Units=1/GPa)
#
#
# Indices 1 2 3 4 5 6 
#
# 1 0.015515 -0.014342 -0.004960 0.000000 0.000000 0.000000
# 2 -0.014342 0.027670 0.001634 0.000000 0.000000 0.000000
# 3 -0.004960 0.001634 0.013221 0.000000 0.000000 0.000000
# 4 0.000000 0.000000 0.000000 0.028940 0.000000 0.000000
# 5 0.000000 0.000000 0.000000 0.000000 0.039896 0.000000
# 6 0.000000 0.000000 0.000000 0.000000 0.000000 0.024897
#
#
# Mechanical properties :
#
#
# Convention : Reuss Voigt Hill
#
# Bulk Modulus (GPa) = 47.46213 65.29521 56.37867
# Shear Modulus (GPa) = 25.97410 31.47549 28.72479
#
# Velocity S-wave (km/s) = 3.71496 4.08950 3.90673
# Velocity P-wave (km/s) = 6.60451 7.54933 7.09267
#
# Compressibility (1/GPa) = 0.02106943
#
# Stress axis : x y z
#
# Youngs Moduli (GPa) = 64.45360 36.13990 75.63816
#
# Poissons Ratio (x) = 0.51833 0.37515
# Poissons Ratio (y) = 0.92441 -0.12357
# Poissons Ratio (z) = 0.31968 -0.05904
#
# Static dielectric constant tensor:
#      x y z
#    x 1.728970 0.000000 0.000000 
#    y 0.000000 1.590050 0.000000 
#    z 0.000000 0.000000 1.613070 
# 
# From -- ./inp_files/70320.got.cif
#   From: 2010.05.17/outbox.cif.g08.bks.cpg/sg63_36_cif.got.tgz:70320.got - 2010.06.03 15:47:04.
