data_PCOD9474029
_publ_section_title
;
Structure prediction by ZEFSAII (Michael W. Deem and Ramdas Pophale) SiO2 
 PCOD9474029
Probable space group: C M C M
;
_chemical_formula_sum "Si O2"
_cell_formula_units_Z 96
_cell_length_a 20.340258
_cell_length_b 30.358175
_cell_length_c 9.462112
_cell_angle_alpha 90.000000
_cell_angle_beta 90.000000
_cell_angle_gamma 90.000000
_cell_volume 5842.788984
_symmetry_space_group_name_H-M "C M C M"
_symmetry_group_IT_number 63
_symmetry_cell_setting 'orthorhombic'
loop_
_space_group_symop_operation_xyz
x,y,z
-x,-y,1/2+z
x,-y,-z
-x,y,1/2-z
-x,-y,-z
x,y,1/2-z
-x,y,z
x,-y,1/2+z
1/2+x,1/2+y,z
1/2-x,1/2-y,1/2+z
1/2+x,1/2-y,-z
1/2-x,1/2+y,1/2-z
1/2-x,1/2-y,-z
1/2+x,1/2+y,1/2-z
1/2-x,1/2+y,z
1/2+x,1/2-y,1/2+z
loop_
_atom_site_type_symbol
_atom_site_label
_atom_site_fract_x
_atom_site_fract_y
_atom_site_fract_z
Si Si1 0.691186 0.725490 0.081375
Si Si2 0.261767 0.542436 0.588327
Si Si3 0.894053 0.629181 0.414676
Si Si4 0.235704 0.126867 0.412958
Si Si5 0.575230 0.770685 0.583826
Si Si6 0.898598 0.456857 0.086985
O O1 0.694730 0.733706 0.250000
O O2 0.701321 0.673343 0.059042
O O3 0.750000 0.750000 0.000000
O O4 0.624388 0.743783 0.014242
O O5 0.282987 0.500000 0.500000
O O6 0.282563 0.539462 0.750000
O O7 0.284003 0.587531 0.515613
O O8 0.181610 0.542697 0.586014
O O9 0.909591 0.620024 0.250000
O O10 0.814688 0.632913 0.426632
O O11 0.921044 0.677262 0.451689
O O12 0.917302 0.588632 0.510209
O O13 0.223665 0.114069 0.250000
O O14 0.594976 0.767163 0.750000
O O15 0.500000 0.756031 0.570390
O O16 0.919490 0.458550 0.250000
O O17 0.919806 0.500000 0.000000
#
# Coordination Sequence:
#
# PCOD9474029 Si02
#       6
#    16  16  16  16  16  16
#     4  11  21  34  53  76 103 133 170 213 257 302
#     4   9  16  25  39  62  93 127 158 193 239 292
#     4   9  16  29  46  65  91 124 160 201 248 296
#     4   9  17  29  45  67  95 127 162 203 246 292
#     4  10  21  37  54  73 100 134 170 209 257 308
#     4   9  16  25  39  62  88 118 155 198 246 293
#
# _framework density 16.430509000000001
#
# number of rings (size 3 to 8) (size 9 to 14) (size 15 to 20)
#    0.000    2.500    1.667    1.500    0.000    6.333 
#    0.000    0.000    0.000    0.500    0.000    0.000 
#    0.000    0.667    0.000    2.167    0.000    3.167 
#
# Total GULP energy -267794.056656 kJ/mol
# GULP energy per Si atom -5579.042847 kJ/mol
# Density = 1.639311 g / cm^3
# Si number density = 16.430509 Si / 1000 Ang^3
#
#
#
# Elastic Constant Matrix: (Units=GPa)
#
#
# Indices 1 2 3 4 5 6 
#
# 1 44.4337 44.1207 45.1028 0.0000 0.0000 0.0000
# 2 44.1207 121.4972 102.0667 0.0000 0.0000 0.0000
# 3 45.1028 102.0667 134.8131 0.0000 0.0000 0.0000
# 4 0.0000 0.0000 0.0000 36.4377 0.0000 0.0000
# 5 0.0000 0.0000 0.0000 0.0000 6.4427 0.0000
# 6 0.0000 0.0000 0.0000 0.0000 0.0000 0.0550
#
#
#
# Elastic Compliance Matrix: (Units=1/GPa)
#
#
# Indices 1 2 3 4 5 6 
#
# 1 0.036907 -0.008324 -0.006046 0.000000 0.000000 0.000000
# 2 -0.008324 0.024490 -0.015757 0.000000 0.000000 0.000000
# 3 -0.006046 -0.015757 0.021370 0.000000 0.000000 0.000000
# 4 0.000000 0.000000 0.000000 0.027444 0.000000 0.000000
# 5 0.000000 0.000000 0.000000 0.000000 0.155214 0.000000
# 6 0.000000 0.000000 0.000000 0.000000 0.000000 18.189780
#
#
# Mechanical properties :
#
#
# Convention : Reuss Voigt Hill
#
# Bulk Modulus (GPa) = 44.41517 75.92492 60.17004
# Shear Modulus (GPa) = 0.26994 15.88399 8.07696
#
# Velocity S-wave (km/s) = 0.40577 3.11261 2.21957
# Velocity P-wave (km/s) = 5.22593 7.69596 6.57793
#
# Compressibility (1/GPa) = 0.02251483
#
# Stress axis : x y z
#
# Youngs Moduli (GPa) = 27.09493 40.83297 46.79536
#
# Poissons Ratio (x) = 0.33988 0.28292
# Poissons Ratio (y) = 0.22553 0.73734
# Poissons Ratio (z) = 0.16381 0.64339
#
# Static dielectric constant tensor:
#      x y z
#    x 1.543080 0.000000 0.000000 
#    y 0.000000 1.536480 0.000000 
#    z 0.000000 0.000000 1.551800 
# 
# From -- ./inp_files/8610.got.cif
#   From: 2010.05.17/outbox.cif.g08.bks.cpg/sg63_5_cif.got.tgz:8610.got - 2010.06.03 15:47:04.
