data_PCOD9474617
_publ_section_title
;
Structure prediction by ZEFSAII (Michael W. Deem and Ramdas Pophale) SiO2 
 PCOD9474617
Probable space group: C M C M
;
_chemical_formula_sum "Si O2"
_cell_formula_units_Z 112
_cell_length_a 29.510687
_cell_length_b 5.569099
_cell_length_c 28.358708
_cell_angle_alpha 90.000000
_cell_angle_beta 90.000000
_cell_angle_gamma 90.000000
_cell_volume 4660.695169
_symmetry_space_group_name_H-M "C M C M"
_symmetry_group_IT_number 63
_symmetry_cell_setting 'orthorhombic'
loop_
_space_group_symop_operation_xyz
x,y,z
-x,-y,1/2+z
x,-y,-z
-x,y,1/2-z
-x,-y,-z
x,y,1/2-z
-x,y,z
x,-y,1/2+z
1/2+x,1/2+y,z
1/2-x,1/2-y,1/2+z
1/2+x,1/2-y,-z
1/2-x,1/2+y,1/2-z
1/2-x,1/2-y,-z
1/2+x,1/2+y,1/2-z
1/2-x,1/2+y,z
1/2+x,1/2-y,1/2+z
loop_
_atom_site_type_symbol
_atom_site_label
_atom_site_fract_x
_atom_site_fract_y
_atom_site_fract_z
Si Si1 0.392839 0.141641 0.622172
Si Si2 0.449517 0.228499 0.329640
Si Si3 0.364525 0.478322 0.699310
Si Si4 0.726477 0.625227 0.562771
Si Si5 0.773072 0.829489 0.176430
Si Si6 0.448782 0.520437 0.932121
Si Si7 0.133592 0.310558 0.541394
O O1 0.361192 0.311183 0.653198
O O2 0.422129 0.282098 0.583063
O O3 0.366399 0.945137 0.592133
O O4 0.427445 0.029142 0.660111
O O5 0.500000 0.219091 0.309722
O O6 0.412955 0.390555 0.303453
O O7 0.452339 0.340248 0.382195
O O8 0.360197 0.353770 0.750000
O O9 0.324602 0.669791 0.694042
O O10 0.750291 0.377298 0.547771
O O11 0.727601 0.647636 0.619620
O O12 0.674647 0.626399 0.545765
O O13 0.748895 0.583904 0.192032
O O14 0.500000 0.478895 0.948623
O O15 0.415312 0.683670 0.963038
O O16 0.140887 0.500000 0.500000
#
# Coordination Sequence:
#
# PCOD9474617 Si02
#       7
#    16  16  16  16  16  16  16
#     4  10  21  40  66  91 131 173 223 276 339 412
#     4   9  19  38  64  91 125 168 214 269 332 400
#     4  11  25  41  63  96 131 168 216 275 341 418
#     4  10  23  42  70  98 130 176 229 282 343 407
#     4  10  23  42  70  97 132 177 226 280 342 407
#     4   9  19  38  64  93 126 168 219 272 332 399
#     4  11  25  41  63  96 136 178 226 286 347 411
#
# _framework density 24.030747999999999
#
# number of rings (size 3 to 8) (size 9 to 14) (size 15 to 20)
#    0.000    2.000    0.000    3.000   10.000    4.000 
#    0.000    0.714    0.000    0.000    0.000    0.000 
#    0.000    0.000    0.000    0.000    0.000    0.000 
#
# Total GULP energy -313340.035044 kJ/mol
# GULP energy per Si atom -5595.357769 kJ/mol
# Density = 2.397605 g / cm^3
# Si number density = 24.030748 Si / 1000 Ang^3
#
#
#
# Elastic Constant Matrix: (Units=GPa)
#
#
# Indices 1 2 3 4 5 6 
#
# 1 118.7769 34.6023 20.7825 0.0000 0.0000 0.0000
# 2 34.6023 98.8993 25.0593 0.0000 0.0000 0.0000
# 3 20.7825 25.0593 103.2551 0.0000 0.0000 0.0000
# 4 0.0000 0.0000 0.0000 -0.2564 0.0000 0.0000
# 5 0.0000 0.0000 0.0000 0.0000 -85.7301 0.0000
# 6 0.0000 0.0000 0.0000 0.0000 0.0000 75.9135
#
#
#
# Elastic Compliance Matrix: (Units=1/GPa)
#
#
# Indices 1 2 3 4 5 6 
#
# 1 0.009507 -0.003028 -0.001179 0.000000 0.000000 0.000000
# 2 -0.003028 0.011738 -0.002239 0.000000 0.000000 0.000000
# 3 -0.001179 -0.002239 0.010465 0.000000 0.000000 0.000000
# 4 0.000000 0.000000 0.000000 -3.900511 0.000000 0.000000
# 5 0.000000 0.000000 0.000000 0.000000 -0.011665 0.000000
# 6 0.000000 0.000000 0.000000 0.000000 0.000000 0.013173
#
#
# Mechanical properties :
#
#
# Convention : Reuss Voigt Hill
#
# Bulk Modulus (GPa) = 53.13708 53.53550 53.33629
# Shear Modulus (GPa) = -1.29933 14.01787 6.35927
#
# Velocity S-wave (km/s) = -0.73612 2.41784 1.62851
# Velocity P-wave (km/s) = 4.63008 5.48825 5.07733
#
# Compressibility (1/GPa) = 0.01881925
#
# Stress axis : x y z
#
# Youngs Moduli (GPa) = 105.18076 85.19316 95.55218
#
# Poissons Ratio (x) = 0.25794 0.11264
# Poissons Ratio (y) = 0.31846 0.21397
# Poissons Ratio (z) = 0.12399 0.19078
#
# Static dielectric constant tensor:
#      x y z
#    x 1.886810 0.000000 0.000000 
#    y 0.000000 1.949250 0.000000 
#    z 0.000000 0.000000 1.839440 
# 
# From -- ./inp_files/74524.got.cif
#   From: 2010.05.17/outbox.cif.g08.bks.cpg/sg63_38_cif.got.tgz:74524.got - 2010.06.03 15:47:04.
