data_PCOD9474402
_publ_section_title
;
Structure prediction by ZEFSAII (Michael W. Deem and Ramdas Pophale) SiO2 
 PCOD9474402
Probable space group: C M C M
;
_chemical_formula_sum "Si O2"
_cell_formula_units_Z 32
_cell_length_a 22.857451
_cell_length_b 5.064464
_cell_length_c 11.191842
_cell_angle_alpha 90.000000
_cell_angle_beta 90.000000
_cell_angle_gamma 90.000000
_cell_volume 1295.575886
_symmetry_space_group_name_H-M "C M C M"
_symmetry_group_IT_number 63
_symmetry_cell_setting 'orthorhombic'
loop_
_space_group_symop_operation_xyz
x,y,z
-x,-y,1/2+z
x,-y,-z
-x,y,1/2-z
-x,-y,-z
x,y,1/2-z
-x,y,z
x,-y,1/2+z
1/2+x,1/2+y,z
1/2-x,1/2-y,1/2+z
1/2+x,1/2-y,-z
1/2-x,1/2+y,1/2-z
1/2-x,1/2-y,-z
1/2+x,1/2+y,1/2-z
1/2-x,1/2+y,z
1/2+x,1/2-y,1/2+z
loop_
_atom_site_type_symbol
_atom_site_label
_atom_site_fract_x
_atom_site_fract_y
_atom_site_fract_z
Si Si1 0.000000 0.670873 0.618268
Si Si2 0.369690 0.637364 0.119541
Si Si3 0.707317 0.986639 0.250000
O O1 0.000000 0.500000 0.500000
O O2 0.060748 0.826896 0.612464
O O3 0.000000 0.534323 0.750000
O O4 0.360875 0.500827 0.250000
O O5 0.335951 0.915245 0.139815
O O6 0.348086 0.500000 0.000000
O O7 0.754744 0.747291 0.250000
#
# Coordination Sequence:
#
# PCOD9474402 Si02
#       3
#     8  16   8
#     4  10  21  38  62  98 130 169 217 273 339 403
#     4   9  21  40  62  93 129 167 222 271 335 390
#     4  10  24  43  66  95 134 180 228 272 326 392
#
# _framework density 24.699439000000002
#
# number of rings (size 3 to 8) (size 9 to 14) (size 15 to 20)
#    1.500    1.000    0.000    0.750    0.000    8.000 
#    0.000    0.000    0.000    0.000    0.000    0.000 
#    0.000    0.000    0.000    0.000    0.000    0.000 
#
# Total GULP energy -89195.149149 kJ/mol
# GULP energy per Si atom -5574.696822 kJ/mol
# Density = 2.464322 g / cm^3
# Si number density = 24.699439 Si / 1000 Ang^3
#
#
#
# Elastic Constant Matrix: (Units=GPa)
#
#
# Indices 1 2 3 4 5 6 
#
# 1 153.8154 19.2471 -20.0340 0.0000 0.0000 0.0000
# 2 19.2471 50.5800 31.4961 0.0000 0.0000 0.0000
# 3 -20.0340 31.4961 220.5873 0.0000 0.0000 0.0000
# 4 0.0000 0.0000 0.0000 30.5562 0.0000 0.0000
# 5 0.0000 0.0000 0.0000 0.0000 -55.8981 0.0000
# 6 0.0000 0.0000 0.0000 0.0000 0.0000 32.8443
#
#
#
# Elastic Compliance Matrix: (Units=1/GPa)
#
#
# Indices 1 2 3 4 5 6 
#
# 1 0.007073 -0.003393 0.001127 0.000000 0.000000 0.000000
# 2 -0.003393 0.023328 -0.003639 0.000000 0.000000 0.000000
# 3 0.001127 -0.003639 0.005155 0.000000 0.000000 0.000000
# 4 0.000000 0.000000 0.000000 0.032727 0.000000 0.000000
# 5 0.000000 0.000000 0.000000 0.000000 -0.017890 0.000000
# 6 0.000000 0.000000 0.000000 0.000000 0.000000 0.030447
#
#
# Mechanical properties :
#
#
# Convention : Reuss Voigt Hill
#
# Bulk Modulus (GPa) = 42.11349 54.04458 48.07903
# Shear Modulus (GPa) = 49.71928 27.78540 38.75234
#
# Velocity S-wave (km/s) = 4.49148 3.35765 3.96530
# Velocity P-wave (km/s) = 6.63214 6.07949 6.36182
#
# Compressibility (1/GPa) = 0.02374536
#
# Stress axis : x y z
#
# Youngs Moduli (GPa) = 141.39010 42.86738 193.97617
#
# Poissons Ratio (x) = 0.14545 -0.21857
# Poissons Ratio (y) = 0.47974 0.70587
# Poissons Ratio (z) = -0.15932 0.15599
#
# Static dielectric constant tensor:
#      x y z
#    x 1.997690 0.000000 0.000000 
#    y 0.000000 2.106840 0.000000 
#    z 0.000000 0.000000 1.961070 
# 
# From -- ./inp_files/21849.got.cif
#   From: 2010.05.17/outbox.cif.g08.bks.cpg/sg63_11_cif.got.tgz:21849.got - 2010.06.03 15:47:04.
