data_PCOD9474142
_publ_section_title
;
Structure prediction by ZEFSAII (Michael W. Deem and Ramdas Pophale) SiO2 
 PCOD9474142
Probable space group: C M C M
;
_chemical_formula_sum "Si O2"
_cell_formula_units_Z 68
_cell_length_a 7.222163
_cell_length_b 27.869429
_cell_length_c 14.303939
_cell_angle_alpha 90.000000
_cell_angle_beta 90.000000
_cell_angle_gamma 90.000000
_cell_volume 2879.061925
_symmetry_space_group_name_H-M "C M C M"
_symmetry_group_IT_number 63
_symmetry_cell_setting 'orthorhombic'
loop_
_space_group_symop_operation_xyz
x,y,z
-x,-y,1/2+z
x,-y,-z
-x,y,1/2-z
-x,-y,-z
x,y,1/2-z
-x,y,z
x,-y,1/2+z
1/2+x,1/2+y,z
1/2-x,1/2-y,1/2+z
1/2+x,1/2-y,-z
1/2-x,1/2+y,1/2-z
1/2-x,1/2-y,-z
1/2+x,1/2+y,1/2-z
1/2-x,1/2+y,z
1/2+x,1/2-y,1/2+z
loop_
_atom_site_type_symbol
_atom_site_label
_atom_site_fract_x
_atom_site_fract_y
_atom_site_fract_z
Si Si1 0.224482 0.400187 0.349527
Si Si2 0.000000 0.949133 0.750000
Si Si3 0.779738 0.508508 0.109273
Si Si4 0.225034 0.744206 0.357449
Si Si5 0.709728 0.830391 0.499037
O O1 0.285485 0.378434 0.250000
O O2 0.266894 0.456126 0.349002
O O3 0.294903 0.374363 0.442458
O O4 0.000000 0.396105 0.352255
O O5 0.838866 0.953832 0.667207
O O6 0.000000 0.517470 0.118478
O O7 0.740379 0.500000 0.000000
O O8 0.280977 0.747071 0.250000
O O9 0.292346 0.788426 0.420203
O O10 0.288199 0.695589 0.409741
O O11 0.000000 0.745275 0.361681
O O12 0.500000 0.844303 0.523869
#
# Coordination Sequence:
#
# PCOD9474142 Si02
#       5
#    16   4  16  16  16
#     4   9  16  30  51  74  99 128 168 218 267 314
#     4  12  20  36  60  88 112 152 184 228 284 344
#     4  10  21  37  58  85 116 148 186 231 281 336
#     4   9  17  29  43  66  99 131 164 208 258 309
#     4   9  17  29  48  70  93 129 171 211 254 307
#
# _framework density 23.618803
#
# number of rings (size 3 to 8) (size 9 to 14) (size 15 to 20)
#    0.000    2.588    1.176    1.412    0.000    1.412 
#    2.118    0.000    2.588    0.000    0.000    0.000 
#    0.000    0.000    0.000    0.000    0.000    0.000 
#
# Total GULP energy -189287.757147 kJ/mol
# GULP energy per Si atom -5567.286975 kJ/mol
# Density = 2.356505 g / cm^3
# Si number density = 23.618803 Si / 1000 Ang^3
#
#
#
# Elastic Constant Matrix: (Units=GPa)
#
#
# Indices 1 2 3 4 5 6 
#
# 1 133.6521 -16.4487 11.8686 0.0000 0.0000 0.0000
# 2 -16.4487 11.6470 -12.5624 0.0000 0.0000 0.0000
# 3 11.8686 -12.5624 137.7949 0.0000 0.0000 0.0000
# 4 0.0000 0.0000 0.0000 22.0978 0.0000 0.0000
# 5 0.0000 0.0000 0.0000 0.0000 9.2236 0.0000
# 6 0.0000 0.0000 0.0000 0.0000 0.0000 -5.9930
#
#
#
# Elastic Compliance Matrix: (Units=1/GPa)
#
#
# Indices 1 2 3 4 5 6 
#
# 1 0.009079 0.013285 0.000429 0.000000 0.000000 0.000000
# 2 0.013285 0.114662 0.009309 0.000000 0.000000 0.000000
# 3 0.000429 0.009309 0.008069 0.000000 0.000000 0.000000
# 4 0.000000 0.000000 0.000000 0.045253 0.000000 0.000000
# 5 0.000000 0.000000 0.000000 0.000000 0.108417 0.000000
# 6 0.000000 0.000000 0.000000 0.000000 0.000000 -0.166862
#
#
# Mechanical properties :
#
#
# Convention : Reuss Voigt Hill
#
# Bulk Modulus (GPa) = 5.62251 27.64546 16.63399
# Shear Modulus (GPa) = 37.91983 25.08145 31.50064
#
# Velocity S-wave (km/s) = 4.01121 3.26226 3.65596
# Velocity P-wave (km/s) = 4.88249 5.09117 4.98792
#
# Compressibility (1/GPa) = 0.17785639
#
# Stress axis : x y z
#
# Youngs Moduli (GPa) = 110.14442 8.72128 123.93281
#
# Poissons Ratio (x) = -0.11586 -0.05319
# Poissons Ratio (y) = -1.46326 -1.15371
# Poissons Ratio (z) = -0.04727 -0.08119
#
# Static dielectric constant tensor:
#      x y z
#    x 1.884630 0.000000 0.000000 
#    y 0.000000 1.915410 0.000000 
#    z 0.000000 0.000000 1.736140 
# 
# From -- ./inp_files/27755.got.cif
#   From: 2010.05.17/outbox.cif.g08.bks.cpg/sg63_14_cif.got.tgz:27755.got - 2010.06.03 15:47:04.
