data_PCOD9474666
_publ_section_title
;
Structure prediction by ZEFSAII (Michael W. Deem and Ramdas Pophale) SiO2 
 PCOD9474666
Probable space group: C M C M
;
_chemical_formula_sum "Si O2"
_cell_formula_units_Z 72
_cell_length_a 27.893685
_cell_length_b 9.521981
_cell_length_c 14.270648
_cell_angle_alpha 90.000000
_cell_angle_beta 90.000000
_cell_angle_gamma 90.000000
_cell_volume 3790.328899
_symmetry_space_group_name_H-M "C M C M"
_symmetry_group_IT_number 63
_symmetry_cell_setting 'orthorhombic'
loop_
_space_group_symop_operation_xyz
x,y,z
-x,-y,1/2+z
x,-y,-z
-x,y,1/2-z
-x,-y,-z
x,y,1/2-z
-x,y,z
x,-y,1/2+z
1/2+x,1/2+y,z
1/2-x,1/2-y,1/2+z
1/2+x,1/2-y,-z
1/2-x,1/2+y,1/2-z
1/2-x,1/2-y,-z
1/2+x,1/2+y,1/2-z
1/2-x,1/2+y,z
1/2+x,1/2-y,1/2+z
loop_
_atom_site_type_symbol
_atom_site_label
_atom_site_fract_x
_atom_site_fract_y
_atom_site_fract_z
Si Si1 0.868054 0.500000 0.000000
Si Si2 0.846251 0.987083 0.638169
Si Si3 0.693793 0.275959 0.488259
Si Si4 0.552928 0.387931 0.136480
Si Si5 0.445420 0.060073 0.361882
O O1 0.834714 0.631662 0.021934
O O2 0.904524 0.474460 0.085946
O O3 0.842291 0.972108 0.750000
O O4 0.817481 0.122415 0.599438
O O5 0.901747 0.017772 0.611487
O O6 0.826193 0.856942 0.579665
O O7 0.750000 0.250000 0.500000
O O8 0.552067 0.385912 0.250000
O O9 0.500000 0.434212 0.104997
O O10 0.559867 0.224488 0.109042
O O11 0.440116 0.052886 0.250000
O O12 0.500000 0.016582 0.384584
#
# Coordination Sequence:
#
# PCOD9474666 Si02
#       5
#     8  16  16  16  16
#     4  12  21  36  62  86 120 160 195 238 304 360
#     4  10  21  42  65  86 116 156 199 240 294 356
#     4  11  25  42  59  86 120 152 198 259 300 340
#     4   8  14  30  58  87 115 150 192 236 283 342
#     4   9  18  33  55  87 124 158 194 236 287 356
#
# _framework density 18.995712999999999
#
# number of rings (size 3 to 8) (size 9 to 14) (size 15 to 20)
#    0.000    2.222    2.222    3.000    0.000    1.778 
#    0.000    6.667    0.000    2.667    0.000    0.000 
#    0.000    0.000    0.000    0.000    0.000    0.000 
#
# Total GULP energy -200879.689518 kJ/mol
# GULP energy per Si atom -5579.991376 kJ/mol
# Density = 1.895248 g / cm^3
# Si number density = 18.995713 Si / 1000 Ang^3
#
#
#
# Elastic Constant Matrix: (Units=GPa)
#
#
# Indices 1 2 3 4 5 6 
#
# 1 132.5746 -3.7283 5.3396 0.0000 0.0000 0.0000
# 2 -3.7283 16.7782 -9.0532 0.0000 0.0000 0.0000
# 3 5.3396 -9.0532 72.3847 0.0000 0.0000 0.0000
# 4 0.0000 0.0000 0.0000 24.6670 0.0000 0.0000
# 5 0.0000 0.0000 0.0000 0.0000 25.4870 0.0000
# 6 0.0000 0.0000 0.0000 0.0000 0.0000 19.6174
#
#
#
# Elastic Compliance Matrix: (Units=1/GPa)
#
#
# Indices 1 2 3 4 5 6 
#
# 1 0.007600 0.001487 -0.000375 0.000000 0.000000 0.000000
# 2 0.001487 0.064205 0.007921 0.000000 0.000000 0.000000
# 3 -0.000375 0.007921 0.014833 0.000000 0.000000 0.000000
# 4 0.000000 0.000000 0.000000 0.040540 0.000000 0.000000
# 5 0.000000 0.000000 0.000000 0.000000 0.039236 0.000000
# 6 0.000000 0.000000 0.000000 0.000000 0.000000 0.050975
#
#
# Mechanical properties :
#
#
# Convention : Reuss Voigt Hill
#
# Bulk Modulus (GPa) = 9.55079 22.98375 16.26727
# Shear Modulus (GPa) = 21.34693 29.23290 25.28991
#
# Velocity S-wave (km/s) = 3.35591 3.92716 3.65272
# Velocity P-wave (km/s) = 4.47828 5.71745 5.13538
#
# Compressibility (1/GPa) = 0.10470338
#
# Stress axis : x y z
#
# Youngs Moduli (GPa) = 131.58207 15.57501 67.41573
#
# Poissons Ratio (x) = -0.02315 0.02526
# Poissons Ratio (y) = -0.19561 -0.53397
# Poissons Ratio (z) = 0.04930 -0.12336
#
# Static dielectric constant tensor:
#      x y z
#    x 1.663610 0.000000 0.000000 
#    y 0.000000 1.645780 0.000000 
#    z 0.000000 0.000000 1.663410 
# 
# From -- ./inp_files/37546.got.cif
#   From: 2010.05.17/outbox.cif.g08.bks.cpg/sg63_19_cif.got.tgz:37546.got - 2010.06.03 15:47:04.
