data_PCOD9474526
_publ_section_title
;
Structure prediction by ZEFSAII (Michael W. Deem and Ramdas Pophale) SiO2 
 PCOD9474526
Probable space group: C M C M
;
_chemical_formula_sum "Si O2"
_cell_formula_units_Z 64
_cell_length_a 31.111001
_cell_length_b 11.577518
_cell_length_c 9.438414
_cell_angle_alpha 90.000000
_cell_angle_beta 90.000000
_cell_angle_gamma 90.000000
_cell_volume 3399.605105
_symmetry_space_group_name_H-M "C M C M"
_symmetry_group_IT_number 63
_symmetry_cell_setting 'orthorhombic'
loop_
_space_group_symop_operation_xyz
x,y,z
-x,-y,1/2+z
x,-y,-z
-x,y,1/2-z
-x,-y,-z
x,y,1/2-z
-x,y,z
x,-y,1/2+z
1/2+x,1/2+y,z
1/2-x,1/2-y,1/2+z
1/2+x,1/2-y,-z
1/2-x,1/2+y,1/2-z
1/2-x,1/2-y,-z
1/2+x,1/2+y,1/2-z
1/2-x,1/2+y,z
1/2+x,1/2-y,1/2+z
loop_
_atom_site_type_symbol
_atom_site_label
_atom_site_fract_x
_atom_site_fract_y
_atom_site_fract_z
Si Si1 0.500000 0.619458 0.917059
Si Si2 0.294291 0.274166 0.417204
Si Si3 0.152463 0.000000 0.000000
Si Si4 0.078896 0.174361 0.097161
Si Si5 0.860111 0.614023 0.587361
O O1 0.500000 0.610003 0.750000
O O2 0.500000 0.500000 0.000000
O O3 0.544444 0.672946 0.972505
O O4 0.289314 0.251376 0.250000
O O5 0.250000 0.250000 0.500000
O O6 0.315775 0.402744 0.432793
O O7 0.326013 0.185048 0.494416
O O8 0.117954 0.081369 0.083170
O O9 0.057755 0.151634 0.250000
O O10 0.100010 0.299691 0.097670
O O11 0.870283 0.500000 0.500000
O O12 0.845334 0.591071 0.750000
#
# Coordination Sequence:
#
# PCOD9474526 Si02
#       5
#     8  16   8  16  16
#     4  12  24  36  59  92 127 160 197 245 299 361
#     4  11  24  40  61  88 120 159 205 255 307 363
#     4  10  22  39  64  88 120 158 204 251 308 360
#     4  10  21  39  63  91 122 157 201 249 301 357
#     4  10  22  41  64  89 120 160 204 250 303 362
#
# _framework density 18.825716
#
# number of rings (size 3 to 8) (size 9 to 14) (size 15 to 20)
#    0.000    1.500    1.250    3.375    1.750    8.000 
#    0.000    0.625    0.000    0.000    0.000    0.000 
#    0.000    0.000    0.000    0.000    0.000    0.000 
#
# Total GULP energy -178241.054530 kJ/mol
# GULP energy per Si atom -5570.032954 kJ/mol
# Density = 1.878287 g / cm^3
# Si number density = 18.825716 Si / 1000 Ang^3
#
#
#
# Elastic Constant Matrix: (Units=GPa)
#
#
# Indices 1 2 3 4 5 6 
#
# 1 103.9616 35.7656 72.0151 0.0000 0.0000 0.0000
# 2 35.7656 126.7670 61.9019 0.0000 0.0000 0.0000
# 3 72.0151 61.9019 215.0735 0.0000 0.0000 0.0000
# 4 0.0000 0.0000 0.0000 12.2063 0.0000 0.0000
# 5 0.0000 0.0000 0.0000 0.0000 29.2580 0.0000
# 6 0.0000 0.0000 0.0000 0.0000 0.0000 15.8402
#
#
#
# Elastic Compliance Matrix: (Units=1/GPa)
#
#
# Indices 1 2 3 4 5 6 
#
# 1 0.012858 -0.001775 -0.003795 0.000000 0.000000 0.000000
# 2 -0.001775 0.009423 -0.002118 0.000000 0.000000 0.000000
# 3 -0.003795 -0.002118 0.006530 0.000000 0.000000 0.000000
# 4 0.000000 0.000000 0.000000 0.081925 0.000000 0.000000
# 5 0.000000 0.000000 0.000000 0.000000 0.034179 0.000000
# 6 0.000000 0.000000 0.000000 0.000000 0.000000 0.063130
#
#
# Mechanical properties :
#
#
# Convention : Reuss Voigt Hill
#
# Bulk Modulus (GPa) = 74.42366 87.24080 80.83223
# Shear Modulus (GPa) = 21.93957 29.86887 25.90422
#
# Velocity S-wave (km/s) = 3.41751 3.98754 3.71347
# Velocity P-wave (km/s) = 7.42908 8.22450 7.83689
#
# Compressibility (1/GPa) = 0.01343659
#
# Stress axis : x y z
#
# Youngs Moduli (GPa) = 77.77238 106.11831 153.14566
#
# Poissons Ratio (x) = 0.18834 0.58112
# Poissons Ratio (y) = 0.13803 0.32436
# Poissons Ratio (z) = 0.29511 0.22475
#
# Static dielectric constant tensor:
#      x y z
#    x 1.599560 0.000000 0.000000 
#    y 0.000000 1.667210 0.000000 
#    z 0.000000 0.000000 1.636370 
# 
# From -- ./inp_files/13753.got.cif
#   From: 2010.05.17/outbox.cif.g08.bks.cpg/sg63_7_cif.got.tgz:13753.got - 2010.06.03 15:47:04.
