data_PCOD9474118
_publ_section_title
;
Structure prediction by ZEFSAII (Michael W. Deem and Ramdas Pophale) SiO2 
 PCOD9474118
Probable space group: C M C M
;
_chemical_formula_sum "Si O2"
_cell_formula_units_Z 68
_cell_length_a 12.400935
_cell_length_b 19.259387
_cell_length_c 13.499747
_cell_angle_alpha 90.000000
_cell_angle_beta 90.000000
_cell_angle_gamma 90.000000
_cell_volume 3224.204060
_symmetry_space_group_name_H-M "C M C M"
_symmetry_group_IT_number 63
_symmetry_cell_setting 'orthorhombic'
loop_
_space_group_symop_operation_xyz
x,y,z
-x,-y,1/2+z
x,-y,-z
-x,y,1/2-z
-x,-y,-z
x,y,1/2-z
-x,y,z
x,-y,1/2+z
1/2+x,1/2+y,z
1/2-x,1/2-y,1/2+z
1/2+x,1/2-y,-z
1/2-x,1/2+y,1/2-z
1/2-x,1/2-y,-z
1/2+x,1/2+y,1/2-z
1/2-x,1/2+y,z
1/2+x,1/2-y,1/2+z
loop_
_atom_site_type_symbol
_atom_site_label
_atom_site_fract_x
_atom_site_fract_y
_atom_site_fract_z
Si Si1 0.618468 0.349419 0.063010
Si Si2 0.118633 0.699799 0.136187
Si Si3 0.801711 0.448711 0.364428
Si Si4 0.500000 0.000000 0.500000
Si Si5 0.685169 0.594403 0.361692
O O1 0.500000 0.363787 0.109904
O O2 0.632424 0.266340 0.067277
O O3 0.722888 0.384475 0.111948
O O4 0.615286 0.379023 0.952092
O O5 0.121291 0.726154 0.250000
O O6 0.207345 0.641287 0.129174
O O7 0.000000 0.668152 0.119023
O O8 0.837202 0.446391 0.250000
O O9 0.723429 0.515710 0.375039
O O10 0.903762 0.460082 0.434878
O O11 0.641955 0.603027 0.250000
#
# Coordination Sequence:
#
# PCOD9474118 Si02
#       5
#    16  16  16   4  16
#     4  11  22  40  62  90 124 164 205 254 311 372
#     4   9  19  35  60  89 118 156 204 255 310 369
#     4  11  24  40  63  92 122 158 203 253 304 364
#     4  12  22  44  62  90 124 160 206 252 308 358
#     4  10  21  37  57  86 120 158 203 252 302 361
#
# _framework density 21.090477
#
# number of rings (size 3 to 8) (size 9 to 14) (size 15 to 20)
#    0.000    1.647    2.353    1.765    1.647    3.765 
#    0.000    2.353    0.000    0.000    0.000    0.000 
#    0.000    0.000    0.000    0.000    0.000    0.000 
#
# Total GULP energy -189333.960547 kJ/mol
# GULP energy per Si atom -5568.645898 kJ/mol
# Density = 2.104247 g / cm^3
# Si number density = 21.090477 Si / 1000 Ang^3
#
#
#
# Elastic Constant Matrix: (Units=GPa)
#
#
# Indices 1 2 3 4 5 6 
#
# 1 86.0192 -6.7715 1.5886 0.0000 0.0000 0.0000
# 2 -6.7715 22.4450 -19.6863 0.0000 0.0000 0.0000
# 3 1.5886 -19.6863 54.4415 0.0000 0.0000 0.0000
# 4 0.0000 0.0000 0.0000 28.8579 0.0000 0.0000
# 5 0.0000 0.0000 0.0000 0.0000 13.9933 0.0000
# 6 0.0000 0.0000 0.0000 0.0000 0.0000 110.2929
#
#
#
# Elastic Compliance Matrix: (Units=1/GPa)
#
#
# Indices 1 2 3 4 5 6 
#
# 1 0.011981 0.004844 0.001402 0.000000 0.000000 0.000000
# 2 0.004844 0.067206 0.024161 0.000000 0.000000 0.000000
# 3 0.001402 0.024161 0.027064 0.000000 0.000000 0.000000
# 4 0.000000 0.000000 0.000000 0.034653 0.000000 0.000000
# 5 0.000000 0.000000 0.000000 0.000000 0.071463 0.000000
# 6 0.000000 0.000000 0.000000 0.000000 0.000000 0.009067
#
#
# Mechanical properties :
#
#
# Convention : Reuss Voigt Hill
#
# Bulk Modulus (GPa) = 5.98572 12.57416 9.27994
# Shear Modulus (GPa) = 23.11532 43.14715 33.13124
#
# Velocity S-wave (km/s) = 3.31419 4.52797 3.96777
# Velocity P-wave (km/s) = 4.18204 5.77163 5.03990
#
# Compressibility (1/GPa) = 0.16706424
#
# Stress axis : x y z
#
# Youngs Moduli (GPa) = 83.46713 14.87968 36.94952
#
# Poissons Ratio (x) = -0.07208 -0.05181
# Poissons Ratio (y) = -0.40434 -0.89272
# Poissons Ratio (z) = -0.11703 -0.35950
#
# Static dielectric constant tensor:
#      x y z
#    x 1.727670 0.000000 0.000000 
#    y 0.000000 1.732450 0.000000 
#    z 0.000000 0.000000 1.817550 
# 
# From -- ./inp_files/29459.got.cif
#   From: 2010.05.17/outbox.cif.g08.bks.cpg/sg63_15_cif.got.tgz:29459.got - 2010.06.03 15:47:04.
