data_PCOD9474855
_publ_section_title
;
Structure prediction by ZEFSAII (Michael W. Deem and Ramdas Pophale) SiO2 
 PCOD9474855
Probable space group: C M C M
;
_chemical_formula_sum "Si O2"
_cell_formula_units_Z 96
_cell_length_a 14.774640
_cell_length_b 20.854513
_cell_length_c 17.440989
_cell_angle_alpha 90.000000
_cell_angle_beta 90.000000
_cell_angle_gamma 90.000000
_cell_volume 5373.881287
_symmetry_space_group_name_H-M "C M C M"
_symmetry_group_IT_number 63
_symmetry_cell_setting 'orthorhombic'
loop_
_space_group_symop_operation_xyz
x,y,z
-x,-y,1/2+z
x,-y,-z
-x,y,1/2-z
-x,-y,-z
x,y,1/2-z
-x,y,z
x,-y,1/2+z
1/2+x,1/2+y,z
1/2-x,1/2-y,1/2+z
1/2+x,1/2-y,-z
1/2-x,1/2+y,1/2-z
1/2-x,1/2-y,-z
1/2+x,1/2+y,1/2-z
1/2-x,1/2+y,z
1/2+x,1/2-y,1/2+z
loop_
_atom_site_type_symbol
_atom_site_label
_atom_site_fract_x
_atom_site_fract_y
_atom_site_fract_z
Si Si1 0.000000 0.686017 0.657105
Si Si2 0.195215 0.260615 0.157760
Si Si3 0.000000 0.928081 0.842002
Si Si4 0.309813 0.622692 0.592220
Si Si5 0.310368 0.998962 0.592270
Si Si6 0.500000 0.579974 0.841704
Si Si7 0.311429 0.622167 0.092042
Si Si8 0.500000 0.962832 0.341747
O O1 0.907343 0.720358 0.632995
O O2 0.000000 0.686184 0.750000
O O3 0.000000 0.611816 0.632128
O O4 0.198183 0.260962 0.250000
O O5 0.262631 0.314160 0.125387
O O6 0.216364 0.190368 0.126227
O O7 0.910304 0.896406 0.876543
O O8 0.000000 0.920430 0.750000
O O9 0.000000 0.003942 0.860669
O O10 0.248700 0.561146 0.615055
O O11 0.409858 0.611367 0.624355
O O12 0.313287 0.625447 0.500109
O O13 0.256849 0.934859 0.614654
O O14 0.317916 0.000000 0.500000
O O15 0.409235 0.004455 0.627897
O O16 0.500000 0.585807 0.750000
O O17 0.500000 0.963100 0.250000
#
# Coordination Sequence:
#
# PCOD9474855 Si02
#       8
#     8  16   8  16  16   8  16   8
#     4   9  19  34  57  85 110 144 190 242 292 333
#     4  11  22  39  60  87 122 155 196 250 301 353
#     4  11  22  37  61  92 125 155 191 253 313 353
#     4  11  22  40  62  85 119 163 203 241 291 362
#     4  10  22  39  61  87 119 154 193 240 291 348
#     4  11  23  37  59  91 122 158 203 246 296 363
#     4  11  23  39  61  91 121 155 198 248 303 354
#     4  11  21  36  61  88 114 147 196 245 285 341
#
# _framework density 17.864183000000001
#
# number of rings (size 3 to 8) (size 9 to 14) (size 15 to 20)
#    0.000    1.333    3.333    2.750    0.000    3.333 
#    0.000    0.833    0.000    1.000    0.000    0.000 
#    0.000    0.000    0.000    0.000    0.000    0.000 
#
# Total GULP energy -268295.789593 kJ/mol
# GULP energy per Si atom -5589.495617 kJ/mol
# Density = 1.782352 g / cm^3
# Si number density = 17.864183 Si / 1000 Ang^3
#
#
#
# Elastic Constant Matrix: (Units=GPa)
#
#
# Indices 1 2 3 4 5 6 
#
# 1 161.6353 95.6579 50.0769 0.0000 0.0000 0.0000
# 2 95.6579 181.9214 58.1363 0.0000 0.0000 0.0000
# 3 50.0769 58.1363 55.0529 0.0000 0.0000 0.0000
# 4 0.0000 0.0000 0.0000 30.7188 0.0000 0.0000
# 5 0.0000 0.0000 0.0000 0.0000 20.7287 0.0000
# 6 0.0000 0.0000 0.0000 0.0000 0.0000 26.2367
#
#
#
# Elastic Compliance Matrix: (Units=1/GPa)
#
#
# Indices 1 2 3 4 5 6 
#
# 1 0.009910 -0.003517 -0.005300 0.000000 0.000000 0.000000
# 2 -0.003517 0.009545 -0.006880 0.000000 0.000000 0.000000
# 3 -0.005300 -0.006880 0.030251 0.000000 0.000000 0.000000
# 4 0.000000 0.000000 0.000000 0.032553 0.000000 0.000000
# 5 0.000000 0.000000 0.000000 0.000000 0.048242 0.000000
# 6 0.000000 0.000000 0.000000 0.000000 0.000000 0.038115
#
#
# Mechanical properties :
#
#
# Convention : Reuss Voigt Hill
#
# Bulk Modulus (GPa) = 54.61235 89.59464 72.10350
# Shear Modulus (GPa) = 24.25809 28.51940 26.38874
#
# Velocity S-wave (km/s) = 3.68899 3.99990 3.84759
# Velocity P-wave (km/s) = 6.98442 8.46135 7.75811
#
# Compressibility (1/GPa) = 0.01831088
#
# Stress axis : x y z
#
# Youngs Moduli (GPa) = 100.90315 104.76629 33.05637
#
# Poissons Ratio (x) = 0.36849 0.17521
# Poissons Ratio (y) = 0.35490 0.22744
# Poissons Ratio (z) = 0.53483 0.72082
#
# Static dielectric constant tensor:
#      x y z
#    x 1.581580 0.000000 0.000000 
#    y 0.000000 1.599260 0.000000 
#    z 0.000000 0.000000 1.591380 
# 
# From -- ./inp_files/32031.got.cif
#   From: 2010.05.17/outbox.cif.g08.bks.cpg/sg63_17_cif.got.tgz:32031.got - 2010.06.03 15:47:04.
