data_PCOD9474071
_publ_section_title
;
Structure prediction by ZEFSAII (Michael W. Deem and Ramdas Pophale) SiO2 
 PCOD9474071
Probable space group: C M C M
;
_chemical_formula_sum "Si O2"
_cell_formula_units_Z 84
_cell_length_a 14.523412
_cell_length_b 19.645890
_cell_length_c 15.788324
_cell_angle_alpha 90.000000
_cell_angle_beta 90.000000
_cell_angle_gamma 90.000000
_cell_volume 4504.809143
_symmetry_space_group_name_H-M "C M C M"
_symmetry_group_IT_number 63
_symmetry_cell_setting 'orthorhombic'
loop_
_space_group_symop_operation_xyz
x,y,z
-x,-y,1/2+z
x,-y,-z
-x,y,1/2-z
-x,-y,-z
x,y,1/2-z
-x,y,z
x,-y,1/2+z
1/2+x,1/2+y,z
1/2-x,1/2-y,1/2+z
1/2+x,1/2-y,-z
1/2-x,1/2+y,1/2-z
1/2-x,1/2-y,-z
1/2+x,1/2+y,1/2-z
1/2-x,1/2+y,z
1/2+x,1/2-y,1/2+z
loop_
_atom_site_type_symbol
_atom_site_label
_atom_site_fract_x
_atom_site_fract_y
_atom_site_fract_z
Si Si1 0.896116 0.388985 0.351060
Si Si2 0.000000 0.149075 0.250000
Si Si3 0.251748 0.774095 0.352093
Si Si4 0.253666 0.506470 0.601358
Si Si5 0.837619 0.865124 0.610902
Si Si6 0.107028 0.123975 0.584275
O O1 0.902201 0.380756 0.250000
O O2 0.832872 0.326153 0.381358
O O3 0.839565 0.457816 0.368037
O O4 0.000000 0.388625 0.385483
O O5 0.080782 0.148467 0.176384
O O6 0.254579 0.769758 0.250000
O O7 0.271986 0.700502 0.389786
O O8 0.157258 0.809106 0.380424
O O9 0.246622 0.500000 0.500000
O O10 0.280852 0.432772 0.635420
O O11 0.336328 0.559464 0.620397
O O12 0.878495 0.876990 0.517123
O O13 0.000000 0.120342 0.605039
#
# Coordination Sequence:
#
# PCOD9474071 Si02
#       6
#    16   4  16  16  16  16
#     4   9  19  34  54  76 105 142 183 227 278 329
#     4  12  24  32  58  92 112 148 186 238 296 322
#     4  10  21  37  56  83 111 143 187 238 277 333
#     4   9  21  37  55  80 113 146 183 231 278 334
#     4  11  22  37  56  86 116 143 189 239 285 332
#     4  10  21  39  59  80 115 154 187 226 285 345
#
# _framework density 18.646740000000001
#
# number of rings (size 3 to 8) (size 9 to 14) (size 15 to 20)
#    0.000    2.095    1.905    0.571    4.000    1.905 
#    0.000    0.952    0.000    0.000    0.000    0.000 
#    0.000    0.000    0.000    0.000    0.000    0.000 
#
# Total GULP energy -233875.176846 kJ/mol
# GULP energy per Si atom -5568.456592 kJ/mol
# Density = 1.860430 g / cm^3
# Si number density = 18.646740 Si / 1000 Ang^3
#
#
#
# Elastic Constant Matrix: (Units=GPa)
#
#
# Indices 1 2 3 4 5 6 
#
# 1 123.2184 45.5769 6.5289 0.0000 0.0000 0.0000
# 2 45.5769 118.0292 -4.4541 0.0000 0.0000 0.0000
# 3 6.5289 -4.4541 9.0680 0.0000 0.0000 0.0000
# 4 0.0000 0.0000 0.0000 10.3315 0.0000 0.0000
# 5 0.0000 0.0000 0.0000 0.0000 27.7527 0.0000
# 6 0.0000 0.0000 0.0000 0.0000 0.0000 -0.7849
#
#
#
# Elastic Compliance Matrix: (Units=1/GPa)
#
#
# Indices 1 2 3 4 5 6 
#
# 1 0.010207 -0.004298 -0.009460 0.000000 0.000000 0.000000
# 2 -0.004298 0.010443 0.008224 0.000000 0.000000 0.000000
# 3 -0.009460 0.008224 0.121128 0.000000 0.000000 0.000000
# 4 0.000000 0.000000 0.000000 0.096791 0.000000 0.000000
# 5 0.000000 0.000000 0.000000 0.000000 0.036032 0.000000
# 6 0.000000 0.000000 0.000000 0.000000 0.000000 -1.274125
#
#
# Mechanical properties :
#
#
# Convention : Reuss Voigt Hill
#
# Bulk Modulus (GPa) = 7.65059 38.40212 23.02636
# Shear Modulus (GPa) = -5.29165 20.97081 7.83958
#
# Velocity S-wave (km/s) = -1.68642 3.35720 2.05265
# Velocity P-wave (km/s) = 0.56552 5.97218 4.24186
#
# Compressibility (1/GPa) = 0.13070891
#
# Stress axis : x y z
#
# Youngs Moduli (GPa) = 97.97349 95.76117 8.25571
#
# Poissons Ratio (x) = 0.41162 0.07810
# Poissons Ratio (y) = 0.42113 -0.06790
# Poissons Ratio (z) = 0.92685 -0.78755
#
# Static dielectric constant tensor:
#      x y z
#    x 1.626740 0.000000 0.000000 
#    y 0.000000 1.657770 0.000000 
#    z 0.000000 0.000000 1.657970 
# 
# From -- ./inp_files/31783.got.cif
#   From: 2010.05.17/outbox.cif.g08.bks.cpg/sg63_16_cif.got.tgz:31783.got - 2010.06.03 15:47:04.
