data_PCOD9474296
_publ_section_title
;
Structure prediction by ZEFSAII (Michael W. Deem and Ramdas Pophale) SiO2 
 PCOD9474296
Probable space group: C M C M
;
_chemical_formula_sum "Si O2"
_cell_formula_units_Z 88
_cell_length_a 19.896860
_cell_length_b 25.429192
_cell_length_c 8.295341
_cell_angle_alpha 90.000000
_cell_angle_beta 90.000000
_cell_angle_gamma 90.000000
_cell_volume 4197.119634
_symmetry_space_group_name_H-M "C M C M"
_symmetry_group_IT_number 63
_symmetry_cell_setting 'orthorhombic'
loop_
_space_group_symop_operation_xyz
x,y,z
-x,-y,1/2+z
x,-y,-z
-x,y,1/2-z
-x,-y,-z
x,y,1/2-z
-x,y,z
x,-y,1/2+z
1/2+x,1/2+y,z
1/2-x,1/2-y,1/2+z
1/2+x,1/2-y,-z
1/2-x,1/2+y,1/2-z
1/2-x,1/2-y,-z
1/2+x,1/2+y,1/2-z
1/2-x,1/2+y,z
1/2+x,1/2-y,1/2+z
loop_
_atom_site_type_symbol
_atom_site_label
_atom_site_fract_x
_atom_site_fract_y
_atom_site_fract_z
Si Si1 0.225708 0.849374 0.443065
Si Si2 0.000000 0.191069 0.567072
Si Si3 0.633434 0.258569 0.939431
Si Si4 0.876973 0.361447 0.053354
Si Si5 0.500000 0.938226 0.445787
Si Si6 0.500000 0.416768 0.570235
Si Si7 0.136645 0.051933 0.556972
O O1 0.228742 0.846885 0.250000
O O2 0.196029 0.793023 0.496165
O O3 0.299263 0.869022 0.497124
O O4 0.173479 0.894407 0.489082
O O5 0.066811 0.209024 0.478318
O O6 0.000000 0.128521 0.562365
O O7 0.000000 0.210484 0.750000
O O8 0.644854 0.253411 0.750000
O O9 0.615471 0.199677 0.999524
O O10 0.880403 0.362504 0.250000
O O11 0.933903 0.403605 0.001434
O O12 0.500000 0.939048 0.250000
O O13 0.500000 0.000000 0.500000
O O14 0.500000 0.394021 0.750000
O O15 0.567559 0.448147 0.541397
O O16 0.127092 0.051564 0.750000
O O17 0.175626 0.000000 0.500000
#
# Coordination Sequence:
#
# PCOD9474296 Si02
#       7
#    16   8  16  16   8   8  16
#     4  10  21  38  59  85 122 163 200 246 308 364
#     4  12  23  36  56  84 122 162 197 237 291 348
#     4  11  21  36  61  91 122 160 206 249 297 360
#     4   9  20  39  63  90 121 160 199 245 308 372
#     4  10  21  42  68  91 121 157 205 261 312 370
#     4  12  23  38  59  81 111 149 199 248 291 342
#     4  11  23  38  57  81 116 158 204 250 299 349
#
# _framework density 20.966760000000001
#
# number of rings (size 3 to 8) (size 9 to 14) (size 15 to 20)
#    0.000    1.455    1.818    4.091    0.000    2.909 
#    0.000    4.545    0.000    0.000    0.000    0.000 
#    0.000    0.000    0.000    0.000    0.000    0.000 
#
# Total GULP energy -245333.413382 kJ/mol
# GULP energy per Si atom -5575.759395 kJ/mol
# Density = 2.091904 g / cm^3
# Si number density = 20.966760 Si / 1000 Ang^3
#
#
#
# Elastic Constant Matrix: (Units=GPa)
#
#
# Indices 1 2 3 4 5 6 
#
# 1 143.4063 75.8244 16.6535 0.0000 0.0000 0.0000
# 2 75.8244 158.9535 21.2421 0.0000 0.0000 0.0000
# 3 16.6535 21.2421 22.0984 0.0000 0.0000 0.0000
# 4 0.0000 0.0000 0.0000 25.3200 0.0000 0.0000
# 5 0.0000 0.0000 0.0000 0.0000 -6.9749 0.0000
# 6 0.0000 0.0000 0.0000 0.0000 0.0000 42.2437
#
#
#
# Elastic Compliance Matrix: (Units=1/GPa)
#
#
# Indices 1 2 3 4 5 6 
#
# 1 0.009521 -0.004111 -0.003223 0.000000 0.000000 0.000000
# 2 -0.004111 0.008993 -0.005547 0.000000 0.000000 0.000000
# 3 -0.003223 -0.005547 0.053013 0.000000 0.000000 0.000000
# 4 0.000000 0.000000 0.000000 0.039494 0.000000 0.000000
# 5 0.000000 0.000000 0.000000 0.000000 -0.143371 0.000000
# 6 0.000000 0.000000 0.000000 0.000000 0.000000 0.023672
#
#
# Mechanical properties :
#
#
# Convention : Reuss Voigt Hill
#
# Bulk Modulus (GPa) = 21.85071 61.32205 41.58638
# Shear Modulus (GPa) = 154.59974 26.16697 90.38336
#
# Velocity S-wave (km/s) = 8.59626 3.53657 6.57279
# Velocity P-wave (km/s) = 10.43896 6.78138 8.80224
#
# Compressibility (1/GPa) = 0.04576510
#
# Stress axis : x y z
#
# Youngs Moduli (GPa) = 105.02876 111.19160 18.86321
#
# Poissons Ratio (x) = 0.45711 0.06081
# Poissons Ratio (y) = 0.43178 0.10463
# Poissons Ratio (z) = 0.33856 0.61677
#
# Static dielectric constant tensor:
#      x y z
#    x 1.773630 0.000000 0.000000 
#    y 0.000000 1.783000 0.000000 
#    z 0.000000 0.000000 1.742950 
# 
# From -- ./inp_files/8310.got.cif
#   From: 2010.05.17/outbox.cif.g08.bks.cpg/sg63_5_cif.got.tgz:8310.got - 2010.06.03 15:47:04.
