data_PCOD9474162
_publ_section_title
;
Structure prediction by ZEFSAII (Michael W. Deem and Ramdas Pophale) SiO2 
 PCOD9474162
Probable space group: C M C M
;
_chemical_formula_sum "Si O2"
_cell_formula_units_Z 112
_cell_length_a 13.454002
_cell_length_b 29.498648
_cell_length_c 14.876757
_cell_angle_alpha 90.000000
_cell_angle_beta 90.000000
_cell_angle_gamma 90.000000
_cell_volume 5904.210988
_symmetry_space_group_name_H-M "C M C M"
_symmetry_group_IT_number 63
_symmetry_cell_setting 'orthorhombic'
loop_
_space_group_symop_operation_xyz
x,y,z
-x,-y,1/2+z
x,-y,-z
-x,y,1/2-z
-x,-y,-z
x,y,1/2-z
-x,y,z
x,-y,1/2+z
1/2+x,1/2+y,z
1/2-x,1/2-y,1/2+z
1/2+x,1/2-y,-z
1/2-x,1/2+y,1/2-z
1/2-x,1/2-y,-z
1/2+x,1/2+y,1/2-z
1/2-x,1/2+y,z
1/2+x,1/2-y,1/2+z
loop_
_atom_site_type_symbol
_atom_site_label
_atom_site_fract_x
_atom_site_fract_y
_atom_site_fract_z
Si Si1 0.309362 0.670966 0.351186
Si Si2 0.612464 0.227867 0.144106
Si Si3 0.231991 0.572464 0.347077
Si Si4 0.111253 0.995920 0.391925
Si Si5 0.614514 0.678107 0.954594
Si Si6 0.781685 0.904792 0.355278
Si Si7 0.615346 0.053736 0.980268
O O1 0.341064 0.685570 0.250000
O O2 0.198950 0.691213 0.367696
O O3 0.300074 0.616839 0.350469
O O4 0.372896 0.683046 0.438227
O O5 0.611084 0.239103 0.250000
O O6 0.500000 0.212825 0.119572
O O7 0.636737 0.273454 0.090137
O O8 0.181134 0.570906 0.250000
O O9 0.303943 0.529348 0.356533
O O10 0.155136 0.575442 0.427877
O O11 0.000000 0.008482 0.362589
O O12 0.114845 0.000000 0.500000
O O13 0.136607 0.944658 0.364868
O O14 0.500000 0.666603 0.933405
O O15 0.683263 0.638766 0.912543
O O16 0.768178 0.893957 0.250000
O O17 0.684355 0.927285 0.400863
O O18 0.500000 0.062447 0.963062
O O19 0.628123 0.000000 0.000000
#
# Coordination Sequence:
#
# PCOD9474162 Si02
#       7
#    16  16  16  16  16  16  16
#     4  10  21  37  59  85 116 154 196 239 291 351
#     4   9  19  37  61  89 118 149 192 245 296 347
#     4  11  21  37  58  84 115 150 194 239 288 341
#     4  11  21  36  58  84 119 158 195 237 287 344
#     4  11  22  38  60  89 123 157 195 240 295 352
#     4  12  23  39  61  87 119 155 199 241 289 351
#     4  11  23  41  60  82 115 154 197 245 297 345
#
# _framework density 18.969512000000002
#
# number of rings (size 3 to 8) (size 9 to 14) (size 15 to 20)
#    0.000    1.286    4.286    1.714    0.000    5.714 
#    0.000    4.286    0.000    0.000    0.000    2.000 
#    0.000    0.000    0.000    0.000    0.000    0.000 
#
# Total GULP energy -312579.917493 kJ/mol
# GULP energy per Si atom -5581.784241 kJ/mol
# Density = 1.892634 g / cm^3
# Si number density = 18.969512 Si / 1000 Ang^3
#
#
#
# Elastic Constant Matrix: (Units=GPa)
#
#
# Indices 1 2 3 4 5 6 
#
# 1 50.3950 -6.4959 15.2942 0.0000 0.0000 0.0000
# 2 -6.4959 21.8483 0.9623 0.0000 0.0000 0.0000
# 3 15.2942 0.9623 100.8364 0.0000 0.0000 0.0000
# 4 0.0000 0.0000 0.0000 26.2203 0.0000 0.0000
# 5 0.0000 0.0000 0.0000 0.0000 3.0077 0.0000
# 6 0.0000 0.0000 0.0000 0.0000 0.0000 18.6601
#
#
#
# Elastic Compliance Matrix: (Units=1/GPa)
#
#
# Indices 1 2 3 4 5 6 
#
# 1 0.021713 0.006603 -0.003356 0.000000 0.000000 0.000000
# 2 0.006603 0.047798 -0.001458 0.000000 0.000000 0.000000
# 3 -0.003356 -0.001458 0.010440 0.000000 0.000000 0.000000
# 4 0.000000 0.000000 0.000000 0.038138 0.000000 0.000000
# 5 0.000000 0.000000 0.000000 0.000000 0.332479 0.000000
# 6 0.000000 0.000000 0.000000 0.000000 0.000000 0.053590
#
#
# Mechanical properties :
#
#
# Convention : Reuss Voigt Hill
#
# Bulk Modulus (GPa) = 11.97180 21.40010 16.68595
# Shear Modulus (GPa) = 9.46213 20.46556 14.96384
#
# Velocity S-wave (km/s) = 2.23582 3.28817 2.81167
# Velocity P-wave (km/s) = 3.60416 5.07168 4.39954
#
# Compressibility (1/GPa) = 0.08352963
#
# Stress axis : x y z
#
# Youngs Moduli (GPa) = 46.05535 20.92153 95.78527
#
# Poissons Ratio (x) = -0.13815 0.32148
# Poissons Ratio (y) = -0.30412 0.13963
# Poissons Ratio (z) = 0.15458 0.03050
#
# Static dielectric constant tensor:
#      x y z
#    x 1.649660 0.000000 0.000000 
#    y 0.000000 1.643090 0.000000 
#    z 0.000000 0.000000 1.684300 
# 
# From -- ./inp_files/30436.got.cif
#   From: 2010.05.17/outbox.cif.g08.bks.cpg/sg63_16_cif.got.tgz:30436.got - 2010.06.03 15:47:04.
