data_PCOD9474337
_publ_section_title
;
Structure prediction by ZEFSAII (Michael W. Deem and Ramdas Pophale) SiO2 
 PCOD9474337
Probable space group: C M C M
;
_chemical_formula_sum "Si O2"
_cell_formula_units_Z 96
_cell_length_a 21.514435
_cell_length_b 12.282007
_cell_length_c 17.848378
_cell_angle_alpha 90.000000
_cell_angle_beta 90.000000
_cell_angle_gamma 90.000000
_cell_volume 4716.263279
_symmetry_space_group_name_H-M "C M C M"
_symmetry_group_IT_number 63
_symmetry_cell_setting 'orthorhombic'
loop_
_space_group_symop_operation_xyz
x,y,z
-x,-y,1/2+z
x,-y,-z
-x,y,1/2-z
-x,-y,-z
x,y,1/2-z
-x,y,z
x,-y,1/2+z
1/2+x,1/2+y,z
1/2-x,1/2-y,1/2+z
1/2+x,1/2-y,-z
1/2-x,1/2+y,1/2-z
1/2-x,1/2-y,-z
1/2+x,1/2+y,1/2-z
1/2-x,1/2+y,z
1/2+x,1/2-y,1/2+z
loop_
_atom_site_type_symbol
_atom_site_label
_atom_site_fract_x
_atom_site_fract_y
_atom_site_fract_z
Si Si1 0.169730 0.231735 0.338596
Si Si2 0.000000 0.560807 0.612480
Si Si3 0.000000 0.321281 0.541332
Si Si4 0.193482 0.686267 0.341205
Si Si5 0.391170 0.345382 0.427229
Si Si6 0.925674 0.083905 0.090411
Si Si7 0.137071 0.459869 0.336916
O O1 0.174153 0.246829 0.250000
O O2 0.233723 0.173195 0.359998
O O3 0.107115 0.165065 0.352780
O O4 0.167272 0.352825 0.373456
O O5 0.936203 0.563177 0.657634
O O6 0.000000 0.440991 0.575700
O O7 0.000000 0.653077 0.547761
O O8 0.057850 0.250134 0.568744
O O9 0.185977 0.700099 0.250000
O O10 0.166316 0.790875 0.384684
O O11 0.157394 0.577179 0.367074
O O12 0.413309 0.457935 0.389027
O O13 0.389326 0.383421 0.513877
O O14 0.000000 0.096355 0.079170
O O15 0.155654 0.466044 0.250000
#
# Coordination Sequence:
#
# PCOD9474337 Si02
#       7
#    16   8   8  16  16  16  16
#     4  10  24  42  63  91 123 164 210 253 308 376
#     4  11  21  34  60  93 118 158 201 243 308 369
#     4  11  20  35  60  89 121 162 198 248 298 364
#     4  10  23  42  64  88 123 166 208 255 306 367
#     4  11  21  41  63  90 127 163 209 252 310 369
#     4  11  23  40  66  90 125 166 200 260 318 362
#     4  10  21  38  60  88 122 155 196 255 310 359
#
# _framework density 20.355098000000002
#
# number of rings (size 3 to 8) (size 9 to 14) (size 15 to 20)
#    0.000    1.500    3.333    1.750    3.500    1.667 
#    0.000    0.417    0.000    0.000    0.000    0.000 
#    0.000    0.000    0.000    0.000    0.000    0.000 
#
# Total GULP energy -267428.917862 kJ/mol
# GULP energy per Si atom -5571.435789 kJ/mol
# Density = 2.030877 g / cm^3
# Si number density = 20.355098 Si / 1000 Ang^3
#
#
#
# Elastic Constant Matrix: (Units=GPa)
#
#
# Indices 1 2 3 4 5 6 
#
# 1 70.3559 42.7038 17.4972 0.0000 0.0000 0.0000
# 2 42.7038 138.4519 15.8108 0.0000 0.0000 0.0000
# 3 17.4972 15.8108 14.1617 0.0000 0.0000 0.0000
# 4 0.0000 0.0000 0.0000 29.0856 0.0000 0.0000
# 5 0.0000 0.0000 0.0000 0.0000 39.0270 0.0000
# 6 0.0000 0.0000 0.0000 0.0000 0.0000 26.9343
#
#
#
# Elastic Compliance Matrix: (Units=1/GPa)
#
#
# Indices 1 2 3 4 5 6 
#
# 1 0.022576 -0.004330 -0.023059 0.000000 0.000000 0.000000
# 2 -0.004330 0.009109 -0.004819 0.000000 0.000000 0.000000
# 3 -0.023059 -0.004819 0.104484 0.000000 0.000000 0.000000
# 4 0.000000 0.000000 0.000000 0.034381 0.000000 0.000000
# 5 0.000000 0.000000 0.000000 0.000000 0.025623 0.000000
# 6 0.000000 0.000000 0.000000 0.000000 0.000000 0.037127
#
#
# Mechanical properties :
#
#
# Convention : Reuss Voigt Hill
#
# Bulk Modulus (GPa) = 13.93700 41.66590 27.80145
# Shear Modulus (GPa) = 15.54550 28.80655 22.17603
#
# Velocity S-wave (km/s) = 2.76654 3.76600 3.30427
# Velocity P-wave (km/s) = 4.13120 6.27887 5.31465
#
# Compressibility (1/GPa) = 0.07175143
#
# Stress axis : x y z
#
# Youngs Moduli (GPa) = 44.29391 109.78566 9.57082
#
# Poissons Ratio (x) = 0.47538 0.22070
# Poissons Ratio (y) = 0.19180 0.04613
# Poissons Ratio (z) = 1.02140 0.52910
#
# Static dielectric constant tensor:
#      x y z
#    x 1.711560 0.000000 0.000000 
#    y 0.000000 1.775560 0.000000 
#    z 0.000000 0.000000 1.765770 
# 
# From -- ./inp_files/56598.got.cif
#   From: 2010.05.17/outbox.cif.g08.bks.cpg/sg63_29_cif.got.tgz:56598.got - 2010.06.03 15:47:04.
