data_PCOD9474823
_publ_section_title
;
Structure prediction by ZEFSAII (Michael W. Deem and Ramdas Pophale) SiO2 
 PCOD9474823
Probable space group: C M C M
;
_chemical_formula_sum "Si O2"
_cell_formula_units_Z 84
_cell_length_a 13.899870
_cell_length_b 12.449601
_cell_length_c 22.591438
_cell_angle_alpha 90.000000
_cell_angle_beta 90.000000
_cell_angle_gamma 90.000000
_cell_volume 3909.399446
_symmetry_space_group_name_H-M "C M C M"
_symmetry_group_IT_number 63
_symmetry_cell_setting 'orthorhombic'
loop_
_space_group_symop_operation_xyz
x,y,z
-x,-y,1/2+z
x,-y,-z
-x,y,1/2-z
-x,-y,-z
x,y,1/2-z
-x,y,z
x,-y,1/2+z
1/2+x,1/2+y,z
1/2-x,1/2-y,1/2+z
1/2+x,1/2-y,-z
1/2-x,1/2+y,1/2-z
1/2-x,1/2-y,-z
1/2+x,1/2+y,1/2-z
1/2-x,1/2+y,z
1/2+x,1/2-y,1/2+z
loop_
_atom_site_type_symbol
_atom_site_label
_atom_site_fract_x
_atom_site_fract_y
_atom_site_fract_z
Si Si1 0.116421 0.384516 0.023771
Si Si2 0.608111 0.800569 0.149370
Si Si3 0.000000 0.592403 0.750000
Si Si4 0.387409 0.200049 0.401890
Si Si5 0.745339 0.604889 0.316488
Si Si6 0.888651 0.899649 0.183138
O O1 0.148821 0.346491 0.088151
O O2 0.000000 0.393281 0.029368
O O3 0.151227 0.500000 0.000000
O O4 0.137873 0.301063 0.971013
O O5 0.500000 0.752765 0.138114
O O6 0.583357 0.890991 0.197920
O O7 0.675599 0.708180 0.175101
O O8 0.500000 0.171566 0.397762
O O9 0.325680 0.114054 0.366226
O O10 0.373571 0.310383 0.366545
O O11 0.785861 0.607517 0.250000
O O12 0.681192 0.499478 0.323436
O O13 0.875221 0.854378 0.250000
O O14 0.000000 0.935223 0.179543
#
# Coordination Sequence:
#
# PCOD9474823 Si02
#       6
#    16  16   4  16  16  16
#     4   9  19  37  60  80 116 166 199 238 302 364
#     4   9  17  33  58  87 118 145 191 253 312 350
#     4   8  16  32  58  88 120 142 186 264 312 352
#     4  10  22  39  57  83 123 165 202 239 294 366
#     4  11  20  34  60  89 117 155 204 253 302 350
#     4   9  19  36  60  85 119 159 198 250 312 358
#
# _framework density 21.486677
#
# number of rings (size 3 to 8) (size 9 to 14) (size 15 to 20)
#    0.571    1.905    0.952    1.143    0.000    4.190 
#    0.000    0.952    4.190    5.714    0.000    2.667 
#    0.000    0.000    0.000    0.000    0.000    0.000 
#
# Total GULP energy -234037.218094 kJ/mol
# GULP energy per Si atom -5572.314717 kJ/mol
# Density = 2.143777 g / cm^3
# Si number density = 21.486677 Si / 1000 Ang^3
#
#
#
# Elastic Constant Matrix: (Units=GPa)
#
#
# Indices 1 2 3 4 5 6 
#
# 1 63.3182 12.4479 27.8649 0.0000 0.0000 0.0000
# 2 12.4479 43.4512 37.7406 0.0000 0.0000 0.0000
# 3 27.8649 37.7406 181.5142 0.0000 0.0000 0.0000
# 4 0.0000 0.0000 0.0000 -11.6655 0.0000 0.0000
# 5 0.0000 0.0000 0.0000 0.0000 27.3306 0.0000
# 6 0.0000 0.0000 0.0000 0.0000 0.0000 21.9356
#
#
#
# Elastic Compliance Matrix: (Units=1/GPa)
#
#
# Indices 1 2 3 4 5 6 
#
# 1 0.017302 -0.003234 -0.001984 0.000000 0.000000 0.000000
# 2 -0.003234 0.028691 -0.005469 0.000000 0.000000 0.000000
# 3 -0.001984 -0.005469 0.006951 0.000000 0.000000 0.000000
# 4 0.000000 0.000000 0.000000 -0.085723 0.000000 0.000000
# 5 0.000000 0.000000 0.000000 0.000000 0.036589 0.000000
# 6 0.000000 0.000000 0.000000 0.000000 0.000000 0.045588
#
#
# Mechanical properties :
#
#
# Convention : Reuss Voigt Hill
#
# Bulk Modulus (GPa) = 31.67469 49.37669 40.52569
# Shear Modulus (GPa) = 61.50510 21.53550 41.52030
#
# Velocity S-wave (km/s) = 5.35602 3.16930 4.40065
# Velocity P-wave (km/s) = 7.28167 6.03512 6.68750
#
# Compressibility (1/GPa) = 0.03157094
#
# Stress axis : x y z
#
# Youngs Moduli (GPa) = 57.79692 34.85424 143.86689
#
# Poissons Ratio (x) = 0.11271 0.28540
# Poissons Ratio (y) = 0.18689 0.78681
# Poissons Ratio (z) = 0.11465 0.19062
#
# Static dielectric constant tensor:
#      x y z
#    x 1.809060 0.000000 0.000000 
#    y 0.000000 1.779330 0.000000 
#    z 0.000000 0.000000 1.772860 
# 
# From -- ./inp_files/62672.got.cif
#   From: 2010.05.17/outbox.cif.g08.bks.cpg/sg63_32_cif.got.tgz:62672.got - 2010.06.03 15:47:04.
