data_PCOD9474017
_publ_section_title
;
Structure prediction by ZEFSAII (Michael W. Deem and Ramdas Pophale) SiO2 
 PCOD9474017
Probable space group: C M C M
;
_chemical_formula_sum "Si O2"
_cell_formula_units_Z 64
_cell_length_a 28.425884
_cell_length_b 10.144793
_cell_length_c 12.862422
_cell_angle_alpha 90.000000
_cell_angle_beta 90.000000
_cell_angle_gamma 90.000000
_cell_volume 3709.197202
_symmetry_space_group_name_H-M "C M C M"
_symmetry_group_IT_number 63
_symmetry_cell_setting 'orthorhombic'
loop_
_space_group_symop_operation_xyz
x,y,z
-x,-y,1/2+z
x,-y,-z
-x,y,1/2-z
-x,-y,-z
x,y,1/2-z
-x,y,z
x,-y,1/2+z
1/2+x,1/2+y,z
1/2-x,1/2-y,1/2+z
1/2+x,1/2-y,-z
1/2-x,1/2+y,1/2-z
1/2-x,1/2-y,-z
1/2+x,1/2+y,1/2-z
1/2-x,1/2+y,z
1/2+x,1/2-y,1/2+z
loop_
_atom_site_type_symbol
_atom_site_label
_atom_site_fract_x
_atom_site_fract_y
_atom_site_fract_z
Si Si1 0.254301 0.375800 0.926236
Si Si2 0.932428 0.218105 0.250000
Si Si3 0.928309 0.465193 0.750000
Si Si4 0.000000 0.867255 0.931884
Si Si5 0.178802 0.781665 0.750000
Si Si6 0.500000 0.881579 0.580245
Si Si7 0.183855 0.533727 0.250000
O O1 0.297514 0.348501 0.849502
O O2 0.209522 0.404472 0.851020
O O3 0.261336 0.500000 0.000000
O O4 0.250000 0.250000 0.000000
O O5 0.940266 0.377519 0.250000
O O6 0.956324 0.154713 0.352281
O O7 0.876781 0.201194 0.250000
O O8 0.954095 0.399933 0.651826
O O9 0.872315 0.446433 0.750000
O O10 0.000000 0.751334 0.015948
O O11 0.000000 0.000000 0.000000
O O12 0.191074 0.625122 0.750000
O O13 0.500000 0.000000 0.500000
#
# Coordination Sequence:
#
# PCOD9474017 Si02
#       7
#    16   8   8   8   8   8   8
#     4  11  22  39  59  85 117 154 193 239 295 346
#     4  10  21  40  58  87 119 155 192 243 292 333
#     4  10  21  36  62  91 117 143 202 251 276 337
#     4  11  23  39  61  84 124 158 184 235 298 355
#     4  10  22  38  61  87 117 151 200 242 284 351
#     4  11  19  37  61  89 112 152 195 237 287 338
#     4  10  22  38  59  89 117 153 194 244 292 337
#
# _framework density 17.254407
#
# number of rings (size 3 to 8) (size 9 to 14) (size 15 to 20)
#    0.000    1.500    5.000    0.750    0.000    6.000 
#    0.000    2.500    0.000    0.000    0.000    0.000 
#    0.000    0.000    0.000    0.000    0.000    0.000 
#
# Total GULP energy -178575.825563 kJ/mol
# GULP energy per Si atom -5580.494549 kJ/mol
# Density = 1.721513 g / cm^3
# Si number density = 17.254407 Si / 1000 Ang^3
#
#
#
# Elastic Constant Matrix: (Units=GPa)
#
#
# Indices 1 2 3 4 5 6 
#
# 1 148.9380 64.7158 83.1199 0.0000 0.0000 0.0000
# 2 64.7158 158.3418 100.1473 0.0000 0.0000 0.0000
# 3 83.1199 100.1473 173.2742 0.0000 0.0000 0.0000
# 4 0.0000 0.0000 0.0000 41.9776 0.0000 0.0000
# 5 0.0000 0.0000 0.0000 0.0000 3.4111 0.0000
# 6 0.0000 0.0000 0.0000 0.0000 0.0000 23.0889
#
#
#
# Elastic Compliance Matrix: (Units=1/GPa)
#
#
# Indices 1 2 3 4 5 6 
#
# 1 0.009408 -0.001562 -0.003610 0.000000 0.000000 0.000000
# 2 -0.001562 0.010213 -0.005154 0.000000 0.000000 0.000000
# 3 -0.003610 -0.005154 0.010482 0.000000 0.000000 0.000000
# 4 0.000000 0.000000 0.000000 0.023822 0.000000 0.000000
# 5 0.000000 0.000000 0.000000 0.000000 0.293164 0.000000
# 6 0.000000 0.000000 0.000000 0.000000 0.000000 0.043311
#
#
# Mechanical properties :
#
#
# Convention : Reuss Voigt Hill
#
# Bulk Modulus (GPa) = 105.80591 108.50221 107.15406
# Shear Modulus (GPa) = 12.07140 29.20026 20.63583
#
# Velocity S-wave (km/s) = 2.64789 4.11826 3.46204
# Velocity P-wave (km/s) = 8.41443 9.25385 8.84411
#
# Compressibility (1/GPa) = 0.00945127
#
# Stress axis : x y z
#
# Youngs Moduli (GPa) = 106.29746 97.91023 95.40239
#
# Poissons Ratio (x) = 0.15289 0.34443
# Poissons Ratio (y) = 0.16599 0.49170
# Poissons Ratio (z) = 0.38377 0.50463
#
# Static dielectric constant tensor:
#      x y z
#    x 1.566700 0.000000 0.000000 
#    y 0.000000 1.531120 0.000000 
#    z 0.000000 0.000000 1.583780 
# 
# From -- ./inp_files/25547.got.cif
#   From: 2010.05.17/outbox.cif.g08.bks.cpg/sg63_13_cif.got.tgz:25547.got - 2010.06.03 15:47:04.
