data_PCOD9474307
_publ_section_title
;
Structure prediction by ZEFSAII (Michael W. Deem and Ramdas Pophale) SiO2 
 PCOD9474307
Probable space group: C M C M
;
_chemical_formula_sum "Si O2"
_cell_formula_units_Z 112
_cell_length_a 27.433407
_cell_length_b 14.402412
_cell_length_c 16.593883
_cell_angle_alpha 90.000000
_cell_angle_beta 90.000000
_cell_angle_gamma 90.000000
_cell_volume 6556.363150
_symmetry_space_group_name_H-M "C M C M"
_symmetry_group_IT_number 63
_symmetry_cell_setting 'orthorhombic'
loop_
_space_group_symop_operation_xyz
x,y,z
-x,-y,1/2+z
x,-y,-z
-x,y,1/2-z
-x,-y,-z
x,y,1/2-z
-x,y,z
x,-y,1/2+z
1/2+x,1/2+y,z
1/2-x,1/2-y,1/2+z
1/2+x,1/2-y,-z
1/2-x,1/2+y,1/2-z
1/2-x,1/2-y,-z
1/2+x,1/2+y,1/2-z
1/2-x,1/2+y,z
1/2+x,1/2-y,1/2+z
loop_
_atom_site_type_symbol
_atom_site_label
_atom_site_fract_x
_atom_site_fract_y
_atom_site_fract_z
Si Si1 0.811495 0.291794 0.154361
Si Si2 0.706407 0.488561 0.338887
Si Si3 0.634915 0.628624 0.090995
Si Si4 0.800820 0.508073 0.589770
Si Si5 0.133195 0.150603 0.597101
Si Si6 0.704930 0.797873 0.653405
Si Si7 0.556721 0.482131 0.346905
O O1 0.812807 0.278907 0.250000
O O2 0.855789 0.235146 0.113649
O O3 0.819729 0.400504 0.134644
O O4 0.756930 0.251989 0.128505
O O5 0.729285 0.488986 0.250000
O O6 0.678791 0.582346 0.358511
O O7 0.743439 0.467763 0.409708
O O8 0.665651 0.411231 0.343126
O O9 0.587872 0.568701 0.117247
O O10 0.640688 0.620554 0.995280
O O11 0.820677 0.500000 0.500000
O O12 0.798897 0.406925 0.631301
O O13 0.157989 0.249860 0.611413
O O14 0.079355 0.115077 0.620381
O O15 0.701928 0.787655 0.750000
O O16 0.561589 0.484379 0.250000
O O17 0.500000 0.490194 0.367920
#
# Coordination Sequence:
#
# PCOD9474307 Si02
#       7
#    16  16  16  16  16  16  16
#     4  11  22  35  52  72 103 146 186 222 265 322
#     4  11  19  30  46  68  99 138 178 213 256 312
#     4  11  21  33  52  77 106 139 176 223 272 318
#     4  12  23  33  48  71 101 136 182 226 263 307
#     4  11  21  33  52  77 106 139 176 223 272 318
#     4  11  22  35  52  72 103 146 186 222 265 322
#     4  10  21  38  60  84 111 143 180 223 273 331
#
# _framework density 17.082640999999999
#
# number of rings (size 3 to 8) (size 9 to 14) (size 15 to 20)
#    0.000    1.000    2.857    8.143    0.000    2.286 
#    0.000    0.000    0.000    0.000    0.000    1.000 
#    0.000    8.000    0.000    0.000    0.000    0.000 
#
# Total GULP energy -311769.281059 kJ/mol
# GULP energy per Si atom -5567.308590 kJ/mol
# Density = 1.704376 g / cm^3
# Si number density = 17.082641 Si / 1000 Ang^3
#
#
#
# Elastic Constant Matrix: (Units=GPa)
#
#
# Indices 1 2 3 4 5 6 
#
# 1 70.7807 30.6882 16.1288 0.0000 0.0000 0.0000
# 2 30.6882 101.3068 20.7109 0.0000 0.0000 0.0000
# 3 16.1288 20.7109 84.5078 0.0000 0.0000 0.0000
# 4 0.0000 0.0000 0.0000 20.8248 0.0000 0.0000
# 5 0.0000 0.0000 0.0000 0.0000 14.0859 0.0000
# 6 0.0000 0.0000 0.0000 0.0000 0.0000 13.1954
#
#
#
# Elastic Compliance Matrix: (Units=1/GPa)
#
#
# Indices 1 2 3 4 5 6 
#
# 1 0.016591 -0.004609 -0.002037 0.000000 0.000000 0.000000
# 2 -0.004609 0.011672 -0.001981 0.000000 0.000000 0.000000
# 3 -0.002037 -0.001981 0.012707 0.000000 0.000000 0.000000
# 4 0.000000 0.000000 0.000000 0.048020 0.000000 0.000000
# 5 0.000000 0.000000 0.000000 0.000000 0.070993 0.000000
# 6 0.000000 0.000000 0.000000 0.000000 0.000000 0.075784
#
#
# Mechanical properties :
#
#
# Convention : Reuss Voigt Hill
#
# Bulk Modulus (GPa) = 42.16492 43.51679 42.84085
# Shear Modulus (GPa) = 19.16250 22.22572 20.69411
#
# Velocity S-wave (km/s) = 3.35289 3.61095 3.48431
# Velocity P-wave (km/s) = 6.30283 6.55094 6.42808
#
# Compressibility (1/GPa) = 0.02371640
#
# Stress axis : x y z
#
# Youngs Moduli (GPa) = 60.27472 85.67334 78.69409
#
# Poissons Ratio (x) = 0.39489 0.16028
# Poissons Ratio (y) = 0.27782 0.15588
# Poissons Ratio (z) = 0.12277 0.16971
#
# Static dielectric constant tensor:
#      x y z
#    x 1.598280 0.000000 0.000000 
#    y 0.000000 1.704610 0.000000 
#    z 0.000000 0.000000 1.571360 
# 
# From -- ./inp_files/37910.got.cif
#   From: 2010.05.17/outbox.cif.g08.bks.cpg/sg63_19_cif.got.tgz:37910.got - 2010.06.03 15:47:04.
