data_PCOD9474115
_publ_section_title
;
Structure prediction by ZEFSAII (Michael W. Deem and Ramdas Pophale) SiO2 
 PCOD9474115
Probable space group: C M C M
;
_chemical_formula_sum "Si O2"
_cell_formula_units_Z 80
_cell_length_a 16.421951
_cell_length_b 9.911668
_cell_length_c 26.222280
_cell_angle_alpha 90.000000
_cell_angle_beta 90.000000
_cell_angle_gamma 90.000000
_cell_volume 4268.172359
_symmetry_space_group_name_H-M "C M C M"
_symmetry_group_IT_number 63
_symmetry_cell_setting 'orthorhombic'
loop_
_space_group_symop_operation_xyz
x,y,z
-x,-y,1/2+z
x,-y,-z
-x,y,1/2-z
-x,-y,-z
x,y,1/2-z
-x,y,z
x,-y,1/2+z
1/2+x,1/2+y,z
1/2-x,1/2-y,1/2+z
1/2+x,1/2-y,-z
1/2-x,1/2+y,1/2-z
1/2-x,1/2-y,-z
1/2+x,1/2+y,1/2-z
1/2-x,1/2+y,z
1/2+x,1/2-y,1/2+z
loop_
_atom_site_type_symbol
_atom_site_label
_atom_site_fract_x
_atom_site_fract_y
_atom_site_fract_z
Si Si1 0.910543 0.500003 0.308477
Si Si2 0.844087 0.728436 0.369054
Si Si3 0.178014 0.230861 0.189409
Si Si4 0.243340 0.122429 0.463617
Si Si5 0.402112 0.533578 0.391863
O O1 0.892552 0.539002 0.250000
O O2 0.908676 0.628755 0.344248
O O3 0.850132 0.382159 0.324531
O O4 0.000000 0.437006 0.309126
O O5 0.771395 0.727667 0.327647
O O6 0.804607 0.654895 0.417726
O O7 0.876215 0.877414 0.382216
O O8 0.167798 0.211465 0.250000
O O9 0.126645 0.122623 0.156858
O O10 0.250000 0.250000 0.500000
O O11 0.154958 0.089745 0.438134
O O12 0.266896 0.000000 0.500000
O O13 0.500000 0.543575 0.399834
#
# Coordination Sequence:
#
# PCOD9474115 Si02
#       5
#    16  16  16  16  16
#     4  10  21  37  57  85 122 158 192 238 293 349
#     4  11  22  38  63  88 118 155 203 248 292 362
#     4  10  21  38  60  87 122 164 203 239 289 356
#     4  11  23  44  65  88 117 157 201 252 307 367
#     4  11  24  40  62  93 124 157 199 256 312 359
#
# _framework density 18.743386000000001
#
# number of rings (size 3 to 8) (size 9 to 14) (size 15 to 20)
#    0.000    1.400    2.000    4.200    2.800    4.800 
#    0.000    0.000    0.000    3.000    0.000    0.000 
#    0.000    0.000    0.000    0.000    0.000    0.000 
#
# Total GULP energy -223137.840030 kJ/mol
# GULP energy per Si atom -5578.446001 kJ/mol
# Density = 1.870072 g / cm^3
# Si number density = 18.743386 Si / 1000 Ang^3
#
#
#
# Elastic Constant Matrix: (Units=GPa)
#
#
# Indices 1 2 3 4 5 6 
#
# 1 99.0889 39.8314 22.5851 0.0000 0.0000 0.0000
# 2 39.8314 126.2518 61.3471 0.0000 0.0000 0.0000
# 3 22.5851 61.3471 76.8926 0.0000 0.0000 0.0000
# 4 0.0000 0.0000 0.0000 41.1249 0.0000 0.0000
# 5 0.0000 0.0000 0.0000 0.0000 -67.9776 0.0000
# 6 0.0000 0.0000 0.0000 0.0000 0.0000 25.7219
#
#
#
# Elastic Compliance Matrix: (Units=1/GPa)
#
#
# Indices 1 2 3 4 5 6 
#
# 1 0.011587 -0.003269 -0.000795 0.000000 0.000000 0.000000
# 2 -0.003269 0.013858 -0.010096 0.000000 0.000000 0.000000
# 3 -0.000795 -0.010096 0.021293 0.000000 0.000000 0.000000
# 4 0.000000 0.000000 0.000000 0.024316 0.000000 0.000000
# 5 0.000000 0.000000 0.000000 0.000000 -0.014711 0.000000
# 6 0.000000 0.000000 0.000000 0.000000 0.000000 0.038877
#
#
# Mechanical properties :
#
#
# Convention : Reuss Voigt Hill
#
# Bulk Modulus (GPa) = 54.29469 61.08451 57.68960
# Shear Modulus (GPa) = 38.55600 11.67184 25.11392
#
# Velocity S-wave (km/s) = 4.54039 2.49814 3.66441
# Velocity P-wave (km/s) = 7.51778 6.40169 6.98207
#
# Compressibility (1/GPa) = 0.01841801
#
# Stress axis : x y z
#
# Youngs Moduli (GPa) = 86.30078 72.16127 46.96274
#
# Poissons Ratio (x) = 0.23592 0.03734
# Poissons Ratio (y) = 0.28215 0.47413
# Poissons Ratio (z) = 0.06861 0.72853
#
# Static dielectric constant tensor:
#      x y z
#    x 1.610940 0.000000 0.000000 
#    y 0.000000 1.615080 0.000000 
#    z 0.000000 0.000000 1.669780 
# 
# From -- ./inp_files/69710.got.cif
#   From: 2010.05.17/outbox.cif.g08.bks.cpg/sg63_35_cif.got.tgz:69710.got - 2010.06.03 15:47:04.
