data_PCOD9474774
_publ_section_title
;
Structure prediction by ZEFSAII (Michael W. Deem and Ramdas Pophale) SiO2 
 PCOD9474774
Probable space group: C M C M
;
_chemical_formula_sum "Si O2"
_cell_formula_units_Z 96
_cell_length_a 21.060842
_cell_length_b 27.317442
_cell_length_c 8.525249
_cell_angle_alpha 90.000000
_cell_angle_beta 90.000000
_cell_angle_gamma 90.000000
_cell_volume 4904.817268
_symmetry_space_group_name_H-M "C M C M"
_symmetry_group_IT_number 63
_symmetry_cell_setting 'orthorhombic'
loop_
_space_group_symop_operation_xyz
x,y,z
-x,-y,1/2+z
x,-y,-z
-x,y,1/2-z
-x,-y,-z
x,y,1/2-z
-x,y,z
x,-y,1/2+z
1/2+x,1/2+y,z
1/2-x,1/2-y,1/2+z
1/2+x,1/2-y,-z
1/2-x,1/2+y,1/2-z
1/2-x,1/2-y,-z
1/2+x,1/2+y,1/2-z
1/2-x,1/2+y,z
1/2+x,1/2-y,1/2+z
loop_
_atom_site_type_symbol
_atom_site_label
_atom_site_fract_x
_atom_site_fract_y
_atom_site_fract_z
Si Si1 0.395042 0.282540 0.568840
Si Si2 0.572441 0.824458 0.561395
Si Si3 0.693369 0.113168 0.431704
Si Si4 0.431715 0.391842 0.932599
Si Si5 0.268588 0.698788 0.927936
Si Si6 0.307602 0.554213 0.564156
O O1 0.371073 0.278161 0.750000
O O2 0.419920 0.228783 0.520794
O O3 0.434542 0.332566 0.567268
O O4 0.343267 0.297428 0.440481
O O5 0.581373 0.817449 0.750000
O O6 0.500000 0.841164 0.534948
O O7 0.625704 0.864357 0.510271
O O8 0.685242 0.100222 0.250000
O O9 0.739811 0.159214 0.456221
O O10 0.736886 0.071886 0.511922
O O11 0.428599 0.406694 0.750000
O O12 0.500000 0.409635 0.999034
O O13 0.366432 0.411833 0.006918
O O14 0.247163 0.690027 0.750000
O O15 0.250000 0.750000 0.000000
O O16 0.318648 0.500000 0.500000
O O17 0.308589 0.554962 0.750000
#
# Coordination Sequence:
#
# PCOD9474774 Si02
#       6
#    16  16  16  16  16  16
#     4  11  21  34  56  85 122 166 207 246 287 338
#     4  10  22  38  58  87 125 166 204 244 294 355
#     4  11  22  39  62  87 120 157 197 247 301 360
#     4  10  22  40  61  87 123 164 204 247 296 349
#     4  12  22  33  53  84 118 158 203 247 293 347
#     4  12  26  44  67  91 116 149 196 251 308 364
#
# _framework density 19.572595
#
# number of rings (size 3 to 8) (size 9 to 14) (size 15 to 20)
#    0.000    1.000    3.333    4.500    0.000    3.000 
#    0.000    0.000    0.000    0.500    0.000    0.000 
#    0.000    0.000    0.000    0.000    0.000    0.000 
#
# Total GULP energy -267335.469653 kJ/mol
# GULP energy per Si atom -5569.488951 kJ/mol
# Density = 1.952805 g / cm^3
# Si number density = 19.572595 Si / 1000 Ang^3
#
#
#
# Elastic Constant Matrix: (Units=GPa)
#
#
# Indices 1 2 3 4 5 6 
#
# 1 139.9023 47.6152 41.4363 0.0000 0.0000 0.0000
# 2 47.6152 78.7203 27.1160 0.0000 0.0000 0.0000
# 3 41.4363 27.1160 75.6951 0.0000 0.0000 0.0000
# 4 0.0000 0.0000 0.0000 25.2987 0.0000 0.0000
# 5 0.0000 0.0000 0.0000 0.0000 11.1114 0.0000
# 6 0.0000 0.0000 0.0000 0.0000 0.0000 27.3440
#
#
#
# Elastic Compliance Matrix: (Units=1/GPa)
#
#
# Indices 1 2 3 4 5 6 
#
# 1 0.009837 -0.004672 -0.003711 0.000000 0.000000 0.000000
# 2 -0.004672 0.016710 -0.003429 0.000000 0.000000 0.000000
# 3 -0.003711 -0.003429 0.016471 0.000000 0.000000 0.000000
# 4 0.000000 0.000000 0.000000 0.039528 0.000000 0.000000
# 5 0.000000 0.000000 0.000000 0.000000 0.089998 0.000000
# 6 0.000000 0.000000 0.000000 0.000000 0.000000 0.036571
#
#
# Mechanical properties :
#
#
# Convention : Reuss Voigt Hill
#
# Bulk Modulus (GPa) = 51.56122 58.51693 55.03907
# Shear Modulus (GPa) = 20.90275 24.62749 22.76512
#
# Velocity S-wave (km/s) = 3.27151 3.55105 3.41414
# Velocity P-wave (km/s) = 6.37739 6.83927 6.61236
#
# Compressibility (1/GPa) = 0.01939442
#
# Stress axis : x y z
#
# Youngs Moduli (GPa) = 101.65625 59.84453 60.71356
#
# Poissons Ratio (x) = 0.27957 0.22533
# Poissons Ratio (y) = 0.47491 0.20816
# Poissons Ratio (z) = 0.37729 0.20518
#
# Static dielectric constant tensor:
#      x y z
#    x 1.684980 0.000000 0.000000 
#    y 0.000000 1.641220 0.000000 
#    z 0.000000 0.000000 1.669350 
# 
# From -- ./inp_files/8549.got.cif
#   From: 2010.05.17/outbox.cif.g08.bks.cpg/sg63_5_cif.got.tgz:8549.got - 2010.06.03 15:47:04.
