data_PCOD9474230
_publ_section_title
;
Structure prediction by ZEFSAII (Michael W. Deem and Ramdas Pophale) SiO2 
 PCOD9474230
Probable space group: C M C M
;
_chemical_formula_sum "Si O2"
_cell_formula_units_Z 68
_cell_length_a 7.520765
_cell_length_b 23.266429
_cell_length_c 17.574816
_cell_angle_alpha 90.000000
_cell_angle_beta 90.000000
_cell_angle_gamma 90.000000
_cell_volume 3075.264940
_symmetry_space_group_name_H-M "C M C M"
_symmetry_group_IT_number 63
_symmetry_cell_setting 'orthorhombic'
loop_
_space_group_symop_operation_xyz
x,y,z
-x,-y,1/2+z
x,-y,-z
-x,y,1/2-z
-x,-y,-z
x,y,1/2-z
-x,y,z
x,-y,1/2+z
1/2+x,1/2+y,z
1/2-x,1/2-y,1/2+z
1/2+x,1/2-y,-z
1/2-x,1/2+y,1/2-z
1/2-x,1/2-y,-z
1/2+x,1/2+y,1/2-z
1/2-x,1/2+y,z
1/2+x,1/2-y,1/2+z
loop_
_atom_site_type_symbol
_atom_site_label
_atom_site_fract_x
_atom_site_fract_y
_atom_site_fract_z
Si Si1 0.295260 0.876606 0.365358
Si Si2 0.212059 0.815814 0.981672
Si Si3 0.000000 0.163598 0.750000
Si Si4 0.289904 0.377863 0.834823
Si Si5 0.285689 0.001014 0.412273
O O1 0.500000 0.873387 0.338900
O O2 0.291847 0.854951 0.452166
O O3 0.157203 0.840846 0.315910
O O4 0.233470 0.943112 0.368052
O O5 0.281591 0.834926 0.899086
O O6 0.000000 0.825039 0.982801
O O7 0.250000 0.750000 0.000000
O O8 0.213558 0.373071 0.750000
O O9 0.500000 0.366229 0.828846
O O10 0.269517 0.441824 0.868389
O O11 0.500000 0.000348 0.415246
O O12 0.221159 0.000000 0.500000
#
# Coordination Sequence:
#
# PCOD9474230 Si02
#       5
#    16  16   4  16  16
#     4  11  24  43  67 101 137 179 228 280 338 415
#     4  11  23  44  69  95 131 182 233 285 348 412
#     4  12  26  44  66  98 142 176 230 278 350 400
#     4  10  23  40  64  97 133 174 227 283 339 403
#     4  10  21  37  62  93 133 175 220 269 337 409
#
# _framework density 22.111917999999999
#
# number of rings (size 3 to 8) (size 9 to 14) (size 15 to 20)
#    0.000    1.412    3.529    1.059    3.294    1.882 
#    2.118    0.000    0.000    0.000    0.000    0.000 
#    0.000    0.000    0.000    0.000    0.000    0.000 
#
# Total GULP energy -189607.528518 kJ/mol
# GULP energy per Si atom -5576.692015 kJ/mol
# Density = 2.206159 g / cm^3
# Si number density = 22.111918 Si / 1000 Ang^3
#
#
#
# Elastic Constant Matrix: (Units=GPa)
#
#
# Indices 1 2 3 4 5 6 
#
# 1 100.3133 -11.1728 17.3463 0.0000 0.0000 0.0000
# 2 -11.1728 99.3988 45.8912 0.0000 0.0000 0.0000
# 3 17.3463 45.8912 188.4134 0.0000 0.0000 0.0000
# 4 0.0000 0.0000 0.0000 -5.2917 0.0000 0.0000
# 5 0.0000 0.0000 0.0000 0.0000 95.4250 0.0000
# 6 0.0000 0.0000 0.0000 0.0000 0.0000 19.2693
#
#
#
# Elastic Compliance Matrix: (Units=1/GPa)
#
#
# Indices 1 2 3 4 5 6 
#
# 1 0.010414 0.001818 -0.001401 0.000000 0.000000 0.000000
# 2 0.001818 0.011652 -0.003005 0.000000 0.000000 0.000000
# 3 -0.001401 -0.003005 0.006169 0.000000 0.000000 0.000000
# 4 0.000000 0.000000 0.000000 -0.188976 0.000000 0.000000
# 5 0.000000 0.000000 0.000000 0.000000 0.010479 0.000000
# 6 0.000000 0.000000 0.000000 0.000000 0.000000 0.051896
#
#
# Mechanical properties :
#
#
# Convention : Reuss Voigt Hill
#
# Bulk Modulus (GPa) = 43.37311 54.69499 49.03405
# Shear Modulus (GPa) = -58.47785 44.28457 -7.09664
#
# Velocity S-wave (km/s) = -5.14818 4.48006 -1.79343
# Velocity P-wave (km/s) = 3.95985 7.17987 4.23498
#
# Compressibility (1/GPa) = 0.02305576
#
# Stress axis : x y z
#
# Youngs Moduli (GPa) = 96.02880 85.81950 162.11324
#
# Poissons Ratio (x) = -0.15598 0.22719
# Poissons Ratio (y) = -0.17454 0.48722
# Poissons Ratio (z) = 0.13458 0.25793
#
# Static dielectric constant tensor:
#      x y z
#    x 1.798270 0.000000 0.000000 
#    y 0.000000 1.797440 0.000000 
#    z 0.000000 0.000000 1.864140 
# 
# From -- ./inp_files/27783.got.cif
#   From: 2010.05.17/outbox.cif.g08.bks.cpg/sg63_14_cif.got.tgz:27783.got - 2010.06.03 15:47:04.
