data_PCOD9474795
_publ_section_title
;
Structure prediction by ZEFSAII (Michael W. Deem and Ramdas Pophale) SiO2 
 PCOD9474795
Probable space group: C M C M
;
_chemical_formula_sum "Si O2"
_cell_formula_units_Z 68
_cell_length_a 15.279660
_cell_length_b 20.526769
_cell_length_c 9.969581
_cell_angle_alpha 90.000000
_cell_angle_beta 90.000000
_cell_angle_gamma 90.000000
_cell_volume 3126.879835
_symmetry_space_group_name_H-M "C M C M"
_symmetry_group_IT_number 63
_symmetry_cell_setting 'orthorhombic'
loop_
_space_group_symop_operation_xyz
x,y,z
-x,-y,1/2+z
x,-y,-z
-x,y,1/2-z
-x,-y,-z
x,y,1/2-z
-x,y,z
x,-y,1/2+z
1/2+x,1/2+y,z
1/2-x,1/2-y,1/2+z
1/2+x,1/2-y,-z
1/2-x,1/2+y,1/2-z
1/2-x,1/2-y,-z
1/2+x,1/2+y,1/2-z
1/2-x,1/2+y,z
1/2+x,1/2-y,1/2+z
loop_
_atom_site_type_symbol
_atom_site_label
_atom_site_fract_x
_atom_site_fract_y
_atom_site_fract_z
Si Si1 0.394323 0.439834 0.093667
Si Si2 0.500000 0.840053 0.750000
Si Si3 0.394746 0.053288 0.896812
Si Si4 0.845544 0.180473 0.403701
Si Si5 0.645298 0.817783 0.977125
O O1 0.362967 0.440758 0.250000
O O2 0.500000 0.443890 0.100546
O O3 0.363520 0.500000 0.000000
O O4 0.371661 0.374489 0.011255
O O5 0.575748 0.837776 0.866276
O O6 0.378601 0.026813 0.750000
O O7 0.500000 0.060550 0.912411
O O8 0.352216 0.123016 0.918202
O O9 0.362590 0.000000 0.000000
O O10 0.871601 0.165032 0.250000
O O11 0.740657 0.188474 0.411719
O O12 0.881135 0.250315 0.452423
#
# Coordination Sequence:
#
# PCOD9474795 Si02
#       5
#    16   4  16  16  16
#     4  10  23  43  70 101 137 178 226 273 330 404
#     4  12  24  44  72  96 126 188 220 282 320 412
#     4  10  22  38  61  91 125 166 217 270 322 385
#     4  11  25  43  66  98 136 172 215 282 336 394
#     4  11  25  42  68  94 134 170 227 272 335 395
#
# _framework density 21.746917
#
# number of rings (size 3 to 8) (size 9 to 14) (size 15 to 20)
#    0.000    1.412    2.353    1.412    4.941    4.235 
#    0.000    0.000    0.000    0.000    0.000    0.000 
#    0.000    0.000    0.000    0.000    0.000    0.000 
#
# Total GULP energy -189528.859580 kJ/mol
# GULP energy per Si atom -5574.378223 kJ/mol
# Density = 2.169742 g / cm^3
# Si number density = 21.746917 Si / 1000 Ang^3
#
#
#
# Elastic Constant Matrix: (Units=GPa)
#
#
# Indices 1 2 3 4 5 6 
#
# 1 29.7118 -23.0750 5.5802 0.0000 0.0000 0.0000
# 2 -23.0750 149.7024 75.6510 0.0000 0.0000 0.0000
# 3 5.5802 75.6510 201.1082 0.0000 0.0000 0.0000
# 4 0.0000 0.0000 0.0000 9.3484 0.0000 0.0000
# 5 0.0000 0.0000 0.0000 0.0000 46.3152 0.0000
# 6 0.0000 0.0000 0.0000 0.0000 0.0000 9.9944
#
#
#
# Elastic Compliance Matrix: (Units=1/GPa)
#
#
# Indices 1 2 3 4 5 6 
#
# 1 0.041101 0.008534 -0.004351 0.000000 0.000000 0.000000
# 2 0.008534 0.010020 -0.004006 0.000000 0.000000 0.000000
# 3 -0.004351 -0.004006 0.006600 0.000000 0.000000 0.000000
# 4 0.000000 0.000000 0.000000 0.106970 0.000000 0.000000
# 5 0.000000 0.000000 0.000000 0.000000 0.021591 0.000000
# 6 0.000000 0.000000 0.000000 0.000000 0.000000 0.100056
#
#
# Mechanical properties :
#
#
# Convention : Reuss Voigt Hill
#
# Bulk Modulus (GPa) = 17.21888 55.20386 36.21137
# Shear Modulus (GPa) = 16.37506 34.62268 25.49887
#
# Velocity S-wave (km/s) = 2.74703 3.99441 3.42793
# Velocity P-wave (km/s) = 4.24224 6.83473 5.68815
#
# Compressibility (1/GPa) = 0.05807578
#
# Stress axis : x y z
#
# Youngs Moduli (GPa) = 24.33010 99.80361 151.51359
#
# Poissons Ratio (x) = -0.85171 0.65918
# Poissons Ratio (y) = -0.20763 0.60695
# Poissons Ratio (z) = 0.10585 0.39980
#
# Static dielectric constant tensor:
#      x y z
#    x 1.803850 0.000000 0.000000 
#    y 0.000000 1.769860 0.000000 
#    z 0.000000 0.000000 1.719840 
# 
# From -- ./inp_files/5873.got.cif
#   From: 2010.05.17/outbox.cif.g08.bks.cpg/sg63_3_cif.got.tgz:5873.got - 2010.06.03 15:47:04.
