data_PCOD9474023
_publ_section_title
;
Structure prediction by ZEFSAII (Michael W. Deem and Ramdas Pophale) SiO2 
 PCOD9474023
Probable space group: C M C M
;
_chemical_formula_sum "Si O2"
_cell_formula_units_Z 96
_cell_length_a 27.616649
_cell_length_b 8.878329
_cell_length_c 20.800006
_cell_angle_alpha 90.000000
_cell_angle_beta 90.000000
_cell_angle_gamma 90.000000
_cell_volume 5099.947142
_symmetry_space_group_name_H-M "C M C M"
_symmetry_group_IT_number 63
_symmetry_cell_setting 'orthorhombic'
loop_
_space_group_symop_operation_xyz
x,y,z
-x,-y,1/2+z
x,-y,-z
-x,y,1/2-z
-x,-y,-z
x,y,1/2-z
-x,y,z
x,-y,1/2+z
1/2+x,1/2+y,z
1/2-x,1/2-y,1/2+z
1/2+x,1/2-y,-z
1/2-x,1/2+y,1/2-z
1/2-x,1/2-y,-z
1/2+x,1/2+y,1/2-z
1/2-x,1/2+y,z
1/2+x,1/2-y,1/2+z
loop_
_atom_site_type_symbol
_atom_site_label
_atom_site_fract_x
_atom_site_fract_y
_atom_site_fract_z
Si Si1 0.712026 0.875527 0.085769
Si Si2 0.374017 0.186296 0.824169
Si Si3 0.944374 0.844858 0.921347
Si Si4 0.446306 0.091312 0.178007
Si Si5 0.919755 0.194850 0.936551
Si Si6 0.808935 0.725366 0.444205
O O1 0.679123 0.825367 0.145101
O O2 0.768639 0.834367 0.086527
O O3 0.702394 0.053580 0.076889
O O4 0.694918 0.785288 0.021804
O O5 0.372346 0.231986 0.750000
O O6 0.406878 0.292046 0.868066
O O7 0.402843 0.027425 0.828077
O O8 0.000000 0.816680 0.903865
O O9 0.936125 0.022874 0.929735
O O10 0.933617 0.764342 0.989931
O O11 0.442340 0.160270 0.250000
O O12 0.500000 0.018293 0.175453
O O13 0.443178 0.206353 0.119384
O O14 0.862356 0.218258 0.928778
#
# Coordination Sequence:
#
# PCOD9474023 Si02
#       6
#    16  16  16  16  16  16
#     4  10  21  39  59  95 117 154 197 245 307 362
#     4  11  23  41  61  86 125 163 203 251 300 363
#     4  11  24  38  60  92 127 164 206 252 303 360
#     4  10  21  38  61  87 119 161 203 247 301 360
#     4  11  21  39  62  91 121 158 201 257 306 358
#     4  10  21  36  67  89 120 149 198 251 304 366
#
# _framework density 18.823725
#
# number of rings (size 3 to 8) (size 9 to 14) (size 15 to 20)
#    0.000    1.500    3.333    2.500    2.333    3.667 
#    0.000    3.333    0.000    0.000    0.000    0.000 
#    0.000    0.000    0.000    0.000    0.000    0.000 
#
# Total GULP energy -267859.085146 kJ/mol
# GULP energy per Si atom -5580.397607 kJ/mol
# Density = 1.878088 g / cm^3
# Si number density = 18.823725 Si / 1000 Ang^3
#
#
#
# Elastic Constant Matrix: (Units=GPa)
#
#
# Indices 1 2 3 4 5 6 
#
# 1 105.1363 0.5859 20.9154 0.0000 0.0000 0.0000
# 2 0.5859 21.6674 24.4069 0.0000 0.0000 0.0000
# 3 20.9154 24.4069 117.9613 0.0000 0.0000 0.0000
# 4 0.0000 0.0000 0.0000 16.9838 0.0000 0.0000
# 5 0.0000 0.0000 0.0000 0.0000 37.5665 0.0000
# 6 0.0000 0.0000 0.0000 0.0000 0.0000 28.7809
#
#
#
# Elastic Compliance Matrix: (Units=1/GPa)
#
#
# Indices 1 2 3 4 5 6 
#
# 1 0.009942 0.002239 -0.002226 0.000000 0.000000 0.000000
# 2 0.002239 0.060682 -0.012952 0.000000 0.000000 0.000000
# 3 -0.002226 -0.012952 0.011552 0.000000 0.000000 0.000000
# 4 0.000000 0.000000 0.000000 0.058880 0.000000 0.000000
# 5 0.000000 0.000000 0.000000 0.000000 0.026619 0.000000
# 6 0.000000 0.000000 0.000000 0.000000 0.000000 0.034745
#
#
# Mechanical properties :
#
#
# Convention : Reuss Voigt Hill
#
# Bulk Modulus (GPa) = 17.76327 37.39795 27.58061
# Shear Modulus (GPa) = 20.23762 29.92334 25.08048
#
# Velocity S-wave (km/s) = 3.28245 3.99138 3.65415
# Velocity P-wave (km/s) = 4.88089 6.41499 5.69979
#
# Compressibility (1/GPa) = 0.05629594
#
# Stress axis : x y z
#
# Youngs Moduli (GPa) = 100.58532 16.47947 86.56558
#
# Poissons Ratio (x) = -0.03689 0.19269
# Poissons Ratio (y) = -0.22516 1.12122
# Poissons Ratio (z) = 0.22390 0.21345
#
# Static dielectric constant tensor:
#      x y z
#    x 1.643430 0.000000 0.000000 
#    y 0.000000 1.651710 0.000000 
#    z 0.000000 0.000000 1.650190 
# 
# From -- ./inp_files/58052.got.cif
#   From: 2010.05.17/outbox.cif.g08.bks.cpg/sg63_30_cif.got.tgz:58052.got - 2010.06.03 15:47:04.
