data_PCOD9474945
_publ_section_title
;
Structure prediction by ZEFSAII (Michael W. Deem and Ramdas Pophale) SiO2 
 PCOD9474945
Probable space group: C M C M
;
_chemical_formula_sum "Si O2"
_cell_formula_units_Z 80
_cell_length_a 16.661095
_cell_length_b 11.926699
_cell_length_c 18.891590
_cell_angle_alpha 90.000000
_cell_angle_beta 90.000000
_cell_angle_gamma 90.000000
_cell_volume 3753.983083
_symmetry_space_group_name_H-M "C M C M"
_symmetry_group_IT_number 63
_symmetry_cell_setting 'orthorhombic'
loop_
_space_group_symop_operation_xyz
x,y,z
-x,-y,1/2+z
x,-y,-z
-x,y,1/2-z
-x,-y,-z
x,y,1/2-z
-x,y,z
x,-y,1/2+z
1/2+x,1/2+y,z
1/2-x,1/2-y,1/2+z
1/2+x,1/2-y,-z
1/2-x,1/2+y,1/2-z
1/2-x,1/2-y,-z
1/2+x,1/2+y,1/2-z
1/2-x,1/2+y,z
1/2+x,1/2-y,1/2+z
loop_
_atom_site_type_symbol
_atom_site_label
_atom_site_fract_x
_atom_site_fract_y
_atom_site_fract_z
Si Si1 0.403254 0.057318 0.172305
Si Si2 0.092435 0.308178 0.966010
Si Si3 0.408162 0.375106 0.833760
Si Si4 0.153129 0.928850 0.430773
Si Si5 0.677545 0.158190 0.612743
O O1 0.378475 0.099454 0.250000
O O2 0.500000 0.051686 0.171290
O O3 0.378621 0.134305 0.106465
O O4 0.367526 0.934985 0.158918
O O5 0.099610 0.174783 0.956946
O O6 0.000000 0.340228 0.978226
O O7 0.143929 0.345722 0.032734
O O8 0.401095 0.394821 0.750000
O O9 0.500000 0.336381 0.848450
O O10 0.391160 0.487230 0.877721
O O11 0.345851 0.279785 0.857809
O O12 0.229823 0.874156 0.392725
O O13 0.177940 0.000000 0.500000
#
# Coordination Sequence:
#
# PCOD9474945 Si02
#       5
#    16  16  16  16  16
#     4  10  22  40  63  94 133 173 219 277 339 401
#     4  11  23  41  69  97 130 179 230 277 331 402
#     4  11  26  47  71 100 135 178 228 276 332 407
#     4  12  26  43  68  99 139 176 222 280 342 397
#     4  12  24  41  69 100 132 176 223 283 331 397
#
# _framework density 21.310699
#
# number of rings (size 3 to 8) (size 9 to 14) (size 15 to 20)
#    0.000    0.800    2.000    5.400    2.800    6.400 
#    0.000    2.000    0.000    0.000    0.000    0.000 
#    0.000    0.000    0.000    0.000    0.000    0.000 
#
# Total GULP energy -223897.273077 kJ/mol
# GULP energy per Si atom -5597.431827 kJ/mol
# Density = 2.126219 g / cm^3
# Si number density = 21.310699 Si / 1000 Ang^3
#
#
#
# Elastic Constant Matrix: (Units=GPa)
#
#
# Indices 1 2 3 4 5 6 
#
# 1 41.0921 9.9118 19.6066 0.0000 0.0000 0.0000
# 2 9.9118 42.5708 0.8470 0.0000 0.0000 0.0000
# 3 19.6066 0.8470 99.9367 0.0000 0.0000 0.0000
# 4 0.0000 0.0000 0.0000 30.0959 0.0000 0.0000
# 5 0.0000 0.0000 0.0000 0.0000 -10.1975 0.0000
# 6 0.0000 0.0000 0.0000 0.0000 0.0000 44.9309
#
#
#
# Elastic Compliance Matrix: (Units=1/GPa)
#
#
# Indices 1 2 3 4 5 6 
#
# 1 0.028560 -0.006539 -0.005548 0.000000 0.000000 0.000000
# 2 -0.006539 0.024992 0.001071 0.000000 0.000000 0.000000
# 3 -0.005548 0.001071 0.011086 0.000000 0.000000 0.000000
# 4 0.000000 0.000000 0.000000 0.033227 0.000000 0.000000
# 5 0.000000 0.000000 0.000000 0.000000 -0.098064 0.000000
# 6 0.000000 0.000000 0.000000 0.000000 0.000000 0.022256
#
#
# Mechanical properties :
#
#
# Convention : Reuss Voigt Hill
#
# Bulk Modulus (GPa) = 23.47123 27.14783 25.30953
# Shear Modulus (GPa) = 85.77722 23.18147 54.47935
#
# Velocity S-wave (km/s) = 6.35123 3.30174 5.06160
# Velocity P-wave (km/s) = 8.05121 5.22513 6.78690
#
# Compressibility (1/GPa) = 0.04260535
#
# Stress axis : x y z
#
# Youngs Moduli (GPa) = 35.01410 40.01355 90.20661
#
# Poissons Ratio (x) = 0.26166 0.50044
# Poissons Ratio (y) = 0.22897 -0.09662
# Poissons Ratio (z) = 0.19425 -0.04286
#
# Static dielectric constant tensor:
#      x y z
#    x 1.758510 0.000000 0.000000 
#    y 0.000000 1.739050 0.000000 
#    z 0.000000 0.000000 1.750340 
# 
# From -- ./inp_files/53999.got.cif
#   From: 2010.05.17/outbox.cif.g08.bks.cpg/sg63_27_cif.got.tgz:53999.got - 2010.06.03 15:47:04.
