data_PCOD9474400
_publ_section_title
;
Structure prediction by ZEFSAII (Michael W. Deem and Ramdas Pophale) SiO2 
 PCOD9474400
Probable space group: C M C M
;
_chemical_formula_sum "Si O2"
_cell_formula_units_Z 96
_cell_length_a 26.051695
_cell_length_b 8.264083
_cell_length_c 19.653856
_cell_angle_alpha 90.000000
_cell_angle_beta 90.000000
_cell_angle_gamma 90.000000
_cell_volume 4231.344887
_symmetry_space_group_name_H-M "C M C M"
_symmetry_group_IT_number 63
_symmetry_cell_setting 'orthorhombic'
loop_
_space_group_symop_operation_xyz
x,y,z
-x,-y,1/2+z
x,-y,-z
-x,y,1/2-z
-x,-y,-z
x,y,1/2-z
-x,y,z
x,-y,1/2+z
1/2+x,1/2+y,z
1/2-x,1/2-y,1/2+z
1/2+x,1/2-y,-z
1/2-x,1/2+y,1/2-z
1/2-x,1/2-y,-z
1/2+x,1/2+y,1/2-z
1/2-x,1/2+y,z
1/2+x,1/2-y,1/2+z
loop_
_atom_site_type_symbol
_atom_site_label
_atom_site_fract_x
_atom_site_fract_y
_atom_site_fract_z
Si Si1 0.644518 0.354056 0.097236
Si Si2 0.056680 0.936709 0.831988
Si Si3 0.253043 0.896641 0.052450
Si Si4 0.071527 0.431363 0.327590
Si Si5 0.313908 0.031889 0.326993
Si Si6 0.443404 0.844918 0.952824
O O1 0.605392 0.465905 0.139784
O O2 0.693793 0.445000 0.067197
O O3 0.671508 0.206431 0.139771
O O4 0.605088 0.273253 0.043554
O O5 0.059821 0.938360 0.750000
O O6 0.057176 0.747460 0.852818
O O7 0.000000 0.003988 0.851048
O O8 0.278369 0.922462 0.125085
O O9 0.250000 0.750000 0.000000
O O10 0.287212 0.000000 0.000000
O O11 0.053715 0.453812 0.250000
O O12 0.132647 0.438405 0.324722
O O13 0.055775 0.576845 0.376984
O O14 0.294164 0.053521 0.250000
O O15 0.500000 0.776129 0.968386
O O16 0.435348 0.000000 0.000000
#
# Coordination Sequence:
#
# PCOD9474400 Si02
#       6
#    16  16  16  16  16  16
#     4  11  24  40  66  89 130 165 216 264 324 377
#     4  10  21  38  62  97 135 169 209 262 321 378
#     4  12  27  46  67  96 126 173 217 270 332 393
#     4   9  20  38  65  95 127 170 210 259 317 379
#     4  10  23  43  67  95 128 166 219 269 323 389
#     4  10  22  39  63  92 126 169 209 253 307 375
#
# _framework density 22.687822000000001
#
# number of rings (size 3 to 8) (size 9 to 14) (size 15 to 20)
#    0.000    1.667    1.667    1.500    7.000    3.000 
#    0.000    0.000    0.000    4.000    0.000    0.000 
#    0.000    0.000    0.000    0.000    0.000    0.000 
#
# Total GULP energy -267399.502274 kJ/mol
# GULP energy per Si atom -5570.822964 kJ/mol
# Density = 2.263618 g / cm^3
# Si number density = 22.687822 Si / 1000 Ang^3
#
#
#
# Elastic Constant Matrix: (Units=GPa)
#
#
# Indices 1 2 3 4 5 6 
#
# 1 150.2525 -1.4477 33.7402 0.0000 0.0000 0.0000
# 2 -1.4477 28.2727 0.1046 0.0000 0.0000 0.0000
# 3 33.7402 0.1046 75.3052 0.0000 0.0000 0.0000
# 4 0.0000 0.0000 0.0000 29.8103 0.0000 0.0000
# 5 0.0000 0.0000 0.0000 0.0000 23.1780 0.0000
# 6 0.0000 0.0000 0.0000 0.0000 0.0000 2.2867
#
#
#
# Elastic Compliance Matrix: (Units=1/GPa)
#
#
# Indices 1 2 3 4 5 6 
#
# 1 0.007404 0.000391 -0.003318 0.000000 0.000000 0.000000
# 2 0.000391 0.035391 -0.000225 0.000000 0.000000 0.000000
# 3 -0.003318 -0.000225 0.014766 0.000000 0.000000 0.000000
# 4 0.000000 0.000000 0.000000 0.033545 0.000000 0.000000
# 5 0.000000 0.000000 0.000000 0.000000 0.043144 0.000000
# 6 0.000000 0.000000 0.000000 0.000000 0.000000 0.437315
#
#
# Mechanical properties :
#
#
# Convention : Reuss Voigt Hill
#
# Bulk Modulus (GPa) = 19.50878 35.40273 27.45575
# Shear Modulus (GPa) = 8.40400 25.81723 17.11061
#
# Velocity S-wave (km/s) = 1.92672 3.37699 2.74921
# Velocity P-wave (km/s) = 3.68335 5.55370 4.71225
#
# Compressibility (1/GPa) = 0.05125897
#
# Stress axis : x y z
#
# Youngs Moduli (GPa) = 135.05638 28.25604 67.72214
#
# Poissons Ratio (x) = -0.01106 0.22470
# Poissons Ratio (y) = -0.05286 0.01520
# Poissons Ratio (z) = 0.44812 0.00634
#
# Static dielectric constant tensor:
#      x y z
#    x 1.853350 0.000000 0.000000 
#    y 0.000000 2.002190 0.000000 
#    z 0.000000 0.000000 1.817050 
# 
# From -- ./inp_files/58091.got.cif
#   From: 2010.05.17/outbox.cif.g08.bks.cpg/sg63_30_cif.got.tgz:58091.got - 2010.06.03 15:47:04.
