data_PCOD9474185
_publ_section_title
;
Structure prediction by ZEFSAII (Michael W. Deem and Ramdas Pophale) SiO2 
 PCOD9474185
Probable space group: C M C M
;
_chemical_formula_sum "Si O2"
_cell_formula_units_Z 52
_cell_length_a 7.736471
_cell_length_b 19.140957
_cell_length_c 13.592042
_cell_angle_alpha 90.000000
_cell_angle_beta 90.000000
_cell_angle_gamma 90.000000
_cell_volume 2012.756591
_symmetry_space_group_name_H-M "C M C M"
_symmetry_group_IT_number 63
_symmetry_cell_setting 'orthorhombic'
loop_
_space_group_symop_operation_xyz
x,y,z
-x,-y,1/2+z
x,-y,-z
-x,y,1/2-z
-x,-y,-z
x,y,1/2-z
-x,y,z
x,-y,1/2+z
1/2+x,1/2+y,z
1/2-x,1/2-y,1/2+z
1/2+x,1/2-y,-z
1/2-x,1/2+y,1/2-z
1/2-x,1/2-y,-z
1/2+x,1/2+y,1/2-z
1/2-x,1/2+y,z
1/2+x,1/2-y,1/2+z
loop_
_atom_site_type_symbol
_atom_site_label
_atom_site_fract_x
_atom_site_fract_y
_atom_site_fract_z
Si Si1 0.297419 0.595237 0.080988
Si Si2 0.195607 0.254930 0.887776
Si Si3 0.000000 0.293880 0.250000
Si Si4 0.204351 0.439045 0.139604
O O1 0.500000 0.599630 0.103406
O O2 0.208042 0.661678 0.129943
O O3 0.226714 0.522021 0.120947
O O4 0.277597 0.593639 0.961401
O O5 0.345828 0.215214 0.832110
O O6 0.000000 0.230990 0.869792
O O7 0.250000 0.250000 0.000000
O O8 0.274471 0.423768 0.250000
O O9 0.000000 0.423046 0.144216
#
# Coordination Sequence:
#
# PCOD9474185 Si02
#       4
#    16  16   4  16
#     4  11  22  39  62  92 131 173 219 282 335 396
#     4  12  25  48  73 103 142 178 232 292 341 418
#     4  12  26  48  76 106 132 190 234 274 370 398
#     4  10  21  37  59  91 126 173 224 272 339 405
#
# _framework density 25.835217
#
# number of rings (size 3 to 8) (size 9 to 14) (size 15 to 20)
#    0.000    0.923    3.077    6.000    2.154    2.462 
#    2.769    0.000    0.000    0.000    0.000    0.000 
#    0.000    0.000    0.000    0.000    0.000    0.000 
#
# Total GULP energy -145268.141554 kJ/mol
# GULP energy per Si atom -5587.236214 kJ/mol
# Density = 2.577642 g / cm^3
# Si number density = 25.835217 Si / 1000 Ang^3
#
#
#
# Elastic Constant Matrix: (Units=GPa)
#
#
# Indices 1 2 3 4 5 6 
#
# 1 211.1796 20.4956 32.4209 0.0000 0.0000 0.0000
# 2 20.4956 123.1877 14.0570 0.0000 0.0000 0.0000
# 3 32.4209 14.0570 178.3855 0.0000 0.0000 0.0000
# 4 0.0000 0.0000 0.0000 -84.9681 0.0000 0.0000
# 5 0.0000 0.0000 0.0000 0.0000 54.1171 0.0000
# 6 0.0000 0.0000 0.0000 0.0000 0.0000 40.6068
#
#
#
# Elastic Compliance Matrix: (Units=1/GPa)
#
#
# Indices 1 2 3 4 5 6 
#
# 1 0.004935 -0.000725 -0.000840 0.000000 0.000000 0.000000
# 2 -0.000725 0.008298 -0.000522 0.000000 0.000000 0.000000
# 3 -0.000840 -0.000522 0.005800 0.000000 0.000000 0.000000
# 4 0.000000 0.000000 0.000000 -0.011769 0.000000 0.000000
# 5 0.000000 0.000000 0.000000 0.000000 0.018478 0.000000
# 6 0.000000 0.000000 0.000000 0.000000 0.000000 0.024626
#
#
# Mechanical properties :
#
#
# Convention : Reuss Voigt Hill
#
# Bulk Modulus (GPa) = 67.30306 71.85555 69.57931
# Shear Modulus (GPa) = 84.04135 31.66979 57.85557
#
# Velocity S-wave (km/s) = 5.70967 3.50500 4.73737
# Velocity P-wave (km/s) = 8.34114 6.65232 7.54414
#
# Compressibility (1/GPa) = 0.01485816
#
# Stress axis : x y z
#
# Youngs Moduli (GPa) = 202.65064 120.51209 172.42596
#
# Poissons Ratio (x) = 0.08739 0.14479
# Poissons Ratio (y) = 0.14696 0.09002
# Poissons Ratio (z) = 0.17017 0.06292
#
# Static dielectric constant tensor:
#      x y z
#    x 1.892600 0.000000 0.000000 
#    y 0.000000 2.199000 0.000000 
#    z 0.000000 0.000000 1.887700 
# 
# From -- ./inp_files/27347.got.cif
#   From: 2010.05.17/outbox.cif.g08.bks.cpg/sg63_14_cif.got.tgz:27347.got - 2010.06.03 15:47:04.
