data_PCOD9474304
_publ_section_title
;
Structure prediction by ZEFSAII (Michael W. Deem and Ramdas Pophale) SiO2 
 PCOD9474304
Probable space group: C M C M
;
_chemical_formula_sum "Si O2"
_cell_formula_units_Z 64
_cell_length_a 24.982930
_cell_length_b 8.710456
_cell_length_c 15.381988
_cell_angle_alpha 90.000000
_cell_angle_beta 90.000000
_cell_angle_gamma 90.000000
_cell_volume 3347.316133
_symmetry_space_group_name_H-M "C M C M"
_symmetry_group_IT_number 63
_symmetry_cell_setting 'orthorhombic'
loop_
_space_group_symop_operation_xyz
x,y,z
-x,-y,1/2+z
x,-y,-z
-x,y,1/2-z
-x,-y,-z
x,y,1/2-z
-x,y,z
x,-y,1/2+z
1/2+x,1/2+y,z
1/2-x,1/2-y,1/2+z
1/2+x,1/2-y,-z
1/2-x,1/2+y,1/2-z
1/2-x,1/2-y,-z
1/2+x,1/2+y,1/2-z
1/2-x,1/2+y,z
1/2+x,1/2-y,1/2+z
loop_
_atom_site_type_symbol
_atom_site_label
_atom_site_fract_x
_atom_site_fract_y
_atom_site_fract_z
Si Si1 0.811222 0.562172 0.250000
Si Si2 0.307531 0.431789 0.250000
Si Si3 0.612441 0.564099 0.902342
Si Si4 0.111277 0.432787 0.593372
Si Si5 0.500000 0.912756 0.353756
Si Si6 0.000000 0.061773 0.401446
O O1 0.752382 0.493023 0.250000
O O2 0.806705 0.746794 0.250000
O O3 0.845883 0.517860 0.165751
O O4 0.340583 0.480046 0.335859
O O5 0.609275 0.748287 0.908194
O O6 0.555922 0.501388 0.865202
O O7 0.620359 0.500000 0.000000
O O8 0.126074 0.500000 0.500000
O O9 0.052974 0.496816 0.618212
O O10 0.500000 0.893085 0.250000
O O11 0.500000 0.744984 0.397100
O O12 0.000000 0.000000 0.500000
#
# Coordination Sequence:
#
# PCOD9474304 Si02
#       6
#     8   8  16  16   8   8
#     4  10  24  43  60  91 117 162 208 252 309 360
#     4  10  24  41  64  83 125 158 204 260 305 358
#     4  10  22  41  62  92 122 163 205 247 309 367
#     4  11  22  42  65  89 126 163 201 254 306 367
#     4  12  24  38  63  98 127 163 206 248 306 369
#     4  10  21  38  59  93 126 156 200 244 297 364
#
# _framework density 19.119796999999998
#
# number of rings (size 3 to 8) (size 9 to 14) (size 15 to 20)
#    0.000    1.500    1.250    4.125    1.750    5.000 
#    0.000    5.000    0.000    0.000    0.000    0.000 
#    0.000    0.000    0.000    0.000    0.000    0.000 
#
# Total GULP energy -178867.801676 kJ/mol
# GULP energy per Si atom -5589.618802 kJ/mol
# Density = 1.907628 g / cm^3
# Si number density = 19.119797 Si / 1000 Ang^3
#
#
#
# Elastic Constant Matrix: (Units=GPa)
#
#
# Indices 1 2 3 4 5 6 
#
# 1 206.3158 56.9815 100.1846 0.0000 0.0000 0.0000
# 2 56.9815 82.9586 50.1758 0.0000 0.0000 0.0000
# 3 100.1846 50.1758 158.4010 0.0000 0.0000 0.0000
# 4 0.0000 0.0000 0.0000 22.6809 0.0000 0.0000
# 5 0.0000 0.0000 0.0000 0.0000 9.6416 0.0000
# 6 0.0000 0.0000 0.0000 0.0000 0.0000 38.3858
#
#
#
# Elastic Compliance Matrix: (Units=1/GPa)
#
#
# Indices 1 2 3 4 5 6 
#
# 1 0.007494 -0.002821 -0.003846 0.000000 0.000000 0.000000
# 2 -0.002821 0.015973 -0.003275 0.000000 0.000000 0.000000
# 3 -0.003846 -0.003275 0.009783 0.000000 0.000000 0.000000
# 4 0.000000 0.000000 0.000000 0.044090 0.000000 0.000000
# 5 0.000000 0.000000 0.000000 0.000000 0.103717 0.000000
# 6 0.000000 0.000000 0.000000 0.000000 0.000000 0.026051
#
#
# Mechanical properties :
#
#
# Convention : Reuss Voigt Hill
#
# Bulk Modulus (GPa) = 74.82284 95.81769 85.32027
# Shear Modulus (GPa) = 21.60314 30.16389 25.88351
#
# Velocity S-wave (km/s) = 3.36502 3.97624 3.68333
# Velocity P-wave (km/s) = 7.36997 8.44416 7.92529
#
# Compressibility (1/GPa) = 0.01336490
#
# Stress axis : x y z
#
# Youngs Moduli (GPa) = 133.44747 62.60586 102.21717
#
# Poissons Ratio (x) = 0.17661 0.39312
# Poissons Ratio (y) = 0.37645 0.33481
# Poissons Ratio (z) = 0.51323 0.20506
#
# Static dielectric constant tensor:
#      x y z
#    x 1.647040 0.000000 0.000000 
#    y 0.000000 1.642910 0.000000 
#    z 0.000000 0.000000 1.663000 
# 
# From -- ./inp_files/36248.got.cif
#   From: 2010.05.17/outbox.cif.g08.bks.cpg/sg63_19_cif.got.tgz:36248.got - 2010.06.03 15:47:04.
