data_PCOD9474467
_publ_section_title
;
Structure prediction by ZEFSAII (Michael W. Deem and Ramdas Pophale) SiO2 
 PCOD9474467
Probable space group: C M C M
;
_chemical_formula_sum "Si O2"
_cell_formula_units_Z 112
_cell_length_a 23.259082
_cell_length_b 15.061285
_cell_length_c 14.655894
_cell_angle_alpha 90.000000
_cell_angle_beta 90.000000
_cell_angle_gamma 90.000000
_cell_volume 5134.130598
_symmetry_space_group_name_H-M "C M C M"
_symmetry_group_IT_number 63
_symmetry_cell_setting 'orthorhombic'
loop_
_space_group_symop_operation_xyz
x,y,z
-x,-y,1/2+z
x,-y,-z
-x,y,1/2-z
-x,-y,-z
x,y,1/2-z
-x,y,z
x,-y,1/2+z
1/2+x,1/2+y,z
1/2-x,1/2-y,1/2+z
1/2+x,1/2-y,-z
1/2-x,1/2+y,1/2-z
1/2-x,1/2-y,-z
1/2+x,1/2+y,1/2-z
1/2-x,1/2+y,z
1/2+x,1/2-y,1/2+z
loop_
_atom_site_type_symbol
_atom_site_label
_atom_site_fract_x
_atom_site_fract_y
_atom_site_fract_z
Si Si1 0.433812 0.104225 0.481329
Si Si2 0.170547 0.592279 0.353920
Si Si3 0.872189 0.067304 0.637526
Si Si4 0.065672 0.289936 0.150203
Si Si5 0.237641 0.575432 0.645352
Si Si6 0.771521 0.774731 0.900442
Si Si7 0.609776 0.626111 0.440195
O O1 0.500000 0.134635 0.462410
O O2 0.386532 0.122629 0.405366
O O3 0.408996 0.148604 0.572625
O O4 0.436953 0.000000 0.500000
O O5 0.153330 0.576095 0.250000
O O6 0.197261 0.501165 0.395550
O O7 0.220838 0.666192 0.357164
O O8 0.879928 0.083765 0.750000
O O9 0.803938 0.071132 0.614838
O O10 0.897043 0.125374 0.551219
O O11 0.893436 0.969701 0.607806
O O12 0.092643 0.293531 0.250000
O O13 0.066368 0.191978 0.109231
O O14 0.000000 0.320735 0.158358
O O15 0.241312 0.547414 0.750000
O O16 0.218708 0.677730 0.642238
O O17 0.828559 0.832679 0.911105
O O18 0.750000 0.750000 0.000000
#
# Coordination Sequence:
#
# PCOD9474467 Si02
#       7
#    16  16  16  16  16  16  16
#     4  10  24  44  66  91 126 170 216 268 325 384
#     4  11  25  42  64  96 132 170 216 269 323 393
#     4  10  21  39  60  90 134 171 207 257 325 398
#     4  10  23  45  70  95 123 162 219 279 328 383
#     4  10  22  38  57  87 127 170 211 255 315 385
#     4  12  23  36  58  91 127 173 211 260 320 386
#     4  11  22  38  66  95 123 169 215 269 325 388
#
# _framework density 21.814795
#
# number of rings (size 3 to 8) (size 9 to 14) (size 15 to 20)
#    0.000    1.429    2.857    1.714    4.000    2.571 
#    0.000    2.857    0.000    2.143    0.000    0.000 
#    0.000    0.000    0.000    0.000    0.000    0.000 
#
# Total GULP energy -312290.468478 kJ/mol
# GULP energy per Si atom -5576.615509 kJ/mol
# Density = 2.176514 g / cm^3
# Si number density = 21.814795 Si / 1000 Ang^3
#
#
#
# Elastic Constant Matrix: (Units=GPa)
#
#
# Indices 1 2 3 4 5 6 
#
# 1 56.5201 5.4183 20.2231 0.0000 0.0000 0.0000
# 2 5.4183 85.3082 14.7117 0.0000 0.0000 0.0000
# 3 20.2231 14.7117 135.2490 0.0000 0.0000 0.0000
# 4 0.0000 0.0000 0.0000 31.0076 0.0000 0.0000
# 5 0.0000 0.0000 0.0000 0.0000 26.7183 0.0000
# 6 0.0000 0.0000 0.0000 0.0000 0.0000 27.4609
#
#
#
# Elastic Compliance Matrix: (Units=1/GPa)
#
#
# Indices 1 2 3 4 5 6 
#
# 1 0.018736 -0.000720 -0.002723 0.000000 0.000000 0.000000
# 2 -0.000720 0.011974 -0.001195 0.000000 0.000000 0.000000
# 3 -0.002723 -0.001195 0.007931 0.000000 0.000000 0.000000
# 4 0.000000 0.000000 0.000000 0.032250 0.000000 0.000000
# 5 0.000000 0.000000 0.000000 0.000000 0.037428 0.000000
# 6 0.000000 0.000000 0.000000 0.000000 0.000000 0.036415
#
#
# Mechanical properties :
#
#
# Convention : Reuss Voigt Hill
#
# Bulk Modulus (GPa) = 34.05474 39.75373 36.90423
# Shear Modulus (GPa) = 30.52519 32.81896 31.67208
#
# Velocity S-wave (km/s) = 3.74476 3.88291 3.81446
# Velocity P-wave (km/s) = 5.86024 6.19399 6.02943
#
# Compressibility (1/GPa) = 0.02936449
#
# Stress axis : x y z
#
# Youngs Moduli (GPa) = 53.37249 83.51430 126.08890
#
# Poissons Ratio (x) = 0.06016 0.34336
# Poissons Ratio (y) = 0.03845 0.15065
# Poissons Ratio (z) = 0.14534 0.09978
#
# Static dielectric constant tensor:
#      x y z
#    x 1.894160 0.000000 0.000000 
#    y 0.000000 1.633110 0.000000 
#    z 0.000000 0.000000 1.414020 
# 
# From -- ./inp_files/36920.got.cif
#   From: 2010.05.17/outbox.cif.g08.bks.cpg/sg63_19_cif.got.tgz:36920.got - 2010.06.03 15:47:04.
