data_PCOD9474545
_publ_section_title
;
Structure prediction by ZEFSAII (Michael W. Deem and Ramdas Pophale) SiO2 
 PCOD9474545
Probable space group: C M C M
;
_chemical_formula_sum "Si O2"
_cell_formula_units_Z 72
_cell_length_a 20.388652
_cell_length_b 8.646838
_cell_length_c 19.016702
_cell_angle_alpha 90.000000
_cell_angle_beta 90.000000
_cell_angle_gamma 90.000000
_cell_volume 3352.594565
_symmetry_space_group_name_H-M "C M C M"
_symmetry_group_IT_number 63
_symmetry_cell_setting 'orthorhombic'
loop_
_space_group_symop_operation_xyz
x,y,z
-x,-y,1/2+z
x,-y,-z
-x,y,1/2-z
-x,-y,-z
x,y,1/2-z
-x,y,z
x,-y,1/2+z
1/2+x,1/2+y,z
1/2-x,1/2-y,1/2+z
1/2+x,1/2-y,-z
1/2-x,1/2+y,1/2-z
1/2-x,1/2-y,-z
1/2+x,1/2+y,1/2-z
1/2-x,1/2+y,z
1/2+x,1/2-y,1/2+z
loop_
_atom_site_type_symbol
_atom_site_label
_atom_site_fract_x
_atom_site_fract_y
_atom_site_fract_z
Si Si1 0.313441 0.771182 0.609315
Si Si2 0.876257 0.500000 0.000000
Si Si3 0.926596 0.302102 0.372651
Si Si4 0.209944 0.415779 0.325534
Si Si5 0.424475 0.453673 0.166556
O O1 0.333720 0.872279 0.542042
O O2 0.251429 0.657237 0.610751
O O3 0.374937 0.670963 0.635335
O O4 0.292877 0.902062 0.664602
O O5 0.918158 0.600514 0.944462
O O6 0.864515 0.358104 0.328401
O O7 0.000000 0.330359 0.344156
O O8 0.918987 0.116254 0.375020
O O9 0.240292 0.379007 0.250000
O O10 0.411535 0.481377 0.250000
O O11 0.500000 0.400929 0.160596
#
# Coordination Sequence:
#
# PCOD9474545 Si02
#       5
#    16   8  16  16  16
#     4  11  24  41  63  92 128 167 211 262 315 378
#     4  10  25  44  64  92 129 172 216 256 307 378
#     4  10  22  40  64  93 128 168 209 257 309 372
#     4  11  22  38  64  93 123 162 208 264 324 376
#     4  10  21  39  64  94 127 165 212 266 322 374
#
# _framework density 21.475904
#
# number of rings (size 3 to 8) (size 9 to 14) (size 15 to 20)
#    0.000    1.556    0.000    4.333    0.000   10.222 
#    0.000    2.222    0.000    0.000    0.000    0.000 
#    0.000    0.000    0.000    0.000    0.000    0.000 
#
# Total GULP energy -200905.299946 kJ/mol
# GULP energy per Si atom -5580.702776 kJ/mol
# Density = 2.142702 g / cm^3
# Si number density = 21.475904 Si / 1000 Ang^3
#
#
#
# Elastic Constant Matrix: (Units=GPa)
#
#
# Indices 1 2 3 4 5 6 
#
# 1 105.6547 69.3570 38.1412 0.0000 0.0000 0.0000
# 2 69.3570 138.4547 44.5307 0.0000 0.0000 0.0000
# 3 38.1412 44.5307 83.7154 0.0000 0.0000 0.0000
# 4 0.0000 0.0000 0.0000 24.2862 0.0000 0.0000
# 5 0.0000 0.0000 0.0000 0.0000 32.3262 0.0000
# 6 0.0000 0.0000 0.0000 0.0000 0.0000 44.1395
#
#
#
# Elastic Compliance Matrix: (Units=1/GPa)
#
#
# Indices 1 2 3 4 5 6 
#
# 1 0.014859 -0.006353 -0.003391 0.000000 0.000000 0.000000
# 2 -0.006353 0.011429 -0.003185 0.000000 0.000000 0.000000
# 3 -0.003391 -0.003185 0.015184 0.000000 0.000000 0.000000
# 4 0.000000 0.000000 0.000000 0.041176 0.000000 0.000000
# 5 0.000000 0.000000 0.000000 0.000000 0.030935 0.000000
# 6 0.000000 0.000000 0.000000 0.000000 0.000000 0.022655
#
#
# Mechanical properties :
#
#
# Convention : Reuss Voigt Hill
#
# Bulk Modulus (GPa) = 64.03941 70.20919 67.12430
# Shear Modulus (GPa) = 29.88616 31.87010 30.87813
#
# Velocity S-wave (km/s) = 3.73448 3.85644 3.79595
# Velocity P-wave (km/s) = 6.96269 7.25207 7.10886
#
# Compressibility (1/GPa) = 0.01561538
#
# Stress axis : x y z
#
# Youngs Moduli (GPa) = 67.29825 87.49297 65.85748
#
# Poissons Ratio (x) = 0.55585 0.22330
# Poissons Ratio (y) = 0.42755 0.20977
# Poissons Ratio (z) = 0.22818 0.27868
#
# Static dielectric constant tensor:
#      x y z
#    x 1.788210 0.000000 0.000000 
#    y 0.000000 1.757070 0.000000 
#    z 0.000000 0.000000 1.792360 
# 
# From -- ./inp_files/56330.got.cif
#   From: 2010.05.17/outbox.cif.g08.bks.cpg/sg63_29_cif.got.tgz:56330.got - 2010.06.03 15:47:04.
