data_PCOD9474776
_publ_section_title
;
Structure prediction by ZEFSAII (Michael W. Deem and Ramdas Pophale) SiO2 
 PCOD9474776
Probable space group: C M C M
;
_chemical_formula_sum "Si O2"
_cell_formula_units_Z 60
_cell_length_a 10.094920
_cell_length_b 30.087435
_cell_length_c 9.330820
_cell_angle_alpha 90.000000
_cell_angle_beta 90.000000
_cell_angle_gamma 90.000000
_cell_volume 2834.052285
_symmetry_space_group_name_H-M "C M C M"
_symmetry_group_IT_number 63
_symmetry_cell_setting 'orthorhombic'
loop_
_space_group_symop_operation_xyz
x,y,z
-x,-y,1/2+z
x,-y,-z
-x,y,1/2-z
-x,-y,-z
x,y,1/2-z
-x,y,z
x,-y,1/2+z
1/2+x,1/2+y,z
1/2-x,1/2-y,1/2+z
1/2+x,1/2-y,-z
1/2-x,1/2+y,1/2-z
1/2-x,1/2-y,-z
1/2+x,1/2+y,1/2-z
1/2-x,1/2+y,z
1/2+x,1/2-y,1/2+z
loop_
_atom_site_type_symbol
_atom_site_label
_atom_site_fract_x
_atom_site_fract_y
_atom_site_fract_z
Si Si1 0.152588 0.538632 0.907590
Si Si2 0.500000 0.515046 0.750000
Si Si3 0.773555 0.621738 0.082387
Si Si4 0.841466 0.286702 0.077262
Si Si5 0.000000 0.070886 0.461372
O O1 0.215762 0.541859 0.750000
O O2 0.000000 0.525674 0.886424
O O3 0.218796 0.500000 0.000000
O O4 0.150609 0.583292 0.996647
O O5 0.500000 0.553364 0.623049
O O6 0.500000 0.473678 0.631532
O O7 0.810743 0.625468 0.250000
O O8 0.800869 0.667016 0.997818
O O9 0.625463 0.602378 0.071818
O O10 0.819292 0.287703 0.250000
O O11 0.000000 0.279116 0.055544
O O12 0.750000 0.250000 0.000000
#
# Coordination Sequence:
#
# PCOD9474776 Si02
#       5
#    16   4  16  16   8
#     4  10  22  38  58  88 127 172 223 278 339 412
#     4  10  24  46  64  94 150 198 256 302 374 422
#     4  12  25  42  67  98 138 182 235 293 360 430
#     4  11  27  51  79 110 146 187 240 306 376 454
#     4  11  26  42  66 102 144 198 248 312 361 440
#
# _framework density 21.171098000000001
#
# number of rings (size 3 to 8) (size 9 to 14) (size 15 to 20)
#    0.000    1.067    1.333    3.200    9.333    6.933 
#    0.000    0.000    0.000    0.000    0.000    0.000 
#    0.000    0.000    0.000    0.000    0.000    0.000 
#
# Total GULP energy -167123.408105 kJ/mol
# GULP energy per Si atom -5570.780270 kJ/mol
# Density = 2.112291 g / cm^3
# Si number density = 21.171098 Si / 1000 Ang^3
#
#
#
# Elastic Constant Matrix: (Units=GPa)
#
#
# Indices 1 2 3 4 5 6 
#
# 1 94.0930 39.8347 56.2172 0.0000 0.0000 0.0000
# 2 39.8347 196.4820 117.8397 0.0000 0.0000 0.0000
# 3 56.2172 117.8397 271.6643 0.0000 0.0000 0.0000
# 4 0.0000 0.0000 0.0000 43.7379 0.0000 0.0000
# 5 0.0000 0.0000 0.0000 0.0000 22.5869 0.0000
# 6 0.0000 0.0000 0.0000 0.0000 0.0000 90.1960
#
#
#
# Elastic Compliance Matrix: (Units=1/GPa)
#
#
# Indices 1 2 3 4 5 6 
#
# 1 0.012374 -0.001315 -0.001990 0.000000 0.000000 0.000000
# 2 -0.001315 0.007019 -0.002772 0.000000 0.000000 0.000000
# 3 -0.001990 -0.002772 0.005295 0.000000 0.000000 0.000000
# 4 0.000000 0.000000 0.000000 0.022863 0.000000 0.000000
# 5 0.000000 0.000000 0.000000 0.000000 0.044273 0.000000
# 6 0.000000 0.000000 0.000000 0.000000 0.000000 0.011087
#
#
# Mechanical properties :
#
#
# Convention : Reuss Voigt Hill
#
# Bulk Modulus (GPa) = 79.79148 110.00253 94.89700
# Shear Modulus (GPa) = 41.93065 54.52735 48.22900
#
# Velocity S-wave (km/s) = 4.45518 5.08050 4.77808
# Velocity P-wave (km/s) = 8.01470 9.29983 8.68108
#
# Compressibility (1/GPa) = 0.01253267
#
# Stress axis : x y z
#
# Youngs Moduli (GPa) = 80.81772 142.47217 188.84142
#
# Poissons Ratio (x) = 0.18736 0.37581
# Poissons Ratio (y) = 0.10628 0.52356
# Poissons Ratio (z) = 0.16084 0.39500
#
# Static dielectric constant tensor:
#      x y z
#    x 2.132130 0.000000 0.000000 
#    y 0.000000 1.735230 0.000000 
#    z 0.000000 0.000000 1.834070 
# 
# From -- ./inp_files/2909.got.cif
#   From: 2010.05.17/outbox.cif.g08.bks.cpg/sg63_2_cif.got.tgz:2909.got - 2010.06.03 15:47:04.
