data_PCOD9474781
_publ_section_title
;
Structure prediction by ZEFSAII (Michael W. Deem and Ramdas Pophale) SiO2 
 PCOD9474781
Probable space group: C M C M
;
_chemical_formula_sum "Si O2"
_cell_formula_units_Z 72
_cell_length_a 25.282969
_cell_length_b 7.201235
_cell_length_c 14.311878
_cell_angle_alpha 90.000000
_cell_angle_beta 90.000000
_cell_angle_gamma 90.000000
_cell_volume 2605.743609
_symmetry_space_group_name_H-M "C M C M"
_symmetry_group_IT_number 63
_symmetry_cell_setting 'orthorhombic'
loop_
_space_group_symop_operation_xyz
x,y,z
-x,-y,1/2+z
x,-y,-z
-x,y,1/2-z
-x,-y,-z
x,y,1/2-z
-x,y,z
x,-y,1/2+z
1/2+x,1/2+y,z
1/2-x,1/2-y,1/2+z
1/2+x,1/2-y,-z
1/2-x,1/2+y,1/2-z
1/2-x,1/2-y,-z
1/2+x,1/2+y,1/2-z
1/2-x,1/2+y,z
1/2+x,1/2-y,1/2+z
loop_
_atom_site_type_symbol
_atom_site_label
_atom_site_fract_x
_atom_site_fract_y
_atom_site_fract_z
Si Si1 0.940438 0.127218 0.908426
Si Si2 0.704622 0.790741 0.750000
Si Si3 0.223626 0.410689 0.399913
Si Si4 0.939927 0.526790 0.858020
Si Si5 0.857102 0.854969 0.646683
O O1 0.931596 0.345991 0.921231
O O2 0.000000 0.110325 0.865678
O O3 0.888806 0.047079 0.857495
O O4 0.941571 0.000000 0.000000
O O5 0.727667 0.649195 0.833564
O O6 0.691691 0.946375 0.667083
O O7 0.231680 0.500000 0.500000
O O8 0.189126 0.223032 0.417015
O O9 0.935929 0.457177 0.750000
O O10 0.902943 0.702375 0.865775
O O11 0.000000 0.591746 0.872695
O O12 0.833779 0.838595 0.750000
#
# Coordination Sequence:
#
# PCOD9474781 Si02
#       5
#    16   8  16  16  16
#     4  10  22  38  58  93 140 188 233 279 336 404
#     4  10  22  50  70 100 138 170 226 292 352 464
#     4  11  24  45  74 103 136 178 228 289 371 439
#     4   9  19  36  59  89 130 183 231 273 326 384
#     4  11  22  41  66 101 136 175 234 291 340 412
#
# _framework density 27.631266
#
# number of rings (size 3 to 8) (size 9 to 14) (size 15 to 20)
#    0.000    1.778    2.222    2.000    3.111    2.222 
#    8.000    4.444    0.000    0.000    0.000    0.000 
#    0.000    0.000    0.000    0.000    0.000    0.000 
#
# Total GULP energy -200645.856565 kJ/mol
# GULP energy per Si atom -5573.496016 kJ/mol
# Density = 2.756838 g / cm^3
# Si number density = 27.631266 Si / 1000 Ang^3
#
#
#
# Elastic Constant Matrix: (Units=GPa)
#
#
# Indices 1 2 3 4 5 6 
#
# 1 96.5726 52.8277 24.5925 0.0000 0.0000 0.0000
# 2 52.8277 125.3329 14.0839 0.0000 0.0000 0.0000
# 3 24.5925 14.0839 130.6081 0.0000 0.0000 0.0000
# 4 0.0000 0.0000 0.0000 29.4734 0.0000 0.0000
# 5 0.0000 0.0000 0.0000 0.0000 -73.5246 0.0000
# 6 0.0000 0.0000 0.0000 0.0000 0.0000 55.1145
#
#
#
# Elastic Compliance Matrix: (Units=1/GPa)
#
#
# Indices 1 2 3 4 5 6 
#
# 1 0.013965 -0.005659 -0.002019 0.000000 0.000000 0.000000
# 2 -0.005659 0.010370 -0.000053 0.000000 0.000000 0.000000
# 3 -0.002019 -0.000053 0.008042 0.000000 0.000000 0.000000
# 4 0.000000 0.000000 0.000000 0.033929 0.000000 0.000000
# 5 0.000000 0.000000 0.000000 0.000000 -0.013601 0.000000
# 6 0.000000 0.000000 0.000000 0.000000 0.000000 0.018144
#
#
# Mechanical properties :
#
#
# Convention : Reuss Voigt Hill
#
# Bulk Modulus (GPa) = 59.11903 59.50240 59.31072
# Shear Modulus (GPa) = 54.37743 19.61330 36.99537
#
# Velocity S-wave (km/s) = 4.44099 2.66714 3.66306
# Velocity P-wave (km/s) = 6.90932 5.57369 6.27713
#
# Compressibility (1/GPa) = 0.01691503
#
# Stress axis : x y z
#
# Youngs Moduli (GPa) = 71.60828 96.43163 124.34142
#
# Poissons Ratio (x) = 0.54573 0.25107
# Poissons Ratio (y) = 0.40525 0.00654
# Poissons Ratio (z) = 0.14459 0.00508
#
# Static dielectric constant tensor:
#      x y z
#    x 2.241470 0.000000 0.000000 
#    y 0.000000 2.201960 0.000000 
#    z 0.000000 0.000000 2.038270 
# 
# From -- ./inp_files/37573.got.cif
#   From: 2010.05.17/outbox.cif.g08.bks.cpg/sg63_19_cif.got.tgz:37573.got - 2010.06.03 15:47:04.
