data_PCOD9474095
_publ_section_title
;
Structure prediction by ZEFSAII (Michael W. Deem and Ramdas Pophale) SiO2 
 PCOD9474095
Probable space group: C M C M
;
_chemical_formula_sum "Si O2"
_cell_formula_units_Z 96
_cell_length_a 25.792636
_cell_length_b 24.094030
_cell_length_c 8.700738
_cell_angle_alpha 90.000000
_cell_angle_beta 90.000000
_cell_angle_gamma 90.000000
_cell_volume 5407.060975
_symmetry_space_group_name_H-M "C M C M"
_symmetry_group_IT_number 63
_symmetry_cell_setting 'orthorhombic'
loop_
_space_group_symop_operation_xyz
x,y,z
-x,-y,1/2+z
x,-y,-z
-x,y,1/2-z
-x,-y,-z
x,y,1/2-z
-x,y,z
x,-y,1/2+z
1/2+x,1/2+y,z
1/2-x,1/2-y,1/2+z
1/2+x,1/2-y,-z
1/2-x,1/2+y,1/2-z
1/2-x,1/2-y,-z
1/2+x,1/2+y,1/2-z
1/2-x,1/2+y,z
1/2+x,1/2-y,1/2+z
loop_
_atom_site_type_symbol
_atom_site_label
_atom_site_fract_x
_atom_site_fract_y
_atom_site_fract_z
Si Si1 0.939228 0.560802 0.933647
Si Si2 0.059070 0.939434 0.935294
Si Si3 0.656378 0.367266 0.935218
Si Si4 0.847452 0.629948 0.066618
Si Si5 0.248926 0.438360 0.066559
Si Si6 0.808117 0.255043 0.065699
O O1 0.932327 0.560259 0.750000
O O2 0.000000 0.570882 0.967211
O O3 0.925939 0.500000 0.000000
O O4 0.901909 0.606051 0.008040
O O5 0.059253 0.942552 0.750000
O O6 0.101617 0.894192 0.981050
O O7 0.000000 0.926860 0.984969
O O8 0.073167 0.000000 0.000000
O O9 0.662080 0.373217 0.750000
O O10 0.662526 0.302363 0.970768
O O11 0.702498 0.401212 0.014178
O O12 0.845123 0.629245 0.250000
O O13 0.802605 0.590131 0.000059
O O14 0.835535 0.691416 0.005292
O O15 0.245908 0.440380 0.250000
O O16 0.254633 0.500000 0.000000
O O17 0.805404 0.261124 0.250000
O O18 0.750000 0.250000 0.000000
#
# Coordination Sequence:
#
# PCOD9474095 Si02
#       6
#    16  16  16  16  16  16
#     4  10  21  39  63  90 120 154 193 238 292 352
#     4   9  18  34  56  82 112 147 184 226 277 333
#     4  10  21  37  57  82 113 147 190 235 283 344
#     4  12  24  39  59  84 117 153 195 240 288 345
#     4  12  24  37  56  82 115 148 186 235 291 349
#     4  11  22  38  59  83 114 154 197 240 290 345
#
# _framework density 17.754562
#
# number of rings (size 3 to 8) (size 9 to 14) (size 15 to 20)
#    0.000    1.333    1.667    5.000    0.000    3.667 
#    0.000    0.833    0.000    3.000    0.000    0.000 
#    0.000    0.000    0.000    0.000    0.000    0.000 
#
# Total GULP energy -268315.553871 kJ/mol
# GULP energy per Si atom -5589.907372 kJ/mol
# Density = 1.771415 g / cm^3
# Si number density = 17.754562 Si / 1000 Ang^3
#
#
#
# Elastic Constant Matrix: (Units=GPa)
#
#
# Indices 1 2 3 4 5 6 
#
# 1 102.0167 78.1730 52.6232 0.0000 0.0000 0.0000
# 2 78.1730 151.5550 71.2043 0.0000 0.0000 0.0000
# 3 52.6232 71.2043 89.0135 0.0000 0.0000 0.0000
# 4 0.0000 0.0000 0.0000 27.4689 0.0000 0.0000
# 5 0.0000 0.0000 0.0000 0.0000 25.1172 0.0000
# 6 0.0000 0.0000 0.0000 0.0000 0.0000 13.5030
#
#
#
# Elastic Compliance Matrix: (Units=1/GPa)
#
#
# Indices 1 2 3 4 5 6 
#
# 1 0.017499 -0.006674 -0.005006 0.000000 0.000000 0.000000
# 2 -0.006674 0.013117 -0.006547 0.000000 0.000000 0.000000
# 3 -0.005006 -0.006547 0.019431 0.000000 0.000000 0.000000
# 4 0.000000 0.000000 0.000000 0.036405 0.000000 0.000000
# 5 0.000000 0.000000 0.000000 0.000000 0.039813 0.000000
# 6 0.000000 0.000000 0.000000 0.000000 0.000000 0.074058
#
#
# Mechanical properties :
#
#
# Convention : Reuss Voigt Hill
#
# Bulk Modulus (GPa) = 73.57190 82.95401 78.26295
# Shear Modulus (GPa) = 20.72052 22.59015 21.65534
#
# Velocity S-wave (km/s) = 3.41992 3.57088 3.49622
# Velocity P-wave (km/s) = 7.55796 7.98910 7.77652
#
# Compressibility (1/GPa) = 0.01359215
#
# Stress axis : x y z
#
# Youngs Moduli (GPa) = 57.14696 76.23975 51.46450
#
# Poissons Ratio (x) = 0.50881 0.25765
# Poissons Ratio (y) = 0.38139 0.33693
# Poissons Ratio (z) = 0.28610 0.49913
#
# Static dielectric constant tensor:
#      x y z
#    x 1.595950 0.000000 0.000000 
#    y 0.000000 1.577230 0.000000 
#    z 0.000000 0.000000 1.621370 
# 
# From -- ./inp_files/10504.got.cif
#   From: 2010.05.17/outbox.cif.g08.bks.cpg/sg63_6_cif.got.tgz:10504.got - 2010.06.03 15:47:04.
