data_PCOD9474804
_publ_section_title
;
Structure prediction by ZEFSAII (Michael W. Deem and Ramdas Pophale) SiO2 
 PCOD9474804
Probable space group: C M C M
;
_chemical_formula_sum "Si O2"
_cell_formula_units_Z 80
_cell_length_a 27.354136
_cell_length_b 7.553827
_cell_length_c 17.045145
_cell_angle_alpha 90.000000
_cell_angle_beta 90.000000
_cell_angle_gamma 90.000000
_cell_volume 3522.011228
_symmetry_space_group_name_H-M "C M C M"
_symmetry_group_IT_number 63
_symmetry_cell_setting 'orthorhombic'
loop_
_space_group_symop_operation_xyz
x,y,z
-x,-y,1/2+z
x,-y,-z
-x,y,1/2-z
-x,-y,-z
x,y,1/2-z
-x,y,z
x,-y,1/2+z
1/2+x,1/2+y,z
1/2-x,1/2-y,1/2+z
1/2+x,1/2-y,-z
1/2-x,1/2+y,1/2-z
1/2-x,1/2-y,-z
1/2+x,1/2+y,1/2-z
1/2-x,1/2+y,z
1/2+x,1/2-y,1/2+z
loop_
_atom_site_type_symbol
_atom_site_label
_atom_site_fract_x
_atom_site_fract_y
_atom_site_fract_z
Si Si1 0.610020 0.786227 0.993521
Si Si2 0.208699 0.877915 0.432954
Si Si3 0.401921 0.191323 0.836868
Si Si4 0.795748 0.206580 0.161211
Si Si5 0.442050 0.793788 0.664421
O O1 0.665487 0.726892 0.975852
O O2 0.581152 0.725869 0.916159
O O3 0.589051 0.720977 0.077744
O O4 0.608283 0.000000 0.000000
O O5 0.250364 0.771834 0.389112
O O6 0.232289 0.000000 0.500000
O O7 0.187032 0.016181 0.370138
O O8 0.411309 0.274731 0.750000
O O9 0.342850 0.165930 0.840906
O O10 0.429330 0.003915 0.835918
O O11 0.779020 0.189677 0.250000
O O12 0.424009 0.726618 0.750000
O O13 0.500000 0.769922 0.661819
#
# Coordination Sequence:
#
# PCOD9474804 Si02
#       5
#    16  16  16  16  16
#     4  10  22  38  62  90 124 164 204 257 319 372
#     4  12  25  39  61  86 125 167 215 260 312 377
#     4   9  19  36  56  83 122 157 199 254 308 367
#     4  11  25  41  59  87 123 168 216 260 315 378
#     4   9  19  36  63  95 122 155 207 263 315 375
#
# _framework density 22.714293999999999
#
# number of rings (size 3 to 8) (size 9 to 14) (size 15 to 20)
#    0.000    1.800    2.000    1.200    5.600    5.200 
#    0.000    0.000    0.000    1.800    0.000    2.800 
#    0.000    0.000    0.000    0.000    0.000    0.000 
#
# Total GULP energy -223107.583526 kJ/mol
# GULP energy per Si atom -5577.689588 kJ/mol
# Density = 2.266260 g / cm^3
# Si number density = 22.714294 Si / 1000 Ang^3
#
#
#
# Elastic Constant Matrix: (Units=GPa)
#
#
# Indices 1 2 3 4 5 6 
#
# 1 27.8337 4.3747 34.9601 0.0000 0.0000 0.0000
# 2 4.3747 39.7156 20.4972 0.0000 0.0000 0.0000
# 3 34.9601 20.4972 258.6505 0.0000 0.0000 0.0000
# 4 0.0000 0.0000 0.0000 10.9209 0.0000 0.0000
# 5 0.0000 0.0000 0.0000 0.0000 43.3512 0.0000
# 6 0.0000 0.0000 0.0000 0.0000 0.0000 10.4334
#
#
#
# Elastic Compliance Matrix: (Units=1/GPa)
#
#
# Indices 1 2 3 4 5 6 
#
# 1 0.043401 -0.001828 -0.005721 0.000000 0.000000 0.000000
# 2 -0.001828 0.026330 -0.001839 0.000000 0.000000 0.000000
# 3 -0.005721 -0.001839 0.004785 0.000000 0.000000 0.000000
# 4 0.000000 0.000000 0.000000 0.091568 0.000000 0.000000
# 5 0.000000 0.000000 0.000000 0.000000 0.023067 0.000000
# 6 0.000000 0.000000 0.000000 0.000000 0.000000 0.095846
#
#
# Mechanical properties :
#
#
# Convention : Reuss Voigt Hill
#
# Bulk Modulus (GPa) = 17.94083 49.54042 33.74063
# Shear Modulus (GPa) = 15.51087 30.69895 23.10491
#
# Velocity S-wave (km/s) = 2.61601 3.68030 3.19281
# Velocity P-wave (km/s) = 4.12799 6.31799 5.33654
#
# Compressibility (1/GPa) = 0.05573877
#
# Stress axis : x y z
#
# Youngs Moduli (GPa) = 23.04082 37.97987 208.97239
#
# Poissons Ratio (x) = 0.06942 1.19562
# Poissons Ratio (y) = 0.04212 0.38440
# Poissons Ratio (z) = 0.13183 0.06986
#
# Static dielectric constant tensor:
#      x y z
#    x 1.779820 0.000000 0.000000 
#    y 0.000000 1.874340 0.000000 
#    z 0.000000 0.000000 1.951900 
# 
# From -- ./inp_files/48816.got.cif
#   From: 2010.05.17/outbox.cif.g08.bks.cpg/sg63_25_cif.got.tgz:48816.got - 2010.06.03 15:47:04.
