data_PCOD9474866
_publ_section_title
;
Structure prediction by ZEFSAII (Michael W. Deem and Ramdas Pophale) SiO2 
 PCOD9474866
Probable space group: C M C M
;
_chemical_formula_sum "Si O2"
_cell_formula_units_Z 68
_cell_length_a 7.426427
_cell_length_b 20.177402
_cell_length_c 20.175154
_cell_angle_alpha 90.000000
_cell_angle_beta 90.000000
_cell_angle_gamma 90.000000
_cell_volume 3023.166187
_symmetry_space_group_name_H-M "C M C M"
_symmetry_group_IT_number 63
_symmetry_cell_setting 'orthorhombic'
loop_
_space_group_symop_operation_xyz
x,y,z
-x,-y,1/2+z
x,-y,-z
-x,y,1/2-z
-x,-y,-z
x,y,1/2-z
-x,y,z
x,-y,1/2+z
1/2+x,1/2+y,z
1/2-x,1/2-y,1/2+z
1/2+x,1/2-y,-z
1/2-x,1/2+y,1/2-z
1/2-x,1/2-y,-z
1/2+x,1/2+y,1/2-z
1/2-x,1/2+y,z
1/2+x,1/2-y,1/2+z
loop_
_atom_site_type_symbol
_atom_site_label
_atom_site_fract_x
_atom_site_fract_y
_atom_site_fract_z
Si Si1 0.284541 0.372467 0.250000
Si Si2 0.202417 0.889161 0.750000
Si Si3 0.216461 0.330582 0.890957
Si Si4 0.000000 0.506373 0.750000
Si Si5 0.792189 0.926882 0.008099
Si Si6 0.217584 0.184058 0.606776
O O1 0.500000 0.388201 0.250000
O O2 0.158500 0.436264 0.250000
O O3 0.246625 0.331169 0.183415
O O4 0.230163 0.845803 0.684122
O O5 0.344796 0.947966 0.750000
O O6 0.000000 0.915830 0.750000
O O7 0.286528 0.387715 0.939159
O O8 0.281386 0.257496 0.911831
O O9 0.000000 0.332045 0.895007
O O10 0.000000 0.937604 0.028856
O O11 0.712073 0.876223 0.061875
O O12 0.710785 0.000000 0.000000
O O13 0.000000 0.185244 0.598520
#
# Coordination Sequence:
#
# PCOD9474866 Si02
#       6
#     8   8  16   4  16  16
#     4  10  22  44  71  98 137 180 216 271 335 394
#     4  12  26  44  69  98 135 176 218 277 335 394
#     4  11  22  42  66  96 132 176 229 280 328 397
#     4  12  26  44  64 108 140 164 224 270 336 402
#     4  10  22  39  61  93 132 178 227 275 339 401
#     4   9  20  40  67  95 135 181 221 276 334 389
#
# _framework density 22.492972999999999
#
# number of rings (size 3 to 8) (size 9 to 14) (size 15 to 20)
#    0.000    1.647    1.176    2.471    3.294    2.353 
#    8.471    0.000    0.000    0.000    0.000    0.000 
#    0.000    0.000    0.000    0.000    0.000    0.000 
#
# Total GULP energy -189603.652182 kJ/mol
# GULP energy per Si atom -5576.578005 kJ/mol
# Density = 2.244178 g / cm^3
# Si number density = 22.492973 Si / 1000 Ang^3
#
#
#
# Elastic Constant Matrix: (Units=GPa)
#
#
# Indices 1 2 3 4 5 6 
#
# 1 113.3575 20.0540 -22.9108 0.0000 0.0000 0.0000
# 2 20.0540 224.8151 62.1383 0.0000 0.0000 0.0000
# 3 -22.9108 62.1383 111.5461 0.0000 0.0000 0.0000
# 4 0.0000 0.0000 0.0000 -3.4855 0.0000 0.0000
# 5 0.0000 0.0000 0.0000 0.0000 26.4608 0.0000
# 6 0.0000 0.0000 0.0000 0.0000 0.0000 2.5271
#
#
#
# Elastic Compliance Matrix: (Units=1/GPa)
#
#
# Indices 1 2 3 4 5 6 
#
# 1 0.009710 -0.001675 0.002928 0.000000 0.000000 0.000000
# 2 -0.001675 0.005547 -0.003434 0.000000 0.000000 0.000000
# 3 0.002928 -0.003434 0.011479 0.000000 0.000000 0.000000
# 4 0.000000 0.000000 0.000000 -0.286903 0.000000 0.000000
# 5 0.000000 0.000000 0.000000 0.000000 0.037792 0.000000
# 6 0.000000 0.000000 0.000000 0.000000 0.000000 0.395712
#
#
# Mechanical properties :
#
#
# Convention : Reuss Voigt Hill
#
# Bulk Modulus (GPa) = 44.69844 63.14241 53.92042
# Shear Modulus (GPa) = 27.00404 31.12963 29.06683
#
# Velocity S-wave (km/s) = 3.46866 3.72421 3.59871
# Velocity P-wave (km/s) = 5.99645 6.82832 6.42586
#
# Compressibility (1/GPa) = 0.02237214
#
# Stress axis : x y z
#
# Youngs Moduli (GPa) = 102.98961 180.28823 87.11465
#
# Poissons Ratio (x) = 0.30204 -0.25503
# Poissons Ratio (y) = 0.17254 0.29915
# Poissons Ratio (z) = -0.30151 0.61910
#
# Static dielectric constant tensor:
#      x y z
#    x 1.836610 0.000000 0.000000 
#    y 0.000000 1.801950 0.000000 
#    z 0.000000 0.000000 1.800590 
# 
# From -- ./inp_files/50522.got.cif
#   From: 2010.05.17/outbox.cif.g08.bks.cpg/sg63_26_cif.got.tgz:50522.got - 2010.06.03 15:47:04.
