data_PCOD9474876
_publ_section_title
;
Structure prediction by ZEFSAII (Michael W. Deem and Ramdas Pophale) SiO2 
 PCOD9474876
Probable space group: C M C M
;
_chemical_formula_sum "Si O2"
_cell_formula_units_Z 72
_cell_length_a 14.155232
_cell_length_b 10.440466
_cell_length_c 24.309574
_cell_angle_alpha 90.000000
_cell_angle_beta 90.000000
_cell_angle_gamma 90.000000
_cell_volume 3592.644322
_symmetry_space_group_name_H-M "C M C M"
_symmetry_group_IT_number 63
_symmetry_cell_setting 'orthorhombic'
loop_
_space_group_symop_operation_xyz
x,y,z
-x,-y,1/2+z
x,-y,-z
-x,y,1/2-z
-x,-y,-z
x,y,1/2-z
-x,y,z
x,-y,1/2+z
1/2+x,1/2+y,z
1/2-x,1/2-y,1/2+z
1/2+x,1/2-y,-z
1/2-x,1/2+y,1/2-z
1/2-x,1/2-y,-z
1/2+x,1/2+y,1/2-z
1/2-x,1/2+y,z
1/2+x,1/2-y,1/2+z
loop_
_atom_site_type_symbol
_atom_site_label
_atom_site_fract_x
_atom_site_fract_y
_atom_site_fract_z
Si Si1 0.500000 0.311885 0.515146
Si Si2 0.700925 0.826238 0.652357
Si Si3 0.500000 0.910378 0.099577
Si Si4 0.212656 0.874076 0.532534
Si Si5 0.000000 0.708563 0.395146
Si Si6 0.161718 0.394631 0.310773
O O1 0.500000 0.175314 0.545813
O O2 0.598534 0.375296 0.533043
O O3 0.500000 0.294704 0.449446
O O4 0.746485 0.863024 0.593481
O O5 0.594847 0.777612 0.640069
O O6 0.759205 0.712662 0.679983
O O7 0.698193 0.959273 0.685300
O O8 0.410880 0.881886 0.138739
O O9 0.500000 0.060088 0.085914
O O10 0.250000 0.750000 0.500000
O O11 0.246067 0.000000 0.500000
O O12 0.119123 0.376960 0.250000
#
# Coordination Sequence:
#
# PCOD9474876 Si02
#       6
#     8  16   8  16   8  16
#     4  12  22  39  61  96 134 169 195 258 313 386
#     4  11  23  42  63  95 125 164 213 261 313 373
#     4  10  22  39  63  96 122 163 212 258 316 375
#     4  12  25  40  63  95 131 173 207 247 311 385
#     4  10  23  36  64  92 131 164 205 252 312 389
#     4  11  23  43  67  90 122 164 217 272 315 360
#
# _framework density 20.040948
#
# number of rings (size 3 to 8) (size 9 to 14) (size 15 to 20)
#    0.000    0.889    4.444    3.000    3.111    0.000 
#    0.000    2.778    0.000    0.000    0.000    0.000 
#    0.000    0.000    0.000    0.000    0.000    0.000 
#
# Total GULP energy -201294.989694 kJ/mol
# GULP energy per Si atom -5591.527491 kJ/mol
# Density = 1.999533 g / cm^3
# Si number density = 20.040948 Si / 1000 Ang^3
#
#
#
# Elastic Constant Matrix: (Units=GPa)
#
#
# Indices 1 2 3 4 5 6 
#
# 1 109.1497 35.1186 10.0760 0.0000 0.0000 0.0000
# 2 35.1186 67.9535 19.5571 0.0000 0.0000 0.0000
# 3 10.0760 19.5571 77.2183 0.0000 0.0000 0.0000
# 4 0.0000 0.0000 0.0000 26.2141 0.0000 0.0000
# 5 0.0000 0.0000 0.0000 0.0000 -10.8903 0.0000
# 6 0.0000 0.0000 0.0000 0.0000 0.0000 21.0630
#
#
#
# Elastic Compliance Matrix: (Units=1/GPa)
#
#
# Indices 1 2 3 4 5 6 
#
# 1 0.010989 -0.005681 0.000005 0.000000 0.000000 0.000000
# 2 -0.005681 0.018809 -0.004023 0.000000 0.000000 0.000000
# 3 0.000005 -0.004023 0.013968 0.000000 0.000000 0.000000
# 4 0.000000 0.000000 0.000000 0.038147 0.000000 0.000000
# 5 0.000000 0.000000 0.000000 0.000000 -0.091825 0.000000
# 6 0.000000 0.000000 0.000000 0.000000 0.000000 0.047477
#
#
# Mechanical properties :
#
#
# Convention : Reuss Voigt Hill
#
# Bulk Modulus (GPa) = 41.03383 42.64720 41.84052
# Shear Modulus (GPa) = 76.82178 19.91536 48.36857
#
# Velocity S-wave (km/s) = 6.19803 3.15577 4.91806
# Velocity P-wave (km/s) = 8.46996 5.88258 7.29195
#
# Compressibility (1/GPa) = 0.02437014
#
# Stress axis : x y z
#
# Youngs Moduli (GPa) = 91.00024 53.16503 71.58971
#
# Poissons Ratio (x) = 0.30201 -0.00034
# Poissons Ratio (y) = 0.51693 0.28798
# Poissons Ratio (z) = -0.00044 0.21386
#
# Static dielectric constant tensor:
#      x y z
#    x 1.728310 0.000000 0.000000 
#    y 0.000000 1.695120 0.000000 
#    z 0.000000 0.000000 1.660150 
# 
# From -- ./inp_files/69079.got.cif
#   From: 2010.05.17/outbox.cif.g08.bks.cpg/sg63_35_cif.got.tgz:69079.got - 2010.06.03 15:47:04.
