data_PCOD9474674
_publ_section_title
;
Structure prediction by ZEFSAII (Michael W. Deem and Ramdas Pophale) SiO2 
 PCOD9474674
Probable space group: C M C M
;
_chemical_formula_sum "Si O2"
_cell_formula_units_Z 60
_cell_length_a 16.444039
_cell_length_b 13.808436
_cell_length_c 9.704687
_cell_angle_alpha 90.000000
_cell_angle_beta 90.000000
_cell_angle_gamma 90.000000
_cell_volume 2203.608924
_symmetry_space_group_name_H-M "C M C M"
_symmetry_group_IT_number 63
_symmetry_cell_setting 'orthorhombic'
loop_
_space_group_symop_operation_xyz
x,y,z
-x,-y,1/2+z
x,-y,-z
-x,y,1/2-z
-x,-y,-z
x,y,1/2-z
-x,y,z
x,-y,1/2+z
1/2+x,1/2+y,z
1/2-x,1/2-y,1/2+z
1/2+x,1/2-y,-z
1/2-x,1/2+y,1/2-z
1/2-x,1/2-y,-z
1/2+x,1/2+y,1/2-z
1/2-x,1/2+y,z
1/2+x,1/2-y,1/2+z
loop_
_atom_site_type_symbol
_atom_site_label
_atom_site_fract_x
_atom_site_fract_y
_atom_site_fract_z
Si Si1 0.000000 0.363015 0.086824
Si Si2 0.408570 0.387316 0.461841
Si Si3 0.088860 0.865346 0.750000
Si Si4 0.858823 0.500000 0.000000
Si Si5 0.681524 0.288854 0.250000
Si Si6 0.741489 0.087611 0.250000
Si Si7 0.500000 0.200531 0.250000
O O1 0.917967 0.427494 0.082691
O O2 0.000000 0.320057 0.250000
O O3 0.000000 0.334968 0.916720
O O4 0.405944 0.500000 0.500000
O O5 0.500000 0.374054 0.400434
O O6 0.408485 0.320546 0.598905
O O7 0.328774 0.356708 0.380831
O O8 0.163970 0.939057 0.750000
O O9 0.000000 0.915459 0.750000
O O10 0.804280 0.553499 0.114086
O O11 0.746259 0.205384 0.250000
O O12 0.593409 0.236493 0.250000
#
# Coordination Sequence:
#
# PCOD9474674 Si02
#       7
#     8  16   8   8   8   8   4
#     4  11  21  40  70 104 161 225 278 317 391 482
#     4  10  21  42  72 103 138 187 251 319 395 473
#     4  10  25  47  70 103 144 197 265 332 407 487
#     4  11  22  40  65 108 156 208 271 328 390 475
#     4  12  23  42  73 109 151 197 254 329 409 469
#     4  12  26  44  70 107 159 208 263 334 406 467
#     4  12  22  42  66 120 160 214 268 328 404 468
#
# _framework density 27.228062999999999
#
# number of rings (size 3 to 8) (size 9 to 14) (size 15 to 20)
#    0.000    1.067    5.333    0.800    3.733    3.200 
#    2.400    1.333    0.000    0.000    0.000    0.000 
#    0.000    1.067    0.000    0.000    0.000    0.000 
#
# Total GULP energy -167179.864383 kJ/mol
# GULP energy per Si atom -5572.662146 kJ/mol
# Density = 2.716609 g / cm^3
# Si number density = 27.228063 Si / 1000 Ang^3
#
#
#
# Elastic Constant Matrix: (Units=GPa)
#
#
# Indices 1 2 3 4 5 6 
#
# 1 114.9176 3.9410 23.7625 0.0000 0.0000 0.0000
# 2 3.9410 69.4976 30.9181 0.0000 0.0000 0.0000
# 3 23.7625 30.9181 198.5566 0.0000 0.0000 0.0000
# 4 0.0000 0.0000 0.0000 44.0217 0.0000 0.0000
# 5 0.0000 0.0000 0.0000 0.0000 5.5849 0.0000
# 6 0.0000 0.0000 0.0000 0.0000 0.0000 17.3519
#
#
#
# Elastic Compliance Matrix: (Units=1/GPa)
#
#
# Indices 1 2 3 4 5 6 
#
# 1 0.008923 -0.000033 -0.001063 0.000000 0.000000 0.000000
# 2 -0.000033 0.015460 -0.002403 0.000000 0.000000 0.000000
# 3 -0.001063 -0.002403 0.005538 0.000000 0.000000 0.000000
# 4 0.000000 0.000000 0.000000 0.022716 0.000000 0.000000
# 5 0.000000 0.000000 0.000000 0.000000 0.179056 0.000000
# 6 0.000000 0.000000 0.000000 0.000000 0.000000 0.057630
#
#
# Mechanical properties :
#
#
# Convention : Reuss Voigt Hill
#
# Bulk Modulus (GPa) = 43.62607 55.57944 49.60276
# Shear Modulus (GPa) = 16.44941 35.01503 25.73222
#
# Velocity S-wave (km/s) = 2.46058 3.58996 3.07752
# Velocity P-wave (km/s) = 4.91222 6.13520 5.55745
#
# Compressibility (1/GPa) = 0.02292207
#
# Stress axis : x y z
#
# Youngs Moduli (GPa) = 112.07287 64.68269 180.57825
#
# Poissons Ratio (x) = 0.00215 0.19190
# Poissons Ratio (y) = 0.00372 0.43400
# Poissons Ratio (z) = 0.11910 0.15546
#
# Static dielectric constant tensor:
#      x y z
#    x 2.015820 0.000000 0.000000 
#    y 0.000000 2.307760 0.000000 
#    z 0.000000 0.000000 2.363940 
# 
# From -- ./inp_files/5612.got.cif
#   From: 2010.05.17/outbox.cif.g08.bks.cpg/sg63_3_cif.got.tgz:5612.got - 2010.06.03 15:47:04.
