data_PCOD9474768
_publ_section_title
;
Structure prediction by ZEFSAII (Michael W. Deem and Ramdas Pophale) SiO2 
 PCOD9474768
Probable space group: C M C M
;
_chemical_formula_sum "Si O2"
_cell_formula_units_Z 100
_cell_length_a 21.188351
_cell_length_b 29.451407
_cell_length_c 8.127554
_cell_angle_alpha 90.000000
_cell_angle_beta 90.000000
_cell_angle_gamma 90.000000
_cell_volume 5071.811100
_symmetry_space_group_name_H-M "C M C M"
_symmetry_group_IT_number 63
_symmetry_cell_setting 'orthorhombic'
loop_
_space_group_symop_operation_xyz
x,y,z
-x,-y,1/2+z
x,-y,-z
-x,y,1/2-z
-x,-y,-z
x,y,1/2-z
-x,y,z
x,-y,1/2+z
1/2+x,1/2+y,z
1/2-x,1/2-y,1/2+z
1/2+x,1/2-y,-z
1/2-x,1/2+y,1/2-z
1/2-x,1/2-y,-z
1/2+x,1/2+y,1/2-z
1/2-x,1/2+y,z
1/2+x,1/2-y,1/2+z
loop_
_atom_site_type_symbol
_atom_site_label
_atom_site_fract_x
_atom_site_fract_y
_atom_site_fract_z
Si Si1 0.311548 0.221814 0.442927
Si Si2 0.500000 0.683791 0.250000
Si Si3 0.071437 0.550161 0.054724
Si Si4 0.677306 0.880636 0.055597
Si Si5 0.399331 0.304907 0.446109
Si Si6 0.314405 0.389699 0.443778
Si Si7 0.067912 0.052020 0.445518
O O1 0.303409 0.212923 0.250000
O O2 0.250000 0.250000 0.500000
O O3 0.323096 0.173458 0.527214
O O4 0.372209 0.254287 0.464440
O O5 0.445799 0.684569 0.401202
O O6 0.067130 0.549010 0.250000
O O7 0.000000 0.556913 0.986834
O O8 0.093643 0.500000 0.000000
O O9 0.119041 0.590430 0.010506
O O10 0.677431 0.888419 0.250000
O O11 0.745079 0.896674 0.983166
O O12 0.420402 0.310491 0.250000
O O13 0.339800 0.338739 0.465803
O O14 0.308903 0.397535 0.250000
O O15 0.370837 0.421234 0.502423
O O16 0.065090 0.054051 0.250000
O O17 0.000000 0.070524 0.509494
O O18 0.071989 0.000000 0.500000
#
# Coordination Sequence:
#
# PCOD9474768 Si02
#       7
#    16   4  16  16  16  16  16
#     4  11  22  40  66  92 129 170 215 272 329 393
#     4  12  26  40  68  90 130 176 224 268 324 398
#     4  10  22  43  69  97 130 169 213 265 333 403
#     4  11  23  40  65  97 128 167 217 262 322 391
#     4  10  24  43  62  94 131 171 218 272 326 383
#     4  10  22  39  59  87 124 161 206 266 316 374
#     4  10  22  38  58  83 113 154 204 253 313 379
#
# _framework density 19.716822000000001
#
# number of rings (size 3 to 8) (size 9 to 14) (size 15 to 20)
#    0.000    1.600    1.600    2.160    4.480    3.840 
#    1.440    0.000    0.000    0.000    0.000    0.000 
#    0.000    0.000    0.000    0.000    0.000    0.000 
#
# Total GULP energy -278358.299781 kJ/mol
# GULP energy per Si atom -5567.165996 kJ/mol
# Density = 1.967195 g / cm^3
# Si number density = 19.716822 Si / 1000 Ang^3
#
#
#
# Elastic Constant Matrix: (Units=GPa)
#
#
# Indices 1 2 3 4 5 6 
#
# 1 112.9634 63.1773 38.9785 0.0000 0.0000 0.0000
# 2 63.1773 96.4907 6.2095 0.0000 0.0000 0.0000
# 3 38.9785 6.2095 72.9088 0.0000 0.0000 0.0000
# 4 0.0000 0.0000 0.0000 34.9150 0.0000 0.0000
# 5 0.0000 0.0000 0.0000 0.0000 152.0564 0.0000
# 6 0.0000 0.0000 0.0000 0.0000 0.0000 49.2173
#
#
#
# Elastic Compliance Matrix: (Units=1/GPa)
#
#
# Indices 1 2 3 4 5 6 
#
# 1 0.018252 -0.011385 -0.008788 0.000000 0.000000 0.000000
# 2 -0.011385 0.017522 0.004594 0.000000 0.000000 0.000000
# 3 -0.008788 0.004594 0.018023 0.000000 0.000000 0.000000
# 4 0.000000 0.000000 0.000000 0.028641 0.000000 0.000000
# 5 0.000000 0.000000 0.000000 0.000000 0.006577 0.000000
# 6 0.000000 0.000000 0.000000 0.000000 0.000000 0.020318
#
#
# Mechanical properties :
#
#
# Convention : Reuss Voigt Hill
#
# Bulk Modulus (GPa) = 44.17091 55.45483 49.81287
# Shear Modulus (GPa) = 33.77517 58.83759 46.30638
#
# Velocity S-wave (km/s) = 4.14335 5.46865 4.85146
# Velocity P-wave (km/s) = 6.73358 8.24994 7.53002
#
# Compressibility (1/GPa) = 0.02263933
#
# Stress axis : x y z
#
# Youngs Moduli (GPa) = 54.78779 57.06976 55.48498
#
# Poissons Ratio (x) = 0.64974 0.48762
# Poissons Ratio (y) = 0.62376 -0.25492
# Poissons Ratio (z) = 0.48149 -0.26220
#
# Static dielectric constant tensor:
#      x y z
#    x 2.157530 0.000000 0.000000 
#    y 0.000000 1.729480 0.000000 
#    z 0.000000 0.000000 1.702630 
# 
# From -- ./inp_files/8741.got.cif
#   From: 2010.05.17/outbox.cif.g08.bks.cpg/sg63_5_cif.got.tgz:8741.got - 2010.06.03 15:47:04.
