data_PCOD9474712
_publ_section_title
;
Structure prediction by ZEFSAII (Michael W. Deem and Ramdas Pophale) SiO2 
 PCOD9474712
Probable space group: C M C M
;
_chemical_formula_sum "Si O2"
_cell_formula_units_Z 48
_cell_length_a 23.541087
_cell_length_b 9.259821
_cell_length_c 10.758760
_cell_angle_alpha 90.000000
_cell_angle_beta 90.000000
_cell_angle_gamma 90.000000
_cell_volume 2345.261766
_symmetry_space_group_name_H-M "C M C M"
_symmetry_group_IT_number 63
_symmetry_cell_setting 'orthorhombic'
loop_
_space_group_symop_operation_xyz
x,y,z
-x,-y,1/2+z
x,-y,-z
-x,y,1/2-z
-x,-y,-z
x,y,1/2-z
-x,y,z
x,-y,1/2+z
1/2+x,1/2+y,z
1/2-x,1/2-y,1/2+z
1/2+x,1/2-y,-z
1/2-x,1/2+y,1/2-z
1/2-x,1/2-y,-z
1/2+x,1/2+y,1/2-z
1/2-x,1/2+y,z
1/2+x,1/2-y,1/2+z
loop_
_atom_site_type_symbol
_atom_site_label
_atom_site_fract_x
_atom_site_fract_y
_atom_site_fract_z
Si Si1 0.217224 0.392207 0.615408
Si Si2 0.342027 0.662813 0.030264
Si Si3 0.933940 0.386520 0.389405
O O1 0.208181 0.500000 0.500000
O O2 0.205979 0.458241 0.750000
O O3 0.283223 0.346509 0.607266
O O4 0.178351 0.252920 0.590797
O O5 0.391291 0.753739 0.093992
O O6 0.359304 0.500000 0.000000
O O7 0.922898 0.500000 0.500000
O O8 0.926992 0.448664 0.250000
O O9 0.000000 0.341916 0.401064
#
# Coordination Sequence:
#
# PCOD9474712 Si02
#       3
#    16  16  16
#     4  10  22  39  59  85 118 156 194 232 280 340
#     4  10  22  36  58  88 119 150 189 238 287 336
#     4  10  22  41  63  85 112 150 194 238 286 342
#
# _framework density 20.466799000000002
#
# number of rings (size 3 to 8) (size 9 to 14) (size 15 to 20)
#    0.000    2.000    0.000    2.000    0.000   20.667 
#    0.000    0.000    0.000    4.000    0.000    0.000 
#    0.000    0.000    0.000    0.000    0.000    0.000 
#
# Total GULP energy -134070.501859 kJ/mol
# GULP energy per Si atom -5586.270911 kJ/mol
# Density = 2.042022 g / cm^3
# Si number density = 20.466799 Si / 1000 Ang^3
#
#
#
# Elastic Constant Matrix: (Units=GPa)
#
#
# Indices 1 2 3 4 5 6 
#
# 1 128.7006 50.5765 37.6225 0.0000 0.0000 0.0000
# 2 50.5765 124.6437 67.7811 0.0000 0.0000 0.0000
# 3 37.6225 67.7811 181.1835 0.0000 0.0000 0.0000
# 4 0.0000 0.0000 0.0000 23.3177 0.0000 0.0000
# 5 0.0000 0.0000 0.0000 0.0000 -34.8807 0.0000
# 6 0.0000 0.0000 0.0000 0.0000 0.0000 33.9731
#
#
#
# Elastic Compliance Matrix: (Units=1/GPa)
#
#
# Indices 1 2 3 4 5 6 
#
# 1 0.009305 -0.003421 -0.000652 0.000000 0.000000 0.000000
# 2 -0.003421 0.011330 -0.003528 0.000000 0.000000 0.000000
# 3 -0.000652 -0.003528 0.006975 0.000000 0.000000 0.000000
# 4 0.000000 0.000000 0.000000 0.042886 0.000000 0.000000
# 5 0.000000 0.000000 0.000000 0.000000 -0.028669 0.000000
# 6 0.000000 0.000000 0.000000 0.000000 0.000000 0.029435
#
#
# Mechanical properties :
#
#
# Convention : Reuss Voigt Hill
#
# Bulk Modulus (GPa) = 80.60352 82.94309 81.77331
# Shear Modulus (GPa) = 55.18826 23.05189 39.12008
#
# Velocity S-wave (km/s) = 5.19840 3.35969 4.37669
# Velocity P-wave (km/s) = 8.68903 7.46081 8.09824
#
# Compressibility (1/GPa) = 0.01240641
#
# Stress axis : x y z
#
# Youngs Moduli (GPa) = 107.46884 88.26508 143.37767
#
# Poissons Ratio (x) = 0.30195 0.09354
# Poissons Ratio (y) = 0.36764 0.50584
# Poissons Ratio (z) = 0.07011 0.31140
#
# Static dielectric constant tensor:
#      x y z
#    x 1.734030 0.000000 0.000000 
#    y 0.000000 1.733740 0.000000 
#    z 0.000000 0.000000 1.767130 
# 
# From -- ./inp_files/23339.got.cif
#   From: 2010.05.17/outbox.cif.g08.bks.cpg/sg63_12_cif.got.tgz:23339.got - 2010.06.03 15:47:04.
