data_PCOD9474660
_publ_section_title
;
Structure prediction by ZEFSAII (Michael W. Deem and Ramdas Pophale) SiO2 
 PCOD9474660
Probable space group: C M C M
;
_chemical_formula_sum "Si O2"
_cell_formula_units_Z 64
_cell_length_a 14.702339
_cell_length_b 11.540029
_cell_length_c 17.489553
_cell_angle_alpha 90.000000
_cell_angle_beta 90.000000
_cell_angle_gamma 90.000000
_cell_volume 2967.372328
_symmetry_space_group_name_H-M "C M C M"
_symmetry_group_IT_number 63
_symmetry_cell_setting 'orthorhombic'
loop_
_space_group_symop_operation_xyz
x,y,z
-x,-y,1/2+z
x,-y,-z
-x,y,1/2-z
-x,-y,-z
x,y,1/2-z
-x,y,z
x,-y,1/2+z
1/2+x,1/2+y,z
1/2-x,1/2-y,1/2+z
1/2+x,1/2-y,-z
1/2-x,1/2+y,1/2-z
1/2-x,1/2-y,-z
1/2+x,1/2+y,1/2-z
1/2-x,1/2+y,z
1/2+x,1/2-y,1/2+z
loop_
_atom_site_type_symbol
_atom_site_label
_atom_site_fract_x
_atom_site_fract_y
_atom_site_fract_z
Si Si1 0.899761 0.242619 0.119909
Si Si2 0.605826 0.875827 0.537328
Si Si3 0.702109 0.266754 0.163865
Si Si4 0.395390 0.478824 0.084928
O O1 0.810268 0.285096 0.161496
O O2 0.000000 0.283452 0.145387
O O3 0.897621 0.103767 0.124239
O O4 0.889975 0.282791 0.031580
O O5 0.500000 0.881250 0.563305
O O6 0.670915 0.833771 0.605071
O O7 0.628448 0.000000 0.500000
O O8 0.672620 0.241168 0.250000
O O9 0.656806 0.383367 0.132312
O O10 0.500000 0.438203 0.075133
O O11 0.357003 0.500000 0.000000
#
# Coordination Sequence:
#
# PCOD9474660 Si02
#       4
#    16  16  16  16
#     4  10  23  43  67  94 133 185 232 270 322 402
#     4  10  22  42  69 100 132 177 230 275 329 404
#     4  12  26  40  67 105 138 171 219 285 347 391
#     4  10  21  41  70 100 130 172 225 275 330 399
#
# _framework density 21.567902
#
# number of rings (size 3 to 8) (size 9 to 14) (size 15 to 20)
#    0.000    1.500    2.500    1.500    3.500    3.500 
#    0.000    2.500    0.000    4.500    0.000    0.000 
#    0.000    0.000    0.000    0.000    0.000    0.000 
#
# Total GULP energy -178961.375743 kJ/mol
# GULP energy per Si atom -5592.542992 kJ/mol
# Density = 2.151881 g / cm^3
# Si number density = 21.567902 Si / 1000 Ang^3
#
#
#
# Elastic Constant Matrix: (Units=GPa)
#
#
# Indices 1 2 3 4 5 6 
#
# 1 131.3726 46.3733 61.4148 0.0000 0.0000 0.0000
# 2 46.3733 105.9433 42.4163 0.0000 0.0000 0.0000
# 3 61.4148 42.4163 110.6643 0.0000 0.0000 0.0000
# 4 0.0000 0.0000 0.0000 14.5710 0.0000 0.0000
# 5 0.0000 0.0000 0.0000 0.0000 19.6863 0.0000
# 6 0.0000 0.0000 0.0000 0.0000 0.0000 -16.5607
#
#
#
# Elastic Compliance Matrix: (Units=1/GPa)
#
#
# Indices 1 2 3 4 5 6 
#
# 1 0.010932 -0.002783 -0.005000 0.000000 0.000000 0.000000
# 2 -0.002783 0.011859 -0.003001 0.000000 0.000000 0.000000
# 3 -0.005000 -0.003001 0.012961 0.000000 0.000000 0.000000
# 4 0.000000 0.000000 0.000000 0.068630 0.000000 0.000000
# 5 0.000000 0.000000 0.000000 0.000000 0.050797 0.000000
# 6 0.000000 0.000000 0.000000 0.000000 0.000000 -0.060384
#
#
# Mechanical properties :
#
#
# Convention : Reuss Voigt Hill
#
# Bulk Modulus (GPa) = 70.50223 72.04320 71.27272
# Shear Modulus (GPa) = 41.29168 16.72438 29.00803
#
# Velocity S-wave (km/s) = 4.38024 2.78767 3.67135
# Velocity P-wave (km/s) = 7.63816 6.62095 7.14767
#
# Compressibility (1/GPa) = 0.01418395
#
# Stress axis : x y z
#
# Youngs Moduli (GPa) = 91.47612 84.32662 77.15283
#
# Poissons Ratio (x) = 0.23470 0.38576
# Poissons Ratio (y) = 0.25460 0.23151
# Poissons Ratio (z) = 0.45738 0.25304
#
# Static dielectric constant tensor:
#      x y z
#    x 1.816780 0.000000 0.000000 
#    y 0.000000 1.775740 0.000000 
#    z 0.000000 0.000000 1.914650 
# 
# From -- ./inp_files/33380.got.cif
#   From: 2010.05.17/outbox.cif.g08.bks.cpg/sg63_17_cif.got.tgz:33380.got - 2010.06.03 15:47:04.
