data_PCOD9474347
_publ_section_title
;
Structure prediction by ZEFSAII (Michael W. Deem and Ramdas Pophale) SiO2 
 PCOD9474347
Probable space group: C M C M
;
_chemical_formula_sum "Si O2"
_cell_formula_units_Z 64
_cell_length_a 10.922964
_cell_length_b 14.114370
_cell_length_c 18.295925
_cell_angle_alpha 90.000000
_cell_angle_beta 90.000000
_cell_angle_gamma 90.000000
_cell_volume 2820.696578
_symmetry_space_group_name_H-M "C M C M"
_symmetry_group_IT_number 63
_symmetry_cell_setting 'orthorhombic'
loop_
_space_group_symop_operation_xyz
x,y,z
-x,-y,1/2+z
x,-y,-z
-x,y,1/2-z
-x,-y,-z
x,y,1/2-z
-x,y,z
x,-y,1/2+z
1/2+x,1/2+y,z
1/2-x,1/2-y,1/2+z
1/2+x,1/2-y,-z
1/2-x,1/2+y,1/2-z
1/2-x,1/2-y,-z
1/2+x,1/2+y,1/2-z
1/2-x,1/2+y,z
1/2+x,1/2-y,1/2+z
loop_
_atom_site_type_symbol
_atom_site_label
_atom_site_fract_x
_atom_site_fract_y
_atom_site_fract_z
Si Si1 0.633728 0.299430 0.464101
Si Si2 0.864488 0.531184 0.836017
Si Si3 0.716072 0.758128 0.334557
Si Si4 0.135919 0.934262 0.587660
O O1 0.500000 0.259436 0.481864
O O2 0.750000 0.250000 0.500000
O O3 0.660926 0.285113 0.379079
O O4 0.637241 0.402221 0.502278
O O5 0.845809 0.507690 0.750000
O O6 0.860797 0.645135 0.841265
O O7 0.753737 0.490126 0.883474
O O8 0.000000 0.496919 0.858161
O O9 0.739676 0.739057 0.250000
O O10 0.650796 0.667577 0.370235
O O11 0.000000 0.972365 0.605997
#
# Coordination Sequence:
#
# PCOD9474347 Si02
#       4
#    16  16  16  16
#     4   9  20  38  59  86 118 153 195 240 289 347
#     4  10  22  39  59  87 121 155 196 243 290 346
#     4  10  21  38  61  87 117 154 194 239 292 347
#     4  10  21  39  62  85 115 155 195 238 289 346
#
# _framework density 22.689430999999999
#
# number of rings (size 3 to 8) (size 9 to 14) (size 15 to 20)
#    0.000    2.250    0.000    1.500    0.000   10.500 
#    0.000    6.250    0.000    0.000    0.000    0.000 
#    0.000    0.000    0.000    0.000    0.000    0.000 
#
# Total GULP energy -178584.200937 kJ/mol
# GULP energy per Si atom -5580.756279 kJ/mol
# Density = 2.263779 g / cm^3
# Si number density = 22.689431 Si / 1000 Ang^3
#
#
#
# Elastic Constant Matrix: (Units=GPa)
#
#
# Indices 1 2 3 4 5 6 
#
# 1 218.4922 42.1218 68.0752 0.0000 0.0000 0.0000
# 2 42.1218 62.1994 9.1921 0.0000 0.0000 0.0000
# 3 68.0752 9.1921 112.4254 0.0000 0.0000 0.0000
# 4 0.0000 0.0000 0.0000 26.6739 0.0000 0.0000
# 5 0.0000 0.0000 0.0000 0.0000 28.1267 0.0000
# 6 0.0000 0.0000 0.0000 0.0000 0.0000 24.4030
#
#
#
# Elastic Compliance Matrix: (Units=1/GPa)
#
#
# Indices 1 2 3 4 5 6 
#
# 1 0.006430 -0.003825 -0.003581 0.000000 0.000000 0.000000
# 2 -0.003825 0.018550 0.000800 0.000000 0.000000 0.000000
# 3 -0.003581 0.000800 0.010998 0.000000 0.000000 0.000000
# 4 0.000000 0.000000 0.000000 0.037490 0.000000 0.000000
# 5 0.000000 0.000000 0.000000 0.000000 0.035553 0.000000
# 6 0.000000 0.000000 0.000000 0.000000 0.000000 0.040979
#
#
# Mechanical properties :
#
#
# Convention : Reuss Voigt Hill
#
# Bulk Modulus (GPa) = 43.92807 70.21059 57.06933
# Shear Modulus (GPa) = 29.27411 34.08925 31.68168
#
# Velocity S-wave (km/s) = 3.59584 3.88032 3.74079
# Velocity P-wave (km/s) = 6.05333 7.14753 6.62306
#
# Compressibility (1/GPa) = 0.02276449
#
# Stress axis : x y z
#
# Youngs Moduli (GPa) = 155.52425 53.90954 90.92947
#
# Poissons Ratio (x) = 0.20621 0.32558
# Poissons Ratio (y) = 0.59491 -0.07270
# Poissons Ratio (z) = 0.55687 -0.04310
#
# Static dielectric constant tensor:
#      x y z
#    x 1.809870 0.000000 0.000000 
#    y 0.000000 1.927520 0.000000 
#    z 0.000000 0.000000 1.913050 
# 
# From -- ./inp_files/41507.got.cif
#   From: 2010.05.17/outbox.cif.g08.bks.cpg/sg63_21_cif.got.tgz:41507.got - 2010.06.03 15:47:04.
