data_PCOD9474654
_publ_section_title
;
Structure prediction by ZEFSAII (Michael W. Deem and Ramdas Pophale) SiO2 
 PCOD9474654
Probable space group: C M C M
;
_chemical_formula_sum "Si O2"
_cell_formula_units_Z 116
_cell_length_a 17.932174
_cell_length_b 21.203587
_cell_length_c 15.091025
_cell_angle_alpha 90.000000
_cell_angle_beta 90.000000
_cell_angle_gamma 90.000000
_cell_volume 5738.006282
_symmetry_space_group_name_H-M "C M C M"
_symmetry_group_IT_number 63
_symmetry_cell_setting 'orthorhombic'
loop_
_space_group_symop_operation_xyz
x,y,z
-x,-y,1/2+z
x,-y,-z
-x,y,1/2-z
-x,-y,-z
x,y,1/2-z
-x,y,z
x,-y,1/2+z
1/2+x,1/2+y,z
1/2-x,1/2-y,1/2+z
1/2+x,1/2-y,-z
1/2-x,1/2+y,1/2-z
1/2-x,1/2-y,-z
1/2+x,1/2+y,1/2-z
1/2-x,1/2+y,z
1/2+x,1/2-y,1/2+z
loop_
_atom_site_type_symbol
_atom_site_label
_atom_site_fract_x
_atom_site_fract_y
_atom_site_fract_z
Si Si1 0.918230 0.502932 0.857395
Si Si2 0.832402 0.720592 0.508711
Si Si3 0.912487 0.152869 0.058947
Si Si4 0.195777 0.610614 0.646920
Si Si5 0.363102 0.570176 0.891575
Si Si6 0.654272 0.874667 0.856950
Si Si7 0.000000 0.076668 0.750000
Si Si8 0.312434 0.434740 0.648719
O O1 0.918224 0.504309 0.750000
O O2 0.850577 0.548649 0.883527
O O3 0.903430 0.430118 0.880082
O O4 0.000000 0.523872 0.888639
O O5 0.750000 0.750000 0.500000
O O6 0.886357 0.776880 0.537004
O O7 0.828164 0.667274 0.583766
O O8 0.854954 0.687164 0.416315
O O9 0.870724 0.122134 0.142177
O O10 0.000000 0.149194 0.069146
O O11 0.885146 0.108080 0.979086
O O12 0.177336 0.622780 0.750000
O O13 0.284363 0.599485 0.640431
O O14 0.433329 0.575864 0.826217
O O15 0.343503 0.496157 0.899859
O O16 0.653218 0.863203 0.750000
O O17 0.734273 0.905574 0.881974
O O18 0.300667 0.455696 0.750000
#
# Coordination Sequence:
#
# PCOD9474654 Si02
#       8
#    16  16  16  16  16  16   4  16
#     4   9  19  38  67 103 131 156 201 264 326 378
#     4  12  25  43  61  90 123 168 224 255 294 381
#     4  12  28  44  60  88 131 169 206 266 314 360
#     4  11  22  40  69  95 126 168 206 259 317 377
#     4  12  22  41  65  97 129 159 208 259 319 379
#     4  10  21  41  67  94 124 163 207 261 314 370
#     4  12  24  36  66 104 128 156 208 266 308 386
#     4  11  22  39  67  96 124 161 209 251 314 384
#
# _framework density 20.216080999999999
#
# number of rings (size 3 to 8) (size 9 to 14) (size 15 to 20)
#    0.000    0.966    6.207    0.414    0.966    3.586 
#    1.241    0.690    0.000    0.000    0.000    0.000 
#    0.000    0.000    0.000    0.000    0.000    0.000 
#
# Total GULP energy -323502.796425 kJ/mol
# GULP energy per Si atom -5577.634421 kJ/mol
# Density = 2.017007 g / cm^3
# Si number density = 20.216081 Si / 1000 Ang^3
#
#
#
# Elastic Constant Matrix: (Units=GPa)
#
#
# Indices 1 2 3 4 5 6 
#
# 1 96.3907 4.1880 -4.7217 0.0000 0.0000 0.0000
# 2 4.1880 91.4202 15.5640 0.0000 0.0000 0.0000
# 3 -4.7217 15.5640 49.8990 0.0000 0.0000 0.0000
# 4 0.0000 0.0000 0.0000 27.5162 0.0000 0.0000
# 5 0.0000 0.0000 0.0000 0.0000 14.3556 0.0000
# 6 0.0000 0.0000 0.0000 0.0000 0.0000 22.4273
#
#
#
# Elastic Compliance Matrix: (Units=1/GPa)
#
#
# Indices 1 2 3 4 5 6 
#
# 1 0.010463 -0.000684 0.001203 0.000000 0.000000 0.000000
# 2 -0.000684 0.011597 -0.003682 0.000000 0.000000 0.000000
# 3 0.001203 -0.003682 0.021303 0.000000 0.000000 0.000000
# 4 0.000000 0.000000 0.000000 0.036342 0.000000 0.000000
# 5 0.000000 0.000000 0.000000 0.000000 0.069659 0.000000
# 6 0.000000 0.000000 0.000000 0.000000 0.000000 0.044589
#
#
# Mechanical properties :
#
#
# Convention : Reuss Voigt Hill
#
# Bulk Modulus (GPa) = 26.99974 29.75229 28.37602
# Shear Modulus (GPa) = 23.51572 27.70511 25.61042
#
# Velocity S-wave (km/s) = 3.41430 3.70597 3.56312
# Velocity P-wave (km/s) = 5.37846 5.74991 5.56728
#
# Compressibility (1/GPa) = 0.03703739
#
# Stress axis : x y z
#
# Youngs Moduli (GPa) = 95.57376 86.23168 46.94222
#
# Poissons Ratio (x) = 0.05900 -0.05649
# Poissons Ratio (y) = 0.06539 0.17283
# Poissons Ratio (z) = -0.11502 0.31749
#
# Static dielectric constant tensor:
#      x y z
#    x 1.700010 0.000000 0.000000 
#    y 0.000000 1.711520 0.000000 
#    z 0.000000 0.000000 1.758210 
# 
# From -- ./inp_files/45938.got.cif
#   From: 2010.05.17/outbox.cif.g08.bks.cpg/sg63_23_cif.got.tgz:45938.got - 2010.06.03 15:47:04.
