data_PCOD9474040
_publ_section_title
;
Structure prediction by ZEFSAII (Michael W. Deem and Ramdas Pophale) SiO2 
 PCOD9474040
Probable space group: C M C M
;
_chemical_formula_sum "Si O2"
_cell_formula_units_Z 80
_cell_length_a 14.076701
_cell_length_b 19.044812
_cell_length_c 14.687103
_cell_angle_alpha 90.000000
_cell_angle_beta 90.000000
_cell_angle_gamma 90.000000
_cell_volume 3937.437892
_symmetry_space_group_name_H-M "C M C M"
_symmetry_group_IT_number 63
_symmetry_cell_setting 'orthorhombic'
loop_
_space_group_symop_operation_xyz
x,y,z
-x,-y,1/2+z
x,-y,-z
-x,y,1/2-z
-x,-y,-z
x,y,1/2-z
-x,y,z
x,-y,1/2+z
1/2+x,1/2+y,z
1/2-x,1/2-y,1/2+z
1/2+x,1/2-y,-z
1/2-x,1/2+y,1/2-z
1/2-x,1/2-y,-z
1/2+x,1/2+y,1/2-z
1/2-x,1/2+y,z
1/2+x,1/2-y,1/2+z
loop_
_atom_site_type_symbol
_atom_site_label
_atom_site_fract_x
_atom_site_fract_y
_atom_site_fract_z
Si Si1 0.391767 0.585518 0.143741
Si Si2 0.783248 0.221607 0.402294
Si Si3 0.392945 0.860475 0.612724
Si Si4 0.287677 0.000967 0.890537
Si Si5 0.109299 0.358073 0.389754
O O1 0.391775 0.606597 0.250000
O O2 0.500000 0.570278 0.116461
O O3 0.347522 0.651608 0.090053
O O4 0.319221 0.520719 0.134999
O O5 0.750000 0.250000 0.500000
O O6 0.686304 0.194935 0.356174
O O7 0.843399 0.284896 0.360555
O O8 0.500000 0.847003 0.642060
O O9 0.355854 0.937406 0.640392
O O10 0.392451 0.859143 0.501352
O O11 0.327669 0.075651 0.860367
O O12 0.290886 0.000000 0.000000
O O13 0.000000 0.364233 0.360602
#
# Coordination Sequence:
#
# PCOD9474040 Si02
#       5
#    16  16  16  16  16
#     4  10  21  37  55  75 105 145 181 217 270 332
#     4   9  17  30  50  77 105 134 175 219 258 311
#     4   8  14  25  43  68  99 134 167 203 250 301
#     4   9  17  30  49  74 100 131 176 222 260 308
#     4   9  15  25  45  73 101 127 163 215 263 298
#
# _framework density 20.317779999999999
#
# number of rings (size 3 to 8) (size 9 to 14) (size 15 to 20)
#    0.000    3.000    0.000    2.400    0.000    3.600 
#    0.000    2.000    0.000   16.200    0.000    0.000 
#    0.000    0.000    0.000    0.000    0.000    0.000 
#
# Total GULP energy -223095.648909 kJ/mol
# GULP energy per Si atom -5577.391223 kJ/mol
# Density = 2.027154 g / cm^3
# Si number density = 20.317780 Si / 1000 Ang^3
#
#
#
# Elastic Constant Matrix: (Units=GPa)
#
#
# Indices 1 2 3 4 5 6 
#
# 1 224.6014 103.6612 2.6967 0.0000 0.0000 0.0000
# 2 103.6612 140.4291 -0.0158 0.0000 0.0000 0.0000
# 3 2.6967 -0.0158 68.0221 0.0000 0.0000 0.0000
# 4 0.0000 0.0000 0.0000 -11.7807 0.0000 0.0000
# 5 0.0000 0.0000 0.0000 0.0000 -55.1534 0.0000
# 6 0.0000 0.0000 0.0000 0.0000 0.0000 20.7557
#
#
#
# Elastic Compliance Matrix: (Units=1/GPa)
#
#
# Indices 1 2 3 4 5 6 
#
# 1 0.006758 -0.004989 -0.000269 0.000000 0.000000 0.000000
# 2 -0.004989 0.010804 0.000200 0.000000 0.000000 0.000000
# 3 -0.000269 0.000200 0.014712 0.000000 0.000000 0.000000
# 4 0.000000 0.000000 0.000000 -0.084885 0.000000 0.000000
# 5 0.000000 0.000000 0.000000 0.000000 -0.018131 0.000000
# 6 0.000000 0.000000 0.000000 0.000000 0.000000 0.048180
#
#
# Mechanical properties :
#
#
# Convention : Reuss Voigt Hill
#
# Bulk Modulus (GPa) = 45.12940 71.74854 58.43897
# Shear Modulus (GPa) = -987.71056 12.54501 -487.58277
#
# Velocity S-wave (km/s) = -22.07230 2.48753 -15.50804
# Velocity P-wave (km/s) = 25.04640 6.60608 17.08335
#
# Compressibility (1/GPa) = 0.02215851
#
# Stress axis : x y z
#
# Youngs Moduli (GPa) = 147.97346 92.56256 67.97258
#
# Poissons Ratio (x) = 0.46176 0.01829
# Poissons Ratio (y) = 0.73818 -0.01361
# Poissons Ratio (z) = 0.03982 -0.01854
#
# Static dielectric constant tensor:
#      x y z
#    x 1.714290 0.000000 0.000000 
#    y 0.000000 1.701000 0.000000 
#    z 0.000000 0.000000 1.761640 
# 
# From -- ./inp_files/43990.got.cif
#   From: 2010.05.17/outbox.cif.g08.bks.cpg/sg63_22_cif.got.tgz:43990.got - 2010.06.03 15:47:04.
