data_PCOD9474173
_publ_section_title
;
Structure prediction by ZEFSAII (Michael W. Deem and Ramdas Pophale) SiO2 
 PCOD9474173
Probable space group: C M C M
;
_chemical_formula_sum "Si O2"
_cell_formula_units_Z 68
_cell_length_a 17.597614
_cell_length_b 20.288084
_cell_length_c 9.017408
_cell_angle_alpha 90.000000
_cell_angle_beta 90.000000
_cell_angle_gamma 90.000000
_cell_volume 3219.411876
_symmetry_space_group_name_H-M "C M C M"
_symmetry_group_IT_number 63
_symmetry_cell_setting 'orthorhombic'
loop_
_space_group_symop_operation_xyz
x,y,z
-x,-y,1/2+z
x,-y,-z
-x,y,1/2-z
-x,-y,-z
x,y,1/2-z
-x,y,z
x,-y,1/2+z
1/2+x,1/2+y,z
1/2-x,1/2-y,1/2+z
1/2+x,1/2-y,-z
1/2-x,1/2+y,1/2-z
1/2-x,1/2-y,-z
1/2+x,1/2+y,1/2-z
1/2-x,1/2+y,z
1/2+x,1/2-y,1/2+z
loop_
_atom_site_type_symbol
_atom_site_label
_atom_site_fract_x
_atom_site_fract_y
_atom_site_fract_z
Si Si1 0.592963 0.067339 0.922060
Si Si2 0.590463 0.200164 0.081834
Si Si3 0.312183 0.297820 0.574095
Si Si4 0.341433 0.567740 0.586441
Si Si5 0.500000 0.577700 0.750000
O O1 0.614477 0.070320 0.750000
O O2 0.500000 0.067169 0.926288
O O3 0.618948 0.131915 0.010937
O O4 0.618499 0.000000 0.000000
O O5 0.619274 0.209828 0.250000
O O6 0.500000 0.195022 0.090659
O O7 0.611328 0.261210 0.978864
O O8 0.305479 0.299347 0.750000
O O9 0.250000 0.250000 0.500000
O O10 0.311799 0.370202 0.505188
O O11 0.329907 0.500000 0.500000
O O12 0.304490 0.565747 0.750000
O O13 0.431406 0.576656 0.623294
#
# Coordination Sequence:
#
# PCOD9474173 Si02
#       5
#    16  16  16  16   4
#     4   9  16  28  48  76 111 147 188 237 291 346
#     4  10  21  37  59  87 119 155 201 255 315 378
#     4  12  26  44  64  89 126 171 216 264 325 393
#     4  10  21  40  65 100 136 176 217 270 328 396
#     4   8  22  36  70 100 146 172 218 270 342 388
#
# _framework density 21.121870999999999
#
# number of rings (size 3 to 8) (size 9 to 14) (size 15 to 20)
#    0.706    1.176    0.000    4.588    1.647    4.235 
#    0.000    1.176    0.000    0.000    0.000    0.000 
#    0.000    0.000    0.000    0.000    0.000    0.000 
#
# Total GULP energy -189387.495703 kJ/mol
# GULP energy per Si atom -5570.220462 kJ/mol
# Density = 2.107380 g / cm^3
# Si number density = 21.121871 Si / 1000 Ang^3
#
#
#
# Elastic Constant Matrix: (Units=GPa)
#
#
# Indices 1 2 3 4 5 6 
#
# 1 50.2745 37.5967 35.5807 0.0000 0.0000 0.0000
# 2 37.5967 189.0646 110.2504 0.0000 0.0000 0.0000
# 3 35.5807 110.2504 226.8596 0.0000 0.0000 0.0000
# 4 0.0000 0.0000 0.0000 37.5204 0.0000 0.0000
# 5 0.0000 0.0000 0.0000 0.0000 18.0641 0.0000
# 6 0.0000 0.0000 0.0000 0.0000 0.0000 2.1368
#
#
#
# Elastic Compliance Matrix: (Units=1/GPa)
#
#
# Indices 1 2 3 4 5 6 
#
# 1 0.024009 -0.003598 -0.002017 0.000000 0.000000 0.000000
# 2 -0.003598 0.007920 -0.003285 0.000000 0.000000 0.000000
# 3 -0.002017 -0.003285 0.006321 0.000000 0.000000 0.000000
# 4 0.000000 0.000000 0.000000 0.026652 0.000000 0.000000
# 5 0.000000 0.000000 0.000000 0.000000 0.055358 0.000000
# 6 0.000000 0.000000 0.000000 0.000000 0.000000 0.467981
#
#
# Mechanical properties :
#
#
# Convention : Reuss Voigt Hill
#
# Bulk Modulus (GPa) = 48.89930 92.56156 70.73043
# Shear Modulus (GPa) = 8.15849 30.39567 19.27708
#
# Velocity S-wave (km/s) = 1.96748 3.79761 3.02430
# Velocity P-wave (km/s) = 5.32565 7.94650 6.76422
#
# Compressibility (1/GPa) = 0.02045019
#
# Stress axis : x y z
#
# Youngs Moduli (GPa) = 41.65093 126.25975 158.21078
#
# Poissons Ratio (x) = 0.45431 0.31910
# Poissons Ratio (y) = 0.14987 0.51968
# Poissons Ratio (z) = 0.08401 0.41473
#
# Static dielectric constant tensor:
#      x y z
#    x 1.884360 0.000000 0.000000 
#    y 0.000000 1.726580 0.000000 
#    z 0.000000 0.000000 1.730720 
# 
# From -- ./inp_files/7637.got.cif
#   From: 2010.05.17/outbox.cif.g08.bks.cpg/sg63_4_cif.got.tgz:7637.got - 2010.06.03 15:47:04.
