data_PCOD9474619
_publ_section_title
;
Structure prediction by ZEFSAII (Michael W. Deem and Ramdas Pophale) SiO2 
 PCOD9474619
Probable space group: C M C M
;
_chemical_formula_sum "Si O2"
_cell_formula_units_Z 52
_cell_length_a 13.308641
_cell_length_b 6.861173
_cell_length_c 19.661033
_cell_angle_alpha 90.000000
_cell_angle_beta 90.000000
_cell_angle_gamma 90.000000
_cell_volume 1795.305710
_symmetry_space_group_name_H-M "C M C M"
_symmetry_group_IT_number 63
_symmetry_cell_setting 'orthorhombic'
loop_
_space_group_symop_operation_xyz
x,y,z
-x,-y,1/2+z
x,-y,-z
-x,y,1/2-z
-x,-y,-z
x,y,1/2-z
-x,y,z
x,-y,1/2+z
1/2+x,1/2+y,z
1/2-x,1/2-y,1/2+z
1/2+x,1/2-y,-z
1/2-x,1/2+y,1/2-z
1/2-x,1/2-y,-z
1/2+x,1/2+y,1/2-z
1/2-x,1/2+y,z
1/2+x,1/2-y,1/2+z
loop_
_atom_site_type_symbol
_atom_site_label
_atom_site_fract_x
_atom_site_fract_y
_atom_site_fract_z
Si Si1 0.668167 0.197925 0.150698
Si Si2 0.612802 0.770396 0.509802
Si Si3 0.388428 0.745154 0.354544
Si Si4 0.500000 0.640764 0.750000
O O1 0.680788 0.281831 0.073688
O O2 0.782493 0.179186 0.176154
O O3 0.590148 0.326958 0.191864
O O4 0.620525 0.981380 0.149458
O O5 0.500000 0.744408 0.536065
O O6 0.612433 0.685228 0.434312
O O7 0.629476 0.000000 0.500000
O O8 0.500000 0.696615 0.325353
#
# Coordination Sequence:
#
# PCOD9474619 Si02
#       4
#    16  16  16   4
#     4  11  21  40  63  88 126 163 200 248 303 360
#     4   8  14  31  61  91 118 152 195 250 306 358
#     4  10  21  40  66  93 120 154 204 256 308 353
#     4  12  24  40  64  86 122 176 202 238 302 372
#
# _framework density 28.964426
#
# number of rings (size 3 to 8) (size 9 to 14) (size 15 to 20)
#    0.000    2.154    3.077    2.769    0.000    1.231 
#    2.769    0.000    0.000    6.462    0.000    0.000 
#    0.000    0.000    0.000    0.000    0.000    0.000 
#
# Total GULP energy -145081.352054 kJ/mol
# GULP energy per Si atom -5580.052002 kJ/mol
# Density = 2.889850 g / cm^3
# Si number density = 28.964426 Si / 1000 Ang^3
#
#
#
# Elastic Constant Matrix: (Units=GPa)
#
#
# Indices 1 2 3 4 5 6 
#
# 1 310.0910 27.3484 36.9677 0.0000 0.0000 0.0000
# 2 27.3484 125.7482 -33.3651 0.0000 0.0000 0.0000
# 3 36.9677 -33.3651 157.8488 0.0000 0.0000 0.0000
# 4 0.0000 0.0000 0.0000 -72.8924 0.0000 0.0000
# 5 0.0000 0.0000 0.0000 0.0000 -26.6398 0.0000
# 6 0.0000 0.0000 0.0000 0.0000 0.0000 53.5558
#
#
#
# Elastic Compliance Matrix: (Units=1/GPa)
#
#
# Indices 1 2 3 4 5 6 
#
# 1 0.003436 -0.001018 -0.001020 0.000000 0.000000 0.000000
# 2 -0.001018 0.008726 0.002083 0.000000 0.000000 0.000000
# 3 -0.001020 0.002083 0.007014 0.000000 0.000000 0.000000
# 4 0.000000 0.000000 0.000000 -0.013719 0.000000 0.000000
# 5 0.000000 0.000000 0.000000 0.000000 -0.037538 0.000000
# 6 0.000000 0.000000 0.000000 0.000000 0.000000 0.018672
#
#
# Mechanical properties :
#
#
# Convention : Reuss Voigt Hill
#
# Bulk Modulus (GPa) = 51.90177 72.84334 62.37255
# Shear Modulus (GPa) = -706.68912 28.32050 -339.18431
#
# Velocity S-wave (km/s) = -15.63697 3.13032 -10.83319
# Velocity P-wave (km/s) = 17.55169 6.18620 11.61449
#
# Compressibility (1/GPa) = 0.01926717
#
# Stress axis : x y z
#
# Youngs Moduli (GPa) = 291.01674 114.59392 142.56551
#
# Poissons Ratio (x) = 0.11665 0.14541
# Poissons Ratio (y) = 0.29624 -0.29696
# Poissons Ratio (z) = 0.29681 -0.23869
#
# Static dielectric constant tensor:
#      x y z
#    x 2.145690 0.000000 0.000000 
#    y 0.000000 2.308690 0.000000 
#    z 0.000000 0.000000 2.186640 
# 
# From -- ./inp_files/51903.got.cif
#   From: 2010.05.17/outbox.cif.g08.bks.cpg/sg63_26_cif.got.tgz:51903.got - 2010.06.03 15:47:04.
