data_PCOD9474121
_publ_section_title
;
Structure prediction by ZEFSAII (Michael W. Deem and Ramdas Pophale) SiO2 
 PCOD9474121
Probable space group: C M C M
;
_chemical_formula_sum "Si O2"
_cell_formula_units_Z 72
_cell_length_a 7.267566
_cell_length_b 25.603147
_cell_length_c 15.073177
_cell_angle_alpha 90.000000
_cell_angle_beta 90.000000
_cell_angle_gamma 90.000000
_cell_volume 2804.704641
_symmetry_space_group_name_H-M "C M C M"
_symmetry_group_IT_number 63
_symmetry_cell_setting 'orthorhombic'
loop_
_space_group_symop_operation_xyz
x,y,z
-x,-y,1/2+z
x,-y,-z
-x,y,1/2-z
-x,-y,-z
x,y,1/2-z
-x,y,z
x,-y,1/2+z
1/2+x,1/2+y,z
1/2-x,1/2-y,1/2+z
1/2+x,1/2-y,-z
1/2-x,1/2+y,1/2-z
1/2-x,1/2-y,-z
1/2+x,1/2+y,1/2-z
1/2-x,1/2+y,z
1/2+x,1/2-y,1/2+z
loop_
_atom_site_type_symbol
_atom_site_label
_atom_site_fract_x
_atom_site_fract_y
_atom_site_fract_z
Si Si1 0.277578 0.346474 0.084381
Si Si2 0.277962 0.762104 0.851688
Si Si3 0.246613 0.078717 0.750000
Si Si4 0.275358 0.009605 0.102539
Si Si5 0.291986 0.876491 0.891364
O O1 0.500000 0.347118 0.080543
O O2 0.214827 0.286136 0.088398
O O3 0.226032 0.376896 0.172706
O O4 0.203463 0.374866 0.998039
O O5 0.240931 0.747776 0.750000
O O6 0.500000 0.764519 0.862525
O O7 0.206799 0.820604 0.867246
O O8 0.218168 0.034505 0.828391
O O9 0.500000 0.009330 0.104594
O O10 0.212697 0.067337 0.132233
O O11 0.220402 0.000000 0.000000
O O12 0.500000 0.875798 0.855641
#
# Coordination Sequence:
#
# PCOD9474121 Si02
#       5
#    16  16   8  16  16
#     4  11  22  39  61  85 119 159 201 245 292 356
#     4   9  18  34  59  90 120 152 194 245 298 355
#     4  12  22  36  58  82 113 160 199 238 289 358
#     4  10  21  37  57  88 124 151 190 252 306 349
#     4  10  21  38  61  90 119 152 197 247 304 357
#
# _framework density 25.671150999999998
#
# number of rings (size 3 to 8) (size 9 to 14) (size 15 to 20)
#    0.000    1.778    3.333    1.333    1.556    0.889 
#    0.000    3.333    0.000    2.000    0.000    0.000 
#    0.000    0.000    0.000    0.000    0.000    0.000 
#
# Total GULP energy -200406.278106 kJ/mol
# GULP energy per Si atom -5566.841059 kJ/mol
# Density = 2.561272 g / cm^3
# Si number density = 25.671151 Si / 1000 Ang^3
#
#
#
# Elastic Constant Matrix: (Units=GPa)
#
#
# Indices 1 2 3 4 5 6 
#
# 1 114.1771 2.9199 -1.2015 0.0000 0.0000 0.0000
# 2 2.9199 237.7571 35.6596 0.0000 0.0000 0.0000
# 3 -1.2015 35.6596 130.1266 0.0000 0.0000 0.0000
# 4 0.0000 0.0000 0.0000 64.0590 0.0000 0.0000
# 5 0.0000 0.0000 0.0000 0.0000 -45.3941 0.0000
# 6 0.0000 0.0000 0.0000 0.0000 0.0000 -36.8056
#
#
#
# Elastic Compliance Matrix: (Units=1/GPa)
#
#
# Indices 1 2 3 4 5 6 
#
# 1 0.008763 -0.000125 0.000115 0.000000 0.000000 0.000000
# 2 -0.000125 0.004388 -0.001204 0.000000 0.000000 0.000000
# 3 0.000115 -0.001204 0.008016 0.000000 0.000000 0.000000
# 4 0.000000 0.000000 0.000000 0.015611 0.000000 0.000000
# 5 0.000000 0.000000 0.000000 0.000000 -0.022029 0.000000
# 6 0.000000 0.000000 0.000000 0.000000 0.000000 -0.027170
#
#
# Mechanical properties :
#
#
# Convention : Reuss Voigt Hill
#
# Bulk Modulus (GPa) = 53.36263 61.86853 57.61558
# Shear Modulus (GPa) = -1333.84261 26.01736 -653.91262
#
# Velocity S-wave (km/s) = -22.81921 3.18698 -15.97747
# Velocity P-wave (km/s) = 25.95103 6.13964 17.82920
#
# Compressibility (1/GPa) = 0.01873971
#
# Stress axis : x y z
#
# Youngs Moduli (GPa) = 114.11970 227.89250 124.75469
#
# Poissons Ratio (x) = 0.02846 -0.01436
# Poissons Ratio (y) = 0.01425 0.15016
# Poissons Ratio (z) = -0.01314 0.27430
#
# Static dielectric constant tensor:
#      x y z
#    x 2.103380 0.000000 0.000000 
#    y 0.000000 1.984650 0.000000 
#    z 0.000000 0.000000 1.929720 
# 
# From -- ./inp_files/42082.got.cif
#   From: 2010.05.17/outbox.cif.g08.bks.cpg/sg63_22_cif.got.tgz:42082.got - 2010.06.03 15:47:04.
