data_PCOD9474302
_publ_section_title
;
Structure prediction by ZEFSAII (Michael W. Deem and Ramdas Pophale) SiO2 
 PCOD9474302
Probable space group: C M C M
;
_chemical_formula_sum "Si O2"
_cell_formula_units_Z 52
_cell_length_a 21.885467
_cell_length_b 4.900357
_cell_length_c 21.377348
_cell_angle_alpha 90.000000
_cell_angle_beta 90.000000
_cell_angle_gamma 90.000000
_cell_volume 2292.647920
_symmetry_space_group_name_H-M "C M C M"
_symmetry_group_IT_number 63
_symmetry_cell_setting 'orthorhombic'
loop_
_space_group_symop_operation_xyz
x,y,z
-x,-y,1/2+z
x,-y,-z
-x,y,1/2-z
-x,-y,-z
x,y,1/2-z
-x,y,z
x,-y,1/2+z
1/2+x,1/2+y,z
1/2-x,1/2-y,1/2+z
1/2+x,1/2-y,-z
1/2-x,1/2+y,1/2-z
1/2-x,1/2-y,-z
1/2+x,1/2+y,1/2-z
1/2-x,1/2+y,z
1/2+x,1/2-y,1/2+z
loop_
_atom_site_type_symbol
_atom_site_label
_atom_site_fract_x
_atom_site_fract_y
_atom_site_fract_z
Si Si1 0.790813 0.871123 0.750000
Si Si2 0.000000 0.824224 0.250000
Si Si3 0.707739 0.500263 0.884430
Si Si4 0.500000 0.176038 0.849579
Si Si5 0.403239 0.264603 0.957548
O O1 0.771161 0.556476 0.750000
O O2 0.820773 0.950761 0.684854
O O3 0.000000 0.586063 0.305172
O O4 0.000000 0.062185 0.304897
O O5 0.732444 0.806255 0.888784
O O6 0.659449 0.400166 0.933838
O O7 0.442541 0.184408 0.897108
O O8 0.433166 0.500000 0.000000
O O9 0.393140 0.000000 0.000000
#
# Coordination Sequence:
#
# PCOD9474302 Si02
#       5
#     8   4  16   8  16
#     4   8  16  32  53  77 110 153 197 250 308 354
#     4  10  24  44  74 100 124 158 206 280 336 364
#     4  10  21  38  59  89 125 165 215 263 314 372
#     4  11  24  47  68  99 128 161 216 264 324 389
#     4  12  25  41  65  93 131 178 213 257 314 381
#
# _framework density 22.681196
#
# number of rings (size 3 to 8) (size 9 to 14) (size 15 to 20)
#    0.000    1.538    0.000    4.615    0.000    6.154 
#    0.000   12.308    0.000    0.000    0.000    0.000 
#    0.000    0.000    0.000    0.000    0.000    0.000 
#
# Total GULP energy -144879.542189 kJ/mol
# GULP energy per Si atom -5572.290084 kJ/mol
# Density = 2.262957 g / cm^3
# Si number density = 22.681196 Si / 1000 Ang^3
#
#
#
# Elastic Constant Matrix: (Units=GPa)
#
#
# Indices 1 2 3 4 5 6 
#
# 1 35.5256 -18.4771 31.9101 0.0000 0.0000 0.0000
# 2 -18.4771 127.3840 34.9936 0.0000 0.0000 0.0000
# 3 31.9101 34.9936 179.6926 0.0000 0.0000 0.0000
# 4 0.0000 0.0000 0.0000 43.5709 0.0000 0.0000
# 5 0.0000 0.0000 0.0000 0.0000 -2.9695 0.0000
# 6 0.0000 0.0000 0.0000 0.0000 0.0000 105.2412
#
#
#
# Elastic Compliance Matrix: (Units=1/GPa)
#
#
# Indices 1 2 3 4 5 6 
#
# 1 0.040319 0.008257 -0.008768 0.000000 0.000000 0.000000
# 2 0.008257 0.009985 -0.003411 0.000000 0.000000 0.000000
# 3 -0.008768 -0.003411 0.007786 0.000000 0.000000 0.000000
# 4 0.000000 0.000000 0.000000 0.022951 0.000000 0.000000
# 5 0.000000 0.000000 0.000000 0.000000 -0.336761 0.000000
# 6 0.000000 0.000000 0.000000 0.000000 0.000000 0.009502
#
#
# Mechanical properties :
#
#
# Convention : Reuss Voigt Hill
#
# Bulk Modulus (GPa) = 19.90193 48.82839 34.36516
# Shear Modulus (GPa) = -22.56057 48.78023 13.10983
#
# Velocity S-wave (km/s) = -3.15728 4.64258 2.40678
# Velocity P-wave (km/s) = 2.12074 7.09317 4.78620
#
# Compressibility (1/GPa) = 0.05024639
#
# Stress axis : x y z
#
# Youngs Moduli (GPa) = 24.80242 100.15129 128.43121
#
# Poissons Ratio (x) = -0.82693 1.12606
# Poissons Ratio (y) = -0.20479 0.43804
# Poissons Ratio (z) = 0.21746 0.34159
#
# Static dielectric constant tensor:
#      x y z
#    x 1.855990 0.000000 0.000000 
#    y 0.000000 1.777740 0.000000 
#    z 0.000000 0.000000 1.863770 
# 
# From -- ./inp_files/56214.got.cif
#   From: 2010.05.17/outbox.cif.g08.bks.cpg/sg63_29_cif.got.tgz:56214.got - 2010.06.03 15:47:04.
