data_PCOD9474729
_publ_section_title
;
Structure prediction by ZEFSAII (Michael W. Deem and Ramdas Pophale) SiO2 
 PCOD9474729
Probable space group: C M C M
;
_chemical_formula_sum "Si O2"
_cell_formula_units_Z 88
_cell_length_a 18.198722
_cell_length_b 30.391830
_cell_length_c 8.072850
_cell_angle_alpha 90.000000
_cell_angle_beta 90.000000
_cell_angle_gamma 90.000000
_cell_volume 4465.032508
_symmetry_space_group_name_H-M "C M C M"
_symmetry_group_IT_number 63
_symmetry_cell_setting 'orthorhombic'
loop_
_space_group_symop_operation_xyz
x,y,z
-x,-y,1/2+z
x,-y,-z
-x,y,1/2-z
-x,-y,-z
x,y,1/2-z
-x,y,z
x,-y,1/2+z
1/2+x,1/2+y,z
1/2-x,1/2-y,1/2+z
1/2+x,1/2-y,-z
1/2-x,1/2+y,1/2-z
1/2-x,1/2-y,-z
1/2+x,1/2+y,1/2-z
1/2-x,1/2+y,z
1/2+x,1/2-y,1/2+z
loop_
_atom_site_type_symbol
_atom_site_label
_atom_site_fract_x
_atom_site_fract_y
_atom_site_fract_z
Si Si1 0.212155 0.449318 0.950127
Si Si2 0.145140 0.102728 0.446738
Si Si3 0.589529 0.210937 0.058481
Si Si4 0.415548 0.885267 0.546762
Si Si5 0.000000 0.949300 0.446921
Si Si6 0.415501 0.693874 0.949515
O O1 0.213060 0.447849 0.750000
O O2 0.283761 0.423027 0.012395
O O3 0.139555 0.423311 0.006257
O O4 0.213469 0.500000 0.000000
O O5 0.151949 0.104973 0.250000
O O6 0.133880 0.152312 0.508478
O O7 0.072367 0.075251 0.489367
O O8 0.614637 0.210657 0.250000
O O9 0.500000 0.211284 0.060551
O O10 0.609762 0.163335 0.987182
O O11 0.610466 0.258345 0.985078
O O12 0.415462 0.883663 0.750000
O O13 0.500000 0.892550 0.496336
O O14 0.000000 0.946510 0.250000
O O15 0.000000 0.000000 0.500000
O O16 0.418972 0.697460 0.750000
O O17 0.500000 0.685844 0.007046
#
# Coordination Sequence:
#
# PCOD9474729 Si02
#       6
#    16  16  16  16   8  16
#     4  10  22  37  53  75 103 136 173 216 264 312
#     4  11  22  35  50  73 106 141 175 212 261 311
#     4   7  11  22  45  76 104 130 167 210 248 293
#     4   8  14  29  54  80 104 133 172 214 253 304
#     4  12  24  38  56  76  98 130 178 226 263 308
#     4   9  16  28  49  77 104 134 175 216 250 294
#
# _framework density 19.708703
#
# number of rings (size 3 to 8) (size 9 to 14) (size 15 to 20)
#    0.000    2.727    0.909    4.091    0.000    3.273 
#    0.000    0.909    0.000    1.091    0.000    2.545 
#    0.000    0.000    0.000    0.000    0.000    0.000 
#
# Total GULP energy -245302.356924 kJ/mol
# GULP energy per Si atom -5575.053566 kJ/mol
# Density = 1.966385 g / cm^3
# Si number density = 19.708703 Si / 1000 Ang^3
#
#
#
# Elastic Constant Matrix: (Units=GPa)
#
#
# Indices 1 2 3 4 5 6 
#
# 1 107.4737 96.8295 5.5155 0.0000 0.0000 0.0000
# 2 96.8295 185.4306 9.1922 0.0000 0.0000 0.0000
# 3 5.5155 9.1922 14.7951 0.0000 0.0000 0.0000
# 4 0.0000 0.0000 0.0000 -6.0877 0.0000 0.0000
# 5 0.0000 0.0000 0.0000 0.0000 -2.6754 0.0000
# 6 0.0000 0.0000 0.0000 0.0000 0.0000 0.7149
#
#
#
# Elastic Compliance Matrix: (Units=1/GPa)
#
#
# Indices 1 2 3 4 5 6 
#
# 1 0.017582 -0.009138 -0.000877 0.000000 0.000000 0.000000
# 2 -0.009138 0.010313 -0.003001 0.000000 0.000000 0.000000
# 3 -0.000877 -0.003001 0.069782 0.000000 0.000000 0.000000
# 4 0.000000 0.000000 0.000000 -0.164266 0.000000 0.000000
# 5 0.000000 0.000000 0.000000 0.000000 -0.373782 0.000000
# 6 0.000000 0.000000 0.000000 0.000000 0.000000 1.398886
#
#
# Mechanical properties :
#
#
# Convention : Reuss Voigt Hill
#
# Bulk Modulus (GPa) = 13.95769 58.97487 36.46628
# Shear Modulus (GPa) = 4.95820 11.46783 8.21302
#
# Velocity S-wave (km/s) = 1.58783 2.41481 2.04359
# Velocity P-wave (km/s) = 3.23403 6.14518 4.91031
#
# Compressibility (1/GPa) = 0.07164507
#
# Stress axis : x y z
#
# Youngs Moduli (GPa) = 56.87481 96.96213 14.33038
#
# Poissons Ratio (x) = 0.88603 0.01257
# Poissons Ratio (y) = 0.51971 0.04301
# Poissons Ratio (z) = 0.04989 0.29100
#
# Static dielectric constant tensor:
#      x y z
#    x 1.680960 0.000000 0.000000 
#    y 0.000000 1.707620 0.000000 
#    z 0.000000 0.000000 1.706090 
# 
# From -- ./inp_files/6905.got.cif
#   From: 2010.05.17/outbox.cif.g08.bks.cpg/sg63_4_cif.got.tgz:6905.got - 2010.06.03 15:47:04.
