data_PCOD9474285
_publ_section_title
;
Structure prediction by ZEFSAII (Michael W. Deem and Ramdas Pophale) SiO2 
 PCOD9474285
Probable space group: C M C M
;
_chemical_formula_sum "Si O2"
_cell_formula_units_Z 88
_cell_length_a 23.804170
_cell_length_b 21.621744
_cell_length_c 9.047650
_cell_angle_alpha 90.000000
_cell_angle_beta 90.000000
_cell_angle_gamma 90.000000
_cell_volume 4656.713896
_symmetry_space_group_name_H-M "C M C M"
_symmetry_group_IT_number 63
_symmetry_cell_setting 'orthorhombic'
loop_
_space_group_symop_operation_xyz
x,y,z
-x,-y,1/2+z
x,-y,-z
-x,y,1/2-z
-x,-y,-z
x,y,1/2-z
-x,y,z
x,-y,1/2+z
1/2+x,1/2+y,z
1/2-x,1/2-y,1/2+z
1/2+x,1/2-y,-z
1/2-x,1/2+y,1/2-z
1/2-x,1/2-y,-z
1/2+x,1/2+y,1/2-z
1/2-x,1/2+y,z
1/2+x,1/2-y,1/2+z
loop_
_atom_site_type_symbol
_atom_site_label
_atom_site_fract_x
_atom_site_fract_y
_atom_site_fract_z
Si Si1 0.206154 0.436318 0.926432
Si Si2 0.900656 0.645481 0.427420
Si Si3 0.116399 0.214326 0.578908
Si Si4 0.061191 0.911065 0.078217
Si Si5 0.000000 0.567849 0.927087
Si Si6 0.328121 0.607742 0.073947
O O1 0.208681 0.444894 0.750000
O O2 0.160722 0.383251 0.955276
O O3 0.268754 0.418716 0.978616
O O4 0.187617 0.500000 0.000000
O O5 0.912045 0.641370 0.250000
O O6 0.900470 0.717653 0.470052
O O7 0.946159 0.605763 0.514783
O O8 0.135080 0.218719 0.750000
O O9 0.066073 0.164157 0.575223
O O10 0.162964 0.177989 0.484001
O O11 0.065801 0.929803 0.250000
O O12 0.000000 0.929440 0.020086
O O13 0.117375 0.928014 0.989921
O O14 0.000000 0.562777 0.750000
O O15 0.000000 0.500000 0.000000
O O16 0.329743 0.606498 0.250000
#
# Coordination Sequence:
#
# PCOD9474285 Si02
#       6
#    16  16  16  16   8  16
#     4  10  22  38  56  77 103 139 183 226 270 321
#     4  10  21  38  59  81 108 144 182 224 270 321
#     4   8  17  32  52  79 109 144 177 211 264 326
#     4   8  15  29  49  75 106 141 176 206 250 317
#     4  12  26  42  58  82 112 146 189 232 273 314
#     4   9  18  32  50  78 111 139 172 222 272 314
#
# _framework density 18.897447
#
# number of rings (size 3 to 8) (size 9 to 14) (size 15 to 20)
#    1.091    1.636    0.000    1.364    1.273    5.455 
#    0.000    0.000    0.000    0.545    0.000    0.000 
#    0.000    0.000    0.000    0.000    0.000    0.000 
#
# Total GULP energy -244994.713931 kJ/mol
# GULP energy per Si atom -5568.061680 kJ/mol
# Density = 1.885444 g / cm^3
# Si number density = 18.897447 Si / 1000 Ang^3
#
#
#
# Elastic Constant Matrix: (Units=GPa)
#
#
# Indices 1 2 3 4 5 6 
#
# 1 90.1879 16.2563 29.4454 0.0000 0.0000 0.0000
# 2 16.2563 106.1797 23.5219 0.0000 0.0000 0.0000
# 3 29.4454 23.5219 38.7814 0.0000 0.0000 0.0000
# 4 0.0000 0.0000 0.0000 18.1929 0.0000 0.0000
# 5 0.0000 0.0000 0.0000 0.0000 70.2054 0.0000
# 6 0.0000 0.0000 0.0000 0.0000 0.0000 19.1592
#
#
#
# Elastic Compliance Matrix: (Units=1/GPa)
#
#
# Indices 1 2 3 4 5 6 
#
# 1 0.014749 0.000257 -0.011354 0.000000 0.000000 0.000000
# 2 0.000257 0.010884 -0.006797 0.000000 0.000000 0.000000
# 3 -0.011354 -0.006797 0.038529 0.000000 0.000000 0.000000
# 4 0.000000 0.000000 0.000000 0.054967 0.000000 0.000000
# 5 0.000000 0.000000 0.000000 0.000000 0.014244 0.000000
# 6 0.000000 0.000000 0.000000 0.000000 0.000000 0.052194
#
#
# Mechanical properties :
#
#
# Convention : Reuss Voigt Hill
#
# Bulk Modulus (GPa) = 35.24331 41.51065 38.37698
# Shear Modulus (GPa) = 21.66264 32.57320 27.11792
#
# Velocity S-wave (km/s) = 3.38942 4.15623 3.79226
# Velocity P-wave (km/s) = 5.83162 6.71165 6.28705
#
# Compressibility (1/GPa) = 0.02837418
#
# Stress axis : x y z
#
# Youngs Moduli (GPa) = 67.80304 91.87519 25.95455
#
# Poissons Ratio (x) = -0.02363 0.29469
# Poissons Ratio (y) = -0.01744 0.17641
# Poissons Ratio (z) = 0.76984 0.62447
#
# Static dielectric constant tensor:
#      x y z
#    x 1.657030 0.000000 0.000000 
#    y 0.000000 1.659040 0.000000 
#    z 0.000000 0.000000 1.640340 
# 
# From -- ./inp_files/10220.got.cif
#   From: 2010.05.17/outbox.cif.g08.bks.cpg/sg63_6_cif.got.tgz:10220.got - 2010.06.03 15:47:04.
