data_PCOD9474070
_publ_section_title
;
Structure prediction by ZEFSAII (Michael W. Deem and Ramdas Pophale) SiO2 
 PCOD9474070
Probable space group: C M C M
;
_chemical_formula_sum "Si O2"
_cell_formula_units_Z 80
_cell_length_a 7.842162
_cell_length_b 23.336173
_cell_length_c 16.829907
_cell_angle_alpha 90.000000
_cell_angle_beta 90.000000
_cell_angle_gamma 90.000000
_cell_volume 3079.974787
_symmetry_space_group_name_H-M "C M C M"
_symmetry_group_IT_number 63
_symmetry_cell_setting 'orthorhombic'
loop_
_space_group_symop_operation_xyz
x,y,z
-x,-y,1/2+z
x,-y,-z
-x,y,1/2-z
-x,-y,-z
x,y,1/2-z
-x,y,z
x,-y,1/2+z
1/2+x,1/2+y,z
1/2-x,1/2-y,1/2+z
1/2+x,1/2-y,-z
1/2-x,1/2+y,1/2-z
1/2-x,1/2-y,-z
1/2+x,1/2+y,1/2-z
1/2-x,1/2+y,z
1/2+x,1/2-y,1/2+z
loop_
_atom_site_type_symbol
_atom_site_label
_atom_site_fract_x
_atom_site_fract_y
_atom_site_fract_z
Si Si1 0.301536 0.358178 0.838120
Si Si2 0.696170 0.839368 0.250000
Si Si3 0.207972 0.868991 0.490559
Si Si4 0.802526 0.235095 0.894729
Si Si5 0.697794 0.981537 0.083648
Si Si6 0.807493 0.965541 0.250000
O O1 0.225430 0.367078 0.750000
O O2 0.500000 0.374569 0.833784
O O3 0.292876 0.290544 0.860702
O O4 0.231460 0.384885 0.920167
O O5 0.500000 0.819903 0.250000
O O6 0.789346 0.812220 0.174795
O O7 0.697184 0.908094 0.250000
O O8 0.259695 0.804050 0.468699
O O9 0.284197 0.913065 0.427847
O O10 0.000000 0.871003 0.487758
O O11 0.000000 0.250765 0.905593
O O12 0.500000 0.997380 0.084494
O O13 0.775972 0.998617 0.167926
O O14 0.781241 0.000000 0.000000
O O15 0.000000 0.945158 0.250000
#
# Coordination Sequence:
#
# PCOD9474070 Si02
#       6
#    16   8  16  16  16   8
#     4  10  21  37  56  82 122 169 211 253 305 369
#     4  12  22  34  58  89 122 161 202 250 305 359
#     4  10  22  39  60  87 123 163 207 259 312 369
#     4  11  21  34  56  87 121 160 207 256 304 363
#     4  11  25  45  69  97 129 165 207 259 318 382
#     4  12  24  42  70  99 126 161 206 260 321 379
#
# _framework density 25.974238
#
# number of rings (size 3 to 8) (size 9 to 14) (size 15 to 20)
#    0.000    1.200    3.000    3.600    0.000    3.200 
#    1.800    0.000    0.000    0.000    0.000    0.000 
#    0.000    0.000    0.000    0.000    0.000    0.000 
#
# Total GULP energy -223738.970295 kJ/mol
# GULP energy per Si atom -5593.474257 kJ/mol
# Density = 2.591512 g / cm^3
# Si number density = 25.974238 Si / 1000 Ang^3
#
#
#
# Elastic Constant Matrix: (Units=GPa)
#
#
# Indices 1 2 3 4 5 6 
#
# 1 95.5363 -0.1486 18.6418 0.0000 0.0000 0.0000
# 2 -0.1486 55.6918 10.9265 0.0000 0.0000 0.0000
# 3 18.6418 10.9265 222.4400 0.0000 0.0000 0.0000
# 4 0.0000 0.0000 0.0000 38.7564 0.0000 0.0000
# 5 0.0000 0.0000 0.0000 0.0000 19.3703 0.0000
# 6 0.0000 0.0000 0.0000 0.0000 0.0000 28.6799
#
#
#
# Elastic Compliance Matrix: (Units=1/GPa)
#
#
# Indices 1 2 3 4 5 6 
#
# 1 0.010644 0.000205 -0.000902 0.000000 0.000000 0.000000
# 2 0.000205 0.018135 -0.000908 0.000000 0.000000 0.000000
# 3 -0.000902 -0.000908 0.004616 0.000000 0.000000 0.000000
# 4 0.000000 0.000000 0.000000 0.025802 0.000000 0.000000
# 5 0.000000 0.000000 0.000000 0.000000 0.051626 0.000000
# 6 0.000000 0.000000 0.000000 0.000000 0.000000 0.034868
#
#
# Mechanical properties :
#
#
# Convention : Reuss Voigt Hill
#
# Bulk Modulus (GPa) = 33.12946 48.05639 40.59293
# Shear Modulus (GPa) = 31.45439 40.31120 35.88279
#
# Velocity S-wave (km/s) = 3.48369 3.94378 3.72085
# Velocity P-wave (km/s) = 5.38182 6.26734 5.84138
#
# Compressibility (1/GPa) = 0.03018461
#
# Stress axis : x y z
#
# Youngs Moduli (GPa) = 93.95343 55.14299 216.64736
#
# Poissons Ratio (x) = -0.01133 0.19543
# Poissons Ratio (y) = -0.01930 0.19672
# Poissons Ratio (z) = 0.08475 0.05007
#
# Static dielectric constant tensor:
#      x y z
#    x 1.892770 0.000000 0.000000 
#    y 0.000000 2.109110 0.000000 
#    z 0.000000 0.000000 2.145030 
# 
# From -- ./inp_files/40585.got.cif
#   From: 2010.05.17/outbox.cif.g08.bks.cpg/sg63_21_cif.got.tgz:40585.got - 2010.06.03 15:47:04.
