data_PCOD9474089
_publ_section_title
;
Structure prediction by ZEFSAII (Michael W. Deem and Ramdas Pophale) SiO2 
 PCOD9474089
Probable space group: C M C M
;
_chemical_formula_sum "Si O2"
_cell_formula_units_Z 80
_cell_length_a 28.146401
_cell_length_b 10.077710
_cell_length_c 14.596651
_cell_angle_alpha 90.000000
_cell_angle_beta 90.000000
_cell_angle_gamma 90.000000
_cell_volume 4140.358548
_symmetry_space_group_name_H-M "C M C M"
_symmetry_group_IT_number 63
_symmetry_cell_setting 'orthorhombic'
loop_
_space_group_symop_operation_xyz
x,y,z
-x,-y,1/2+z
x,-y,-z
-x,y,1/2-z
-x,-y,-z
x,y,1/2-z
-x,y,z
x,-y,1/2+z
1/2+x,1/2+y,z
1/2-x,1/2-y,1/2+z
1/2+x,1/2-y,-z
1/2-x,1/2+y,1/2-z
1/2-x,1/2-y,-z
1/2+x,1/2+y,1/2-z
1/2-x,1/2+y,z
1/2+x,1/2-y,1/2+z
loop_
_atom_site_type_symbol
_atom_site_label
_atom_site_fract_x
_atom_site_fract_y
_atom_site_fract_z
Si Si1 0.553143 0.124779 0.567734
Si Si2 0.385221 0.655018 0.505077
Si Si3 0.349552 0.168691 0.853809
Si Si4 0.804571 0.184082 0.639559
Si Si5 0.267332 0.965087 0.861061
O O1 0.500000 0.135949 0.605496
O O2 0.568185 0.255656 0.510204
O O3 0.596471 0.114179 0.639215
O O4 0.555170 0.000000 0.500000
O O5 0.394565 0.500000 0.500000
O O6 0.351167 0.707063 0.422237
O O7 0.356540 0.689199 0.596467
O O8 0.337348 0.207154 0.750000
O O9 0.313342 0.054720 0.884526
O O10 0.806600 0.185045 0.750000
O O11 0.777612 0.050994 0.608462
O O12 0.775075 0.314406 0.609061
O O13 0.265331 0.961036 0.750000
#
# Coordination Sequence:
#
# PCOD9474089 Si02
#       5
#    16  16  16  16  16
#     4   9  19  37  61  85 112 144 185 235 285 336
#     4  10  23  37  54  87 109 153 190 229 287 334
#     4   9  20  37  57  82 114 147 187 232 278 335
#     4  10  21  37  57  81 114 151 189 235 285 337
#     4   9  19  34  55  81 111 147 183 230 281 328
#
# _framework density 19.321998000000001
#
# number of rings (size 3 to 8) (size 9 to 14) (size 15 to 20)
#    1.200    1.400    0.000    1.200    2.800    2.400 
#    0.000    0.000    0.000    1.800    0.000    0.000 
#    0.000    0.000    0.000    0.000    0.000    0.000 
#
# Total GULP energy -222923.327870 kJ/mol
# GULP energy per Si atom -5573.083197 kJ/mol
# Density = 1.927802 g / cm^3
# Si number density = 19.321998 Si / 1000 Ang^3
#
#
#
# Elastic Constant Matrix: (Units=GPa)
#
#
# Indices 1 2 3 4 5 6 
#
# 1 46.0217 -12.2902 1.8171 0.0000 0.0000 0.0000
# 2 -12.2902 105.1316 17.5310 0.0000 0.0000 0.0000
# 3 1.8171 17.5310 50.4513 0.0000 0.0000 0.0000
# 4 0.0000 0.0000 0.0000 22.1711 0.0000 0.0000
# 5 0.0000 0.0000 0.0000 0.0000 21.0779 0.0000
# 6 0.0000 0.0000 0.0000 0.0000 0.0000 -5.4567
#
#
#
# Elastic Compliance Matrix: (Units=1/GPa)
#
#
# Indices 1 2 3 4 5 6 
#
# 1 0.022588 0.002947 -0.001838 0.000000 0.000000 0.000000
# 2 0.002947 0.010481 -0.003748 0.000000 0.000000 0.000000
# 3 -0.001838 -0.003748 0.021190 0.000000 0.000000 0.000000
# 4 0.000000 0.000000 0.000000 0.045104 0.000000 0.000000
# 5 0.000000 0.000000 0.000000 0.000000 0.047443 0.000000
# 6 0.000000 0.000000 0.000000 0.000000 0.000000 -0.183260
#
#
# Mechanical properties :
#
#
# Convention : Reuss Voigt Hill
#
# Bulk Modulus (GPa) = 20.41564 23.96892 22.19228
# Shear Modulus (GPa) = -336.72710 20.52823 -158.09943
#
# Velocity S-wave (km/s) = -13.21551 3.26303 -9.05545
# Velocity P-wave (km/s) = 14.90897 5.16027 9.89063
#
# Compressibility (1/GPa) = 0.04898206
#
# Stress axis : x y z
#
# Youngs Moduli (GPa) = 44.27036 95.40666 47.19264
#
# Poissons Ratio (x) = -0.28117 0.08672
# Poissons Ratio (y) = -0.13047 0.17689
# Poissons Ratio (z) = 0.08135 0.35761
#
# Static dielectric constant tensor:
#      x y z
#    x 1.670910 0.000000 0.000000 
#    y 0.000000 1.669360 0.000000 
#    z 0.000000 0.000000 1.697930 
# 
# From -- ./inp_files/49407.got.cif
#   From: 2010.05.17/outbox.cif.g08.bks.cpg/sg63_25_cif.got.tgz:49407.got - 2010.06.03 15:47:04.
