data_PCOD9474479
_publ_section_title
;
Structure prediction by ZEFSAII (Michael W. Deem and Ramdas Pophale) SiO2 
 PCOD9474479
Probable space group: C M C M
;
_chemical_formula_sum "Si O2"
_cell_formula_units_Z 96
_cell_length_a 27.804425
_cell_length_b 20.129062
_cell_length_c 8.997483
_cell_angle_alpha 90.000000
_cell_angle_beta 90.000000
_cell_angle_gamma 90.000000
_cell_volume 5035.684245
_symmetry_space_group_name_H-M "C M C M"
_symmetry_group_IT_number 63
_symmetry_cell_setting 'orthorhombic'
loop_
_space_group_symop_operation_xyz
x,y,z
-x,-y,1/2+z
x,-y,-z
-x,y,1/2-z
-x,-y,-z
x,y,1/2-z
-x,y,z
x,-y,1/2+z
1/2+x,1/2+y,z
1/2-x,1/2-y,1/2+z
1/2+x,1/2-y,-z
1/2-x,1/2+y,1/2-z
1/2-x,1/2-y,-z
1/2+x,1/2+y,1/2-z
1/2-x,1/2+y,z
1/2+x,1/2-y,1/2+z
loop_
_atom_site_type_symbol
_atom_site_label
_atom_site_fract_x
_atom_site_fract_y
_atom_site_fract_z
Si Si1 0.635702 0.788267 0.578967
Si Si2 0.354993 0.063368 0.077116
Si Si3 0.078192 0.930244 0.073107
Si Si4 0.779395 0.351123 0.073166
Si Si5 0.308263 0.430107 0.073101
Si Si6 0.947433 0.204957 0.426912
O O1 0.639230 0.766679 0.750000
O O2 0.618129 0.865573 0.574139
O O3 0.689341 0.794645 0.509239
O O4 0.597602 0.744632 0.492504
O O5 0.343264 0.050518 0.250000
O O6 0.308380 0.082353 0.978118
O O7 0.378635 0.000000 0.000000
O O8 0.070508 0.931894 0.250000
O O9 0.135402 0.920375 0.043863
O O10 0.053426 0.867812 0.998338
O O11 0.064017 0.000000 0.000000
O O12 0.782300 0.341431 0.250000
O O13 0.725143 0.368292 0.026496
O O14 0.301967 0.436677 0.250000
O O15 0.294195 0.500000 0.000000
O O16 0.942641 0.200147 0.250000
O O17 0.000000 0.235682 0.460744
#
# Coordination Sequence:
#
# PCOD9474479 Si02
#       6
#    16  16  16  16  16  16
#     4   9  20  35  53  81 113 147 189 232 277 331
#     4   9  17  27  45  75 109 146 188 230 269 316
#     4  10  21  39  61  87 118 148 183 229 280 335
#     4   9  16  28  48  76 112 150 188 227 265 313
#     4   9  18  30  49  79 115 154 190 225 269 323
#     4  11  24  42  64  86 107 138 183 234 292 352
#
# _framework density 19.063943999999999
#
# number of rings (size 3 to 8) (size 9 to 14) (size 15 to 20)
#    1.000    1.500    0.000    2.500    0.000    5.000 
#    0.000    0.833    0.000    0.500    0.000    0.000 
#    0.000    0.000    0.000    0.000    0.000    0.000 
#
# Total GULP energy -267316.616158 kJ/mol
# GULP energy per Si atom -5569.096170 kJ/mol
# Density = 1.902055 g / cm^3
# Si number density = 19.063944 Si / 1000 Ang^3
#
#
#
# Elastic Constant Matrix: (Units=GPa)
#
#
# Indices 1 2 3 4 5 6 
#
# 1 63.5871 14.9204 25.7679 0.0000 0.0000 0.0000
# 2 14.9204 49.7287 15.5824 0.0000 0.0000 0.0000
# 3 25.7679 15.5824 65.3598 0.0000 0.0000 0.0000
# 4 0.0000 0.0000 0.0000 32.8937 0.0000 0.0000
# 5 0.0000 0.0000 0.0000 0.0000 -3.1686 0.0000
# 6 0.0000 0.0000 0.0000 0.0000 0.0000 1.8064
#
#
#
# Elastic Compliance Matrix: (Units=1/GPa)
#
#
# Indices 1 2 3 4 5 6 
#
# 1 0.019322 -0.003686 -0.006739 0.000000 0.000000 0.000000
# 2 -0.003686 0.022436 -0.003896 0.000000 0.000000 0.000000
# 3 -0.006739 -0.003896 0.018886 0.000000 0.000000 0.000000
# 4 0.000000 0.000000 0.000000 0.030401 0.000000 0.000000
# 5 0.000000 0.000000 0.000000 0.000000 -0.315599 0.000000
# 6 0.000000 0.000000 0.000000 0.000000 0.000000 0.553597
#
#
# Mechanical properties :
#
#
# Convention : Reuss Voigt Hill
#
# Bulk Modulus (GPa) = 31.24764 32.35744 31.80254
# Shear Modulus (GPa) = 13.57399 14.46661 14.02030
#
# Velocity S-wave (km/s) = 2.67127 2.75771 2.71483
# Velocity P-wave (km/s) = 5.09321 5.21055 5.15222
#
# Compressibility (1/GPa) = 0.03200241
#
# Stress axis : x y z
#
# Youngs Moduli (GPa) = 51.75390 44.57180 52.95049
#
# Poissons Ratio (x) = 0.16428 0.35683
# Poissons Ratio (y) = 0.19075 0.20628
# Poissons Ratio (z) = 0.34877 0.17364
#
# Static dielectric constant tensor:
#      x y z
#    x 1.688560 0.000000 0.000000 
#    y 0.000000 1.693490 0.000000 
#    z 0.000000 0.000000 1.632710 
# 
# From -- ./inp_files/10416.got.cif
#   From: 2010.05.17/outbox.cif.g08.bks.cpg/sg63_6_cif.got.tgz:10416.got - 2010.06.03 15:47:04.
