data_PCOD9474802
_publ_section_title
;
Structure prediction by ZEFSAII (Michael W. Deem and Ramdas Pophale) SiO2 
 PCOD9474802
Probable space group: C M C M
;
_chemical_formula_sum "Si O2"
_cell_formula_units_Z 68
_cell_length_a 26.929858
_cell_length_b 8.033524
_cell_length_c 14.131402
_cell_angle_alpha 90.000000
_cell_angle_beta 90.000000
_cell_angle_gamma 90.000000
_cell_volume 3057.210975
_symmetry_space_group_name_H-M "C M C M"
_symmetry_group_IT_number 63
_symmetry_cell_setting 'orthorhombic'
loop_
_space_group_symop_operation_xyz
x,y,z
-x,-y,1/2+z
x,-y,-z
-x,y,1/2-z
-x,-y,-z
x,y,1/2-z
-x,y,z
x,-y,1/2+z
1/2+x,1/2+y,z
1/2-x,1/2-y,1/2+z
1/2+x,1/2-y,-z
1/2-x,1/2+y,1/2-z
1/2-x,1/2-y,-z
1/2+x,1/2+y,1/2-z
1/2-x,1/2+y,z
1/2+x,1/2-y,1/2+z
loop_
_atom_site_type_symbol
_atom_site_label
_atom_site_fract_x
_atom_site_fract_y
_atom_site_fract_z
Si Si1 0.089022 0.469013 0.354336
Si Si2 0.260463 0.706808 0.750000
Si Si3 0.500000 0.112122 0.250000
Si Si4 0.169213 0.110533 0.250000
Si Si5 0.812069 0.642248 0.068637
Si Si6 0.616902 0.348386 0.944515
O O1 0.095618 0.388722 0.250000
O O2 0.043691 0.591212 0.332464
O O3 0.138746 0.562203 0.384066
O O4 0.083472 0.315386 0.426278
O O5 0.288235 0.531006 0.750000
O O6 0.278091 0.794049 0.847246
O O7 0.200995 0.717834 0.750000
O O8 0.136843 0.091158 0.156402
O O9 0.789679 0.500000 0.000000
O O10 0.834705 0.787093 0.003027
O O11 0.592598 0.500000 0.000000
#
# Coordination Sequence:
#
# PCOD9474802 Si02
#       6
#    16   8   4   8  16  16
#     4   9  18  36  68  85 119 155 188 242 297 348
#     4  12  25  40  57  85 120 152 210 252 308 343
#     4   8  16  36  68  94 122 150 190 242 304 346
#     4  12  27  38  59  85 118 162 198 262 300 347
#     4  10  22  38  62  86 115 158 199 244 294 359
#     4  11  22  41  58  86 117 162 203 237 298 362
#
# _framework density 22.242494000000001
#
# number of rings (size 3 to 8) (size 9 to 14) (size 15 to 20)
#    0.706    0.941    4.706    0.000    6.588    1.882 
#    0.000    5.882    0.000    1.412    0.000    0.000 
#    0.000    0.000    0.000    0.000    0.000    0.000 
#
# Total GULP energy -189273.484383 kJ/mol
# GULP energy per Si atom -5566.867188 kJ/mol
# Density = 2.219187 g / cm^3
# Si number density = 22.242494 Si / 1000 Ang^3
#
#
#
# Elastic Constant Matrix: (Units=GPa)
#
#
# Indices 1 2 3 4 5 6 
#
# 1 31.1027 -16.3489 -6.7335 0.0000 0.0000 0.0000
# 2 -16.3489 33.7699 0.5444 0.0000 0.0000 0.0000
# 3 -6.7335 0.5444 104.6593 0.0000 0.0000 0.0000
# 4 0.0000 0.0000 0.0000 19.7064 0.0000 0.0000
# 5 0.0000 0.0000 0.0000 0.0000 22.5350 0.0000
# 6 0.0000 0.0000 0.0000 0.0000 0.0000 -2.7584
#
#
#
# Elastic Compliance Matrix: (Units=1/GPa)
#
#
# Indices 1 2 3 4 5 6 
#
# 1 0.043883 0.021201 0.002713 0.000000 0.000000 0.000000
# 2 0.021201 0.039858 0.001157 0.000000 0.000000 0.000000
# 3 0.002713 0.001157 0.009723 0.000000 0.000000 0.000000
# 4 0.000000 0.000000 0.000000 0.050745 0.000000 0.000000
# 5 0.000000 0.000000 0.000000 0.000000 0.044375 0.000000
# 6 0.000000 0.000000 0.000000 0.000000 0.000000 -0.362526
#
#
# Mechanical properties :
#
#
# Convention : Reuss Voigt Hill
#
# Bulk Modulus (GPa) = 6.96348 13.82841 10.39594
# Shear Modulus (GPa) = -28.37441 20.70126 -3.83657
#
# Velocity S-wave (km/s) = -3.57555 3.05406 -1.31477
# Velocity P-wave (km/s) = 3.72942 4.32053 1.54247
#
# Compressibility (1/GPa) = 0.14360643
#
# Stress axis : x y z
#
# Youngs Moduli (GPa) = 22.78777 25.08926 102.84520
#
# Poissons Ratio (x) = -0.53193 -0.27903
# Poissons Ratio (y) = -0.48313 -0.11896
# Poissons Ratio (z) = -0.06182 -0.02902
#
# Static dielectric constant tensor:
#      x y z
#    x 1.747130 0.000000 0.000000 
#    y 0.000000 1.940410 0.000000 
#    z 0.000000 0.000000 1.844640 
# 
# From -- ./inp_files/37502.got.cif
#   From: 2010.05.17/outbox.cif.g08.bks.cpg/sg63_19_cif.got.tgz:37502.got - 2010.06.03 15:47:04.
