data_PCOD9474607
_publ_section_title
;
Structure prediction by ZEFSAII (Michael W. Deem and Ramdas Pophale) SiO2 
 PCOD9474607
Probable space group: C M C M
;
_chemical_formula_sum "Si O2"
_cell_formula_units_Z 64
_cell_length_a 12.474905
_cell_length_b 15.135119
_cell_length_c 15.568004
_cell_angle_alpha 90.000000
_cell_angle_beta 90.000000
_cell_angle_gamma 90.000000
_cell_volume 2939.381940
_symmetry_space_group_name_H-M "C M C M"
_symmetry_group_IT_number 63
_symmetry_cell_setting 'orthorhombic'
loop_
_space_group_symop_operation_xyz
x,y,z
-x,-y,1/2+z
x,-y,-z
-x,y,1/2-z
-x,-y,-z
x,y,1/2-z
-x,y,z
x,-y,1/2+z
1/2+x,1/2+y,z
1/2-x,1/2-y,1/2+z
1/2+x,1/2-y,-z
1/2-x,1/2+y,1/2-z
1/2-x,1/2-y,-z
1/2+x,1/2+y,1/2-z
1/2-x,1/2+y,z
1/2+x,1/2-y,1/2+z
loop_
_atom_site_type_symbol
_atom_site_label
_atom_site_fract_x
_atom_site_fract_y
_atom_site_fract_z
Si Si1 0.000000 0.877288 0.650629
Si Si2 0.122711 0.310801 0.645701
Si Si3 0.767426 0.649857 0.848889
Si Si4 0.500000 0.165597 0.849174
Si Si5 0.217752 0.035561 0.404537
O O1 0.000000 0.906757 0.750000
O O2 0.000000 0.771566 0.651579
O O3 0.106984 0.912489 0.606532
O O4 0.118988 0.306538 0.750000
O O5 0.190986 0.225799 0.613816
O O6 0.186831 0.398933 0.621480
O O7 0.000000 0.309354 0.614670
O O8 0.787145 0.678002 0.750000
O O9 0.714925 0.554066 0.849615
O O10 0.885881 0.639984 0.889566
O O11 0.500000 0.130352 0.750000
O O12 0.231041 0.000000 0.500000
#
# Coordination Sequence:
#
# PCOD9474607 Si02
#       5
#     8  16  16   8  16
#     4  11  21  43  69  89 119 163 213 266 306 362
#     4  10  22  42  65  91 123 164 216 265 306 362
#     4  10  21  40  65  92 118 162 217 263 306 365
#     4   9  18  37  66  91 115 153 215 268 301 348
#     4  12  26  41  60  95 133 168 202 252 325 384
#
# _framework density 21.773285999999999
#
# number of rings (size 3 to 8) (size 9 to 14) (size 15 to 20)
#    0.000    1.500    2.500    2.625    3.500    1.500 
#    0.000    0.000    0.000    0.000    0.000    0.000 
#    0.000    0.000    0.000    0.000    0.000    0.000 
#
# Total GULP energy -178789.965169 kJ/mol
# GULP energy per Si atom -5587.186412 kJ/mol
# Density = 2.172373 g / cm^3
# Si number density = 21.773286 Si / 1000 Ang^3
#
#
#
# Elastic Constant Matrix: (Units=GPa)
#
#
# Indices 1 2 3 4 5 6 
#
# 1 112.2300 1.0738 13.2839 0.0000 0.0000 0.0000
# 2 1.0738 64.9317 -3.0259 0.0000 0.0000 0.0000
# 3 13.2839 -3.0259 25.7938 0.0000 0.0000 0.0000
# 4 0.0000 0.0000 0.0000 82.0625 0.0000 0.0000
# 5 0.0000 0.0000 0.0000 0.0000 2.6982 0.0000
# 6 0.0000 0.0000 0.0000 0.0000 0.0000 47.6073
#
#
#
# Elastic Compliance Matrix: (Units=1/GPa)
#
#
# Indices 1 2 3 4 5 6 
#
# 1 0.009498 -0.000387 -0.004937 0.000000 0.000000 0.000000
# 2 -0.000387 0.015501 0.002018 0.000000 0.000000 0.000000
# 3 -0.004937 0.002018 0.041548 0.000000 0.000000 0.000000
# 4 0.000000 0.000000 0.000000 0.012186 0.000000 0.000000
# 5 0.000000 0.000000 0.000000 0.000000 0.370623 0.000000
# 6 0.000000 0.000000 0.000000 0.000000 0.000000 0.021005
#
#
# Mechanical properties :
#
#
# Convention : Reuss Voigt Hill
#
# Bulk Modulus (GPa) = 16.68471 25.06880 20.87676
# Shear Modulus (GPa) = 10.06132 39.24850 24.65491
#
# Velocity S-wave (km/s) = 2.15197 4.25031 3.36869
# Velocity P-wave (km/s) = 3.72212 5.96870 4.97391
#
# Compressibility (1/GPa) = 0.05993510
#
# Stress axis : x y z
#
# Youngs Moduli (GPa) = 105.28148 64.51097 24.06837
#
# Poissons Ratio (x) = 0.02498 0.11883
# Poissons Ratio (y) = 0.04076 -0.04857
# Poissons Ratio (z) = 0.51978 -0.13017
#
# Static dielectric constant tensor:
#      x y z
#    x 1.818280 0.000000 0.000000 
#    y 0.000000 1.735630 0.000000 
#    z 0.000000 0.000000 1.821490 
# 
# From -- ./inp_files/41511.got.cif
#   From: 2010.05.17/outbox.cif.g08.bks.cpg/sg63_21_cif.got.tgz:41511.got - 2010.06.03 15:47:04.
