data_PCOD9474608
_publ_section_title
;
Structure prediction by ZEFSAII (Michael W. Deem and Ramdas Pophale) SiO2 
 PCOD9474608
Probable space group: C M C M
;
_chemical_formula_sum "Si O2"
_cell_formula_units_Z 88
_cell_length_a 28.126297
_cell_length_b 18.108827
_cell_length_c 8.562418
_cell_angle_alpha 90.000000
_cell_angle_beta 90.000000
_cell_angle_gamma 90.000000
_cell_volume 4361.132720
_symmetry_space_group_name_H-M "C M C M"
_symmetry_group_IT_number 63
_symmetry_cell_setting 'orthorhombic'
loop_
_space_group_symop_operation_xyz
x,y,z
-x,-y,1/2+z
x,-y,-z
-x,y,1/2-z
-x,-y,-z
x,y,1/2-z
-x,y,z
x,-y,1/2+z
1/2+x,1/2+y,z
1/2-x,1/2-y,1/2+z
1/2+x,1/2-y,-z
1/2-x,1/2+y,1/2-z
1/2-x,1/2-y,-z
1/2+x,1/2+y,1/2-z
1/2-x,1/2+y,z
1/2+x,1/2-y,1/2+z
loop_
_atom_site_type_symbol
_atom_site_label
_atom_site_fract_x
_atom_site_fract_y
_atom_site_fract_z
Si Si1 0.355617 0.419520 0.937954
Si Si2 0.823556 0.418186 0.063502
Si Si3 0.089072 0.325742 0.563296
Si Si4 0.054742 0.831587 0.939181
Si Si5 0.000000 0.417416 0.437424
Si Si6 0.235443 0.830277 0.937455
O O1 0.354651 0.421756 0.750000
O O2 0.408534 0.395359 0.987449
O O3 0.316782 0.358365 0.987164
O O4 0.342925 0.500000 0.000000
O O5 0.822762 0.420007 0.250000
O O6 0.953808 0.376601 0.997065
O O7 0.834621 0.500000 0.000000
O O8 0.773366 0.389812 0.998331
O O9 0.091510 0.326732 0.750000
O O10 0.076491 0.244301 0.503423
O O11 0.137138 0.359742 0.493708
O O12 0.054652 0.827538 0.750000
O O13 0.000000 0.840786 0.990316
O O14 0.000000 0.500000 0.500000
O O15 0.000000 0.415166 0.250000
O O16 0.236794 0.827858 0.750000
O O17 0.250000 0.750000 0.000000
#
# Coordination Sequence:
#
# PCOD9474608 Si02
#       6
#    16  16  16  16   8  16
#     4  10  23  41  63  93 128 167 211 262 319 380
#     4  12  25  42  63  90 126 167 212 262 322 382
#     4  12  24  40  62  92 125 162 213 262 314 379
#     4  10  21  40  65  92 126 168 212 261 322 381
#     4  12  24  40  60  86 123 166 209 260 316 372
#     4  11  23  41  65  95 129 167 214 263 320 384
#
# _framework density 20.178243999999999
#
# number of rings (size 3 to 8) (size 9 to 14) (size 15 to 20)
#    0.000    0.909    0.909    6.818    0.000    5.455 
#    0.000    0.000    0.000    0.000    0.000    0.000 
#    0.000    0.000    0.000    0.000    0.000    0.000 
#
# Total GULP energy -246195.656269 kJ/mol
# GULP energy per Si atom -5595.355824 kJ/mol
# Density = 2.013232 g / cm^3
# Si number density = 20.178244 Si / 1000 Ang^3
#
#
#
# Elastic Constant Matrix: (Units=GPa)
#
#
# Indices 1 2 3 4 5 6 
#
# 1 138.6659 40.2664 32.3922 0.0000 0.0000 0.0000
# 2 40.2664 101.2319 17.1412 0.0000 0.0000 0.0000
# 3 32.3922 17.1412 72.0133 0.0000 0.0000 0.0000
# 4 0.0000 0.0000 0.0000 36.4732 0.0000 0.0000
# 5 0.0000 0.0000 0.0000 0.0000 50.3648 0.0000
# 6 0.0000 0.0000 0.0000 0.0000 0.0000 43.6210
#
#
#
# Elastic Compliance Matrix: (Units=1/GPa)
#
#
# Indices 1 2 3 4 5 6 
#
# 1 0.008835 -0.002961 -0.003269 0.000000 0.000000 0.000000
# 2 -0.002961 0.011285 -0.001354 0.000000 0.000000 0.000000
# 3 -0.003269 -0.001354 0.015679 0.000000 0.000000 0.000000
# 4 0.000000 0.000000 0.000000 0.027417 0.000000 0.000000
# 5 0.000000 0.000000 0.000000 0.000000 0.019855 0.000000
# 6 0.000000 0.000000 0.000000 0.000000 0.000000 0.022925
#
#
# Mechanical properties :
#
#
# Convention : Reuss Voigt Hill
#
# Bulk Modulus (GPa) = 48.47160 54.61230 51.54195
# Shear Modulus (GPa) = 39.04945 40.89923 39.97434
#
# Velocity S-wave (km/s) = 4.40389 4.50699 4.45574
# Velocity P-wave (km/s) = 7.06632 7.36259 7.21597
#
# Compressibility (1/GPa) = 0.02063064
#
# Stress axis : x y z
#
# Youngs Moduli (GPa) = 113.18585 88.61081 63.77830
#
# Poissons Ratio (x) = 0.26235 0.20851
# Poissons Ratio (y) = 0.33511 0.08639
# Poissons Ratio (z) = 0.37004 0.12002
#
# Static dielectric constant tensor:
#      x y z
#    x 1.717780 0.000000 0.000000 
#    y 0.000000 1.670310 0.000000 
#    z 0.000000 0.000000 1.678540 
# 
# From -- ./inp_files/10222.got.cif
#   From: 2010.05.17/outbox.cif.g08.bks.cpg/sg63_6_cif.got.tgz:10222.got - 2010.06.03 15:47:04.
