data_PCOD9474732
_publ_section_title
;
Structure prediction by ZEFSAII (Michael W. Deem and Ramdas Pophale) SiO2 
 PCOD9474732
Probable space group: C M C M
;
_chemical_formula_sum "Si O2"
_cell_formula_units_Z 116
_cell_length_a 20.131240
_cell_length_b 11.454481
_cell_length_c 28.097459
_cell_angle_alpha 90.000000
_cell_angle_beta 90.000000
_cell_angle_gamma 90.000000
_cell_volume 6479.074724
_symmetry_space_group_name_H-M "C M C M"
_symmetry_group_IT_number 63
_symmetry_cell_setting 'orthorhombic'
loop_
_space_group_symop_operation_xyz
x,y,z
-x,-y,1/2+z
x,-y,-z
-x,y,1/2-z
-x,-y,-z
x,y,1/2-z
-x,y,z
x,-y,1/2+z
1/2+x,1/2+y,z
1/2-x,1/2-y,1/2+z
1/2+x,1/2-y,-z
1/2-x,1/2+y,1/2-z
1/2-x,1/2-y,-z
1/2+x,1/2+y,1/2-z
1/2-x,1/2+y,z
1/2+x,1/2-y,1/2+z
loop_
_atom_site_type_symbol
_atom_site_label
_atom_site_fract_x
_atom_site_fract_y
_atom_site_fract_z
Si Si1 0.422250 0.503513 0.874282
Si Si2 0.659189 0.923478 0.693890
Si Si3 0.420871 0.275567 0.573045
Si Si4 0.500000 0.238001 0.750000
Si Si5 0.419108 0.129556 0.016019
Si Si6 0.382673 0.814707 0.175527
Si Si7 0.689625 0.594427 0.194995
Si Si8 0.078742 0.278628 0.881457
O O1 0.500000 0.485918 0.859503
O O2 0.409384 0.412813 0.917359
O O3 0.369298 0.465906 0.834484
O O4 0.414379 0.639132 0.886028
O O5 0.657315 0.893355 0.750000
O O6 0.736111 0.934370 0.678867
O O7 0.620277 0.830211 0.662144
O O8 0.626386 0.049958 0.686565
O O9 0.500000 0.258892 0.572802
O O10 0.395649 0.221578 0.523848
O O11 0.395278 0.207963 0.619745
O O12 0.557683 0.232408 0.708185
O O13 0.500000 0.132718 0.016832
O O14 0.398586 0.161838 0.069326
O O15 0.399351 0.000000 0.000000
O O16 0.320586 0.733699 0.189592
O O17 0.683178 0.561187 0.250000
O O18 0.000000 0.303577 0.874253
#
# Coordination Sequence:
#
# PCOD9474732 Si02
#       8
#    16  16  16   4  16  16  16  16
#     4   9  20  36  56  83 112 149 188 232 288 336
#     4  11  24  37  55  79 113 156 187 230 286 341
#     4   9  17  31  56  84 113 143 185 237 285 337
#     4  12  20  32  60  88 120 138 178 258 284 338
#     4   9  17  31  53  85 116 147 184 233 290 336
#     4  11  21  35  56  86 112 142 188 237 289 329
#     4  10  22  37  56  79 111 149 195 232 272 345
#     4  10  22  37  55  84 118 148 189 235 284 344
#
# _framework density 17.903790999999998
#
# number of rings (size 3 to 8) (size 9 to 14) (size 15 to 20)
#    0.000    2.069    2.069    0.828    3.862    2.759 
#    0.000    4.138    0.000    3.310    7.172    0.000 
#    0.000    0.000    0.000    0.000    0.000    0.000 
#
# Total GULP energy -322872.616736 kJ/mol
# GULP energy per Si atom -5566.769254 kJ/mol
# Density = 1.786304 g / cm^3
# Si number density = 17.903791 Si / 1000 Ang^3
#
#
#
# Elastic Constant Matrix: (Units=GPa)
#
#
# Indices 1 2 3 4 5 6 
#
# 1 48.5758 37.0004 35.7342 0.0000 0.0000 0.0000
# 2 37.0004 86.3434 47.2202 0.0000 0.0000 0.0000
# 3 35.7342 47.2202 95.4177 0.0000 0.0000 0.0000
# 4 0.0000 0.0000 0.0000 12.2997 0.0000 0.0000
# 5 0.0000 0.0000 0.0000 0.0000 13.2321 0.0000
# 6 0.0000 0.0000 0.0000 0.0000 0.0000 9.3569
#
#
#
# Elastic Compliance Matrix: (Units=1/GPa)
#
#
# Indices 1 2 3 4 5 6 
#
# 1 0.034167 -0.010480 -0.007609 0.000000 0.000000 0.000000
# 2 -0.010480 0.019094 -0.005524 0.000000 0.000000 0.000000
# 3 -0.007609 -0.005524 0.016064 0.000000 0.000000 0.000000
# 4 0.000000 0.000000 0.000000 0.081303 0.000000 0.000000
# 5 0.000000 0.000000 0.000000 0.000000 0.075574 0.000000
# 6 0.000000 0.000000 0.000000 0.000000 0.000000 0.106873
#
#
# Mechanical properties :
#
#
# Convention : Reuss Voigt Hill
#
# Bulk Modulus (GPa) = 45.25452 52.24961 48.75207
# Shear Modulus (GPa) = 12.89770 14.33656 13.61713
#
# Velocity S-wave (km/s) = 2.68692 2.83283 2.76084
# Velocity P-wave (km/s) = 5.91248 6.32035 6.11981
#
# Compressibility (1/GPa) = 0.02209724
#
# Stress axis : x y z
#
# Youngs Moduli (GPa) = 29.26841 52.37311 62.25186
#
# Poissons Ratio (x) = 0.54886 0.47369
# Poissons Ratio (y) = 0.30673 0.34390
# Poissons Ratio (z) = 0.22271 0.28933
#
# Static dielectric constant tensor:
#      x y z
#    x 1.601850 0.000000 0.000000 
#    y 0.000000 1.631420 0.000000 
#    z 0.000000 0.000000 1.610390 
# 
# From -- ./inp_files/73926.got.cif
#   From: 2010.05.17/outbox.cif.g08.bks.cpg/sg63_37_cif.got.tgz:73926.got - 2010.06.03 15:47:04.
