data_PCOD9474411
_publ_section_title
;
Structure prediction by ZEFSAII (Michael W. Deem and Ramdas Pophale) SiO2 
 PCOD9474411
Probable space group: C M C M
;
_chemical_formula_sum "Si O2"
_cell_formula_units_Z 64
_cell_length_a 8.781517
_cell_length_b 15.697574
_cell_length_c 23.994216
_cell_angle_alpha 90.000000
_cell_angle_beta 90.000000
_cell_angle_gamma 90.000000
_cell_volume 3307.566995
_symmetry_space_group_name_H-M "C M C M"
_symmetry_group_IT_number 63
_symmetry_cell_setting 'orthorhombic'
loop_
_space_group_symop_operation_xyz
x,y,z
-x,-y,1/2+z
x,-y,-z
-x,y,1/2-z
-x,-y,-z
x,y,1/2-z
-x,y,z
x,-y,1/2+z
1/2+x,1/2+y,z
1/2-x,1/2-y,1/2+z
1/2+x,1/2-y,-z
1/2-x,1/2+y,1/2-z
1/2-x,1/2-y,-z
1/2+x,1/2+y,1/2-z
1/2-x,1/2+y,z
1/2+x,1/2-y,1/2+z
loop_
_atom_site_type_symbol
_atom_site_label
_atom_site_fract_x
_atom_site_fract_y
_atom_site_fract_z
Si Si1 0.818448 0.843331 0.366944
Si Si2 0.181477 0.837305 0.629005
Si Si3 0.181137 0.599525 0.750000
Si Si4 0.180974 0.912387 0.750000
Si Si5 0.180470 0.501040 0.066323
O O1 0.762647 0.750671 0.386020
O O2 0.751639 0.859878 0.305384
O O3 0.753428 0.917720 0.405952
O O4 0.000000 0.847863 0.365424
O O5 0.212296 0.860105 0.693886
O O6 0.000000 0.828772 0.622362
O O7 0.242796 0.915890 0.593075
O O8 0.224998 0.499673 0.750000
O O9 0.000000 0.610830 0.750000
O O10 0.000000 0.934240 0.750000
O O11 0.000000 0.502141 0.078502
O O12 0.201733 0.500000 0.000000
#
# Coordination Sequence:
#
# PCOD9474411 Si02
#       5
#    16  16   8   8  16
#     4  12  25  42  66  96 132 170 213 261 317 382
#     4  11  23  41  67  97 132 168 211 262 319 381
#     4  12  23  38  65  96 132 170 209 258 317 380
#     4  10  21  38  63  96 130 166 205 256 319 382
#     4  11  25  45  67  93 127 168 217 269 321 378
#
# _framework density 19.349571000000001
#
# number of rings (size 3 to 8) (size 9 to 14) (size 15 to 20)
#    0.000    0.750    2.500    5.625    0.000    5.000 
#    0.000    0.000    0.000    0.000    0.000    0.000 
#    0.000    0.000    0.000    0.000    0.000    0.000 
#
# Total GULP energy -179154.652922 kJ/mol
# GULP energy per Si atom -5598.582904 kJ/mol
# Density = 1.930553 g / cm^3
# Si number density = 19.349571 Si / 1000 Ang^3
#
#
#
# Elastic Constant Matrix: (Units=GPa)
#
#
# Indices 1 2 3 4 5 6 
#
# 1 112.6017 54.1473 63.4953 0.0000 0.0000 0.0000
# 2 54.1473 149.1709 52.5950 0.0000 0.0000 0.0000
# 3 63.4953 52.5950 84.1367 0.0000 0.0000 0.0000
# 4 0.0000 0.0000 0.0000 -13.6527 0.0000 0.0000
# 5 0.0000 0.0000 0.0000 0.0000 78.7230 0.0000
# 6 0.0000 0.0000 0.0000 0.0000 0.0000 36.1601
#
#
#
# Elastic Compliance Matrix: (Units=1/GPa)
#
#
# Indices 1 2 3 4 5 6 
#
# 1 0.015902 -0.001977 -0.010765 0.000000 0.000000 0.000000
# 2 -0.001977 0.008845 -0.004037 0.000000 0.000000 0.000000
# 3 -0.010765 -0.004037 0.022533 0.000000 0.000000 0.000000
# 4 0.000000 0.000000 0.000000 -0.073246 0.000000 0.000000
# 5 0.000000 0.000000 0.000000 0.000000 0.012703 0.000000
# 6 0.000000 0.000000 0.000000 0.000000 0.000000 0.027655
#
#
# Mechanical properties :
#
#
# Convention : Reuss Voigt Hill
#
# Bulk Modulus (GPa) = 72.87600 76.26494 74.57047
# Shear Modulus (GPa) = 95.19739 31.95752 63.57746
#
# Velocity S-wave (km/s) = 7.02179 4.06838 5.73835
# Velocity P-wave (km/s) = 10.17277 7.84658 9.08444
#
# Compressibility (1/GPa) = 0.01372194
#
# Stress axis : x y z
#
# Youngs Moduli (GPa) = 62.88698 113.06255 44.37937
#
# Poissons Ratio (x) = 0.22348 0.47773
# Poissons Ratio (y) = 0.12430 0.17917
# Poissons Ratio (z) = 0.67697 0.45646
#
# Static dielectric constant tensor:
#      x y z
#    x 1.644300 0.000000 0.000000 
#    y 0.000000 1.651390 0.000000 
#    z 0.000000 0.000000 1.651430 
# 
# From -- ./inp_files/59069.got.cif
#   From: 2010.05.17/outbox.cif.g08.bks.cpg/sg63_30_cif.got.tgz:59069.got - 2010.06.03 15:47:04.
