data_PCOD9474384
_publ_section_title
;
Structure prediction by ZEFSAII (Michael W. Deem and Ramdas Pophale) SiO2 
 PCOD9474384
Probable space group: C M C M
;
_chemical_formula_sum "Si O2"
_cell_formula_units_Z 48
_cell_length_a 7.613142
_cell_length_b 38.830183
_cell_length_c 8.893600
_cell_angle_alpha 90.000000
_cell_angle_beta 90.000000
_cell_angle_gamma 90.000000
_cell_volume 2629.123338
_symmetry_space_group_name_H-M "C M C M"
_symmetry_group_IT_number 63
_symmetry_cell_setting 'orthorhombic'
loop_
_space_group_symop_operation_xyz
x,y,z
-x,-y,1/2+z
x,-y,-z
-x,y,1/2-z
-x,-y,-z
x,y,1/2-z
-x,y,z
x,-y,1/2+z
1/2+x,1/2+y,z
1/2-x,1/2-y,1/2+z
1/2+x,1/2-y,-z
1/2-x,1/2+y,1/2-z
1/2-x,1/2-y,-z
1/2+x,1/2+y,1/2-z
1/2-x,1/2+y,z
1/2+x,1/2-y,1/2+z
loop_
_atom_site_type_symbol
_atom_site_label
_atom_site_fract_x
_atom_site_fract_y
_atom_site_fract_z
Si Si1 0.500000 0.084723 0.429959
Si Si2 0.293351 0.462768 0.429178
Si Si3 0.500000 0.834428 0.569992
Si Si4 0.705143 0.712953 0.570933
O O1 0.500000 0.080887 0.250000
O O2 0.669433 0.065752 0.498162
O O3 0.500000 0.125168 0.466410
O O4 0.250834 0.500000 0.500000
O O5 0.266126 0.464084 0.250000
O O6 0.500000 0.456047 0.457804
O O7 0.500000 0.830339 0.750000
O O8 0.330939 0.815319 0.502075
O O9 0.734958 0.714447 0.750000
O O10 0.500000 0.705517 0.544297
O O11 0.750000 0.750000 0.500000
#
# Coordination Sequence:
#
# PCOD9474384 Si02
#       4
#     8  16   8  16
#     4  11  24  40  59  85 122 162 200 246 298 355
#     4  10  21  38  62  90 120 157 201 248 296 352
#     4  11  25  42  60  87 121 160 202 244 299 359
#     4  11  23  39  63  90 117 151 193 244 298 354
#
# _framework density 18.257035999999999
#
# number of rings (size 3 to 8) (size 9 to 14) (size 15 to 20)
#    0.000    1.333    1.667    3.500    0.000    8.000 
#    0.000    6.667    0.000    0.000    0.000    0.000 
#    0.000    0.000    0.000    0.000    0.000    0.000 
#
# Total GULP energy -134218.892689 kJ/mol
# GULP energy per Si atom -5592.453862 kJ/mol
# Density = 1.821548 g / cm^3
# Si number density = 18.257036 Si / 1000 Ang^3
#
#
#
# Elastic Constant Matrix: (Units=GPa)
#
#
# Indices 1 2 3 4 5 6 
#
# 1 143.5222 121.8881 95.3853 0.0000 0.0000 0.0000
# 2 121.8881 194.0691 105.4808 0.0000 0.0000 0.0000
# 3 95.3853 105.4808 108.1551 0.0000 0.0000 0.0000
# 4 0.0000 0.0000 0.0000 35.3791 0.0000 0.0000
# 5 0.0000 0.0000 0.0000 0.0000 33.9075 0.0000
# 6 0.0000 0.0000 0.0000 0.0000 0.0000 -46.2617
#
#
#
# Elastic Compliance Matrix: (Units=1/GPa)
#
#
# Indices 1 2 3 4 5 6 
#
# 1 0.019894 -0.006296 -0.011405 0.000000 0.000000 0.000000
# 2 -0.006296 0.012958 -0.007085 0.000000 0.000000 0.000000
# 3 -0.011405 -0.007085 0.026214 0.000000 0.000000 0.000000
# 4 0.000000 0.000000 0.000000 0.028265 0.000000 0.000000
# 5 0.000000 0.000000 0.000000 0.000000 0.029492 0.000000
# 6 0.000000 0.000000 0.000000 0.000000 0.000000 -0.021616
#
#
# Mechanical properties :
#
#
# Convention : Reuss Voigt Hill
#
# Bulk Modulus (GPa) = 105.32437 121.25054 113.28745
# Shear Modulus (GPa) = 33.79645 12.80446 23.30046
#
# Velocity S-wave (km/s) = 4.30716 2.65116 3.57633
# Velocity P-wave (km/s) = 9.08573 8.71371 8.90167
#
# Compressibility (1/GPa) = 0.00949448
#
# Stress axis : x y z
#
# Youngs Moduli (GPa) = 50.26517 77.17298 38.14736
#
# Poissons Ratio (x) = 0.48589 0.43508
# Poissons Ratio (y) = 0.31647 0.27027
# Poissons Ratio (z) = 0.57328 0.54675
#
# Static dielectric constant tensor:
#      x y z
#    x 1.619740 0.000000 0.000000 
#    y 0.000000 1.581530 0.000000 
#    z 0.000000 0.000000 1.608360 
# 
# From -- ./inp_files/2005.got.cif
#   From: 2010.05.17/outbox.cif.g08.bks.cpg/sg63_2_cif.got.tgz:2005.got - 2010.06.03 15:47:04.
