data_PCOD9474385
_publ_section_title
;
Structure prediction by ZEFSAII (Michael W. Deem and Ramdas Pophale) SiO2 
 PCOD9474385
Probable space group: C M C M
;
_chemical_formula_sum "Si O2"
_cell_formula_units_Z 64
_cell_length_a 21.066120
_cell_length_b 11.227896
_cell_length_c 14.128045
_cell_angle_alpha 90.000000
_cell_angle_beta 90.000000
_cell_angle_gamma 90.000000
_cell_volume 3341.681117
_symmetry_space_group_name_H-M "C M C M"
_symmetry_group_IT_number 63
_symmetry_cell_setting 'orthorhombic'
loop_
_space_group_symop_operation_xyz
x,y,z
-x,-y,1/2+z
x,-y,-z
-x,y,1/2-z
-x,-y,-z
x,y,1/2-z
-x,y,z
x,-y,1/2+z
1/2+x,1/2+y,z
1/2-x,1/2-y,1/2+z
1/2+x,1/2-y,-z
1/2-x,1/2+y,1/2-z
1/2-x,1/2-y,-z
1/2+x,1/2+y,1/2-z
1/2-x,1/2+y,z
1/2+x,1/2-y,1/2+z
loop_
_atom_site_type_symbol
_atom_site_label
_atom_site_fract_x
_atom_site_fract_y
_atom_site_fract_z
Si Si1 0.000000 0.039041 0.635808
Si Si2 0.249768 0.876863 0.443159
Si Si3 0.109015 0.627615 0.532374
Si Si4 0.122606 0.804434 0.359123
Si Si5 0.000000 0.232121 0.136506
O O1 0.064769 0.108254 0.612544
O O2 0.000000 0.095905 0.399270
O O3 0.000000 0.031875 0.750000
O O4 0.250000 0.750000 0.500000
O O5 0.323469 0.888647 0.414406
O O6 0.191890 0.864287 0.370257
O O7 0.236876 0.000000 0.500000
O O8 0.083750 0.500000 0.500000
O O9 0.120344 0.698391 0.434490
O O10 0.061017 0.700717 0.596103
O O11 0.113090 0.767889 0.250000
O O12 0.000000 0.233364 0.250000
#
# Coordination Sequence:
#
# PCOD9474385 Si02
#       5
#     8  16  16  16   8
#     4   9  21  37  56  91 117 148 206 250 302 362
#     4   9  20  37  58  86 120 160 203 247 304 362
#     4  10  22  40  60  88 123 161 207 249 311 374
#     4  10  21  38  62  90 120 161 209 255 308 366
#     4  11  24  39  60  91 124 161 204 256 315 366
#
# _framework density 19.152035999999999
#
# number of rings (size 3 to 8) (size 9 to 14) (size 15 to 20)
#    0.000    2.250    0.000    1.125    7.000    3.000 
#    0.000   11.250    0.000    0.000    0.000    0.000 
#    0.000    0.000    0.000    0.000    0.000    0.000 
#
# Total GULP energy -178327.404199 kJ/mol
# GULP energy per Si atom -5572.731381 kJ/mol
# Density = 1.910845 g / cm^3
# Si number density = 19.152036 Si / 1000 Ang^3
#
#
#
# Elastic Constant Matrix: (Units=GPa)
#
#
# Indices 1 2 3 4 5 6 
#
# 1 118.4840 39.3723 47.0721 0.0000 0.0000 0.0000
# 2 39.3723 121.7444 32.1998 0.0000 0.0000 0.0000
# 3 47.0721 32.1998 86.6983 0.0000 0.0000 0.0000
# 4 0.0000 0.0000 0.0000 20.2089 0.0000 0.0000
# 5 0.0000 0.0000 0.0000 0.0000 10.0000 0.0000
# 6 0.0000 0.0000 0.0000 0.0000 0.0000 38.4737
#
#
#
# Elastic Compliance Matrix: (Units=1/GPa)
#
#
# Indices 1 2 3 4 5 6 
#
# 1 0.011292 -0.002251 -0.005294 0.000000 0.000000 0.000000
# 2 -0.002251 0.009558 -0.002327 0.000000 0.000000 0.000000
# 3 -0.005294 -0.002327 0.015273 0.000000 0.000000 0.000000
# 4 0.000000 0.000000 0.000000 0.049483 0.000000 0.000000
# 5 0.000000 0.000000 0.000000 0.000000 0.100000 0.000000
# 6 0.000000 0.000000 0.000000 0.000000 0.000000 0.025992
#
#
# Mechanical properties :
#
#
# Convention : Reuss Voigt Hill
#
# Bulk Modulus (GPa) = 61.06509 62.69055 61.87782
# Shear Modulus (GPa) = 21.11470 27.62205 24.36838
#
# Velocity S-wave (km/s) = 3.32396 3.80182 3.57089
# Velocity P-wave (km/s) = 6.83266 7.21636 7.02713
#
# Compressibility (1/GPa) = 0.01637597
#
# Stress axis : x y z
#
# Youngs Moduli (GPa) = 88.56211 104.62911 65.47410
#
# Poissons Ratio (x) = 0.23556 0.34665
# Poissons Ratio (y) = 0.19939 0.15238
# Poissons Ratio (z) = 0.46889 0.24351
#
# Static dielectric constant tensor:
#      x y z
#    x 1.684570 0.000000 0.000000 
#    y 0.000000 1.717000 0.000000 
#    z 0.000000 0.000000 1.653020 
# 
# From -- ./inp_files/23502.got.cif
#   From: 2010.05.17/outbox.cif.g08.bks.cpg/sg63_12_cif.got.tgz:23502.got - 2010.06.03 15:47:04.
