data_PCOD9474548
_publ_section_title
;
Structure prediction by ZEFSAII (Michael W. Deem and Ramdas Pophale) SiO2 
 PCOD9474548
Probable space group: C M C M
;
_chemical_formula_sum "Si O2"
_cell_formula_units_Z 64
_cell_length_a 7.720659
_cell_length_b 27.524037
_cell_length_c 15.073093
_cell_angle_alpha 90.000000
_cell_angle_beta 90.000000
_cell_angle_gamma 90.000000
_cell_volume 3203.088093
_symmetry_space_group_name_H-M "C M C M"
_symmetry_group_IT_number 63
_symmetry_cell_setting 'orthorhombic'
loop_
_space_group_symop_operation_xyz
x,y,z
-x,-y,1/2+z
x,-y,-z
-x,y,1/2-z
-x,-y,-z
x,y,1/2-z
-x,y,z
x,-y,1/2+z
1/2+x,1/2+y,z
1/2-x,1/2-y,1/2+z
1/2+x,1/2-y,-z
1/2-x,1/2+y,1/2-z
1/2-x,1/2-y,-z
1/2+x,1/2+y,1/2-z
1/2-x,1/2+y,z
1/2+x,1/2-y,1/2+z
loop_
_atom_site_type_symbol
_atom_site_label
_atom_site_fract_x
_atom_site_fract_y
_atom_site_fract_z
Si Si1 0.500000 0.592427 0.642944
Si Si2 0.801225 0.235675 0.400141
Si Si3 0.797410 0.557420 0.982885
Si Si4 0.209548 0.374548 0.851488
Si Si5 0.000000 0.197376 0.844463
O O1 0.500000 0.582675 0.750000
O O2 0.327887 0.570274 0.598317
O O3 0.500000 0.648165 0.600404
O O4 0.750000 0.250000 0.500000
O O5 0.773110 0.179207 0.378677
O O6 0.665768 0.268848 0.349349
O O7 0.000000 0.248231 0.383365
O O8 0.000000 0.569918 0.964894
O O9 0.787427 0.500000 0.000000
O O10 0.743007 0.586988 0.071985
O O11 0.266619 0.385497 0.750000
O O12 0.000000 0.372680 0.850135
O O13 0.000000 0.173128 0.750000
#
# Coordination Sequence:
#
# PCOD9474548 Si02
#       5
#     8  16  16  16   8
#     4  11  25  43  66  94 129 174 222 272 324 389
#     4  12  23  38  61  89 125 172 215 261 319 381
#     4  10  23  44  69  96 130 170 215 273 337 398
#     4  10  21  39  64  96 133 170 216 274 332 394
#     4  11  24  41  59  88 129 164 208 262 308 377
#
# _framework density 19.980718
#
# number of rings (size 3 to 8) (size 9 to 14) (size 15 to 20)
#    0.000    1.250    2.500    2.625    1.750    6.500 
#    0.000    5.000    0.000    0.000    0.000    0.000 
#    0.000    0.000    0.000    0.000    0.000    0.000 
#
# Total GULP energy -178434.123003 kJ/mol
# GULP energy per Si atom -5576.066344 kJ/mol
# Density = 1.993524 g / cm^3
# Si number density = 19.980718 Si / 1000 Ang^3
#
#
#
# Elastic Constant Matrix: (Units=GPa)
#
#
# Indices 1 2 3 4 5 6 
#
# 1 133.5385 54.3440 57.3326 0.0000 0.0000 0.0000
# 2 54.3440 102.6525 43.7615 0.0000 0.0000 0.0000
# 3 57.3326 43.7615 156.9438 0.0000 0.0000 0.0000
# 4 0.0000 0.0000 0.0000 3.1707 0.0000 0.0000
# 5 0.0000 0.0000 0.0000 0.0000 -108.9064 0.0000
# 6 0.0000 0.0000 0.0000 0.0000 0.0000 -852.5252
#
#
#
# Elastic Compliance Matrix: (Units=1/GPa)
#
#
# Indices 1 2 3 4 5 6 
#
# 1 0.010381 -0.004402 -0.002565 0.000000 0.000000 0.000000
# 2 -0.004402 0.012923 -0.001995 0.000000 0.000000 0.000000
# 3 -0.002565 -0.001995 0.007865 0.000000 0.000000 0.000000
# 4 0.000000 0.000000 0.000000 0.315391 0.000000 0.000000
# 5 0.000000 0.000000 0.000000 0.000000 -0.009182 0.000000
# 6 0.000000 0.000000 0.000000 0.000000 0.000000 -0.001173
#
#
# Mechanical properties :
#
#
# Convention : Reuss Voigt Hill
#
# Bulk Modulus (GPa) = 75.50392 78.22345 76.86369
# Shear Modulus (GPa) = 13.94528 -175.80572 -80.93022
#
# Velocity S-wave (km/s) = 2.64472 -9.39035 -6.37119
# Velocity P-wave (km/s) = 6.86997 8.85083 3.94593
#
# Compressibility (1/GPa) = 0.01324435
#
# Stress axis : x y z
#
# Youngs Moduli (GPa) = 96.32801 77.38292 127.14656
#
# Poissons Ratio (x) = 0.34067 0.32610
# Poissons Ratio (y) = 0.42407 0.25367
# Poissons Ratio (z) = 0.24706 0.15439
#
# Static dielectric constant tensor:
#      x y z
#    x 1.704970 0.000000 0.000000 
#    y 0.000000 1.684900 0.000000 
#    z 0.000000 0.000000 1.805970 
# 
# From -- ./inp_files/27591.got.cif
#   From: 2010.05.17/outbox.cif.g08.bks.cpg/sg63_14_cif.got.tgz:27591.got - 2010.06.03 15:47:04.
