data_PCOD9474290
_publ_section_title
;
Structure prediction by ZEFSAII (Michael W. Deem and Ramdas Pophale) SiO2 
 PCOD9474290
Probable space group: C M C M
;
_chemical_formula_sum "Si O2"
_cell_formula_units_Z 104
_cell_length_a 22.253813
_cell_length_b 27.033097
_cell_length_c 8.143221
_cell_angle_alpha 90.000000
_cell_angle_beta 90.000000
_cell_angle_gamma 90.000000
_cell_volume 4898.876131
_symmetry_space_group_name_H-M "C M C M"
_symmetry_group_IT_number 63
_symmetry_cell_setting 'orthorhombic'
loop_
_space_group_symop_operation_xyz
x,y,z
-x,-y,1/2+z
x,-y,-z
-x,y,1/2-z
-x,-y,-z
x,y,1/2-z
-x,y,z
x,-y,1/2+z
1/2+x,1/2+y,z
1/2-x,1/2-y,1/2+z
1/2+x,1/2-y,-z
1/2-x,1/2+y,1/2-z
1/2-x,1/2-y,-z
1/2+x,1/2+y,1/2-z
1/2-x,1/2+y,z
1/2+x,1/2-y,1/2+z
loop_
_atom_site_type_symbol
_atom_site_label
_atom_site_fract_x
_atom_site_fract_y
_atom_site_fract_z
Si Si1 0.198257 0.445269 0.559062
Si Si2 0.312459 0.396017 0.449077
Si Si3 0.896415 0.627951 0.556548
Si Si4 0.000000 0.555888 0.552864
Si Si5 0.306368 0.716181 0.948612
Si Si6 0.569015 0.763996 0.944181
Si Si7 0.933671 0.056349 0.947883
O O1 0.179768 0.500000 0.500000
O O2 0.184481 0.441424 0.750000
O O3 0.268253 0.436391 0.524972
O O4 0.166687 0.399117 0.468940
O O5 0.308373 0.399172 0.250000
O O6 0.296007 0.340439 0.500004
O O7 0.380214 0.408286 0.500645
O O8 0.905552 0.637143 0.750000
O O9 0.942594 0.586314 0.495650
O O10 0.911125 0.678977 0.468117
O O11 0.000000 0.500000 0.500000
O O12 0.000000 0.556669 0.750000
O O13 0.308557 0.717448 0.750000
O O14 0.372584 0.733991 0.009166
O O15 0.250000 0.750000 0.000000
O O16 0.565451 0.753146 0.750000
O O17 0.500000 0.757110 0.009444
O O18 0.935011 0.057649 0.750000
O O19 0.000000 0.070241 0.009295
O O20 0.921736 0.000000 0.000000
#
# Coordination Sequence:
#
# PCOD9474290 Si02
#       7
#    16  16  16   8  16  16  16
#     4  12  25  40  59  86 118 155 197 242 294 353
#     4  10  21  38  59  84 115 153 195 243 295 349
#     4  11  22  39  59  84 116 153 196 240 291 346
#     4  10  22  36  54  80 110 144 184 230 279 334
#     4  10  22  39  59  85 116 152 197 247 299 352
#     4  10  21  38  61  89 120 158 203 250 300 356
#     4   9  18  33  55  83 114 148 185 226 279 342
#
# _framework density 21.229358999999999
#
# number of rings (size 3 to 8) (size 9 to 14) (size 15 to 20)
#    0.000    1.692    0.769    3.692    0.000    8.615 
#    0.000    3.077    0.000    0.000    0.000    4.308 
#    0.000    0.000    0.000    0.000    0.000    0.000 
#
# Total GULP energy -290347.022305 kJ/mol
# GULP energy per Si atom -5583.596583 kJ/mol
# Density = 2.118104 g / cm^3
# Si number density = 21.229359 Si / 1000 Ang^3
#
#
#
# Elastic Constant Matrix: (Units=GPa)
#
#
# Indices 1 2 3 4 5 6 
#
# 1 110.8499 25.6179 0.7933 0.0000 0.0000 0.0000
# 2 25.6179 49.3450 -4.1811 0.0000 0.0000 0.0000
# 3 0.7933 -4.1811 15.0830 0.0000 0.0000 0.0000
# 4 0.0000 0.0000 0.0000 21.7054 0.0000 0.0000
# 5 0.0000 0.0000 0.0000 0.0000 -13.9205 0.0000
# 6 0.0000 0.0000 0.0000 0.0000 0.0000 33.4850
#
#
#
# Elastic Compliance Matrix: (Units=1/GPa)
#
#
# Indices 1 2 3 4 5 6 
#
# 1 0.010314 -0.005531 -0.002076 0.000000 0.000000 0.000000
# 2 -0.005531 0.023718 0.006866 0.000000 0.000000 0.000000
# 3 -0.002076 0.006866 0.068312 0.000000 0.000000 0.000000
# 4 0.000000 0.000000 0.000000 0.046071 0.000000 0.000000
# 5 0.000000 0.000000 0.000000 0.000000 -0.071837 0.000000
# 6 0.000000 0.000000 0.000000 0.000000 0.000000 0.029864
#
#
# Mechanical properties :
#
#
# Convention : Reuss Voigt Hill
#
# Bulk Modulus (GPa) = 9.91433 24.41533 17.16483
# Shear Modulus (GPa) = 35.32426 18.45720 26.89073
#
# Velocity S-wave (km/s) = 4.08356 2.95179 3.56290
# Velocity P-wave (km/s) = 5.18789 4.81073 5.00286
#
# Compressibility (1/GPa) = 0.10086414
#
# Stress axis : x y z
#
# Youngs Moduli (GPa) = 96.95374 42.16122 14.63867
#
# Poissons Ratio (x) = 0.23318 0.03038
# Poissons Ratio (y) = 0.53621 -0.10051
# Poissons Ratio (z) = 0.20123 -0.28947
#
# Static dielectric constant tensor:
#      x y z
#    x 1.850950 0.000000 0.000000 
#    y 0.000000 1.759520 0.000000 
#    z 0.000000 0.000000 1.799510 
# 
# From -- ./inp_files/8747.got.cif
#   From: 2010.05.17/outbox.cif.g08.bks.cpg/sg63_5_cif.got.tgz:8747.got - 2010.06.03 15:47:04.
