data_PCOD9474953
_publ_section_title
;
Structure prediction by ZEFSAII (Michael W. Deem and Ramdas Pophale) SiO2 
 PCOD9474953
Probable space group: C M C M
;
_chemical_formula_sum "Si O2"
_cell_formula_units_Z 96
_cell_length_a 28.367388
_cell_length_b 11.365519
_cell_length_c 15.708501
_cell_angle_alpha 90.000000
_cell_angle_beta 90.000000
_cell_angle_gamma 90.000000
_cell_volume 5064.579179
_symmetry_space_group_name_H-M "C M C M"
_symmetry_group_IT_number 63
_symmetry_cell_setting 'orthorhombic'
loop_
_space_group_symop_operation_xyz
x,y,z
-x,-y,1/2+z
x,-y,-z
-x,y,1/2-z
-x,-y,-z
x,y,1/2-z
-x,y,z
x,-y,1/2+z
1/2+x,1/2+y,z
1/2-x,1/2-y,1/2+z
1/2+x,1/2-y,-z
1/2-x,1/2+y,1/2-z
1/2-x,1/2-y,-z
1/2+x,1/2+y,1/2-z
1/2-x,1/2+y,z
1/2+x,1/2-y,1/2+z
loop_
_atom_site_type_symbol
_atom_site_label
_atom_site_fract_x
_atom_site_fract_y
_atom_site_fract_z
Si Si1 0.391289 0.493400 0.401617
Si Si2 0.556898 0.636332 0.750000
Si Si3 0.443203 0.097864 0.250000
Si Si4 0.445464 0.060397 0.908788
Si Si5 0.126295 0.254128 0.150192
Si Si6 0.713197 0.529929 0.650998
Si Si7 0.233634 0.234717 0.403277
O O1 0.406885 0.500000 0.500000
O O2 0.422479 0.417788 0.336988
O O3 0.390997 0.621889 0.360503
O O4 0.336118 0.455510 0.399181
O O5 0.500000 0.628420 0.750000
O O6 0.574031 0.770513 0.750000
O O7 0.500000 0.103671 0.250000
O O8 0.430105 0.029234 0.165050
O O9 0.500000 0.095434 0.892212
O O10 0.409889 0.166782 0.901370
O O11 0.443666 0.000000 0.000000
O O12 0.127195 0.286723 0.250000
O O13 0.178493 0.258847 0.112033
O O14 0.701157 0.510587 0.750000
O O15 0.740604 0.654422 0.643029
O O16 0.738566 0.405663 0.622475
O O17 0.250000 0.250000 0.500000
#
# Coordination Sequence:
#
# PCOD9474953 Si02
#       7
#    16   8   8  16  16  16  16
#     4  11  23  42  64  90 126 167 207 259 324 375
#     4  11  24  43  63  90 128 166 212 261 312 384
#     4   9  20  41  61  84 128 168 200 261 323 366
#     4  10  22  40  64  94 128 170 213 260 323 383
#     4  11  22  42  64  93 128 164 215 272 313 378
#     4  11  21  42  64  91 127 170 210 261 321 383
#     4  11  23  40  62  91 128 168 212 266 323 382
#
# _framework density 18.955179000000001
#
# number of rings (size 3 to 8) (size 9 to 14) (size 15 to 20)
#    0.000    1.333    2.500    5.000    2.333    2.333 
#    3.000    0.000    0.000    0.000    0.000    0.000 
#    0.000    0.000    0.000    0.000    0.000    0.000 
#
# Total GULP energy -267683.458968 kJ/mol
# GULP energy per Si atom -5576.738728 kJ/mol
# Density = 1.891204 g / cm^3
# Si number density = 18.955179 Si / 1000 Ang^3
#
#
#
# Elastic Constant Matrix: (Units=GPa)
#
#
# Indices 1 2 3 4 5 6 
#
# 1 45.8351 40.6072 7.3927 0.0000 0.0000 0.0000
# 2 40.6072 85.5993 -5.1163 0.0000 0.0000 0.0000
# 3 7.3927 -5.1163 96.2159 0.0000 0.0000 0.0000
# 4 0.0000 0.0000 0.0000 24.1840 0.0000 0.0000
# 5 0.0000 0.0000 0.0000 0.0000 39.9799 0.0000
# 6 0.0000 0.0000 0.0000 0.0000 0.0000 19.9203
#
#
#
# Elastic Compliance Matrix: (Units=1/GPa)
#
#
# Indices 1 2 3 4 5 6 
#
# 1 0.039114 -0.018795 -0.004005 0.000000 0.000000 0.000000
# 2 -0.018795 0.020750 0.002547 0.000000 0.000000 0.000000
# 3 -0.004005 0.002547 0.010836 0.000000 0.000000 0.000000
# 4 0.000000 0.000000 0.000000 0.041350 0.000000 0.000000
# 5 0.000000 0.000000 0.000000 0.000000 0.025013 0.000000
# 6 0.000000 0.000000 0.000000 0.000000 0.000000 0.050200
#
#
# Mechanical properties :
#
#
# Convention : Reuss Voigt Hill
#
# Bulk Modulus (GPa) = 33.11540 34.82417 33.96979
# Shear Modulus (GPa) = 21.02319 29.13463 25.07891
#
# Velocity S-wave (km/s) = 3.33393 3.92475 3.64134
# Velocity P-wave (km/s) = 5.68581 6.24099 5.96985
#
# Compressibility (1/GPa) = 0.03019743
#
# Stress axis : x y z
#
# Youngs Moduli (GPa) = 25.56624 48.19166 92.28107
#
# Poissons Ratio (x) = 0.90574 0.36956
# Poissons Ratio (y) = 0.48051 -0.23509
# Poissons Ratio (z) = 0.10239 -0.12277
#
# Static dielectric constant tensor:
#      x y z
#    x 1.650860 0.000000 0.000000 
#    y 0.000000 1.683630 0.000000 
#    z 0.000000 0.000000 1.649030 
# 
# From -- ./inp_files/38460.got.cif
#   From: 2010.05.17/outbox.cif.g08.bks.cpg/sg63_20_cif.got.tgz:38460.got - 2010.06.03 15:47:04.
