data_PCOD9474031
_publ_section_title
;
Structure prediction by ZEFSAII (Michael W. Deem and Ramdas Pophale) SiO2 
 PCOD9474031
Probable space group: C M C M
;
_chemical_formula_sum "Si O2"
_cell_formula_units_Z 112
_cell_length_a 27.365223
_cell_length_b 15.040030
_cell_length_c 14.848700
_cell_angle_alpha 90.000000
_cell_angle_beta 90.000000
_cell_angle_gamma 90.000000
_cell_volume 6111.335511
_symmetry_space_group_name_H-M "C M C M"
_symmetry_group_IT_number 63
_symmetry_cell_setting 'orthorhombic'
loop_
_space_group_symop_operation_xyz
x,y,z
-x,-y,1/2+z
x,-y,-z
-x,y,1/2-z
-x,-y,-z
x,y,1/2-z
-x,y,z
x,-y,1/2+z
1/2+x,1/2+y,z
1/2-x,1/2-y,1/2+z
1/2+x,1/2-y,-z
1/2-x,1/2+y,1/2-z
1/2-x,1/2-y,-z
1/2+x,1/2+y,1/2-z
1/2-x,1/2+y,z
1/2+x,1/2-y,1/2+z
loop_
_atom_site_type_symbol
_atom_site_label
_atom_site_fract_x
_atom_site_fract_y
_atom_site_fract_z
Si Si1 0.053281 0.536029 0.645979
Si Si2 0.282863 0.270858 0.648475
Si Si3 0.193744 0.864094 0.356855
Si Si4 0.134520 0.427783 0.923825
Si Si5 0.742847 0.032825 0.145144
Si Si6 0.441582 0.237623 0.856777
Si Si7 0.635299 0.266249 0.502160
O O1 0.046489 0.556106 0.750000
O O2 0.092822 0.458716 0.643917
O O3 0.068244 0.634695 0.613845
O O4 0.000000 0.511241 0.607215
O O5 0.301575 0.252055 0.750000
O O6 0.232459 0.217140 0.639415
O O7 0.272122 0.375265 0.639887
O O8 0.320161 0.245848 0.570917
O O9 0.179530 0.874249 0.250000
O O10 0.151690 0.839076 0.428045
O O11 0.224474 0.950705 0.388004
O O12 0.190088 0.449807 0.897205
O O13 0.122711 0.500000 0.000000
O O14 0.128267 0.325630 0.948492
O O15 0.733423 0.012077 0.250000
O O16 0.428666 0.251568 0.750000
O O17 0.500000 0.252206 0.864285
O O18 0.409146 0.290251 0.930056
#
# Coordination Sequence:
#
# PCOD9474031 Si02
#       7
#    16  16  16  16  16  16  16
#     4   9  19  35  52  72 103 144 190 234 272 324
#     4  10  21  37  54  78 112 149 194 236 277 329
#     4  10  22  37  54  79 113 151 191 236 279 334
#     4  12  22  30  49  78 106 146 190 227 268 328
#     4  10  22  38  54  74 109 155 193 228 276 332
#     4   9  19  37  58  81 110 145 188 235 284 338
#     4  12  22  34  55  82 112 146 184 238 284 328
#
# _framework density 18.326599999999999
#
# number of rings (size 3 to 8) (size 9 to 14) (size 15 to 20)
#    0.000    1.714    2.857    3.000    2.000    1.429 
#    0.000    0.000    0.000    0.429    0.000    2.000 
#    0.000    3.429    0.000    3.143    0.000    0.000 
#
# Total GULP energy -311957.017650 kJ/mol
# GULP energy per Si atom -5570.661029 kJ/mol
# Density = 1.828489 g / cm^3
# Si number density = 18.326600 Si / 1000 Ang^3
#
#
#
# Elastic Constant Matrix: (Units=GPa)
#
#
# Indices 1 2 3 4 5 6 
#
# 1 56.3550 7.3228 35.0152 0.0000 0.0000 0.0000
# 2 7.3228 57.1074 12.2277 0.0000 0.0000 0.0000
# 3 35.0152 12.2277 63.6440 0.0000 0.0000 0.0000
# 4 0.0000 0.0000 0.0000 19.6118 0.0000 0.0000
# 5 0.0000 0.0000 0.0000 0.0000 38.7230 0.0000
# 6 0.0000 0.0000 0.0000 0.0000 0.0000 -38.3959
#
#
#
# Elastic Compliance Matrix: (Units=1/GPa)
#
#
# Indices 1 2 3 4 5 6 
#
# 1 0.026966 -0.000293 -0.014779 0.000000 0.000000 0.000000
# 2 -0.000293 0.018265 -0.003348 0.000000 0.000000 0.000000
# 3 -0.014779 -0.003348 0.024487 0.000000 0.000000 0.000000
# 4 0.000000 0.000000 0.000000 0.050990 0.000000 0.000000
# 5 0.000000 0.000000 0.000000 0.000000 0.025824 0.000000
# 6 0.000000 0.000000 0.000000 0.000000 0.000000 -0.026044
#
#
# Mechanical properties :
#
#
# Convention : Reuss Voigt Hill
#
# Bulk Modulus (GPa) = 30.41670 31.80420 31.11045
# Shear Modulus (GPa) = 29.71099 12.15715 20.93407
#
# Velocity S-wave (km/s) = 4.03077 2.57837 3.38343
# Velocity P-wave (km/s) = 6.18837 5.12404 5.68118
#
# Compressibility (1/GPa) = 0.03287668
#
# Stress axis : x y z
#
# Youngs Moduli (GPa) = 37.08410 54.74855 40.83821
#
# Poissons Ratio (x) = 0.01605 0.60357
# Poissons Ratio (y) = 0.01087 0.13672
# Poissons Ratio (z) = 0.54808 0.18329
#
# Static dielectric constant tensor:
#      x y z
#    x 1.705650 0.000000 0.000000 
#    y 0.000000 1.618200 0.000000 
#    z 0.000000 0.000000 1.729920 
# 
# From -- ./inp_files/37913.got.cif
#   From: 2010.05.17/outbox.cif.g08.bks.cpg/sg63_19_cif.got.tgz:37913.got - 2010.06.03 15:47:04.
