data_PCOD9474200
_publ_section_title
;
Structure prediction by ZEFSAII (Michael W. Deem and Ramdas Pophale) SiO2 
 PCOD9474200
Probable space group: C M C M
;
_chemical_formula_sum "Si O2"
_cell_formula_units_Z 88
_cell_length_a 14.414537
_cell_length_b 14.986479
_cell_length_c 20.946524
_cell_angle_alpha 90.000000
_cell_angle_beta 90.000000
_cell_angle_gamma 90.000000
_cell_volume 4524.934223
_symmetry_space_group_name_H-M "C M C M"
_symmetry_group_IT_number 63
_symmetry_cell_setting 'orthorhombic'
loop_
_space_group_symop_operation_xyz
x,y,z
-x,-y,1/2+z
x,-y,-z
-x,y,1/2-z
-x,-y,-z
x,y,1/2-z
-x,y,z
x,-y,1/2+z
1/2+x,1/2+y,z
1/2-x,1/2-y,1/2+z
1/2+x,1/2-y,-z
1/2-x,1/2+y,1/2-z
1/2-x,1/2-y,-z
1/2+x,1/2+y,1/2-z
1/2-x,1/2+y,z
1/2+x,1/2-y,1/2+z
loop_
_atom_site_type_symbol
_atom_site_label
_atom_site_fract_x
_atom_site_fract_y
_atom_site_fract_z
Si Si1 0.243905 0.262535 0.676144
Si Si2 0.612197 0.599359 0.135790
Si Si3 0.106684 0.669762 0.071802
Si Si4 0.702496 0.575194 0.889024
Si Si5 0.393644 0.662237 0.501732
Si Si6 0.834436 0.500000 0.500000
O O1 0.217658 0.261387 0.750000
O O2 0.341980 0.314329 0.668765
O O3 0.170970 0.318831 0.633436
O O4 0.239781 0.161404 0.648882
O O5 0.500000 0.593450 0.143178
O O6 0.665016 0.507318 0.152942
O O7 0.641653 0.613557 0.061044
O O8 0.145319 0.741572 0.020348
O O9 0.000000 0.692625 0.087666
O O10 0.110094 0.575508 0.037482
O O11 0.616835 0.605997 0.933931
O O12 0.775350 0.546213 0.943462
O O13 0.500000 0.677587 0.485717
#
# Coordination Sequence:
#
# PCOD9474200 Si02
#       6
#    16  16  16  16  16   8
#     4  11  25  43  60  84 126 171 213 257 308 372
#     4  11  21  38  65  96 125 162 207 261 321 377
#     4  10  21  37  60  89 121 162 207 254 313 376
#     4  11  20  35  61  95 125 161 200 257 315 377
#     4   9  17  32  57  91 126 151 187 250 319 372
#     4  12  19  34  61  96 126 152 195 262 321 388
#
# _framework density 19.447794999999999
#
# number of rings (size 3 to 8) (size 9 to 14) (size 15 to 20)
#    0.000    1.455    3.636    1.909    0.000    6.545 
#    0.000    0.909    0.000    0.000    0.000    0.000 
#    0.000    0.000    0.000    0.000    0.000    0.000 
#
# Total GULP energy -245238.280065 kJ/mol
# GULP energy per Si atom -5573.597274 kJ/mol
# Density = 1.940353 g / cm^3
# Si number density = 19.447795 Si / 1000 Ang^3
#
#
#
# Elastic Constant Matrix: (Units=GPa)
#
#
# Indices 1 2 3 4 5 6 
#
# 1 89.3892 38.0765 27.4695 0.0000 0.0000 0.0000
# 2 38.0765 118.5940 48.4262 0.0000 0.0000 0.0000
# 3 27.4695 48.4262 62.0091 0.0000 0.0000 0.0000
# 4 0.0000 0.0000 0.0000 12.2107 0.0000 0.0000
# 5 0.0000 0.0000 0.0000 0.0000 7.7035 0.0000
# 6 0.0000 0.0000 0.0000 0.0000 0.0000 61.3899
#
#
#
# Elastic Compliance Matrix: (Units=1/GPa)
#
#
# Indices 1 2 3 4 5 6 
#
# 1 0.013550 -0.002789 -0.003825 0.000000 0.000000 0.000000
# 2 -0.002789 0.012954 -0.008881 0.000000 0.000000 0.000000
# 3 -0.003825 -0.008881 0.024757 0.000000 0.000000 0.000000
# 4 0.000000 0.000000 0.000000 0.081895 0.000000 0.000000
# 5 0.000000 0.000000 0.000000 0.000000 0.129812 0.000000
# 6 0.000000 0.000000 0.000000 0.000000 0.000000 0.016289
#
#
# Mechanical properties :
#
#
# Convention : Reuss Voigt Hill
#
# Bulk Modulus (GPa) = 49.32960 55.32629 52.32795
# Shear Modulus (GPa) = 15.77270 26.66216 21.21743
#
# Velocity S-wave (km/s) = 2.85094 3.70667 3.30660
# Velocity P-wave (km/s) = 6.02141 6.84321 6.44542
#
# Compressibility (1/GPa) = 0.02027180
#
# Stress axis : x y z
#
# Youngs Moduli (GPa) = 73.79912 77.19658 40.39312
#
# Poissons Ratio (x) = 0.21528 0.15450
# Poissons Ratio (y) = 0.20581 0.35873
# Poissons Ratio (z) = 0.28227 0.68559
#
# Static dielectric constant tensor:
#      x y z
#    x 1.718870 0.000000 0.000000 
#    y 0.000000 1.765650 0.000000 
#    z 0.000000 0.000000 1.666310 
# 
# From -- ./inp_files/62823.got.cif
#   From: 2010.05.17/outbox.cif.g08.bks.cpg/sg63_32_cif.got.tgz:62823.got - 2010.06.03 15:47:04.
