data_PCOD9474424
_publ_section_title
;
Structure prediction by ZEFSAII (Michael W. Deem and Ramdas Pophale) SiO2 
 PCOD9474424
Probable space group: C M C M
;
_chemical_formula_sum "Si O2"
_cell_formula_units_Z 100
_cell_length_a 9.311922
_cell_length_b 25.230162
_cell_length_c 21.919485
_cell_angle_alpha 90.000000
_cell_angle_beta 90.000000
_cell_angle_gamma 90.000000
_cell_volume 5149.792314
_symmetry_space_group_name_H-M "C M C M"
_symmetry_group_IT_number 63
_symmetry_cell_setting 'orthorhombic'
loop_
_space_group_symop_operation_xyz
x,y,z
-x,-y,1/2+z
x,-y,-z
-x,y,1/2-z
-x,-y,-z
x,y,1/2-z
-x,y,z
x,-y,1/2+z
1/2+x,1/2+y,z
1/2-x,1/2-y,1/2+z
1/2+x,1/2-y,-z
1/2-x,1/2+y,1/2-z
1/2-x,1/2-y,-z
1/2+x,1/2+y,1/2-z
1/2-x,1/2+y,z
1/2+x,1/2-y,1/2+z
loop_
_atom_site_type_symbol
_atom_site_label
_atom_site_fract_x
_atom_site_fract_y
_atom_site_fract_z
Si Si1 0.839393 0.550250 0.822626
Si Si2 0.828774 0.644556 0.398010
Si Si3 0.832989 0.194096 0.506622
Si Si4 0.000000 0.160319 0.750000
Si Si5 0.830536 0.054306 0.322711
Si Si6 0.760959 0.162064 0.642328
Si Si7 0.341249 0.273233 0.822173
O O1 0.829448 0.561324 0.750000
O O2 0.722852 0.505256 0.836300
O O3 0.814917 0.605167 0.856863
O O4 0.000000 0.529419 0.834496
O O5 0.749042 0.653529 0.462132
O O6 0.762645 0.594955 0.361901
O O7 0.781136 0.695662 0.358180
O O8 0.000000 0.641549 0.404185
O O9 0.750000 0.250000 0.500000
O O10 0.824211 0.174476 0.575977
O O11 0.000000 0.200504 0.489015
O O12 0.876883 0.160368 0.696178
O O13 0.806791 0.063595 0.250000
O O14 0.000000 0.060168 0.334421
O O15 0.662015 0.212135 0.658785
O O16 0.316927 0.277711 0.750000
O O17 0.500000 0.296029 0.835484
#
# Coordination Sequence:
#
# PCOD9474424 Si02
#       7
#    16  16  16   4  16  16  16
#     4  10  21  38  64  97 133 169 214 271 335 397
#     4  12  26  42  63  90 129 176 224 271 322 391
#     4  12  26  43  65  93 130 179 222 266 324 397
#     4  12  24  40  66 104 138 164 216 286 336 390
#     4  10  22  41  68  97 130 172 221 279 339 393
#     4  12  24  39  67  96 135 166 215 268 335 391
#     4  11  23  38  61  92 129 168 215 274 333 388
#
# _framework density 19.41826
#
# number of rings (size 3 to 8) (size 9 to 14) (size 15 to 20)
#    0.000    0.800    4.000    3.360    2.240    6.400 
#    0.000    0.800    0.000    3.840    0.000    0.000 
#    0.000    0.000    0.000    0.000    0.000    0.000 
#
# Total GULP energy -278938.160383 kJ/mol
# GULP energy per Si atom -5578.763208 kJ/mol
# Density = 1.937406 g / cm^3
# Si number density = 19.418260 Si / 1000 Ang^3
#
#
#
# Elastic Constant Matrix: (Units=GPa)
#
#
# Indices 1 2 3 4 5 6 
#
# 1 152.5010 36.5708 55.8809 0.0000 0.0000 0.0000
# 2 36.5708 88.1039 32.2511 0.0000 0.0000 0.0000
# 3 55.8809 32.2511 125.9048 0.0000 0.0000 0.0000
# 4 0.0000 0.0000 0.0000 17.2697 0.0000 0.0000
# 5 0.0000 0.0000 0.0000 0.0000 21.7056 0.0000
# 6 0.0000 0.0000 0.0000 0.0000 0.0000 -47.5863
#
#
#
# Elastic Compliance Matrix: (Units=1/GPa)
#
#
# Indices 1 2 3 4 5 6 
#
# 1 0.008231 -0.002294 -0.003065 0.000000 0.000000 0.000000
# 2 -0.002294 0.013164 -0.002354 0.000000 0.000000 0.000000
# 3 -0.003065 -0.002354 0.009906 0.000000 0.000000 0.000000
# 4 0.000000 0.000000 0.000000 0.057905 0.000000 0.000000
# 5 0.000000 0.000000 0.000000 0.000000 0.046071 0.000000
# 6 0.000000 0.000000 0.000000 0.000000 0.000000 -0.021014
#
#
# Mechanical properties :
#
#
# Convention : Reuss Voigt Hill
#
# Bulk Modulus (GPa) = 62.99646 68.43504 65.71575
# Shear Modulus (GPa) = 37.04226 14.39824 25.72025
#
# Velocity S-wave (km/s) = 4.37235 2.72597 3.64337
# Velocity P-wave (km/s) = 7.61592 6.72510 7.18433
#
# Compressibility (1/GPa) = 0.01587391
#
# Stress axis : x y z
#
# Youngs Moduli (GPa) = 121.49493 75.96355 100.94931
#
# Poissons Ratio (x) = 0.17429 0.30945
# Poissons Ratio (y) = 0.27876 0.23761
# Poissons Ratio (z) = 0.37243 0.17880
#
# Static dielectric constant tensor:
#      x y z
#    x 1.680780 0.000000 0.000000 
#    y 0.000000 1.684590 0.000000 
#    z 0.000000 0.000000 1.666590 
# 
# From -- ./inp_files/51516.got.cif
#   From: 2010.05.17/outbox.cif.g08.bks.cpg/sg63_26_cif.got.tgz:51516.got - 2010.06.03 15:47:04.
