data_PCOD9474630
_publ_section_title
;
Structure prediction by ZEFSAII (Michael W. Deem and Ramdas Pophale) SiO2 
 PCOD9474630
Probable space group: C M C M
;
_chemical_formula_sum "Si O2"
_cell_formula_units_Z 112
_cell_length_a 15.325149
_cell_length_b 13.453618
_cell_length_c 22.876713
_cell_angle_alpha 90.000000
_cell_angle_beta 90.000000
_cell_angle_gamma 90.000000
_cell_volume 4716.690957
_symmetry_space_group_name_H-M "C M C M"
_symmetry_group_IT_number 63
_symmetry_cell_setting 'orthorhombic'
loop_
_space_group_symop_operation_xyz
x,y,z
-x,-y,1/2+z
x,-y,-z
-x,y,1/2-z
-x,-y,-z
x,y,1/2-z
-x,y,z
x,-y,1/2+z
1/2+x,1/2+y,z
1/2-x,1/2-y,1/2+z
1/2+x,1/2-y,-z
1/2-x,1/2+y,1/2-z
1/2-x,1/2-y,-z
1/2+x,1/2+y,1/2-z
1/2-x,1/2+y,z
1/2+x,1/2-y,1/2+z
loop_
_atom_site_type_symbol
_atom_site_label
_atom_site_fract_x
_atom_site_fract_y
_atom_site_fract_z
Si Si1 0.905051 0.779275 0.816895
Si Si2 0.103085 0.413850 0.686548
Si Si3 0.100939 0.795124 0.126372
Si Si4 0.284170 0.778530 0.082637
Si Si5 0.233304 0.940465 0.556303
Si Si6 0.152504 0.002782 0.817974
Si Si7 0.101388 0.463435 0.421557
O O1 0.900855 0.746660 0.750000
O O2 0.822568 0.739900 0.852209
O O3 0.000000 0.747752 0.841969
O O4 0.901465 0.899629 0.817550
O O5 0.144119 0.422729 0.750000
O O6 0.127588 0.308742 0.657628
O O7 0.110444 0.512294 0.647585
O O8 0.000000 0.401941 0.692468
O O9 0.182689 0.807385 0.082725
O O10 0.105983 0.892584 0.167641
O O11 0.000000 0.786319 0.105284
O O12 0.295559 0.672741 0.052648
O O13 0.347621 0.864666 0.061399
O O14 0.198787 0.000000 0.500000
O O15 0.208870 0.982046 0.621672
O O16 0.338696 0.947841 0.554216
O O17 0.184979 0.011484 0.750000
O O18 0.000000 0.465358 0.436537
#
# Coordination Sequence:
#
# PCOD9474630 Si02
#       7
#    16  16  16  16  16  16  16
#     4   9  19  36  59  90 130 174 221 278 345 417
#     4   9  19  35  57  91 136 180 224 281 346 411
#     4  11  21  37  63  98 139 184 236 295 353 420
#     4  11  23  41  64  99 134 180 229 294 346 425
#     4  11  25  46  72  99 139 186 236 294 360 423
#     4  10  21  40  66  99 135 180 231 288 353 425
#     4  11  23  43  68  98 134 180 234 290 351 424
#
# _framework density 23.745460999999999
#
# number of rings (size 3 to 8) (size 9 to 14) (size 15 to 20)
#    0.000    1.714    2.857    1.286    0.000    4.571 
#    0.000    1.429    0.000   14.571    0.000    0.000 
#    0.000    0.000    0.000    0.000    0.000    0.000 
#
# Total GULP energy -312149.504280 kJ/mol
# GULP energy per Si atom -5574.098291 kJ/mol
# Density = 2.369142 g / cm^3
# Si number density = 23.745461 Si / 1000 Ang^3
#
#
#
# Elastic Constant Matrix: (Units=GPa)
#
#
# Indices 1 2 3 4 5 6 
#
# 1 145.6961 40.6499 60.5881 0.0000 0.0000 0.0000
# 2 40.6499 135.0118 47.0625 0.0000 0.0000 0.0000
# 3 60.5881 47.0625 142.8673 0.0000 0.0000 0.0000
# 4 0.0000 0.0000 0.0000 17.3597 0.0000 0.0000
# 5 0.0000 0.0000 0.0000 0.0000 -28.0659 0.0000
# 6 0.0000 0.0000 0.0000 0.0000 0.0000 29.3812
#
#
#
# Elastic Compliance Matrix: (Units=1/GPa)
#
#
# Indices 1 2 3 4 5 6 
#
# 1 0.008590 -0.001487 -0.003153 0.000000 0.000000 0.000000
# 2 -0.001487 0.008625 -0.002211 0.000000 0.000000 0.000000
# 3 -0.003153 -0.002211 0.009065 0.000000 0.000000 0.000000
# 4 0.000000 0.000000 0.000000 0.057605 0.000000 0.000000
# 5 0.000000 0.000000 0.000000 0.000000 -0.035630 0.000000
# 6 0.000000 0.000000 0.000000 0.000000 0.000000 0.034035
#
#
# Mechanical properties :
#
#
# Convention : Reuss Voigt Hill
#
# Bulk Modulus (GPa) = 79.50163 80.01959 79.76061
# Shear Modulus (GPa) = 49.90862 22.08664 35.99763
#
# Velocity S-wave (km/s) = 4.58953 3.05313 3.89778
# Velocity P-wave (km/s) = 7.85102 6.79712 7.34300
#
# Compressibility (1/GPa) = 0.01257836
#
# Stress axis : x y z
#
# Youngs Moduli (GPa) = 116.41910 115.94107 110.31721
#
# Poissons Ratio (x) = 0.17243 0.34781
# Poissons Ratio (y) = 0.17314 0.24386
# Poissons Ratio (z) = 0.36705 0.25629
#
# Static dielectric constant tensor:
#      x y z
#    x 1.902370 0.000000 0.000000 
#    y 0.000000 1.925990 0.000000 
#    z 0.000000 0.000000 2.044160 
# 
# From -- ./inp_files/63016.got.cif
#   From: 2010.05.17/outbox.cif.g08.bks.cpg/sg63_32_cif.got.tgz:63016.got - 2010.06.03 15:47:04.
