data_PCOD9474530
_publ_section_title
;
Structure prediction by ZEFSAII (Michael W. Deem and Ramdas Pophale) SiO2 
 PCOD9474530
Probable space group: C M C M
;
_chemical_formula_sum "Si O2"
_cell_formula_units_Z 64
_cell_length_a 12.329041
_cell_length_b 19.915954
_cell_length_c 13.714720
_cell_angle_alpha 90.000000
_cell_angle_beta 90.000000
_cell_angle_gamma 90.000000
_cell_volume 3367.575621
_symmetry_space_group_name_H-M "C M C M"
_symmetry_group_IT_number 63
_symmetry_cell_setting 'orthorhombic'
loop_
_space_group_symop_operation_xyz
x,y,z
-x,-y,1/2+z
x,-y,-z
-x,y,1/2-z
-x,-y,-z
x,y,1/2-z
-x,y,z
x,-y,1/2+z
1/2+x,1/2+y,z
1/2-x,1/2-y,1/2+z
1/2+x,1/2-y,-z
1/2-x,1/2+y,1/2-z
1/2-x,1/2-y,-z
1/2+x,1/2+y,1/2-z
1/2-x,1/2+y,z
1/2+x,1/2-y,1/2+z
loop_
_atom_site_type_symbol
_atom_site_label
_atom_site_fract_x
_atom_site_fract_y
_atom_site_fract_z
Si Si1 0.000000 0.847403 0.865056
Si Si2 0.228922 0.938260 0.367200
Si Si3 0.875529 0.432396 0.867185
Si Si4 0.773646 0.173163 0.475923
Si Si5 0.000000 0.007515 0.637305
O O1 0.891367 0.828141 0.923671
O O2 0.000000 0.928031 0.864283
O O3 0.000000 0.825679 0.750000
O O4 0.231271 0.929765 0.250000
O O5 0.239757 0.869063 0.424135
O O6 0.314804 0.997275 0.390462
O O7 0.111603 0.964539 0.402229
O O8 0.875774 0.428246 0.750000
O O9 0.808544 0.368799 0.906859
O O10 0.000000 0.432375 0.901971
O O11 0.750000 0.250000 0.500000
O O12 0.000000 0.028740 0.750000
#
# Coordination Sequence:
#
# PCOD9474530 Si02
#       5
#     8  16  16  16   8
#     4  11  23  43  68  94 126 165 211 263 322 381
#     4  10  21  39  63  93 123 158 207 265 313 364
#     4  10  22  42  66  89 120 166 217 265 314 371
#     4  12  26  39  63  93 131 167 211 251 318 388
#     4   9  17  35  65  92 113 145 200 254 310 358
#
# _framework density 19.004770000000001
#
# number of rings (size 3 to 8) (size 9 to 14) (size 15 to 20)
#    0.000    1.500    2.500    2.250    1.750    5.000 
#    0.000    0.000    0.000    0.000    0.000    0.000 
#    0.000    0.000    0.000    0.000    0.000    0.000 
#
# Total GULP energy -178560.955329 kJ/mol
# GULP energy per Si atom -5580.029854 kJ/mol
# Density = 1.896151 g / cm^3
# Si number density = 19.004770 Si / 1000 Ang^3
#
#
#
# Elastic Constant Matrix: (Units=GPa)
#
#
# Indices 1 2 3 4 5 6 
#
# 1 176.8524 90.5782 47.7082 0.0000 0.0000 0.0000
# 2 90.5782 173.6103 58.0634 0.0000 0.0000 0.0000
# 3 47.7082 58.0634 113.7511 0.0000 0.0000 0.0000
# 4 0.0000 0.0000 0.0000 -11.9908 0.0000 0.0000
# 5 0.0000 0.0000 0.0000 0.0000 -17.2654 0.0000
# 6 0.0000 0.0000 0.0000 0.0000 0.0000 12.3361
#
#
#
# Elastic Compliance Matrix: (Units=1/GPa)
#
#
# Indices 1 2 3 4 5 6 
#
# 1 0.007913 -0.003640 -0.001461 0.000000 0.000000 0.000000
# 2 -0.003640 0.008620 -0.002873 0.000000 0.000000 0.000000
# 3 -0.001461 -0.002873 0.010871 0.000000 0.000000 0.000000
# 4 0.000000 0.000000 0.000000 -0.083397 0.000000 0.000000
# 5 0.000000 0.000000 0.000000 0.000000 -0.057919 0.000000
# 6 0.000000 0.000000 0.000000 0.000000 0.000000 0.081063
#
#
# Mechanical properties :
#
#
# Convention : Reuss Voigt Hill
#
# Bulk Modulus (GPa) = 87.29637 95.21261 91.25449
# Shear Modulus (GPa) = -382.14131 14.47358 -183.83386
#
# Velocity S-wave (km/s) = -14.19553 2.76266 -9.84583
# Velocity P-wave (km/s) = 14.92147 7.77075 9.00738
#
# Compressibility (1/GPa) = 0.01145523
#
# Stress axis : x y z
#
# Youngs Moduli (GPa) = 126.37989 116.00884 91.99188
#
# Poissons Ratio (x) = 0.42224 0.13438
# Poissons Ratio (y) = 0.45999 0.26434
# Poissons Ratio (z) = 0.18461 0.33335
#
# Static dielectric constant tensor:
#      x y z
#    x 1.683810 0.000000 0.000000 
#    y 0.000000 1.600560 0.000000 
#    z 0.000000 0.000000 1.710300 
# 
# From -- ./inp_files/29187.got.cif
#   From: 2010.05.17/outbox.cif.g08.bks.cpg/sg63_15_cif.got.tgz:29187.got - 2010.06.03 15:47:04.
