data_PCOD9474047
_publ_section_title
;
Structure prediction by ZEFSAII (Michael W. Deem and Ramdas Pophale) SiO2 
 PCOD9474047
Probable space group: C M C M
;
_chemical_formula_sum "Si O2"
_cell_formula_units_Z 116
_cell_length_a 31.937536
_cell_length_b 22.961030
_cell_length_c 7.733362
_cell_angle_alpha 90.000000
_cell_angle_beta 90.000000
_cell_angle_gamma 90.000000
_cell_volume 5671.019140
_symmetry_space_group_name_H-M "C M C M"
_symmetry_group_IT_number 63
_symmetry_cell_setting 'orthorhombic'
loop_
_space_group_symop_operation_xyz
x,y,z
-x,-y,1/2+z
x,-y,-z
-x,y,1/2-z
-x,-y,-z
x,y,1/2-z
-x,y,z
x,-y,1/2+z
1/2+x,1/2+y,z
1/2-x,1/2-y,1/2+z
1/2+x,1/2-y,-z
1/2-x,1/2+y,1/2-z
1/2-x,1/2-y,-z
1/2+x,1/2+y,1/2-z
1/2-x,1/2+y,z
1/2+x,1/2-y,1/2+z
loop_
_atom_site_type_symbol
_atom_site_label
_atom_site_fract_x
_atom_site_fract_y
_atom_site_fract_z
Si Si1 0.000000 0.594595 0.750000
Si Si2 0.187738 0.067471 0.957765
Si Si3 0.563622 0.866606 0.957361
Si Si4 0.132853 0.824435 0.462654
Si Si5 0.857376 0.439272 0.547933
Si Si6 0.546835 0.729936 0.540969
Si Si7 0.777331 0.611718 0.553875
Si Si8 0.797285 0.736047 0.052068
O O1 0.035785 0.599120 0.594992
O O2 0.189459 0.070855 0.750000
O O3 0.152442 0.113457 0.015404
O O4 0.233482 0.089476 0.022172
O O5 0.180666 0.000000 0.000000
O O6 0.554559 0.876596 0.750000
O O7 0.611134 0.886578 0.987469
O O8 0.556103 0.798166 0.992403
O O9 0.131136 0.824073 0.250000
O O10 0.086040 0.808299 0.521530
O O11 0.165660 0.774788 0.527245
O O12 0.879107 0.500000 0.500000
O O13 0.847810 0.438700 0.750000
O O14 0.813588 0.435783 0.449161
O O15 0.545632 0.724377 0.750000
O O16 0.500000 0.716067 0.475617
O O17 0.768623 0.630403 0.750000
O O18 0.799004 0.666968 0.465950
O O19 0.800154 0.751998 0.250000
O O20 0.750000 0.750000 0.000000
#
# Coordination Sequence:
#
# PCOD9474047 Si02
#       8
#     4  16  16  16  16  16  16  16
#     4  12  22  36  70  86 118 156 192 250 306 356
#     4  10  21  37  55  77 111 152 195 238 284 343
#     4  10  22  40  62  88 119 153 196 243 304 366
#     4   9  18  34  55  81 113 152 186 231 294 347
#     4  11  24  41  61  83 115 155 201 253 298 349
#     4   9  16  32  60  87 112 142 188 237 288 359
#     4  11  22  37  57  84 115 153 198 241 291 353
#     4  11  20  34  55  81 117 151 186 234 294 352
#
# _framework density 20.454875999999999
#
# number of rings (size 3 to 8) (size 9 to 14) (size 15 to 20)
#    0.000    1.793    2.069    2.690    1.931    4.414 
#    0.000    0.345    1.517    0.414    0.000    0.000 
#    0.000    0.000    0.000    0.000    0.000    0.000 
#
# Total GULP energy -323019.290952 kJ/mol
# GULP energy per Si atom -5569.298120 kJ/mol
# Density = 2.040832 g / cm^3
# Si number density = 20.454876 Si / 1000 Ang^3
#
#
#
# Elastic Constant Matrix: (Units=GPa)
#
#
# Indices 1 2 3 4 5 6 
#
# 1 173.8641 75.6616 15.7389 0.0000 0.0000 0.0000
# 2 75.6616 96.0982 -1.7147 0.0000 0.0000 0.0000
# 3 15.7389 -1.7147 43.8689 0.0000 0.0000 0.0000
# 4 0.0000 0.0000 0.0000 19.3807 0.0000 0.0000
# 5 0.0000 0.0000 0.0000 0.0000 19.8813 0.0000
# 6 0.0000 0.0000 0.0000 0.0000 0.0000 -34.5732
#
#
#
# Elastic Compliance Matrix: (Units=1/GPa)
#
#
# Indices 1 2 3 4 5 6 
#
# 1 0.009291 -0.007380 -0.003622 0.000000 0.000000 0.000000
# 2 -0.007380 0.016275 0.003284 0.000000 0.000000 0.000000
# 3 -0.003622 0.003284 0.024223 0.000000 0.000000 0.000000
# 4 0.000000 0.000000 0.000000 0.051598 0.000000 0.000000
# 5 0.000000 0.000000 0.000000 0.000000 0.050299 0.000000
# 6 0.000000 0.000000 0.000000 0.000000 0.000000 -0.028924
#
#
# Mechanical properties :
#
#
# Convention : Reuss Voigt Hill
#
# Bulk Modulus (GPa) = 29.10923 54.80031 41.95477
# Shear Modulus (GPa) = 33.41178 15.88076 24.64627
#
# Velocity S-wave (km/s) = 4.04597 2.78938 3.47495
# Velocity P-wave (km/s) = 6.00735 6.10108 6.05440
#
# Compressibility (1/GPa) = 0.03435337
#
# Stress axis : x y z
#
# Youngs Moduli (GPa) = 107.63135 61.44407 41.28320
#
# Poissons Ratio (x) = 0.45344 0.14952
# Poissons Ratio (y) = 0.79429 -0.13557
# Poissons Ratio (z) = 0.38982 -0.20177
#
# Static dielectric constant tensor:
#      x y z
#    x 1.755330 0.000000 0.000000 
#    y 0.000000 1.734950 0.000000 
#    z 0.000000 0.000000 1.774860 
# 
# From -- ./inp_files/14724.got.cif
#   From: 2010.05.17/outbox.cif.g08.bks.cpg/sg63_8_cif.got.tgz:14724.got - 2010.06.03 15:47:04.
