data_PCOD9474266
_publ_section_title
;
Structure prediction by ZEFSAII (Michael W. Deem and Ramdas Pophale) SiO2 
 PCOD9474266
Probable space group: C M C M
;
_chemical_formula_sum "Si O2"
_cell_formula_units_Z 84
_cell_length_a 7.497631
_cell_length_b 24.110870
_cell_length_c 20.813067
_cell_angle_alpha 90.000000
_cell_angle_beta 90.000000
_cell_angle_gamma 90.000000
_cell_volume 3762.469831
_symmetry_space_group_name_H-M "C M C M"
_symmetry_group_IT_number 63
_symmetry_cell_setting 'orthorhombic'
loop_
_space_group_symop_operation_xyz
x,y,z
-x,-y,1/2+z
x,-y,-z
-x,y,1/2-z
-x,-y,-z
x,y,1/2-z
-x,y,z
x,-y,1/2+z
1/2+x,1/2+y,z
1/2-x,1/2-y,1/2+z
1/2+x,1/2-y,-z
1/2-x,1/2+y,1/2-z
1/2-x,1/2-y,-z
1/2+x,1/2+y,1/2-z
1/2-x,1/2+y,z
1/2+x,1/2-y,1/2+z
loop_
_atom_site_type_symbol
_atom_site_label
_atom_site_fract_x
_atom_site_fract_y
_atom_site_fract_z
Si Si1 0.700541 0.580188 0.504124
Si Si2 0.216477 0.047112 0.368804
Si Si3 0.215300 0.832359 0.820750
Si Si4 0.796496 0.302613 0.542511
Si Si5 0.216999 0.075623 0.849632
Si Si6 0.000000 0.383389 0.250000
O O1 0.500000 0.558856 0.513194
O O2 0.781219 0.547863 0.443110
O O3 0.690780 0.643099 0.478457
O O4 0.772820 0.581724 0.575754
O O5 0.275098 0.104156 0.335303
O O6 0.000000 0.049826 0.371805
O O7 0.257454 0.989441 0.334499
O O8 0.276437 0.815118 0.750000
O O9 0.271323 0.795343 0.881192
O O10 0.000000 0.832681 0.820290
O O11 0.750000 0.250000 0.500000
O O12 0.000000 0.317377 0.530677
O O13 0.341382 0.112599 0.805510
O O14 0.000000 0.084477 0.843145
#
# Coordination Sequence:
#
# PCOD9474266 Si02
#       6
#    16  16  16  16  16   4
#     4   9  18  36  61  84 108 146 191 238 290 343
#     4   8  15  31  56  84 112 150 190 225 279 343
#     4   9  18  34  58  85 117 152 186 225 284 349
#     4  11  22  37  60  86 114 145 186 240 291 347
#     4  10  21  38  58  79 116 160 198 243 288 338
#     4  12  26  36  50  82 116 160 212 240 280 342
#
# _framework density 22.325761
#
# number of rings (size 3 to 8) (size 9 to 14) (size 15 to 20)
#    0.000    2.476    0.000    3.714    2.667    2.667 
#    6.857    0.952    2.095    0.000    0.000    0.000 
#    0.000    0.000    0.000    0.000    0.000    0.000 
#
# Total GULP energy -233851.942186 kJ/mol
# GULP energy per Si atom -5567.903385 kJ/mol
# Density = 2.227495 g / cm^3
# Si number density = 22.325761 Si / 1000 Ang^3
#
#
#
# Elastic Constant Matrix: (Units=GPa)
#
#
# Indices 1 2 3 4 5 6 
#
# 1 102.4100 -0.0103 15.4119 0.0000 0.0000 0.0000
# 2 -0.0103 27.6919 21.6470 0.0000 0.0000 0.0000
# 3 15.4119 21.6470 144.3965 0.0000 0.0000 0.0000
# 4 0.0000 0.0000 0.0000 9.1428 0.0000 0.0000
# 5 0.0000 0.0000 0.0000 0.0000 -42.2182 0.0000
# 6 0.0000 0.0000 0.0000 0.0000 0.0000 -3.8543
#
#
#
# Elastic Compliance Matrix: (Units=1/GPa)
#
#
# Indices 1 2 3 4 5 6 
#
# 1 0.009946 0.000944 -0.001203 0.000000 0.000000 0.000000
# 2 0.000944 0.040995 -0.006246 0.000000 0.000000 0.000000
# 3 -0.001203 -0.006246 0.007990 0.000000 0.000000 0.000000
# 4 0.000000 0.000000 0.000000 0.109375 0.000000 0.000000
# 5 0.000000 0.000000 0.000000 0.000000 -0.023686 0.000000
# 6 0.000000 0.000000 0.000000 0.000000 0.000000 -0.259452
#
#
# Mechanical properties :
#
#
# Convention : Reuss Voigt Hill
#
# Bulk Modulus (GPa) = 21.77694 38.73284 30.25489
# Shear Modulus (GPa) = -57.79382 8.44405 -24.67488
#
# Velocity S-wave (km/s) = -5.09341 1.94690 -3.32809
# Velocity P-wave (km/s) = 4.98147 4.73714 1.08962
#
# Compressibility (1/GPa) = 0.04592013
#
# Stress axis : x y z
#
# Youngs Moduli (GPa) = 100.54472 24.39330 125.15300
#
# Poissons Ratio (x) = -0.02303 0.15057
# Poissons Ratio (y) = -0.09493 0.78177
# Poissons Ratio (z) = 0.12096 0.15237
#
# Static dielectric constant tensor:
#      x y z
#    x 1.876370 0.000000 0.000000 
#    y 0.000000 2.088350 0.000000 
#    z 0.000000 0.000000 1.859150 
# 
# From -- ./inp_files/51226.got.cif
#   From: 2010.05.17/outbox.cif.g08.bks.cpg/sg63_26_cif.got.tgz:51226.got - 2010.06.03 15:47:04.
