data_PCOD9474068
_publ_section_title
;
Structure prediction by ZEFSAII (Michael W. Deem and Ramdas Pophale) SiO2 
 PCOD9474068
Probable space group: C M C M
;
_chemical_formula_sum "Si O2"
_cell_formula_units_Z 80
_cell_length_a 19.480360
_cell_length_b 24.624982
_cell_length_c 8.392321
_cell_angle_alpha 90.000000
_cell_angle_beta 90.000000
_cell_angle_gamma 90.000000
_cell_volume 4025.825877
_symmetry_space_group_name_H-M "C M C M"
_symmetry_group_IT_number 63
_symmetry_cell_setting 'orthorhombic'
loop_
_space_group_symop_operation_xyz
x,y,z
-x,-y,1/2+z
x,-y,-z
-x,y,1/2-z
-x,-y,-z
x,y,1/2-z
-x,y,z
x,-y,1/2+z
1/2+x,1/2+y,z
1/2-x,1/2-y,1/2+z
1/2+x,1/2-y,-z
1/2-x,1/2+y,1/2-z
1/2-x,1/2-y,-z
1/2+x,1/2+y,1/2-z
1/2-x,1/2+y,z
1/2+x,1/2-y,1/2+z
loop_
_atom_site_type_symbol
_atom_site_label
_atom_site_fract_x
_atom_site_fract_y
_atom_site_fract_z
Si Si1 0.679378 0.639247 0.931437
Si Si2 0.805530 0.562423 0.557574
Si Si3 0.672254 0.752584 0.437370
Si Si4 0.420415 0.853912 0.055354
Si Si5 0.919352 0.940526 0.931813
O O1 0.695186 0.655403 0.750000
O O2 0.745449 0.605022 0.993960
O O3 0.651283 0.691409 0.024099
O O4 0.618108 0.597584 0.945134
O O5 0.798432 0.500000 0.500000
O O6 0.801724 0.560736 0.750000
O O7 0.876848 0.592262 0.510998
O O8 0.674651 0.761007 0.250000
O O9 0.750000 0.750000 0.500000
O O10 0.623200 0.800799 0.500155
O O11 0.421556 0.852485 0.250000
O O12 0.500000 0.853635 0.002491
O O13 0.892603 0.935027 0.750000
O O14 0.000000 0.929813 0.927243
O O15 0.908291 0.000000 0.000000
#
# Coordination Sequence:
#
# PCOD9474068 Si02
#       5
#    16  16  16  16  16
#     4  11  22  37  58  86 118 152 197 245 294 351
#     4  10  21  37  57  85 116 151 195 239 288 347
#     4  11  21  37  61  87 115 152 194 238 293 352
#     4   9  19  38  61  84 115 154 193 236 290 352
#     4  10  21  37  56  81 115 156 199 242 293 350
#
# _framework density 19.871697999999999
#
# number of rings (size 3 to 8) (size 9 to 14) (size 15 to 20)
#    0.000    1.800    2.000    2.400    0.000    5.600 
#    0.000    2.000    0.000    4.200    0.000    0.000 
#    0.000    0.000    0.000    0.000    0.000    0.000 
#
# Total GULP energy -222912.402727 kJ/mol
# GULP energy per Si atom -5572.810068 kJ/mol
# Density = 1.982647 g / cm^3
# Si number density = 19.871698 Si / 1000 Ang^3
#
#
#
# Elastic Constant Matrix: (Units=GPa)
#
#
# Indices 1 2 3 4 5 6 
#
# 1 147.3417 28.1551 7.1999 0.0000 0.0000 0.0000
# 2 28.1551 105.5545 10.1673 0.0000 0.0000 0.0000
# 3 7.1999 10.1673 32.8354 0.0000 0.0000 0.0000
# 4 0.0000 0.0000 0.0000 33.4859 0.0000 0.0000
# 5 0.0000 0.0000 0.0000 0.0000 21.8630 0.0000
# 6 0.0000 0.0000 0.0000 0.0000 0.0000 7.0712
#
#
#
# Elastic Compliance Matrix: (Units=1/GPa)
#
#
# Indices 1 2 3 4 5 6 
#
# 1 0.007184 -0.001819 -0.001012 0.000000 0.000000 0.000000
# 2 -0.001819 0.010225 -0.002767 0.000000 0.000000 0.000000
# 3 -0.001012 -0.002767 0.031534 0.000000 0.000000 0.000000
# 4 0.000000 0.000000 0.000000 0.029863 0.000000 0.000000
# 5 0.000000 0.000000 0.000000 0.000000 0.045739 0.000000
# 6 0.000000 0.000000 0.000000 0.000000 0.000000 0.141418
#
#
# Mechanical properties :
#
#
# Convention : Reuss Voigt Hill
#
# Bulk Modulus (GPa) = 26.49242 41.86402 34.17822
# Shear Modulus (GPa) = 17.25670 28.49799 22.87735
#
# Velocity S-wave (km/s) = 2.95007 3.79106 3.39669
# Velocity P-wave (km/s) = 4.99645 6.34632 5.71140
#
# Compressibility (1/GPa) = 0.03774665
#
# Stress axis : x y z
#
# Youngs Moduli (GPa) = 139.19952 97.79510 31.71202
#
# Poissons Ratio (x) = 0.17786 0.03209
# Poissons Ratio (y) = 0.25316 0.08776
# Poissons Ratio (z) = 0.14088 0.27065
#
# Static dielectric constant tensor:
#      x y z
#    x 1.729860 0.000000 0.000000 
#    y 0.000000 2.116960 0.000000 
#    z 0.000000 0.000000 1.742380 
# 
# From -- ./inp_files/6364.got.cif
#   From: 2010.05.17/outbox.cif.g08.bks.cpg/sg63_4_cif.got.tgz:6364.got - 2010.06.03 15:47:04.
