data_PCOD9474183
_publ_section_title
;
Structure prediction by ZEFSAII (Michael W. Deem and Ramdas Pophale) SiO2 
 PCOD9474183
Probable space group: C M C M
;
_chemical_formula_sum "Si O2"
_cell_formula_units_Z 96
_cell_length_a 14.990215
_cell_length_b 21.135451
_cell_length_c 15.253323
_cell_angle_alpha 90.000000
_cell_angle_beta 90.000000
_cell_angle_gamma 90.000000
_cell_volume 4832.633367
_symmetry_space_group_name_H-M "C M C M"
_symmetry_group_IT_number 63
_symmetry_cell_setting 'orthorhombic'
loop_
_space_group_symop_operation_xyz
x,y,z
-x,-y,1/2+z
x,-y,-z
-x,y,1/2-z
-x,-y,-z
x,y,1/2-z
-x,y,z
x,-y,1/2+z
1/2+x,1/2+y,z
1/2-x,1/2-y,1/2+z
1/2+x,1/2-y,-z
1/2-x,1/2+y,1/2-z
1/2-x,1/2-y,-z
1/2+x,1/2+y,1/2-z
1/2-x,1/2+y,z
1/2+x,1/2-y,1/2+z
loop_
_atom_site_type_symbol
_atom_site_label
_atom_site_fract_x
_atom_site_fract_y
_atom_site_fract_z
Si Si1 0.672540 0.894940 0.847970
Si Si2 0.746243 0.027009 0.846383
Si Si3 0.101308 0.412972 0.034892
Si Si4 0.894872 0.706366 0.652771
Si Si5 0.702924 0.692552 0.054305
Si Si6 0.893555 0.928236 0.458647
O O1 0.633420 0.891949 0.750000
O O2 0.723503 0.832728 0.877935
O O3 0.746134 0.951072 0.846192
O O4 0.608515 0.908686 0.930233
O O5 0.713382 0.046706 0.750000
O O6 0.674505 0.042938 0.920881
O O7 0.839051 0.060183 0.868848
O O8 0.127714 0.346870 0.081129
O O9 0.000000 0.430102 0.059128
O O10 0.854577 0.697351 0.750000
O O11 0.871747 0.773478 0.612021
O O12 0.000000 0.700870 0.661694
O O13 0.750000 0.750000 0.000000
O O14 0.658887 0.631499 0.004258
O O15 0.000000 0.915396 0.453207
O O16 0.884086 0.000000 0.500000
#
# Coordination Sequence:
#
# PCOD9474183 Si02
#       6
#    16  16  16  16  16  16
#     4  11  23  39  62  90 124 166 216 265 322 390
#     4  11  22  40  64  92 129 168 214 269 325 389
#     4  11  22  40  65  92 126 167 214 268 326 387
#     4  10  21  37  59  90 123 157 207 262 312 373
#     4  12  21  39  65  93 126 172 212 263 323 385
#     4  11  22  40  67  96 134 178 222 272 332 394
#
# _framework density 19.864946
#
# number of rings (size 3 to 8) (size 9 to 14) (size 15 to 20)
#    0.000    1.000    5.000    2.000    0.000    3.000 
#    0.000    2.500    0.000    0.000    0.000    0.000 
#    0.000    0.000    0.000    0.000    0.000    0.000 
#
# Total GULP energy -267214.939241 kJ/mol
# GULP energy per Si atom -5566.977901 kJ/mol
# Density = 1.981973 g / cm^3
# Si number density = 19.864946 Si / 1000 Ang^3
#
#
#
# Elastic Constant Matrix: (Units=GPa)
#
#
# Indices 1 2 3 4 5 6 
#
# 1 67.2231 22.6328 37.3539 0.0000 0.0000 0.0000
# 2 22.6328 109.2274 42.9070 0.0000 0.0000 0.0000
# 3 37.3539 42.9070 152.3149 0.0000 0.0000 0.0000
# 4 0.0000 0.0000 0.0000 23.4810 0.0000 0.0000
# 5 0.0000 0.0000 0.0000 0.0000 16.2805 0.0000
# 6 0.0000 0.0000 0.0000 0.0000 0.0000 20.4401
#
#
#
# Elastic Compliance Matrix: (Units=1/GPa)
#
#
# Indices 1 2 3 4 5 6 
#
# 1 0.017683 -0.002204 -0.003716 0.000000 0.000000 0.000000
# 2 -0.002204 0.010569 -0.002437 0.000000 0.000000 0.000000
# 3 -0.003716 -0.002437 0.008163 0.000000 0.000000 0.000000
# 4 0.000000 0.000000 0.000000 0.042588 0.000000 0.000000
# 5 0.000000 0.000000 0.000000 0.000000 0.061423 0.000000
# 6 0.000000 0.000000 0.000000 0.000000 0.000000 0.048923
#
#
# Mechanical properties :
#
#
# Convention : Reuss Voigt Hill
#
# Bulk Modulus (GPa) = 50.75770 59.39475 55.07623
# Shear Modulus (GPa) = 23.51506 27.09842 25.30674
#
# Velocity S-wave (km/s) = 3.44429 3.69742 3.57310
# Velocity P-wave (km/s) = 6.43618 6.94205 6.69390
#
# Compressibility (1/GPa) = 0.01970144
#
# Stress axis : x y z
#
# Youngs Moduli (GPa) = 56.55260 94.61468 122.50452
#
# Poissons Ratio (x) = 0.20857 0.45517
# Poissons Ratio (y) = 0.12467 0.29851
# Poissons Ratio (z) = 0.21012 0.23055
#
# Static dielectric constant tensor:
#      x y z
#    x 1.687820 0.000000 0.000000 
#    y 0.000000 1.759510 0.000000 
#    z 0.000000 0.000000 1.805470 
# 
# From -- ./inp_files/31910.got.cif
#   From: 2010.05.17/outbox.cif.g08.bks.cpg/sg63_16_cif.got.tgz:31910.got - 2010.06.03 15:47:04.
