data_PCOD9474227
_publ_section_title
;
Structure prediction by ZEFSAII (Michael W. Deem and Ramdas Pophale) SiO2 
 PCOD9474227
Probable space group: C M C M
;
_chemical_formula_sum "Si O2"
_cell_formula_units_Z 80
_cell_length_a 26.627326
_cell_length_b 10.235307
_cell_length_c 15.093162
_cell_angle_alpha 90.000000
_cell_angle_beta 90.000000
_cell_angle_gamma 90.000000
_cell_volume 4113.473108
_symmetry_space_group_name_H-M "C M C M"
_symmetry_group_IT_number 63
_symmetry_cell_setting 'orthorhombic'
loop_
_space_group_symop_operation_xyz
x,y,z
-x,-y,1/2+z
x,-y,-z
-x,y,1/2-z
-x,-y,-z
x,y,1/2-z
-x,y,z
x,-y,1/2+z
1/2+x,1/2+y,z
1/2-x,1/2-y,1/2+z
1/2+x,1/2-y,-z
1/2-x,1/2+y,1/2-z
1/2-x,1/2-y,-z
1/2+x,1/2+y,1/2-z
1/2-x,1/2+y,z
1/2+x,1/2-y,1/2+z
loop_
_atom_site_type_symbol
_atom_site_label
_atom_site_fract_x
_atom_site_fract_y
_atom_site_fract_z
Si Si1 0.109062 0.648292 0.036309
Si Si2 0.000000 0.650006 0.027831
Si Si3 0.898667 0.901736 0.579977
Si Si4 0.500000 0.318581 0.652702
Si Si5 0.292333 0.210819 0.357457
Si Si6 0.790707 0.994300 0.855886
O O1 0.153815 0.671250 0.104174
O O2 0.111340 0.500000 0.000000
O O3 0.112772 0.756946 0.958683
O O4 0.053017 0.674015 0.074997
O O5 0.000000 0.727700 0.934611
O O6 0.000000 0.500000 0.000000
O O7 0.947628 0.895873 0.641991
O O8 0.911284 0.000000 0.500000
O O9 0.847335 0.953855 0.621681
O O10 0.500000 0.254230 0.750000
O O11 0.293785 0.209440 0.250000
O O12 0.280916 0.358560 0.387627
O O13 0.249789 0.110179 0.388837
O O14 0.785879 0.996046 0.750000
#
# Coordination Sequence:
#
# PCOD9474227 Si02
#       6
#    16   8  16   8  16  16
#     4  10  21  38  60  86 115 154 195 241 292 350
#     4   8  18  39  60  83 122 152 190 245 289 339
#     4  11  21  38  60  88 119 154 194 246 299 348
#     4  10  21  37  62  91 119 156 198 242 297 363
#     4  10  22  40  58  82 118 155 195 243 296 350
#     4  10  22  39  58  83 117 155 197 244 293 352
#
# _framework density 19.448286
#
# number of rings (size 3 to 8) (size 9 to 14) (size 15 to 20)
#    0.000    2.000    2.000    0.900    2.800    1.600 
#    0.000    9.500    0.000    0.000    0.000    0.000 
#    0.000    0.000    0.000    0.000    0.000    0.000 
#
# Total GULP energy -223076.099419 kJ/mol
# GULP energy per Si atom -5576.902485 kJ/mol
# Density = 1.940402 g / cm^3
# Si number density = 19.448286 Si / 1000 Ang^3
#
#
#
# Elastic Constant Matrix: (Units=GPa)
#
#
# Indices 1 2 3 4 5 6 
#
# 1 174.0271 63.4406 36.0236 0.0000 0.0000 0.0000
# 2 63.4406 144.1015 25.9928 0.0000 0.0000 0.0000
# 3 36.0236 25.9928 37.0548 0.0000 0.0000 0.0000
# 4 0.0000 0.0000 0.0000 13.4082 0.0000 0.0000
# 5 0.0000 0.0000 0.0000 0.0000 397.9529 0.0000
# 6 0.0000 0.0000 0.0000 0.0000 0.0000 27.6493
#
#
#
# Elastic Compliance Matrix: (Units=1/GPa)
#
#
# Indices 1 2 3 4 5 6 
#
# 1 0.007847 -0.002380 -0.005960 0.000000 0.000000 0.000000
# 2 -0.002380 0.008667 -0.003766 0.000000 0.000000 0.000000
# 3 -0.005960 -0.003766 0.035422 0.000000 0.000000 0.000000
# 4 0.000000 0.000000 0.000000 0.074581 0.000000 0.000000
# 5 0.000000 0.000000 0.000000 0.000000 0.002513 0.000000
# 6 0.000000 0.000000 0.000000 0.000000 0.000000 0.036167
#
#
# Mechanical properties :
#
#
# Convention : Reuss Voigt Hill
#
# Bulk Modulus (GPa) = 36.06728 67.34415 51.70572
# Shear Modulus (GPa) = 25.16989 103.11717 64.14353
#
# Velocity S-wave (km/s) = 3.60140 7.28947 5.74919
# Velocity P-wave (km/s) = 5.98990 10.27380 8.40921
#
# Compressibility (1/GPa) = 0.02772596
#
# Stress axis : x y z
#
# Youngs Moduli (GPa) = 127.43015 115.38646 28.23070
#
# Poissons Ratio (x) = 0.27460 0.16825
# Poissons Ratio (y) = 0.30326 0.10631
# Poissons Ratio (z) = 0.75944 0.43451
#
# Static dielectric constant tensor:
#      x y z
#    x 1.694590 0.000000 0.000000 
#    y 0.000000 1.714570 0.000000 
#    z 0.000000 0.000000 1.677020 
# 
# From -- ./inp_files/47922.got.cif
#   From: 2010.05.17/outbox.cif.g08.bks.cpg/sg63_24_cif.got.tgz:47922.got - 2010.06.03 15:47:04.
