data_PCOD9474805
_publ_section_title
;
Structure prediction by ZEFSAII (Michael W. Deem and Ramdas Pophale) SiO2 
 PCOD9474805
Probable space group: C M C M
;
_chemical_formula_sum "Si O2"
_cell_formula_units_Z 120
_cell_length_a 16.820446
_cell_length_b 20.354579
_cell_length_c 16.949014
_cell_angle_alpha 90.000000
_cell_angle_beta 90.000000
_cell_angle_gamma 90.000000
_cell_volume 5802.886413
_symmetry_space_group_name_H-M "C M C M"
_symmetry_group_IT_number 63
_symmetry_cell_setting 'orthorhombic'
loop_
_space_group_symop_operation_xyz
x,y,z
-x,-y,1/2+z
x,-y,-z
-x,y,1/2-z
-x,-y,-z
x,y,1/2-z
-x,y,z
x,-y,1/2+z
1/2+x,1/2+y,z
1/2-x,1/2-y,1/2+z
1/2+x,1/2-y,-z
1/2-x,1/2+y,1/2-z
1/2-x,1/2-y,-z
1/2+x,1/2+y,1/2-z
1/2-x,1/2+y,z
1/2+x,1/2-y,1/2+z
loop_
_atom_site_type_symbol
_atom_site_label
_atom_site_fract_x
_atom_site_fract_y
_atom_site_fract_z
Si Si1 0.000000 0.532063 0.091778
Si Si2 0.836117 0.385764 0.580604
Si Si3 0.735081 0.496527 0.659827
Si Si4 0.613721 0.919987 0.340749
Si Si5 0.326979 0.196757 0.921268
Si Si6 0.410117 0.550638 0.571417
Si Si7 0.409145 0.308609 0.483134
Si Si8 0.168009 0.250444 0.840792
O O1 0.926577 0.585460 0.081846
O O2 0.933025 0.472429 0.106127
O O3 0.773590 0.442566 0.602196
O O4 0.817317 0.350606 0.497522
O O5 0.827041 0.328599 0.645740
O O6 0.737417 0.472063 0.750000
O O7 0.794465 0.558506 0.655634
O O8 0.648978 0.520848 0.635088
O O9 0.587957 0.929280 0.250000
O O10 0.611694 0.844940 0.367981
O O11 0.247171 0.215182 0.874773
O O12 0.360516 0.264810 0.955679
O O13 0.413941 0.500000 0.500000
O O14 0.500000 0.562157 0.601399
O O15 0.379221 0.618452 0.534181
O O16 0.500000 0.312661 0.509487
O O17 0.401636 0.272690 0.398882
O O18 0.156361 0.233966 0.750000
#
# Coordination Sequence:
#
# PCOD9474805 Si02
#       8
#     8  16  16  16  16  16  16  16
#     4  10  23  41  64  98 141 175 230 274 335 399
#     4  10  23  40  65  97 134 178 222 275 335 391
#     4  10  22  38  62  93 126 167 215 267 326 394
#     4  10  22  39  61  94 134 179 220 267 323 391
#     4  11  24  39  65  93 128 179 220 271 314 397
#     4  10  23  40  65  90 117 158 206 269 335 389
#     4  10  23  42  62  93 125 158 210 269 327 385
#     4  11  24  41  64  95 131 175 222 270 333 399
#
# _framework density 20.679364
#
# number of rings (size 3 to 8) (size 9 to 14) (size 15 to 20)
#    0.000    1.733    0.000    3.400   10.267    5.867 
#    0.000    1.333    0.000    0.000    0.000    0.000 
#    0.000    0.000    0.000    0.000    0.000    0.000 
#
# Total GULP energy -334007.483484 kJ/mol
# GULP energy per Si atom -5566.791391 kJ/mol
# Density = 2.063230 g / cm^3
# Si number density = 20.679364 Si / 1000 Ang^3
#
#
#
# Elastic Constant Matrix: (Units=GPa)
#
#
# Indices 1 2 3 4 5 6 
#
# 1 94.6263 20.2886 2.9626 0.0000 0.0000 0.0000
# 2 20.2886 111.0482 6.0636 0.0000 0.0000 0.0000
# 3 2.9626 6.0636 26.2868 0.0000 0.0000 0.0000
# 4 0.0000 0.0000 0.0000 12.1618 0.0000 0.0000
# 5 0.0000 0.0000 0.0000 0.0000 12.0385 0.0000
# 6 0.0000 0.0000 0.0000 0.0000 0.0000 24.4976
#
#
#
# Elastic Compliance Matrix: (Units=1/GPa)
#
#
# Indices 1 2 3 4 5 6 
#
# 1 0.011015 -0.001969 -0.000787 0.000000 0.000000 0.000000
# 2 -0.001969 0.009472 -0.001963 0.000000 0.000000 0.000000
# 3 -0.000787 -0.001963 0.038583 0.000000 0.000000 0.000000
# 4 0.000000 0.000000 0.000000 0.082225 0.000000 0.000000
# 5 0.000000 0.000000 0.000000 0.000000 0.083067 0.000000
# 6 0.000000 0.000000 0.000000 0.000000 0.000000 0.040820
#
#
# Mechanical properties :
#
#
# Convention : Reuss Voigt Hill
#
# Bulk Modulus (GPa) = 20.14858 32.28788 26.21823
# Shear Modulus (GPa) = 17.17239 23.24934 20.21087
#
# Velocity S-wave (km/s) = 2.88481 3.35666 3.12964
# Velocity P-wave (km/s) = 4.56735 5.53808 5.07598
#
# Compressibility (1/GPa) = 0.04963128
#
# Stress axis : x y z
#
# Youngs Moduli (GPa) = 90.78696 105.57323 25.91787
#
# Poissons Ratio (x) = 0.20792 0.02040
# Poissons Ratio (y) = 0.17880 0.05088
# Poissons Ratio (z) = 0.07146 0.20724
#
# Static dielectric constant tensor:
#      x y z
#    x 1.761620 0.000000 0.000000 
#    y 0.000000 1.764240 0.000000 
#    z 0.000000 0.000000 1.769300 
# 
# From -- ./inp_files/46163.got.cif
#   From: 2010.05.17/outbox.cif.g08.bks.cpg/sg63_24_cif.got.tgz:46163.got - 2010.06.03 15:47:04.
