data_PCOD9474324
_publ_section_title
;
Structure prediction by ZEFSAII (Michael W. Deem and Ramdas Pophale) SiO2 
 PCOD9474324
Probable space group: C M C M
;
_chemical_formula_sum "Si O2"
_cell_formula_units_Z 96
_cell_length_a 19.844223
_cell_length_b 27.662772
_cell_length_c 8.816490
_cell_angle_alpha 90.000000
_cell_angle_beta 90.000000
_cell_angle_gamma 90.000000
_cell_volume 4839.778827
_symmetry_space_group_name_H-M "C M C M"
_symmetry_group_IT_number 63
_symmetry_cell_setting 'orthorhombic'
loop_
_space_group_symop_operation_xyz
x,y,z
-x,-y,1/2+z
x,-y,-z
-x,y,1/2-z
-x,-y,-z
x,y,1/2-z
-x,y,z
x,-y,1/2+z
1/2+x,1/2+y,z
1/2-x,1/2-y,1/2+z
1/2+x,1/2-y,-z
1/2-x,1/2+y,1/2-z
1/2-x,1/2-y,-z
1/2+x,1/2+y,1/2-z
1/2-x,1/2+y,z
1/2+x,1/2-y,1/2+z
loop_
_atom_site_type_symbol
_atom_site_label
_atom_site_fract_x
_atom_site_fract_y
_atom_site_fract_z
Si Si1 0.922926 0.053512 0.431344
Si Si2 0.706070 0.706854 0.429977
Si Si3 0.080381 0.354754 0.427314
Si Si4 0.579228 0.248297 0.070499
Si Si5 0.337253 0.948832 0.431870
Si Si6 0.203784 0.104336 0.568582
O O1 0.915242 0.051378 0.250000
O O2 0.867611 0.088581 0.501542
O O3 0.000000 0.068308 0.465953
O O4 0.913165 0.000000 0.500000
O O5 0.713528 0.706055 0.250000
O O6 0.750000 0.750000 0.500000
O O7 0.628958 0.717596 0.477623
O O8 0.725854 0.655666 0.501428
O O9 0.098931 0.345826 0.250000
O O10 0.095661 0.306888 0.523004
O O11 0.117753 0.403046 0.480096
O O12 0.000000 0.362311 0.433283
O O13 0.590017 0.254865 0.250000
O O14 0.500000 0.256205 0.037242
O O15 0.342297 0.951758 0.250000
O O16 0.260338 0.935304 0.471705
O O17 0.357392 0.000000 0.500000
O O18 0.200223 0.107848 0.750000
#
# Coordination Sequence:
#
# PCOD9474324 Si02
#       6
#    16  16  16  16  16  16
#     4  10  21  38  60  86 116 151 192 238 290 348
#     4  12  25  41  62  87 117 153 194 240 292 348
#     4   9  18  35  58  83 114 152 191 232 281 335
#     4  10  21  38  61  89 119 152 192 237 286 342
#     4  10  22  37  55  81 112 147 187 232 281 334
#     4  11  23  39  59  84 115 150 191 239 290 345
#
# _framework density 19.835616000000002
#
# number of rings (size 3 to 8) (size 9 to 14) (size 15 to 20)
#    0.000    1.667    0.000    4.500    0.000    7.667 
#    0.000    0.000    0.000    0.000    0.000    0.000 
#    0.000    0.000    0.000    0.000    0.000    0.000 
#
# Total GULP energy -268396.306748 kJ/mol
# GULP energy per Si atom -5591.589724 kJ/mol
# Density = 1.979047 g / cm^3
# Si number density = 19.835616 Si / 1000 Ang^3
#
#
#
# Elastic Constant Matrix: (Units=GPa)
#
#
# Indices 1 2 3 4 5 6 
#
# 1 29.9859 -3.0862 14.6760 0.0000 0.0000 0.0000
# 2 -3.0862 40.4145 2.3617 0.0000 0.0000 0.0000
# 3 14.6760 2.3617 53.7308 0.0000 0.0000 0.0000
# 4 0.0000 0.0000 0.0000 38.8017 0.0000 0.0000
# 5 0.0000 0.0000 0.0000 0.0000 27.8575 0.0000
# 6 0.0000 0.0000 0.0000 0.0000 0.0000 38.3234
#
#
#
# Elastic Compliance Matrix: (Units=1/GPa)
#
#
# Indices 1 2 3 4 5 6 
#
# 1 0.039014 0.003611 -0.010815 0.000000 0.000000 0.000000
# 2 0.003611 0.025142 -0.002091 0.000000 0.000000 0.000000
# 3 -0.010815 -0.002091 0.021657 0.000000 0.000000 0.000000
# 4 0.000000 0.000000 0.000000 0.025772 0.000000 0.000000
# 5 0.000000 0.000000 0.000000 0.000000 0.035897 0.000000
# 6 0.000000 0.000000 0.000000 0.000000 0.000000 0.026094
#
#
# Mechanical properties :
#
#
# Convention : Reuss Voigt Hill
#
# Bulk Modulus (GPa) = 14.87600 16.89267 15.88434
# Shear Modulus (GPa) = 23.30210 28.34185 25.82198
#
# Velocity S-wave (km/s) = 3.43120 3.78410 3.61196
# Velocity P-wave (km/s) = 4.81803 5.25617 5.04186
#
# Compressibility (1/GPa) = 0.06722238
#
# Stress axis : x y z
#
# Youngs Moduli (GPa) = 25.63197 39.77474 46.17401
#
# Poissons Ratio (x) = -0.14364 0.49937
# Poissons Ratio (y) = -0.09256 0.09657
# Poissons Ratio (z) = 0.27721 0.08319
#
# Static dielectric constant tensor:
#      x y z
#    x 1.717220 0.000000 0.000000 
#    y 0.000000 1.668960 0.000000 
#    z 0.000000 0.000000 1.662180 
# 
# From -- ./inp_files/8625.got.cif
#   From: 2010.05.17/outbox.cif.g08.bks.cpg/sg63_5_cif.got.tgz:8625.got - 2010.06.03 15:47:04.
