data_PCOD9474894
_publ_section_title
;
Structure prediction by ZEFSAII (Michael W. Deem and Ramdas Pophale) SiO2 
 PCOD9474894
Probable space group: C M C M
;
_chemical_formula_sum "Si O2"
_cell_formula_units_Z 96
_cell_length_a 24.150765
_cell_length_b 9.749580
_cell_length_c 20.915425
_cell_angle_alpha 90.000000
_cell_angle_beta 90.000000
_cell_angle_gamma 90.000000
_cell_volume 4924.742110
_symmetry_space_group_name_H-M "C M C M"
_symmetry_group_IT_number 63
_symmetry_cell_setting 'orthorhombic'
loop_
_space_group_symop_operation_xyz
x,y,z
-x,-y,1/2+z
x,-y,-z
-x,y,1/2-z
-x,-y,-z
x,y,1/2-z
-x,y,z
x,-y,1/2+z
1/2+x,1/2+y,z
1/2-x,1/2-y,1/2+z
1/2+x,1/2-y,-z
1/2-x,1/2+y,1/2-z
1/2-x,1/2-y,-z
1/2+x,1/2+y,1/2-z
1/2-x,1/2+y,z
1/2+x,1/2-y,1/2+z
loop_
_atom_site_type_symbol
_atom_site_label
_atom_site_fract_x
_atom_site_fract_y
_atom_site_fract_z
Si Si1 0.934210 0.793022 0.545173
Si Si2 0.763360 0.124177 0.954678
Si Si3 0.270481 0.132574 0.250000
Si Si4 0.320540 0.847833 0.250000
Si Si5 0.144998 0.424141 0.110457
Si Si6 0.935077 0.911360 0.097902
Si Si7 0.848532 0.269323 0.635690
O O1 0.895597 0.669706 0.568576
O O2 0.927008 0.834463 0.470767
O O3 0.000000 0.765010 0.554333
O O4 0.919414 0.930322 0.585496
O O5 0.707885 0.088526 0.915555
O O6 0.812247 0.174163 0.910219
O O7 0.750000 0.250000 0.000000
O O8 0.779959 0.000000 0.000000
O O9 0.210752 0.202765 0.250000
O O10 0.306187 0.184650 0.309760
O O11 0.273250 0.967773 0.250000
O O12 0.354085 0.873599 0.315518
O O13 0.131043 0.585410 0.107287
O O14 0.900415 0.827610 0.149963
O O15 0.000000 0.908876 0.111843
#
# Coordination Sequence:
#
# PCOD9474894 Si02
#       7
#    16  16   8   8  16  16  16
#     4   9  20  38  61  87 117 150 190 239 291 345
#     4  12  24  35  54  87 118 147 186 237 288 348
#     4  10  22  40  57  82 115 157 198 238 284 339
#     4  10  22  40  59  80 115 157 200 240 278 341
#     4  11  23  39  58  85 117 154 196 237 289 344
#     4   9  20  38  60  87 116 151 190 237 292 346
#     4  11  23  38  59  84 117 154 195 238 288 345
#
# _framework density 19.493406
#
# number of rings (size 3 to 8) (size 9 to 14) (size 15 to 20)
#    0.000    1.667    3.333    2.000    4.667    2.000 
#    0.000    2.500    0.000    5.000    0.000    0.000 
#    0.000    0.000    0.000    0.000    0.000    0.000 
#
# Total GULP energy -268018.136400 kJ/mol
# GULP energy per Si atom -5583.711175 kJ/mol
# Density = 1.944904 g / cm^3
# Si number density = 19.493406 Si / 1000 Ang^3
#
#
#
# Elastic Constant Matrix: (Units=GPa)
#
#
# Indices 1 2 3 4 5 6 
#
# 1 55.7808 26.3980 -2.7046 0.0000 0.0000 0.0000
# 2 26.3980 92.5075 7.5299 0.0000 0.0000 0.0000
# 3 -2.7046 7.5299 37.1179 0.0000 0.0000 0.0000
# 4 0.0000 0.0000 0.0000 16.9133 0.0000 0.0000
# 5 0.0000 0.0000 0.0000 0.0000 91.9791 0.0000
# 6 0.0000 0.0000 0.0000 0.0000 0.0000 32.4644
#
#
#
# Elastic Compliance Matrix: (Units=1/GPa)
#
#
# Indices 1 2 3 4 5 6 
#
# 1 0.021007 -0.006222 0.002793 0.000000 0.000000 0.000000
# 2 -0.006222 0.012834 -0.003057 0.000000 0.000000 0.000000
# 3 0.002793 -0.003057 0.027765 0.000000 0.000000 0.000000
# 4 0.000000 0.000000 0.000000 0.059125 0.000000 0.000000
# 5 0.000000 0.000000 0.000000 0.000000 0.010872 0.000000
# 6 0.000000 0.000000 0.000000 0.000000 0.000000 0.030803
#
#
# Mechanical properties :
#
#
# Convention : Reuss Voigt Hill
#
# Bulk Modulus (GPa) = 20.56163 27.53921 24.05042
# Shear Modulus (GPa) = 26.09737 38.55020 32.32378
#
# Velocity S-wave (km/s) = 3.66290 4.45185 4.07651
# Velocity P-wave (km/s) = 5.33479 6.37051 5.87552
#
# Compressibility (1/GPa) = 0.04863427
#
# Stress axis : x y z
#
# Youngs Moduli (GPa) = 47.60258 77.91636 36.01674
#
# Poissons Ratio (x) = 0.48479 -0.10059
# Poissons Ratio (y) = 0.29618 0.11010
# Poissons Ratio (z) = -0.13295 0.23819
#
# Static dielectric constant tensor:
#      x y z
#    x 1.365420 0.000000 0.000000 
#    y 0.000000 1.663800 0.000000 
#    z 0.000000 0.000000 1.687820 
# 
# From -- ./inp_files/65020.got.cif
#   From: 2010.05.17/outbox.cif.g08.bks.cpg/sg63_33_cif.got.tgz:65020.got - 2010.06.03 15:47:04.
