data_PCOD9474836
_publ_section_title
;
Structure prediction by ZEFSAII (Michael W. Deem and Ramdas Pophale) SiO2 
 PCOD9474836
Probable space group: C M C M
;
_chemical_formula_sum "Si O2"
_cell_formula_units_Z 80
_cell_length_a 26.151515
_cell_length_b 7.453673
_cell_length_c 18.290095
_cell_angle_alpha 90.000000
_cell_angle_beta 90.000000
_cell_angle_gamma 90.000000
_cell_volume 3565.193865
_symmetry_space_group_name_H-M "C M C M"
_symmetry_group_IT_number 63
_symmetry_cell_setting 'orthorhombic'
loop_
_space_group_symop_operation_xyz
x,y,z
-x,-y,1/2+z
x,-y,-z
-x,y,1/2-z
-x,-y,-z
x,y,1/2-z
-x,y,z
x,-y,1/2+z
1/2+x,1/2+y,z
1/2-x,1/2-y,1/2+z
1/2+x,1/2-y,-z
1/2-x,1/2+y,1/2-z
1/2-x,1/2-y,-z
1/2+x,1/2+y,1/2-z
1/2-x,1/2+y,z
1/2+x,1/2-y,1/2+z
loop_
_atom_site_type_symbol
_atom_site_label
_atom_site_fract_x
_atom_site_fract_y
_atom_site_fract_z
Si Si1 0.683366 0.097335 0.667814
Si Si2 0.397840 0.619740 0.332774
Si Si3 0.775379 0.878115 0.440836
Si Si4 0.875710 0.727226 0.380368
Si Si5 0.442532 0.286807 0.516582
O O1 0.703692 0.078625 0.750000
O O2 0.659651 0.297409 0.658946
O O3 0.728119 0.061106 0.609512
O O4 0.635268 0.961135 0.658827
O O5 0.414090 0.662705 0.250000
O O6 0.400665 0.403096 0.342838
O O7 0.427986 0.715734 0.398276
O O8 0.750000 0.750000 0.500000
O O9 0.817967 0.793051 0.391726
O O10 0.805103 0.000000 0.500000
O O11 0.903762 0.700032 0.458272
O O12 0.441291 0.500000 0.500000
O O13 0.500000 0.220886 0.504135
#
# Coordination Sequence:
#
# PCOD9474836 Si02
#       5
#    16  16  16  16  16
#     4  11  25  40  59  90 127 163 206 253 303 368
#     4  10  22  39  59  88 126 164 203 253 313 370
#     4  12  22  38  58  85 119 165 206 249 300 365
#     4  11  22  41  63  87 125 163 206 256 310 363
#     4   9  19  38  66  94 119 157 210 260 306 371
#
# _framework density 22.439174000000001
#
# number of rings (size 3 to 8) (size 9 to 14) (size 15 to 20)
#    0.000    1.400    2.000    4.800    0.000    2.000 
#    0.000    2.000    0.000    3.000    0.000    0.000 
#    0.000    0.000    0.000    0.000    0.000    0.000 
#
# Total GULP energy -223001.809892 kJ/mol
# GULP energy per Si atom -5575.045247 kJ/mol
# Density = 2.238810 g / cm^3
# Si number density = 22.439174 Si / 1000 Ang^3
#
#
#
# Elastic Constant Matrix: (Units=GPa)
#
#
# Indices 1 2 3 4 5 6 
#
# 1 61.2485 8.4734 28.6622 0.0000 0.0000 0.0000
# 2 8.4734 61.8364 28.5381 0.0000 0.0000 0.0000
# 3 28.6622 28.5381 151.8684 0.0000 0.0000 0.0000
# 4 0.0000 0.0000 0.0000 22.7110 0.0000 0.0000
# 5 0.0000 0.0000 0.0000 0.0000 11.7007 0.0000
# 6 0.0000 0.0000 0.0000 0.0000 0.0000 4.4173
#
#
#
# Elastic Compliance Matrix: (Units=1/GPa)
#
#
# Indices 1 2 3 4 5 6 
#
# 1 0.017963 -0.000982 -0.003206 0.000000 0.000000 0.000000
# 2 -0.000982 0.017761 -0.003152 0.000000 0.000000 0.000000
# 3 -0.003206 -0.003152 0.007782 0.000000 0.000000 0.000000
# 4 0.000000 0.000000 0.000000 0.044032 0.000000 0.000000
# 5 0.000000 0.000000 0.000000 0.000000 0.085465 0.000000
# 6 0.000000 0.000000 0.000000 0.000000 0.000000 0.226380
#
#
# Mechanical properties :
#
#
# Convention : Reuss Voigt Hill
#
# Bulk Modulus (GPa) = 34.69058 45.14451 39.91755
# Shear Modulus (GPa) = 11.80160 21.71777 16.75969
#
# Velocity S-wave (km/s) = 2.29582 3.11441 2.73590
# Velocity P-wave (km/s) = 4.74564 5.75282 5.27333
#
# Compressibility (1/GPa) = 0.02882627
#
# Stress axis : x y z
#
# Youngs Moduli (GPa) = 55.67029 56.30301 128.50195
#
# Poissons Ratio (x) = 0.05529 0.41193
# Poissons Ratio (y) = 0.05467 0.40506
# Poissons Ratio (z) = 0.17846 0.17748
#
# Static dielectric constant tensor:
#      x y z
#    x 1.784810 0.000000 0.000000 
#    y 0.000000 1.691200 0.000000 
#    z 0.000000 0.000000 1.715320 
# 
# From -- ./inp_files/48750.got.cif
#   From: 2010.05.17/outbox.cif.g08.bks.cpg/sg63_25_cif.got.tgz:48750.got - 2010.06.03 15:47:04.
