data_PCOD9474590
_publ_section_title
;
Structure prediction by ZEFSAII (Michael W. Deem and Ramdas Pophale) SiO2 
 PCOD9474590
Probable space group: C M C M
;
_chemical_formula_sum "Si O2"
_cell_formula_units_Z 72
_cell_length_a 16.463629
_cell_length_b 15.700462
_cell_length_c 12.782275
_cell_angle_alpha 90.000000
_cell_angle_beta 90.000000
_cell_angle_gamma 90.000000
_cell_volume 3304.046568
_symmetry_space_group_name_H-M "C M C M"
_symmetry_group_IT_number 63
_symmetry_cell_setting 'orthorhombic'
loop_
_space_group_symop_operation_xyz
x,y,z
-x,-y,1/2+z
x,-y,-z
-x,y,1/2-z
-x,-y,-z
x,y,1/2-z
-x,y,z
x,-y,1/2+z
1/2+x,1/2+y,z
1/2-x,1/2-y,1/2+z
1/2+x,1/2-y,-z
1/2-x,1/2+y,1/2-z
1/2-x,1/2-y,-z
1/2+x,1/2+y,1/2-z
1/2-x,1/2+y,z
1/2+x,1/2-y,1/2+z
loop_
_atom_site_type_symbol
_atom_site_label
_atom_site_fract_x
_atom_site_fract_y
_atom_site_fract_z
Si Si1 0.911543 0.597215 0.460496
Si Si2 0.675980 0.189427 0.624981
Si Si3 0.763503 0.125657 0.373426
Si Si4 0.500000 0.453499 0.118507
Si Si5 0.180690 0.940477 0.125303
O O1 0.905115 0.500000 0.500000
O O2 0.901303 0.656270 0.562349
O O3 0.832983 0.617945 0.391723
O O4 0.000000 0.608969 0.410967
O O5 0.666108 0.184810 0.750000
O O6 0.699047 0.284644 0.592473
O O7 0.748581 0.124315 0.591418
O O8 0.776219 0.127775 0.250000
O O9 0.807769 0.039078 0.409721
O O10 0.500000 0.485792 0.250000
O O11 0.588072 0.410085 0.112194
O O12 0.500000 0.500000 0.000000
O O13 0.194066 0.944004 0.250000
#
# Coordination Sequence:
#
# PCOD9474590 Si02
#       5
#    16  16  16   8  16
#     4  11  23  38  60  89 124 162 204 255 307 369
#     4  10  21  40  64  86 118 163 205 251 312 378
#     4  10  21  40  64  86 118 163 205 251 312 378
#     4  10  22  38  62  94 124 162 208 262 326 382
#     4   9  19  38  60  85 118 157 205 258 313 382
#
# _framework density 21.791461000000002
#
# number of rings (size 3 to 8) (size 9 to 14) (size 15 to 20)
#    0.000    2.000    2.222    0.667    3.111    0.889 
#    4.000    2.222    0.000    0.000    0.000    0.000 
#    0.000    0.000    0.000    0.000    0.000    0.000 
#
# Total GULP energy -200479.345527 kJ/mol
# GULP energy per Si atom -5568.870709 kJ/mol
# Density = 2.174186 g / cm^3
# Si number density = 21.791461 Si / 1000 Ang^3
#
#
#
# Elastic Constant Matrix: (Units=GPa)
#
#
# Indices 1 2 3 4 5 6 
#
# 1 105.2847 40.2688 -14.0911 0.0000 0.0000 0.0000
# 2 40.2688 110.5582 23.6283 0.0000 0.0000 0.0000
# 3 -14.0911 23.6283 60.9541 0.0000 0.0000 0.0000
# 4 0.0000 0.0000 0.0000 36.2942 0.0000 0.0000
# 5 0.0000 0.0000 0.0000 0.0000 6.2375 0.0000
# 6 0.0000 0.0000 0.0000 0.0000 0.0000 -28.7814
#
#
#
# Elastic Compliance Matrix: (Units=1/GPa)
#
#
# Indices 1 2 3 4 5 6 
#
# 1 0.012285 -0.005540 0.004988 0.000000 0.000000 0.000000
# 2 -0.005540 0.012361 -0.006072 0.000000 0.000000 0.000000
# 3 0.004988 -0.006072 0.019913 0.000000 0.000000 0.000000
# 4 0.000000 0.000000 0.000000 0.027553 0.000000 0.000000
# 5 0.000000 0.000000 0.000000 0.000000 0.160321 0.000000
# 6 0.000000 0.000000 0.000000 0.000000 0.000000 -0.034745
#
#
# Mechanical properties :
#
#
# Convention : Reuss Voigt Hill
#
# Bulk Modulus (GPa) = 31.94090 41.82322 36.88206
# Shear Modulus (GPa) = 22.58623 17.88279 20.23451
#
# Velocity S-wave (km/s) = 3.22292 2.86778 3.05052
# Velocity P-wave (km/s) = 5.34219 5.49542 5.41935
#
# Compressibility (1/GPa) = 0.03130782
#
# Stress axis : x y z
#
# Youngs Moduli (GPa) = 81.40240 80.90112 50.21921
#
# Poissons Ratio (x) = 0.44822 -0.25047
# Poissons Ratio (y) = 0.45100 0.30495
# Poissons Ratio (z) = -0.40600 0.49126
#
# Static dielectric constant tensor:
#      x y z
#    x 1.738280 0.000000 0.000000 
#    y 0.000000 1.789220 0.000000 
#    z 0.000000 0.000000 1.932710 
# 
# From -- ./inp_files/33677.got.cif
#   From: 2010.05.17/outbox.cif.g08.bks.cpg/sg63_17_cif.got.tgz:33677.got - 2010.06.03 15:47:04.
