data_PCOD9474692
_publ_section_title
;
Structure prediction by ZEFSAII (Michael W. Deem and Ramdas Pophale) SiO2 
 PCOD9474692
Probable space group: C M C M
;
_chemical_formula_sum "Si O2"
_cell_formula_units_Z 52
_cell_length_a 17.721210
_cell_length_b 9.443908
_cell_length_c 13.482684
_cell_angle_alpha 90.000000
_cell_angle_beta 90.000000
_cell_angle_gamma 90.000000
_cell_volume 2256.427976
_symmetry_space_group_name_H-M "C M C M"
_symmetry_group_IT_number 63
_symmetry_cell_setting 'orthorhombic'
loop_
_space_group_symop_operation_xyz
x,y,z
-x,-y,1/2+z
x,-y,-z
-x,y,1/2-z
-x,-y,-z
x,y,1/2-z
-x,y,z
x,-y,1/2+z
1/2+x,1/2+y,z
1/2-x,1/2-y,1/2+z
1/2+x,1/2-y,-z
1/2-x,1/2+y,1/2-z
1/2-x,1/2-y,-z
1/2+x,1/2+y,1/2-z
1/2-x,1/2+y,z
1/2+x,1/2-y,1/2+z
loop_
_atom_site_type_symbol
_atom_site_label
_atom_site_fract_x
_atom_site_fract_y
_atom_site_fract_z
Si Si1 0.761568 0.047489 0.750000
Si Si2 0.912616 0.663025 0.030432
Si Si3 0.000000 0.889964 0.750000
Si Si4 0.352549 0.168812 0.250000
Si Si5 0.364841 0.599125 0.091596
O O1 0.786343 0.211095 0.750000
O O2 0.676170 0.993746 0.750000
O O3 0.797350 0.971572 0.846866
O O4 0.896573 0.689507 0.146899
O O5 0.000000 0.705163 0.011731
O O6 0.906059 0.500000 0.000000
O O7 0.855322 0.749265 0.960544
O O8 0.934039 0.891615 0.834520
O O9 0.384342 0.500000 0.000000
#
# Coordination Sequence:
#
# PCOD9474692 Si02
#       5
#     8  16   4   8  16
#     4  11  28  43  70 105 138 190 236 285 352 417
#     4  11  26  46  71 104 140 186 229 292 361 412
#     4  10  22  34  70  98 138 168 226 292 342 402
#     4  12  27  49  69 103 142 184 239 292 343 427
#     4  11  22  43  67 101 135 180 238 283 347 417
#
# _framework density 23.045273000000002
#
# number of rings (size 3 to 8) (size 9 to 14) (size 15 to 20)
#    0.000    0.923    4.615    0.923    4.308    3.692 
#    0.000    0.000    0.000    0.000    0.000    0.000 
#    0.000    0.000    0.000    0.000    0.000    0.000 
#
# Total GULP energy -144861.255345 kJ/mol
# GULP energy per Si atom -5571.586744 kJ/mol
# Density = 2.299282 g / cm^3
# Si number density = 23.045273 Si / 1000 Ang^3
#
#
#
# Elastic Constant Matrix: (Units=GPa)
#
#
# Indices 1 2 3 4 5 6 
#
# 1 9.6778 0.8615 2.9821 0.0000 0.0000 0.0000
# 2 0.8615 94.4398 32.0737 0.0000 0.0000 0.0000
# 3 2.9821 32.0737 183.5432 0.0000 0.0000 0.0000
# 4 0.0000 0.0000 0.0000 -129.1170 0.0000 0.0000
# 5 0.0000 0.0000 0.0000 0.0000 -14.1752 0.0000
# 6 0.0000 0.0000 0.0000 0.0000 0.0000 14.9795
#
#
#
# Elastic Compliance Matrix: (Units=1/GPa)
#
#
# Indices 1 2 3 4 5 6 
#
# 1 0.103863 -0.000398 -0.001618 0.000000 0.000000 0.000000
# 2 -0.000398 0.011258 -0.001961 0.000000 0.000000 0.000000
# 3 -0.001618 -0.001961 0.005817 0.000000 0.000000 0.000000
# 4 0.000000 0.000000 0.000000 -0.007745 0.000000 0.000000
# 5 0.000000 0.000000 0.000000 0.000000 -0.070546 0.000000
# 6 0.000000 0.000000 0.000000 0.000000 0.000000 0.066758
#
#
# Mechanical properties :
#
#
# Convention : Reuss Voigt Hill
#
# Bulk Modulus (GPa) = 8.85075 39.94395 24.39735
# Shear Modulus (GPa) = 32.25362 -8.87965 11.68698
#
# Velocity S-wave (km/s) = 3.74515 -1.96507 2.25440
# Velocity P-wave (km/s) = 4.74873 3.49597 4.16967
#
# Compressibility (1/GPa) = 0.11298483
#
# Stress axis : x y z
#
# Youngs Moduli (GPa) = 9.62807 88.82303 171.90227
#
# Poissons Ratio (x) = 0.03535 0.27813
# Poissons Ratio (y) = 0.00383 0.33708
# Poissons Ratio (z) = 0.01558 0.17417
#
# Static dielectric constant tensor:
#      x y z
#    x 1.844340 0.000000 0.000000 
#    y 0.000000 1.953130 0.000000 
#    z 0.000000 0.000000 1.783920 
# 
# From -- ./inp_files/34704.got.cif
#   From: 2010.05.17/outbox.cif.g08.bks.cpg/sg63_18_cif.got.tgz:34704.got - 2010.06.03 15:47:04.
