data_PCOD9474641
_publ_section_title
;
Structure prediction by ZEFSAII (Michael W. Deem and Ramdas Pophale) SiO2 
 PCOD9474641
Probable space group: C M C M
;
_chemical_formula_sum "Si O2"
_cell_formula_units_Z 68
_cell_length_a 7.733444
_cell_length_b 14.335304
_cell_length_c 23.631905
_cell_angle_alpha 90.000000
_cell_angle_beta 90.000000
_cell_angle_gamma 90.000000
_cell_volume 2619.863018
_symmetry_space_group_name_H-M "C M C M"
_symmetry_group_IT_number 63
_symmetry_cell_setting 'orthorhombic'
loop_
_space_group_symop_operation_xyz
x,y,z
-x,-y,1/2+z
x,-y,-z
-x,y,1/2-z
-x,-y,-z
x,y,1/2-z
-x,y,z
x,-y,1/2+z
1/2+x,1/2+y,z
1/2-x,1/2-y,1/2+z
1/2+x,1/2-y,-z
1/2-x,1/2+y,1/2-z
1/2-x,1/2-y,-z
1/2+x,1/2+y,1/2-z
1/2-x,1/2+y,z
1/2+x,1/2-y,1/2+z
loop_
_atom_site_type_symbol
_atom_site_label
_atom_site_fract_x
_atom_site_fract_y
_atom_site_fract_z
Si Si1 0.000000 0.345449 0.750000
Si Si2 0.297757 0.629924 0.689836
Si Si3 0.305648 0.109904 0.453897
Si Si4 0.202751 0.682763 0.565081
Si Si5 0.807725 0.911585 0.829934
O O1 0.153700 0.356084 0.799786
O O2 0.222533 0.662589 0.750000
O O3 0.500000 0.658127 0.690046
O O4 0.219378 0.659013 0.630638
O O5 0.292053 0.517937 0.690533
O O6 0.500000 0.072049 0.449799
O O7 0.305140 0.222496 0.445590
O O8 0.241322 0.104269 0.519065
O O9 0.206826 0.080074 0.397938
O O10 0.000000 0.698877 0.553969
O O11 0.000000 0.875218 0.816933
#
# Coordination Sequence:
#
# PCOD9474641 Si02
#       5
#     4  16  16  16  16
#     4  12  22  40  64  92 128 168 192 260 304 356
#     4  10  22  40  59  87 122 162 202 249 306 369
#     4  10  21  41  62  89 121 161 207 257 311 362
#     4  10  22  38  63  89 121 159 205 260 311 365
#     4  11  23  40  65  92 124 164 207 247 307 368
#
# _framework density 25.955553999999999
#
# number of rings (size 3 to 8) (size 9 to 14) (size 15 to 20)
#    0.000    1.647    2.353    1.765    1.647    4.235 
#    2.118    4.706    0.000    0.000    0.000    0.000 
#    0.000    0.000    0.000    0.000    0.000    0.000 
#
# Total GULP energy -189730.868844 kJ/mol
# GULP energy per Si atom -5580.319672 kJ/mol
# Density = 2.589648 g / cm^3
# Si number density = 25.955554 Si / 1000 Ang^3
#
#
#
# Elastic Constant Matrix: (Units=GPa)
#
#
# Indices 1 2 3 4 5 6 
#
# 1 144.6006 13.4484 66.6906 0.0000 0.0000 0.0000
# 2 13.4484 49.8613 26.9057 0.0000 0.0000 0.0000
# 3 66.6906 26.9057 285.1084 0.0000 0.0000 0.0000
# 4 0.0000 0.0000 0.0000 115.9347 0.0000 0.0000
# 5 0.0000 0.0000 0.0000 0.0000 40.6107 0.0000
# 6 0.0000 0.0000 0.0000 0.0000 0.0000 18.4758
#
#
#
# Elastic Compliance Matrix: (Units=1/GPa)
#
#
# Indices 1 2 3 4 5 6 
#
# 1 0.007817 -0.001182 -0.001717 0.000000 0.000000 0.000000
# 2 -0.001182 0.021310 -0.001735 0.000000 0.000000 0.000000
# 3 -0.001717 -0.001735 0.004073 0.000000 0.000000 0.000000
# 4 0.000000 0.000000 0.000000 0.008626 0.000000 0.000000
# 5 0.000000 0.000000 0.000000 0.000000 0.024624 0.000000
# 6 0.000000 0.000000 0.000000 0.000000 0.000000 0.054125
#
#
# Mechanical properties :
#
#
# Convention : Reuss Voigt Hill
#
# Bulk Modulus (GPa) = 41.78252 77.07331 59.42791
# Shear Modulus (GPa) = 36.27918 59.83929 48.05923
#
# Velocity S-wave (km/s) = 3.74270 4.80672 4.30769
# Velocity P-wave (km/s) = 5.89997 7.78235 6.90560
#
# Compressibility (1/GPa) = 0.02393346
#
# Stress axis : x y z
#
# Youngs Moduli (GPa) = 127.91900 46.92533 245.53279
#
# Poissons Ratio (x) = 0.05546 0.42160
# Poissons Ratio (y) = 0.15119 0.42590
# Poissons Ratio (z) = 0.21965 0.08140
#
# Static dielectric constant tensor:
#      x y z
#    x 2.016140 0.000000 0.000000 
#    y 0.000000 2.120970 0.000000 
#    z 0.000000 0.000000 2.101730 
# 
# From -- ./inp_files/39974.got.cif
#   From: 2010.05.17/outbox.cif.g08.bks.cpg/sg63_20_cif.got.tgz:39974.got - 2010.06.03 15:47:04.
