data_PCOD9474558
_publ_section_title
;
Structure prediction by ZEFSAII (Michael W. Deem and Ramdas Pophale) SiO2 
 PCOD9474558
Probable space group: C M C M
;
_chemical_formula_sum "Si O2"
_cell_formula_units_Z 88
_cell_length_a 12.181357
_cell_length_b 17.798707
_cell_length_c 21.037664
_cell_angle_alpha 90.000000
_cell_angle_beta 90.000000
_cell_angle_gamma 90.000000
_cell_volume 4561.226509
_symmetry_space_group_name_H-M "C M C M"
_symmetry_group_IT_number 63
_symmetry_cell_setting 'orthorhombic'
loop_
_space_group_symop_operation_xyz
x,y,z
-x,-y,1/2+z
x,-y,-z
-x,y,1/2-z
-x,-y,-z
x,y,1/2-z
-x,y,z
x,-y,1/2+z
1/2+x,1/2+y,z
1/2-x,1/2-y,1/2+z
1/2+x,1/2-y,-z
1/2-x,1/2+y,1/2-z
1/2-x,1/2-y,-z
1/2+x,1/2+y,1/2-z
1/2-x,1/2+y,z
1/2+x,1/2-y,1/2+z
loop_
_atom_site_type_symbol
_atom_site_label
_atom_site_fract_x
_atom_site_fract_y
_atom_site_fract_z
Si Si1 0.380045 0.560840 0.750000
Si Si2 0.127795 0.857948 0.538103
Si Si3 0.186713 0.437048 0.452300
Si Si4 0.125365 0.715502 0.613019
Si Si5 0.132366 0.367312 0.750000
Si Si6 0.715779 0.453402 0.649459
Si Si7 0.252333 0.787646 0.250000
O O1 0.500000 0.594570 0.750000
O O2 0.360645 0.505095 0.807937
O O3 0.295732 0.628793 0.750000
O O4 0.207662 0.900262 0.488584
O O5 0.166568 0.775123 0.560086
O O6 0.142488 0.902780 0.603838
O O7 0.000000 0.857024 0.517251
O O8 0.135526 0.500000 0.500000
O O9 0.127621 0.365528 0.421258
O O10 0.219765 0.488400 0.393768
O O11 0.184360 0.718823 0.681894
O O12 0.000000 0.737238 0.625592
O O13 0.196730 0.405461 0.809496
O O14 0.162721 0.279151 0.750000
O O15 0.000000 0.379189 0.750000
#
# Coordination Sequence:
#
# PCOD9474558 Si02
#       7
#     8  16  16  16   8  16   8
#     4  11  22  36  61  92 122 160 201 259 315 359
#     4  10  21  39  66  91 122 166 206 256 314 367
#     4  10  22  40  63  87 126 162 206 261 300 371
#     4  11  23  41  64  91 123 164 209 257 316 374
#     4  11  24  42  65  92 128 170 203 253 321 373
#     4  10  21  40  60  92 128 156 205 256 300 381
#     4  12  22  44  64  90 126 158 212 262 306 382
#
# _framework density 19.293057999999998
#
# number of rings (size 3 to 8) (size 9 to 14) (size 15 to 20)
#    0.000    1.455    3.636    1.636    0.000    5.091 
#    0.000    2.727    0.000    0.000    0.000    0.000 
#    0.000    0.000    0.000    0.000    0.000    0.000 
#
# Total GULP energy -245072.021468 kJ/mol
# GULP energy per Si atom -5569.818670 kJ/mol
# Density = 1.924915 g / cm^3
# Si number density = 19.293058 Si / 1000 Ang^3
#
#
#
# Elastic Constant Matrix: (Units=GPa)
#
#
# Indices 1 2 3 4 5 6 
#
# 1 69.0559 2.4310 20.2032 0.0000 0.0000 0.0000
# 2 2.4310 109.8539 15.2378 0.0000 0.0000 0.0000
# 3 20.2032 15.2378 73.7942 0.0000 0.0000 0.0000
# 4 0.0000 0.0000 0.0000 141.8499 0.0000 0.0000
# 5 0.0000 0.0000 0.0000 0.0000 6.8191 0.0000
# 6 0.0000 0.0000 0.0000 0.0000 0.0000 10.7855
#
#
#
# Elastic Compliance Matrix: (Units=1/GPa)
#
#
# Indices 1 2 3 4 5 6 
#
# 1 0.015749 0.000257 -0.004365 0.000000 0.000000 0.000000
# 2 0.000257 0.009376 -0.002006 0.000000 0.000000 0.000000
# 3 -0.004365 -0.002006 0.015160 0.000000 0.000000 0.000000
# 4 0.000000 0.000000 0.000000 0.007050 0.000000 0.000000
# 5 0.000000 0.000000 0.000000 0.000000 0.146647 0.000000
# 6 0.000000 0.000000 0.000000 0.000000 0.000000 0.092717
#
#
# Mechanical properties :
#
#
# Convention : Reuss Voigt Hill
#
# Bulk Modulus (GPa) = 35.64210 36.49422 36.06816
# Shear Modulus (GPa) = 16.21903 46.21303 31.21603
#
# Velocity S-wave (km/s) = 2.90257 4.89951 4.02679
# Velocity P-wave (km/s) = 5.45412 7.13889 6.35260
#
# Compressibility (1/GPa) = 0.02805670
#
# Stress axis : x y z
#
# Youngs Moduli (GPa) = 63.49633 106.65973 65.96105
#
# Poissons Ratio (x) = -0.02740 0.28790
# Poissons Ratio (y) = -0.01631 0.13234
# Poissons Ratio (z) = 0.27715 0.21399
#
# Static dielectric constant tensor:
#      x y z
#    x 1.667870 0.000000 0.000000 
#    y 0.000000 1.700360 0.000000 
#    z 0.000000 0.000000 1.660800 
# 
# From -- ./inp_files/52573.got.cif
#   From: 2010.05.17/outbox.cif.g08.bks.cpg/sg63_27_cif.got.tgz:52573.got - 2010.06.03 15:47:04.
