data_PCOD9474038
_publ_section_title
;
Structure prediction by ZEFSAII (Michael W. Deem and Ramdas Pophale) SiO2 
 PCOD9474038
Probable space group: C M C M
;
_chemical_formula_sum "Si O2"
_cell_formula_units_Z 80
_cell_length_a 26.593144
_cell_length_b 19.844518
_cell_length_c 8.708361
_cell_angle_alpha 90.000000
_cell_angle_beta 90.000000
_cell_angle_gamma 90.000000
_cell_volume 4595.647020
_symmetry_space_group_name_H-M "C M C M"
_symmetry_group_IT_number 63
_symmetry_cell_setting 'orthorhombic'
loop_
_space_group_symop_operation_xyz
x,y,z
-x,-y,1/2+z
x,-y,-z
-x,y,1/2-z
-x,-y,-z
x,y,1/2-z
-x,y,z
x,-y,1/2+z
1/2+x,1/2+y,z
1/2-x,1/2-y,1/2+z
1/2+x,1/2-y,-z
1/2-x,1/2+y,1/2-z
1/2-x,1/2-y,-z
1/2+x,1/2+y,1/2-z
1/2-x,1/2+y,z
1/2+x,1/2-y,1/2+z
loop_
_atom_site_type_symbol
_atom_site_label
_atom_site_fract_x
_atom_site_fract_y
_atom_site_fract_z
Si Si1 0.357970 0.575353 0.565032
Si Si2 0.753248 0.424068 0.434085
Si Si3 0.143387 0.575596 0.067295
Si Si4 0.057716 0.180799 0.935152
Si Si5 0.558153 0.170648 0.933523
O O1 0.363436 0.500000 0.500000
O O2 0.359832 0.570397 0.750000
O O3 0.302137 0.603388 0.525720
O O4 0.402193 0.624997 0.514148
O O5 0.752033 0.500000 0.500000
O O6 0.758246 0.425578 0.250000
O O7 0.803794 0.393883 0.505601
O O8 0.145307 0.571437 0.250000
O O9 0.138558 0.500000 0.000000
O O10 0.097031 0.620397 0.012119
O O11 0.061511 0.187935 0.750000
O O12 0.000000 0.161279 0.970914
O O13 0.067542 0.253111 0.010696
O O14 0.563387 0.166641 0.750000
O O15 0.500000 0.154537 0.973325
#
# Coordination Sequence:
#
# PCOD9474038 Si02
#       5
#    16  16  16  16  16
#     4   9  18  31  50  76 104 135 170 209 251 296
#     4   9  16  29  48  71 101 133 166 204 248 295
#     4  11  21  34  54  78 103 131 165 204 248 296
#     4   9  18  34  53  73 101 136 171 208 253 301
#     4  10  21  37  55  75 100 131 167 206 250 299
#
# _framework density 17.407776999999999
#
# number of rings (size 3 to 8) (size 9 to 14) (size 15 to 20)
#    0.000    2.400    0.000    4.200    0.000    3.600 
#    0.000    1.000    0.000    0.000    0.000    0.000 
#    0.000    0.000    0.000    0.000    0.000    0.000 
#
# Total GULP energy -223003.081015 kJ/mol
# GULP energy per Si atom -5575.077025 kJ/mol
# Density = 1.736816 g / cm^3
# Si number density = 17.407777 Si / 1000 Ang^3
#
#
#
# Elastic Constant Matrix: (Units=GPa)
#
#
# Indices 1 2 3 4 5 6 
#
# 1 175.9866 92.3928 67.2583 0.0000 0.0000 0.0000
# 2 92.3928 70.8577 38.2761 0.0000 0.0000 0.0000
# 3 67.2583 38.2761 71.4982 0.0000 0.0000 0.0000
# 4 0.0000 0.0000 0.0000 25.2385 0.0000 0.0000
# 5 0.0000 0.0000 0.0000 0.0000 -119.8414 0.0000
# 6 0.0000 0.0000 0.0000 0.0000 0.0000 278.2074
#
#
#
# Elastic Compliance Matrix: (Units=1/GPa)
#
#
# Indices 1 2 3 4 5 6 
#
# 1 0.020165 -0.022575 -0.006884 0.000000 0.000000 0.000000
# 2 -0.022575 0.045127 -0.002922 0.000000 0.000000 0.000000
# 3 -0.006884 -0.002922 0.022026 0.000000 0.000000 0.000000
# 4 0.000000 0.000000 0.000000 0.039622 0.000000 0.000000
# 5 0.000000 0.000000 0.000000 0.000000 -0.008344 0.000000
# 6 0.000000 0.000000 0.000000 0.000000 0.000000 0.003594
#
#
# Mechanical properties :
#
#
# Convention : Reuss Voigt Hill
#
# Bulk Modulus (GPa) = 44.33324 79.35522 61.84423
# Shear Modulus (GPa) = 25.71066 44.74858 35.22962
#
# Velocity S-wave (km/s) = 3.84730 5.07562 4.50353
# Velocity P-wave (km/s) = 6.72743 8.94618 7.91494
#
# Compressibility (1/GPa) = 0.02255644
#
# Stress axis : x y z
#
# Youngs Moduli (GPa) = 49.59107 22.15950 45.40006
#
# Poissons Ratio (x) = 0.50025 0.31252
# Poissons Ratio (y) = 1.11952 0.13268
# Poissons Ratio (z) = 0.34137 0.06476
#
# Static dielectric constant tensor:
#      x y z
#    x 1.632730 0.000000 0.000000 
#    y 0.000000 1.651760 0.000000 
#    z 0.000000 0.000000 1.581740 
# 
# From -- ./inp_files/11961.got.cif
#   From: 2010.05.17/outbox.cif.g08.bks.cpg/sg63_6_cif.got.tgz:11961.got - 2010.06.03 15:47:04.
