data_PCOD9474326
_publ_section_title
;
Structure prediction by ZEFSAII (Michael W. Deem and Ramdas Pophale) SiO2 
 PCOD9474326
Probable space group: C M C M
;
_chemical_formula_sum "Si O2"
_cell_formula_units_Z 80
_cell_length_a 11.638859
_cell_length_b 20.218930
_cell_length_c 18.605406
_cell_angle_alpha 90.000000
_cell_angle_beta 90.000000
_cell_angle_gamma 90.000000
_cell_volume 4378.322291
_symmetry_space_group_name_H-M "C M C M"
_symmetry_group_IT_number 63
_symmetry_cell_setting 'orthorhombic'
loop_
_space_group_symop_operation_xyz
x,y,z
-x,-y,1/2+z
x,-y,-z
-x,y,1/2-z
-x,-y,-z
x,y,1/2-z
-x,y,z
x,-y,1/2+z
1/2+x,1/2+y,z
1/2-x,1/2-y,1/2+z
1/2+x,1/2-y,-z
1/2-x,1/2+y,1/2-z
1/2-x,1/2-y,-z
1/2+x,1/2+y,1/2-z
1/2-x,1/2+y,z
1/2+x,1/2-y,1/2+z
loop_
_atom_site_type_symbol
_atom_site_label
_atom_site_fract_x
_atom_site_fract_y
_atom_site_fract_z
Si Si1 0.000000 0.855838 0.835606
Si Si2 0.135302 0.672431 0.165327
Si Si3 0.000000 0.296461 0.337229
Si Si4 0.288547 0.573463 0.089895
Si Si5 0.744410 0.314416 0.336412
Si Si6 0.637012 0.571128 0.574188
O O1 0.000000 0.779996 0.860402
O O2 0.889210 0.892691 0.864678
O O3 0.000000 0.855568 0.750000
O O4 0.157649 0.658105 0.250000
O O5 0.175779 0.611146 0.116945
O O6 0.205459 0.739257 0.146977
O O7 0.000000 0.685471 0.157262
O O8 0.122777 0.325836 0.359197
O O9 0.000000 0.297147 0.250000
O O10 0.298152 0.494836 0.101189
O O11 0.317294 0.584568 0.006147
O O12 0.736044 0.321381 0.250000
O O13 0.664554 0.367019 0.375649
O O14 0.500000 0.557896 0.571051
#
# Coordination Sequence:
#
# PCOD9474326 Si02
#       6
#     8  16   8  16  16  16
#     4  11  18  33  65  89 107 143 197 245 286 338
#     4  10  21  39  61  87 118 149 190 242 287 341
#     4   9  18  36  59  86 116 144 187 246 287 330
#     4  11  21  40  59  85 116 153 193 240 290 339
#     4  10  21  38  60  86 117 152 191 239 294 344
#     4  11  23  40  58  83 122 153 189 245 290 338
#
# _framework density 18.271837999999999
#
# number of rings (size 3 to 8) (size 9 to 14) (size 15 to 20)
#    0.000    1.600    4.000    1.800    0.000    3.600 
#    3.600    1.000    0.000    0.000    0.000    0.000 
#    0.000    0.000    0.000    0.000    0.000    0.000 
#
# Total GULP energy -223237.859915 kJ/mol
# GULP energy per Si atom -5580.946498 kJ/mol
# Density = 1.823025 g / cm^3
# Si number density = 18.271838 Si / 1000 Ang^3
#
#
#
# Elastic Constant Matrix: (Units=GPa)
#
#
# Indices 1 2 3 4 5 6 
#
# 1 79.9715 24.5767 15.9991 0.0000 0.0000 0.0000
# 2 24.5767 89.2811 42.5110 0.0000 0.0000 0.0000
# 3 15.9991 42.5110 31.1250 0.0000 0.0000 0.0000
# 4 0.0000 0.0000 0.0000 29.8832 0.0000 0.0000
# 5 0.0000 0.0000 0.0000 0.0000 30.2765 0.0000
# 6 0.0000 0.0000 0.0000 0.0000 0.0000 32.1120
#
#
#
# Elastic Compliance Matrix: (Units=1/GPa)
#
#
# Indices 1 2 3 4 5 6 
#
# 1 0.013984 -0.001221 -0.005521 0.000000 0.000000 0.000000
# 2 -0.001221 0.032139 -0.043268 0.000000 0.000000 0.000000
# 3 -0.005521 -0.043268 0.094063 0.000000 0.000000 0.000000
# 4 0.000000 0.000000 0.000000 0.033464 0.000000 0.000000
# 5 0.000000 0.000000 0.000000 0.000000 0.033029 0.000000
# 6 0.000000 0.000000 0.000000 0.000000 0.000000 0.031141
#
#
# Mechanical properties :
#
#
# Convention : Reuss Voigt Hill
#
# Bulk Modulus (GPa) = 24.89663 40.72790 32.81227
# Shear Modulus (GPa) = 14.23578 26.27372 20.25475
#
# Velocity S-wave (km/s) = 2.79428 3.79613 3.33306
# Velocity P-wave (km/s) = 4.90571 6.44612 5.72793
#
# Compressibility (1/GPa) = 0.04016608
#
# Stress axis : x y z
#
# Youngs Moduli (GPa) = 71.50971 31.11518 10.63117
#
# Poissons Ratio (x) = 0.03798 0.05870
# Poissons Ratio (y) = 0.08728 0.45999
# Poissons Ratio (z) = 0.39481 1.34630
#
# Static dielectric constant tensor:
#      x y z
#    x 1.656680 0.000000 0.000000 
#    y 0.000000 1.606070 0.000000 
#    z 0.000000 0.000000 1.611980 
# 
# From -- ./inp_files/42160.got.cif
#   From: 2010.05.17/outbox.cif.g08.bks.cpg/sg63_22_cif.got.tgz:42160.got - 2010.06.03 15:47:04.
