data_PCOD9474691
_publ_section_title
;
Structure prediction by ZEFSAII (Michael W. Deem and Ramdas Pophale) SiO2 
 PCOD9474691
Probable space group: C M C M
;
_chemical_formula_sum "Si O2"
_cell_formula_units_Z 64
_cell_length_a 7.949312
_cell_length_b 22.519311
_cell_length_c 15.989077
_cell_angle_alpha 90.000000
_cell_angle_beta 90.000000
_cell_angle_gamma 90.000000
_cell_volume 2862.253107
_symmetry_space_group_name_H-M "C M C M"
_symmetry_group_IT_number 63
_symmetry_cell_setting 'orthorhombic'
loop_
_space_group_symop_operation_xyz
x,y,z
-x,-y,1/2+z
x,-y,-z
-x,y,1/2-z
-x,-y,-z
x,y,1/2-z
-x,y,z
x,-y,1/2+z
1/2+x,1/2+y,z
1/2-x,1/2-y,1/2+z
1/2+x,1/2-y,-z
1/2-x,1/2+y,1/2-z
1/2-x,1/2-y,-z
1/2+x,1/2+y,1/2-z
1/2-x,1/2+y,z
1/2+x,1/2-y,1/2+z
loop_
_atom_site_type_symbol
_atom_site_label
_atom_site_fract_x
_atom_site_fract_y
_atom_site_fract_z
Si Si1 0.500000 0.071352 0.993171
Si Si2 0.188241 0.949937 0.929030
Si Si3 0.200798 0.763449 0.403731
Si Si4 0.197367 0.326733 0.750000
Si Si5 0.000000 0.348847 0.347511
Si Si6 0.190677 0.959828 0.750000
O O1 0.500000 0.091184 0.899298
O O2 0.331925 0.093867 0.038716
O O3 0.500000 0.000000 0.000000
O O4 0.255004 0.976616 0.841465
O O5 0.000000 0.925155 0.916496
O O6 0.171937 0.000000 0.000000
O O7 0.250000 0.750000 0.500000
O O8 0.228710 0.711610 0.334008
O O9 0.331508 0.813684 0.374036
O O10 0.000000 0.778156 0.400141
O O11 0.297563 0.388154 0.750000
O O12 0.000000 0.343049 0.750000
O O13 0.000000 0.358030 0.250000
O O14 0.000000 0.982142 0.750000
#
# Coordination Sequence:
#
# PCOD9474691 Si02
#       6
#     8  16  16   8   8   8
#     4  10  24  45  66  94 124 170 230 274 342 409
#     4   9  20  41  62  91 132 166 220 285 336 404
#     4  11  24  42  67 101 140 185 226 275 340 414
#     4  10  24  40  60  94 137 169 222 277 320 403
#     4  12  26  46  71  97 142 187 229 290 350 410
#     4  10  22  34  62  96 123 177 224 271 346 399
#
# _framework density 22.360009000000002
#
# number of rings (size 3 to 8) (size 9 to 14) (size 15 to 20)
#    0.000    1.750    2.500    0.000    7.000    1.000 
#    9.000    0.000    0.000    0.000    0.000    0.000 
#    0.000    0.000    0.000    0.000    0.000    0.000 
#
# Total GULP energy -178495.211574 kJ/mol
# GULP energy per Si atom -5577.975362 kJ/mol
# Density = 2.230912 g / cm^3
# Si number density = 22.360009 Si / 1000 Ang^3
#
#
#
# Elastic Constant Matrix: (Units=GPa)
#
#
# Indices 1 2 3 4 5 6 
#
# 1 142.7562 22.5066 46.2520 0.0000 0.0000 0.0000
# 2 22.5066 56.7636 44.8356 0.0000 0.0000 0.0000
# 3 46.2520 44.8356 248.2724 0.0000 0.0000 0.0000
# 4 0.0000 0.0000 0.0000 41.5760 0.0000 0.0000
# 5 0.0000 0.0000 0.0000 0.0000 30.9154 0.0000
# 6 0.0000 0.0000 0.0000 0.0000 0.0000 -2.0716
#
#
#
# Elastic Compliance Matrix: (Units=1/GPa)
#
#
# Indices 1 2 3 4 5 6 
#
# 1 0.007691 -0.002237 -0.001029 0.000000 0.000000 0.000000
# 2 -0.002237 0.021198 -0.003412 0.000000 0.000000 0.000000
# 3 -0.001029 -0.003412 0.004836 0.000000 0.000000 0.000000
# 4 0.000000 0.000000 0.000000 0.024052 0.000000 0.000000
# 5 0.000000 0.000000 0.000000 0.000000 0.032346 0.000000
# 6 0.000000 0.000000 0.000000 0.000000 0.000000 -0.482709
#
#
# Mechanical properties :
#
#
# Convention : Reuss Voigt Hill
#
# Bulk Modulus (GPa) = 49.09019 74.99783 62.04401
# Shear Modulus (GPa) = -13.42494 36.36383 11.46944
#
# Velocity S-wave (km/s) = -2.45296 4.03710 2.26728
# Velocity P-wave (km/s) = 3.73891 7.43941 5.88745
#
# Compressibility (1/GPa) = 0.02037067
#
# Stress axis : x y z
#
# Youngs Moduli (GPa) = 130.02325 47.17324 206.79990
#
# Poissons Ratio (x) = 0.10552 0.21277
# Poissons Ratio (y) = 0.29083 0.70550
# Poissons Ratio (z) = 0.13377 0.16093
#
# Static dielectric constant tensor:
#      x y z
#    x 1.892130 0.000000 0.000000 
#    y 0.000000 1.716370 0.000000 
#    z 0.000000 0.000000 1.881150 
# 
# From -- ./inp_files/27836.got.cif
#   From: 2010.05.17/outbox.cif.g08.bks.cpg/sg63_14_cif.got.tgz:27836.got - 2010.06.03 15:47:04.
