data_PCOD9474478
_publ_section_title
;
Structure prediction by ZEFSAII (Michael W. Deem and Ramdas Pophale) SiO2 
 PCOD9474478
Probable space group: C M C M
;
_chemical_formula_sum "Si O2"
_cell_formula_units_Z 96
_cell_length_a 16.657571
_cell_length_b 17.235433
_cell_length_c 18.085989
_cell_angle_alpha 90.000000
_cell_angle_beta 90.000000
_cell_angle_gamma 90.000000
_cell_volume 5192.495561
_symmetry_space_group_name_H-M "C M C M"
_symmetry_group_IT_number 63
_symmetry_cell_setting 'orthorhombic'
loop_
_space_group_symop_operation_xyz
x,y,z
-x,-y,1/2+z
x,-y,-z
-x,y,1/2-z
-x,-y,-z
x,y,1/2-z
-x,y,z
x,-y,1/2+z
1/2+x,1/2+y,z
1/2-x,1/2-y,1/2+z
1/2+x,1/2-y,-z
1/2-x,1/2+y,1/2-z
1/2-x,1/2-y,-z
1/2+x,1/2+y,1/2-z
1/2-x,1/2+y,z
1/2+x,1/2-y,1/2+z
loop_
_atom_site_type_symbol
_atom_site_label
_atom_site_fract_x
_atom_site_fract_y
_atom_site_fract_z
Si Si1 0.000000 0.968512 0.839789
Si Si2 0.833930 0.710787 0.916559
Si Si3 0.174326 0.601003 0.162069
Si Si4 0.595802 0.038433 0.580395
Si Si5 0.000000 0.150566 0.840159
Si Si6 0.854908 0.135326 0.161565
Si Si7 0.853955 0.758489 0.414535
O O1 0.922343 0.922532 0.867473
O O2 0.000000 0.962957 0.750000
O O3 0.000000 0.058937 0.855903
O O4 0.867440 0.624099 0.911771
O O5 0.868458 0.775918 0.861750
O O6 0.737549 0.711766 0.902387
O O7 0.856077 0.743655 0.997758
O O8 0.171437 0.610276 0.250000
O O9 0.134407 0.521159 0.138107
O O10 0.267052 0.607259 0.136461
O O11 0.133743 0.674795 0.123629
O O12 0.500000 0.042743 0.589375
O O13 0.612297 0.000000 0.500000
O O14 0.921182 0.187110 0.878630
O O15 0.000000 0.162483 0.750000
O O16 0.854973 0.131585 0.250000
#
# Coordination Sequence:
#
# PCOD9474478 Si02
#       7
#     8  16  16  16   8  16  16
#     4   9  20  39  59  86 120 154 193 245 309 359
#     4  10  22  40  63  87 123 164 205 256 310 378
#     4  10  21  39  61  85 118 159 205 253 306 367
#     4  11  24  39  60  89 123 161 202 252 311 368
#     4  11  24  39  65  95 126 162 207 264 315 374
#     4   9  20  39  62  86 118 160 203 253 309 362
#     4  10  22  40  60  92 121 161 207 253 317 373
#
# _framework density 18.488219999999998
#
# number of rings (size 3 to 8) (size 9 to 14) (size 15 to 20)
#    0.000    2.000    1.667    0.500    5.833    1.667 
#    0.000    1.667    0.000    0.000    0.000    0.000 
#    0.000    0.000    0.000    0.000    0.000    0.000 
#
# Total GULP energy -267798.012206 kJ/mol
# GULP energy per Si atom -5579.125254 kJ/mol
# Density = 1.844614 g / cm^3
# Si number density = 18.488220 Si / 1000 Ang^3
#
#
#
# Elastic Constant Matrix: (Units=GPa)
#
#
# Indices 1 2 3 4 5 6 
#
# 1 76.0612 67.0200 21.8926 0.0000 0.0000 0.0000
# 2 67.0200 142.6480 8.5173 0.0000 0.0000 0.0000
# 3 21.8926 8.5173 24.0496 0.0000 0.0000 0.0000
# 4 0.0000 0.0000 0.0000 28.5032 0.0000 0.0000
# 5 0.0000 0.0000 0.0000 0.0000 20.6498 0.0000
# 6 0.0000 0.0000 0.0000 0.0000 0.0000 23.0724
#
#
#
# Elastic Compliance Matrix: (Units=1/GPa)
#
#
# Indices 1 2 3 4 5 6 
#
# 1 0.032283 -0.013702 -0.024534 0.000000 0.000000 0.000000
# 2 -0.013702 0.012978 0.007877 0.000000 0.000000 0.000000
# 3 -0.024534 0.007877 0.061125 0.000000 0.000000 0.000000
# 4 0.000000 0.000000 0.000000 0.035084 0.000000 0.000000
# 5 0.000000 0.000000 0.000000 0.000000 0.048427 0.000000
# 6 0.000000 0.000000 0.000000 0.000000 0.000000 0.043342
#
#
# Mechanical properties :
#
#
# Convention : Reuss Voigt Hill
#
# Bulk Modulus (GPa) = 21.89807 48.62430 35.26119
# Shear Modulus (GPa) = 16.17189 24.13368 20.15278
#
# Velocity S-wave (km/s) = 2.96076 3.61689 3.30515
# Velocity P-wave (km/s) = 4.85368 6.61814 5.80336
#
# Compressibility (1/GPa) = 0.04566612
#
# Stress axis : x y z
#
# Youngs Moduli (GPa) = 30.97641 77.05541 16.35996
#
# Poissons Ratio (x) = 1.05584 0.40138
# Poissons Ratio (y) = 0.42445 -0.12887
# Poissons Ratio (z) = 0.75999 -0.60699
#
# Static dielectric constant tensor:
#      x y z
#    x 1.654770 0.000000 0.000000 
#    y 0.000000 1.601400 0.000000 
#    z 0.000000 0.000000 1.637280 
# 
# From -- ./inp_files/54258.got.cif
#   From: 2010.05.17/outbox.cif.g08.bks.cpg/sg63_28_cif.got.tgz:54258.got - 2010.06.03 15:47:04.
