data_PCOD9474970
_publ_section_title
;
Structure prediction by ZEFSAII (Michael W. Deem and Ramdas Pophale) SiO2 
 PCOD9474970
Probable space group: C M C M
;
_chemical_formula_sum "Si O2"
_cell_formula_units_Z 72
_cell_length_a 12.862223
_cell_length_b 23.754218
_cell_length_c 12.360631
_cell_angle_alpha 90.000000
_cell_angle_beta 90.000000
_cell_angle_gamma 90.000000
_cell_volume 3776.568918
_symmetry_space_group_name_H-M "C M C M"
_symmetry_group_IT_number 63
_symmetry_cell_setting 'orthorhombic'
loop_
_space_group_symop_operation_xyz
x,y,z
-x,-y,1/2+z
x,-y,-z
-x,y,1/2-z
-x,-y,-z
x,y,1/2-z
-x,y,z
x,-y,1/2+z
1/2+x,1/2+y,z
1/2-x,1/2-y,1/2+z
1/2+x,1/2-y,-z
1/2-x,1/2+y,1/2-z
1/2-x,1/2-y,-z
1/2+x,1/2+y,1/2-z
1/2-x,1/2+y,z
1/2+x,1/2-y,1/2+z
loop_
_atom_site_type_symbol
_atom_site_label
_atom_site_fract_x
_atom_site_fract_y
_atom_site_fract_z
Si Si1 0.784118 0.055694 0.928164
Si Si2 0.738594 0.838435 0.556042
Si Si3 0.624289 0.034480 0.750000
Si Si4 0.876653 0.599866 0.250000
Si Si5 0.876191 0.733747 0.625987
Si Si6 0.000000 0.015383 0.632139
O O1 0.890441 0.046888 0.863829
O O2 0.682674 0.060369 0.853189
O O3 0.798776 0.110448 0.000469
O O4 0.767544 0.000000 0.000000
O O5 0.668868 0.868183 0.646577
O O6 0.815696 0.792425 0.606832
O O7 0.669799 0.808031 0.464079
O O8 0.500000 0.042341 0.750000
O O9 0.648533 0.967019 0.750000
O O10 0.000000 0.603769 0.250000
O O11 0.856753 0.714812 0.750000
O O12 0.000000 0.740275 0.612453
O O13 0.000000 0.981177 0.750000
O O14 0.000000 0.000000 0.500000
#
# Coordination Sequence:
#
# PCOD9474970 Si02
#       6
#    16  16   8   8  16   8
#     4  11  23  41  63  95 134 169 218 268 324 398
#     4  11  23  41  66  94 128 167 215 266 325 383
#     4  11  24  39  60  93 135 179 216 258 319 391
#     4  11  22  40  65  94 134 175 211 262 317 393
#     4  10  23  43  66  92 124 164 215 268 323 383
#     4  10  22  40  66  94 132 176 216 270 327 388
#
# _framework density 19.064926
#
# number of rings (size 3 to 8) (size 9 to 14) (size 15 to 20)
#    0.000    1.333    4.444    0.667    3.111    2.222 
#    0.000    0.000    2.444    0.000    0.000    0.000 
#    0.000    0.000    0.000    0.000    0.000    0.000 
#
# Total GULP energy -200641.824949 kJ/mol
# GULP energy per Si atom -5573.384026 kJ/mol
# Density = 1.902153 g / cm^3
# Si number density = 19.064926 Si / 1000 Ang^3
#
#
#
# Elastic Constant Matrix: (Units=GPa)
#
#
# Indices 1 2 3 4 5 6 
#
# 1 81.9882 -6.4723 29.7141 0.0000 0.0000 0.0000
# 2 -6.4723 40.0221 13.3098 0.0000 0.0000 0.0000
# 3 29.7141 13.3098 121.7844 0.0000 0.0000 0.0000
# 4 0.0000 0.0000 0.0000 30.8921 0.0000 0.0000
# 5 0.0000 0.0000 0.0000 0.0000 29.3151 0.0000
# 6 0.0000 0.0000 0.0000 0.0000 0.0000 12.4539
#
#
#
# Elastic Compliance Matrix: (Units=1/GPa)
#
#
# Indices 1 2 3 4 5 6 
#
# 1 0.013833 0.003486 -0.003756 0.000000 0.000000 0.000000
# 2 0.003486 0.026807 -0.003780 0.000000 0.000000 0.000000
# 3 -0.003756 -0.003780 0.009541 0.000000 0.000000 0.000000
# 4 0.000000 0.000000 0.000000 0.032371 0.000000 0.000000
# 5 0.000000 0.000000 0.000000 0.000000 0.034112 0.000000
# 6 0.000000 0.000000 0.000000 0.000000 0.000000 0.080296
#
#
# Mechanical properties :
#
#
# Convention : Reuss Voigt Hill
#
# Bulk Modulus (GPa) = 23.76375 35.21086 29.48731
# Shear Modulus (GPa) = 22.82190 28.34844 25.58517
#
# Velocity S-wave (km/s) = 3.46361 3.86027 3.66731
# Velocity P-wave (km/s) = 5.33734 6.19499 5.78209
#
# Compressibility (1/GPa) = 0.04208089
#
# Stress axis : x y z
#
# Youngs Moduli (GPa) = 72.28878 37.30339 104.81235
#
# Poissons Ratio (x) = -0.13005 0.39370
# Poissons Ratio (y) = -0.25202 0.39623
# Poissons Ratio (z) = 0.27153 0.14102
#
# Static dielectric constant tensor:
#      x y z
#    x 1.625910 0.000000 0.000000 
#    y 0.000000 1.644760 0.000000 
#    z 0.000000 0.000000 1.282590 
# 
# From -- ./inp_files/17644.got.cif
#   From: 2010.05.17/outbox.cif.g08.bks.cpg/sg63_9_cif.got.tgz:17644.got - 2010.06.03 15:47:04.
