data_PCOD9474192
_publ_section_title
;
Structure prediction by ZEFSAII (Michael W. Deem and Ramdas Pophale) SiO2 
 PCOD9474192
Probable space group: C M C M
;
_chemical_formula_sum "Si O2"
_cell_formula_units_Z 100
_cell_length_a 27.517827
_cell_length_b 9.442792
_cell_length_c 18.492909
_cell_angle_alpha 90.000000
_cell_angle_beta 90.000000
_cell_angle_gamma 90.000000
_cell_volume 4805.292096
_symmetry_space_group_name_H-M "C M C M"
_symmetry_group_IT_number 63
_symmetry_cell_setting 'orthorhombic'
loop_
_space_group_symop_operation_xyz
x,y,z
-x,-y,1/2+z
x,-y,-z
-x,y,1/2-z
-x,-y,-z
x,y,1/2-z
-x,y,z
x,-y,1/2+z
1/2+x,1/2+y,z
1/2-x,1/2-y,1/2+z
1/2+x,1/2-y,-z
1/2-x,1/2+y,1/2-z
1/2-x,1/2-y,-z
1/2+x,1/2+y,1/2-z
1/2-x,1/2+y,z
1/2+x,1/2-y,1/2+z
loop_
_atom_site_type_symbol
_atom_site_label
_atom_site_fract_x
_atom_site_fract_y
_atom_site_fract_z
Si Si1 0.172059 0.113275 0.559005
Si Si2 0.279089 0.172487 0.164233
Si Si3 0.445704 0.994011 0.115983
Si Si4 0.347547 0.076162 0.830494
Si Si5 0.665494 0.386673 0.833167
Si Si6 0.000000 0.000000 0.000000
Si Si7 0.424306 0.761553 0.991313
O O1 0.210510 0.202195 0.607124
O O2 0.131300 0.212922 0.523094
O O3 0.192076 0.000000 0.500000
O O4 0.146054 0.012454 0.618114
O O5 0.290362 0.209583 0.250000
O O6 0.224087 0.118009 0.164063
O O7 0.313476 0.044336 0.138028
O O8 0.500000 0.973054 0.143701
O O9 0.401879 0.980139 0.171183
O O10 0.440977 0.146062 0.077871
O O11 0.434057 0.872837 0.056172
O O12 0.326895 0.098854 0.750000
O O13 0.348354 0.232347 0.862420
O O14 0.649769 0.402450 0.750000
O O15 0.957551 0.124731 0.001524
#
# Coordination Sequence:
#
# PCOD9474192 Si02
#       7
#    16  16  16  16  16   4  16
#     4  12  23  36  58  95 128 154 196 263 321 352
#     4  10  21  41  64  85 118 169 215 249 302 383
#     4  11  21  40  60  83 118 165 201 245 298 372
#     4  10  21  37  60  88 115 154 210 260 299 359
#     4  10  22  41  64  87 120 167 211 250 305 375
#     4  12  20  38  60  92 110 158 208 236 290 390
#     4  11  22  36  59  87 117 151 199 243 298 359
#
# _framework density 20.810390000000002
#
# number of rings (size 3 to 8) (size 9 to 14) (size 15 to 20)
#    0.000    1.280    4.000    2.880    0.000    3.520 
#    0.000    1.600    0.000    0.000    0.000    1.120 
#    0.000    0.000    0.000    0.000    0.000    0.000 
#
# Total GULP energy -278401.152705 kJ/mol
# GULP energy per Si atom -5568.023054 kJ/mol
# Density = 2.076302 g / cm^3
# Si number density = 20.810390 Si / 1000 Ang^3
#
#
#
# Elastic Constant Matrix: (Units=GPa)
#
#
# Indices 1 2 3 4 5 6 
#
# 1 58.6988 -14.3798 -2.9649 0.0000 0.0000 0.0000
# 2 -14.3798 94.4540 21.8785 0.0000 0.0000 0.0000
# 3 -2.9649 21.8785 63.4104 0.0000 0.0000 0.0000
# 4 0.0000 0.0000 0.0000 -3.3856 0.0000 0.0000
# 5 0.0000 0.0000 0.0000 0.0000 12.8374 0.0000
# 6 0.0000 0.0000 0.0000 0.0000 0.0000 35.6220
#
#
#
# Elastic Compliance Matrix: (Units=1/GPa)
#
#
# Indices 1 2 3 4 5 6 
#
# 1 0.017697 0.002720 -0.000111 0.000000 0.000000 0.000000
# 2 0.002720 0.011925 -0.003987 0.000000 0.000000 0.000000
# 3 -0.000111 -0.003987 0.017141 0.000000 0.000000 0.000000
# 4 0.000000 0.000000 0.000000 -0.295366 0.000000 0.000000
# 5 0.000000 0.000000 0.000000 0.000000 0.077897 0.000000
# 6 0.000000 0.000000 0.000000 0.000000 0.000000 0.028073
#
#
# Mechanical properties :
#
#
# Convention : Reuss Voigt Hill
#
# Bulk Modulus (GPa) = 22.72429 25.07009 23.89719
# Shear Modulus (GPa) = -39.93331 23.15004 -8.39163
#
# Velocity S-wave (km/s) = -4.38529 3.33893 -2.01027
# Velocity P-wave (km/s) = 3.83375 5.19015 2.47386
#
# Compressibility (1/GPa) = 0.04400577
#
# Stress axis : x y z
#
# Youngs Moduli (GPa) = 56.50731 83.85881 58.34027
#
# Poissons Ratio (x) = -0.22809 0.00647
# Poissons Ratio (y) = -0.15369 0.23262
# Poissons Ratio (z) = 0.00627 0.33437
#
# Static dielectric constant tensor:
#      x y z
#    x 1.729830 0.000000 0.000000 
#    y 0.000000 1.782600 0.000000 
#    z 0.000000 0.000000 1.884230 
# 
# From -- ./inp_files/58211.got.cif
#   From: 2010.05.17/outbox.cif.g08.bks.cpg/sg63_30_cif.got.tgz:58211.got - 2010.06.03 15:47:04.
