data_PCOD9474484
_publ_section_title
;
Structure prediction by ZEFSAII (Michael W. Deem and Ramdas Pophale) SiO2 
 PCOD9474484
Probable space group: C M C M
;
_chemical_formula_sum "Si O2"
_cell_formula_units_Z 64
_cell_length_a 13.947356
_cell_length_b 10.898756
_cell_length_c 22.053895
_cell_angle_alpha 90.000000
_cell_angle_beta 90.000000
_cell_angle_gamma 90.000000
_cell_volume 3352.386773
_symmetry_space_group_name_H-M "C M C M"
_symmetry_group_IT_number 63
_symmetry_cell_setting 'orthorhombic'
loop_
_space_group_symop_operation_xyz
x,y,z
-x,-y,1/2+z
x,-y,-z
-x,y,1/2-z
-x,-y,-z
x,y,1/2-z
-x,y,z
x,-y,1/2+z
1/2+x,1/2+y,z
1/2-x,1/2-y,1/2+z
1/2+x,1/2-y,-z
1/2-x,1/2+y,1/2-z
1/2-x,1/2-y,-z
1/2+x,1/2+y,1/2-z
1/2-x,1/2+y,z
1/2+x,1/2-y,1/2+z
loop_
_atom_site_type_symbol
_atom_site_label
_atom_site_fract_x
_atom_site_fract_y
_atom_site_fract_z
Si Si1 0.783638 0.429107 0.878625
Si Si2 0.303765 0.815440 0.177795
Si Si3 0.000000 0.311134 0.104537
Si Si4 0.174004 0.000000 0.000000
Si Si5 0.000000 0.172425 0.986303
Si Si6 0.000000 0.578494 0.412288
O O1 0.745933 0.306866 0.847137
O O2 0.757751 0.556292 0.844799
O O3 0.740571 0.443706 0.946910
O O4 0.898736 0.417233 0.878030
O O5 0.308773 0.814373 0.250000
O O6 0.407753 0.811500 0.146625
O O7 0.000000 0.198516 0.058353
O O8 0.000000 0.437117 0.065146
O O9 0.098327 0.900678 0.026900
O O10 0.000000 0.301877 0.953487
#
# Coordination Sequence:
#
# PCOD9474484 Si02
#       6
#    16  16   8   8   8   8
#     4  11  24  41  63  93 123 164 204 254 310 365
#     4  11  23  42  64  88 121 161 208 252 302 364
#     4  10  21  39  61  90 117 160 202 251 301 361
#     4  11  24  37  64  88 130 159 200 253 314 372
#     4  11  21  39  56  94 127 159 193 252 310 372
#     4  10  24  36  61  90 127 156 202 250 309 365
#
# _framework density 19.090876000000002
#
# number of rings (size 3 to 8) (size 9 to 14) (size 15 to 20)
#    0.000    1.250    2.500    3.000    7.000    2.000 
#    0.000    1.875    0.000    0.000    0.000    0.000 
#    0.000    0.000    0.000    0.000    0.000    0.000 
#
# Total GULP energy -178485.312350 kJ/mol
# GULP energy per Si atom -5577.666011 kJ/mol
# Density = 1.904742 g / cm^3
# Si number density = 19.090876 Si / 1000 Ang^3
#
#
#
# Elastic Constant Matrix: (Units=GPa)
#
#
# Indices 1 2 3 4 5 6 
#
# 1 102.5600 55.3257 22.0086 0.0000 0.0000 0.0000
# 2 55.3257 153.1519 48.8303 0.0000 0.0000 0.0000
# 3 22.0086 48.8303 82.9387 0.0000 0.0000 0.0000
# 4 0.0000 0.0000 0.0000 26.3392 0.0000 0.0000
# 5 0.0000 0.0000 0.0000 0.0000 2.1632 0.0000
# 6 0.0000 0.0000 0.0000 0.0000 0.0000 68.7724
#
#
#
# Elastic Compliance Matrix: (Units=1/GPa)
#
#
# Indices 1 2 3 4 5 6 
#
# 1 0.012152 -0.004139 -0.000788 0.000000 0.000000 0.000000
# 2 -0.004139 0.009448 -0.004464 0.000000 0.000000 0.000000
# 3 -0.000788 -0.004464 0.014895 0.000000 0.000000 0.000000
# 4 0.000000 0.000000 0.000000 0.037966 0.000000 0.000000
# 5 0.000000 0.000000 0.000000 0.000000 0.462285 0.000000
# 6 0.000000 0.000000 0.000000 0.000000 0.000000 0.014541
#
#
# Mechanical properties :
#
#
# Convention : Reuss Voigt Hill
#
# Bulk Modulus (GPa) = 56.45676 65.66442 61.06059
# Shear Modulus (GPa) = 8.68096 33.62068 21.15082
#
# Velocity S-wave (km/s) = 2.13472 4.20108 3.33213
# Velocity P-wave (km/s) = 5.97603 7.61594 6.84527
#
# Compressibility (1/GPa) = 0.01771267
#
# Stress axis : x y z
#
# Youngs Moduli (GPa) = 82.29046 105.84364 67.13865
#
# Poissons Ratio (x) = 0.43805 0.05291
# Poissons Ratio (y) = 0.34057 0.29972
# Poissons Ratio (z) = 0.06485 0.47251
#
# Static dielectric constant tensor:
#      x y z
#    x 1.654720 0.000000 0.000000 
#    y 0.000000 1.696510 0.000000 
#    z 0.000000 0.000000 1.635480 
# 
# From -- ./inp_files/62398.got.cif
#   From: 2010.05.17/outbox.cif.g08.bks.cpg/sg63_32_cif.got.tgz:62398.got - 2010.06.03 15:47:04.
