data_PCOD9474165
_publ_section_title
;
Structure prediction by ZEFSAII (Michael W. Deem and Ramdas Pophale) SiO2 
 PCOD9474165
Probable space group: C M C M
;
_chemical_formula_sum "Si O2"
_cell_formula_units_Z 80
_cell_length_a 18.421505
_cell_length_b 26.226021
_cell_length_c 8.912256
_cell_angle_alpha 90.000000
_cell_angle_beta 90.000000
_cell_angle_gamma 90.000000
_cell_volume 4305.713868
_symmetry_space_group_name_H-M "C M C M"
_symmetry_group_IT_number 63
_symmetry_cell_setting 'orthorhombic'
loop_
_space_group_symop_operation_xyz
x,y,z
-x,-y,1/2+z
x,-y,-z
-x,y,1/2-z
-x,-y,-z
x,y,1/2-z
-x,y,z
x,-y,1/2+z
1/2+x,1/2+y,z
1/2-x,1/2-y,1/2+z
1/2+x,1/2-y,-z
1/2-x,1/2+y,1/2-z
1/2-x,1/2-y,-z
1/2+x,1/2+y,1/2-z
1/2-x,1/2+y,z
1/2+x,1/2-y,1/2+z
loop_
_atom_site_type_symbol
_atom_site_label
_atom_site_fract_x
_atom_site_fract_y
_atom_site_fract_z
Si Si1 0.841175 0.445477 0.570811
Si Si2 0.086023 0.652931 0.928237
Si Si3 0.415548 0.351389 0.069438
Si Si4 0.170096 0.251980 0.569720
Si Si5 0.169439 0.054362 0.071500
O O1 0.861028 0.500000 0.500000
O O2 0.851312 0.446547 0.750000
O O3 0.885760 0.399849 0.497519
O O4 0.755204 0.437120 0.540164
O O5 0.100219 0.653530 0.750000
O O6 0.000000 0.658164 0.952470
O O7 0.127878 0.699312 0.006184
O O8 0.412104 0.356654 0.250000
O O9 0.500000 0.348211 0.025832
O O10 0.373557 0.299472 0.029520
O O11 0.376776 0.399709 0.995852
O O12 0.174569 0.255220 0.750000
O O13 0.250000 0.250000 0.500000
O O14 0.160177 0.051939 0.250000
O O15 0.149172 0.000000 0.000000
#
# Coordination Sequence:
#
# PCOD9474165 Si02
#       5
#    16  16  16  16  16
#     4  10  21  38  61  87 116 152 195 241 290 346
#     4  11  24  40  59  86 120 156 195 240 290 346
#     4  10  22  39  58  82 114 151 189 231 282 339
#     4  11  23  40  63  88 116 152 194 240 291 348
#     4  10  21  37  59  86 114 148 190 235 283 336
#
# _framework density 18.579961999999998
#
# number of rings (size 3 to 8) (size 9 to 14) (size 15 to 20)
#    0.000    1.600    0.000    4.200    0.000   10.800 
#    0.000    0.000    0.000    0.000    0.000    0.000 
#    0.000    0.000    0.000    0.000    0.000    0.000 
#
# Total GULP energy -223679.399294 kJ/mol
# GULP energy per Si atom -5591.984982 kJ/mol
# Density = 1.853767 g / cm^3
# Si number density = 18.579962 Si / 1000 Ang^3
#
#
#
# Elastic Constant Matrix: (Units=GPa)
#
#
# Indices 1 2 3 4 5 6 
#
# 1 116.3309 107.7747 80.5076 0.0000 0.0000 0.0000
# 2 107.7747 190.1066 84.6389 0.0000 0.0000 0.0000
# 3 80.5076 84.6389 76.0269 0.0000 0.0000 0.0000
# 4 0.0000 0.0000 0.0000 41.0233 0.0000 0.0000
# 5 0.0000 0.0000 0.0000 0.0000 32.4801 0.0000
# 6 0.0000 0.0000 0.0000 0.0000 0.0000 816.3576
#
#
#
# Elastic Compliance Matrix: (Units=1/GPa)
#
#
# Indices 1 2 3 4 5 6 
#
# 1 0.036175 -0.006847 -0.030684 0.000000 0.000000 0.000000
# 2 -0.006847 0.011726 -0.005803 0.000000 0.000000 0.000000
# 3 -0.030684 -0.005803 0.052107 0.000000 0.000000 0.000000
# 4 0.000000 0.000000 0.000000 0.024376 0.000000 0.000000
# 5 0.000000 0.000000 0.000000 0.000000 0.030788 0.000000
# 6 0.000000 0.000000 0.000000 0.000000 0.000000 0.001225
#
#
# Mechanical properties :
#
#
# Convention : Reuss Voigt Hill
#
# Bulk Modulus (GPa) = 74.97416 103.14521 89.05969
# Shear Modulus (GPa) = 20.20109 185.27509 102.73809
#
# Velocity S-wave (km/s) = 3.30093 9.99671 7.44413
# Velocity P-wave (km/s) = 7.41404 13.74337 11.04192
#
# Compressibility (1/GPa) = 0.01333793
#
# Stress axis : x y z
#
# Youngs Moduli (GPa) = 27.64366 85.28336 19.19140
#
# Poissons Ratio (x) = 0.58392 0.58887
# Poissons Ratio (y) = 0.18927 0.11138
# Poissons Ratio (z) = 0.84822 0.49494
#
# Static dielectric constant tensor:
#      x y z
#    x 1.619290 0.000000 0.000000 
#    y 0.000000 1.598520 0.000000 
#    z 0.000000 0.000000 1.619000 
# 
# From -- ./inp_files/6435.got.cif
#   From: 2010.05.17/outbox.cif.g08.bks.cpg/sg63_4_cif.got.tgz:6435.got - 2010.06.03 15:47:04.
