data_PCOD9474401
_publ_section_title
;
Structure prediction by ZEFSAII (Michael W. Deem and Ramdas Pophale) SiO2 
 PCOD9474401
Probable space group: C M C M
;
_chemical_formula_sum "Si O2"
_cell_formula_units_Z 52
_cell_length_a 7.417635
_cell_length_b 10.304621
_cell_length_c 31.379805
_cell_angle_alpha 90.000000
_cell_angle_beta 90.000000
_cell_angle_gamma 90.000000
_cell_volume 2398.544183
_symmetry_space_group_name_H-M "C M C M"
_symmetry_group_IT_number 63
_symmetry_cell_setting 'orthorhombic'
loop_
_space_group_symop_operation_xyz
x,y,z
-x,-y,1/2+z
x,-y,-z
-x,y,1/2-z
-x,-y,-z
x,y,1/2-z
-x,y,z
x,-y,1/2+z
1/2+x,1/2+y,z
1/2-x,1/2-y,1/2+z
1/2+x,1/2-y,-z
1/2-x,1/2+y,1/2-z
1/2-x,1/2-y,-z
1/2+x,1/2+y,1/2-z
1/2-x,1/2+y,z
1/2+x,1/2-y,1/2+z
loop_
_atom_site_type_symbol
_atom_site_label
_atom_site_fract_x
_atom_site_fract_y
_atom_site_fract_z
Si Si1 0.293008 0.919675 0.324211
Si Si2 0.218047 0.671991 0.377660
Si Si3 0.715302 0.878765 0.973188
Si Si4 0.500000 0.376024 0.250000
O O1 0.500000 0.932784 0.309135
O O2 0.287555 0.808565 0.360295
O O3 0.157493 0.880032 0.287203
O O4 0.236004 0.056277 0.345150
O O5 0.283305 0.637702 0.425043
O O6 0.000000 0.679908 0.378614
O O7 0.500000 0.897046 0.969260
O O8 0.750000 0.750000 0.000000
O O9 0.787676 0.000000 0.000000
#
# Coordination Sequence:
#
# PCOD9474401 Si02
#       4
#    16  16  16   4
#     4  11  25  45  69  97 130 178 214 273 336 390
#     4  10  22  43  65  96 138 174 219 271 328 389
#     4  10  21  38  62  97 135 172 216 268 313 380
#     4  12  26  48  68 100 132 164 228 278 326 402
#
# _framework density 21.679818999999998
#
# number of rings (size 3 to 8) (size 9 to 14) (size 15 to 20)
#    0.000    1.538    1.538    2.308    2.154    5.538 
#    0.000    0.000    0.000    0.000    0.000    0.000 
#    0.000    0.000    0.000    0.000    0.000    0.000 
#
# Total GULP energy -144905.021796 kJ/mol
# GULP energy per Si atom -5573.270069 kJ/mol
# Density = 2.163047 g / cm^3
# Si number density = 21.679819 Si / 1000 Ang^3
#
#
#
# Elastic Constant Matrix: (Units=GPa)
#
#
# Indices 1 2 3 4 5 6 
#
# 1 100.7534 -14.2036 23.3837 0.0000 0.0000 0.0000
# 2 -14.2036 76.4114 -19.9130 0.0000 0.0000 0.0000
# 3 23.3837 -19.9130 92.5731 0.0000 0.0000 0.0000
# 4 0.0000 0.0000 0.0000 -18.7262 0.0000 0.0000
# 5 0.0000 0.0000 0.0000 0.0000 40.9632 0.0000
# 6 0.0000 0.0000 0.0000 0.0000 0.0000 20.9200
#
#
#
# Elastic Compliance Matrix: (Units=1/GPa)
#
#
# Indices 1 2 3 4 5 6 
#
# 1 0.010675 0.001358 -0.002404 0.000000 0.000000 0.000000
# 2 0.001358 0.014037 0.002676 0.000000 0.000000 0.000000
# 3 -0.002404 0.002676 0.011985 0.000000 0.000000 0.000000
# 4 0.000000 0.000000 0.000000 -0.053401 0.000000 0.000000
# 5 0.000000 0.000000 0.000000 0.000000 0.024412 0.000000
# 6 0.000000 0.000000 0.000000 0.000000 0.000000 0.047801
#
#
# Mechanical properties :
#
#
# Convention : Reuss Voigt Hill
#
# Bulk Modulus (GPa) = 25.02721 27.58576 26.30649
# Shear Modulus (GPa) = 76.25645 27.32947 51.79296
#
# Velocity S-wave (km/s) = 5.93720 3.55434 4.89304
# Velocity P-wave (km/s) = 7.65307 5.44024 6.63949
#
# Compressibility (1/GPa) = 0.03995651
#
# Stress axis : x y z
#
# Youngs Moduli (GPa) = 93.68000 71.24073 83.43534
#
# Poissons Ratio (x) = -0.09672 0.20061
# Poissons Ratio (y) = -0.12719 -0.22331
# Poissons Ratio (z) = 0.22524 -0.19067
#
# Static dielectric constant tensor:
#      x y z
#    x 1.805930 0.000000 0.000000 
#    y 0.000000 1.741450 0.000000 
#    z 0.000000 0.000000 1.747970 
# 
# From -- ./inp_files/66042.got.cif
#   From: 2010.05.17/outbox.cif.g08.bks.cpg/sg63_34_cif.got.tgz:66042.got - 2010.06.03 15:47:04.
