data_PCOD9474383
_publ_section_title
;
Structure prediction by ZEFSAII (Michael W. Deem and Ramdas Pophale) SiO2 
 PCOD9474383
Probable space group: C M C M
;
_chemical_formula_sum "Si O2"
_cell_formula_units_Z 64
_cell_length_a 24.760028
_cell_length_b 14.350947
_cell_length_c 8.721709
_cell_angle_alpha 90.000000
_cell_angle_beta 90.000000
_cell_angle_gamma 90.000000
_cell_volume 3099.083547
_symmetry_space_group_name_H-M "C M C M"
_symmetry_group_IT_number 63
_symmetry_cell_setting 'orthorhombic'
loop_
_space_group_symop_operation_xyz
x,y,z
-x,-y,1/2+z
x,-y,-z
-x,y,1/2-z
-x,-y,-z
x,y,1/2-z
-x,y,z
x,-y,1/2+z
1/2+x,1/2+y,z
1/2-x,1/2-y,1/2+z
1/2+x,1/2-y,-z
1/2-x,1/2+y,1/2-z
1/2-x,1/2-y,-z
1/2+x,1/2+y,1/2-z
1/2-x,1/2+y,z
1/2+x,1/2-y,1/2+z
loop_
_atom_site_type_symbol
_atom_site_label
_atom_site_fract_x
_atom_site_fract_y
_atom_site_fract_z
Si Si1 0.660056 0.395457 0.432507
Si Si2 0.439597 0.717716 0.433018
Si Si3 0.608049 0.103848 0.066482
Si Si4 0.770007 0.605053 0.433111
O O1 0.656953 0.500000 0.500000
O O2 0.661979 0.398975 0.250000
O O3 0.607541 0.340901 0.488024
O O4 0.716611 0.351661 0.492134
O O5 0.433427 0.712497 0.250000
O O6 0.500000 0.685152 0.473532
O O7 0.431855 0.823707 0.488284
O O8 0.601268 0.101926 0.250000
O O9 0.669467 0.139644 0.034340
O O10 0.602586 0.000000 0.000000
O O11 0.771126 0.500000 0.500000
O O12 0.762985 0.602802 0.250000
#
# Coordination Sequence:
#
# PCOD9474383 Si02
#       4
#    16  16  16  16
#     4  11  22  38  62  89 119 154 190 235 290 346
#     4  11  25  43  61  83 113 152 200 248 290 339
#     4  10  21  38  62  90 120 155 192 236 290 344
#     4   9  17  32  56  87 120 151 187 231 282 343
#
# _framework density 20.651267000000001
#
# number of rings (size 3 to 8) (size 9 to 14) (size 15 to 20)
#    0.000    1.750    0.000    6.000    0.000    7.000 
#    0.000    0.000    0.000    0.000    0.000    0.000 
#    0.000    0.000    0.000    0.000    0.000    0.000 
#
# Total GULP energy -178839.853968 kJ/mol
# GULP energy per Si atom -5588.745437 kJ/mol
# Density = 2.060426 g / cm^3
# Si number density = 20.651267 Si / 1000 Ang^3
#
#
#
# Elastic Constant Matrix: (Units=GPa)
#
#
# Indices 1 2 3 4 5 6 
#
# 1 103.7452 11.0133 51.0815 0.0000 0.0000 0.0000
# 2 11.0133 45.8381 9.1240 0.0000 0.0000 0.0000
# 3 51.0815 9.1240 100.7745 0.0000 0.0000 0.0000
# 4 0.0000 0.0000 0.0000 28.0037 0.0000 0.0000
# 5 0.0000 0.0000 0.0000 0.0000 41.6189 0.0000
# 6 0.0000 0.0000 0.0000 0.0000 0.0000 28.5363
#
#
#
# Elastic Compliance Matrix: (Units=1/GPa)
#
#
# Indices 1 2 3 4 5 6 
#
# 1 0.012996 -0.001845 -0.006421 0.000000 0.000000 0.000000
# 2 -0.001845 0.022478 -0.001100 0.000000 0.000000 0.000000
# 3 -0.006421 -0.001100 0.013277 0.000000 0.000000 0.000000
# 4 0.000000 0.000000 0.000000 0.035710 0.000000 0.000000
# 5 0.000000 0.000000 0.000000 0.000000 0.024028 0.000000
# 6 0.000000 0.000000 0.000000 0.000000 0.000000 0.035043
#
#
# Mechanical properties :
#
#
# Convention : Reuss Voigt Hill
#
# Bulk Modulus (GPa) = 33.31011 43.64395 38.47703
# Shear Modulus (GPa) = 29.02430 31.57435 30.29933
#
# Velocity S-wave (km/s) = 3.75300 3.91440 3.83455
# Velocity P-wave (km/s) = 5.91142 6.45056 6.18686
#
# Compressibility (1/GPa) = 0.03002092
#
# Stress axis : x y z
#
# Youngs Moduli (GPa) = 76.94583 44.48777 75.31659
#
# Poissons Ratio (x) = 0.08206 0.48358
# Poissons Ratio (y) = 0.14193 0.08286
# Poissons Ratio (z) = 0.49404 0.04894
#
# Static dielectric constant tensor:
#      x y z
#    x 1.762350 0.000000 0.000000 
#    y 0.000000 1.750600 0.000000 
#    z 0.000000 0.000000 1.676270 
# 
# From -- ./inp_files/9606.got.cif
#   From: 2010.05.17/outbox.cif.g08.bks.cpg/sg63_5_cif.got.tgz:9606.got - 2010.06.03 15:47:04.
