data_PCOD9474997
_publ_section_title
;
Structure prediction by ZEFSAII (Michael W. Deem and Ramdas Pophale) SiO2 
 PCOD9474997
Probable space group: C M C M
;
_chemical_formula_sum "Si O2"
_cell_formula_units_Z 80
_cell_length_a 13.580300
_cell_length_b 7.945974
_cell_length_c 27.923612
_cell_angle_alpha 90.000000
_cell_angle_beta 90.000000
_cell_angle_gamma 90.000000
_cell_volume 3013.200969
_symmetry_space_group_name_H-M "C M C M"
_symmetry_group_IT_number 63
_symmetry_cell_setting 'orthorhombic'
loop_
_space_group_symop_operation_xyz
x,y,z
-x,-y,1/2+z
x,-y,-z
-x,y,1/2-z
-x,-y,-z
x,y,1/2-z
-x,y,z
x,-y,1/2+z
1/2+x,1/2+y,z
1/2-x,1/2-y,1/2+z
1/2+x,1/2-y,-z
1/2-x,1/2+y,1/2-z
1/2-x,1/2-y,-z
1/2+x,1/2+y,1/2-z
1/2-x,1/2+y,z
1/2+x,1/2-y,1/2+z
loop_
_atom_site_type_symbol
_atom_site_label
_atom_site_fract_x
_atom_site_fract_y
_atom_site_fract_z
Si Si1 0.383224 0.124232 0.443411
Si Si2 0.115972 0.028491 0.617243
Si Si3 0.382652 0.067953 0.851813
Si Si4 0.117311 0.173349 0.030099
Si Si5 0.214236 0.239915 0.806689
O O1 0.500000 0.098157 0.449800
O O2 0.374231 0.296996 0.413017
O O3 0.353320 0.976379 0.406905
O O4 0.344697 0.175771 0.496150
O O5 0.156847 0.883154 0.581846
O O6 0.162677 0.081242 0.667315
O O7 0.000000 0.996719 0.623391
O O8 0.500000 0.086141 0.849800
O O9 0.347845 0.903436 0.822012
O O10 0.324004 0.221464 0.828434
O O11 0.000000 0.203352 0.036427
O O12 0.124160 0.000000 0.000000
O O13 0.216924 0.225657 0.750000
#
# Coordination Sequence:
#
# PCOD9474997 Si02
#       5
#    16  16  16  16  16
#     4   7  11  23  46  73 102 139 177 217 272 331
#     4   8  14  25  44  74 110 143 179 227 276 324
#     4  10  22  41  62  85 116 150 186 235 289 337
#     4   7   9  17  38  69 103 137 173 216 268 324
#     4  11  22  36  57  83 111 149 196 237 279 337
#
# _framework density 26.549838000000001
#
# number of rings (size 3 to 8) (size 9 to 14) (size 15 to 20)
#    0.000    3.400    0.000    4.800    0.000    2.800 
#    0.000    3.000    0.000    4.800    0.000    0.000 
#    0.000   26.400    0.000    0.000    0.000    0.000 
#
# Total GULP energy -223873.884994 kJ/mol
# GULP energy per Si atom -5596.847125 kJ/mol
# Density = 2.648941 g / cm^3
# Si number density = 26.549838 Si / 1000 Ang^3
#
#
#
# Elastic Constant Matrix: (Units=GPa)
#
#
# Indices 1 2 3 4 5 6 
#
# 1 148.0761 25.7129 41.9284 0.0000 0.0000 0.0000
# 2 25.7129 164.1944 31.7590 0.0000 0.0000 0.0000
# 3 41.9284 31.7590 222.9426 0.0000 0.0000 0.0000
# 4 0.0000 0.0000 0.0000 27.5577 0.0000 0.0000
# 5 0.0000 0.0000 0.0000 0.0000 39.0171 0.0000
# 6 0.0000 0.0000 0.0000 0.0000 0.0000 30.5714
#
#
#
# Elastic Compliance Matrix: (Units=1/GPa)
#
#
# Indices 1 2 3 4 5 6 
#
# 1 0.007260 -0.000897 -0.001237 0.000000 0.000000 0.000000
# 2 -0.000897 0.006374 -0.000739 0.000000 0.000000 0.000000
# 3 -0.001237 -0.000739 0.004823 0.000000 0.000000 0.000000
# 4 0.000000 0.000000 0.000000 0.036287 0.000000 0.000000
# 5 0.000000 0.000000 0.000000 0.000000 0.025630 0.000000
# 6 0.000000 0.000000 0.000000 0.000000 0.000000 0.032710
#
#
# Mechanical properties :
#
#
# Convention : Reuss Voigt Hill
#
# Bulk Modulus (GPa) = 78.68669 81.55707 80.12188
# Shear Modulus (GPa) = 40.62767 48.48343 44.55555
#
# Velocity S-wave (km/s) = 3.91607 4.27796 4.10101
# Velocity P-wave (km/s) = 7.08161 7.42876 7.25726
#
# Compressibility (1/GPa) = 0.01270863
#
# Stress axis : x y z
#
# Youngs Moduli (GPa) = 137.75020 156.89062 207.31911
#
# Poissons Ratio (x) = 0.14081 0.25654
# Poissons Ratio (y) = 0.12363 0.15325
# Poissons Ratio (z) = 0.17046 0.11597
#
# Static dielectric constant tensor:
#      x y z
#    x 2.101980 0.000000 0.000000 
#    y 0.000000 2.164510 0.000000 
#    z 0.000000 0.000000 2.040700 
# 
# From -- ./inp_files/72504.got.cif
#   From: 2010.05.17/outbox.cif.g08.bks.cpg/sg63_37_cif.got.tgz:72504.got - 2010.06.03 15:47:04.
