data_PCOD9474986
_publ_section_title
;
Structure prediction by ZEFSAII (Michael W. Deem and Ramdas Pophale) SiO2 
 PCOD9474986
Probable space group: C M C M
;
_chemical_formula_sum "Si O2"
_cell_formula_units_Z 96
_cell_length_a 23.811940
_cell_length_b 24.934824
_cell_length_c 8.192917
_cell_angle_alpha 90.000000
_cell_angle_beta 90.000000
_cell_angle_gamma 90.000000
_cell_volume 4864.516064
_symmetry_space_group_name_H-M "C M C M"
_symmetry_group_IT_number 63
_symmetry_cell_setting 'orthorhombic'
loop_
_space_group_symop_operation_xyz
x,y,z
-x,-y,1/2+z
x,-y,-z
-x,y,1/2-z
-x,-y,-z
x,y,1/2-z
-x,y,z
x,-y,1/2+z
1/2+x,1/2+y,z
1/2-x,1/2-y,1/2+z
1/2+x,1/2-y,-z
1/2-x,1/2+y,1/2-z
1/2-x,1/2-y,-z
1/2+x,1/2+y,1/2-z
1/2-x,1/2+y,z
1/2+x,1/2-y,1/2+z
loop_
_atom_site_type_symbol
_atom_site_label
_atom_site_fract_x
_atom_site_fract_y
_atom_site_fract_z
Si Si1 0.237088 0.835572 0.550710
Si Si2 0.872434 0.224605 0.053179
Si Si3 0.328422 0.558308 0.445794
Si Si4 0.936998 0.116880 0.050707
Si Si5 0.435718 0.058939 0.944531
Si Si6 0.864592 0.661020 0.055998
O O1 0.237910 0.832894 0.750000
O O2 0.190903 0.791663 0.496491
O O3 0.211520 0.893123 0.502482
O O4 0.300692 0.833517 0.490420
O O5 0.871602 0.226257 0.250000
O O6 0.912512 0.175245 0.005107
O O7 0.891746 0.282036 0.989806
O O8 0.310329 0.500000 0.500000
O O9 0.329209 0.559453 0.250000
O O10 0.391181 0.573372 0.504033
O O11 0.937852 0.115871 0.250000
O O12 0.000000 0.108253 0.991928
O O13 0.437999 0.058345 0.750000
O O14 0.500000 0.065587 0.008043
O O15 0.397166 0.108722 0.995378
O O16 0.415465 0.000000 0.000000
O O17 0.861450 0.656647 0.250000
#
# Coordination Sequence:
#
# PCOD9474986 Si02
#       6
#    16  16  16  16  16  16
#     4   8  17  33  50  70 101 140 175 210 252 299
#     4   9  17  32  52  73 101 137 177 216 252 293
#     4   9  17  31  49  69  96 129 166 206 248 293
#     4   8  15  29  49  70  94 129 169 206 246 293
#     4  10  22  41  61  79 102 132 166 206 253 305
#     4  11  21  33  53  80 107 134 167 206 252 307
#
# _framework density 19.734749000000001
#
# number of rings (size 3 to 8) (size 9 to 14) (size 15 to 20)
#    0.000    2.833    0.000    3.500    0.000    2.667 
#    0.000    9.167    0.000    1.000    0.000    0.000 
#    0.000    0.000    0.000    0.000    0.000    0.000 
#
# Total GULP energy -267661.229721 kJ/mol
# GULP energy per Si atom -5576.275619 kJ/mol
# Density = 1.968983 g / cm^3
# Si number density = 19.734749 Si / 1000 Ang^3
#
#
#
# Elastic Constant Matrix: (Units=GPa)
#
#
# Indices 1 2 3 4 5 6 
#
# 1 24.7158 6.3188 0.3805 0.0000 0.0000 0.0000
# 2 6.3188 129.1105 7.9379 0.0000 0.0000 0.0000
# 3 0.3805 7.9379 16.1734 0.0000 0.0000 0.0000
# 4 0.0000 0.0000 0.0000 31.0127 0.0000 0.0000
# 5 0.0000 0.0000 0.0000 0.0000 14.4097 0.0000
# 6 0.0000 0.0000 0.0000 0.0000 0.0000 14.4189
#
#
#
# Elastic Compliance Matrix: (Units=1/GPa)
#
#
# Indices 1 2 3 4 5 6 
#
# 1 0.040973 -0.002007 0.000021 0.000000 0.000000 0.000000
# 2 -0.002007 0.008085 -0.003921 0.000000 0.000000 0.000000
# 3 0.000021 -0.003921 0.063754 0.000000 0.000000 0.000000
# 4 0.000000 0.000000 0.000000 0.032245 0.000000 0.000000
# 5 0.000000 0.000000 0.000000 0.000000 0.069398 0.000000
# 6 0.000000 0.000000 0.000000 0.000000 0.000000 0.069354
#
#
# Mechanical properties :
#
#
# Convention : Reuss Voigt Hill
#
# Bulk Modulus (GPa) = 9.90117 22.14156 16.02136
# Shear Modulus (GPa) = 15.18439 22.32575 18.75507
#
# Velocity S-wave (km/s) = 2.77686 3.36712 3.08613
# Velocity P-wave (km/s) = 3.91271 5.13425 4.56453
#
# Compressibility (1/GPa) = 0.10099819
#
# Stress axis : x y z
#
# Youngs Moduli (GPa) = 24.40656 123.69274 15.68540
#
# Poissons Ratio (x) = 0.24819 -0.00033
# Poissons Ratio (y) = 0.04897 0.06150
# Poissons Ratio (z) = -0.00051 0.48496
#
# Static dielectric constant tensor:
#      x y z
#    x 1.721260 0.000000 0.000000 
#    y 0.000000 1.673990 0.000000 
#    z 0.000000 0.000000 1.690520 
# 
# From -- ./inp_files/10482.got.cif
#   From: 2010.05.17/outbox.cif.g08.bks.cpg/sg63_6_cif.got.tgz:10482.got - 2010.06.03 15:47:04.
