data_PCOD9474063
_publ_section_title
;
Structure prediction by ZEFSAII (Michael W. Deem and Ramdas Pophale) SiO2 
 PCOD9474063
Probable space group: C M C M
;
_chemical_formula_sum "Si O2"
_cell_formula_units_Z 96
_cell_length_a 22.062761
_cell_length_b 25.453806
_cell_length_c 8.979317
_cell_angle_alpha 90.000000
_cell_angle_beta 90.000000
_cell_angle_gamma 90.000000
_cell_volume 5042.615960
_symmetry_space_group_name_H-M "C M C M"
_symmetry_group_IT_number 63
_symmetry_cell_setting 'orthorhombic'
loop_
_space_group_symop_operation_xyz
x,y,z
-x,-y,1/2+z
x,-y,-z
-x,y,1/2-z
-x,-y,-z
x,y,1/2-z
-x,y,z
x,-y,1/2+z
1/2+x,1/2+y,z
1/2-x,1/2-y,1/2+z
1/2+x,1/2-y,-z
1/2-x,1/2+y,1/2-z
1/2-x,1/2-y,-z
1/2+x,1/2+y,1/2-z
1/2-x,1/2+y,z
1/2+x,1/2-y,1/2+z
loop_
_atom_site_type_symbol
_atom_site_label
_atom_site_fract_x
_atom_site_fract_y
_atom_site_fract_z
Si Si1 0.739647 0.196157 0.580437
Si Si2 0.230753 0.083874 0.930787
Si Si3 0.398874 0.158249 0.922358
Si Si4 0.140743 0.446102 0.572107
Si Si5 0.000000 0.142258 0.929756
Si Si6 0.404909 0.553714 0.571577
Si Si7 0.500000 0.241864 0.929839
O O1 0.759127 0.203002 0.750000
O O2 0.750000 0.250000 0.500000
O O3 0.773540 0.144833 0.521324
O O4 0.669212 0.180524 0.576160
O O5 0.240501 0.082016 0.750000
O O6 0.166292 0.058789 0.965752
O O7 0.290319 0.061101 0.009593
O O8 0.414146 0.145135 0.750000
O O9 0.442920 0.205038 0.972037
O O10 0.396599 0.104944 0.017455
O O11 0.117151 0.500000 0.500000
O O12 0.141871 0.449245 0.750000
O O13 0.942367 0.105728 0.972446
O O14 0.000000 0.147948 0.750000
O O15 0.000000 0.200253 0.999696
O O16 0.428294 0.500000 0.500000
O O17 0.410168 0.549786 0.750000
O O18 0.500000 0.247829 0.750000
#
# Coordination Sequence:
#
# PCOD9474063 Si02
#       7
#    16  16  16  16   8  16   8
#     4   9  18  31  50  76 110 144 178 224 273 327
#     4   9  19  35  53  78 114 150 186 230 282 333
#     4   9  20  39  58  81 113 148 185 232 280 327
#     4  11  21  35  58  87 116 148 185 226 278 338
#     4  10  23  39  57  81 111 148 189 236 288 336
#     4  10  21  37  56  80 111 149 190 236 285 333
#     4  10  22  41  64  85 111 148 190 234 283 332
#
# _framework density 19.037737
#
# number of rings (size 3 to 8) (size 9 to 14) (size 15 to 20)
#    0.000    2.333    0.000    3.250    2.333    6.000 
#    0.000    0.417    0.000    0.000    0.000    0.000 
#    0.000    0.000    0.000    0.000    0.000    0.000 
#
# Total GULP energy -267741.084555 kJ/mol
# GULP energy per Si atom -5577.939262 kJ/mol
# Density = 1.899441 g / cm^3
# Si number density = 19.037737 Si / 1000 Ang^3
#
#
#
# Elastic Constant Matrix: (Units=GPa)
#
#
# Indices 1 2 3 4 5 6 
#
# 1 60.6792 49.1324 21.4538 0.0000 0.0000 0.0000
# 2 49.1324 200.1723 64.2861 0.0000 0.0000 0.0000
# 3 21.4538 64.2861 53.9368 0.0000 0.0000 0.0000
# 4 0.0000 0.0000 0.0000 39.8591 0.0000 0.0000
# 5 0.0000 0.0000 0.0000 0.0000 15.6066 0.0000
# 6 0.0000 0.0000 0.0000 0.0000 0.0000 15.1404
#
#
#
# Elastic Compliance Matrix: (Units=1/GPa)
#
#
# Indices 1 2 3 4 5 6 
#
# 1 0.020985 -0.004002 -0.003577 0.000000 0.000000 0.000000
# 2 -0.004002 0.008857 -0.008965 0.000000 0.000000 0.000000
# 3 -0.003577 -0.008965 0.030648 0.000000 0.000000 0.000000
# 4 0.000000 0.000000 0.000000 0.025088 0.000000 0.000000
# 5 0.000000 0.000000 0.000000 0.000000 0.064076 0.000000
# 6 0.000000 0.000000 0.000000 0.000000 0.000000 0.066048
#
#
# Mechanical properties :
#
#
# Convention : Reuss Voigt Hill
#
# Bulk Modulus (GPa) = 36.49301 64.94811 50.72056
# Shear Modulus (GPa) = 19.38552 26.11562 22.75057
#
# Velocity S-wave (km/s) = 3.19449 3.70778 3.46066
# Velocity P-wave (km/s) = 5.72859 7.24704 6.53209
#
# Compressibility (1/GPa) = 0.02740251
#
# Stress axis : x y z
#
# Youngs Moduli (GPa) = 47.65233 112.90461 32.62873
#
# Poissons Ratio (x) = 0.45185 0.11672
# Poissons Ratio (y) = 0.19071 0.29251
# Poissons Ratio (z) = 0.17046 1.01215
#
# Static dielectric constant tensor:
#      x y z
#    x 1.679180 0.000000 0.000000 
#    y 0.000000 1.663680 0.000000 
#    z 0.000000 0.000000 1.648230 
# 
# From -- ./inp_files/10546.got.cif
#   From: 2010.05.17/outbox.cif.g08.bks.cpg/sg63_6_cif.got.tgz:10546.got - 2010.06.03 15:47:04.
