data_PCOD9474764
_publ_section_title
;
Structure prediction by ZEFSAII (Michael W. Deem and Ramdas Pophale) SiO2 
 PCOD9474764
Probable space group: C M C M
;
_chemical_formula_sum "Si O2"
_cell_formula_units_Z 68
_cell_length_a 18.831307
_cell_length_b 18.245812
_cell_length_c 9.834863
_cell_angle_alpha 90.000000
_cell_angle_beta 90.000000
_cell_angle_gamma 90.000000
_cell_volume 3379.185040
_symmetry_space_group_name_H-M "C M C M"
_symmetry_group_IT_number 63
_symmetry_cell_setting 'orthorhombic'
loop_
_space_group_symop_operation_xyz
x,y,z
-x,-y,1/2+z
x,-y,-z
-x,y,1/2-z
-x,-y,-z
x,y,1/2-z
-x,y,z
x,-y,1/2+z
1/2+x,1/2+y,z
1/2-x,1/2-y,1/2+z
1/2+x,1/2-y,-z
1/2-x,1/2+y,1/2-z
1/2-x,1/2-y,-z
1/2+x,1/2+y,1/2-z
1/2-x,1/2+y,z
1/2+x,1/2-y,1/2+z
loop_
_atom_site_type_symbol
_atom_site_label
_atom_site_fract_x
_atom_site_fract_y
_atom_site_fract_z
Si Si1 0.673251 0.079208 0.750000
Si Si2 0.381421 0.678706 0.033475
Si Si3 0.873592 0.411884 0.750000
Si Si4 0.421503 0.152232 0.974113
Si Si5 0.241686 0.802652 0.750000
Si Si6 0.000000 0.867047 0.750000
Si Si7 0.179174 0.144980 0.750000
O O1 0.639721 0.120912 0.621570
O O2 0.757819 0.085841 0.750000
O O3 0.646228 0.996600 0.750000
O O4 0.308415 0.688279 0.118422
O O5 0.437676 0.638989 0.130679
O O6 0.409831 0.761189 0.008316
O O7 0.365932 0.642095 0.888314
O O8 0.915806 0.388806 0.883634
O O9 0.801961 0.363870 0.750000
O O10 0.500000 0.140933 0.913914
O O11 0.280187 0.723863 0.750000
#
# Coordination Sequence:
#
# PCOD9474764 Si02
#       7
#     8  16   8  16   8   4   8
#     4  12  26  40  59  85 126 168 205 251 300 358
#     4  11  21  36  63  91 118 155 204 259 307 357
#     4  12  26  40  55  88 127 165 206 249 295 359
#     4  12  23  38  60  85 123 167 210 244 296 362
#     4  11  20  37  61  86 116 162 206 255 311 348
#     4  10  22  38  56  94 130 144 190 258 326 372
#     4  12  21  37  63  90 114 158 213 256 306 358
#
# _framework density 20.123194999999999
#
# number of rings (size 3 to 8) (size 9 to 14) (size 15 to 20)
#    0.000    0.471    5.882    4.235    0.000    3.294 
#    0.000    0.000    0.000    0.000    0.000   13.176 
#    0.000    0.000    0.000    0.000    0.000    0.000 
#
# Total GULP energy -189671.468404 kJ/mol
# GULP energy per Si atom -5578.572600 kJ/mol
# Density = 2.007739 g / cm^3
# Si number density = 20.123195 Si / 1000 Ang^3
#
#
#
# Elastic Constant Matrix: (Units=GPa)
#
#
# Indices 1 2 3 4 5 6 
#
# 1 113.1197 6.2765 48.4616 0.0000 0.0000 0.0000
# 2 6.2765 20.9492 0.3033 0.0000 0.0000 0.0000
# 3 48.4616 0.3033 170.2013 0.0000 0.0000 0.0000
# 4 0.0000 0.0000 0.0000 28.7787 0.0000 0.0000
# 5 0.0000 0.0000 0.0000 0.0000 40.6546 0.0000
# 6 0.0000 0.0000 0.0000 0.0000 0.0000 -2.8452
#
#
#
# Elastic Compliance Matrix: (Units=1/GPa)
#
#
# Indices 1 2 3 4 5 6 
#
# 1 0.010257 -0.003031 -0.002915 0.000000 0.000000 0.000000
# 2 -0.003031 0.048631 0.000776 0.000000 0.000000 0.000000
# 3 -0.002915 0.000776 0.006704 0.000000 0.000000 0.000000
# 4 0.000000 0.000000 0.000000 0.034748 0.000000 0.000000
# 5 0.000000 0.000000 0.000000 0.000000 0.024597 0.000000
# 6 0.000000 0.000000 0.000000 0.000000 0.000000 -0.351464
#
#
# Mechanical properties :
#
#
# Convention : Reuss Voigt Hill
#
# Bulk Modulus (GPa) = 18.09848 46.03922 32.06885
# Shear Modulus (GPa) = -25.28206 29.93285 2.32540
#
# Velocity S-wave (km/s) = -3.54837 3.86097 1.07615
# Velocity P-wave (km/s) = 2.78828 6.54251 4.18509
#
# Compressibility (1/GPa) = 0.05525326
#
# Stress axis : x y z
#
# Youngs Moduli (GPa) = 97.49202 20.56281 149.16361
#
# Poissons Ratio (x) = 0.06232 0.43484
# Poissons Ratio (y) = 0.29549 -0.11580
# Poissons Ratio (z) = 0.28420 -0.01596
#
# Static dielectric constant tensor:
#      x y z
#    x 1.704110 0.000000 0.000000 
#    y 0.000000 1.680270 0.000000 
#    z 0.000000 0.000000 1.826800 
# 
# From -- ./inp_files/5935.got.cif
#   From: 2010.05.17/outbox.cif.g08.bks.cpg/sg63_3_cif.got.tgz:5935.got - 2010.06.03 15:47:04.
