data_PCOD9474809
_publ_section_title
;
Structure prediction by ZEFSAII (Michael W. Deem and Ramdas Pophale) SiO2 
 PCOD9474809
Probable space group: C M C M
;
_chemical_formula_sum "Si O2"
_cell_formula_units_Z 68
_cell_length_a 9.701474
_cell_length_b 19.829510
_cell_length_c 17.670203
_cell_angle_alpha 90.000000
_cell_angle_beta 90.000000
_cell_angle_gamma 90.000000
_cell_volume 3399.313708
_symmetry_space_group_name_H-M "C M C M"
_symmetry_group_IT_number 63
_symmetry_cell_setting 'orthorhombic'
loop_
_space_group_symop_operation_xyz
x,y,z
-x,-y,1/2+z
x,-y,-z
-x,y,1/2-z
-x,-y,-z
x,y,1/2-z
-x,y,z
x,-y,1/2+z
1/2+x,1/2+y,z
1/2-x,1/2-y,1/2+z
1/2+x,1/2-y,-z
1/2-x,1/2+y,1/2-z
1/2-x,1/2-y,-z
1/2+x,1/2+y,1/2-z
1/2-x,1/2+y,z
1/2+x,1/2-y,1/2+z
loop_
_atom_site_type_symbol
_atom_site_label
_atom_site_fract_x
_atom_site_fract_y
_atom_site_fract_z
Si Si1 0.000000 0.302132 0.551993
Si Si2 0.263278 0.643178 0.122454
Si Si3 0.000000 0.846451 0.505285
Si Si4 0.000000 0.167125 0.250000
Si Si5 0.784738 0.504968 0.661700
Si Si6 0.500000 0.065525 0.946255
Si Si7 0.000000 0.967737 0.085093
O O1 0.139814 0.306519 0.601264
O O2 0.000000 0.366836 0.495368
O O3 0.000000 0.233214 0.505487
O O4 0.360430 0.632608 0.049085
O O5 0.376487 0.664079 0.184615
O O6 0.186152 0.573960 0.146128
O O7 0.000000 0.887909 0.427988
O O8 0.803615 0.519144 0.750000
O O9 0.629177 0.510565 0.634015
O O10 0.870811 0.554941 0.609076
O O11 0.500000 0.000000 0.000000
O O12 0.000000 0.000000 0.000000
#
# Coordination Sequence:
#
# PCOD9474809 Si02
#       7
#     8  16   8   4  16   8   8
#     4  12  25  41  66  95 133 171 221 266 317 389
#     4  11  21  39  67  96 125 167 215 268 320 385
#     4  11  24  40  65  96 127 170 219 268 321 372
#     4  10  22  38  64  96 130 160 216 268 326 384
#     4  12  23  38  65  97 131 162 213 274 334 381
#     4  12  23  41  64  97 127 167 218 269 320 382
#     4  12  21  38  69  97 122 161 222 275 314 380
#
# _framework density 20.004038000000001
#
# number of rings (size 3 to 8) (size 9 to 14) (size 15 to 20)
#    0.000    0.471    5.882    4.235    0.000    0.471 
#    0.000    0.000   25.882    0.000    0.000    0.000 
#    0.000    0.000    0.000    0.000    0.000    0.000 
#
# Total GULP energy -189372.958323 kJ/mol
# GULP energy per Si atom -5569.792892 kJ/mol
# Density = 1.995851 g / cm^3
# Si number density = 20.004038 Si / 1000 Ang^3
#
#
#
# Elastic Constant Matrix: (Units=GPa)
#
#
# Indices 1 2 3 4 5 6 
#
# 1 106.5415 1.2406 19.8045 0.0000 0.0000 0.0000
# 2 1.2406 83.6249 36.4331 0.0000 0.0000 0.0000
# 3 19.8045 36.4331 98.6994 0.0000 0.0000 0.0000
# 4 0.0000 0.0000 0.0000 15.2143 0.0000 0.0000
# 5 0.0000 0.0000 0.0000 0.0000 45.0835 0.0000
# 6 0.0000 0.0000 0.0000 0.0000 0.0000 20.3730
#
#
#
# Elastic Compliance Matrix: (Units=1/GPa)
#
#
# Indices 1 2 3 4 5 6 
#
# 1 0.009800 0.000848 -0.002279 0.000000 0.000000 0.000000
# 2 0.000848 0.014323 -0.005457 0.000000 0.000000 0.000000
# 3 -0.002279 -0.005457 0.012604 0.000000 0.000000 0.000000
# 4 0.000000 0.000000 0.000000 0.065728 0.000000 0.000000
# 5 0.000000 0.000000 0.000000 0.000000 0.022181 0.000000
# 6 0.000000 0.000000 0.000000 0.000000 0.000000 0.049085
#
#
# Mechanical properties :
#
#
# Convention : Reuss Voigt Hill
#
# Bulk Modulus (GPa) = 43.57523 44.86914 44.22219
# Shear Modulus (GPa) = 25.62171 31.56000 28.59086
#
# Velocity S-wave (km/s) = 3.58275 3.97631 3.78465
# Velocity P-wave (km/s) = 6.24061 6.60001 6.42283
#
# Compressibility (1/GPa) = 0.02294882
#
# Stress axis : x y z
#
# Youngs Moduli (GPa) = 102.04262 69.81713 79.34271
#
# Poissons Ratio (x) = -0.05918 0.18084
# Poissons Ratio (y) = -0.08649 0.43299
# Poissons Ratio (z) = 0.23258 0.38101
#
# Static dielectric constant tensor:
#      x y z
#    x 1.764630 0.000000 0.000000 
#    y 0.000000 1.748510 0.000000 
#    z 0.000000 0.000000 1.693140 
# 
# From -- ./inp_files/40044.got.cif
#   From: 2010.05.17/outbox.cif.g08.bks.cpg/sg63_21_cif.got.tgz:40044.got - 2010.06.03 15:47:04.
