data_PCOD9474025
_publ_section_title
;
Structure prediction by ZEFSAII (Michael W. Deem and Ramdas Pophale) SiO2 
 PCOD9474025
Probable space group: C M C M
;
_chemical_formula_sum "Si O2"
_cell_formula_units_Z 96
_cell_length_a 9.563394
_cell_length_b 20.020831
_cell_length_c 30.779135
_cell_angle_alpha 90.000000
_cell_angle_beta 90.000000
_cell_angle_gamma 90.000000
_cell_volume 5893.191567
_symmetry_space_group_name_H-M "C M C M"
_symmetry_group_IT_number 63
_symmetry_cell_setting 'orthorhombic'
loop_
_space_group_symop_operation_xyz
x,y,z
-x,-y,1/2+z
x,-y,-z
-x,y,1/2-z
-x,-y,-z
x,y,1/2-z
-x,y,z
x,-y,1/2+z
1/2+x,1/2+y,z
1/2-x,1/2-y,1/2+z
1/2+x,1/2-y,-z
1/2-x,1/2+y,1/2-z
1/2-x,1/2-y,-z
1/2+x,1/2+y,1/2-z
1/2-x,1/2+y,z
1/2+x,1/2-y,1/2+z
loop_
_atom_site_type_symbol
_atom_site_label
_atom_site_fract_x
_atom_site_fract_y
_atom_site_fract_z
Si Si1 0.335374 0.266402 0.380931
Si Si2 0.663337 0.232012 0.702088
Si Si3 0.663115 0.072455 0.478554
Si Si4 0.165442 0.391987 0.618212
Si Si5 0.167613 0.810648 0.022611
Si Si6 0.836518 0.105732 0.201850
O O1 0.500000 0.270873 0.371452
O O2 0.249478 0.291158 0.339454
O O3 0.303984 0.187341 0.388133
O O4 0.307092 0.304220 0.425767
O O5 0.712655 0.209772 0.750000
O O6 0.500000 0.214905 0.697845
O O7 0.672157 0.313129 0.702017
O O8 0.500000 0.095880 0.481708
O O9 0.697979 0.072425 0.427282
O O10 0.766025 0.122763 0.502874
O O11 0.671350 0.000000 0.500000
O O12 0.249300 0.416805 0.660209
O O13 0.000000 0.398056 0.626483
O O14 0.000000 0.805929 0.015399
O O15 0.250000 0.750000 0.000000
O O16 0.788519 0.083475 0.250000
O O17 0.000000 0.088624 0.197276
#
# Coordination Sequence:
#
# PCOD9474025 Si02
#       6
#    16  16  16  16  16  16
#     4   9  17  28  43  66  94 123 158 199 240 288
#     4   8  14  24  38  60  91 123 154 189 233 288
#     4  10  21  37  53  71 100 135 169 208 254 300
#     4   9  16  28  44  65  93 124 159 195 239 291
#     4  11  21  34  52  74 101 130 168 209 246 293
#     4   8  14  24  38  60  90 121 153 190 235 286
#
# _framework density 16.289985000000001
#
# number of rings (size 3 to 8) (size 9 to 14) (size 15 to 20)
#    0.000    2.833    1.667    1.500    0.000    3.000 
#    0.000    3.333    0.000    0.000    0.000    1.167 
#    0.000    1.333    0.000    0.000    0.000    0.000 
#
# Total GULP energy -267284.674715 kJ/mol
# GULP energy per Si atom -5568.430723 kJ/mol
# Density = 1.625291 g / cm^3
# Si number density = 16.289985 Si / 1000 Ang^3
#
#
#
# Elastic Constant Matrix: (Units=GPa)
#
#
# Indices 1 2 3 4 5 6 
#
# 1 65.9695 27.8219 87.5074 0.0000 0.0000 0.0000
# 2 27.8219 27.8186 35.1285 0.0000 0.0000 0.0000
# 3 87.5074 35.1285 186.9856 0.0000 0.0000 0.0000
# 4 0.0000 0.0000 0.0000 12.1668 0.0000 0.0000
# 5 0.0000 0.0000 0.0000 0.0000 36.3194 0.0000
# 6 0.0000 0.0000 0.0000 0.0000 0.0000 14.1539
#
#
#
# Elastic Compliance Matrix: (Units=1/GPa)
#
#
# Indices 1 2 3 4 5 6 
#
# 1 0.052878 -0.028364 -0.019418 0.000000 0.000000 0.000000
# 2 -0.028364 0.062342 0.001562 0.000000 0.000000 0.000000
# 3 -0.019418 0.001562 0.014142 0.000000 0.000000 0.000000
# 4 0.000000 0.000000 0.000000 0.082191 0.000000 0.000000
# 5 0.000000 0.000000 0.000000 0.000000 0.027533 0.000000
# 6 0.000000 0.000000 0.000000 0.000000 0.000000 0.070652
#
#
# Mechanical properties :
#
#
# Convention : Reuss Voigt Hill
#
# Bulk Modulus (GPa) = 27.08385 64.63216 45.85801
# Shear Modulus (GPa) = 12.06313 21.21574 16.63943
#
# Velocity S-wave (km/s) = 2.72421 3.61276 3.19948
# Velocity P-wave (km/s) = 5.15337 7.56075 6.47001
#
# Compressibility (1/GPa) = 0.03692237
#
# Stress axis : x y z
#
# Youngs Moduli (GPa) = 18.91136 16.04050 70.71210
#
# Poissons Ratio (x) = 0.45498 1.37307
# Poissons Ratio (y) = 0.53641 -0.11047
# Poissons Ratio (z) = 0.36722 -0.02506
#
# Static dielectric constant tensor:
#      x y z
#    x 1.544910 0.000000 0.000000 
#    y 0.000000 1.526200 0.000000 
#    z 0.000000 0.000000 1.562450 
# 
# From -- ./inp_files/67011.got.cif
#   From: 2010.05.17/outbox.cif.g08.bks.cpg/sg63_34_cif.got.tgz:67011.got - 2010.06.03 15:47:04.
