data_PCOD9474765
_publ_section_title
;
Structure prediction by ZEFSAII (Michael W. Deem and Ramdas Pophale) SiO2 
 PCOD9474765
Probable space group: C M C M
;
_chemical_formula_sum "Si O2"
_cell_formula_units_Z 112
_cell_length_a 32.102046
_cell_length_b 12.305462
_cell_length_c 15.015666
_cell_angle_alpha 90.000000
_cell_angle_beta 90.000000
_cell_angle_gamma 90.000000
_cell_volume 5931.646156
_symmetry_space_group_name_H-M "C M C M"
_symmetry_group_IT_number 63
_symmetry_cell_setting 'orthorhombic'
loop_
_space_group_symop_operation_xyz
x,y,z
-x,-y,1/2+z
x,-y,-z
-x,y,1/2-z
-x,-y,-z
x,y,1/2-z
-x,y,z
x,-y,1/2+z
1/2+x,1/2+y,z
1/2-x,1/2-y,1/2+z
1/2+x,1/2-y,-z
1/2-x,1/2+y,1/2-z
1/2-x,1/2-y,-z
1/2+x,1/2+y,1/2-z
1/2-x,1/2+y,z
1/2+x,1/2-y,1/2+z
loop_
_atom_site_type_symbol
_atom_site_label
_atom_site_fract_x
_atom_site_fract_y
_atom_site_fract_z
Si Si1 0.822446 0.614538 0.645933
Si Si2 0.669187 0.534126 0.854202
Si Si3 0.376293 0.685846 0.141946
Si Si4 0.596043 0.711372 0.645694
Si Si5 0.833547 0.372966 0.855717
Si Si6 0.734151 0.697544 0.590263
Si Si7 0.047561 0.870668 0.983799
O O1 0.832793 0.607051 0.750000
O O2 0.854551 0.703476 0.609291
O O3 0.825575 0.493198 0.607392
O O4 0.776025 0.661623 0.639512
O O5 0.683038 0.535890 0.750000
O O6 0.655464 0.413171 0.878379
O O7 0.628030 0.609257 0.859181
O O8 0.704646 0.591583 0.911906
O O9 0.381800 0.685899 0.250000
O O10 0.419020 0.663964 0.090502
O O11 0.583993 0.723025 0.750000
O O12 0.624212 0.813264 0.614705
O O13 0.559679 0.687434 0.576539
O O14 0.838254 0.382010 0.750000
O O15 0.795001 0.291274 0.868861
O O16 0.750000 0.750000 0.500000
O O17 0.000000 0.847038 0.958140
O O18 0.051364 0.000000 0.000000
#
# Coordination Sequence:
#
# PCOD9474765 Si02
#       7
#    16  16  16  16  16  16  16
#     4  10  22  38  57  81 110 152 202 244 286 341
#     4   9  18  36  58  77 107 155 199 235 287 348
#     4  10  22  39  60  85 117 161 199 238 297 357
#     4   9  18  37  62  84 112 154 193 233 290 354
#     4   9  20  40  60  78 108 153 200 243 288 343
#     4  11  23  34  51  82 117 150 193 247 295 339
#     4  11  23  37  60  93 124 149 185 244 303 361
#
# _framework density 18.881772999999999
#
# number of rings (size 3 to 8) (size 9 to 14) (size 15 to 20)
#    0.000    2.143    1.429    2.143    6.000    1.143 
#    0.000    1.429    0.000    1.714    0.000    4.000 
#    0.000    0.000    0.000    0.000    0.000    0.000 
#
# Total GULP energy -312517.644988 kJ/mol
# GULP energy per Si atom -5580.672232 kJ/mol
# Density = 1.883880 g / cm^3
# Si number density = 18.881773 Si / 1000 Ang^3
#
#
#
# Elastic Constant Matrix: (Units=GPa)
#
#
# Indices 1 2 3 4 5 6 
#
# 1 113.2653 64.8059 33.3042 0.0000 0.0000 0.0000
# 2 64.8059 144.6831 28.5798 0.0000 0.0000 0.0000
# 3 33.3042 28.5798 59.6218 0.0000 0.0000 0.0000
# 4 0.0000 0.0000 0.0000 8.7698 0.0000 0.0000
# 5 0.0000 0.0000 0.0000 0.0000 22.7927 0.0000
# 6 0.0000 0.0000 0.0000 0.0000 0.0000 20.4143
#
#
#
# Elastic Compliance Matrix: (Units=1/GPa)
#
#
# Indices 1 2 3 4 5 6 
#
# 1 0.013080 -0.004877 -0.004969 0.000000 0.000000 0.000000
# 2 -0.004877 0.009453 -0.001807 0.000000 0.000000 0.000000
# 3 -0.004969 -0.001807 0.020414 0.000000 0.000000 0.000000
# 4 0.000000 0.000000 0.000000 0.114028 0.000000 0.000000
# 5 0.000000 0.000000 0.000000 0.000000 0.043874 0.000000
# 6 0.000000 0.000000 0.000000 0.000000 0.000000 0.048985
#
#
# Mechanical properties :
#
#
# Convention : Reuss Voigt Hill
#
# Bulk Modulus (GPa) = 50.91209 63.43887 57.17548
# Shear Modulus (GPa) = 17.87710 23.12073 20.49892
#
# Velocity S-wave (km/s) = 3.08034 3.50308 3.29849
# Velocity P-wave (km/s) = 6.29869 7.07340 6.69725
#
# Compressibility (1/GPa) = 0.01964170
#
# Stress axis : x y z
#
# Youngs Moduli (GPa) = 76.44980 105.78329 48.98607
#
# Poissons Ratio (x) = 0.51596 0.24339
# Poissons Ratio (y) = 0.37288 0.08851
# Poissons Ratio (z) = 0.37985 0.19114
#
# Static dielectric constant tensor:
#      x y z
#    x 1.798660 0.000000 0.000000 
#    y 0.000000 1.689080 0.000000 
#    z 0.000000 0.000000 1.718220 
# 
# From -- ./inp_files/38561.got.cif
#   From: 2010.05.17/outbox.cif.g08.bks.cpg/sg63_20_cif.got.tgz:38561.got - 2010.06.03 15:47:04.
