data_PCOD9474877
_publ_section_title
;
Structure prediction by ZEFSAII (Michael W. Deem and Ramdas Pophale) SiO2 
 PCOD9474877
Probable space group: C M C M
;
_chemical_formula_sum "Si O2"
_cell_formula_units_Z 104
_cell_length_a 27.354710
_cell_length_b 8.395408
_cell_length_c 20.895453
_cell_angle_alpha 90.000000
_cell_angle_beta 90.000000
_cell_angle_gamma 90.000000
_cell_volume 4798.723343
_symmetry_space_group_name_H-M "C M C M"
_symmetry_group_IT_number 63
_symmetry_cell_setting 'orthorhombic'
loop_
_space_group_symop_operation_xyz
x,y,z
-x,-y,1/2+z
x,-y,-z
-x,y,1/2-z
-x,-y,-z
x,y,1/2-z
-x,y,z
x,-y,1/2+z
1/2+x,1/2+y,z
1/2-x,1/2-y,1/2+z
1/2+x,1/2-y,-z
1/2-x,1/2+y,1/2-z
1/2-x,1/2-y,-z
1/2+x,1/2+y,1/2-z
1/2-x,1/2+y,z
1/2+x,1/2-y,1/2+z
loop_
_atom_site_type_symbol
_atom_site_label
_atom_site_fract_x
_atom_site_fract_y
_atom_site_fract_z
Si Si1 0.896938 0.864210 0.320918
Si Si2 0.000000 0.272476 0.180282
Si Si3 0.182842 0.420420 0.175804
Si Si4 0.583560 0.987443 0.644705
Si Si5 0.257862 0.821353 0.887559
Si Si6 0.500000 0.543316 0.618464
Si Si7 0.500000 0.864249 0.946355
Si Si8 0.822773 0.063381 0.565089
O O1 0.884441 0.924654 0.250000
O O2 0.899107 0.671703 0.318963
O O3 0.951203 0.915679 0.341872
O O4 0.859656 0.925071 0.375152
O O5 0.953331 0.388502 0.177016
O O6 0.000000 0.190548 0.250000
O O7 0.000000 0.149990 0.120336
O O8 0.170585 0.393614 0.250000
O O9 0.133754 0.418813 0.133184
O O10 0.222492 0.297547 0.149913
O O11 0.209049 0.588599 0.164141
O O12 0.550263 0.911724 0.589522
O O13 0.295123 0.733331 0.935667
O O14 0.221599 0.942186 0.922159
O O15 0.500000 0.668441 0.558029
O O16 0.500000 0.000000 0.000000
O O17 0.847150 0.000000 0.500000
#
# Coordination Sequence:
#
# PCOD9474877 Si02
#       8
#    16   8  16  16  16   8   8  16
#     4  11  22  42  69  99 136 181 229 284 352 427
#     4  11  21  37  64 100 141 174 216 279 346 426
#     4  11  21  39  63  99 135 173 224 284 350 417
#     4  10  22  39  63  96 132 180 229 276 353 421
#     4  10  24  41  64  92 133 181 227 282 350 419
#     4  10  24  42  67 102 139 178 218 282 351 415
#     4   9  21  47  68  94 134 182 237 284 345 420
#     4  11  24  45  67  97 134 180 234 287 352 421
#
# _framework density 21.672431
#
# number of rings (size 3 to 8) (size 9 to 14) (size 15 to 20)
#    0.000    1.538    1.538    3.462    2.154    3.077 
#    5.538    2.692    0.000    0.000    0.000    0.000 
#    0.000    0.000    0.000    0.000    0.000    0.000 
#
# Total GULP energy -289825.074543 kJ/mol
# GULP energy per Si atom -5573.559126 kJ/mol
# Density = 2.162310 g / cm^3
# Si number density = 21.672431 Si / 1000 Ang^3
#
#
#
# Elastic Constant Matrix: (Units=GPa)
#
#
# Indices 1 2 3 4 5 6 
#
# 1 132.6347 18.4126 23.6371 0.0000 0.0000 0.0000
# 2 18.4126 78.4959 19.2847 0.0000 0.0000 0.0000
# 3 23.6371 19.2847 84.4871 0.0000 0.0000 0.0000
# 4 0.0000 0.0000 0.0000 22.6945 0.0000 0.0000
# 5 0.0000 0.0000 0.0000 0.0000 -696.7432 0.0000
# 6 0.0000 0.0000 0.0000 0.0000 0.0000 -56.0324
#
#
#
# Elastic Compliance Matrix: (Units=1/GPa)
#
#
# Indices 1 2 3 4 5 6 
#
# 1 0.008082 -0.001420 -0.001937 0.000000 0.000000 0.000000
# 2 -0.001420 0.013746 -0.002740 0.000000 0.000000 0.000000
# 3 -0.001937 -0.002740 0.013004 0.000000 0.000000 0.000000
# 4 0.000000 0.000000 0.000000 0.044064 0.000000 0.000000
# 5 0.000000 0.000000 0.000000 0.000000 -0.001435 0.000000
# 6 0.000000 0.000000 0.000000 0.000000 0.000000 -0.017847
#
#
# Mechanical properties :
#
#
# Convention : Reuss Voigt Hill
#
# Bulk Modulus (GPa) = 44.17581 46.47630 45.32606
# Shear Modulus (GPa) = 63.00989 -130.39735 -33.69373
#
# Velocity S-wave (km/s) = 5.39786 -7.76518 -3.94722
# Velocity P-wave (km/s) = 7.69914 7.67502 0.43066
#
# Compressibility (1/GPa) = 0.02263682
#
# Stress axis : x y z
#
# Youngs Moduli (GPa) = 123.73476 72.74947 76.90217
#
# Poissons Ratio (x) = 0.10329 0.14896
# Poissons Ratio (y) = 0.17569 0.21074
# Poissons Ratio (z) = 0.23967 0.19936
#
# Static dielectric constant tensor:
#      x y z
#    x 1.756910 0.000000 0.000000 
#    y 0.000000 1.865960 0.000000 
#    z 0.000000 0.000000 1.837970 
# 
# From -- ./inp_files/58247.got.cif
#   From: 2010.05.17/outbox.cif.g08.bks.cpg/sg63_30_cif.got.tgz:58247.got - 2010.06.03 15:47:04.
