data_PCOD9474432
_publ_section_title
;
Structure prediction by ZEFSAII (Michael W. Deem and Ramdas Pophale) SiO2 
 PCOD9474432
Probable space group: C M C M
;
_chemical_formula_sum "Si O2"
_cell_formula_units_Z 108
_cell_length_a 21.685222
_cell_length_b 14.777820
_cell_length_c 14.738891
_cell_angle_alpha 90.000000
_cell_angle_beta 90.000000
_cell_angle_gamma 90.000000
_cell_volume 4723.229540
_symmetry_space_group_name_H-M "C M C M"
_symmetry_group_IT_number 63
_symmetry_cell_setting 'orthorhombic'
loop_
_space_group_symop_operation_xyz
x,y,z
-x,-y,1/2+z
x,-y,-z
-x,y,1/2-z
-x,-y,-z
x,y,1/2-z
-x,y,z
x,-y,1/2+z
1/2+x,1/2+y,z
1/2-x,1/2-y,1/2+z
1/2+x,1/2-y,-z
1/2-x,1/2+y,1/2-z
1/2-x,1/2-y,-z
1/2+x,1/2+y,1/2-z
1/2-x,1/2+y,z
1/2+x,1/2-y,1/2+z
loop_
_atom_site_type_symbol
_atom_site_label
_atom_site_fract_x
_atom_site_fract_y
_atom_site_fract_z
Si Si1 0.736867 0.750047 0.859786
Si Si2 0.828001 0.410726 0.140523
Si Si3 0.911837 0.862105 0.750000
Si Si4 0.929032 0.283621 0.402154
Si Si5 0.402719 0.485096 0.397603
Si Si6 0.269002 0.552910 0.139401
Si Si7 0.500000 0.789828 0.750000
Si Si8 0.093787 0.222338 0.896134
O O1 0.736776 0.752136 0.750000
O O2 0.778523 0.665815 0.886972
O O3 0.766091 0.844204 0.892167
O O4 0.666516 0.740700 0.888877
O O5 0.833994 0.410596 0.250000
O O6 0.892067 0.377849 0.099744
O O7 0.795136 0.504545 0.116585
O O8 0.900327 0.784678 0.671236
O O9 0.925271 0.938569 0.671022
O O10 0.925140 0.239888 0.500752
O O11 0.000000 0.295004 0.374699
O O12 0.424301 0.500000 0.500000
O O13 0.328183 0.499248 0.395444
O O14 0.417398 0.382684 0.369918
O O15 0.277484 0.553793 0.250000
O O16 0.553941 0.783069 0.829053
#
# Coordination Sequence:
#
# PCOD9474432 Si02
#       8
#    16  16   8  16  16  16   4  16
#     4  10  21  39  71 102 136 181 230 291 348 411
#     4  10  21  38  67 102 135 183 230 285 352 402
#     4  12  24  44  65  92 141 180 216 284 337 394
#     4  12  26  46  68  98 136 184 237 280 344 416
#     4  12  24  41  66 103 139 180 229 283 340 415
#     4  10  21  38  66 104 145 178 229 287 357 412
#     4  12  26  48  72  94 140 184 224 288 346 396
#     4  12  25  46  71 100 132 184 235 281 348 408
#
# _framework density 22.86571
#
# number of rings (size 3 to 8) (size 9 to 14) (size 15 to 20)
#    0.000    0.889    5.926    1.556    2.074    1.778 
#    5.333    1.111    1.630    0.889    0.000    0.000 
#    0.000    0.000    0.000    0.000    0.000    0.000 
#
# Total GULP energy -300825.709244 kJ/mol
# GULP energy per Si atom -5570.846467 kJ/mol
# Density = 2.281367 g / cm^3
# Si number density = 22.865710 Si / 1000 Ang^3
#
#
#
# Elastic Constant Matrix: (Units=GPa)
#
#
# Indices 1 2 3 4 5 6 
#
# 1 78.6030 1.0090 -6.2617 0.0000 0.0000 0.0000
# 2 1.0090 31.4685 -6.2076 0.0000 0.0000 0.0000
# 3 -6.2617 -6.2076 133.4367 0.0000 0.0000 0.0000
# 4 0.0000 0.0000 0.0000 16.2539 0.0000 0.0000
# 5 0.0000 0.0000 0.0000 0.0000 114.4352 0.0000
# 6 0.0000 0.0000 0.0000 0.0000 0.0000 -22.4422
#
#
#
# Elastic Compliance Matrix: (Units=1/GPa)
#
#
# Indices 1 2 3 4 5 6 
#
# 1 0.012773 -0.000294 0.000586 0.000000 0.000000 0.000000
# 2 -0.000294 0.032079 0.001479 0.000000 0.000000 0.000000
# 3 0.000586 0.001479 0.007590 0.000000 0.000000 0.000000
# 4 0.000000 0.000000 0.000000 0.061524 0.000000 0.000000
# 5 0.000000 0.000000 0.000000 0.000000 0.008739 0.000000
# 6 0.000000 0.000000 0.000000 0.000000 0.000000 -0.044559
#
#
# Mechanical properties :
#
#
# Convention : Reuss Voigt Hill
#
# Bulk Modulus (GPa) = 17.86275 24.50972 21.18624
# Shear Modulus (GPa) = 53.61033 38.64729 46.12881
#
# Velocity S-wave (km/s) = 4.84733 4.11565 4.49640
# Velocity P-wave (km/s) = 6.25762 5.77295 6.02017
#
# Compressibility (1/GPa) = 0.05598243
#
# Stress axis : x y z
#
# Youngs Moduli (GPa) = 78.29266 31.17316 131.74437
#
# Poissons Ratio (x) = 0.00916 -0.07716
# Poissons Ratio (y) = 0.02302 -0.19479
# Poissons Ratio (z) = -0.04586 -0.04609
#
# Static dielectric constant tensor:
#      x y z
#    x 1.910620 0.000000 0.000000 
#    y 0.000000 1.826620 0.000000 
#    z 0.000000 0.000000 1.843920 
# 
# From -- ./inp_files/36980.got.cif
#   From: 2010.05.17/outbox.cif.g08.bks.cpg/sg63_19_cif.got.tgz:36980.got - 2010.06.03 15:47:04.
