data_PCOD9474125
_publ_section_title
;
Structure prediction by ZEFSAII (Michael W. Deem and Ramdas Pophale) SiO2 
 PCOD9474125
Probable space group: C M C M
;
_chemical_formula_sum "Si O2"
_cell_formula_units_Z 116
_cell_length_a 28.802649
_cell_length_b 23.837321
_cell_length_c 7.769508
_cell_angle_alpha 90.000000
_cell_angle_beta 90.000000
_cell_angle_gamma 90.000000
_cell_volume 5334.373185
_symmetry_space_group_name_H-M "C M C M"
_symmetry_group_IT_number 63
_symmetry_cell_setting 'orthorhombic'
loop_
_space_group_symop_operation_xyz
x,y,z
-x,-y,1/2+z
x,-y,-z
-x,y,1/2-z
-x,-y,-z
x,y,1/2-z
-x,y,z
x,-y,1/2+z
1/2+x,1/2+y,z
1/2-x,1/2-y,1/2+z
1/2+x,1/2-y,-z
1/2-x,1/2+y,1/2-z
1/2-x,1/2-y,-z
1/2+x,1/2+y,1/2-z
1/2-x,1/2+y,z
1/2+x,1/2-y,1/2+z
loop_
_atom_site_type_symbol
_atom_site_label
_atom_site_fract_x
_atom_site_fract_y
_atom_site_fract_z
Si Si1 0.860151 0.939135 0.049310
Si Si2 0.000000 0.445775 0.750000
Si Si3 0.834505 0.628046 0.450188
Si Si4 0.616118 0.678664 0.450912
Si Si5 0.570252 0.908269 0.451816
Si Si6 0.803905 0.252668 0.955088
Si Si7 0.052136 0.722423 0.541281
Si Si8 0.744437 0.436578 0.456211
O O1 0.852150 0.942122 0.250000
O O2 0.808189 0.931068 0.972786
O O3 0.890172 0.884278 0.014746
O O4 0.879191 0.000000 0.000000
O O5 0.040774 0.441344 0.594860
O O6 0.847548 0.631790 0.250000
O O7 0.873734 0.589293 0.536413
O O8 0.829450 0.691207 0.524882
O O9 0.782969 0.603524 0.465354
O O10 0.606541 0.677193 0.250000
O O11 0.668774 0.698458 0.481164
O O12 0.585629 0.729196 0.528253
O O13 0.556201 0.918028 0.250000
O O14 0.561962 0.842357 0.500398
O O15 0.807452 0.254596 0.750000
O O16 0.750000 0.250000 0.000000
O O17 0.054191 0.723654 0.750000
O O18 0.000000 0.735137 0.486252
O O19 0.758374 0.500000 0.500000
O O20 0.745078 0.427624 0.250000
#
# Coordination Sequence:
#
# PCOD9474125 Si02
#       8
#    16   4  16  16  16  16  16  16
#     4  10  21  38  58  81 109 146 192 240 289 343
#     4  12  22  36  56  86 118 148 202 240 292 350
#     4  11  22  36  54  82 118 151 192 241 286 343
#     4  11  21  34  55  81 112 147 188 233 286 346
#     4  11  21  36  57  82 117 156 192 240 294 349
#     4  11  23  35  51  76 114 156 193 231 282 347
#     4   9  18  34  55  79 110 148 190 232 286 346
#     4  10  21  37  58  81 110 147 191 239 288 340
#
# _framework density 21.745761000000002
#
# number of rings (size 3 to 8) (size 9 to 14) (size 15 to 20)
#    0.000    1.517    2.759    3.103    0.000    5.517 
#    1.241    0.000    0.000    0.414    0.000    0.483 
#    0.000    0.000    0.000    0.000    0.000    0.000 
#
# Total GULP energy -323417.988913 kJ/mol
# GULP energy per Si atom -5576.172223 kJ/mol
# Density = 2.169627 g / cm^3
# Si number density = 21.745761 Si / 1000 Ang^3
#
#
#
# Elastic Constant Matrix: (Units=GPa)
#
#
# Indices 1 2 3 4 5 6 
#
# 1 39.8635 2.4659 -1.2395 0.0000 0.0000 0.0000
# 2 2.4659 77.6694 5.3151 0.0000 0.0000 0.0000
# 3 -1.2395 5.3151 84.8011 0.0000 0.0000 0.0000
# 4 0.0000 0.0000 0.0000 23.5615 0.0000 0.0000
# 5 0.0000 0.0000 0.0000 0.0000 -8.4724 0.0000
# 6 0.0000 0.0000 0.0000 0.0000 0.0000 3.5114
#
#
#
# Elastic Compliance Matrix: (Units=1/GPa)
#
#
# Indices 1 2 3 4 5 6 
#
# 1 0.025150 -0.000827 0.000419 0.000000 0.000000 0.000000
# 2 -0.000827 0.012958 -0.000824 0.000000 0.000000 0.000000
# 3 0.000419 -0.000824 0.011850 0.000000 0.000000 0.000000
# 4 0.000000 0.000000 0.000000 0.042442 0.000000 0.000000
# 5 0.000000 0.000000 0.000000 0.000000 -0.118031 0.000000
# 6 0.000000 0.000000 0.000000 0.000000 0.000000 0.284789
#
#
# Mechanical properties :
#
#
# Convention : Reuss Voigt Hill
#
# Bulk Modulus (GPa) = 21.05541 23.93521 22.49531
# Shear Modulus (GPa) = 18.02103 16.77293 17.39698
#
# Velocity S-wave (km/s) = 2.88186 2.78028 2.83153
# Velocity P-wave (km/s) = 4.55819 4.61923 4.58881
#
# Compressibility (1/GPa) = 0.04749374
#
# Stress axis : x y z
#
# Youngs Moduli (GPa) = 39.76168 77.17386 84.38752
#
# Poissons Ratio (x) = 0.06384 -0.03540
# Poissons Ratio (y) = 0.03289 0.06956
# Poissons Ratio (z) = -0.01668 0.06361
#
# Static dielectric constant tensor:
#      x y z
#    x 1.826770 0.000000 0.000000 
#    y 0.000000 1.819300 0.000000 
#    z 0.000000 0.000000 1.794380 
# 
# From -- ./inp_files/12964.got.cif
#   From: 2010.05.17/outbox.cif.g08.bks.cpg/sg63_7_cif.got.tgz:12964.got - 2010.06.03 15:47:04.
