data_PCOD9474158
_publ_section_title
;
Structure prediction by ZEFSAII (Michael W. Deem and Ramdas Pophale) SiO2 
 PCOD9474158
Probable space group: C M C M
;
_chemical_formula_sum "Si O2"
_cell_formula_units_Z 88
_cell_length_a 22.822046
_cell_length_b 25.122422
_cell_length_c 8.805554
_cell_angle_alpha 90.000000
_cell_angle_beta 90.000000
_cell_angle_gamma 90.000000
_cell_volume 5048.620979
_symmetry_space_group_name_H-M "C M C M"
_symmetry_group_IT_number 63
_symmetry_cell_setting 'orthorhombic'
loop_
_space_group_symop_operation_xyz
x,y,z
-x,-y,1/2+z
x,-y,-z
-x,y,1/2-z
-x,-y,-z
x,y,1/2-z
-x,y,z
x,-y,1/2+z
1/2+x,1/2+y,z
1/2-x,1/2-y,1/2+z
1/2+x,1/2-y,-z
1/2-x,1/2+y,1/2-z
1/2-x,1/2-y,-z
1/2+x,1/2+y,1/2-z
1/2-x,1/2+y,z
1/2+x,1/2-y,1/2+z
loop_
_atom_site_type_symbol
_atom_site_label
_atom_site_fract_x
_atom_site_fract_y
_atom_site_fract_z
Si Si1 0.109524 0.376130 0.930322
Si Si2 0.431997 0.352391 0.566771
Si Si3 0.500000 0.940641 0.067719
Si Si4 0.287455 0.942186 0.431927
Si Si5 0.150362 0.942543 0.068992
Si Si6 0.070347 0.268804 0.429533
O O1 0.105850 0.382968 0.750000
O O2 0.170093 0.399258 0.993721
O O3 0.101119 0.314739 0.976007
O O4 0.057008 0.409119 0.009059
O O5 0.429637 0.355419 0.750000
O O6 0.500000 0.360646 0.522091
O O7 0.390211 0.396318 0.496204
O O8 0.415034 0.291745 0.525313
O O9 0.500000 0.942420 0.250000
O O10 0.500000 0.000000 0.000000
O O11 0.294791 0.942960 0.250000
O O12 0.218963 0.932503 0.467195
O O13 0.302908 0.000000 0.500000
O O14 0.144698 0.945071 0.250000
O O15 0.134626 0.000000 0.000000
O O16 0.083293 0.275581 0.250000
O O17 0.000000 0.274608 0.446279
#
# Coordination Sequence:
#
# PCOD9474158 Si02
#       6
#    16  16   8  16  16  16
#     4  12  23  35  54  82 110 142 186 230 276 326
#     4   9  19  36  59  86 114 145 181 222 274 330
#     4  12  24  38  54  76 110 146 183 232 281 324
#     4  10  21  38  57  78 107 145 186 227 277 332
#     4  10  21  37  59  84 111 145 183 225 274 329
#     4   9  18  35  57  79 108 148 185 223 276 328
#
# _framework density 17.430501
#
# number of rings (size 3 to 8) (size 9 to 14) (size 15 to 20)
#    0.000    1.818    0.909    5.182    0.000    3.636 
#    0.000    2.727    0.000    0.000    0.000    0.000 
#    0.000    0.000    0.000    0.000    0.000    0.000 
#
# Total GULP energy -245785.682814 kJ/mol
# GULP energy per Si atom -5586.038246 kJ/mol
# Density = 1.739083 g / cm^3
# Si number density = 17.430501 Si / 1000 Ang^3
#
#
#
# Elastic Constant Matrix: (Units=GPa)
#
#
# Indices 1 2 3 4 5 6 
#
# 1 76.3048 88.6915 52.4957 0.0000 0.0000 0.0000
# 2 88.6915 162.5590 72.5518 0.0000 0.0000 0.0000
# 3 52.4957 72.5518 93.2174 0.0000 0.0000 0.0000
# 4 0.0000 0.0000 0.0000 36.7379 0.0000 0.0000
# 5 0.0000 0.0000 0.0000 0.0000 23.9617 0.0000
# 6 0.0000 0.0000 0.0000 0.0000 0.0000 16.4403
#
#
#
# Elastic Compliance Matrix: (Units=1/GPa)
#
#
# Indices 1 2 3 4 5 6 
#
# 1 0.039722 -0.017910 -0.008430 0.000000 0.000000 0.000000
# 2 -0.017910 0.017501 -0.003535 0.000000 0.000000 0.000000
# 3 -0.008430 -0.003535 0.018227 0.000000 0.000000 0.000000
# 4 0.000000 0.000000 0.000000 0.027220 0.000000 0.000000
# 5 0.000000 0.000000 0.000000 0.000000 0.041733 0.000000
# 6 0.000000 0.000000 0.000000 0.000000 0.000000 0.060826
#
#
# Mechanical properties :
#
#
# Convention : Reuss Voigt Hill
#
# Bulk Modulus (GPa) = 63.69760 84.39547 74.04654
# Shear Modulus (GPa) = 18.50396 23.31748 20.91072
#
# Velocity S-wave (km/s) = 3.26173 3.66148 3.46737
# Velocity P-wave (km/s) = 7.12799 8.14854 7.65529
#
# Compressibility (1/GPa) = 0.01569918
#
# Stress axis : x y z
#
# Youngs Moduli (GPa) = 25.17480 57.14020 54.86463
#
# Poissons Ratio (x) = 1.02336 0.46254
# Poissons Ratio (y) = 0.45087 0.19395
# Poissons Ratio (z) = 0.21224 0.20200
#
# Static dielectric constant tensor:
#      x y z
#    x 1.575390 0.000000 0.000000 
#    y 0.000000 1.574060 0.000000 
#    z 0.000000 0.000000 1.579880 
# 
# From -- ./inp_files/8163.got.cif
#   From: 2010.05.17/outbox.cif.g08.bks.cpg/sg63_5_cif.got.tgz:8163.got - 2010.06.03 15:47:04.
