data_PCOD9474537
_publ_section_title
;
Structure prediction by ZEFSAII (Michael W. Deem and Ramdas Pophale) SiO2 
 PCOD9474537
Probable space group: C M C M
;
_chemical_formula_sum "Si O2"
_cell_formula_units_Z 96
_cell_length_a 13.962966
_cell_length_b 17.749443
_cell_length_c 18.858345
_cell_angle_alpha 90.000000
_cell_angle_beta 90.000000
_cell_angle_gamma 90.000000
_cell_volume 4673.755465
_symmetry_space_group_name_H-M "C M C M"
_symmetry_group_IT_number 63
_symmetry_cell_setting 'orthorhombic'
loop_
_space_group_symop_operation_xyz
x,y,z
-x,-y,1/2+z
x,-y,-z
-x,y,1/2-z
-x,-y,-z
x,y,1/2-z
-x,y,z
x,-y,1/2+z
1/2+x,1/2+y,z
1/2-x,1/2-y,1/2+z
1/2+x,1/2-y,-z
1/2-x,1/2+y,1/2-z
1/2-x,1/2-y,-z
1/2+x,1/2+y,1/2-z
1/2-x,1/2+y,z
1/2+x,1/2-y,1/2+z
loop_
_atom_site_type_symbol
_atom_site_label
_atom_site_fract_x
_atom_site_fract_y
_atom_site_fract_z
Si Si1 0.614511 0.109057 0.669942
Si Si2 0.115378 0.205518 0.548894
Si Si3 0.612054 0.169908 0.332485
Si Si4 0.885857 0.768493 0.889269
Si Si5 0.772623 0.049354 0.570021
Si Si6 0.205369 0.079078 0.332558
O O1 0.640927 0.085138 0.750000
O O2 0.500000 0.100820 0.662272
O O3 0.640328 0.196958 0.658287
O O4 0.673469 0.068155 0.609132
O O5 0.137478 0.263804 0.612347
O O6 0.140389 0.240893 0.472125
O O7 0.170174 0.126441 0.556378
O O8 0.000000 0.192984 0.550328
O O9 0.624871 0.193834 0.250000
O O10 0.500000 0.151135 0.342492
O O11 0.682032 0.099273 0.343576
O O12 0.844891 0.845797 0.860231
O O13 0.000000 0.773312 0.886941
O O14 0.758551 0.000000 0.500000
O O15 0.826300 0.993538 0.624134
O O16 0.187677 0.068978 0.250000
#
# Coordination Sequence:
#
# PCOD9474537 Si02
#       6
#    16  16  16  16  16  16
#     4  10  23  43  65  89 120 157 199 250 303 354
#     4  10  22  40  63  88 121 159 200 250 301 353
#     4   9  20  39  63  89 117 154 201 251 302 355
#     4  10  21  39  64  90 115 152 200 252 304 352
#     4  12  25  39  59  89 126 166 200 241 293 362
#     4  11  23  38  59  88 121 158 199 245 297 356
#
# _framework density 20.540227999999999
#
# number of rings (size 3 to 8) (size 9 to 14) (size 15 to 20)
#    0.000    1.667    1.667    2.000    2.333    7.000 
#    0.000    1.667    0.000    0.000    0.000    0.000 
#    0.000    0.000    0.000    0.000    0.000    0.000 
#
# Total GULP energy -268272.421300 kJ/mol
# GULP energy per Si atom -5589.008777 kJ/mol
# Density = 2.049348 g / cm^3
# Si number density = 20.540228 Si / 1000 Ang^3
#
#
#
# Elastic Constant Matrix: (Units=GPa)
#
#
# Indices 1 2 3 4 5 6 
#
# 1 32.0376 -0.8130 22.3572 0.0000 0.0000 0.0000
# 2 -0.8130 42.0589 19.1115 0.0000 0.0000 0.0000
# 3 22.3572 19.1115 107.9069 0.0000 0.0000 0.0000
# 4 0.0000 0.0000 0.0000 25.7798 0.0000 0.0000
# 5 0.0000 0.0000 0.0000 0.0000 26.4611 0.0000
# 6 0.0000 0.0000 0.0000 0.0000 0.0000 1.3375
#
#
#
# Elastic Compliance Matrix: (Units=1/GPa)
#
#
# Indices 1 2 3 4 5 6 
#
# 1 0.037291 0.004602 -0.008541 0.000000 0.000000 0.000000
# 2 0.004602 0.026425 -0.005634 0.000000 0.000000 0.000000
# 3 -0.008541 -0.005634 0.012035 0.000000 0.000000 0.000000
# 4 0.000000 0.000000 0.000000 0.038790 0.000000 0.000000
# 5 0.000000 0.000000 0.000000 0.000000 0.037791 0.000000
# 6 0.000000 0.000000 0.000000 0.000000 0.000000 0.747646
#
#
# Mechanical properties :
#
#
# Convention : Reuss Voigt Hill
#
# Bulk Modulus (GPa) = 17.66645 29.25721 23.46183
# Shear Modulus (GPa) = 5.33053 20.13886 12.73470
#
# Velocity S-wave (km/s) = 1.61270 3.13463 2.49266
# Velocity P-wave (km/s) = 3.47668 5.23220 4.44203
#
# Compressibility (1/GPa) = 0.05660448
#
# Stress axis : x y z
#
# Youngs Moduli (GPa) = 26.81636 37.84286 83.09291
#
# Poissons Ratio (x) = -0.17415 0.70972
# Poissons Ratio (y) = -0.12341 0.46812
# Poissons Ratio (z) = 0.22905 0.21319
#
# Static dielectric constant tensor:
#      x y z
#    x 1.757620 0.000000 0.000000 
#    y 0.000000 1.710040 0.000000 
#    z 0.000000 0.000000 1.719240 
# 
# From -- ./inp_files/31943.got.cif
#   From: 2010.05.17/outbox.cif.g08.bks.cpg/sg63_16_cif.got.tgz:31943.got - 2010.06.03 15:47:04.
