data_PCOD9474179
_publ_section_title
;
Structure prediction by ZEFSAII (Michael W. Deem and Ramdas Pophale) SiO2 
 PCOD9474179
Probable space group: C M C M
;
_chemical_formula_sum "Si O2"
_cell_formula_units_Z 80
_cell_length_a 8.674909
_cell_length_b 16.623602
_cell_length_c 25.589545
_cell_angle_alpha 90.000000
_cell_angle_beta 90.000000
_cell_angle_gamma 90.000000
_cell_volume 3690.223109
_symmetry_space_group_name_H-M "C M C M"
_symmetry_group_IT_number 63
_symmetry_cell_setting 'orthorhombic'
loop_
_space_group_symop_operation_xyz
x,y,z
-x,-y,1/2+z
x,-y,-z
-x,y,1/2-z
-x,-y,-z
x,y,1/2-z
-x,y,z
x,-y,1/2+z
1/2+x,1/2+y,z
1/2-x,1/2-y,1/2+z
1/2+x,1/2-y,-z
1/2-x,1/2+y,1/2-z
1/2-x,1/2-y,-z
1/2+x,1/2+y,1/2-z
1/2-x,1/2+y,z
1/2+x,1/2-y,1/2+z
loop_
_atom_site_type_symbol
_atom_site_label
_atom_site_fract_x
_atom_site_fract_y
_atom_site_fract_z
Si Si1 0.683419 0.401869 0.637096
Si Si2 0.177990 0.437801 0.188950
Si Si3 0.826266 0.287362 0.449052
Si Si4 0.819895 0.234121 0.660438
Si Si5 0.822445 0.573974 0.025037
O O1 0.500000 0.401670 0.639907
O O2 0.749278 0.152213 0.684507
O O3 0.746447 0.323210 0.668696
O O4 0.739625 0.393190 0.576632
O O5 0.183413 0.460070 0.250000
O O6 0.256065 0.511550 0.157738
O O7 0.000000 0.431442 0.171705
O O8 0.750000 0.250000 0.500000
O O9 0.713829 0.280405 0.400780
O O10 0.840274 0.375609 0.472033
O O11 0.000000 0.258067 0.436507
O O12 0.000000 0.238238 0.672529
O O13 0.000000 0.556650 0.042184
O O14 0.732640 0.500000 0.000000
#
# Coordination Sequence:
#
# PCOD9474179 Si02
#       5
#    16  16  16  16  16
#     4  12  25  42  68  99 134 175 222 274 329 399
#     4  11  26  49  74  99 130 169 219 282 347 407
#     4  11  21  35  59  91 131 173 216 266 319 383
#     4  12  25  43  69 100 138 180 226 277 333 400
#     4  10  21  37  59  88 127 173 220 268 322 384
#
# _framework density 21.678906000000001
#
# number of rings (size 3 to 8) (size 9 to 14) (size 15 to 20)
#    0.000    0.800    2.000    6.000    0.000    5.200 
#    0.000    0.000    0.000    0.000    0.000    0.000 
#    0.000    0.000    0.000    0.000    0.000    0.000 
#
# Total GULP energy -222959.063904 kJ/mol
# GULP energy per Si atom -5573.976598 kJ/mol
# Density = 2.162956 g / cm^3
# Si number density = 21.678906 Si / 1000 Ang^3
#
#
#
# Elastic Constant Matrix: (Units=GPa)
#
#
# Indices 1 2 3 4 5 6 
#
# 1 158.2231 60.6802 4.3827 0.0000 0.0000 0.0000
# 2 60.6802 138.6652 13.5909 0.0000 0.0000 0.0000
# 3 4.3827 13.5909 41.6890 0.0000 0.0000 0.0000
# 4 0.0000 0.0000 0.0000 32.1674 0.0000 0.0000
# 5 0.0000 0.0000 0.0000 0.0000 22.6587 0.0000
# 6 0.0000 0.0000 0.0000 0.0000 0.0000 35.0486
#
#
#
# Elastic Compliance Matrix: (Units=1/GPa)
#
#
# Indices 1 2 3 4 5 6 
#
# 1 0.007598 -0.003354 0.000295 0.000000 0.000000 0.000000
# 2 -0.003354 0.008930 -0.002559 0.000000 0.000000 0.000000
# 3 0.000295 -0.002559 0.024790 0.000000 0.000000 0.000000
# 4 0.000000 0.000000 0.000000 0.031087 0.000000 0.000000
# 5 0.000000 0.000000 0.000000 0.000000 0.044133 0.000000
# 6 0.000000 0.000000 0.000000 0.000000 0.000000 0.028532
#
#
# Mechanical properties :
#
#
# Convention : Reuss Voigt Hill
#
# Bulk Modulus (GPa) = 33.24166 55.09832 44.16999
# Shear Modulus (GPa) = 30.05991 35.30318 32.68155
#
# Velocity S-wave (km/s) = 3.72774 4.03979 3.88690
# Velocity P-wave (km/s) = 5.82194 6.87246 6.36890
#
# Compressibility (1/GPa) = 0.03008273
#
# Stress axis : x y z
#
# Youngs Moduli (GPa) = 131.60864 111.98121 40.33829
#
# Poissons Ratio (x) = 0.37557 -0.01188
# Poissons Ratio (y) = 0.44140 0.10321
# Poissons Ratio (z) = -0.03877 0.28652
#
# Static dielectric constant tensor:
#      x y z
#    x 1.777190 0.000000 0.000000 
#    y 0.000000 1.960460 0.000000 
#    z 0.000000 0.000000 1.750180 
# 
# From -- ./inp_files/71766.got.cif
#   From: 2010.05.17/outbox.cif.g08.bks.cpg/sg63_36_cif.got.tgz:71766.got - 2010.06.03 15:47:04.
