data_PCOD9474743
_publ_section_title
;
Structure prediction by ZEFSAII (Michael W. Deem and Ramdas Pophale) SiO2 
 PCOD9474743
Probable space group: C M C M
;
_chemical_formula_sum "Si O2"
_cell_formula_units_Z 104
_cell_length_a 25.144395
_cell_length_b 9.926087
_cell_length_c 22.880074
_cell_angle_alpha 90.000000
_cell_angle_beta 90.000000
_cell_angle_gamma 90.000000
_cell_volume 5710.533619
_symmetry_space_group_name_H-M "C M C M"
_symmetry_group_IT_number 63
_symmetry_cell_setting 'orthorhombic'
loop_
_space_group_symop_operation_xyz
x,y,z
-x,-y,1/2+z
x,-y,-z
-x,y,1/2-z
-x,-y,-z
x,y,1/2-z
-x,y,z
x,-y,1/2+z
1/2+x,1/2+y,z
1/2-x,1/2-y,1/2+z
1/2+x,1/2-y,-z
1/2-x,1/2+y,1/2-z
1/2-x,1/2-y,-z
1/2+x,1/2+y,1/2-z
1/2-x,1/2+y,z
1/2+x,1/2-y,1/2+z
loop_
_atom_site_type_symbol
_atom_site_label
_atom_site_fract_x
_atom_site_fract_y
_atom_site_fract_z
Si Si1 0.716997 0.167028 0.047493
Si Si2 0.562657 0.995089 0.621505
Si Si3 0.756602 0.083674 0.620724
Si Si4 0.852516 0.325353 0.180606
Si Si5 0.937710 0.792290 0.319406
Si Si6 0.878451 0.500000 0.500000
Si Si7 0.142423 0.976815 0.819265
O O1 0.716078 0.277815 0.098854
O O2 0.661459 0.120548 0.019184
O O3 0.745040 0.030697 0.071517
O O4 0.750000 0.250000 0.000000
O O5 0.500000 0.023513 0.624238
O O6 0.597198 0.083693 0.665629
O O7 0.585805 0.023647 0.557029
O O8 0.570730 0.840708 0.641980
O O9 0.699692 0.118578 0.648392
O O10 0.797943 0.020629 0.665859
O O11 0.842544 0.322693 0.250000
O O12 0.864287 0.174580 0.158240
O O13 0.926932 0.763716 0.250000
O O14 0.899889 0.912947 0.340278
O O15 0.000000 0.829741 0.323299
O O16 0.134996 0.971266 0.750000
#
# Coordination Sequence:
#
# PCOD9474743 Si02
#       7
#    16  16  16  16  16   8  16
#     4  12  22  38  62  85 119 157 202 243 300 358
#     4  11  23  41  63  88 118 156 206 259 311 361
#     4  12  22  40  58  89 124 159 197 246 303 366
#     4  11  23  39  59  90 127 163 201 249 309 366
#     4   9  19  38  63  89 117 156 205 253 303 360
#     4  12  23  40  62  88 120 156 205 248 300 360
#     4  10  22  37  58  88 122 159 197 239 297 365
#
# _framework density 18.211957000000002
#
# number of rings (size 3 to 8) (size 9 to 14) (size 15 to 20)
#    0.000    1.077    4.615    2.077    0.000    1.538 
#    0.000    1.538    0.000    0.000    0.000    4.308 
#    0.000    0.000    0.000    0.000    0.000    0.000 
#
# Total GULP energy -290171.013353 kJ/mol
# GULP energy per Si atom -5580.211795 kJ/mol
# Density = 1.817051 g / cm^3
# Si number density = 18.211957 Si / 1000 Ang^3
#
#
#
# Elastic Constant Matrix: (Units=GPa)
#
#
# Indices 1 2 3 4 5 6 
#
# 1 114.9883 73.6107 17.1115 0.0000 0.0000 0.0000
# 2 73.6107 125.5144 22.7388 0.0000 0.0000 0.0000
# 3 17.1115 22.7388 35.3980 0.0000 0.0000 0.0000
# 4 0.0000 0.0000 0.0000 28.5476 0.0000 0.0000
# 5 0.0000 0.0000 0.0000 0.0000 20.3131 0.0000
# 6 0.0000 0.0000 0.0000 0.0000 0.0000 23.2350
#
#
#
# Elastic Compliance Matrix: (Units=1/GPa)
#
#
# Indices 1 2 3 4 5 6 
#
# 1 0.014013 -0.007912 -0.001692 0.000000 0.000000 0.000000
# 2 -0.007912 0.013484 -0.004837 0.000000 0.000000 0.000000
# 3 -0.001692 -0.004837 0.032175 0.000000 0.000000 0.000000
# 4 0.000000 0.000000 0.000000 0.035029 0.000000 0.000000
# 5 0.000000 0.000000 0.000000 0.000000 0.049229 0.000000
# 6 0.000000 0.000000 0.000000 0.000000 0.000000 0.043038
#
#
# Mechanical properties :
#
#
# Convention : Reuss Voigt Hill
#
# Bulk Modulus (GPa) = 32.47704 55.86919 44.17312
# Shear Modulus (GPa) = 22.11283 25.24846 23.68065
#
# Velocity S-wave (km/s) = 3.48831 3.72743 3.60985
# Velocity P-wave (km/s) = 5.83917 7.01918 6.45619
#
# Compressibility (1/GPa) = 0.03079098
#
# Stress axis : x y z
#
# Youngs Moduli (GPa) = 71.36180 74.16438 31.08004
#
# Poissons Ratio (x) = 0.58678 0.05258
# Poissons Ratio (y) = 0.56460 0.15033
# Poissons Ratio (z) = 0.12072 0.35873
#
# Static dielectric constant tensor:
#      x y z
#    x 1.593670 0.000000 0.000000 
#    y 0.000000 1.639290 0.000000 
#    z 0.000000 0.000000 1.653610 
# 
# From -- ./inp_files/65423.got.cif
#   From: 2010.05.17/outbox.cif.g08.bks.cpg/sg63_33_cif.got.tgz:65423.got - 2010.06.03 15:47:04.
