data_PCOD9474700
_publ_section_title
;
Structure prediction by ZEFSAII (Michael W. Deem and Ramdas Pophale) SiO2 
 PCOD9474700
Probable space group: C M C M
;
_chemical_formula_sum "Si O2"
_cell_formula_units_Z 112
_cell_length_a 13.643514
_cell_length_b 13.053021
_cell_length_c 31.929325
_cell_angle_alpha 90.000000
_cell_angle_beta 90.000000
_cell_angle_gamma 90.000000
_cell_volume 5686.263947
_symmetry_space_group_name_H-M "C M C M"
_symmetry_group_IT_number 63
_symmetry_cell_setting 'orthorhombic'
loop_
_space_group_symop_operation_xyz
x,y,z
-x,-y,1/2+z
x,-y,-z
-x,y,1/2-z
-x,-y,-z
x,y,1/2-z
-x,y,z
x,-y,1/2+z
1/2+x,1/2+y,z
1/2-x,1/2-y,1/2+z
1/2+x,1/2-y,-z
1/2-x,1/2+y,1/2-z
1/2-x,1/2-y,-z
1/2+x,1/2+y,1/2-z
1/2-x,1/2+y,z
1/2+x,1/2-y,1/2+z
loop_
_atom_site_type_symbol
_atom_site_label
_atom_site_fract_x
_atom_site_fract_y
_atom_site_fract_z
Si Si1 0.113396 0.660019 0.298498
Si Si2 0.616381 0.183912 0.929518
Si Si3 0.615981 0.234556 0.023755
Si Si4 0.109214 0.414750 0.299031
Si Si5 0.761130 0.200001 0.856790
Si Si6 0.292231 0.970206 0.951051
Si Si7 0.885788 0.070743 0.581581
O O1 0.137816 0.686818 0.250000
O O2 0.116984 0.537366 0.302013
O O3 0.184734 0.710669 0.331930
O O4 0.000000 0.691171 0.305826
O O5 0.500000 0.198659 0.923574
O O6 0.685173 0.229407 0.893585
O O7 0.641906 0.061485 0.930983
O O8 0.646516 0.227730 0.975196
O O9 0.500000 0.214133 0.023459
O O10 0.662195 0.142003 0.050081
O O11 0.629862 0.344435 0.044851
O O12 0.114995 0.387947 0.250000
O O13 0.194623 0.362607 0.324529
O O14 0.000000 0.385395 0.314477
O O15 0.843495 0.127267 0.877633
O O16 0.185812 0.978570 0.930267
O O17 0.286009 0.000000 0.000000
O O18 0.000000 0.045550 0.584278
#
# Coordination Sequence:
#
# PCOD9474700 Si02
#       7
#    16  16  16  16  16  16  16
#     4   9  19  37  60  83 106 137 177 214 254 314
#     4   9  18  31  49  77 109 139 176 222 270 316
#     4   9  18  36  57  74 100 142 188 230 267 307
#     4   9  19  37  60  84 108 135 170 213 262 318
#     4  11  20  31  54  83 112 138 171 217 269 316
#     4   9  18  31  53  75  97 131 180 228 266 305
#     4  10  22  36  51  75 107 143 183 223 264 313
#
# _framework density 19.696587999999998
#
# number of rings (size 3 to 8) (size 9 to 14) (size 15 to 20)
#    0.000    2.571    0.000    2.571    0.000    9.429 
#    0.000    4.286    0.000   15.429    0.000   10.000 
#    0.000    0.000    0.000    0.000    0.000    0.000 
#
# Total GULP energy -312898.322855 kJ/mol
# GULP energy per Si atom -5587.470051 kJ/mol
# Density = 1.965176 g / cm^3
# Si number density = 19.696588 Si / 1000 Ang^3
#
#
#
# Elastic Constant Matrix: (Units=GPa)
#
#
# Indices 1 2 3 4 5 6 
#
# 1 108.0353 24.1254 49.9546 0.0000 0.0000 0.0000
# 2 24.1254 39.9991 29.3181 0.0000 0.0000 0.0000
# 3 49.9546 29.3181 75.8154 0.0000 0.0000 0.0000
# 4 0.0000 0.0000 0.0000 219.4708 0.0000 0.0000
# 5 0.0000 0.0000 0.0000 0.0000 38.7448 0.0000
# 6 0.0000 0.0000 0.0000 0.0000 0.0000 27.8406
#
#
#
# Elastic Compliance Matrix: (Units=1/GPa)
#
#
# Indices 1 2 3 4 5 6 
#
# 1 0.013456 -0.002257 -0.007994 0.000000 0.000000 0.000000
# 2 -0.002257 0.035268 -0.012151 0.000000 0.000000 0.000000
# 3 -0.007994 -0.012151 0.023156 0.000000 0.000000 0.000000
# 4 0.000000 0.000000 0.000000 0.004556 0.000000 0.000000
# 5 0.000000 0.000000 0.000000 0.000000 0.025810 0.000000
# 6 0.000000 0.000000 0.000000 0.000000 0.000000 0.035919
#
#
# Mechanical properties :
#
#
# Convention : Reuss Voigt Hill
#
# Bulk Modulus (GPa) = 36.93200 47.84955 42.39078
# Shear Modulus (GPa) = 26.04229 65.24134 45.64181
#
# Velocity S-wave (km/s) = 3.64011 5.76152 4.81900
# Velocity P-wave (km/s) = 6.03808 8.28288 7.24792
#
# Compressibility (1/GPa) = 0.02707679
#
# Stress axis : x y z
#
# Youngs Moduli (GPa) = 74.31383 28.35393 43.18576
#
# Poissons Ratio (x) = 0.06400 0.34521
# Poissons Ratio (y) = 0.16774 0.52476
# Poissons Ratio (z) = 0.59403 0.34453
#
# Static dielectric constant tensor:
#      x y z
#    x 1.701210 0.000000 0.000000 
#    y 0.000000 1.684280 0.000000 
#    z 0.000000 0.000000 1.706120 
# 
# From -- ./inp_files/73422.got.cif
#   From: 2010.05.17/outbox.cif.g08.bks.cpg/sg63_37_cif.got.tgz:73422.got - 2010.06.03 15:47:04.
