data_PCOD9474882
_publ_section_title
;
Structure prediction by ZEFSAII (Michael W. Deem and Ramdas Pophale) SiO2 
 PCOD9474882
Probable space group: C M C M
;
_chemical_formula_sum "Si O2"
_cell_formula_units_Z 76
_cell_length_a 19.728313
_cell_length_b 23.376478
_cell_length_c 7.796887
_cell_angle_alpha 90.000000
_cell_angle_beta 90.000000
_cell_angle_gamma 90.000000
_cell_volume 3595.756455
_symmetry_space_group_name_H-M "C M C M"
_symmetry_group_IT_number 63
_symmetry_cell_setting 'orthorhombic'
loop_
_space_group_symop_operation_xyz
x,y,z
-x,-y,1/2+z
x,-y,-z
-x,y,1/2-z
-x,-y,-z
x,y,1/2-z
-x,y,z
x,-y,1/2+z
1/2+x,1/2+y,z
1/2-x,1/2-y,1/2+z
1/2+x,1/2-y,-z
1/2-x,1/2+y,1/2-z
1/2-x,1/2-y,-z
1/2+x,1/2+y,1/2-z
1/2-x,1/2+y,z
1/2+x,1/2-y,1/2+z
loop_
_atom_site_type_symbol
_atom_site_label
_atom_site_fract_x
_atom_site_fract_y
_atom_site_fract_z
Si Si1 0.500000 0.433145 0.456909
Si Si2 0.609453 0.881551 0.440761
Si Si3 0.171278 0.739059 0.044037
Si Si4 0.256723 0.937424 0.549414
Si Si5 0.000000 0.394191 0.750000
Si Si6 0.370693 0.638201 0.956800
O O1 0.500000 0.500000 0.500000
O O2 0.500000 0.429304 0.250000
O O3 0.566746 0.399867 0.520425
O O4 0.579751 0.886928 0.250000
O O5 0.641316 0.818087 0.462877
O O6 0.673597 0.923888 0.454337
O O7 0.558721 0.892376 0.597154
O O8 0.165859 0.733170 0.250000
O O9 0.130525 0.795793 0.987820
O O10 0.250000 0.750000 0.000000
O O11 0.270769 0.934982 0.750000
O O12 0.199639 0.891131 0.507155
O O13 0.230493 0.000000 0.500000
O O14 0.373635 0.638804 0.750000
#
# Coordination Sequence:
#
# PCOD9474882 Si02
#       6
#     8  16  16  16   4  16
#     4  10  22  41  60  90 136 182 230 281 341 409
#     4  12  25  46  73 103 140 182 229 287 351 420
#     4  11  21  38  66 103 138 178 230 286 340 406
#     4  12  24  42  69 100 135 176 234 289 340 414
#     4  12  26  50  70 102 138 178 224 282 358 416
#     4  10  22  39  64  98 134 185 232 283 349 410
#
# _framework density 21.136026999999999
#
# number of rings (size 3 to 8) (size 9 to 14) (size 15 to 20)
#    0.000    0.842    4.211    3.474    0.000    4.211 
#    1.895    0.526    0.000    0.000    0.000    0.000 
#    0.000    0.000    0.000    0.000    0.000    0.000 
#
# Total GULP energy -212020.519679 kJ/mol
# GULP energy per Si atom -5579.487360 kJ/mol
# Density = 2.108792 g / cm^3
# Si number density = 21.136027 Si / 1000 Ang^3
#
#
#
# Elastic Constant Matrix: (Units=GPa)
#
#
# Indices 1 2 3 4 5 6 
#
# 1 80.8342 -25.7818 23.3478 0.0000 0.0000 0.0000
# 2 -25.7818 43.7913 -7.3705 0.0000 0.0000 0.0000
# 3 23.3478 -7.3705 109.0576 0.0000 0.0000 0.0000
# 4 0.0000 0.0000 0.0000 25.0038 0.0000 0.0000
# 5 0.0000 0.0000 0.0000 0.0000 37.0093 0.0000
# 6 0.0000 0.0000 0.0000 0.0000 0.0000 21.2754
#
#
#
# Elastic Compliance Matrix: (Units=1/GPa)
#
#
# Indices 1 2 3 4 5 6 
#
# 1 0.016050 0.008973 -0.002830 0.000000 0.000000 0.000000
# 2 0.008973 0.028115 -0.000021 0.000000 0.000000 0.000000
# 3 -0.002830 -0.000021 0.009774 0.000000 0.000000 0.000000
# 4 0.000000 0.000000 0.000000 0.039994 0.000000 0.000000
# 5 0.000000 0.000000 0.000000 0.000000 0.027020 0.000000
# 6 0.000000 0.000000 0.000000 0.000000 0.000000 0.047003
#
#
# Mechanical properties :
#
#
# Convention : Reuss Voigt Hill
#
# Bulk Modulus (GPa) = 15.10932 23.78600 19.44766
# Shear Modulus (GPa) = 28.12587 32.89020 30.50804
#
# Velocity S-wave (km/s) = 3.65184 3.94905 3.80335
# Velocity P-wave (km/s) = 4.99454 5.66317 5.33933
#
# Compressibility (1/GPa) = 0.06618430
#
# Stress axis : x y z
#
# Youngs Moduli (GPa) = 62.30409 35.56825 102.31379
#
# Poissons Ratio (x) = -0.31916 0.28952
# Poissons Ratio (y) = -0.55907 0.00214
# Poissons Ratio (z) = 0.17630 0.00074
#
# Static dielectric constant tensor:
#      x y z
#    x 1.735180 0.000000 0.000000 
#    y 0.000000 1.745710 0.000000 
#    z 0.000000 0.000000 1.763750 
# 
# From -- ./inp_files/6482.got.cif
#   From: 2010.05.17/outbox.cif.g08.bks.cpg/sg63_4_cif.got.tgz:6482.got - 2010.06.03 15:47:04.
