data_PCOD9474911
_publ_section_title
;
Structure prediction by ZEFSAII (Michael W. Deem and Ramdas Pophale) SiO2 
 PCOD9474911
Probable space group: C M C M
;
_chemical_formula_sum "Si O2"
_cell_formula_units_Z 96
_cell_length_a 24.901971
_cell_length_b 9.222422
_cell_length_c 20.898099
_cell_angle_alpha 90.000000
_cell_angle_beta 90.000000
_cell_angle_gamma 90.000000
_cell_volume 4799.383964
_symmetry_space_group_name_H-M "C M C M"
_symmetry_group_IT_number 63
_symmetry_cell_setting 'orthorhombic'
loop_
_space_group_symop_operation_xyz
x,y,z
-x,-y,1/2+z
x,-y,-z
-x,y,1/2-z
-x,-y,-z
x,y,1/2-z
-x,y,z
x,-y,1/2+z
1/2+x,1/2+y,z
1/2-x,1/2-y,1/2+z
1/2+x,1/2-y,-z
1/2-x,1/2+y,1/2-z
1/2-x,1/2-y,-z
1/2+x,1/2+y,1/2-z
1/2-x,1/2+y,z
1/2+x,1/2-y,1/2+z
loop_
_atom_site_type_symbol
_atom_site_label
_atom_site_fract_x
_atom_site_fract_y
_atom_site_fract_z
Si Si1 0.937834 0.925024 0.432976
Si Si2 0.598094 0.900723 0.942559
Si Si3 0.779944 0.672008 0.056557
Si Si4 0.240417 0.935001 0.140500
Si Si5 0.636358 0.086161 0.822708
Si Si6 0.869336 0.070113 0.321673
O O1 0.932271 0.751062 0.435634
O O2 0.000000 0.964422 0.422424
O O3 0.920867 0.000000 0.500000
O O4 0.901464 0.985649 0.376002
O O5 0.658911 0.856354 0.961430
O O6 0.606473 0.991368 0.876786
O O7 0.576086 0.000000 0.000000
O O8 0.777039 0.774592 0.119418
O O9 0.750239 0.525764 0.075885
O O10 0.750000 0.750000 0.000000
O O11 0.299052 0.936061 0.172389
O O12 0.192065 0.014003 0.176176
O O13 0.619380 0.051440 0.750000
O O14 0.628155 0.257655 0.834488
O O15 0.890501 0.044017 0.250000
#
# Coordination Sequence:
#
# PCOD9474911 Si02
#       6
#    16  16  16  16  16  16
#     4  11  26  46  69  94 120 158 210 270 325 377
#     4  11  23  40  63  92 127 161 205 258 311 371
#     4  11  21  32  53  89 128 169 206 244 301 365
#     4  11  20  35  54  88 129 171 207 249 297 370
#     4  10  22  40  60  92 133 172 209 246 303 376
#     4  11  23  41  65  91 126 171 210 259 315 368
#
# _framework density 20.002568
#
# number of rings (size 3 to 8) (size 9 to 14) (size 15 to 20)
#    0.000    1.167    3.333    4.000    2.333    1.333 
#    0.000    0.833    0.000    1.000    0.000    0.000 
#    0.000    0.000    0.000    0.000    0.000    0.000 
#
# Total GULP energy -268219.611574 kJ/mol
# GULP energy per Si atom -5587.908574 kJ/mol
# Density = 1.995704 g / cm^3
# Si number density = 20.002568 Si / 1000 Ang^3
#
#
#
# Elastic Constant Matrix: (Units=GPa)
#
#
# Indices 1 2 3 4 5 6 
#
# 1 41.4474 15.8536 34.2068 0.0000 0.0000 0.0000
# 2 15.8536 113.3856 59.5469 0.0000 0.0000 0.0000
# 3 34.2068 59.5469 123.0530 0.0000 0.0000 0.0000
# 4 0.0000 0.0000 0.0000 29.9093 0.0000 0.0000
# 5 0.0000 0.0000 0.0000 0.0000 -0.7939 0.0000
# 6 0.0000 0.0000 0.0000 0.0000 0.0000 14.5957
#
#
#
# Elastic Compliance Matrix: (Units=1/GPa)
#
#
# Indices 1 2 3 4 5 6 
#
# 1 0.031316 0.000259 -0.008831 0.000000 0.000000 0.000000
# 2 0.000259 0.011827 -0.005795 0.000000 0.000000 0.000000
# 3 -0.008831 -0.005795 0.013386 0.000000 0.000000 0.000000
# 4 0.000000 0.000000 0.000000 0.033434 0.000000 0.000000
# 5 0.000000 0.000000 0.000000 0.000000 -1.259530 0.000000
# 6 0.000000 0.000000 0.000000 0.000000 0.000000 0.068513
#
#
# Mechanical properties :
#
#
# Convention : Reuss Voigt Hill
#
# Bulk Modulus (GPa) = 35.97797 55.23341 45.60569
# Shear Modulus (GPa) = -4.70343 19.96078 7.62868
#
# Velocity S-wave (km/s) = -1.53509 3.16240 1.95503
# Velocity P-wave (km/s) = 3.85794 6.40371 5.28636
#
# Compressibility (1/GPa) = 0.02779479
#
# Stress axis : x y z
#
# Youngs Moduli (GPa) = 31.93267 84.55481 74.70673
#
# Poissons Ratio (x) = -0.02190 0.65971
# Poissons Ratio (y) = -0.00827 0.43293
# Poissons Ratio (z) = 0.28199 0.49000
#
# Static dielectric constant tensor:
#      x y z
#    x 1.666870 0.000000 0.000000 
#    y 0.000000 1.710520 0.000000 
#    z 0.000000 0.000000 1.851610 
# 
# From -- ./inp_files/58075.got.cif
#   From: 2010.05.17/outbox.cif.g08.bks.cpg/sg63_30_cif.got.tgz:58075.got - 2010.06.03 15:47:04.
