data_PCOD9474629
_publ_section_title
;
Structure prediction by ZEFSAII (Michael W. Deem and Ramdas Pophale) SiO2 
 PCOD9474629
Probable space group: C M C M
;
_chemical_formula_sum "Si O2"
_cell_formula_units_Z 112
_cell_length_a 24.178306
_cell_length_b 14.645919
_cell_length_c 14.569092
_cell_angle_alpha 90.000000
_cell_angle_beta 90.000000
_cell_angle_gamma 90.000000
_cell_volume 5159.112324
_symmetry_space_group_name_H-M "C M C M"
_symmetry_group_IT_number 63
_symmetry_cell_setting 'orthorhombic'
loop_
_space_group_symop_operation_xyz
x,y,z
-x,-y,1/2+z
x,-y,-z
-x,y,1/2-z
-x,-y,-z
x,y,1/2-z
-x,y,z
x,-y,1/2+z
1/2+x,1/2+y,z
1/2-x,1/2-y,1/2+z
1/2+x,1/2-y,-z
1/2-x,1/2+y,1/2-z
1/2-x,1/2-y,-z
1/2+x,1/2+y,1/2-z
1/2-x,1/2+y,z
1/2+x,1/2-y,1/2+z
loop_
_atom_site_type_symbol
_atom_site_label
_atom_site_fract_x
_atom_site_fract_y
_atom_site_fract_z
Si Si1 0.438036 0.205419 0.449963
Si Si2 0.847353 0.411880 0.855567
Si Si3 0.302318 0.893422 0.351920
Si Si4 0.640384 0.571409 0.356145
Si Si5 0.757441 0.856313 0.527291
Si Si6 0.435053 0.602193 0.639978
Si Si7 0.904237 0.733881 0.851100
O O1 0.500000 0.192213 0.415455
O O2 0.397482 0.130211 0.410726
O O3 0.419831 0.305861 0.414791
O O4 0.436050 0.201984 0.559734
O O5 0.850656 0.383640 0.750000
O O6 0.843574 0.521079 0.859790
O O7 0.791358 0.376269 0.901180
O O8 0.277521 0.893866 0.250000
O O9 0.257309 0.903732 0.430638
O O10 0.341223 0.804616 0.360890
O O11 0.661787 0.561732 0.250000
O O12 0.687516 0.604510 0.426417
O O13 0.606522 0.480601 0.381219
O O14 0.598310 0.656842 0.353015
O O15 0.750000 0.750000 0.500000
O O16 0.431616 0.619032 0.750000
O O17 0.500000 0.580559 0.619622
O O18 0.923603 0.703940 0.750000
#
# Coordination Sequence:
#
# PCOD9474629 Si02
#       7
#    16  16  16  16  16  16  16
#     4  11  23  42  70 100 130 175 228 282 342 402
#     4  11  24  43  66  95 132 174 219 275 339 396
#     4  10  22  43  67  90 131 178 218 273 337 397
#     4  10  21  40  66  99 135 175 225 275 330 404
#     4  12  22  40  67  96 135 176 219 275 336 394
#     4   9  20  41  68  99 137 177 222 278 337 400
#     4  10  21  41  64  92 132 172 218 274 334 399
#
# _framework density 21.709160000000001
#
# number of rings (size 3 to 8) (size 9 to 14) (size 15 to 20)
#    0.000    1.571    2.857    1.286    0.000    2.857 
#   10.286    4.286    0.000    2.571    0.000    0.000 
#    0.000    0.000    0.000    0.000    0.000    0.000 
#
# Total GULP energy -313059.930901 kJ/mol
# GULP energy per Si atom -5590.355909 kJ/mol
# Density = 2.165975 g / cm^3
# Si number density = 21.709160 Si / 1000 Ang^3
#
#
#
# Elastic Constant Matrix: (Units=GPa)
#
#
# Indices 1 2 3 4 5 6 
#
# 1 50.7981 15.3277 45.5199 0.0000 0.0000 0.0000
# 2 15.3277 59.5605 38.9759 0.0000 0.0000 0.0000
# 3 45.5199 38.9759 140.4532 0.0000 0.0000 0.0000
# 4 0.0000 0.0000 0.0000 25.0799 0.0000 0.0000
# 5 0.0000 0.0000 0.0000 0.0000 -35.9719 0.0000
# 6 0.0000 0.0000 0.0000 0.0000 0.0000 25.7275
#
#
#
# Elastic Compliance Matrix: (Units=1/GPa)
#
#
# Indices 1 2 3 4 5 6 
#
# 1 0.027858 -0.001541 -0.008601 0.000000 0.000000 0.000000
# 2 -0.001541 0.020600 -0.005217 0.000000 0.000000 0.000000
# 3 -0.008601 -0.005217 0.011355 0.000000 0.000000 0.000000
# 4 0.000000 0.000000 0.000000 0.039873 0.000000 0.000000
# 5 0.000000 0.000000 0.000000 0.000000 -0.027799 0.000000
# 6 0.000000 0.000000 0.000000 0.000000 0.000000 0.038869
#
#
# Mechanical properties :
#
#
# Convention : Reuss Voigt Hill
#
# Bulk Modulus (GPa) = 34.36973 50.05098 42.21035
# Shear Modulus (GPa) = 33.07495 13.03299 23.05397
#
# Velocity S-wave (km/s) = 3.90750 2.45285 3.26229
# Velocity P-wave (km/s) = 6.01867 5.57918 5.80309
#
# Compressibility (1/GPa) = 0.02909537
#
# Stress axis : x y z
#
# Youngs Moduli (GPa) = 35.89636 48.54303 88.06584
#
# Poissons Ratio (x) = 0.07479 0.75746
# Poissons Ratio (y) = 0.05531 0.45946
# Poissons Ratio (z) = 0.30875 0.25326
#
# Static dielectric constant tensor:
#      x y z
#    x 1.779050 0.000000 0.000000 
#    y 0.000000 1.857640 0.000000 
#    z 0.000000 0.000000 1.800660 
# 
# From -- ./inp_files/36956.got.cif
#   From: 2010.05.17/outbox.cif.g08.bks.cpg/sg63_19_cif.got.tgz:36956.got - 2010.06.03 15:47:04.
