data_PCOD9474207
_publ_section_title
;
Structure prediction by ZEFSAII (Michael W. Deem and Ramdas Pophale) SiO2 
 PCOD9474207
Probable space group: C M C M
;
_chemical_formula_sum "Si O2"
_cell_formula_units_Z 64
_cell_length_a 21.669724
_cell_length_b 7.422157
_cell_length_c 19.291109
_cell_angle_alpha 90.000000
_cell_angle_beta 90.000000
_cell_angle_gamma 90.000000
_cell_volume 3102.706614
_symmetry_space_group_name_H-M "C M C M"
_symmetry_group_IT_number 63
_symmetry_cell_setting 'orthorhombic'
loop_
_space_group_symop_operation_xyz
x,y,z
-x,-y,1/2+z
x,-y,-z
-x,y,1/2-z
-x,-y,-z
x,y,1/2-z
-x,y,z
x,-y,1/2+z
1/2+x,1/2+y,z
1/2-x,1/2-y,1/2+z
1/2+x,1/2-y,-z
1/2-x,1/2+y,1/2-z
1/2-x,1/2-y,-z
1/2+x,1/2+y,1/2-z
1/2-x,1/2+y,z
1/2+x,1/2-y,1/2+z
loop_
_atom_site_type_symbol
_atom_site_label
_atom_site_fract_x
_atom_site_fract_y
_atom_site_fract_z
Si Si1 0.316973 0.201516 0.470513
Si Si2 0.431217 0.815182 0.043993
Si Si3 0.795062 0.117737 0.829856
Si Si4 0.155246 0.710108 0.829394
O O1 0.250000 0.250000 0.500000
O O2 0.377414 0.292595 0.503922
O O3 0.318494 0.250787 0.389889
O O4 0.321629 0.000000 0.500000
O O5 0.500000 0.736191 0.050332
O O6 0.398726 0.844891 0.118427
O O7 0.438770 0.000000 0.000000
O O8 0.805241 0.177696 0.750000
O O9 0.720837 0.109372 0.839562
O O10 0.825480 0.921053 0.838619
O O11 0.136305 0.684329 0.750000
#
# Coordination Sequence:
#
# PCOD9474207 Si02
#       4
#    16  16  16  16
#     4  11  21  35  61  90 118 161 206 256 311 368
#     4  10  23  40  58  87 124 163 208 251 302 370
#     4  10  21  37  60  95 126 153 203 261 315 370
#     4  10  21  38  63  92 121 159 200 254 318 370
#
# _framework density 20.627153
#
# number of rings (size 3 to 8) (size 9 to 14) (size 15 to 20)
#    0.000    1.750    2.500    1.500    3.500    0.500 
#    0.000    2.500    0.000    3.750    0.000    0.000 
#    0.000    0.000    0.000    0.000    0.000    0.000 
#
# Total GULP energy -178360.150152 kJ/mol
# GULP energy per Si atom -5573.754692 kJ/mol
# Density = 2.058020 g / cm^3
# Si number density = 20.627153 Si / 1000 Ang^3
#
#
#
# Elastic Constant Matrix: (Units=GPa)
#
#
# Indices 1 2 3 4 5 6 
#
# 1 180.6996 16.1964 74.3373 0.0000 0.0000 0.0000
# 2 16.1964 64.3991 35.6520 0.0000 0.0000 0.0000
# 3 74.3373 35.6520 187.6235 0.0000 0.0000 0.0000
# 4 0.0000 0.0000 0.0000 33.1830 0.0000 0.0000
# 5 0.0000 0.0000 0.0000 0.0000 -1.4327 0.0000
# 6 0.0000 0.0000 0.0000 0.0000 0.0000 9.4953
#
#
#
# Elastic Compliance Matrix: (Units=1/GPa)
#
#
# Indices 1 2 3 4 5 6 
#
# 1 0.006615 -0.000238 -0.002576 0.000000 0.000000 0.000000
# 2 -0.000238 0.017362 -0.003205 0.000000 0.000000 0.000000
# 3 -0.002576 -0.003205 0.006959 0.000000 0.000000 0.000000
# 4 0.000000 0.000000 0.000000 0.030136 0.000000 0.000000
# 5 0.000000 0.000000 0.000000 0.000000 -0.698006 0.000000
# 6 0.000000 0.000000 0.000000 0.000000 0.000000 0.105315
#
#
# Mechanical properties :
#
#
# Convention : Reuss Voigt Hill
#
# Bulk Modulus (GPa) = 52.91075 76.12152 64.51614
# Shear Modulus (GPa) = -9.74124 28.68489 9.47182
#
# Velocity S-wave (km/s) = -2.17550 3.73317 2.14520
# Velocity P-wave (km/s) = 4.40413 7.45424 6.12218
#
# Compressibility (1/GPa) = 0.01889975
#
# Stress axis : x y z
#
# Youngs Moduli (GPa) = 151.17238 57.59619 143.69188
#
# Poissons Ratio (x) = 0.01369 0.37011
# Poissons Ratio (y) = 0.03594 0.46053
# Poissons Ratio (z) = 0.38938 0.18459
#
# Static dielectric constant tensor:
#      x y z
#    x 1.817390 0.000000 0.000000 
#    y 0.000000 1.856100 0.000000 
#    z 0.000000 0.000000 1.795870 
# 
# From -- ./inp_files/47731.got.cif
#   From: 2010.05.17/outbox.cif.g08.bks.cpg/sg63_24_cif.got.tgz:47731.got - 2010.06.03 15:47:04.
