data_PCOD9474757
_publ_section_title
;
Structure prediction by ZEFSAII (Michael W. Deem and Ramdas Pophale) SiO2 
 PCOD9474757
Probable space group: C M C M
;
_chemical_formula_sum "Si O2"
_cell_formula_units_Z 96
_cell_length_a 21.956377
_cell_length_b 11.494228
_cell_length_c 19.171353
_cell_angle_alpha 90.000000
_cell_angle_beta 90.000000
_cell_angle_gamma 90.000000
_cell_volume 4838.305094
_symmetry_space_group_name_H-M "C M C M"
_symmetry_group_IT_number 63
_symmetry_cell_setting 'orthorhombic'
loop_
_space_group_symop_operation_xyz
x,y,z
-x,-y,1/2+z
x,-y,-z
-x,y,1/2-z
-x,-y,-z
x,y,1/2-z
-x,y,z
x,-y,1/2+z
1/2+x,1/2+y,z
1/2-x,1/2-y,1/2+z
1/2+x,1/2-y,-z
1/2-x,1/2+y,1/2-z
1/2-x,1/2-y,-z
1/2+x,1/2+y,1/2-z
1/2-x,1/2+y,z
1/2+x,1/2-y,1/2+z
loop_
_atom_site_type_symbol
_atom_site_label
_atom_site_fract_x
_atom_site_fract_y
_atom_site_fract_z
Si Si1 0.744807 0.375847 0.541179
Si Si2 0.069156 0.663508 0.535945
Si Si3 0.396026 0.417945 0.933437
Si Si4 0.364736 0.170323 0.109952
Si Si5 0.929880 0.887627 0.166851
Si Si6 0.926642 0.536373 0.825494
O O1 0.756888 0.500000 0.500000
O O2 0.750000 0.250000 0.500000
O O3 0.675774 0.388681 0.567384
O O4 0.794248 0.360756 0.602290
O O5 0.069581 0.799170 0.552825
O O6 0.107827 0.643658 0.466717
O O7 0.094366 0.603624 0.605632
O O8 0.000000 0.625052 0.523096
O O9 0.418127 0.485901 0.865500
O O10 0.406914 0.500000 0.000000
O O11 0.382309 0.301685 0.129191
O O12 0.399219 0.091205 0.165688
O O13 0.922482 0.885243 0.250000
O O14 0.000000 0.851900 0.150549
O O15 0.909353 0.586428 0.750000
O O16 0.000000 0.532005 0.828070
#
# Coordination Sequence:
#
# PCOD9474757 Si02
#       6
#    16  16  16  16  16  16
#     4  11  22  40  65  96 131 171 218 273 330 388
#     4  11  21  34  60  92 119 154 208 265 315 376
#     4  11  22  40  64  91 122 165 215 266 316 381
#     4  12  21  37  64  92 123 163 213 263 318 386
#     4  11  24  42  65  95 132 171 213 269 338 400
#     4  10  22  38  55  83 124 163 200 250 318 385
#
# _framework density 19.841660000000001
#
# number of rings (size 3 to 8) (size 9 to 14) (size 15 to 20)
#    0.000    1.000    3.333    5.000    0.000    4.000 
#    0.000    3.333    0.000    0.000    0.000    0.000 
#    0.000    0.000    0.000    0.000    0.000    0.000 
#
# Total GULP energy -268044.521654 kJ/mol
# GULP energy per Si atom -5584.260868 kJ/mol
# Density = 1.979650 g / cm^3
# Si number density = 19.841660 Si / 1000 Ang^3
#
#
#
# Elastic Constant Matrix: (Units=GPa)
#
#
# Indices 1 2 3 4 5 6 
#
# 1 55.0500 16.1924 21.4333 0.0000 0.0000 0.0000
# 2 16.1924 98.1513 22.7315 0.0000 0.0000 0.0000
# 3 21.4333 22.7315 93.7442 0.0000 0.0000 0.0000
# 4 0.0000 0.0000 0.0000 26.7696 0.0000 0.0000
# 5 0.0000 0.0000 0.0000 0.0000 -0.6965 0.0000
# 6 0.0000 0.0000 0.0000 0.0000 0.0000 32.4003
#
#
#
# Elastic Compliance Matrix: (Units=1/GPa)
#
#
# Indices 1 2 3 4 5 6 
#
# 1 0.020473 -0.002430 -0.004092 0.000000 0.000000 0.000000
# 2 -0.002430 0.011083 -0.002132 0.000000 0.000000 0.000000
# 3 -0.004092 -0.002132 0.012120 0.000000 0.000000 0.000000
# 4 0.000000 0.000000 0.000000 0.037356 0.000000 0.000000
# 5 0.000000 0.000000 0.000000 0.000000 -1.435749 0.000000
# 6 0.000000 0.000000 0.000000 0.000000 0.000000 0.030864
#
#
# Mechanical properties :
#
#
# Convention : Reuss Voigt Hill
#
# Bulk Modulus (GPa) = 37.92346 40.85111 39.38728
# Shear Modulus (GPa) = -3.85280 24.13391 10.14055
#
# Velocity S-wave (km/s) = -1.39499 3.49137 2.26315
# Velocity P-wave (km/s) = 4.06938 6.07339 5.16943
#
# Compressibility (1/GPa) = 0.02636890
#
# Stress axis : x y z
#
# Youngs Moduli (GPa) = 48.84461 90.22860 82.50977
#
# Poissons Ratio (x) = 0.21925 0.33760
# Poissons Ratio (y) = 0.11869 0.17590
# Poissons Ratio (z) = 0.19986 0.19236
#
# Static dielectric constant tensor:
#      x y z
#    x 1.693090 0.000000 0.000000 
#    y 0.000000 1.747160 0.000000 
#    z 0.000000 0.000000 1.688800 
# 
# From -- ./inp_files/48009.got.cif
#   From: 2010.05.17/outbox.cif.g08.bks.cpg/sg63_25_cif.got.tgz:48009.got - 2010.06.03 15:47:04.
