data_PCOD9474006
_publ_section_title
;
Structure prediction by ZEFSAII (Michael W. Deem and Ramdas Pophale) SiO2 
 PCOD9474006
Probable space group: C M C M
;
_chemical_formula_sum "Si O2"
_cell_formula_units_Z 100
_cell_length_a 7.977957
_cell_length_b 30.407894
_cell_length_c 19.303609
_cell_angle_alpha 90.000000
_cell_angle_beta 90.000000
_cell_angle_gamma 90.000000
_cell_volume 4682.917924
_symmetry_space_group_name_H-M "C M C M"
_symmetry_group_IT_number 63
_symmetry_cell_setting 'orthorhombic'
loop_
_space_group_symop_operation_xyz
x,y,z
-x,-y,1/2+z
x,-y,-z
-x,y,1/2-z
-x,-y,-z
x,y,1/2-z
-x,y,z
x,-y,1/2+z
1/2+x,1/2+y,z
1/2-x,1/2-y,1/2+z
1/2+x,1/2-y,-z
1/2-x,1/2+y,1/2-z
1/2-x,1/2-y,-z
1/2+x,1/2+y,1/2-z
1/2-x,1/2+y,z
1/2+x,1/2-y,1/2+z
loop_
_atom_site_type_symbol
_atom_site_label
_atom_site_fract_x
_atom_site_fract_y
_atom_site_fract_z
Si Si1 0.803511 0.427702 0.329722
Si Si2 0.691254 0.341785 0.402034
Si Si3 0.192941 0.976780 0.666049
Si Si4 0.186113 0.745142 0.851550
Si Si5 0.000000 0.262393 0.750000
Si Si6 0.803618 0.688152 0.050757
Si Si7 0.795822 0.120634 0.330354
O O1 0.739313 0.424836 0.250000
O O2 0.718323 0.391306 0.376980
O O3 0.779706 0.477921 0.354474
O O4 0.000000 0.418149 0.328546
O O5 0.500000 0.329107 0.388566
O O6 0.802063 0.307381 0.358742
O O7 0.731475 0.334483 0.482297
O O8 0.194734 0.975954 0.750000
O O9 0.000000 0.979451 0.643348
O O10 0.260121 0.928588 0.647391
O O11 0.348318 0.760266 0.808763
O O12 0.210212 0.767420 0.926558
O O13 0.000000 0.757872 0.826408
O O14 0.772761 0.655622 0.115918
O O15 0.000000 0.695681 0.040877
O O16 0.744726 0.128968 0.250000
O O17 0.000000 0.121084 0.331354
#
# Coordination Sequence:
#
# PCOD9474006 Si02
#       7
#    16  16  16  16   4  16  16
#     4  10  21  36  59  91 125 161 205 258 323 383
#     4  12  25  44  65  91 124 169 220 262 320 388
#     4   8  15  32  56  85 120 160 203 254 316 382
#     4  12  26  46  70  98 137 170 211 265 317 381
#     4  12  26  48  68 110 128 168 216 264 324 378
#     4  12  25  43  63  92 128 170 218 261 320 388
#     4   9  19  36  61  91 123 162 210 261 321 380
#
# _framework density 21.354206999999999
#
# number of rings (size 3 to 8) (size 9 to 14) (size 15 to 20)
#    0.000    1.440    1.600    5.040    2.240    1.920 
#    0.000    2.400    0.000    4.800    0.000    0.000 
#    0.000    0.000    0.000    0.000    0.000    0.000 
#
# Total GULP energy -278860.566933 kJ/mol
# GULP energy per Si atom -5577.211339 kJ/mol
# Density = 2.130560 g / cm^3
# Si number density = 21.354207 Si / 1000 Ang^3
#
#
#
# Elastic Constant Matrix: (Units=GPa)
#
#
# Indices 1 2 3 4 5 6 
#
# 1 120.4229 9.5251 18.9296 0.0000 0.0000 0.0000
# 2 9.5251 95.7511 15.8046 0.0000 0.0000 0.0000
# 3 18.9296 15.8046 56.6888 0.0000 0.0000 0.0000
# 4 0.0000 0.0000 0.0000 19.1893 0.0000 0.0000
# 5 0.0000 0.0000 0.0000 0.0000 9.7636 0.0000
# 6 0.0000 0.0000 0.0000 0.0000 0.0000 31.6940
#
#
#
# Elastic Compliance Matrix: (Units=1/GPa)
#
#
# Indices 1 2 3 4 5 6 
#
# 1 0.008779 -0.000408 -0.002818 0.000000 0.000000 0.000000
# 2 -0.000408 0.010967 -0.002921 0.000000 0.000000 0.000000
# 3 -0.002818 -0.002921 0.019395 0.000000 0.000000 0.000000
# 4 0.000000 0.000000 0.000000 0.052112 0.000000 0.000000
# 5 0.000000 0.000000 0.000000 0.000000 0.102422 0.000000
# 6 0.000000 0.000000 0.000000 0.000000 0.000000 0.031552
#
#
# Mechanical properties :
#
#
# Convention : Reuss Voigt Hill
#
# Bulk Modulus (GPa) = 37.24804 40.15347 38.70076
# Shear Modulus (GPa) = 20.28641 27.36960 23.82800
#
# Velocity S-wave (km/s) = 3.08554 3.58396 3.34405
# Velocity P-wave (km/s) = 5.49317 5.99756 5.75090
#
# Compressibility (1/GPa) = 0.02684705
#
# Stress axis : x y z
#
# Youngs Moduli (GPa) = 113.90438 91.18672 51.55847
#
# Poissons Ratio (x) = 0.03723 0.14528
# Poissons Ratio (y) = 0.04650 0.15061
# Poissons Ratio (z) = 0.32096 0.26636
#
# Static dielectric constant tensor:
#      x y z
#    x 1.759910 0.000000 0.000000 
#    y 0.000000 1.792320 0.000000 
#    z 0.000000 0.000000 1.776560 
# 
# From -- ./inp_files/51464.got.cif
#   From: 2010.05.17/outbox.cif.g08.bks.cpg/sg63_26_cif.got.tgz:51464.got - 2010.06.03 15:47:04.
