data_PCOD9474587
_publ_section_title
;
Structure prediction by ZEFSAII (Michael W. Deem and Ramdas Pophale) SiO2 
 PCOD9474587
Probable space group: C M C M
;
_chemical_formula_sum "Si O2"
_cell_formula_units_Z 84
_cell_length_a 19.439366
_cell_length_b 12.382839
_cell_length_c 18.759535
_cell_angle_alpha 90.000000
_cell_angle_beta 90.000000
_cell_angle_gamma 90.000000
_cell_volume 4515.692828
_symmetry_space_group_name_H-M "C M C M"
_symmetry_group_IT_number 63
_symmetry_cell_setting 'orthorhombic'
loop_
_space_group_symop_operation_xyz
x,y,z
-x,-y,1/2+z
x,-y,-z
-x,y,1/2-z
-x,-y,-z
x,y,1/2-z
-x,y,z
x,-y,1/2+z
1/2+x,1/2+y,z
1/2-x,1/2-y,1/2+z
1/2+x,1/2-y,-z
1/2-x,1/2+y,1/2-z
1/2-x,1/2-y,-z
1/2+x,1/2+y,1/2-z
1/2-x,1/2+y,z
1/2+x,1/2-y,1/2+z
loop_
_atom_site_type_symbol
_atom_site_label
_atom_site_fract_x
_atom_site_fract_y
_atom_site_fract_z
Si Si1 0.322447 0.317431 0.581521
Si Si2 0.082082 0.446097 0.924155
Si Si3 0.331351 0.728988 0.582419
Si Si4 0.141207 0.020131 0.828217
Si Si5 0.000000 0.988049 0.750000
Si Si6 0.082063 0.654210 0.666877
O O1 0.337345 0.318929 0.497387
O O2 0.247307 0.265974 0.592045
O O3 0.327129 0.433914 0.617862
O O4 0.377035 0.240467 0.620662
O O5 0.121755 0.335296 0.913008
O O6 0.096637 0.535094 0.863729
O O7 0.000000 0.426674 0.925904
O O8 0.101656 0.500000 0.000000
O O9 0.352190 0.638779 0.639122
O O10 0.176071 0.014690 0.750000
O O11 0.061738 0.991839 0.810889
O O12 0.099810 0.664407 0.750000
O O13 0.000000 0.672286 0.659878
#
# Coordination Sequence:
#
# PCOD9474587 Si02
#       6
#    16  16  16  16   4  16
#     4  11  24  41  65  95 131 170 216 271 323 388
#     4  10  21  40  63  94 127 165 211 265 318 378
#     4  11  25  41  67  93 133 173 215 270 325 392
#     4  10  24  44  65  93 131 172 217 265 330 383
#     4   8  24  48  62  92 140 170 212 288 308 404
#     4  10  22  40  65  94 124 165 213 265 321 377
#
# _framework density 18.601797000000001
#
# number of rings (size 3 to 8) (size 9 to 14) (size 15 to 20)
#    0.571    1.143    1.905    1.143    5.333    2.286 
#    0.000    0.952    0.000    0.000    0.000    0.000 
#    0.000    0.000    0.000    0.000    0.000    0.000 
#
# Total GULP energy -233990.531477 kJ/mol
# GULP energy per Si atom -5571.203130 kJ/mol
# Density = 1.855946 g / cm^3
# Si number density = 18.601797 Si / 1000 Ang^3
#
#
#
# Elastic Constant Matrix: (Units=GPa)
#
#
# Indices 1 2 3 4 5 6 
#
# 1 24.4277 18.4180 25.3173 0.0000 0.0000 0.0000
# 2 18.4180 99.3450 29.3418 0.0000 0.0000 0.0000
# 3 25.3173 29.3418 59.2649 0.0000 0.0000 0.0000
# 4 0.0000 0.0000 0.0000 -18.6409 0.0000 0.0000
# 5 0.0000 0.0000 0.0000 0.0000 24.1330 0.0000
# 6 0.0000 0.0000 0.0000 0.0000 0.0000 11.3346
#
#
#
# Elastic Compliance Matrix: (Units=1/GPa)
#
#
# Indices 1 2 3 4 5 6 
#
# 1 0.075733 -0.005253 -0.029751 0.000000 0.000000 0.000000
# 2 -0.005253 0.012154 -0.003773 0.000000 0.000000 0.000000
# 3 -0.029751 -0.003773 0.031451 0.000000 0.000000 0.000000
# 4 0.000000 0.000000 0.000000 -0.053646 0.000000 0.000000
# 5 0.000000 0.000000 0.000000 0.000000 0.041437 0.000000
# 6 0.000000 0.000000 0.000000 0.000000 0.000000 0.088226
#
#
# Mechanical properties :
#
#
# Convention : Reuss Voigt Hill
#
# Bulk Modulus (GPa) = 23.93366 36.57686 30.25526
# Shear Modulus (GPa) = 17.43134 10.69603 14.06368
#
# Velocity S-wave (km/s) = 3.06449 2.40052 2.75260
# Velocity P-wave (km/s) = 5.04140 5.23346 5.13833
#
# Compressibility (1/GPa) = 0.04178217
#
# Stress axis : x y z
#
# Youngs Moduli (GPa) = 13.20426 82.27501 31.79539
#
# Poissons Ratio (x) = 0.43222 0.94596
# Poissons Ratio (y) = 0.06937 0.11998
# Poissons Ratio (z) = 0.39285 0.31046
#
# Static dielectric constant tensor:
#      x y z
#    x 1.621150 0.000000 0.000000 
#    y 0.000000 1.626950 0.000000 
#    z 0.000000 0.000000 1.642620 
# 
# From -- ./inp_files/46819.got.cif
#   From: 2010.05.17/outbox.cif.g08.bks.cpg/sg63_24_cif.got.tgz:46819.got - 2010.06.03 15:47:04.
