data_PCOD9474546
_publ_section_title
;
Structure prediction by ZEFSAII (Michael W. Deem and Ramdas Pophale) SiO2 
 PCOD9474546
Probable space group: C M C M
;
_chemical_formula_sum "Si O2"
_cell_formula_units_Z 96
_cell_length_a 18.141995
_cell_length_b 11.570780
_cell_length_c 21.320460
_cell_angle_alpha 90.000000
_cell_angle_beta 90.000000
_cell_angle_gamma 90.000000
_cell_volume 4475.527703
_symmetry_space_group_name_H-M "C M C M"
_symmetry_group_IT_number 63
_symmetry_cell_setting 'orthorhombic'
loop_
_space_group_symop_operation_xyz
x,y,z
-x,-y,1/2+z
x,-y,-z
-x,y,1/2-z
-x,-y,-z
x,y,1/2-z
-x,y,z
x,-y,1/2+z
1/2+x,1/2+y,z
1/2-x,1/2-y,1/2+z
1/2+x,1/2-y,-z
1/2-x,1/2+y,1/2-z
1/2-x,1/2-y,-z
1/2+x,1/2+y,1/2-z
1/2-x,1/2+y,z
1/2+x,1/2-y,1/2+z
loop_
_atom_site_type_symbol
_atom_site_label
_atom_site_fract_x
_atom_site_fract_y
_atom_site_fract_z
Si Si1 0.670168 0.556744 0.897796
Si Si2 0.727437 0.242521 0.177365
Si Si3 0.828074 0.551292 0.407609
Si Si4 0.086613 0.745965 0.477314
Si Si5 0.618204 0.311189 0.881312
Si Si6 0.082098 0.599628 0.818155
O O1 0.693218 0.633320 0.837940
O O2 0.747004 0.500006 0.923234
O O3 0.629437 0.647068 0.943678
O O4 0.618533 0.449453 0.880040
O O5 0.745255 0.228945 0.250000
O O6 0.676714 0.140179 0.151471
O O7 0.797660 0.226634 0.132431
O O8 0.868665 0.628622 0.459998
O O9 0.876258 0.450015 0.378093
O O10 0.091194 0.772333 0.550755
O O11 0.000000 0.738210 0.458606
O O12 0.578157 0.237031 0.828609
O O13 0.117130 0.576314 0.750000
O O14 0.000000 0.550876 0.818101
#
# Coordination Sequence:
#
# PCOD9474546 Si02
#       6
#    16  16  16  16  16  16
#     4  10  23  40  66  94 127 169 217 271 321 387
#     4  10  21  39  64  95 127 166 216 271 325 384
#     4  10  22  42  65  95 128 168 219 273 324 387
#     4  11  25  44  66  93 132 178 221 267 329 394
#     4  11  23  38  61  91 129 164 211 261 320 385
#     4  11  23  40  62  90 128 170 212 266 331 394
#
# _framework density 21.449984000000001
#
# number of rings (size 3 to 8) (size 9 to 14) (size 15 to 20)
#    0.000    1.500    1.667    2.500    0.000   13.333 
#    0.000    1.667    0.000    4.500    0.000    0.000 
#    0.000    0.000    0.000    0.000    0.000    0.000 
#
# Total GULP energy -267818.125473 kJ/mol
# GULP energy per Si atom -5579.544281 kJ/mol
# Density = 2.140116 g / cm^3
# Si number density = 21.449984 Si / 1000 Ang^3
#
#
#
# Elastic Constant Matrix: (Units=GPa)
#
#
# Indices 1 2 3 4 5 6 
#
# 1 76.7349 24.0132 13.1912 0.0000 0.0000 0.0000
# 2 24.0132 117.9310 20.7866 0.0000 0.0000 0.0000
# 3 13.1912 20.7866 66.9524 0.0000 0.0000 0.0000
# 4 0.0000 0.0000 0.0000 18.0418 0.0000 0.0000
# 5 0.0000 0.0000 0.0000 0.0000 21.0496 0.0000
# 6 0.0000 0.0000 0.0000 0.0000 0.0000 11.5814
#
#
#
# Elastic Compliance Matrix: (Units=1/GPa)
#
#
# Indices 1 2 3 4 5 6 
#
# 1 0.014169 -0.002532 -0.002006 0.000000 0.000000 0.000000
# 2 -0.002532 0.009423 -0.002427 0.000000 0.000000 0.000000
# 3 -0.002006 -0.002427 0.016085 0.000000 0.000000 0.000000
# 4 0.000000 0.000000 0.000000 0.055427 0.000000 0.000000
# 5 0.000000 0.000000 0.000000 0.000000 0.047507 0.000000
# 6 0.000000 0.000000 0.000000 0.000000 0.000000 0.086345
#
#
# Mechanical properties :
#
#
# Convention : Reuss Voigt Hill
#
# Bulk Modulus (GPa) = 38.83736 41.95559 40.39648
# Shear Modulus (GPa) = 19.88345 23.70973 21.79659
#
# Velocity S-wave (km/s) = 3.04792 3.32829 3.19118
# Velocity P-wave (km/s) = 5.52555 5.86278 5.69666
#
# Compressibility (1/GPa) = 0.02574840
#
# Stress axis : x y z
#
# Youngs Moduli (GPa) = 70.57724 106.12628 62.17149
#
# Poissons Ratio (x) = 0.26866 0.12469
# Poissons Ratio (y) = 0.17867 0.15087
# Poissons Ratio (z) = 0.14155 0.25753
#
# Static dielectric constant tensor:
#      x y z
#    x 1.865960 0.000000 0.000000 
#    y 0.000000 1.816650 0.000000 
#    z 0.000000 0.000000 1.758890 
# 
# From -- ./inp_files/63680.got.cif
#   From: 2010.05.17/outbox.cif.g08.bks.cpg/sg63_32_cif.got.tgz:63680.got - 2010.06.03 15:47:04.
