data_PCOD9474522
_publ_section_title
;
Structure prediction by ZEFSAII (Michael W. Deem and Ramdas Pophale) SiO2 
 PCOD9474522
Probable space group: C M C M
;
_chemical_formula_sum "Si O2"
_cell_formula_units_Z 64
_cell_length_a 14.793315
_cell_length_b 25.308236
_cell_length_c 8.828482
_cell_angle_alpha 90.000000
_cell_angle_beta 90.000000
_cell_angle_gamma 90.000000
_cell_volume 3305.319277
_symmetry_space_group_name_H-M "C M C M"
_symmetry_group_IT_number 63
_symmetry_cell_setting 'orthorhombic'
loop_
_space_group_symop_operation_xyz
x,y,z
-x,-y,1/2+z
x,-y,-z
-x,y,1/2-z
-x,-y,-z
x,y,1/2-z
-x,y,z
x,-y,1/2+z
1/2+x,1/2+y,z
1/2-x,1/2-y,1/2+z
1/2+x,1/2-y,-z
1/2-x,1/2+y,1/2-z
1/2-x,1/2-y,-z
1/2+x,1/2+y,1/2-z
1/2-x,1/2+y,z
1/2+x,1/2-y,1/2+z
loop_
_atom_site_type_symbol
_atom_site_label
_atom_site_fract_x
_atom_site_fract_y
_atom_site_fract_z
Si Si1 0.500000 0.557960 0.071016
Si Si2 0.149101 0.252783 0.567811
Si Si3 0.858382 0.362394 0.430819
Si Si4 0.143107 0.864806 0.069591
Si Si5 0.500000 0.941626 0.568987
O O1 0.500000 0.553403 0.250000
O O2 0.500000 0.500000 0.000000
O O3 0.586539 0.591404 0.016300
O O4 0.151593 0.257689 0.750000
O O5 0.250000 0.250000 0.500000
O O6 0.109514 0.305781 0.496036
O O7 0.110247 0.194843 0.531897
O O8 0.871441 0.363359 0.250000
O O9 0.750725 0.367617 0.460903
O O10 0.913872 0.408832 0.508943
O O11 0.130673 0.871801 0.250000
O O12 0.500000 0.943800 0.750000
O O13 0.500000 0.000000 0.500000
#
# Coordination Sequence:
#
# PCOD9474522 Si02
#       5
#     8  16  16  16   8
#     4  12  26  41  60  83 112 151 197 245 289 342
#     4   9  17  32  57  89 122 155 190 235 290 349
#     4  10  21  39  63  90 120 155 194 241 292 347
#     4   9  20  39  62  87 119 154 190 236 289 342
#     4  12  26  43  62  85 116 155 199 247 293 348
#
# _framework density 19.362729999999999
#
# number of rings (size 3 to 8) (size 9 to 14) (size 15 to 20)
#    0.000    2.000    0.000    5.250    0.000    8.000 
#    0.000    1.250    0.000    0.000    0.000    0.000 
#    0.000    0.000    0.000    0.000    0.000    0.000 
#
# Total GULP energy -178733.473084 kJ/mol
# GULP energy per Si atom -5585.421034 kJ/mol
# Density = 1.931866 g / cm^3
# Si number density = 19.362730 Si / 1000 Ang^3
#
#
#
# Elastic Constant Matrix: (Units=GPa)
#
#
# Indices 1 2 3 4 5 6 
#
# 1 96.9634 79.9631 66.3001 0.0000 0.0000 0.0000
# 2 79.9631 225.8862 111.2254 0.0000 0.0000 0.0000
# 3 66.3001 111.2254 127.6117 0.0000 0.0000 0.0000
# 4 0.0000 0.0000 0.0000 42.7833 0.0000 0.0000
# 5 0.0000 0.0000 0.0000 0.0000 31.0335 0.0000
# 6 0.0000 0.0000 0.0000 0.0000 0.0000 32.1772
#
#
#
# Elastic Compliance Matrix: (Units=1/GPa)
#
#
# Indices 1 2 3 4 5 6 
#
# 1 0.017035 -0.002930 -0.006297 0.000000 0.000000 0.000000
# 2 -0.002930 0.008259 -0.005677 0.000000 0.000000 0.000000
# 3 -0.006297 -0.005677 0.016055 0.000000 0.000000 0.000000
# 4 0.000000 0.000000 0.000000 0.023374 0.000000 0.000000
# 5 0.000000 0.000000 0.000000 0.000000 0.032223 0.000000
# 6 0.000000 0.000000 0.000000 0.000000 0.000000 0.031078
#
#
# Mechanical properties :
#
#
# Convention : Reuss Voigt Hill
#
# Bulk Modulus (GPa) = 86.63104 107.27096 96.95100
# Shear Modulus (GPa) = 30.92565 34.06364 32.49464
#
# Velocity S-wave (km/s) = 4.00080 4.19888 4.10104
# Velocity P-wave (km/s) = 8.13512 8.88979 8.52081
#
# Compressibility (1/GPa) = 0.01154321
#
# Stress axis : x y z
#
# Youngs Moduli (GPa) = 58.70350 121.07639 62.28443
#
# Poissons Ratio (x) = 0.35472 0.39219
# Poissons Ratio (y) = 0.17199 0.35356
# Poissons Ratio (z) = 0.36964 0.68730
#
# Static dielectric constant tensor:
#      x y z
#    x 1.681820 0.000000 0.000000 
#    y 0.000000 1.665970 0.000000 
#    z 0.000000 0.000000 1.651440 
# 
# From -- ./inp_files/4285.got.cif
#   From: 2010.05.17/outbox.cif.g08.bks.cpg/sg63_3_cif.got.tgz:4285.got - 2010.06.03 15:47:04.
