data_PCOD9474699
_publ_section_title
;
Structure prediction by ZEFSAII (Michael W. Deem and Ramdas Pophale) SiO2 
 PCOD9474699
Probable space group: C M C M
;
_chemical_formula_sum "Si O2"
_cell_formula_units_Z 96
_cell_length_a 25.243948
_cell_length_b 8.956402
_cell_length_c 23.836665
_cell_angle_alpha 90.000000
_cell_angle_beta 90.000000
_cell_angle_gamma 90.000000
_cell_volume 5389.349494
_symmetry_space_group_name_H-M "C M C M"
_symmetry_group_IT_number 63
_symmetry_cell_setting 'orthorhombic'
loop_
_space_group_symop_operation_xyz
x,y,z
-x,-y,1/2+z
x,-y,-z
-x,y,1/2-z
-x,-y,-z
x,y,1/2-z
-x,y,z
x,-y,1/2+z
1/2+x,1/2+y,z
1/2-x,1/2-y,1/2+z
1/2+x,1/2-y,-z
1/2-x,1/2+y,1/2-z
1/2-x,1/2-y,-z
1/2+x,1/2+y,1/2-z
1/2-x,1/2+y,z
1/2+x,1/2-y,1/2+z
loop_
_atom_site_type_symbol
_atom_site_label
_atom_site_fract_x
_atom_site_fract_y
_atom_site_fract_z
Si Si1 0.821479 0.546915 0.130409
Si Si2 0.130960 0.877597 0.128987
Si Si3 0.285983 0.425267 0.940016
Si Si4 0.940031 0.163042 0.527926
Si Si5 0.352501 0.143051 0.961652
Si Si6 0.328228 0.581137 0.750000
Si Si7 0.719293 0.918198 0.750000
O O1 0.845280 0.711498 0.127332
O O2 0.766594 0.557651 0.096230
O O3 0.859985 0.429283 0.099875
O O4 0.806291 0.512567 0.194147
O O5 0.077793 0.861112 0.092459
O O6 0.136050 0.925041 0.193917
O O7 0.167705 0.990493 0.093798
O O8 0.304271 0.256945 0.952461
O O9 0.280726 0.500000 0.000000
O O10 0.899147 0.267271 0.493249
O O11 0.000000 0.220730 0.524415
O O12 0.937768 0.000000 0.500000
O O13 0.340787 0.000000 0.000000
O O14 0.296297 0.741397 0.750000
O O15 0.281867 0.456113 0.750000
#
# Coordination Sequence:
#
# PCOD9474699 Si02
#       7
#    16  16  16  16  16   8   8
#     4  11  23  34  54  82 125 153 197 230 277 347
#     4  11  20  40  54  84 115 154 197 235 284 350
#     4  12  21  33  54  82 120 157 182 227 287 349
#     4  11  23  43  64  83 111 146 192 253 312 351
#     4  12  22  37  56  88 117 148 195 238 296 350
#     4  10  22  36  59  80 121 157 202 234 275 345
#     4  10  22  36  50  82 115 171 191 228 273 335
#
# _framework density 17.812909999999999
#
# number of rings (size 3 to 8) (size 9 to 14) (size 15 to 20)
#    0.000    0.833    6.667    1.500    2.333    2.333 
#    0.000    0.417    0.000    0.000    0.000    0.583 
#    0.000    0.000    0.000    0.000    0.000    0.000 
#
# Total GULP energy -267881.383340 kJ/mol
# GULP energy per Si atom -5580.862153 kJ/mol
# Density = 1.777237 g / cm^3
# Si number density = 17.812910 Si / 1000 Ang^3
#
#
#
# Elastic Constant Matrix: (Units=GPa)
#
#
# Indices 1 2 3 4 5 6 
#
# 1 67.0148 18.7758 45.8965 0.0000 0.0000 0.0000
# 2 18.7758 67.7246 37.9920 0.0000 0.0000 0.0000
# 3 45.8965 37.9920 163.4647 0.0000 0.0000 0.0000
# 4 0.0000 0.0000 0.0000 20.6012 0.0000 0.0000
# 5 0.0000 0.0000 0.0000 0.0000 -2.5778 0.0000
# 6 0.0000 0.0000 0.0000 0.0000 0.0000 14.8036
#
#
#
# Elastic Compliance Matrix: (Units=1/GPa)
#
#
# Indices 1 2 3 4 5 6 
#
# 1 0.018864 -0.002597 -0.004693 0.000000 0.000000 0.000000
# 2 -0.002597 0.017337 -0.003300 0.000000 0.000000 0.000000
# 3 -0.004693 -0.003300 0.008202 0.000000 0.000000 0.000000
# 4 0.000000 0.000000 0.000000 0.048541 0.000000 0.000000
# 5 0.000000 0.000000 0.000000 0.000000 -0.387932 0.000000
# 6 0.000000 0.000000 0.000000 0.000000 0.000000 0.067551
#
#
# Mechanical properties :
#
#
# Convention : Reuss Voigt Hill
#
# Bulk Modulus (GPa) = 43.06157 55.94808 49.50483
# Shear Modulus (GPa) = -25.18692 19.60141 -2.79276
#
# Velocity S-wave (km/s) = -3.76436 3.32083 -1.25349
# Velocity P-wave (km/s) = 2.30932 6.79565 5.07513
#
# Compressibility (1/GPa) = 0.02322256
#
# Stress axis : x y z
#
# Youngs Moduli (GPa) = 53.01186 57.67992 121.91899
#
# Poissons Ratio (x) = 0.14980 0.57214
# Poissons Ratio (y) = 0.13768 0.40236
# Poissons Ratio (z) = 0.24877 0.19036
#
# Static dielectric constant tensor:
#      x y z
#    x 1.606150 0.000000 0.000000 
#    y 0.000000 1.636740 0.000000 
#    z 0.000000 0.000000 1.647810 
# 
# From -- ./inp_files/65393.got.cif
#   From: 2010.05.17/outbox.cif.g08.bks.cpg/sg63_33_cif.got.tgz:65393.got - 2010.06.03 15:47:04.
