data_PCOD9474631
_publ_section_title
;
Structure prediction by ZEFSAII (Michael W. Deem and Ramdas Pophale) SiO2 
 PCOD9474631
Probable space group: C M C M
;
_chemical_formula_sum "Si O2"
_cell_formula_units_Z 80
_cell_length_a 14.856515
_cell_length_b 11.576957
_cell_length_c 23.433691
_cell_angle_alpha 90.000000
_cell_angle_beta 90.000000
_cell_angle_gamma 90.000000
_cell_volume 4030.436331
_symmetry_space_group_name_H-M "C M C M"
_symmetry_group_IT_number 63
_symmetry_cell_setting 'orthorhombic'
loop_
_space_group_symop_operation_xyz
x,y,z
-x,-y,1/2+z
x,-y,-z
-x,y,1/2-z
-x,-y,-z
x,y,1/2-z
-x,y,z
x,-y,1/2+z
1/2+x,1/2+y,z
1/2-x,1/2-y,1/2+z
1/2+x,1/2-y,-z
1/2-x,1/2+y,1/2-z
1/2-x,1/2-y,-z
1/2+x,1/2+y,1/2-z
1/2-x,1/2+y,z
1/2+x,1/2-y,1/2+z
loop_
_atom_site_type_symbol
_atom_site_label
_atom_site_fract_x
_atom_site_fract_y
_atom_site_fract_z
Si Si1 0.639353 0.220234 0.627015
Si Si2 0.686008 0.949684 0.750000
Si Si3 0.197470 0.713012 0.750000
Si Si4 0.500000 0.352571 0.053082
Si Si5 0.601743 0.036450 0.122684
Si Si6 0.807103 0.729497 0.058502
Si Si7 0.500000 0.397847 0.580823
O O1 0.636444 0.222266 0.694519
O O2 0.742481 0.222147 0.607590
O O3 0.586626 0.329340 0.603109
O O4 0.600473 0.098504 0.607216
O O5 0.739527 0.827360 0.750000
O O6 0.632922 0.950181 0.810937
O O7 0.734207 0.078559 0.750000
O O8 0.404451 0.289054 0.059491
O O9 0.500000 0.466469 0.092468
O O10 0.500000 0.384847 0.986706
O O11 0.500000 0.082084 0.117544
O O12 0.669167 0.099831 0.078940
O O13 0.750000 0.750000 0.000000
#
# Coordination Sequence:
#
# PCOD9474631 Si02
#       7
#    16   8   8   8  16  16   8
#     4  11  24  43  69  98 134 180 225 279 342 406
#     4  10  21  40  67 100 133 179 223 283 345 414
#     4  10  22  39  68 103 135 175 233 277 343 412
#     4  11  26  43  65  96 137 178 225 274 335 410
#     4  11  23  42  69  97 133 171 229 283 336 405
#     4  12  25  42  66  99 132 178 221 277 342 402
#     4  11  24  44  65  92 137 179 221 278 338 402
#
# _framework density 19.848966999999998
#
# number of rings (size 3 to 8) (size 9 to 14) (size 15 to 20)
#    0.000    1.000    6.000    0.300    2.800    1.200 
#    0.000    2.000    0.000    2.400    0.000    0.000 
#    0.000    0.000    0.000    0.000    0.000    0.000 
#
# Total GULP energy -222864.475272 kJ/mol
# GULP energy per Si atom -5571.611882 kJ/mol
# Density = 1.980379 g / cm^3
# Si number density = 19.848967 Si / 1000 Ang^3
#
#
#
# Elastic Constant Matrix: (Units=GPa)
#
#
# Indices 1 2 3 4 5 6 
#
# 1 120.4194 58.9318 27.2547 0.0000 0.0000 0.0000
# 2 58.9318 131.0612 41.5026 0.0000 0.0000 0.0000
# 3 27.2547 41.5026 83.3516 0.0000 0.0000 0.0000
# 4 0.0000 0.0000 0.0000 29.0695 0.0000 0.0000
# 5 0.0000 0.0000 0.0000 0.0000 32.4602 0.0000
# 6 0.0000 0.0000 0.0000 0.0000 0.0000 6.3228
#
#
#
# Elastic Compliance Matrix: (Units=1/GPa)
#
#
# Indices 1 2 3 4 5 6 
#
# 1 0.010768 -0.004424 -0.001318 0.000000 0.000000 0.000000
# 2 -0.004424 0.010876 -0.003969 0.000000 0.000000 0.000000
# 3 -0.001318 -0.003969 0.014404 0.000000 0.000000 0.000000
# 4 0.000000 0.000000 0.000000 0.034400 0.000000 0.000000
# 5 0.000000 0.000000 0.000000 0.000000 0.030807 0.000000
# 6 0.000000 0.000000 0.000000 0.000000 0.000000 0.158159
#
#
# Mechanical properties :
#
#
# Convention : Reuss Voigt Hill
#
# Bulk Modulus (GPa) = 60.14574 65.57895 62.86234
# Shear Modulus (GPa) = 17.58218 27.38003 22.48110
#
# Velocity S-wave (km/s) = 2.97946 3.71808 3.36908
# Velocity P-wave (km/s) = 6.49644 7.17934 6.84641
#
# Compressibility (1/GPa) = 0.01662628
#
# Stress axis : x y z
#
# Youngs Moduli (GPa) = 92.86893 91.94331 69.42293
#
# Poissons Ratio (x) = 0.40680 0.09149
# Poissons Ratio (y) = 0.41089 0.27553
# Poissons Ratio (z) = 0.12239 0.36491
#
# Static dielectric constant tensor:
#      x y z
#    x 1.724120 0.000000 0.000000 
#    y 0.000000 1.772370 0.000000 
#    z 0.000000 0.000000 1.722850 
# 
# From -- ./inp_files/62625.got.cif
#   From: 2010.05.17/outbox.cif.g08.bks.cpg/sg63_32_cif.got.tgz:62625.got - 2010.06.03 15:47:04.
