data_PCOD9474512
_publ_section_title
;
Structure prediction by ZEFSAII (Michael W. Deem and Ramdas Pophale) SiO2 
 PCOD9474512
Probable space group: C M C M
;
_chemical_formula_sum "Si O2"
_cell_formula_units_Z 64
_cell_length_a 8.816643
_cell_length_b 14.467432
_cell_length_c 24.833450
_cell_angle_alpha 90.000000
_cell_angle_beta 90.000000
_cell_angle_gamma 90.000000
_cell_volume 3167.610428
_symmetry_space_group_name_H-M "C M C M"
_symmetry_group_IT_number 63
_symmetry_cell_setting 'orthorhombic'
loop_
_space_group_symop_operation_xyz
x,y,z
-x,-y,1/2+z
x,-y,-z
-x,y,1/2-z
-x,-y,-z
x,y,1/2-z
-x,y,z
x,-y,1/2+z
1/2+x,1/2+y,z
1/2-x,1/2-y,1/2+z
1/2+x,1/2-y,-z
1/2-x,1/2+y,1/2-z
1/2-x,1/2-y,-z
1/2+x,1/2+y,1/2-z
1/2-x,1/2+y,z
1/2+x,1/2-y,1/2+z
loop_
_atom_site_type_symbol
_atom_site_label
_atom_site_fract_x
_atom_site_fract_y
_atom_site_fract_z
Si Si1 0.318010 0.067608 0.378236
Si Si2 0.325982 0.887563 0.505514
Si Si3 0.679568 0.365668 0.395081
Si Si4 0.680515 0.721954 0.311782
O O1 0.500000 0.054302 0.378835
O O2 0.278621 0.125310 0.432696
O O3 0.263357 0.127212 0.328136
O O4 0.235706 0.969498 0.381991
O O5 0.500000 0.857342 0.498279
O O6 0.226265 0.848255 0.457324
O O7 0.324486 0.000000 0.500000
O O8 0.500000 0.357067 0.389572
O O9 0.761141 0.298604 0.353224
O O10 0.713722 0.747288 0.250000
O O11 0.500000 0.710405 0.317433
#
# Coordination Sequence:
#
# PCOD9474512 Si02
#       4
#    16  16  16  16
#     4  10  21  39  63  89 119 154 190 236 292 346
#     4   8  16  33  57  86 119 152 188 231 283 344
#     4  11  22  37  61  90 120 155 192 235 288 344
#     4  11  25  43  61  83 113 152 200 248 290 339
#
# _framework density 20.204505000000001
#
# number of rings (size 3 to 8) (size 9 to 14) (size 15 to 20)
#    0.000    2.000    0.000    5.250    0.000    9.500 
#    0.000    0.000    0.000    0.000    0.000    0.000 
#    0.000    0.000    0.000    0.000    0.000    0.000 
#
# Total GULP energy -178851.281191 kJ/mol
# GULP energy per Si atom -5589.102537 kJ/mol
# Density = 2.015852 g / cm^3
# Si number density = 20.204505 Si / 1000 Ang^3
#
#
#
# Elastic Constant Matrix: (Units=GPa)
#
#
# Indices 1 2 3 4 5 6 
#
# 1 58.2358 -2.4611 34.4250 0.0000 0.0000 0.0000
# 2 -2.4611 32.4278 7.2999 0.0000 0.0000 0.0000
# 3 34.4250 7.2999 92.9269 0.0000 0.0000 0.0000
# 4 0.0000 0.0000 0.0000 31.1567 0.0000 0.0000
# 5 0.0000 0.0000 0.0000 0.0000 31.3321 0.0000
# 6 0.0000 0.0000 0.0000 0.0000 0.0000 28.4235
#
#
#
# Elastic Compliance Matrix: (Units=1/GPa)
#
#
# Indices 1 2 3 4 5 6 
#
# 1 0.022399 0.003632 -0.008583 0.000000 0.000000 0.000000
# 2 0.003632 0.031982 -0.003858 0.000000 0.000000 0.000000
# 3 -0.008583 -0.003858 0.014244 0.000000 0.000000 0.000000
# 4 0.000000 0.000000 0.000000 0.032096 0.000000 0.000000
# 5 0.000000 0.000000 0.000000 0.000000 0.031916 0.000000
# 6 0.000000 0.000000 0.000000 0.000000 0.000000 0.035182
#
#
# Mechanical properties :
#
#
# Convention : Reuss Voigt Hill
#
# Bulk Modulus (GPa) = 19.60521 29.12425 24.36473
# Shear Modulus (GPa) = 24.69888 27.80425 26.25156
#
# Velocity S-wave (km/s) = 3.50014 3.71366 3.60848
# Velocity P-wave (km/s) = 5.10481 5.73013 5.42649
#
# Compressibility (1/GPa) = 0.05100686
#
# Stress axis : x y z
#
# Youngs Moduli (GPa) = 44.64537 31.26773 70.20603
#
# Poissons Ratio (x) = -0.11357 0.60258
# Poissons Ratio (y) = -0.16216 0.27085
# Poissons Ratio (z) = 0.38319 0.12063
#
# Static dielectric constant tensor:
#      x y z
#    x 1.663840 0.000000 0.000000 
#    y 0.000000 1.750810 0.000000 
#    z 0.000000 0.000000 1.725730 
# 
# From -- ./inp_files/50326.got.cif
#   From: 2010.05.17/outbox.cif.g08.bks.cpg/sg63_26_cif.got.tgz:50326.got - 2010.06.03 15:47:04.
