data_PCOD9474534
_publ_section_title
;
Structure prediction by ZEFSAII (Michael W. Deem and Ramdas Pophale) SiO2 
 PCOD9474534
Probable space group: C M C M
;
_chemical_formula_sum "Si O2"
_cell_formula_units_Z 56
_cell_length_a 19.991605
_cell_length_b 14.585137
_cell_length_c 9.551062
_cell_angle_alpha 90.000000
_cell_angle_beta 90.000000
_cell_angle_gamma 90.000000
_cell_volume 2784.901502
_symmetry_space_group_name_H-M "C M C M"
_symmetry_group_IT_number 63
_symmetry_cell_setting 'orthorhombic'
loop_
_space_group_symop_operation_xyz
x,y,z
-x,-y,1/2+z
x,-y,-z
-x,y,1/2-z
-x,-y,-z
x,y,1/2-z
-x,y,z
x,-y,1/2+z
1/2+x,1/2+y,z
1/2-x,1/2-y,1/2+z
1/2+x,1/2-y,-z
1/2-x,1/2+y,1/2-z
1/2-x,1/2-y,-z
1/2+x,1/2+y,1/2-z
1/2-x,1/2+y,z
1/2+x,1/2-y,1/2+z
loop_
_atom_site_type_symbol
_atom_site_label
_atom_site_fract_x
_atom_site_fract_y
_atom_site_fract_z
Si Si1 0.807947 0.123239 0.250000
Si Si2 0.573534 0.232844 0.750000
Si Si3 0.925099 0.608077 0.023009
Si Si4 0.579112 0.615339 0.750000
Si Si5 0.357315 0.500000 0.000000
Si Si6 0.836643 0.301638 0.750000
O O1 0.871860 0.189043 0.250000
O O2 0.742555 0.186919 0.250000
O O3 0.813677 0.061806 0.108316
O O4 0.500000 0.276861 0.750000
O O5 0.578469 0.166105 0.618057
O O6 0.000000 0.623899 0.082929
O O7 0.918701 0.500000 0.000000
O O8 0.866950 0.644964 0.118991
O O9 0.500000 0.638990 0.750000
O O10 0.597595 0.559033 0.608567
O O11 0.629293 0.701977 0.750000
#
# Coordination Sequence:
#
# PCOD9474534 Si02
#       6
#     8   8  16   8   8   8
#     4  11  26  45  64  94 129 172 220 261 329 380
#     4  10  22  41  66  93 128 167 212 266 317 378
#     4  10  21  39  63  95 128 167 212 258 317 382
#     4  11  23  43  71 100 128 166 217 271 323 377
#     4  10  25  46  66  92 129 174 218 268 315 386
#     4  12  25  39  63  95 131 171 209 270 317 389
#
# _framework density 20.108429000000001
#
# number of rings (size 3 to 8) (size 9 to 14) (size 15 to 20)
#    0.000    1.429    0.000    4.286    2.000   12.571 
#    5.143    0.000    0.000    0.000    0.000    0.000 
#    0.000    0.000    0.000    0.000    0.000    0.000 
#
# Total GULP energy -156417.976983 kJ/mol
# GULP energy per Si atom -5586.356321 kJ/mol
# Density = 2.006266 g / cm^3
# Si number density = 20.108429 Si / 1000 Ang^3
#
#
#
# Elastic Constant Matrix: (Units=GPa)
#
#
# Indices 1 2 3 4 5 6 
#
# 1 158.9669 72.5796 59.7356 0.0000 0.0000 0.0000
# 2 72.5796 114.8304 44.8540 0.0000 0.0000 0.0000
# 3 59.7356 44.8540 130.9258 0.0000 0.0000 0.0000
# 4 0.0000 0.0000 0.0000 17.6331 0.0000 0.0000
# 5 0.0000 0.0000 0.0000 0.0000 21.0636 0.0000
# 6 0.0000 0.0000 0.0000 0.0000 0.0000 29.6159
#
#
#
# Elastic Compliance Matrix: (Units=1/GPa)
#
#
# Indices 1 2 3 4 5 6 
#
# 1 0.009578 -0.005018 -0.002651 0.000000 0.000000 0.000000
# 2 -0.005018 0.012683 -0.002056 0.000000 0.000000 0.000000
# 3 -0.002651 -0.002056 0.009552 0.000000 0.000000 0.000000
# 4 0.000000 0.000000 0.000000 0.056711 0.000000 0.000000
# 5 0.000000 0.000000 0.000000 0.000000 0.047475 0.000000
# 6 0.000000 0.000000 0.000000 0.000000 0.000000 0.033766
#
#
# Mechanical properties :
#
#
# Convention : Reuss Voigt Hill
#
# Bulk Modulus (GPa) = 80.88336 84.34017 82.61177
# Shear Modulus (GPa) = 25.86176 28.83278 27.34727
#
# Velocity S-wave (km/s) = 3.59014 3.79075 3.69181
# Velocity P-wave (km/s) = 7.58264 7.82262 7.70356
#
# Compressibility (1/GPa) = 0.01236348
#
# Stress axis : x y z
#
# Youngs Moduli (GPa) = 104.40640 78.84353 104.69531
#
# Poissons Ratio (x) = 0.39567 0.27752
# Poissons Ratio (y) = 0.52396 0.21520
# Poissons Ratio (z) = 0.27675 0.16206
#
# Static dielectric constant tensor:
#      x y z
#    x 1.693740 0.000000 0.000000 
#    y 0.000000 1.700370 0.000000 
#    z 0.000000 0.000000 1.698780 
# 
# From -- ./inp_files/7363.got.cif
#   From: 2010.05.17/outbox.cif.g08.bks.cpg/sg63_4_cif.got.tgz:7363.got - 2010.06.03 15:47:04.
