data_PCOD9474783
_publ_section_title
;
Structure prediction by ZEFSAII (Michael W. Deem and Ramdas Pophale) SiO2 
 PCOD9474783
Probable space group: C M C M
;
_chemical_formula_sum "Si O2"
_cell_formula_units_Z 96
_cell_length_a 21.143778
_cell_length_b 15.849914
_cell_length_c 14.717783
_cell_angle_alpha 90.000000
_cell_angle_beta 90.000000
_cell_angle_gamma 90.000000
_cell_volume 4932.327390
_symmetry_space_group_name_H-M "C M C M"
_symmetry_group_IT_number 63
_symmetry_cell_setting 'orthorhombic'
loop_
_space_group_symop_operation_xyz
x,y,z
-x,-y,1/2+z
x,-y,-z
-x,y,1/2-z
-x,-y,-z
x,y,1/2-z
-x,y,z
x,-y,1/2+z
1/2+x,1/2+y,z
1/2-x,1/2-y,1/2+z
1/2+x,1/2-y,-z
1/2-x,1/2+y,1/2-z
1/2-x,1/2-y,-z
1/2+x,1/2+y,1/2-z
1/2-x,1/2+y,z
1/2+x,1/2-y,1/2+z
loop_
_atom_site_type_symbol
_atom_site_label
_atom_site_fract_x
_atom_site_fract_y
_atom_site_fract_z
Si Si1 0.500000 0.636086 0.142905
Si Si2 0.252221 0.898790 0.510270
Si Si3 0.429549 0.228062 0.147392
Si Si4 0.637687 0.573133 0.358977
Si Si5 0.398081 0.101056 0.998680
Si Si6 0.163789 0.124343 0.643161
Si Si7 0.500000 0.837966 0.356832
O O1 0.500000 0.611565 0.250000
O O2 0.431667 0.603665 0.107846
O O3 0.500000 0.736767 0.136108
O O4 0.198235 0.886842 0.588079
O O5 0.324928 0.871598 0.513993
O O6 0.224664 0.861969 0.417757
O O7 0.255601 0.000000 0.500000
O O8 0.410849 0.203838 0.250000
O O9 0.500000 0.263364 0.149923
O O10 0.429617 0.147471 0.083538
O O11 0.385655 0.304236 0.116188
O O12 0.643217 0.589340 0.250000
O O13 0.640813 0.471722 0.373005
O O14 0.437277 0.130044 0.909867
O O15 0.401610 0.000000 0.000000
O O16 0.176384 0.131570 0.750000
O O17 0.500000 0.861194 0.250000
#
# Coordination Sequence:
#
# PCOD9474783 Si02
#       7
#     8  16  16  16  16  16   8
#     4   9  20  37  57  87 123 158 196 234 279 346
#     4   9  20  37  58  87 117 153 197 240 292 355
#     4  10  22  38  59  88 120 150 192 248 299 352
#     4   9  18  35  60  89 125 162 196 234 285 357
#     4  11  24  43  64  84 113 153 201 257 310 355
#     4   9  19  36  57  87 123 157 191 231 289 355
#     4  11  25  43  61  88 117 151 199 253 308 362
#
# _framework density 19.463429000000001
#
# number of rings (size 3 to 8) (size 9 to 14) (size 15 to 20)
#    0.000    2.333    0.833    0.250    3.500    2.667 
#    0.000    4.583    0.000    0.000    0.000    0.000 
#    0.000    0.000    0.000    0.000    0.000    0.000 
#
# Total GULP energy -267390.582710 kJ/mol
# GULP energy per Si atom -5570.637140 kJ/mol
# Density = 1.941913 g / cm^3
# Si number density = 19.463429 Si / 1000 Ang^3
#
#
#
# Elastic Constant Matrix: (Units=GPa)
#
#
# Indices 1 2 3 4 5 6 
#
# 1 163.0690 34.2962 52.3069 0.0000 0.0000 0.0000
# 2 34.2962 47.8308 40.6382 0.0000 0.0000 0.0000
# 3 52.3069 40.6382 63.9378 0.0000 0.0000 0.0000
# 4 0.0000 0.0000 0.0000 23.4844 0.0000 0.0000
# 5 0.0000 0.0000 0.0000 0.0000 -156.6255 0.0000
# 6 0.0000 0.0000 0.0000 0.0000 0.0000 16.7722
#
#
#
# Elastic Compliance Matrix: (Units=1/GPa)
#
#
# Indices 1 2 3 4 5 6 
#
# 1 0.008318 -0.000397 -0.006552 0.000000 0.000000 0.000000
# 2 -0.000397 0.045470 -0.028576 0.000000 0.000000 0.000000
# 3 -0.006552 -0.028576 0.039163 0.000000 0.000000 0.000000
# 4 0.000000 0.000000 0.000000 0.042581 0.000000 0.000000
# 5 0.000000 0.000000 0.000000 0.000000 -0.006385 0.000000
# 6 0.000000 0.000000 0.000000 0.000000 0.000000 0.059622
#
#
# Mechanical properties :
#
#
# Convention : Reuss Voigt Hill
#
# Bulk Modulus (GPa) = 45.66000 58.81335 52.23668
# Shear Modulus (GPa) = 18.71818 -13.43402 2.64208
#
# Velocity S-wave (km/s) = 3.10451 -2.63005 1.16636
# Velocity P-wave (km/s) = 6.03000 4.58913 5.35822
#
# Compressibility (1/GPa) = 0.02190101
#
# Stress axis : x y z
#
# Youngs Moduli (GPa) = 120.22702 21.99236 25.53442
#
# Poissons Ratio (x) = 0.00873 0.16730
# Poissons Ratio (y) = 0.04775 0.72966
# Poissons Ratio (z) = 0.78774 0.62845
#
# Static dielectric constant tensor:
#      x y z
#    x 1.710210 0.000000 0.000000 
#    y 0.000000 1.655960 0.000000 
#    z 0.000000 0.000000 1.704240 
# 
# From -- ./inp_files/35421.got.cif
#   From: 2010.05.17/outbox.cif.g08.bks.cpg/sg63_18_cif.got.tgz:35421.got - 2010.06.03 15:47:04.
