data_PCOD9474039
_publ_section_title
;
Structure prediction by ZEFSAII (Michael W. Deem and Ramdas Pophale) SiO2 
 PCOD9474039
Probable space group: C M C M
;
_chemical_formula_sum "Si O2"
_cell_formula_units_Z 96
_cell_length_a 19.289627
_cell_length_b 32.770248
_cell_length_c 8.989520
_cell_angle_alpha 90.000000
_cell_angle_beta 90.000000
_cell_angle_gamma 90.000000
_cell_volume 5682.508067
_symmetry_space_group_name_H-M "C M C M"
_symmetry_group_IT_number 63
_symmetry_cell_setting 'orthorhombic'
loop_
_space_group_symop_operation_xyz
x,y,z
-x,-y,1/2+z
x,-y,-z
-x,y,1/2-z
-x,-y,-z
x,y,1/2-z
-x,y,z
x,-y,1/2+z
1/2+x,1/2+y,z
1/2-x,1/2-y,1/2+z
1/2+x,1/2-y,-z
1/2-x,1/2+y,1/2-z
1/2-x,1/2-y,-z
1/2+x,1/2+y,1/2-z
1/2-x,1/2+y,z
1/2+x,1/2-y,1/2+z
loop_
_atom_site_type_symbol
_atom_site_label
_atom_site_fract_x
_atom_site_fract_y
_atom_site_fract_z
Si Si1 0.080603 0.742061 0.072619
Si Si2 0.340381 0.830258 0.072786
Si Si3 0.789441 0.456845 0.927670
Si Si4 0.920231 0.595375 0.071512
Si Si5 0.579789 0.338232 0.072182
Si Si6 0.287580 0.374226 0.571928
O O1 0.089480 0.735726 0.250000
O O2 0.090917 0.790004 0.041931
O O3 0.000000 0.732214 0.037351
O O4 0.132004 0.713056 0.984125
O O5 0.336417 0.831462 0.250000
O O6 0.394123 0.864286 0.011952
O O7 0.266845 0.843025 0.002472
O O8 0.786676 0.461147 0.750000
O O9 0.866498 0.440524 0.967424
O O10 0.738342 0.419707 0.969755
O O11 0.773887 0.500000 0.000000
O O12 0.913868 0.602546 0.250000
O O13 0.000000 0.586178 0.038102
O O14 0.587782 0.343797 0.250000
O O15 0.500000 0.347831 0.033725
O O16 0.636227 0.364188 0.985472
O O17 0.282793 0.370636 0.750000
#
# Coordination Sequence:
#
# PCOD9474039 Si02
#       6
#    16  16  16  16  16  16
#     4   9  18  33  51  71 101 140 174 206 249 297
#     4  11  21  31  47  73 103 136 177 219 251 283
#     4   9  19  34  52  75 100 129 165 204 249 300
#     4   9  18  33  50  69 100 140 175 208 251 299
#     4   9  19  36  57  80 103 128 162 204 251 301
#     4  10  21  37  55  75 101 133 167 202 248 305
#
# _framework density 16.893948000000002
#
# number of rings (size 3 to 8) (size 9 to 14) (size 15 to 20)
#    0.000    2.500    0.000    4.500    0.000    8.000 
#    0.000    1.667    0.000    0.500    0.000    0.000 
#    0.000    0.000    0.000    0.000    0.000    0.000 
#
# Total GULP energy -267823.500516 kJ/mol
# GULP energy per Si atom -5579.656261 kJ/mol
# Density = 1.685550 g / cm^3
# Si number density = 16.893948 Si / 1000 Ang^3
#
#
#
# Elastic Constant Matrix: (Units=GPa)
#
#
# Indices 1 2 3 4 5 6 
#
# 1 127.0839 77.9185 58.5225 0.0000 0.0000 0.0000
# 2 77.9185 69.2574 46.4985 0.0000 0.0000 0.0000
# 3 58.5225 46.4985 52.1468 0.0000 0.0000 0.0000
# 4 0.0000 0.0000 0.0000 25.5218 0.0000 0.0000
# 5 0.0000 0.0000 0.0000 0.0000 27.1660 0.0000
# 6 0.0000 0.0000 0.0000 0.0000 0.0000 7.9257
#
#
#
# Elastic Compliance Matrix: (Units=1/GPa)
#
#
# Indices 1 2 3 4 5 6 
#
# 1 0.026611 -0.024638 -0.007895 0.000000 0.000000 0.000000
# 2 -0.024638 0.058789 -0.024771 0.000000 0.000000 0.000000
# 3 -0.007895 -0.024771 0.050124 0.000000 0.000000 0.000000
# 4 0.000000 0.000000 0.000000 0.039182 0.000000 0.000000
# 5 0.000000 0.000000 0.000000 0.000000 0.036811 0.000000
# 6 0.000000 0.000000 0.000000 0.000000 0.000000 0.126172
#
#
# Mechanical properties :
#
#
# Convention : Reuss Voigt Hill
#
# Bulk Modulus (GPa) = 47.80866 68.26301 58.03584
# Shear Modulus (GPa) = 10.88689 16.49260 13.68975
#
# Velocity S-wave (km/s) = 2.54131 3.12788 2.84973
# Velocity P-wave (km/s) = 6.08044 7.31706 6.72722
#
# Compressibility (1/GPa) = 0.02091671
#
# Stress axis : x y z
#
# Youngs Moduli (GPa) = 37.57901 17.01009 19.95037
#
# Poissons Ratio (x) = 0.41909 0.15751
# Poissons Ratio (y) = 0.92587 0.49418
# Poissons Ratio (z) = 0.29668 0.42135
#
# Static dielectric constant tensor:
#      x y z
#    x 1.568500 0.000000 0.000000 
#    y 0.000000 1.551440 0.000000 
#    z 0.000000 0.000000 1.564020 
# 
# From -- ./inp_files/8530.got.cif
#   From: 2010.05.17/outbox.cif.g08.bks.cpg/sg63_5_cif.got.tgz:8530.got - 2010.06.03 15:47:04.
