data_PCOD9474451
_publ_section_title
;
Structure prediction by ZEFSAII (Michael W. Deem and Ramdas Pophale) SiO2 
 PCOD9474451
Probable space group: C M C M
;
_chemical_formula_sum "Si O2"
_cell_formula_units_Z 72
_cell_length_a 16.397500
_cell_length_b 27.884873
_cell_length_c 8.685343
_cell_angle_alpha 90.000000
_cell_angle_beta 90.000000
_cell_angle_gamma 90.000000
_cell_volume 3971.305385
_symmetry_space_group_name_H-M "C M C M"
_symmetry_group_IT_number 63
_symmetry_cell_setting 'orthorhombic'
loop_
_space_group_symop_operation_xyz
x,y,z
-x,-y,1/2+z
x,-y,-z
-x,y,1/2-z
-x,-y,-z
x,y,1/2-z
-x,y,z
x,-y,1/2+z
1/2+x,1/2+y,z
1/2-x,1/2-y,1/2+z
1/2+x,1/2-y,-z
1/2-x,1/2+y,1/2-z
1/2-x,1/2-y,-z
1/2+x,1/2+y,1/2-z
1/2-x,1/2+y,z
1/2+x,1/2-y,1/2+z
loop_
_atom_site_type_symbol
_atom_site_label
_atom_site_fract_x
_atom_site_fract_y
_atom_site_fract_z
Si Si1 0.325721 0.448241 0.933367
Si Si2 0.908112 0.852335 0.935019
Si Si3 0.249873 0.196728 0.567635
Si Si4 0.500000 0.945426 0.434842
Si Si5 0.660587 0.106527 0.064298
O O1 0.322739 0.452196 0.750000
O O2 0.392741 0.408227 0.971618
O O3 0.237983 0.426660 0.982185
O O4 0.341290 0.500000 0.000000
O O5 0.894800 0.846609 0.750000
O O6 0.000000 0.837748 0.970800
O O7 0.838765 0.824154 0.024433
O O8 0.262337 0.197711 0.750000
O O9 0.250000 0.250000 0.500000
O O10 0.315372 0.159827 0.493301
O O11 0.500000 0.947656 0.250000
O O12 0.420484 0.916590 0.493801
O O13 0.500000 0.000000 0.500000
O O14 0.654915 0.106959 0.250000
#
# Coordination Sequence:
#
# PCOD9474451 Si02
#       5
#    16  16  16   8  16
#     4   9  18  31  51  78 109 147 186 225 273 325
#     4   9  19  37  57  79 111 148 186 230 279 330
#     4  11  22  39  62  86 113 146 188 236 292 353
#     4  12  24  38  58  88 124 162 200 244 299 356
#     4  10  21  39  59  82 114 152 196 244 291 344
#
# _framework density 18.130057999999998
#
# number of rings (size 3 to 8) (size 9 to 14) (size 15 to 20)
#    0.000    2.000    0.000    5.667    0.000    7.111 
#    2.000    0.000    0.000    0.000    0.000    0.000 
#    0.000    0.000    0.000    0.000    0.000    0.000 
#
# Total GULP energy -200934.786729 kJ/mol
# GULP energy per Si atom -5581.521854 kJ/mol
# Density = 1.808879 g / cm^3
# Si number density = 18.130058 Si / 1000 Ang^3
#
#
#
# Elastic Constant Matrix: (Units=GPa)
#
#
# Indices 1 2 3 4 5 6 
#
# 1 88.8117 35.7795 44.6011 0.0000 0.0000 0.0000
# 2 35.7795 138.3277 49.1904 0.0000 0.0000 0.0000
# 3 44.6011 49.1904 88.1991 0.0000 0.0000 0.0000
# 4 0.0000 0.0000 0.0000 36.4962 0.0000 0.0000
# 5 0.0000 0.0000 0.0000 0.0000 27.6594 0.0000
# 6 0.0000 0.0000 0.0000 0.0000 0.0000 12.5240
#
#
#
# Elastic Compliance Matrix: (Units=1/GPa)
#
#
# Indices 1 2 3 4 5 6 
#
# 1 0.015341 -0.001509 -0.006916 0.000000 0.000000 0.000000
# 2 -0.001509 0.009166 -0.004349 0.000000 0.000000 0.000000
# 3 -0.006916 -0.004349 0.017261 0.000000 0.000000 0.000000
# 4 0.000000 0.000000 0.000000 0.027400 0.000000 0.000000
# 5 0.000000 0.000000 0.000000 0.000000 0.036154 0.000000
# 6 0.000000 0.000000 0.000000 0.000000 0.000000 0.079847
#
#
# Mechanical properties :
#
#
# Convention : Reuss Voigt Hill
#
# Bulk Modulus (GPa) = 61.65289 63.83117 62.74203
# Shear Modulus (GPa) = 23.13485 27.72039 25.42762
#
# Velocity S-wave (km/s) = 3.57606 3.91445 3.74908
# Velocity P-wave (km/s) = 7.15057 7.46421 7.30907
#
# Compressibility (1/GPa) = 0.01621984
#
# Stress axis : x y z
#
# Youngs Moduli (GPa) = 65.18520 109.09859 57.93360
#
# Poissons Ratio (x) = 0.16458 0.40069
# Poissons Ratio (y) = 0.09833 0.25197
# Poissons Ratio (z) = 0.45084 0.47449
#
# Static dielectric constant tensor:
#      x y z
#    x 1.613390 0.000000 0.000000 
#    y 0.000000 1.621730 0.000000 
#    z 0.000000 0.000000 1.615610 
# 
# From -- ./inp_files/4609.got.cif
#   From: 2010.05.17/outbox.cif.g08.bks.cpg/sg63_3_cif.got.tgz:4609.got - 2010.06.03 15:47:04.
