data_PCOD9474370
_publ_section_title
;
Structure prediction by ZEFSAII (Michael W. Deem and Ramdas Pophale) SiO2 
 PCOD9474370
Probable space group: C M C M
;
_chemical_formula_sum "Si O2"
_cell_formula_units_Z 56
_cell_length_a 30.885550
_cell_length_b 4.983189
_cell_length_c 16.483325
_cell_angle_alpha 90.000000
_cell_angle_beta 90.000000
_cell_angle_gamma 90.000000
_cell_volume 2536.924370
_symmetry_space_group_name_H-M "C M C M"
_symmetry_group_IT_number 63
_symmetry_cell_setting 'orthorhombic'
loop_
_space_group_symop_operation_xyz
x,y,z
-x,-y,1/2+z
x,-y,-z
-x,y,1/2-z
-x,-y,-z
x,y,1/2-z
-x,y,z
x,-y,1/2+z
1/2+x,1/2+y,z
1/2-x,1/2-y,1/2+z
1/2+x,1/2-y,-z
1/2-x,1/2+y,1/2-z
1/2-x,1/2-y,-z
1/2+x,1/2+y,1/2-z
1/2-x,1/2+y,z
1/2+x,1/2-y,1/2+z
loop_
_atom_site_type_symbol
_atom_site_label
_atom_site_fract_x
_atom_site_fract_y
_atom_site_fract_z
Si Si1 0.367156 0.889655 0.090446
Si Si2 0.222295 0.828676 0.846871
Si Si3 0.085744 0.876627 0.344097
Si Si4 0.000000 0.749404 0.059794
O O1 0.319761 0.770717 0.106605
O O2 0.399396 0.644586 0.109586
O O3 0.378245 0.144022 0.146830
O O4 0.371980 0.000000 0.000000
O O5 0.213441 0.809504 0.750000
O O6 0.262024 0.627975 0.865172
O O7 0.079393 0.942134 0.250000
O O8 0.042403 0.761837 0.384357
O O9 0.000000 0.500000 0.000000
O O10 0.000000 0.000000 0.000000
#
# Coordination Sequence:
#
# PCOD9474370 Si02
#       4
#    16  16  16   8
#     4  12  25  42  66  97 133 172 219 276 334 390
#     4  10  21  38  61  90 126 169 217 270 330 395
#     4  12  25  44  68  96 131 175 222 266 324 398
#     4  12  25  44  69  98 133 166 209 266 325 378
#
# _framework density 22.073972999999999
#
# number of rings (size 3 to 8) (size 9 to 14) (size 15 to 20)
#    0.000    0.571    0.000    9.857    0.000    3.429 
#    0.000    4.286    0.000    0.000    0.000    0.000 
#    0.000    0.000    0.000    0.000    0.000    0.000 
#
# Total GULP energy -156950.095376 kJ/mol
# GULP energy per Si atom -5605.360549 kJ/mol
# Density = 2.202373 g / cm^3
# Si number density = 22.073973 Si / 1000 Ang^3
#
#
#
# Elastic Constant Matrix: (Units=GPa)
#
#
# Indices 1 2 3 4 5 6 
#
# 1 84.7479 7.4998 49.0573 0.0000 0.0000 0.0000
# 2 7.4998 101.6758 19.1998 0.0000 0.0000 0.0000
# 3 49.0573 19.1998 101.3711 0.0000 0.0000 0.0000
# 4 0.0000 0.0000 0.0000 -477.6173 0.0000 0.0000
# 5 0.0000 0.0000 0.0000 0.0000 -73.8299 0.0000
# 6 0.0000 0.0000 0.0000 0.0000 0.0000 29.8839
#
#
#
# Elastic Compliance Matrix: (Units=1/GPa)
#
#
# Indices 1 2 3 4 5 6 
#
# 1 0.016400 0.000300 -0.007993 0.000000 0.000000 0.000000
# 2 0.000300 0.010205 -0.002078 0.000000 0.000000 0.000000
# 3 -0.007993 -0.002078 0.014127 0.000000 0.000000 0.000000
# 4 0.000000 0.000000 0.000000 -0.002094 0.000000 0.000000
# 5 0.000000 0.000000 0.000000 0.000000 -0.013545 0.000000
# 6 0.000000 0.000000 0.000000 0.000000 0.000000 0.033463
#
#
# Mechanical properties :
#
#
# Convention : Reuss Voigt Hill
#
# Bulk Modulus (GPa) = 47.19441 48.81206 48.00323
# Shear Modulus (GPa) = 58.71070 -90.17680 -15.73305
#
# Velocity S-wave (km/s) = 5.16285 -6.39850 -2.67262
# Velocity P-wave (km/s) = 7.54762 5.69445 3.50284
#
# Compressibility (1/GPa) = 0.02118895
#
# Stress axis : x y z
#
# Youngs Moduli (GPa) = 60.97448 97.98673 70.78812
#
# Poissons Ratio (x) = -0.02937 0.56584
# Poissons Ratio (y) = -0.01828 0.14710
# Poissons Ratio (z) = 0.48740 0.20361
#
# Static dielectric constant tensor:
#      x y z
#    x 1.827070 0.000000 0.000000 
#    y 0.000000 1.763170 0.000000 
#    z 0.000000 0.000000 1.779140 
# 
# From -- ./inp_files/38225.got.cif
#   From: 2010.05.17/outbox.cif.g08.bks.cpg/sg63_20_cif.got.tgz:38225.got - 2010.06.03 15:47:04.
