data_PCOD9474299
_publ_section_title
;
Structure prediction by ZEFSAII (Michael W. Deem and Ramdas Pophale) SiO2 
 PCOD9474299
Probable space group: C M C M
;
_chemical_formula_sum "Si O2"
_cell_formula_units_Z 96
_cell_length_a 11.682401
_cell_length_b 16.818269
_cell_length_c 24.636981
_cell_angle_alpha 90.000000
_cell_angle_beta 90.000000
_cell_angle_gamma 90.000000
_cell_volume 4840.618904
_symmetry_space_group_name_H-M "C M C M"
_symmetry_group_IT_number 63
_symmetry_cell_setting 'orthorhombic'
loop_
_space_group_symop_operation_xyz
x,y,z
-x,-y,1/2+z
x,-y,-z
-x,y,1/2-z
-x,-y,-z
x,y,1/2-z
-x,y,z
x,-y,1/2+z
1/2+x,1/2+y,z
1/2-x,1/2-y,1/2+z
1/2+x,1/2-y,-z
1/2-x,1/2+y,1/2-z
1/2-x,1/2-y,-z
1/2+x,1/2+y,1/2-z
1/2-x,1/2+y,z
1/2+x,1/2-y,1/2+z
loop_
_atom_site_type_symbol
_atom_site_label
_atom_site_fract_x
_atom_site_fract_y
_atom_site_fract_z
Si Si1 0.281425 0.600493 0.812774
Si Si2 0.868040 0.700506 0.006105
Si Si3 0.500000 0.696333 0.686201
Si Si4 0.864304 0.083179 0.309391
Si Si5 0.867172 0.430608 0.412338
Si Si6 0.303705 0.903074 0.606047
Si Si7 0.500000 0.886614 0.687573
O O1 0.252268 0.620673 0.750000
O O2 0.383244 0.657197 0.834515
O O3 0.330410 0.510238 0.812188
O O4 0.178317 0.603450 0.855261
O O5 0.856633 0.658881 0.064731
O O6 0.000000 0.734488 0.002135
O O7 0.750000 0.750000 0.000000
O O8 0.858594 0.633242 0.959822
O O9 0.500000 0.673796 0.750000
O O10 0.500000 0.790847 0.682900
O O11 0.823124 0.113507 0.250000
O O12 0.810209 0.122924 0.362611
O O13 0.000000 0.089682 0.310401
O O14 0.795713 0.511340 0.422832
O O15 0.000000 0.453692 0.409466
O O16 0.389180 0.916616 0.656460
O O17 0.500000 0.910118 0.750000
#
# Coordination Sequence:
#
# PCOD9474299 Si02
#       7
#    16  16   8  16  16  16   8
#     4   9  17  31  55  85 117 154 193 237 296 359
#     4  11  25  44  65  87 118 162 208 256 311 368
#     4   9  18  32  52  79 117 156 190 238 290 350
#     4   9  17  32  56  86 119 154 191 239 302 366
#     4  10  21  38  59  87 118 156 196 246 304 361
#     4  11  21  38  60  86 116 157 197 251 299 364
#     4  11  22  34  57  91 120 151 197 247 297 356
#
# _framework density 19.832174999999999
#
# number of rings (size 3 to 8) (size 9 to 14) (size 15 to 20)
#    0.000    2.000    2.500    1.000    2.333    3.000 
#    0.000    0.000    0.000    3.000    0.000    0.000 
#    0.000    0.000    0.000    0.000    0.000    0.000 
#
# Total GULP energy -267590.623258 kJ/mol
# GULP energy per Si atom -5574.804651 kJ/mol
# Density = 1.978704 g / cm^3
# Si number density = 19.832175 Si / 1000 Ang^3
#
#
#
# Elastic Constant Matrix: (Units=GPa)
#
#
# Indices 1 2 3 4 5 6 
#
# 1 87.0626 15.4054 39.0621 0.0000 0.0000 0.0000
# 2 15.4054 25.7291 8.9883 0.0000 0.0000 0.0000
# 3 39.0621 8.9883 92.6101 0.0000 0.0000 0.0000
# 4 0.0000 0.0000 0.0000 17.2103 0.0000 0.0000
# 5 0.0000 0.0000 0.0000 0.0000 35.4137 0.0000
# 6 0.0000 0.0000 0.0000 0.0000 0.0000 25.2060
#
#
#
# Elastic Compliance Matrix: (Units=1/GPa)
#
#
# Indices 1 2 3 4 5 6 
#
# 1 0.015347 -0.007171 -0.005777 0.000000 0.000000 0.000000
# 2 -0.007171 0.043581 -0.001205 0.000000 0.000000 0.000000
# 3 -0.005777 -0.001205 0.013352 0.000000 0.000000 0.000000
# 4 0.000000 0.000000 0.000000 0.058105 0.000000 0.000000
# 5 0.000000 0.000000 0.000000 0.000000 0.028238 0.000000
# 6 0.000000 0.000000 0.000000 0.000000 0.000000 0.039673
#
#
# Mechanical properties :
#
#
# Convention : Reuss Voigt Hill
#
# Bulk Modulus (GPa) = 22.74106 36.92370 29.83238
# Shear Modulus (GPa) = 20.72458 25.02906 22.87682
#
# Velocity S-wave (km/s) = 3.23615 3.55638 3.40004
# Velocity P-wave (km/s) = 5.04531 5.96006 5.52166
#
# Compressibility (1/GPa) = 0.04397332
#
# Stress axis : x y z
#
# Youngs Moduli (GPa) = 65.15984 22.94571 74.89675
#
# Poissons Ratio (x) = 0.16454 0.43269
# Poissons Ratio (y) = 0.46725 0.09027
# Poissons Ratio (z) = 0.37644 0.02765
#
# Static dielectric constant tensor:
#      x y z
#    x 1.749800 0.000000 0.000000 
#    y 0.000000 1.706210 0.000000 
#    z 0.000000 0.000000 1.715380 
# 
# From -- ./inp_files/61532.got.cif
#   From: 2010.05.17/outbox.cif.g08.bks.cpg/sg63_31_cif.got.tgz:61532.got - 2010.06.03 15:47:04.
