data_PCOD9474506
_publ_section_title
;
Structure prediction by ZEFSAII (Michael W. Deem and Ramdas Pophale) SiO2 
 PCOD9474506
Probable space group: C M C M
;
_chemical_formula_sum "Si O2"
_cell_formula_units_Z 120
_cell_length_a 28.171603
_cell_length_b 14.328621
_cell_length_c 15.181107
_cell_angle_alpha 90.000000
_cell_angle_beta 90.000000
_cell_angle_gamma 90.000000
_cell_volume 6128.009027
_symmetry_space_group_name_H-M "C M C M"
_symmetry_group_IT_number 63
_symmetry_cell_setting 'orthorhombic'
loop_
_space_group_symop_operation_xyz
x,y,z
-x,-y,1/2+z
x,-y,-z
-x,y,1/2-z
-x,-y,-z
x,y,1/2-z
-x,y,z
x,-y,1/2+z
1/2+x,1/2+y,z
1/2-x,1/2-y,1/2+z
1/2+x,1/2-y,-z
1/2-x,1/2+y,1/2-z
1/2-x,1/2-y,-z
1/2+x,1/2+y,1/2-z
1/2-x,1/2+y,z
1/2+x,1/2-y,1/2+z
loop_
_atom_site_type_symbol
_atom_site_label
_atom_site_fract_x
_atom_site_fract_y
_atom_site_fract_z
Si Si1 0.445596 0.414408 0.650755
Si Si2 0.142078 0.202133 0.979789
Si Si3 0.686226 0.211423 0.646330
Si Si4 0.788477 0.309827 0.645723
Si Si5 0.617462 0.500000 0.000000
Si Si6 0.661955 0.998180 0.643941
Si Si7 0.054879 0.469985 0.143252
Si Si8 0.947655 0.273859 0.456646
O O1 0.427294 0.419087 0.750000
O O2 0.500000 0.447729 0.649284
O O3 0.414937 0.472246 0.582428
O O4 0.446626 0.308310 0.616136
O O5 0.176652 0.247855 0.911244
O O6 0.152983 0.234219 0.079324
O O7 0.089312 0.242529 0.969266
O O8 0.146012 0.091692 0.975522
O O9 0.673759 0.218174 0.750000
O O10 0.736661 0.263748 0.633961
O O11 0.681060 0.101852 0.620020
O O12 0.798301 0.304660 0.750000
O O13 0.801682 0.415997 0.616838
O O14 0.661793 0.997841 0.750000
O O15 0.605963 0.981632 0.618359
O O16 0.055833 0.458686 0.250000
O O17 0.059846 0.371261 0.093170
O O18 0.000000 0.504616 0.122692
O O19 0.000000 0.276491 0.495865
#
# Coordination Sequence:
#
# PCOD9474506 Si02
#       8
#    16  16  16  16   8  16  16  16
#     4   9  17  31  52  76 108 154 198 236 287 341
#     4  11  22  38  58  83 116 154 194 237 298 350
#     4  10  21  39  63  88 111 141 189 248 303 356
#     4  10  23  41  60  83 116 155 195 238 291 358
#     4  10  23  34  50  82 118 148 188 246 283 338
#     4   9  18  35  58  86 118 151 189 238 293 347
#     4   9  15  26  50  83 118 152 187 233 287 341
#     4   9  17  30  51  83 117 146 187 244 297 344
#
# _framework density 19.582215999999999
#
# number of rings (size 3 to 8) (size 9 to 14) (size 15 to 20)
#    0.000    2.400    1.333    1.000    0.000    6.400 
#    0.000    2.000    0.000    2.800    0.000    0.000 
#    0.000    0.000    0.000    0.000    0.000    0.000 
#
# Total GULP energy -334225.928277 kJ/mol
# GULP energy per Si atom -5570.432138 kJ/mol
# Density = 1.953765 g / cm^3
# Si number density = 19.582216 Si / 1000 Ang^3
#
#
#
# Elastic Constant Matrix: (Units=GPa)
#
#
# Indices 1 2 3 4 5 6 
#
# 1 87.0872 44.6431 15.5296 0.0000 0.0000 0.0000
# 2 44.6431 86.2538 3.4616 0.0000 0.0000 0.0000
# 3 15.5296 3.4616 8.9271 0.0000 0.0000 0.0000
# 4 0.0000 0.0000 0.0000 -101.5707 0.0000 0.0000
# 5 0.0000 0.0000 0.0000 0.0000 8.4959 0.0000
# 6 0.0000 0.0000 0.0000 0.0000 0.0000 63.6501
#
#
#
# Elastic Compliance Matrix: (Units=1/GPa)
#
#
# Indices 1 2 3 4 5 6 
#
# 1 0.023527 -0.010701 -0.036778 0.000000 0.000000 0.000000
# 2 -0.010701 0.016644 0.012161 0.000000 0.000000 0.000000
# 3 -0.036778 0.012161 0.171282 0.000000 0.000000 0.000000
# 4 0.000000 0.000000 0.000000 -0.009845 0.000000 0.000000
# 5 0.000000 0.000000 0.000000 0.000000 0.117703 0.000000
# 6 0.000000 0.000000 0.000000 0.000000 0.000000 0.015711
#
#
# Mechanical properties :
#
#
# Convention : Reuss Voigt Hill
#
# Bulk Modulus (GPa) = 7.10136 34.39297 20.74717
# Shear Modulus (GPa) = 11.04740 2.02399 6.53569
#
# Velocity S-wave (km/s) = 2.37777 1.01776 1.82888
# Velocity P-wave (km/s) = 3.34256 4.35690 3.88300
#
# Compressibility (1/GPa) = 0.14081800
#
# Stress axis : x y z
#
# Youngs Moduli (GPa) = 42.50516 60.08120 5.83833
#
# Poissons Ratio (x) = 0.64292 0.21472
# Poissons Ratio (y) = 0.45484 -0.07100
# Poissons Ratio (z) = 1.56324 -0.73066
#
# Static dielectric constant tensor:
#      x y z
#    x 1.834770 0.000000 0.000000 
#    y 0.000000 1.701580 0.000000 
#    z 0.000000 0.000000 1.661750 
# 
# From -- ./inp_files/38757.got.cif
#   From: 2010.05.17/outbox.cif.g08.bks.cpg/sg63_20_cif.got.tgz:38757.got - 2010.06.03 15:47:04.
