data_PCOD9474297
_publ_section_title
;
Structure prediction by ZEFSAII (Michael W. Deem and Ramdas Pophale) SiO2 
 PCOD9474297
Probable space group: C M C M
;
_chemical_formula_sum "Si O2"
_cell_formula_units_Z 112
_cell_length_a 25.633539
_cell_length_b 14.418223
_cell_length_c 14.617303
_cell_angle_alpha 90.000000
_cell_angle_beta 90.000000
_cell_angle_gamma 90.000000
_cell_volume 5402.410208
_symmetry_space_group_name_H-M "C M C M"
_symmetry_group_IT_number 63
_symmetry_cell_setting 'orthorhombic'
loop_
_space_group_symop_operation_xyz
x,y,z
-x,-y,1/2+z
x,-y,-z
-x,y,1/2-z
-x,-y,-z
x,y,1/2-z
-x,y,z
x,-y,1/2+z
1/2+x,1/2+y,z
1/2-x,1/2-y,1/2+z
1/2+x,1/2-y,-z
1/2-x,1/2+y,1/2-z
1/2-x,1/2-y,-z
1/2+x,1/2+y,1/2-z
1/2-x,1/2+y,z
1/2+x,1/2-y,1/2+z
loop_
_atom_site_type_symbol
_atom_site_label
_atom_site_fract_x
_atom_site_fract_y
_atom_site_fract_z
Si Si1 0.441463 0.063330 0.591290
Si Si2 0.634485 0.593189 0.455564
Si Si3 0.237970 0.699979 0.643432
Si Si4 0.647714 0.065476 0.146250
Si Si5 0.764500 0.012336 0.355821
Si Si6 0.439483 0.730492 0.355668
Si Si7 0.830135 0.275918 0.968500
O O1 0.500000 0.053925 0.632701
O O2 0.432571 0.174168 0.587350
O O3 0.366074 0.146561 0.423797
O O4 0.393450 0.017301 0.644163
O O5 0.611888 0.500000 0.500000
O O6 0.690120 0.561532 0.412699
O O7 0.597319 0.645734 0.384453
O O8 0.644878 0.674651 0.528076
O O9 0.224723 0.719168 0.750000
O O10 0.264982 0.599121 0.640311
O O11 0.190427 0.702232 0.571056
O O12 0.279854 0.769594 0.598952
O O13 0.651113 0.100514 0.250000
O O14 0.705141 0.032975 0.115674
O O15 0.557064 0.000000 0.000000
O O16 0.770700 0.040265 0.250000
O O17 0.429759 0.755101 0.250000
O O18 0.500000 0.702891 0.365555
#
# Coordination Sequence:
#
# PCOD9474297 Si02
#       7
#    16  16  16  16  16  16  16
#     4  10  22  42  69  99 131 166 210 267 328 388
#     4  12  24  40  61  91 124 167 211 265 330 378
#     4  10  21  38  59  85 123 172 221 264 312 375
#     4  11  24  39  60  93 131 172 211 258 320 390
#     4  10  22  38  57  88 127 166 209 256 317 387
#     4  10  23  44  69  95 122 161 218 275 323 379
#     4  11  23  37  59  87 125 171 212 266 315 385
#
# _framework density 20.731487000000001
#
# number of rings (size 3 to 8) (size 9 to 14) (size 15 to 20)
#    0.000    1.429    1.429    3.857    4.000    3.429 
#    0.000    0.000    0.000    0.000    0.000    0.000 
#    0.000    0.000    0.000    0.000    0.000    0.000 
#
# Total GULP energy -312782.704647 kJ/mol
# GULP energy per Si atom -5585.405440 kJ/mol
# Density = 2.068430 g / cm^3
# Si number density = 20.731487 Si / 1000 Ang^3
#
#
#
# Elastic Constant Matrix: (Units=GPa)
#
#
# Indices 1 2 3 4 5 6 
#
# 1 95.1545 56.1048 36.0157 0.0000 0.0000 0.0000
# 2 56.1048 124.9761 37.5248 0.0000 0.0000 0.0000
# 3 36.0157 37.5248 102.5968 0.0000 0.0000 0.0000
# 4 0.0000 0.0000 0.0000 34.6110 0.0000 0.0000
# 5 0.0000 0.0000 0.0000 0.0000 24.1391 0.0000
# 6 0.0000 0.0000 0.0000 0.0000 0.0000 32.6750
#
#
#
# Elastic Compliance Matrix: (Units=1/GPa)
#
#
# Indices 1 2 3 4 5 6 
#
# 1 0.015164 -0.005852 -0.003183 0.000000 0.000000 0.000000
# 2 -0.005852 0.011247 -0.002059 0.000000 0.000000 0.000000
# 3 -0.003183 -0.002059 0.011617 0.000000 0.000000 0.000000
# 4 0.000000 0.000000 0.000000 0.028893 0.000000 0.000000
# 5 0.000000 0.000000 0.000000 0.000000 0.041426 0.000000
# 6 0.000000 0.000000 0.000000 0.000000 0.000000 0.030604
#
#
# Mechanical properties :
#
#
# Convention : Reuss Voigt Hill
#
# Bulk Modulus (GPa) = 63.13006 64.66868 63.89937
# Shear Modulus (GPa) = 30.04433 31.15717 30.60075
#
# Velocity S-wave (km/s) = 3.81098 3.88092 3.84611
# Velocity P-wave (km/s) = 7.06273 7.16542 7.11426
#
# Compressibility (1/GPa) = 0.01584031
#
# Stress axis : x y z
#
# Youngs Moduli (GPa) = 65.94393 88.91316 86.07752
#
# Poissons Ratio (x) = 0.52032 0.27398
# Poissons Ratio (y) = 0.38590 0.17726
# Poissons Ratio (z) = 0.20990 0.18310
#
# Static dielectric constant tensor:
#      x y z
#    x 1.775590 0.000000 0.000000 
#    y 0.000000 1.760050 0.000000 
#    z 0.000000 0.000000 1.787870 
# 
# From -- ./inp_files/36886.got.cif
#   From: 2010.05.17/outbox.cif.g08.bks.cpg/sg63_19_cif.got.tgz:36886.got - 2010.06.03 15:47:04.
