data_PCOD9474490
_publ_section_title
;
Structure prediction by ZEFSAII (Michael W. Deem and Ramdas Pophale) SiO2 
 PCOD9474490
Probable space group: C M C M
;
_chemical_formula_sum "Si O2"
_cell_formula_units_Z 96
_cell_length_a 14.234356
_cell_length_b 18.743256
_cell_length_c 17.290129
_cell_angle_alpha 90.000000
_cell_angle_beta 90.000000
_cell_angle_gamma 90.000000
_cell_volume 4612.974923
_symmetry_space_group_name_H-M "C M C M"
_symmetry_group_IT_number 63
_symmetry_cell_setting 'orthorhombic'
loop_
_space_group_symop_operation_xyz
x,y,z
-x,-y,1/2+z
x,-y,-z
-x,y,1/2-z
-x,-y,-z
x,y,1/2-z
-x,y,z
x,-y,1/2+z
1/2+x,1/2+y,z
1/2-x,1/2-y,1/2+z
1/2+x,1/2-y,-z
1/2-x,1/2+y,1/2-z
1/2-x,1/2-y,-z
1/2+x,1/2+y,1/2-z
1/2-x,1/2+y,z
1/2+x,1/2-y,1/2+z
loop_
_atom_site_type_symbol
_atom_site_label
_atom_site_fract_x
_atom_site_fract_y
_atom_site_fract_z
Si Si1 0.111156 0.224240 0.618326
Si Si2 0.790011 0.502246 0.590722
Si Si3 0.611431 0.281408 0.935064
Si Si4 0.887094 0.359483 0.338516
Si Si5 0.890241 0.938319 0.160292
Si Si6 0.237389 0.643613 0.161444
O O1 0.129995 0.222334 0.526256
O O2 0.132239 0.145850 0.651286
O O3 0.170264 0.287843 0.654570
O O4 0.000000 0.236853 0.629882
O O5 0.809808 0.500000 0.500000
O O6 0.843503 0.567640 0.630730
O O7 0.680253 0.518002 0.607115
O O8 0.813173 0.427085 0.630265
O O9 0.500000 0.293474 0.924065
O O10 0.637207 0.206586 0.893979
O O11 0.673858 0.340526 0.893359
O O12 0.857333 0.345160 0.250000
O O13 0.000000 0.365412 0.339230
O O14 0.876410 0.958469 0.250000
O O15 0.000000 0.947537 0.140486
O O16 0.266718 0.633930 0.250000
#
# Coordination Sequence:
#
# PCOD9474490 Si02
#       6
#    16  16  16  16  16  16
#     4  10  21  39  63  89 117 151 193 239 286 339
#     4  12  25  40  59  84 118 156 194 238 289 346
#     4  10  21  39  63  89 117 151 193 239 286 339
#     4  10  21  39  62  85 113 154 199 237 280 342
#     4  10  21  39  62  85 113 154 199 237 280 342
#     4  12  24  36  56  88 122 152 188 240 296 342
#
# _framework density 20.810866999999998
#
# number of rings (size 3 to 8) (size 9 to 14) (size 15 to 20)
#    0.000    1.333    0.000    6.000    0.000    4.000 
#    0.000    0.000    0.000    0.000    0.000    0.000 
#    0.000    0.000    0.000    0.000    0.000    0.000 
#
# Total GULP energy -268689.649386 kJ/mol
# GULP energy per Si atom -5597.701029 kJ/mol
# Density = 2.076350 g / cm^3
# Si number density = 20.810867 Si / 1000 Ang^3
#
#
#
# Elastic Constant Matrix: (Units=GPa)
#
#
# Indices 1 2 3 4 5 6 
#
# 1 33.4164 10.1382 6.1677 0.0000 0.0000 0.0000
# 2 10.1382 59.7905 6.0984 0.0000 0.0000 0.0000
# 3 6.1677 6.0984 74.2944 0.0000 0.0000 0.0000
# 4 0.0000 0.0000 0.0000 13.0497 0.0000 0.0000
# 5 0.0000 0.0000 0.0000 0.0000 18.4074 0.0000
# 6 0.0000 0.0000 0.0000 0.0000 0.0000 24.4227
#
#
#
# Elastic Compliance Matrix: (Units=1/GPa)
#
#
# Indices 1 2 3 4 5 6 
#
# 1 0.031909 -0.005184 -0.002223 0.000000 0.000000 0.000000
# 2 -0.005184 0.017708 -0.001023 0.000000 0.000000 0.000000
# 3 -0.002223 -0.001023 0.013729 0.000000 0.000000 0.000000
# 4 0.000000 0.000000 0.000000 0.076630 0.000000 0.000000
# 5 0.000000 0.000000 0.000000 0.000000 0.054326 0.000000
# 6 0.000000 0.000000 0.000000 0.000000 0.000000 0.040946
#
#
# Mechanical properties :
#
#
# Convention : Reuss Voigt Hill
#
# Bulk Modulus (GPa) = 21.51247 23.59000 22.55124
# Shear Modulus (GPa) = 18.68439 20.84907 19.76673
#
# Velocity S-wave (km/s) = 2.99961 3.16861 3.08527
# Velocity P-wave (km/s) = 4.72826 4.97462 4.85301
#
# Compressibility (1/GPa) = 0.04648466
#
# Stress axis : x y z
#
# Youngs Moduli (GPa) = 31.33958 56.47040 72.84098
#
# Poissons Ratio (x) = 0.29273 0.16196
# Poissons Ratio (y) = 0.16246 0.07453
# Poissons Ratio (z) = 0.06968 0.05778
#
# Static dielectric constant tensor:
#      x y z
#    x 1.758940 0.000000 0.000000 
#    y 0.000000 1.712420 0.000000 
#    z 0.000000 0.000000 1.695130 
# 
# From -- ./inp_files/31950.got.cif
#   From: 2010.05.17/outbox.cif.g08.bks.cpg/sg63_16_cif.got.tgz:31950.got - 2010.06.03 15:47:04.
