data_PCOD9474171
_publ_section_title
;
Structure prediction by ZEFSAII (Michael W. Deem and Ramdas Pophale) SiO2 
 PCOD9474171
Probable space group: C M C M
;
_chemical_formula_sum "Si O2"
_cell_formula_units_Z 96
_cell_length_a 8.862509
_cell_length_b 24.042571
_cell_length_c 25.729399
_cell_angle_alpha 90.000000
_cell_angle_beta 90.000000
_cell_angle_gamma 90.000000
_cell_volume 5482.356064
_symmetry_space_group_name_H-M "C M C M"
_symmetry_group_IT_number 63
_symmetry_cell_setting 'orthorhombic'
loop_
_space_group_symop_operation_xyz
x,y,z
-x,-y,1/2+z
x,-y,-z
-x,y,1/2-z
-x,-y,-z
x,y,1/2-z
-x,y,z
x,-y,1/2+z
1/2+x,1/2+y,z
1/2-x,1/2-y,1/2+z
1/2+x,1/2-y,-z
1/2-x,1/2+y,1/2-z
1/2-x,1/2-y,-z
1/2+x,1/2+y,1/2-z
1/2-x,1/2+y,z
1/2+x,1/2-y,1/2+z
loop_
_atom_site_type_symbol
_atom_site_label
_atom_site_fract_x
_atom_site_fract_y
_atom_site_fract_z
Si Si1 0.819789 0.565696 0.999774
Si Si2 0.680924 0.365638 0.095273
Si Si3 0.179769 0.436603 0.810916
Si Si4 0.181003 0.056401 0.810020
Si Si5 0.180053 0.129617 0.097252
Si Si6 0.319684 0.752338 0.442271
O O1 0.758126 0.593762 0.052031
O O2 0.000000 0.573446 0.996390
O O3 0.787587 0.500000 0.000000
O O4 0.741368 0.595731 0.951268
O O5 0.500000 0.361542 0.091708
O O6 0.721182 0.395445 0.149491
O O7 0.752203 0.305156 0.087419
O O8 0.213978 0.427266 0.750000
O O9 0.238873 0.498489 0.824066
O O10 0.259202 0.392585 0.848135
O O11 0.000000 0.434476 0.818051
O O12 0.218647 0.069740 0.750000
O O13 0.000000 0.047910 0.813077
O O14 0.213996 0.194236 0.086280
O O15 0.000000 0.122174 0.094153
O O16 0.500000 0.758070 0.446723
O O17 0.250000 0.750000 0.500000
#
# Coordination Sequence:
#
# PCOD9474171 Si02
#       6
#    16  16  16  16  16  16
#     4  11  23  36  54  82 115 148 184 232 287 340
#     4  11  22  36  57  84 114 150 191 233 283 341
#     4  10  21  37  59  87 117 150 188 232 285 340
#     4   9  19  37  60  85 115 152 191 232 281 338
#     4  11  23  38  58  83 111 148 192 234 283 340
#     4  11  23  39  59  82 111 150 193 236 286 339
#
# _framework density 17.510719999999999
#
# number of rings (size 3 to 8) (size 9 to 14) (size 15 to 20)
#    0.000    1.500    1.667    3.500    0.000    8.333 
#    0.000    0.833    0.000    3.000    0.000    0.000 
#    0.000    0.000    0.000    0.000    0.000    0.000 
#
# Total GULP energy -268260.211582 kJ/mol
# GULP energy per Si atom -5588.754408 kJ/mol
# Density = 1.747086 g / cm^3
# Si number density = 17.510720 Si / 1000 Ang^3
#
#
#
# Elastic Constant Matrix: (Units=GPa)
#
#
# Indices 1 2 3 4 5 6 
#
# 1 65.5205 81.7404 53.0063 0.0000 0.0000 0.0000
# 2 81.7404 169.6057 91.1740 0.0000 0.0000 0.0000
# 3 53.0063 91.1740 100.5937 0.0000 0.0000 0.0000
# 4 0.0000 0.0000 0.0000 13.8439 0.0000 0.0000
# 5 0.0000 0.0000 0.0000 0.0000 26.8215 0.0000
# 6 0.0000 0.0000 0.0000 0.0000 0.0000 32.9481
#
#
#
# Elastic Compliance Matrix: (Units=1/GPa)
#
#
# Indices 1 2 3 4 5 6 
#
# 1 0.040762 -0.015794 -0.007164 0.000000 0.000000 0.000000
# 2 -0.015794 0.017618 -0.007646 0.000000 0.000000 0.000000
# 3 -0.007164 -0.007646 0.020646 0.000000 0.000000 0.000000
# 4 0.000000 0.000000 0.000000 0.072234 0.000000 0.000000
# 5 0.000000 0.000000 0.000000 0.000000 0.037284 0.000000
# 6 0.000000 0.000000 0.000000 0.000000 0.000000 0.030351
#
#
# Mechanical properties :
#
#
# Convention : Reuss Voigt Hill
#
# Bulk Modulus (GPa) = 56.12219 87.50683 71.81451
# Shear Modulus (GPa) = 17.48010 22.04265 19.76137
#
# Velocity S-wave (km/s) = 3.16294 3.55182 3.36300
# Velocity P-wave (km/s) = 6.74231 8.17938 7.49537
#
# Compressibility (1/GPa) = 0.01781826
#
# Stress axis : x y z
#
# Youngs Moduli (GPa) = 24.53292 56.76055 48.43614
#
# Poissons Ratio (x) = 0.89646 0.34699
# Poissons Ratio (y) = 0.38747 0.37034
# Poissons Ratio (z) = 0.17575 0.43398
#
# Static dielectric constant tensor:
#      x y z
#    x 1.585090 0.000000 0.000000 
#    y 0.000000 1.570520 0.000000 
#    z 0.000000 0.000000 1.581510 
# 
# From -- ./inp_files/66862.got.cif
#   From: 2010.05.17/outbox.cif.g08.bks.cpg/sg63_34_cif.got.tgz:66862.got - 2010.06.03 15:47:04.
