data_PCOD9474057
_publ_section_title
;
Structure prediction by ZEFSAII (Michael W. Deem and Ramdas Pophale) SiO2 
 PCOD9474057
Probable space group: C M C M
;
_chemical_formula_sum "Si O2"
_cell_formula_units_Z 112
_cell_length_a 13.842932
_cell_length_b 12.708339
_cell_length_c 32.312328
_cell_angle_alpha 90.000000
_cell_angle_beta 90.000000
_cell_angle_gamma 90.000000
_cell_volume 5684.406475
_symmetry_space_group_name_H-M "C M C M"
_symmetry_group_IT_number 63
_symmetry_cell_setting 'orthorhombic'
loop_
_space_group_symop_operation_xyz
x,y,z
-x,-y,1/2+z
x,-y,-z
-x,y,1/2-z
-x,-y,-z
x,y,1/2-z
-x,y,z
x,-y,1/2+z
1/2+x,1/2+y,z
1/2-x,1/2-y,1/2+z
1/2+x,1/2-y,-z
1/2-x,1/2+y,1/2-z
1/2-x,1/2-y,-z
1/2+x,1/2+y,1/2-z
1/2-x,1/2+y,z
1/2+x,1/2-y,1/2+z
loop_
_atom_site_type_symbol
_atom_site_label
_atom_site_fract_x
_atom_site_fract_y
_atom_site_fract_z
Si Si1 0.386929 0.832247 0.797356
Si Si2 0.112572 0.183531 0.077639
Si Si3 0.110275 0.584011 0.701760
Si Si4 0.885606 0.784147 0.483068
Si Si5 0.754426 0.797280 0.141607
Si Si6 0.609643 0.050493 0.045897
Si Si7 0.802941 0.954997 0.074755
O O1 0.358323 0.803970 0.750000
O O2 0.500000 0.805199 0.802136
O O3 0.323443 0.777157 0.831947
O O4 0.378878 0.958146 0.801209
O O5 0.185331 0.233653 0.110351
O O6 0.000000 0.204936 0.087039
O O7 0.131625 0.058552 0.075485
O O8 0.133795 0.228342 0.031754
O O9 0.123234 0.612361 0.750000
O O10 0.185995 0.641108 0.673129
O O11 0.000000 0.610452 0.689985
O O12 0.867680 0.674220 0.459690
O O13 0.828132 0.881709 0.464315
O O14 0.000000 0.806651 0.478968
O O15 0.813984 0.880997 0.114446
O O16 0.500000 0.038531 0.062166
O O17 0.692235 0.994331 0.072016
O O18 0.610761 0.000000 0.000000
#
# Coordination Sequence:
#
# PCOD9474057 Si02
#       7
#    16  16  16  16  16  16  16
#     4   9  20  41  66  89 116 152 192 230 272 335
#     4  11  24  40  57  82 116 154 196 244 295 343
#     4   9  19  38  63  88 114 147 186 226 275 342
#     4  10  22  41  61  78 106 155 208 249 288 341
#     4  12  23  36  58  90 122 149 182 233 294 346
#     4  10  21  37  56  79 107 142 191 248 297 341
#     4  12  24  37  57  83 114 154 198 243 290 345
#
# _framework density 19.703023999999999
#
# number of rings (size 3 to 8) (size 9 to 14) (size 15 to 20)
#    0.000    1.571    0.000    6.000    0.000    6.286 
#    0.000    3.571    0.000    0.857    0.000    6.000 
#    0.000    0.000    0.000    0.000    0.000    0.000 
#
# Total GULP energy -313376.253347 kJ/mol
# GULP energy per Si atom -5596.004524 kJ/mol
# Density = 1.965818 g / cm^3
# Si number density = 19.703024 Si / 1000 Ang^3
#
#
#
# Elastic Constant Matrix: (Units=GPa)
#
#
# Indices 1 2 3 4 5 6 
#
# 1 77.9523 25.3009 40.8244 0.0000 0.0000 0.0000
# 2 25.3009 64.8089 26.6876 0.0000 0.0000 0.0000
# 3 40.8244 26.6876 71.0570 0.0000 0.0000 0.0000
# 4 0.0000 0.0000 0.0000 48.1126 0.0000 0.0000
# 5 0.0000 0.0000 0.0000 0.0000 29.9674 0.0000
# 6 0.0000 0.0000 0.0000 0.0000 0.0000 18.5095
#
#
#
# Elastic Compliance Matrix: (Units=1/GPa)
#
#
# Indices 1 2 3 4 5 6 
#
# 1 0.018981 -0.003454 -0.009608 0.000000 0.000000 0.000000
# 2 -0.003454 0.018881 -0.005107 0.000000 0.000000 0.000000
# 3 -0.009608 -0.005107 0.021512 0.000000 0.000000 0.000000
# 4 0.000000 0.000000 0.000000 0.020785 0.000000 0.000000
# 5 0.000000 0.000000 0.000000 0.000000 0.033370 0.000000
# 6 0.000000 0.000000 0.000000 0.000000 0.000000 0.054026
#
#
# Mechanical properties :
#
#
# Convention : Reuss Voigt Hill
#
# Bulk Modulus (GPa) = 43.41019 44.38268 43.89643
# Shear Modulus (GPa) = 23.63267 27.38490 25.50879
#
# Velocity S-wave (km/s) = 3.46706 3.73216 3.60205
# Velocity P-wave (km/s) = 6.17312 6.41457 6.29500
#
# Compressibility (1/GPa) = 0.02303607
#
# Stress axis : x y z
#
# Youngs Moduli (GPa) = 52.68383 52.96232 46.48653
#
# Poissons Ratio (x) = 0.18291 0.44665
# Poissons Ratio (y) = 0.18195 0.23742
# Poissons Ratio (z) = 0.50620 0.27049
#
# Static dielectric constant tensor:
#      x y z
#    x 1.690990 0.000000 0.000000 
#    y 0.000000 1.671500 0.000000 
#    z 0.000000 0.000000 1.683130 
# 
# From -- ./inp_files/73406.got.cif
#   From: 2010.05.17/outbox.cif.g08.bks.cpg/sg63_37_cif.got.tgz:73406.got - 2010.06.03 15:47:04.
