data_PCOD9474678
_publ_section_title
;
Structure prediction by ZEFSAII (Michael W. Deem and Ramdas Pophale) SiO2 
 PCOD9474678
Probable space group: C M C M
;
_chemical_formula_sum "Si O2"
_cell_formula_units_Z 68
_cell_length_a 8.881058
_cell_length_b 15.580340
_cell_length_c 27.472039
_cell_angle_alpha 90.000000
_cell_angle_beta 90.000000
_cell_angle_gamma 90.000000
_cell_volume 3801.303377
_symmetry_space_group_name_H-M "C M C M"
_symmetry_group_IT_number 63
_symmetry_cell_setting 'orthorhombic'
loop_
_space_group_symop_operation_xyz
x,y,z
-x,-y,1/2+z
x,-y,-z
-x,y,1/2-z
-x,-y,-z
x,y,1/2-z
-x,y,z
x,-y,1/2+z
1/2+x,1/2+y,z
1/2-x,1/2-y,1/2+z
1/2+x,1/2-y,-z
1/2-x,1/2+y,1/2-z
1/2-x,1/2-y,-z
1/2+x,1/2+y,1/2-z
1/2-x,1/2+y,z
1/2+x,1/2-y,1/2+z
loop_
_atom_site_type_symbol
_atom_site_label
_atom_site_fract_x
_atom_site_fract_y
_atom_site_fract_z
Si Si1 0.179483 0.091124 0.404822
Si Si2 0.166558 0.747583 0.150527
Si Si3 0.000000 0.723967 0.250000
Si Si4 0.679348 0.844825 0.001999
Si Si5 0.178921 0.587390 0.888651
O O1 0.238135 0.173606 0.375253
O O2 0.245669 0.100429 0.459184
O O3 0.000000 0.089824 0.406309
O O4 0.244569 0.004501 0.381491
O O5 0.248053 0.838292 0.143843
O O6 0.000000 0.752184 0.125996
O O7 0.128677 0.726982 0.206385
O O8 0.500000 0.840651 0.994248
O O9 0.750000 0.750000 0.000000
O O10 0.704804 0.884122 0.055308
O O11 0.000000 0.581594 0.880730
#
# Coordination Sequence:
#
# PCOD9474678 Si02
#       5
#    16  16   4  16  16
#     4  12  24  38  62  95 132 173 213 256 310 374
#     4  10  21  43  68  89 122 156 209 266 322 377
#     4   8  24  44  74  92 116 158 214 264 344 374
#     4  11  22  36  58  93 132 177 215 252 303 376
#     4  11  23  39  63  95 131 170 211 256 312 377
#
# _framework density 17.8886
#
# number of rings (size 3 to 8) (size 9 to 14) (size 15 to 20)
#    0.706    0.471    2.353    4.941    0.000    5.647 
#    0.000    3.529    0.000    0.000    0.000    0.000 
#    0.000    0.000    0.000    0.000    0.000    0.000 
#
# Total GULP energy -189360.343476 kJ/mol
# GULP energy per Si atom -5569.421867 kJ/mol
# Density = 1.784788 g / cm^3
# Si number density = 17.888600 Si / 1000 Ang^3
#
#
#
# Elastic Constant Matrix: (Units=GPa)
#
#
# Indices 1 2 3 4 5 6 
#
# 1 101.0960 21.9720 11.2240 0.0000 0.0000 0.0000
# 2 21.9720 71.6821 -28.3480 0.0000 0.0000 0.0000
# 3 11.2240 -28.3480 44.6308 0.0000 0.0000 0.0000
# 4 0.0000 0.0000 0.0000 2.0350 0.0000 0.0000
# 5 0.0000 0.0000 0.0000 0.0000 36.3536 0.0000
# 6 0.0000 0.0000 0.0000 0.0000 0.0000 32.9715
#
#
#
# Elastic Compliance Matrix: (Units=1/GPa)
#
#
# Indices 1 2 3 4 5 6 
#
# 1 0.012122 -0.006572 -0.007223 0.000000 0.000000 0.000000
# 2 -0.006572 0.022193 0.015749 0.000000 0.000000 0.000000
# 3 -0.007223 0.015749 0.034226 0.000000 0.000000 0.000000
# 4 0.000000 0.000000 0.000000 0.491392 0.000000 0.000000
# 5 0.000000 0.000000 0.000000 0.000000 0.027508 0.000000
# 6 0.000000 0.000000 0.000000 0.000000 0.000000 0.030329
#
#
# Mechanical properties :
#
#
# Convention : Reuss Voigt Hill
#
# Bulk Modulus (GPa) = 13.80271 25.23390 19.51831
# Shear Modulus (GPa) = 7.83686 28.44276 18.13981
#
# Velocity S-wave (km/s) = 2.09534 3.99180 3.18786
# Velocity P-wave (km/s) = 3.68600 5.94834 4.94820
#
# Compressibility (1/GPa) = 0.07244952
#
# Stress axis : x y z
#
# Youngs Moduli (GPa) = 82.49587 45.05888 29.21780
#
# Poissons Ratio (x) = 0.29612 0.21103
# Poissons Ratio (y) = 0.54216 -0.46015
# Poissons Ratio (z) = 0.59585 -0.70964
#
# Static dielectric constant tensor:
#      x y z
#    x 1.606500 0.000000 0.000000 
#    y 0.000000 1.615780 0.000000 
#    z 0.000000 0.000000 1.590040 
# 
# From -- ./inp_files/66256.got.cif
#   From: 2010.05.17/outbox.cif.g08.bks.cpg/sg63_34_cif.got.tgz:66256.got - 2010.06.03 15:47:04.
