data_PCOD9474535
_publ_section_title
;
Structure prediction by ZEFSAII (Michael W. Deem and Ramdas Pophale) SiO2 
 PCOD9474535
Probable space group: C M C M
;
_chemical_formula_sum "Si O2"
_cell_formula_units_Z 96
_cell_length_a 13.259000
_cell_length_b 19.316818
_cell_length_c 16.028742
_cell_angle_alpha 90.000000
_cell_angle_beta 90.000000
_cell_angle_gamma 90.000000
_cell_volume 4105.308487
_symmetry_space_group_name_H-M "C M C M"
_symmetry_group_IT_number 63
_symmetry_cell_setting 'orthorhombic'
loop_
_space_group_symop_operation_xyz
x,y,z
-x,-y,1/2+z
x,-y,-z
-x,y,1/2-z
-x,-y,-z
x,y,1/2-z
-x,y,z
x,-y,1/2+z
1/2+x,1/2+y,z
1/2-x,1/2-y,1/2+z
1/2+x,1/2-y,-z
1/2-x,1/2+y,1/2-z
1/2-x,1/2-y,-z
1/2+x,1/2+y,1/2-z
1/2-x,1/2+y,z
1/2+x,1/2-y,1/2+z
loop_
_atom_site_type_symbol
_atom_site_label
_atom_site_fract_x
_atom_site_fract_y
_atom_site_fract_z
Si Si1 0.382665 0.231853 0.420598
Si Si2 0.318716 0.631228 0.653463
Si Si3 0.881880 0.701064 0.604423
Si Si4 0.116962 0.863287 0.848560
Si Si5 0.386218 0.178782 0.250000
Si Si6 0.111567 0.514762 0.250000
Si Si7 0.743306 0.490770 0.594392
O O1 0.500000 0.212357 0.421212
O O2 0.372465 0.313563 0.406748
O O3 0.346231 0.202084 0.507683
O O4 0.336198 0.201844 0.335722
O O5 0.352842 0.636246 0.750000
O O6 0.200575 0.654997 0.651039
O O7 0.330185 0.554465 0.617816
O O8 0.877451 0.781800 0.630079
O O9 0.000000 0.679813 0.612744
O O10 0.138025 0.871769 0.750000
O O11 0.000000 0.882857 0.863815
O O12 0.188898 0.917013 0.895679
O O13 0.500000 0.210021 0.250000
O O14 0.396145 0.097639 0.250000
O O15 0.171790 0.500425 0.165317
O O16 0.000000 0.483810 0.250000
O O17 0.780782 0.500000 0.500000
#
# Coordination Sequence:
#
# PCOD9474535 Si02
#       7
#    16  16  16  16   8   8  16
#     4  10  21  39  63  95 130 161 207 264 320 384
#     4  12  24  39  61  96 131 167 209 264 332 383
#     4  10  23  40  65  98 128 166 215 265 322 383
#     4  10  21  42  69  97 131 175 222 267 322 392
#     4   9  20  37  62  89 115 163 212 255 314 375
#     4  11  26  47  67  91 129 175 227 271 321 391
#     4  12  27  45  67  96 133 176 224 270 329 396
#
# _framework density 23.384357999999999
#
# number of rings (size 3 to 8) (size 9 to 14) (size 15 to 20)
#    0.000    1.333    2.500    2.000    4.667    3.000 
#    0.000    0.000    0.000    0.000    0.000    0.000 
#    0.000    0.000    0.000    0.000    0.000    0.000 
#
# Total GULP energy -268427.445658 kJ/mol
# GULP energy per Si atom -5592.238451 kJ/mol
# Density = 2.333113 g / cm^3
# Si number density = 23.384358 Si / 1000 Ang^3
#
#
#
# Elastic Constant Matrix: (Units=GPa)
#
#
# Indices 1 2 3 4 5 6 
#
# 1 73.0098 -5.2419 29.1641 0.0000 0.0000 0.0000
# 2 -5.2419 85.3078 -1.7197 0.0000 0.0000 0.0000
# 3 29.1641 -1.7197 125.1594 0.0000 0.0000 0.0000
# 4 0.0000 0.0000 0.0000 20.4542 0.0000 0.0000
# 5 0.0000 0.0000 0.0000 0.0000 13.8324 0.0000
# 6 0.0000 0.0000 0.0000 0.0000 0.0000 21.7349
#
#
#
# Elastic Compliance Matrix: (Units=1/GPa)
#
#
# Indices 1 2 3 4 5 6 
#
# 1 0.015165 0.000861 -0.003522 0.000000 0.000000 0.000000
# 2 0.000861 0.011774 -0.000039 0.000000 0.000000 0.000000
# 3 -0.003522 -0.000039 0.008810 0.000000 0.000000 0.000000
# 4 0.000000 0.000000 0.000000 0.048890 0.000000 0.000000
# 5 0.000000 0.000000 0.000000 0.000000 0.072294 0.000000
# 6 0.000000 0.000000 0.000000 0.000000 0.000000 0.046009
#
#
# Mechanical properties :
#
#
# Convention : Reuss Voigt Hill
#
# Bulk Modulus (GPa) = 32.94897 36.43135 34.69016
# Shear Modulus (GPa) = 22.88761 28.62261 25.75511
#
# Velocity S-wave (km/s) = 3.13190 3.50238 3.32231
# Velocity P-wave (km/s) = 5.21528 5.65409 5.43911
#
# Compressibility (1/GPa) = 0.03034996
#
# Stress axis : x y z
#
# Youngs Moduli (GPa) = 65.93932 84.93023 113.50804
#
# Poissons Ratio (x) = -0.07311 0.39977
# Poissons Ratio (y) = -0.05677 0.00441
# Poissons Ratio (z) = 0.23224 0.00330
#
# Static dielectric constant tensor:
#      x y z
#    x 1.927690 0.000000 0.000000 
#    y 0.000000 1.855370 0.000000 
#    z 0.000000 0.000000 1.916200 
# 
# From -- ./inp_files/31969.got.cif
#   From: 2010.05.17/outbox.cif.g08.bks.cpg/sg63_16_cif.got.tgz:31969.got - 2010.06.03 15:47:04.
