data_PCOD9474996
_publ_section_title
;
Structure prediction by ZEFSAII (Michael W. Deem and Ramdas Pophale) SiO2 
 PCOD9474996
Probable space group: C M C M
;
_chemical_formula_sum "Si O2"
_cell_formula_units_Z 64
_cell_length_a 13.639803
_cell_length_b 7.934824
_cell_length_c 23.053043
_cell_angle_alpha 90.000000
_cell_angle_beta 90.000000
_cell_angle_gamma 90.000000
_cell_volume 2495.017847
_symmetry_space_group_name_H-M "C M C M"
_symmetry_group_IT_number 63
_symmetry_cell_setting 'orthorhombic'
loop_
_space_group_symop_operation_xyz
x,y,z
-x,-y,1/2+z
x,-y,-z
-x,y,1/2-z
-x,-y,-z
x,y,1/2-z
-x,y,z
x,-y,1/2+z
1/2+x,1/2+y,z
1/2-x,1/2-y,1/2+z
1/2+x,1/2-y,-z
1/2-x,1/2+y,1/2-z
1/2-x,1/2-y,-z
1/2+x,1/2+y,1/2-z
1/2-x,1/2+y,z
1/2+x,1/2-y,1/2+z
loop_
_atom_site_type_symbol
_atom_site_label
_atom_site_fract_x
_atom_site_fract_y
_atom_site_fract_z
Si Si1 0.384650 0.229422 0.516676
Si Si2 0.385265 0.577091 0.590896
Si Si3 0.716100 0.637343 0.181357
Si Si4 0.116968 0.463577 0.127003
O O1 0.500000 0.199071 0.506073
O O2 0.379842 0.400576 0.554745
O O3 0.342771 0.284359 0.454352
O O4 0.354344 0.080263 0.560221
O O5 0.500000 0.613994 0.600175
O O6 0.335970 0.522193 0.650623
O O7 0.720537 0.623161 0.250000
O O8 0.824923 0.619547 0.154118
O O9 0.653402 0.800662 0.163402
O O10 0.000000 0.478765 0.129949
#
# Coordination Sequence:
#
# PCOD9474996 Si02
#       4
#    16  16  16  16
#     4   7  12  27  52  79 106 141 183 227 283 335
#     4   8  14  27  50  81 113 142 182 234 277 329
#     4  11  22  35  56  85 114 153 197 227 277 348
#     4  10  22  41  62  84 115 150 188 241 288 329
#
# _framework density 25.651118
#
# number of rings (size 3 to 8) (size 9 to 14) (size 15 to 20)
#    0.000    3.000    0.000    4.500    0.000    4.500 
#    0.000    2.500    0.000    6.000    0.000   19.250 
#    0.000    0.000    0.000    0.000    0.000    0.000 
#
# Total GULP energy -179065.244770 kJ/mol
# GULP energy per Si atom -5595.788899 kJ/mol
# Density = 2.559273 g / cm^3
# Si number density = 25.651118 Si / 1000 Ang^3
#
#
#
# Elastic Constant Matrix: (Units=GPa)
#
#
# Indices 1 2 3 4 5 6 
#
# 1 156.2724 26.5019 52.2755 0.0000 0.0000 0.0000
# 2 26.5019 149.9252 24.5918 0.0000 0.0000 0.0000
# 3 52.2755 24.5918 206.9023 0.0000 0.0000 0.0000
# 4 0.0000 0.0000 0.0000 25.0622 0.0000 0.0000
# 5 0.0000 0.0000 0.0000 0.0000 53.2340 0.0000
# 6 0.0000 0.0000 0.0000 0.0000 0.0000 34.7515
#
#
#
# Elastic Compliance Matrix: (Units=1/GPa)
#
#
# Indices 1 2 3 4 5 6 
#
# 1 0.007129 -0.000984 -0.001684 0.000000 0.000000 0.000000
# 2 -0.000984 0.006938 -0.000576 0.000000 0.000000 0.000000
# 3 -0.001684 -0.000576 0.005327 0.000000 0.000000 0.000000
# 4 0.000000 0.000000 0.000000 0.039901 0.000000 0.000000
# 5 0.000000 0.000000 0.000000 0.000000 0.018785 0.000000
# 6 0.000000 0.000000 0.000000 0.000000 0.000000 0.028776
#
#
# Mechanical properties :
#
#
# Convention : Reuss Voigt Hill
#
# Bulk Modulus (GPa) = 77.48172 79.98205 78.73188
# Shear Modulus (GPa) = 42.49986 49.92489 46.21238
#
# Velocity S-wave (km/s) = 4.07485 4.41648 4.24910
# Velocity P-wave (km/s) = 7.23953 7.56674 7.40494
#
# Compressibility (1/GPa) = 0.01290627
#
# Stress axis : x y z
#
# Youngs Moduli (GPa) = 140.26443 144.12504 187.71468
#
# Poissons Ratio (x) = 0.14181 0.31618
# Poissons Ratio (y) = 0.13802 0.10814
# Poissons Ratio (z) = 0.23625 0.08303
#
# Static dielectric constant tensor:
#      x y z
#    x 2.046430 0.000000 0.000000 
#    y 0.000000 2.143260 0.000000 
#    z 0.000000 0.000000 1.966270 
# 
# From -- ./inp_files/63433.got.cif
#   From: 2010.05.17/outbox.cif.g08.bks.cpg/sg63_32_cif.got.tgz:63433.got - 2010.06.03 15:47:04.
