data_PCOD9474348
_publ_section_title
;
Structure prediction by ZEFSAII (Michael W. Deem and Ramdas Pophale) SiO2 
 PCOD9474348
Probable space group: C M C M
;
_chemical_formula_sum "Si O2"
_cell_formula_units_Z 96
_cell_length_a 8.799809
_cell_length_b 25.611254
_cell_length_c 24.105822
_cell_angle_alpha 90.000000
_cell_angle_beta 90.000000
_cell_angle_gamma 90.000000
_cell_volume 5432.828985
_symmetry_space_group_name_H-M "C M C M"
_symmetry_group_IT_number 63
_symmetry_cell_setting 'orthorhombic'
loop_
_space_group_symop_operation_xyz
x,y,z
-x,-y,1/2+z
x,-y,-z
-x,y,1/2-z
-x,-y,-z
x,y,1/2-z
-x,y,z
x,-y,1/2+z
1/2+x,1/2+y,z
1/2-x,1/2-y,1/2+z
1/2+x,1/2-y,-z
1/2-x,1/2+y,1/2-z
1/2-x,1/2-y,-z
1/2+x,1/2+y,1/2-z
1/2-x,1/2+y,z
1/2+x,1/2-y,1/2+z
loop_
_atom_site_type_symbol
_atom_site_label
_atom_site_fract_x
_atom_site_fract_y
_atom_site_fract_z
Si Si1 0.682790 0.227443 0.556779
Si Si2 0.681118 0.144197 0.250000
Si Si3 0.817449 0.971799 0.750000
Si Si4 0.681633 0.485209 0.370371
Si Si5 0.182341 0.822282 0.634528
Si Si6 0.182918 0.607394 0.563422
Si Si7 0.682257 0.082446 0.436367
O O1 0.500000 0.226994 0.551323
O O2 0.750000 0.250000 0.500000
O O3 0.722314 0.267368 0.605867
O O4 0.731308 0.167857 0.566697
O O5 0.500000 0.145900 0.250000
O O6 0.736379 0.084107 0.250000
O O7 0.746785 0.170690 0.194895
O O8 0.000000 0.962733 0.750000
O O9 0.778897 0.002237 0.806443
O O10 0.500000 0.488298 0.375752
O O11 0.740374 0.429765 0.391729
O O12 0.756245 0.529859 0.408608
O O13 0.245265 0.868686 0.595818
O O14 0.000000 0.826769 0.637826
O O15 0.219506 0.586769 0.501494
O O16 0.000000 0.604920 0.569718
O O17 0.500000 0.084655 0.430759
#
# Coordination Sequence:
#
# PCOD9474348 Si02
#       7
#    16   8   8  16  16  16  16
#     4  10  21  38  61  87 117 155 194 240 293 348
#     4  12  24  38  61  88 117 155 198 242 296 349
#     4  10  22  40  59  82 115 151 192 246 298 347
#     4  11  23  38  58  84 117 155 198 243 296 356
#     4  11  22  37  60  89 121 154 194 243 293 345
#     4  10  22  39  57  84 122 157 193 241 293 348
#     4  11  21  35  58  87 121 154 190 241 296 349
#
# _framework density 17.670351
#
# number of rings (size 3 to 8) (size 9 to 14) (size 15 to 20)
#    0.000    1.333    3.333    2.750    0.000    5.333 
#    0.000    0.833    0.000    3.000    0.000    0.000 
#    0.000    0.000    0.000    0.000    0.000    0.000 
#
# Total GULP energy -268279.178468 kJ/mol
# GULP energy per Si atom -5589.149551 kJ/mol
# Density = 1.763013 g / cm^3
# Si number density = 17.670351 Si / 1000 Ang^3
#
#
#
# Elastic Constant Matrix: (Units=GPa)
#
#
# Indices 1 2 3 4 5 6 
#
# 1 49.8262 51.9735 64.1207 0.0000 0.0000 0.0000
# 2 51.9735 166.5273 95.2336 0.0000 0.0000 0.0000
# 3 64.1207 95.2336 157.5825 0.0000 0.0000 0.0000
# 4 0.0000 0.0000 0.0000 31.4745 0.0000 0.0000
# 5 0.0000 0.0000 0.0000 0.0000 27.7869 0.0000
# 6 0.0000 0.0000 0.0000 0.0000 0.0000 28.4539
#
#
#
# Elastic Compliance Matrix: (Units=1/GPa)
#
#
# Indices 1 2 3 4 5 6 
#
# 1 0.045186 -0.005483 -0.015073 0.000000 0.000000 0.000000
# 2 -0.005483 0.009842 -0.003717 0.000000 0.000000 0.000000
# 3 -0.015073 -0.003717 0.014725 0.000000 0.000000 0.000000
# 4 0.000000 0.000000 0.000000 0.031772 0.000000 0.000000
# 5 0.000000 0.000000 0.000000 0.000000 0.035988 0.000000
# 6 0.000000 0.000000 0.000000 0.000000 0.000000 0.035145
#
#
# Mechanical properties :
#
#
# Convention : Reuss Voigt Hill
#
# Bulk Modulus (GPa) = 47.15187 88.51017 67.83102
# Shear Modulus (GPa) = 21.90380 28.38363 25.14371
#
# Velocity S-wave (km/s) = 3.52459 4.01220 3.77627
# Velocity P-wave (km/s) = 6.58071 8.46534 7.58181
#
# Compressibility (1/GPa) = 0.02120807
#
# Stress axis : x y z
#
# Youngs Moduli (GPa) = 22.13095 101.60749 67.91065
#
# Poissons Ratio (x) = 0.55709 1.02359
# Poissons Ratio (y) = 0.12134 0.25241
# Poissons Ratio (z) = 0.33357 0.37766
#
# Static dielectric constant tensor:
#      x y z
#    x 1.594160 0.000000 0.000000 
#    y 0.000000 1.586530 0.000000 
#    z 0.000000 0.000000 1.581610 
# 
# From -- ./inp_files/60035.got.cif
#   From: 2010.05.17/outbox.cif.g08.bks.cpg/sg63_31_cif.got.tgz:60035.got - 2010.06.03 15:47:04.
