data_PCOD9474151
_publ_section_title
;
Structure prediction by ZEFSAII (Michael W. Deem and Ramdas Pophale) SiO2 
 PCOD9474151
Probable space group: C M C M
;
_chemical_formula_sum "Si O2"
_cell_formula_units_Z 112
_cell_length_a 13.318470
_cell_length_b 31.767530
_cell_length_c 11.221817
_cell_angle_alpha 90.000000
_cell_angle_beta 90.000000
_cell_angle_gamma 90.000000
_cell_volume 4747.893488
_symmetry_space_group_name_H-M "C M C M"
_symmetry_group_IT_number 63
_symmetry_cell_setting 'orthorhombic'
loop_
_space_group_symop_operation_xyz
x,y,z
-x,-y,1/2+z
x,-y,-z
-x,y,1/2-z
-x,-y,-z
x,y,1/2-z
-x,y,z
x,-y,1/2+z
1/2+x,1/2+y,z
1/2-x,1/2-y,1/2+z
1/2+x,1/2-y,-z
1/2-x,1/2+y,1/2-z
1/2-x,1/2-y,-z
1/2+x,1/2+y,1/2-z
1/2-x,1/2+y,z
1/2+x,1/2-y,1/2+z
loop_
_atom_site_type_symbol
_atom_site_label
_atom_site_fract_x
_atom_site_fract_y
_atom_site_fract_z
Si Si1 0.119985 0.393760 0.120077
Si Si2 0.683474 0.303155 0.380689
Si Si3 0.814053 0.512275 0.876437
Si Si4 0.115993 0.043696 0.117698
Si Si5 0.613244 0.769702 0.472336
Si Si6 0.118433 0.898405 0.114632
Si Si7 0.381385 0.152499 0.122609
O O1 0.136524 0.372459 0.250000
O O2 0.178208 0.437623 0.124122
O O3 0.000000 0.401769 0.115178
O O4 0.134264 0.500000 0.000000
O O5 0.641630 0.292910 0.250000
O O6 0.627784 0.277986 0.485762
O O7 0.797493 0.285745 0.389013
O O8 0.671918 0.353157 0.393763
O O9 0.859287 0.497534 0.750000
O O10 0.702719 0.491790 0.880174
O O11 0.852106 0.371581 0.996957
O O12 0.123006 0.064376 0.250000
O O13 0.000000 0.027804 0.109464
O O14 0.134471 0.073308 0.003575
O O15 0.500000 0.777958 0.428609
O O16 0.629128 0.798425 0.590556
O O17 0.136472 0.915987 0.250000
O O18 0.000000 0.889304 0.112050
O O19 0.334047 0.141589 0.250000
O O20 0.500000 0.144441 0.131759
#
# Coordination Sequence:
#
# PCOD9474151 Si02
#       7
#    16  16  16  16  16  16  16
#     4   9  19  37  59  83 115 154 194 240 296 355
#     4  10  21  37  59  88 122 163 209 255 304 360
#     4  10  22  38  56  81 110 143 187 237 291 354
#     4   9  19  38  62  86 115 152 194 245 306 364
#     4  10  21  37  58  87 124 164 206 253 303 357
#     4   9  18  35  61  90 118 153 201 254 305 361
#     4   9  18  34  58  86 115 153 202 250 297 355
#
# _framework density 23.589410000000001
#
# number of rings (size 3 to 8) (size 9 to 14) (size 15 to 20)
#    0.000    2.571    0.000    0.857    0.000    5.143 
#    0.000    9.286    0.000    4.286    0.000    1.000 
#    0.000    1.143    0.000    0.000    0.000    0.000 
#
# Total GULP energy -312468.511000 kJ/mol
# GULP energy per Si atom -5579.794839 kJ/mol
# Density = 2.353572 g / cm^3
# Si number density = 23.589410 Si / 1000 Ang^3
#
#
#
# Elastic Constant Matrix: (Units=GPa)
#
#
# Indices 1 2 3 4 5 6 
#
# 1 104.5641 10.6041 21.2731 0.0000 0.0000 0.0000
# 2 10.6041 78.6151 62.1109 0.0000 0.0000 0.0000
# 3 21.2731 62.1109 218.4905 0.0000 0.0000 0.0000
# 4 0.0000 0.0000 0.0000 29.7278 0.0000 0.0000
# 5 0.0000 0.0000 0.0000 0.0000 12.3699 0.0000
# 6 0.0000 0.0000 0.0000 0.0000 0.0000 26.8551
#
#
#
# Elastic Compliance Matrix: (Units=1/GPa)
#
#
# Indices 1 2 3 4 5 6 
#
# 1 0.009789 -0.000732 -0.000745 0.000000 0.000000 0.000000
# 2 -0.000732 0.016459 -0.004608 0.000000 0.000000 0.000000
# 3 -0.000745 -0.004608 0.005959 0.000000 0.000000 0.000000
# 4 0.000000 0.000000 0.000000 0.033639 0.000000 0.000000
# 5 0.000000 0.000000 0.000000 0.000000 0.080841 0.000000
# 6 0.000000 0.000000 0.000000 0.000000 0.000000 0.037237
#
#
# Mechanical properties :
#
#
# Convention : Reuss Voigt Hill
#
# Bulk Modulus (GPa) = 49.90336 65.51620 57.70978
# Shear Modulus (GPa) = 24.65809 34.30268 29.48038
#
# Velocity S-wave (km/s) = 3.23662 3.81748 3.53899
# Velocity P-wave (km/s) = 5.93031 6.87493 6.42002
#
# Compressibility (1/GPa) = 0.02003873
#
# Stress axis : x y z
#
# Youngs Moduli (GPa) = 102.15228 60.75612 167.80672
#
# Poissons Ratio (x) = 0.04446 0.12503
# Poissons Ratio (y) = 0.07475 0.77320
# Poissons Ratio (z) = 0.07611 0.27994
#
# Static dielectric constant tensor:
#      x y z
#    x 1.921000 0.000000 0.000000 
#    y 0.000000 1.918130 0.000000 
#    z 0.000000 0.000000 1.861310 
# 
# From -- ./inp_files/20058.got.cif
#   From: 2010.05.17/outbox.cif.g08.bks.cpg/sg63_11_cif.got.tgz:20058.got - 2010.06.03 15:47:04.
