data_PCOD9474662
_publ_section_title
;
Structure prediction by ZEFSAII (Michael W. Deem and Ramdas Pophale) SiO2 
 PCOD9474662
Probable space group: C M C M
;
_chemical_formula_sum "Si O2"
_cell_formula_units_Z 36
_cell_length_a 13.002610
_cell_length_b 7.015006
_cell_length_c 13.950178
_cell_angle_alpha 90.000000
_cell_angle_beta 90.000000
_cell_angle_gamma 90.000000
_cell_volume 1272.442987
_symmetry_space_group_name_H-M "C M C M"
_symmetry_group_IT_number 63
_symmetry_cell_setting 'orthorhombic'
loop_
_space_group_symop_operation_xyz
x,y,z
-x,-y,1/2+z
x,-y,-z
-x,y,1/2-z
-x,-y,-z
x,y,1/2-z
-x,y,z
x,-y,1/2+z
1/2+x,1/2+y,z
1/2-x,1/2-y,1/2+z
1/2+x,1/2-y,-z
1/2-x,1/2+y,1/2-z
1/2-x,1/2-y,-z
1/2+x,1/2+y,1/2-z
1/2-x,1/2+y,z
1/2+x,1/2-y,1/2+z
loop_
_atom_site_type_symbol
_atom_site_label
_atom_site_fract_x
_atom_site_fract_y
_atom_site_fract_z
Si Si1 0.109778 0.970094 0.885696
Si Si2 0.842125 0.463772 0.385785
Si Si3 0.000000 0.328328 0.750000
O O1 0.113127 0.744722 0.866492
O O2 0.000000 0.043164 0.843583
O O3 0.222301 0.039462 0.856783
O O4 0.105534 0.000000 0.000000
O O5 0.845369 0.500000 0.500000
O O6 0.908993 0.619356 0.332424
#
# Coordination Sequence:
#
# PCOD9474662 Si02
#       3
#    16  16   4
#     4  10  21  41  73  98 126 171 222 272 335 384
#     4  11  23  45  69  97 135 174 222 274 330 392
#     4  12  26  40  68  96 138 184 212 272 334 390
#
# _framework density 28.292031000000001
#
# number of rings (size 3 to 8) (size 9 to 14) (size 15 to 20)
#    0.000    1.333    2.222    6.000    0.000    1.778 
#    4.000    0.000    0.000    5.333    0.000    0.000 
#    0.000    0.000    0.000    0.000    0.000    0.000 
#
# Total GULP energy -100516.457313 kJ/mol
# GULP energy per Si atom -5584.247628 kJ/mol
# Density = 2.822764 g / cm^3
# Si number density = 28.292031 Si / 1000 Ang^3
#
#
#
# Elastic Constant Matrix: (Units=GPa)
#
#
# Indices 1 2 3 4 5 6 
#
# 1 339.3036 31.6203 11.4586 0.0000 0.0000 0.0000
# 2 31.6203 92.0513 -66.8745 0.0000 0.0000 0.0000
# 3 11.4586 -66.8745 208.7053 0.0000 0.0000 0.0000
# 4 0.0000 0.0000 0.0000 -397.5260 0.0000 0.0000
# 5 0.0000 0.0000 0.0000 0.0000 -351.8378 0.0000
# 6 0.0000 0.0000 0.0000 0.0000 0.0000 60.2600
#
#
#
# Elastic Compliance Matrix: (Units=1/GPa)
#
#
# Indices 1 2 3 4 5 6 
#
# 1 0.003115 -0.001557 -0.000670 0.000000 0.000000 0.000000
# 2 -0.001557 0.014938 0.004872 0.000000 0.000000 0.000000
# 3 -0.000670 0.004872 0.006389 0.000000 0.000000 0.000000
# 4 0.000000 0.000000 0.000000 -0.002516 0.000000 0.000000
# 5 0.000000 0.000000 0.000000 0.000000 -0.002842 0.000000
# 6 0.000000 0.000000 0.000000 0.000000 0.000000 0.016595
#
#
# Mechanical properties :
#
#
# Convention : Reuss Voigt Hill
#
# Bulk Modulus (GPa) = 33.63310 65.82991 49.73150
# Shear Modulus (GPa) = 124.07364 -93.56372 15.25496
#
# Velocity S-wave (km/s) = 6.62947 -5.75695 2.32458
# Velocity P-wave (km/s) = 8.39723 4.56853 4.98206
#
# Compressibility (1/GPa) = 0.02973262
#
# Stress axis : x y z
#
# Youngs Moduli (GPa) = 321.03833 66.94545 156.51232
#
# Poissons Ratio (x) = 0.10421 0.10483
# Poissons Ratio (y) = 0.49972 -0.76250
# Poissons Ratio (z) = 0.21503 -0.32615
#
# Static dielectric constant tensor:
#      x y z
#    x 2.117140 0.000000 0.000000 
#    y 0.000000 2.347350 0.000000 
#    z 0.000000 0.000000 2.103580 
# 
# From -- ./inp_files/30512.got.cif
#   From: 2010.05.17/outbox.cif.g08.bks.cpg/sg63_16_cif.got.tgz:30512.got - 2010.06.03 15:47:04.
