data_PCOD9474260
_publ_section_title
;
Structure prediction by ZEFSAII (Michael W. Deem and Ramdas Pophale) SiO2 
 PCOD9474260
Probable space group: C M C M
;
_chemical_formula_sum "Si O2"
_cell_formula_units_Z 88
_cell_length_a 16.326130
_cell_length_b 9.848955
_cell_length_c 28.616107
_cell_angle_alpha 90.000000
_cell_angle_beta 90.000000
_cell_angle_gamma 90.000000
_cell_volume 4601.336073
_symmetry_space_group_name_H-M "C M C M"
_symmetry_group_IT_number 63
_symmetry_cell_setting 'orthorhombic'
loop_
_space_group_symop_operation_xyz
x,y,z
-x,-y,1/2+z
x,-y,-z
-x,y,1/2-z
-x,-y,-z
x,y,1/2-z
-x,y,z
x,-y,1/2+z
1/2+x,1/2+y,z
1/2-x,1/2-y,1/2+z
1/2+x,1/2-y,-z
1/2-x,1/2+y,1/2-z
1/2-x,1/2-y,-z
1/2+x,1/2+y,1/2-z
1/2-x,1/2+y,z
1/2+x,1/2-y,1/2+z
loop_
_atom_site_type_symbol
_atom_site_label
_atom_site_fract_x
_atom_site_fract_y
_atom_site_fract_z
Si Si1 0.403951 0.057167 0.750000
Si Si2 0.326015 0.475472 0.554472
Si Si3 0.827641 0.287603 0.573621
Si Si4 0.815061 0.840666 0.750000
Si Si5 0.832706 0.340764 0.818101
Si Si6 0.403987 0.623891 0.750000
Si Si7 0.500000 0.731603 0.529984
Si Si8 0.500000 0.581158 0.065064
O O1 0.500000 0.064123 0.750000
O O2 0.365883 0.204430 0.750000
O O3 0.374700 0.971551 0.794885
O O4 0.351050 0.500000 0.500000
O O5 0.247807 0.376438 0.554116
O O6 0.306619 0.626518 0.573015
O O7 0.404692 0.412415 0.582250
O O8 0.838004 0.334480 0.626903
O O9 0.914901 0.300397 0.546498
O O10 0.757692 0.841074 0.704106
O O11 0.866290 0.976477 0.750000
O O12 0.874806 0.209657 0.794766
O O13 0.500000 0.616870 0.750000
O O14 0.500000 0.580188 0.552466
O O15 0.500000 0.695505 0.475367
#
# Coordination Sequence:
#
# PCOD9474260 Si02
#       8
#     8  16  16   8  16   8   8   8
#     4  10  21  38  61  82 118 156 182 232 297 352
#     4  11  21  40  60  89 116 160 196 247 293 353
#     4  11  24  35  64  87 121 151 203 240 294 343
#     4  10  21  38  61  82 122 148 186 236 299 339
#     4  10  21  38  57  85 117 155 193 229 285 354
#     4  10  21  38  63  90 112 148 196 242 279 344
#     4   9  18  36  56  86 110 158 189 251 270 362
#     4   9  16  38  61  78 115 153 206 229 309 331
#
# _framework density 19.124880000000001
#
# number of rings (size 3 to 8) (size 9 to 14) (size 15 to 20)
#    0.000    2.000    3.636    4.091    7.636    0.000 
#    0.000    1.364    2.000    0.000    0.000    0.000 
#    0.000    0.000    0.000    0.000    0.000    0.000 
#
# Total GULP energy -245191.394723 kJ/mol
# GULP energy per Si atom -5572.531698 kJ/mol
# Density = 1.908135 g / cm^3
# Si number density = 19.124880 Si / 1000 Ang^3
#
#
#
# Elastic Constant Matrix: (Units=GPa)
#
#
# Indices 1 2 3 4 5 6 
#
# 1 186.9871 77.8904 0.9707 0.0000 0.0000 0.0000
# 2 77.8904 109.6914 7.8728 0.0000 0.0000 0.0000
# 3 0.9707 7.8728 30.2156 0.0000 0.0000 0.0000
# 4 0.0000 0.0000 0.0000 -9.2137 0.0000 0.0000
# 5 0.0000 0.0000 0.0000 0.0000 -49.1155 0.0000
# 6 0.0000 0.0000 0.0000 0.0000 0.0000 54.2515
#
#
#
# Elastic Compliance Matrix: (Units=1/GPa)
#
#
# Indices 1 2 3 4 5 6 
#
# 1 0.007636 -0.005508 0.001190 0.000000 0.000000 0.000000
# 2 -0.005508 0.013263 -0.003279 0.000000 0.000000 0.000000
# 3 0.001190 -0.003279 0.033911 0.000000 0.000000 0.000000
# 4 0.000000 0.000000 0.000000 -0.108534 0.000000 0.000000
# 5 0.000000 0.000000 0.000000 0.000000 -0.020360 0.000000
# 6 0.000000 0.000000 0.000000 0.000000 0.000000 0.018433
#
#
# Mechanical properties :
#
#
# Convention : Reuss Voigt Hill
#
# Bulk Modulus (GPa) = 25.24170 55.59577 40.41873
# Shear Modulus (GPa) = -183.47162 15.19515 -84.13823
#
# Velocity S-wave (km/s) = -9.80519 2.82179 -6.64000
# Velocity P-wave (km/s) = 10.72203 6.30473 6.13239
#
# Compressibility (1/GPa) = 0.03961699
#
# Stress axis : x y z
#
# Youngs Moduli (GPa) = 130.95842 75.39950 29.48852
#
# Poissons Ratio (x) = 0.41527 -0.03508
# Poissons Ratio (y) = 0.72127 0.09668
# Poissons Ratio (z) = -0.15580 0.24721
#
# Static dielectric constant tensor:
#      x y z
#    x 1.718750 0.000000 0.000000 
#    y 0.000000 1.640380 0.000000 
#    z 0.000000 0.000000 1.676460 
# 
# From -- ./inp_files/73867.got.cif
#   From: 2010.05.17/outbox.cif.g08.bks.cpg/sg63_37_cif.got.tgz:73867.got - 2010.06.03 15:47:04.
