data_PCOD9474441
_publ_section_title
;
Structure prediction by ZEFSAII (Michael W. Deem and Ramdas Pophale) SiO2 
 PCOD9474441
Probable space group: C M C M
;
_chemical_formula_sum "Si O2"
_cell_formula_units_Z 88
_cell_length_a 13.764834
_cell_length_b 28.050562
_cell_length_c 12.999142
_cell_angle_alpha 90.000000
_cell_angle_beta 90.000000
_cell_angle_gamma 90.000000
_cell_volume 5019.116000
_symmetry_space_group_name_H-M "C M C M"
_symmetry_group_IT_number 63
_symmetry_cell_setting 'orthorhombic'
loop_
_space_group_symop_operation_xyz
x,y,z
-x,-y,1/2+z
x,-y,-z
-x,y,1/2-z
-x,-y,-z
x,y,1/2-z
-x,y,z
x,-y,1/2+z
1/2+x,1/2+y,z
1/2-x,1/2-y,1/2+z
1/2+x,1/2-y,-z
1/2-x,1/2+y,1/2-z
1/2-x,1/2-y,-z
1/2+x,1/2+y,1/2-z
1/2-x,1/2+y,z
1/2+x,1/2-y,1/2+z
loop_
_atom_site_type_symbol
_atom_site_label
_atom_site_fract_x
_atom_site_fract_y
_atom_site_fract_z
Si Si1 0.292833 0.420777 0.750000
Si Si2 0.888020 0.292875 0.628434
Si Si3 0.383989 0.680294 0.633703
Si Si4 0.266982 0.959174 0.080950
Si Si5 0.886727 0.489188 0.750000
Si Si6 0.885422 0.974738 0.250000
Si Si7 0.240473 0.131562 0.040499
O O1 0.183098 0.442815 0.750000
O O2 0.359933 0.468301 0.750000
O O3 0.303793 0.390152 0.646093
O O4 0.881917 0.304125 0.750000
O O5 0.864676 0.236793 0.618314
O O6 0.815068 0.326959 0.569495
O O7 0.000000 0.299828 0.596180
O O8 0.349736 0.667328 0.750000
O O9 0.500000 0.674104 0.632815
O O10 0.336367 0.651870 0.540881
O O11 0.171994 0.953370 0.152518
O O12 0.352599 0.979529 0.152323
O O13 0.291836 0.911981 0.018903
O O14 0.242126 0.000000 0.000000
O O15 0.000000 0.478358 0.750000
O O16 0.000000 0.966450 0.250000
#
# Coordination Sequence:
#
# PCOD9474441 Si02
#       7
#     8  16  16  16   8   8  16
#     4  10  22  38  54  88 116 140 194 236 272 344
#     4   9  19  37  60  86 113 145 188 231 278 340
#     4   9  21  39  59  85 113 147 191 232 277 335
#     4  10  21  39  54  82 114 144 191 234 270 342
#     4  10  22  40  56  75 114 156 186 233 288 325
#     4  10  22  40  56  73 110 156 190 233 282 321
#     4  12  20  36  61  85 116 148 185 235 287 325
#
# _framework density 17.532966999999999
#
# number of rings (size 3 to 8) (size 9 to 14) (size 15 to 20)
#    0.000    2.182    4.545    1.636    2.545    3.636 
#    0.000    0.000    0.000    0.000    0.000    0.000 
#    0.000    0.000    0.000    0.000    0.000    0.000 
#
# Total GULP energy -245409.860764 kJ/mol
# GULP energy per Si atom -5577.496836 kJ/mol
# Density = 1.749306 g / cm^3
# Si number density = 17.532967 Si / 1000 Ang^3
#
#
#
# Elastic Constant Matrix: (Units=GPa)
#
#
# Indices 1 2 3 4 5 6 
#
# 1 57.5214 21.9064 25.2050 0.0000 0.0000 0.0000
# 2 21.9064 70.4490 55.5445 0.0000 0.0000 0.0000
# 3 25.2050 55.5445 123.1757 0.0000 0.0000 0.0000
# 4 0.0000 0.0000 0.0000 50.3293 0.0000 0.0000
# 5 0.0000 0.0000 0.0000 0.0000 15.9709 0.0000
# 6 0.0000 0.0000 0.0000 0.0000 0.0000 8.2764
#
#
#
# Elastic Compliance Matrix: (Units=1/GPa)
#
#
# Indices 1 2 3 4 5 6 
#
# 1 0.020033 -0.004651 -0.002002 0.000000 0.000000 0.000000
# 2 -0.004651 0.023105 -0.009467 0.000000 0.000000 0.000000
# 3 -0.002002 -0.009467 0.012797 0.000000 0.000000 0.000000
# 4 0.000000 0.000000 0.000000 0.019869 0.000000 0.000000
# 5 0.000000 0.000000 0.000000 0.000000 0.062614 0.000000
# 6 0.000000 0.000000 0.000000 0.000000 0.000000 0.120825
#
#
# Mechanical properties :
#
#
# Convention : Reuss Voigt Hill
#
# Bulk Modulus (GPa) = 42.20248 50.71753 46.46000
# Shear Modulus (GPa) = 16.70101 24.81466 20.75784
#
# Velocity S-wave (km/s) = 3.08969 3.76615 3.44456
# Velocity P-wave (km/s) = 6.07049 6.92110 6.50970
#
# Compressibility (1/GPa) = 0.02369529
#
# Stress axis : x y z
#
# Youngs Moduli (GPa) = 49.91665 43.28015 78.14132
#
# Poissons Ratio (x) = 0.20130 0.15644
# Poissons Ratio (y) = 0.23216 0.73979
# Poissons Ratio (z) = 0.09994 0.40975
#
# Static dielectric constant tensor:
#      x y z
#    x 1.562250 0.000000 0.000000 
#    y 0.000000 1.616000 0.000000 
#    z 0.000000 0.000000 1.654110 
# 
# From -- ./inp_files/19810.got.cif
#   From: 2010.05.17/outbox.cif.g08.bks.cpg/sg63_10_cif.got.tgz:19810.got - 2010.06.03 15:47:04.
