data_PCOD9474433
_publ_section_title
;
Structure prediction by ZEFSAII (Michael W. Deem and Ramdas Pophale) SiO2 
 PCOD9474433
Probable space group: C M C M
;
_chemical_formula_sum "Si O2"
_cell_formula_units_Z 116
_cell_length_a 31.875328
_cell_length_b 11.577043
_cell_length_c 16.700022
_cell_angle_alpha 90.000000
_cell_angle_beta 90.000000
_cell_angle_gamma 90.000000
_cell_volume 6162.676235
_symmetry_space_group_name_H-M "C M C M"
_symmetry_group_IT_number 63
_symmetry_cell_setting 'orthorhombic'
loop_
_space_group_symop_operation_xyz
x,y,z
-x,-y,1/2+z
x,-y,-z
-x,y,1/2-z
-x,-y,-z
x,y,1/2-z
-x,y,z
x,-y,1/2+z
1/2+x,1/2+y,z
1/2-x,1/2-y,1/2+z
1/2+x,1/2-y,-z
1/2-x,1/2+y,1/2-z
1/2-x,1/2-y,-z
1/2+x,1/2+y,1/2-z
1/2-x,1/2+y,z
1/2+x,1/2-y,1/2+z
loop_
_atom_site_type_symbol
_atom_site_label
_atom_site_fract_x
_atom_site_fract_y
_atom_site_fract_z
Si Si1 0.335098 0.361400 0.340155
Si Si2 0.500000 0.303212 0.750000
Si Si3 0.836716 0.129170 0.161362
Si Si4 0.451538 0.625357 0.513060
Si Si5 0.950239 0.500642 0.095842
Si Si6 0.577109 0.244069 0.633129
Si Si7 0.423988 0.248453 0.159129
Si Si8 0.780248 0.137197 0.000971
O O1 0.316517 0.343120 0.250000
O O2 0.350217 0.494656 0.341483
O O3 0.374892 0.277971 0.348040
O O4 0.306024 0.350125 0.417810
O O5 0.537742 0.296497 0.681298
O O6 0.816278 0.146402 0.250000
O O7 0.878176 0.207179 0.158635
O O8 0.807963 0.147713 0.082762
O O9 0.432233 0.500000 0.500000
O O10 0.500000 0.622509 0.489073
O O11 0.428693 0.718833 0.459025
O O12 0.448067 0.661662 0.603960
O O13 0.927058 0.393477 0.136723
O O14 0.934782 0.621030 0.130108
O O15 0.000000 0.486583 0.111268
O O16 0.944477 0.500000 0.000000
O O17 0.436840 0.262404 0.250000
O O18 0.750000 0.250000 0.000000
O O19 0.764677 0.000000 0.000000
#
# Coordination Sequence:
#
# PCOD9474433 Si02
#       8
#    16   4  16  16  16  16  16  16
#     4   9  20  41  64  90 122 165 201 252 319 383
#     4  12  24  36  60  88 128 164 222 282 308 378
#     4  10  21  38  66  93 127 166 210 254 317 392
#     4  11  22  37  53  76 111 153 199 259 321 367
#     4  11  23  38  57  78 119 171 218 267 326 374
#     4  12  22  40  58  86 121 167 216 265 324 373
#     4  11  23  38  59  87 115 156 214 259 310 378
#     4  10  22  43  69 100 130 164 206 255 323 396
#
# _framework density 18.822991999999999
#
# number of rings (size 3 to 8) (size 9 to 14) (size 15 to 20)
#    0.000    1.379    3.448    2.069    0.966    2.759 
#    3.724    0.000    0.000    0.000    0.000    0.000 
#    0.000    0.000    0.000    0.000    0.000    0.000 
#
# Total GULP energy -322933.188168 kJ/mol
# GULP energy per Si atom -5567.813589 kJ/mol
# Density = 1.878015 g / cm^3
# Si number density = 18.822992 Si / 1000 Ang^3
#
#
#
# Elastic Constant Matrix: (Units=GPa)
#
#
# Indices 1 2 3 4 5 6 
#
# 1 51.1003 40.1402 37.4227 0.0000 0.0000 0.0000
# 2 40.1402 108.8095 51.8009 0.0000 0.0000 0.0000
# 3 37.4227 51.8009 137.3985 0.0000 0.0000 0.0000
# 4 0.0000 0.0000 0.0000 19.3880 0.0000 0.0000
# 5 0.0000 0.0000 0.0000 0.0000 16.4617 0.0000
# 6 0.0000 0.0000 0.0000 0.0000 0.0000 43.4860
#
#
#
# Elastic Compliance Matrix: (Units=1/GPa)
#
#
# Indices 1 2 3 4 5 6 
#
# 1 0.030014 -0.008751 -0.004876 0.000000 0.000000 0.000000
# 2 -0.008751 0.013752 -0.002801 0.000000 0.000000 0.000000
# 3 -0.004876 -0.002801 0.009662 0.000000 0.000000 0.000000
# 4 0.000000 0.000000 0.000000 0.051578 0.000000 0.000000
# 5 0.000000 0.000000 0.000000 0.000000 0.060747 0.000000
# 6 0.000000 0.000000 0.000000 0.000000 0.000000 0.022996
#
#
# Mechanical properties :
#
#
# Convention : Reuss Voigt Hill
#
# Bulk Modulus (GPa) = 48.60835 61.78177 55.19506
# Shear Modulus (GPa) = 21.88533 27.06343 24.47438
#
# Velocity S-wave (km/s) = 3.41353 3.79593 3.60979
# Velocity P-wave (km/s) = 6.43554 7.21844 6.83820
#
# Compressibility (1/GPa) = 0.02057260
#
# Stress axis : x y z
#
# Youngs Moduli (GPa) = 33.31761 72.71503 103.49677
#
# Poissons Ratio (x) = 0.63635 0.50460
# Poissons Ratio (y) = 0.29157 0.28992
# Poissons Ratio (z) = 0.16244 0.20369
#
# Static dielectric constant tensor:
#      x y z
#    x 1.632540 0.000000 0.000000 
#    y 0.000000 1.646760 0.000000 
#    z 0.000000 0.000000 1.694030 
# 
# From -- ./inp_files/49632.got.cif
#   From: 2010.05.17/outbox.cif.g08.bks.cpg/sg63_25_cif.got.tgz:49632.got - 2010.06.03 15:47:04.
