data_PCOD9474053
_publ_section_title
;
Structure prediction by ZEFSAII (Michael W. Deem and Ramdas Pophale) SiO2 
 PCOD9474053
Probable space group: C M C M
;
_chemical_formula_sum "Si O2"
_cell_formula_units_Z 96
_cell_length_a 8.882614
_cell_length_b 20.718788
_cell_length_c 30.287649
_cell_angle_alpha 90.000000
_cell_angle_beta 90.000000
_cell_angle_gamma 90.000000
_cell_volume 5574.047949
_symmetry_space_group_name_H-M "C M C M"
_symmetry_group_IT_number 63
_symmetry_cell_setting 'orthorhombic'
loop_
_space_group_symop_operation_xyz
x,y,z
-x,-y,1/2+z
x,-y,-z
-x,y,1/2-z
-x,-y,-z
x,y,1/2-z
-x,y,z
x,-y,1/2+z
1/2+x,1/2+y,z
1/2-x,1/2-y,1/2+z
1/2+x,1/2-y,-z
1/2-x,1/2+y,1/2-z
1/2-x,1/2-y,-z
1/2+x,1/2+y,1/2-z
1/2-x,1/2+y,z
1/2+x,1/2-y,1/2+z
loop_
_atom_site_type_symbol
_atom_site_label
_atom_site_fract_x
_atom_site_fract_y
_atom_site_fract_z
Si Si1 0.819989 0.198926 0.533072
Si Si2 0.679572 0.448295 0.698024
Si Si3 0.181654 0.192986 0.865160
Si Si4 0.820386 0.446448 0.366495
Si Si5 0.680330 0.189770 0.198439
Si Si6 0.181705 0.051429 0.962573
O O1 0.750000 0.250000 0.500000
O O2 0.778825 0.210785 0.584300
O O3 0.777209 0.124527 0.523507
O O4 0.000000 0.203296 0.529797
O O5 0.714780 0.458452 0.750000
O O6 0.500000 0.451948 0.692560
O O7 0.758396 0.501360 0.667850
O O8 0.737589 0.376663 0.686397
O O9 0.258086 0.124740 0.854829
O O10 0.224111 0.250153 0.832071
O O11 0.000000 0.184350 0.863281
O O12 0.757730 0.461674 0.415507
O O13 0.000000 0.446263 0.366841
O O14 0.711901 0.203546 0.250000
O O15 0.500000 0.180414 0.193956
O O16 0.000000 0.049804 0.956541
O O17 0.222370 0.000000 0.000000
#
# Coordination Sequence:
#
# PCOD9474053 Si02
#       6
#    16  16  16  16  16  16
#     4   9  18  32  50  72 100 132 167 209 253 302
#     4  10  21  37  56  77 105 142 180 218 263 317
#     4   9  19  36  54  75 106 141 175 213 262 316
#     4  11  22  35  54  80 109 140 177 223 267 310
#     4   9  18  34  56  80 105 133 169 216 266 314
#     4   9  19  37  57  76 102 138 178 218 262 313
#
# _framework density 17.222673
#
# number of rings (size 3 to 8) (size 9 to 14) (size 15 to 20)
#    0.000    2.500    0.000    3.000    0.000    6.667 
#    0.000    5.000    0.000    0.000    0.000    0.000 
#    0.000    0.000    0.000    0.000    0.000    0.000 
#
# Total GULP energy -267827.566258 kJ/mol
# GULP energy per Si atom -5579.740964 kJ/mol
# Density = 1.718347 g / cm^3
# Si number density = 17.222673 Si / 1000 Ang^3
#
#
#
# Elastic Constant Matrix: (Units=GPa)
#
#
# Indices 1 2 3 4 5 6 
#
# 1 51.1810 70.1917 58.5530 0.0000 0.0000 0.0000
# 2 70.1917 172.6031 128.5035 0.0000 0.0000 0.0000
# 3 58.5530 128.5035 113.3917 0.0000 0.0000 0.0000
# 4 0.0000 0.0000 0.0000 44.0337 0.0000 0.0000
# 5 0.0000 0.0000 0.0000 0.0000 24.1508 0.0000
# 6 0.0000 0.0000 0.0000 0.0000 0.0000 32.3050
#
#
#
# Elastic Compliance Matrix: (Units=1/GPa)
#
#
# Indices 1 2 3 4 5 6 
#
# 1 0.049019 -0.006970 -0.017414 0.000000 0.000000 0.000000
# 2 -0.006970 0.038064 -0.039538 0.000000 0.000000 0.000000
# 3 -0.017414 -0.039538 0.062618 0.000000 0.000000 0.000000
# 4 0.000000 0.000000 0.000000 0.022710 0.000000 0.000000
# 5 0.000000 0.000000 0.000000 0.000000 0.041407 0.000000
# 6 0.000000 0.000000 0.000000 0.000000 0.000000 0.030955
#
#
# Mechanical properties :
#
#
# Convention : Reuss Voigt Hill
#
# Bulk Modulus (GPa) = 45.74859 94.63025 70.18942
# Shear Modulus (GPa) = 13.16130 25.42640 19.29385
#
# Velocity S-wave (km/s) = 2.76739 3.84648 3.35066
# Velocity P-wave (km/s) = 6.06893 8.64821 7.47073
#
# Compressibility (1/GPa) = 0.02185860
#
# Stress axis : x y z
#
# Youngs Moduli (GPa) = 20.40013 26.27157 15.96984
#
# Poissons Ratio (x) = 0.18311 0.27810
# Poissons Ratio (y) = 0.14218 0.63141
# Poissons Ratio (z) = 0.35525 1.03872
#
# Static dielectric constant tensor:
#      x y z
#    x 1.577470 0.000000 0.000000 
#    y 0.000000 1.559540 0.000000 
#    z 0.000000 0.000000 1.566480 
# 
# From -- ./inp_files/66997.got.cif
#   From: 2010.05.17/outbox.cif.g08.bks.cpg/sg63_34_cif.got.tgz:66997.got - 2010.06.03 15:47:04.
