data_PCOD9474014
_publ_section_title
;
Structure prediction by ZEFSAII (Michael W. Deem and Ramdas Pophale) SiO2 
 PCOD9474014
Probable space group: C M C M
;
_chemical_formula_sum "Si O2"
_cell_formula_units_Z 116
_cell_length_a 16.051749
_cell_length_b 20.465249
_cell_length_c 15.754404
_cell_angle_alpha 90.000000
_cell_angle_beta 90.000000
_cell_angle_gamma 90.000000
_cell_volume 5175.369610
_symmetry_space_group_name_H-M "C M C M"
_symmetry_group_IT_number 63
_symmetry_cell_setting 'orthorhombic'
loop_
_space_group_symop_operation_xyz
x,y,z
-x,-y,1/2+z
x,-y,-z
-x,y,1/2-z
-x,-y,-z
x,y,1/2-z
-x,y,z
x,-y,1/2+z
1/2+x,1/2+y,z
1/2-x,1/2-y,1/2+z
1/2+x,1/2-y,-z
1/2-x,1/2+y,1/2-z
1/2-x,1/2-y,-z
1/2+x,1/2+y,1/2-z
1/2-x,1/2+y,z
1/2+x,1/2-y,1/2+z
loop_
_atom_site_type_symbol
_atom_site_label
_atom_site_fract_x
_atom_site_fract_y
_atom_site_fract_z
Si Si1 0.245369 0.502970 0.600758
Si Si2 0.265797 0.643791 0.346549
Si Si3 0.500000 0.306766 0.250000
Si Si4 0.411118 0.554944 0.573008
Si Si5 0.908369 0.338309 0.924563
Si Si6 0.699116 0.217473 0.649842
Si Si7 0.403642 0.095141 0.602912
Si Si8 0.878940 0.194852 0.916781
O O1 0.235721 0.500000 0.500000
O O2 0.270349 0.429370 0.621416
O O3 0.326875 0.544761 0.625470
O O4 0.160883 0.538513 0.631014
O O5 0.290935 0.639925 0.250000
O O6 0.167354 0.658458 0.359484
O O7 0.312808 0.707660 0.381682
O O8 0.572477 0.305941 0.326137
O O9 0.411065 0.500000 0.500000
O O10 0.500000 0.549511 0.619594
O O11 0.404840 0.628176 0.537239
O O12 0.902867 0.263957 0.958426
O O13 0.000000 0.347841 0.886408
O O14 0.897635 0.389703 0.001189
O O15 0.720077 0.221703 0.750000
O O16 0.627004 0.164225 0.640631
O O17 0.779918 0.193002 0.598691
O O18 0.500000 0.080605 0.622375
#
# Coordination Sequence:
#
# PCOD9474014 Si02
#       8
#    16  16   4  16  16  16  16  16
#     4  11  22  41  61  90 129 173 211 269 326 378
#     4  10  23  40  62  89 123 170 214 260 322 386
#     4  12  20  32  62 100 126 158 198 264 342 380
#     4  10  21  37  59  88 120 159 205 256 320 382
#     4  10  21  36  61  94 126 155 206 265 320 376
#     4  10  22  41  63  91 123 163 210 265 322 380
#     4  11  24  40  64  96 128 177 222 262 316 385
#     4  11  20  35  61  93 125 155 198 262 326 383
#
# _framework density 22.413857
#
# number of rings (size 3 to 8) (size 9 to 14) (size 15 to 20)
#    0.000    1.517    4.828    0.000    0.966    6.345 
#    1.241    2.069    0.000    0.828    0.000    0.000 
#    0.000    0.000    0.000    0.000    0.000    0.000 
#
# Total GULP energy -322946.230759 kJ/mol
# GULP energy per Si atom -5568.038461 kJ/mol
# Density = 2.236284 g / cm^3
# Si number density = 22.413857 Si / 1000 Ang^3
#
#
#
# Elastic Constant Matrix: (Units=GPa)
#
#
# Indices 1 2 3 4 5 6 
#
# 1 139.2362 29.0821 -5.0737 0.0000 0.0000 0.0000
# 2 29.0821 125.3711 10.9726 0.0000 0.0000 0.0000
# 3 -5.0737 10.9726 25.5006 0.0000 0.0000 0.0000
# 4 0.0000 0.0000 0.0000 17.2435 0.0000 0.0000
# 5 0.0000 0.0000 0.0000 0.0000 54.7339 0.0000
# 6 0.0000 0.0000 0.0000 0.0000 0.0000 19.4139
#
#
#
# Elastic Compliance Matrix: (Units=1/GPa)
#
#
# Indices 1 2 3 4 5 6 
#
# 1 0.007685 -0.001991 0.002386 0.000000 0.000000 0.000000
# 2 -0.001991 0.008805 -0.004185 0.000000 0.000000 0.000000
# 3 0.002386 -0.004185 0.041490 0.000000 0.000000 0.000000
# 4 0.000000 0.000000 0.000000 0.057993 0.000000 0.000000
# 5 0.000000 0.000000 0.000000 0.000000 0.018270 0.000000
# 6 0.000000 0.000000 0.000000 0.000000 0.000000 0.051509
#
#
# Mechanical properties :
#
#
# Convention : Reuss Voigt Hill
#
# Bulk Modulus (GPa) = 19.84167 40.00778 29.92472
# Shear Modulus (GPa) = 23.79453 35.28671 29.54062
#
# Velocity S-wave (km/s) = 3.26175 3.97208 3.63431
# Velocity P-wave (km/s) = 4.80177 6.23898 5.56695
#
# Compressibility (1/GPa) = 0.05039899
#
# Stress axis : x y z
#
# Youngs Moduli (GPa) = 130.12462 113.57784 24.10216
#
# Poissons Ratio (x) = 0.22619 -0.05751
# Poissons Ratio (y) = 0.25914 0.10086
# Poissons Ratio (z) = -0.31047 0.47529
#
# Static dielectric constant tensor:
#      x y z
#    x 1.872800 0.000000 0.000000 
#    y 0.000000 1.923660 0.000000 
#    z 0.000000 0.000000 1.835110 
# 
# From -- ./inp_files/45923.got.cif
#   From: 2010.05.17/outbox.cif.g08.bks.cpg/sg63_23_cif.got.tgz:45923.got - 2010.06.03 15:47:04.
