data_PCOD9475039
_publ_section_title
;
Structure prediction by ZEFSAII (Michael W. Deem and Ramdas Pophale) SiO2 
 PCOD9475039
Probable space group: C M C M
;
_chemical_formula_sum "Si O2"
_cell_formula_units_Z 68
_cell_length_a 7.411466
_cell_length_b 19.726255
_cell_length_c 18.834016
_cell_angle_alpha 90.000000
_cell_angle_beta 90.000000
_cell_angle_gamma 90.000000
_cell_volume 2753.541958
_symmetry_space_group_name_H-M "C M C M"
_symmetry_group_IT_number 63
_symmetry_cell_setting 'orthorhombic'
loop_
_space_group_symop_operation_xyz
x,y,z
-x,-y,1/2+z
x,-y,-z
-x,y,1/2-z
-x,-y,-z
x,y,1/2-z
-x,y,z
x,-y,1/2+z
1/2+x,1/2+y,z
1/2-x,1/2-y,1/2+z
1/2+x,1/2-y,-z
1/2-x,1/2+y,1/2-z
1/2-x,1/2-y,-z
1/2+x,1/2+y,1/2-z
1/2-x,1/2+y,z
1/2+x,1/2-y,1/2+z
loop_
_atom_site_type_symbol
_atom_site_label
_atom_site_fract_x
_atom_site_fract_y
_atom_site_fract_z
Si Si1 0.289889 0.983473 0.638963
Si Si2 0.792198 0.636118 0.877100
Si Si3 0.716170 0.627934 0.039293
Si Si4 0.721607 0.280107 0.828867
Si Si5 0.500000 0.563518 0.250000
O O1 0.500000 0.982129 0.660357
O O2 0.220752 0.061099 0.638860
O O3 0.275374 0.946910 0.563044
O O4 0.157235 0.941789 0.688833
O O5 0.716668 0.702609 0.839818
O O6 0.000000 0.633268 0.854404
O O7 0.785124 0.646751 0.961725
O O8 0.500000 0.630876 0.035708
O O9 0.780355 0.677280 0.102665
O O10 0.775669 0.303203 0.750000
O O11 0.500000 0.282349 0.829205
#
# Coordination Sequence:
#
# PCOD9475039 Si02
#       5
#    16  16  16  16   4
#     4  11  25  43  70  99 132 177 222 271 333 400
#     4  10  22  41  65  94 129 176 226 275 332 397
#     4  11  22  38  67  97 132 177 224 277 333 391
#     4   9  20  38  62  91 130 176 225 274 335 396
#     4  12  26  44  66 102 144 168 216 278 340 390
#
# _framework density 24.695464999999999
#
# number of rings (size 3 to 8) (size 9 to 14) (size 15 to 20)
#    0.000    1.647    1.176    2.471    4.941    2.824 
#    0.000    1.176    0.000    2.824    0.000    0.000 
#    0.000    0.000    0.000    0.000    0.000    0.000 
#
# Total GULP energy -189765.960393 kJ/mol
# GULP energy per Si atom -5581.351776 kJ/mol
# Density = 2.463926 g / cm^3
# Si number density = 24.695465 Si / 1000 Ang^3
#
#
#
# Elastic Constant Matrix: (Units=GPa)
#
#
# Indices 1 2 3 4 5 6 
#
# 1 114.1445 1.4200 -1.7835 0.0000 0.0000 0.0000
# 2 1.4200 117.9728 16.4425 0.0000 0.0000 0.0000
# 3 -1.7835 16.4425 93.5808 0.0000 0.0000 0.0000
# 4 0.0000 0.0000 0.0000 22.6355 0.0000 0.0000
# 5 0.0000 0.0000 0.0000 0.0000 63.7290 0.0000
# 6 0.0000 0.0000 0.0000 0.0000 0.0000 7.6455
#
#
#
# Elastic Compliance Matrix: (Units=1/GPa)
#
#
# Indices 1 2 3 4 5 6 
#
# 1 0.008765 -0.000132 0.000190 0.000000 0.000000 0.000000
# 2 -0.000132 0.008691 -0.001530 0.000000 0.000000 0.000000
# 3 0.000190 -0.001530 0.010958 0.000000 0.000000 0.000000
# 4 0.000000 0.000000 0.000000 0.044178 0.000000 0.000000
# 5 0.000000 0.000000 0.000000 0.000000 0.015691 0.000000
# 6 0.000000 0.000000 0.000000 0.000000 0.000000 0.130796
#
#
# Mechanical properties :
#
#
# Convention : Reuss Voigt Hill
#
# Bulk Modulus (GPa) = 39.25829 39.76178 39.51004
# Shear Modulus (GPa) = 21.69065 39.44327 30.56696
#
# Velocity S-wave (km/s) = 2.96687 4.00082 3.52199
# Velocity P-wave (km/s) = 5.26003 6.12192 5.70727
#
# Compressibility (1/GPa) = 0.02547232
#
# Stress axis : x y z
#
# Youngs Moduli (GPa) = 114.08440 115.05749 91.25471
#
# Poissons Ratio (x) = 0.01519 -0.01736
# Poissons Ratio (y) = 0.01506 0.13958
# Poissons Ratio (z) = -0.02170 0.17599
#
# Static dielectric constant tensor:
#      x y z
#    x 1.941760 0.000000 0.000000 
#    y 0.000000 2.026630 0.000000 
#    z 0.000000 0.000000 1.950020 
# 
# From -- ./inp_files/39958.got.cif
#   From: 2010.05.17/outbox.cif.g08.bks.cpg/sg63_20_cif.got.tgz:39958.got - 2010.06.03 15:47:04.
