data_PCOD9475341
_publ_section_title
;
Structure prediction by ZEFSAII (Michael W. Deem and Ramdas Pophale) SiO2 
 PCOD9475341
Probable space group: C M C M
;
_chemical_formula_sum "Si O2"
_cell_formula_units_Z 88
_cell_length_a 22.597188
_cell_length_b 15.433664
_cell_length_c 13.386019
_cell_angle_alpha 90.000000
_cell_angle_beta 90.000000
_cell_angle_gamma 90.000000
_cell_volume 4668.473276
_symmetry_space_group_name_H-M "C M C M"
_symmetry_group_IT_number 63
_symmetry_cell_setting 'orthorhombic'
loop_
_space_group_symop_operation_xyz
x,y,z
-x,-y,1/2+z
x,-y,-z
-x,y,1/2-z
-x,-y,-z
x,y,1/2-z
-x,y,z
x,-y,1/2+z
1/2+x,1/2+y,z
1/2-x,1/2-y,1/2+z
1/2+x,1/2-y,-z
1/2-x,1/2+y,1/2-z
1/2-x,1/2-y,-z
1/2+x,1/2+y,1/2-z
1/2-x,1/2+y,z
1/2+x,1/2-y,1/2+z
loop_
_atom_site_type_symbol
_atom_site_label
_atom_site_fract_x
_atom_site_fract_y
_atom_site_fract_z
Si Si1 0.784059 0.965186 0.132326
Si Si2 0.000000 0.096976 0.041014
Si Si3 0.187774 0.216998 0.540007
Si Si4 0.000000 0.241443 0.865939
Si Si5 0.627755 0.371297 0.632501
Si Si6 0.671197 0.000000 0.000000
Si Si7 0.116212 0.358199 0.636752
O O1 0.778283 0.960627 0.250000
O O2 0.811209 0.876650 0.091070
O O3 0.718963 0.971978 0.084087
O O4 0.827212 0.047554 0.111508
O O5 0.939926 0.107692 0.104681
O O6 0.000000 0.165345 0.948213
O O7 0.000000 0.000000 0.000000
O O8 0.250000 0.250000 0.500000
O O9 0.147094 0.205404 0.442010
O O10 0.166322 0.286296 0.620021
O O11 0.943657 0.303979 0.877844
O O12 0.000000 0.208413 0.750000
O O13 0.633227 0.351092 0.750000
O O14 0.630278 0.071152 0.052687
O O15 0.117336 0.393204 0.750000
#
# Coordination Sequence:
#
# PCOD9475341 Si02
#       7
#    16   8  16   8  16   8  16
#     4  11  22  38  60  91 132 169 207 254 312 380
#     4  12  23  41  67  91 130 175 215 257 307 376
#     4  12  21  39  62  92 128 165 209 259 314 375
#     4  10  24  44  69  95 125 167 214 263 318 374
#     4  11  24  40  61  93 132 170 208 257 310 372
#     4  12  22  41  66  91 124 166 212 264 326 372
#     4  11  24  43  66  94 124 163 214 266 319 380
#
# _framework density 18.849844999999998
#
# number of rings (size 3 to 8) (size 9 to 14) (size 15 to 20)
#    0.000    0.727    5.455    2.455    0.000    4.000 
#    0.000    0.000    0.000    0.000    0.000    0.000 
#    0.000    0.000    0.000    0.000    0.000    0.000 
#
# Total GULP energy -245613.415765 kJ/mol
# GULP energy per Si atom -5582.123086 kJ/mol
# Density = 1.880694 g / cm^3
# Si number density = 18.849845 Si / 1000 Ang^3
#
#
#
# Elastic Constant Matrix: (Units=GPa)
#
#
# Indices 1 2 3 4 5 6 
#
# 1 80.7931 9.3634 25.2977 0.0000 0.0000 0.0000
# 2 9.3634 62.7283 48.1915 0.0000 0.0000 0.0000
# 3 25.2977 48.1915 129.7331 0.0000 0.0000 0.0000
# 4 0.0000 0.0000 0.0000 28.9564 0.0000 0.0000
# 5 0.0000 0.0000 0.0000 0.0000 9.8557 0.0000
# 6 0.0000 0.0000 0.0000 0.0000 0.0000 23.8083
#
#
#
# Elastic Compliance Matrix: (Units=1/GPa)
#
#
# Indices 1 2 3 4 5 6 
#
# 1 0.013182 0.000010 -0.002574 0.000000 0.000000 0.000000
# 2 0.000010 0.022308 -0.008289 0.000000 0.000000 0.000000
# 3 -0.002574 -0.008289 0.011289 0.000000 0.000000 0.000000
# 4 0.000000 0.000000 0.000000 0.034535 0.000000 0.000000
# 5 0.000000 0.000000 0.000000 0.000000 0.101464 0.000000
# 6 0.000000 0.000000 0.000000 0.000000 0.000000 0.042002
#
#
# Mechanical properties :
#
#
# Convention : Reuss Voigt Hill
#
# Bulk Modulus (GPa) = 39.88272 48.77332 44.32802
# Shear Modulus (GPa) = 19.61987 25.21755 22.41871
#
# Velocity S-wave (km/s) = 3.22972 3.66158 3.45241
# Velocity P-wave (km/s) = 5.92555 6.61869 6.28169
#
# Compressibility (1/GPa) = 0.02507351
#
# Stress axis : x y z
#
# Youngs Moduli (GPa) = 75.86008 44.82677 88.58133
#
# Poissons Ratio (x) = -0.00045 0.22803
# Poissons Ratio (y) = -0.00075 0.73422
# Poissons Ratio (z) = 0.19528 0.37155
#
# Static dielectric constant tensor:
#      x y z
#    x 1.650950 0.000000 0.000000 
#    y 0.000000 1.637660 0.000000 
#    z 0.000000 0.000000 1.769730 
# 
# From -- ./inp_files/35268.got.cif
#   From: 2010.05.17/outbox.cif.g08.bks.cpg/sg63_18_cif.got.tgz:35268.got - 2010.06.03 15:47:04.
