data_PCOD9475444
_publ_section_title
;
Structure prediction by ZEFSAII (Michael W. Deem and Ramdas Pophale) SiO2 
 PCOD9475444
Probable space group: C M C M
;
_chemical_formula_sum "Si O2"
_cell_formula_units_Z 80
_cell_length_a 28.059438
_cell_length_b 7.038474
_cell_length_c 16.897017
_cell_angle_alpha 90.000000
_cell_angle_beta 90.000000
_cell_angle_gamma 90.000000
_cell_volume 3337.086930
_symmetry_space_group_name_H-M "C M C M"
_symmetry_group_IT_number 63
_symmetry_cell_setting 'orthorhombic'
loop_
_space_group_symop_operation_xyz
x,y,z
-x,-y,1/2+z
x,-y,-z
-x,y,1/2-z
-x,-y,-z
x,y,1/2-z
-x,y,z
x,-y,1/2+z
1/2+x,1/2+y,z
1/2-x,1/2-y,1/2+z
1/2+x,1/2-y,-z
1/2-x,1/2+y,1/2-z
1/2-x,1/2-y,-z
1/2+x,1/2+y,1/2-z
1/2-x,1/2+y,z
1/2+x,1/2-y,1/2+z
loop_
_atom_site_type_symbol
_atom_site_label
_atom_site_fract_x
_atom_site_fract_y
_atom_site_fract_z
Si Si1 0.892591 0.233118 0.486422
Si Si2 0.294221 0.650426 0.068831
Si Si3 0.705288 0.304063 0.337740
Si Si4 0.900317 0.699628 0.338946
Si Si5 0.556113 0.377265 0.837254
O O1 0.837524 0.276150 0.463750
O O2 0.910498 0.335774 0.566390
O O3 0.923527 0.250488 0.407423
O O4 0.892309 0.000000 0.500000
O O5 0.312122 0.514977 0.139702
O O6 0.246829 0.740853 0.103643
O O7 0.283196 0.500000 0.000000
O O8 0.725616 0.301827 0.250000
O O9 0.657218 0.182811 0.339397
O O10 0.915538 0.625704 0.250000
O O11 0.918675 0.917785 0.335823
O O12 0.562842 0.293354 0.750000
O O13 0.500000 0.408299 0.850258
#
# Coordination Sequence:
#
# PCOD9475444 Si02
#       5
#    16  16  16  16  16
#     4   9  16  28  44  63  91 127 157 199 246 292
#     4  11  20  33  50  70  98 132 173 206 251 298
#     4  11  21  33  49  70  98 134 170 209 251 298
#     4   9  17  29  42  63  93 125 160 200 245 292
#     4   9  16  26  43  66  94 127 162 202 252 305
#
# _framework density 23.973004
#
# number of rings (size 3 to 8) (size 9 to 14) (size 15 to 20)
#    0.000    2.200    6.000    1.200    0.000    4.400 
#    0.000    0.000    0.000    0.000    0.000    0.000 
#    0.000    2.400    0.000    7.000    0.000    0.800 
#
# Total GULP energy -222789.690476 kJ/mol
# GULP energy per Si atom -5569.742262 kJ/mol
# Density = 2.391844 g / cm^3
# Si number density = 23.973004 Si / 1000 Ang^3
#
#
#
# Elastic Constant Matrix: (Units=GPa)
#
#
# Indices 1 2 3 4 5 6 
#
# 1 78.5901 34.6539 94.4178 0.0000 0.0000 0.0000
# 2 34.6539 47.9825 9.2701 0.0000 0.0000 0.0000
# 3 94.4178 9.2701 206.1173 0.0000 0.0000 0.0000
# 4 0.0000 0.0000 0.0000 -1.1640 0.0000 0.0000
# 5 0.0000 0.0000 0.0000 0.0000 35.0580 0.0000
# 6 0.0000 0.0000 0.0000 0.0000 0.0000 5.2717
#
#
#
# Elastic Compliance Matrix: (Units=1/GPa)
#
#
# Indices 1 2 3 4 5 6 
#
# 1 0.062891 -0.040204 -0.027001 0.000000 0.000000 0.000000
# 2 -0.040204 0.046725 0.016315 0.000000 0.000000 0.000000
# 3 -0.027001 0.016315 0.016486 0.000000 0.000000 0.000000
# 4 0.000000 0.000000 0.000000 -0.859070 0.000000 0.000000
# 5 0.000000 0.000000 0.000000 0.000000 0.028524 0.000000
# 6 0.000000 0.000000 0.000000 0.000000 0.000000 0.189692
#
#
# Mechanical properties :
#
#
# Convention : Reuss Voigt Hill
#
# Bulk Modulus (GPa) = 41.11397 67.70818 54.41107
# Shear Modulus (GPa) = -12.34978 20.78967 4.21995
#
# Velocity S-wave (km/s) = -2.27216 2.94804 1.32820
# Velocity P-wave (km/s) = 3.20994 6.31607 5.00981
#
# Compressibility (1/GPa) = 0.02432264
#
# Stress axis : x y z
#
# Youngs Moduli (GPa) = 15.90063 21.40171 60.65674
#
# Poissons Ratio (x) = 0.86044 1.63777
# Poissons Ratio (y) = 0.63927 -0.98963
# Poissons Ratio (z) = 0.42933 -0.34917
#
# Static dielectric constant tensor:
#      x y z
#    x 1.907220 0.000000 0.000000 
#    y 0.000000 1.986760 0.000000 
#    z 0.000000 0.000000 2.018520 
# 
# From -- ./inp_files/37709.got.cif
#   From: 2010.05.17/outbox.cif.g08.bks.cpg/sg63_19_cif.got.tgz:37709.got - 2010.06.03 15:47:04.
