data_PCOD9475427
_publ_section_title
;
Structure prediction by ZEFSAII (Michael W. Deem and Ramdas Pophale) SiO2 
 PCOD9475427
Probable space group: C M C M
;
_chemical_formula_sum "Si O2"
_cell_formula_units_Z 96
_cell_length_a 8.048014
_cell_length_b 24.598602
_cell_length_c 27.062345
_cell_angle_alpha 90.000000
_cell_angle_beta 90.000000
_cell_angle_gamma 90.000000
_cell_volume 5357.529551
_symmetry_space_group_name_H-M "C M C M"
_symmetry_group_IT_number 63
_symmetry_cell_setting 'orthorhombic'
loop_
_space_group_symop_operation_xyz
x,y,z
-x,-y,1/2+z
x,-y,-z
-x,y,1/2-z
-x,-y,-z
x,y,1/2-z
-x,y,z
x,-y,1/2+z
1/2+x,1/2+y,z
1/2-x,1/2-y,1/2+z
1/2+x,1/2-y,-z
1/2-x,1/2+y,1/2-z
1/2-x,1/2-y,-z
1/2+x,1/2+y,1/2-z
1/2-x,1/2+y,z
1/2+x,1/2-y,1/2+z
loop_
_atom_site_type_symbol
_atom_site_label
_atom_site_fract_x
_atom_site_fract_y
_atom_site_fract_z
Si Si1 0.699811 0.921460 0.890479
Si Si2 0.199084 0.245799 0.879544
Si Si3 0.201810 0.675542 0.464263
Si Si4 0.304638 0.476204 0.052405
Si Si5 0.696482 0.145622 0.929509
Si Si6 0.296662 0.160930 0.193624
O O1 0.500000 0.927068 0.888427
O O2 0.739367 0.879856 0.934977
O O3 0.753871 0.890022 0.840802
O O4 0.774517 0.978889 0.905478
O O5 0.263574 0.276228 0.929127
O O6 0.241660 0.182657 0.884426
O O7 0.256235 0.283295 0.833906
O O8 0.000000 0.250278 0.879790
O O9 0.269101 0.670426 0.519330
O O10 0.000000 0.679674 0.466489
O O11 0.500000 0.467957 0.045129
O O12 0.232731 0.418240 0.068362
O O13 0.235557 0.500000 0.000000
O O14 0.500000 0.152190 0.930743
O O15 0.240222 0.157657 0.250000
O O16 0.500000 0.160749 0.193754
#
# Coordination Sequence:
#
# PCOD9475427 Si02
#       6
#    16  16  16  16  16  16
#     4   9  16  30  51  73  98 128 165 202 237 287
#     4   9  17  30  47  70 100 127 158 198 240 287
#     4   8  15  27  44  66  94 129 160 191 231 279
#     4  11  22  33  46  68  99 134 169 204 242 288
#     4  11  20  30  46  67  97 134 169 197 232 284
#     4   8  15  30  55  81 100 123 157 200 251 299
#
# _framework density 17.918706
#
# number of rings (size 3 to 8) (size 9 to 14) (size 15 to 20)
#    0.000    2.667    1.667    3.500    0.000    0.667 
#    0.000    4.167    0.000    3.000    0.000    0.000 
#    0.000    0.000    0.000    0.000    0.000    0.000 
#
# Total GULP energy -267468.060782 kJ/mol
# GULP energy per Si atom -5572.251266 kJ/mol
# Density = 1.787792 g / cm^3
# Si number density = 17.918706 Si / 1000 Ang^3
#
#
#
# Elastic Constant Matrix: (Units=GPa)
#
#
# Indices 1 2 3 4 5 6 
#
# 1 11.7709 -4.0131 4.6010 0.0000 0.0000 0.0000
# 2 -4.0131 92.3903 52.0164 0.0000 0.0000 0.0000
# 3 4.6010 52.0164 105.0291 0.0000 0.0000 0.0000
# 4 0.0000 0.0000 0.0000 11.0023 0.0000 0.0000
# 5 0.0000 0.0000 0.0000 0.0000 8.4391 0.0000
# 6 0.0000 0.0000 0.0000 0.0000 0.0000 12.4643
#
#
#
# Elastic Compliance Matrix: (Units=1/GPa)
#
#
# Indices 1 2 3 4 5 6 
#
# 1 0.091114 0.008604 -0.008253 0.000000 0.000000 0.000000
# 2 0.008604 0.015821 -0.008212 0.000000 0.000000 0.000000
# 3 -0.008253 -0.008212 0.013950 0.000000 0.000000 0.000000
# 4 0.000000 0.000000 0.000000 0.090890 0.000000 0.000000
# 5 0.000000 0.000000 0.000000 0.000000 0.118496 0.000000
# 6 0.000000 0.000000 0.000000 0.000000 0.000000 0.080229
#
#
# Mechanical properties :
#
#
# Convention : Reuss Voigt Hill
#
# Bulk Modulus (GPa) = 9.50905 34.93320 22.22112
# Shear Modulus (GPa) = 10.83948 16.82021 13.82985
#
# Velocity S-wave (km/s) = 2.46219 3.06714 2.78116
# Velocity P-wave (km/s) = 3.66080 5.66399 4.76877
#
# Compressibility (1/GPa) = 0.10516298
#
# Stress axis : x y z
#
# Youngs Moduli (GPa) = 10.97526 63.20711 71.68494
#
# Poissons Ratio (x) = -0.54383 0.59158
# Poissons Ratio (y) = -0.09443 0.58870
# Poissons Ratio (z) = 0.09057 0.51908
#
# Static dielectric constant tensor:
#      x y z
#    x 1.624750 0.000000 0.000000 
#    y 0.000000 1.630580 0.000000 
#    z 0.000000 0.000000 1.617900 
# 
# From -- ./inp_files/67002.got.cif
#   From: 2010.05.17/outbox.cif.g08.bks.cpg/sg63_34_cif.got.tgz:67002.got - 2010.06.03 15:47:04.
