data_PCOD9475155
_publ_section_title
;
Structure prediction by ZEFSAII (Michael W. Deem and Ramdas Pophale) SiO2 
 PCOD9475155
Probable space group: C M C M
;
_chemical_formula_sum "Si O2"
_cell_formula_units_Z 52
_cell_length_a 7.510957
_cell_length_b 20.816466
_cell_length_c 15.384096
_cell_angle_alpha 90.000000
_cell_angle_beta 90.000000
_cell_angle_gamma 90.000000
_cell_volume 2405.327732
_symmetry_space_group_name_H-M "C M C M"
_symmetry_group_IT_number 63
_symmetry_cell_setting 'orthorhombic'
loop_
_space_group_symop_operation_xyz
x,y,z
-x,-y,1/2+z
x,-y,-z
-x,y,1/2-z
-x,-y,-z
x,y,1/2-z
-x,y,z
x,-y,1/2+z
1/2+x,1/2+y,z
1/2-x,1/2-y,1/2+z
1/2+x,1/2-y,-z
1/2-x,1/2+y,1/2-z
1/2-x,1/2-y,-z
1/2+x,1/2+y,1/2-z
1/2-x,1/2+y,z
1/2+x,1/2-y,1/2+z
loop_
_atom_site_type_symbol
_atom_site_label
_atom_site_fract_x
_atom_site_fract_y
_atom_site_fract_z
Si Si1 0.714816 0.445278 0.565019
Si Si2 0.500000 0.124119 0.750000
Si Si3 0.693951 0.266433 0.250000
Si Si4 0.287657 0.302047 0.925992
Si Si5 0.713163 0.507829 0.750000
O O1 0.783914 0.500000 0.500000
O O2 0.500000 0.443678 0.553710
O O3 0.779263 0.372975 0.548404
O O4 0.748998 0.466552 0.663483
O O5 0.653748 0.180743 0.750000
O O6 0.342371 0.068543 0.750000
O O7 0.500000 0.298033 0.250000
O O8 0.710736 0.222648 0.164554
O O9 0.500000 0.306267 0.914447
O O10 0.250000 0.250000 0.000000
O O11 0.500000 0.523897 0.750000
#
# Coordination Sequence:
#
# PCOD9475155 Si02
#       5
#    16   4   8  16   8
#     4   9  20  39  67  98 135 178 220 274 342 404
#     4  12  26  44  70 106 130 170 240 280 344 406
#     4  12  26  46  69  98 141 186 228 287 345 406
#     4  11  23  43  69 103 142 185 233 284 343 413
#     4  10  22  44  69  96 135 178 216 277 345 408
#
# _framework density 21.618676000000001
#
# number of rings (size 3 to 8) (size 9 to 14) (size 15 to 20)
#    0.000    1.538    1.538    2.308    4.308    2.462 
#    8.308    0.769    0.000    0.000    0.000    0.000 
#    0.000    0.000    0.000    0.000    0.000    0.000 
#
# Total GULP energy -144882.058655 kJ/mol
# GULP energy per Si atom -5572.386871 kJ/mol
# Density = 2.156947 g / cm^3
# Si number density = 21.618676 Si / 1000 Ang^3
#
#
#
# Elastic Constant Matrix: (Units=GPa)
#
#
# Indices 1 2 3 4 5 6 
#
# 1 129.5085 45.6705 13.3124 0.0000 0.0000 0.0000
# 2 45.6705 240.5023 95.5938 0.0000 0.0000 0.0000
# 3 13.3124 95.5938 158.5507 0.0000 0.0000 0.0000
# 4 0.0000 0.0000 0.0000 -6.8597 0.0000 0.0000
# 5 0.0000 0.0000 0.0000 0.0000 9.7564 0.0000
# 6 0.0000 0.0000 0.0000 0.0000 0.0000 1.4402
#
#
#
# Elastic Compliance Matrix: (Units=1/GPa)
#
#
# Indices 1 2 3 4 5 6 
#
# 1 0.008289 -0.001706 0.000333 0.000000 0.000000 0.000000
# 2 -0.001706 0.005820 -0.003366 0.000000 0.000000 0.000000
# 3 0.000333 -0.003366 0.008308 0.000000 0.000000 0.000000
# 4 0.000000 0.000000 0.000000 -0.145780 0.000000 0.000000
# 5 0.000000 0.000000 0.000000 0.000000 0.102497 0.000000
# 6 0.000000 0.000000 0.000000 0.000000 0.000000 0.694371
#
#
# Mechanical properties :
#
#
# Convention : Reuss Voigt Hill
#
# Bulk Modulus (GPa) = 77.28620 93.07943 85.18282
# Shear Modulus (GPa) = 7.27488 25.79970 16.53729
#
# Velocity S-wave (km/s) = 1.83641 3.45831 2.76878
# Velocity P-wave (km/s) = 6.35011 7.68733 7.05050
#
# Compressibility (1/GPa) = 0.01293892
#
# Stress axis : x y z
#
# Youngs Moduli (GPa) = 120.64152 171.82944 120.36060
#
# Poissons Ratio (x) = 0.29320 -0.04006
# Poissons Ratio (y) = 0.20586 0.40508
# Poissons Ratio (z) = -0.04015 0.57830
#
# Static dielectric constant tensor:
#      x y z
#    x 1.806680 0.000000 0.000000 
#    y 0.000000 1.757260 0.000000 
#    z 0.000000 0.000000 1.734290 
# 
# From -- ./inp_files/27182.got.cif
#   From: 2010.05.17/outbox.cif.g08.bks.cpg/sg63_14_cif.got.tgz:27182.got - 2010.06.03 15:47:04.
