data_PCOD9475532
_publ_section_title
;
Structure prediction by ZEFSAII (Michael W. Deem and Ramdas Pophale) SiO2 
 PCOD9475532
Probable space group: C M C M
;
_chemical_formula_sum "Si O2"
_cell_formula_units_Z 80
_cell_length_a 27.510000
_cell_length_b 18.557051
_cell_length_c 8.502007
_cell_angle_alpha 90.000000
_cell_angle_beta 90.000000
_cell_angle_gamma 90.000000
_cell_volume 4340.312603
_symmetry_space_group_name_H-M "C M C M"
_symmetry_group_IT_number 63
_symmetry_cell_setting 'orthorhombic'
loop_
_space_group_symop_operation_xyz
x,y,z
-x,-y,1/2+z
x,-y,-z
-x,y,1/2-z
-x,-y,-z
x,y,1/2-z
-x,y,z
x,-y,1/2+z
1/2+x,1/2+y,z
1/2-x,1/2-y,1/2+z
1/2+x,1/2-y,-z
1/2-x,1/2+y,1/2-z
1/2-x,1/2-y,-z
1/2+x,1/2+y,1/2-z
1/2-x,1/2+y,z
1/2+x,1/2-y,1/2+z
loop_
_atom_site_type_symbol
_atom_site_label
_atom_site_fract_x
_atom_site_fract_y
_atom_site_fract_z
Si Si1 0.552119 0.417451 0.559885
Si Si2 0.155056 0.582100 0.562845
Si Si3 0.052945 0.417534 0.938674
Si Si4 0.247536 0.330965 0.560998
Si Si5 0.342217 0.581794 0.440189
O O1 0.552150 0.500000 0.500000
O O2 0.551974 0.417823 0.750000
O O3 0.500000 0.385181 0.507831
O O4 0.604733 0.387741 0.509539
O O5 0.159232 0.500000 0.500000
O O6 0.155892 0.579740 0.750000
O O7 0.102828 0.613248 0.507518
O O8 0.199797 0.628404 0.499983
O O9 0.056267 0.418373 0.750000
O O10 0.000000 0.385561 0.982870
O O11 0.052086 0.500000 0.000000
O O12 0.246857 0.331441 0.750000
O O13 0.250000 0.250000 0.500000
O O14 0.296048 0.372766 0.506187
O O15 0.338137 0.500000 0.500000
O O16 0.341566 0.580330 0.250000
#
# Coordination Sequence:
#
# PCOD9475532 Si02
#       5
#    16  16  16  16  16
#     4   8  13  23  41  67  97 124 150 185 231 281
#     4  11  21  34  54  79 106 136 172 213 257 307
#     4   9  16  27  46  74 106 136 166 204 251 301
#     4  11  23  38  53  71  98 133 174 217 263 313
#     4   9  18  31  50  75 100 127 161 200 242 293
#
# _framework density 18.431851999999999
#
# number of rings (size 3 to 8) (size 9 to 14) (size 15 to 20)
#    0.000    2.400    0.000    4.800    0.000    4.400 
#    0.000    0.000    0.000    1.200    0.000    2.800 
#    0.000    0.000    0.000    0.000    0.000    0.000 
#
# Total GULP energy -222852.560425 kJ/mol
# GULP energy per Si atom -5571.314011 kJ/mol
# Density = 1.838990 g / cm^3
# Si number density = 18.431852 Si / 1000 Ang^3
#
#
#
# Elastic Constant Matrix: (Units=GPa)
#
#
# Indices 1 2 3 4 5 6 
#
# 1 252.1809 70.3968 48.2378 0.0000 0.0000 0.0000
# 2 70.3968 53.8458 17.6844 0.0000 0.0000 0.0000
# 3 48.2378 17.6844 62.5598 0.0000 0.0000 0.0000
# 4 0.0000 0.0000 0.0000 19.5045 0.0000 0.0000
# 5 0.0000 0.0000 0.0000 0.0000 23.4520 0.0000
# 6 0.0000 0.0000 0.0000 0.0000 0.0000 -5.1570
#
#
#
# Elastic Compliance Matrix: (Units=1/GPa)
#
#
# Indices 1 2 3 4 5 6 
#
# 1 0.006710 -0.007797 -0.002970 0.000000 0.000000 0.000000
# 2 -0.007797 0.029533 -0.002336 0.000000 0.000000 0.000000
# 3 -0.002970 -0.002336 0.018935 0.000000 0.000000 0.000000
# 4 0.000000 0.000000 0.000000 0.051270 0.000000 0.000000
# 5 0.000000 0.000000 0.000000 0.000000 0.042640 0.000000
# 6 0.000000 0.000000 0.000000 0.000000 0.000000 -0.193911
#
#
# Mechanical properties :
#
#
# Convention : Reuss Voigt Hill
#
# Bulk Modulus (GPa) = 34.51667 71.24716 52.88191
# Shear Modulus (GPa) = -558.06567 23.04441 -267.51063
#
# Velocity S-wave (km/s) = -17.41923 3.53972 -12.06027
# Velocity P-wave (km/s) = 19.64194 7.44610 12.85226
#
# Compressibility (1/GPa) = 0.02897151
#
# Stress axis : x y z
#
# Youngs Moduli (GPa) = 149.02890 33.86064 52.81231
#
# Poissons Ratio (x) = 0.26402 0.15684
# Poissons Ratio (y) = 1.16202 0.12338
# Poissons Ratio (z) = 0.44259 0.07910
#
# Static dielectric constant tensor:
#      x y z
#    x 1.720380 0.000000 0.000000 
#    y 0.000000 1.582560 0.000000 
#    z 0.000000 0.000000 1.616640 
# 
# From -- ./inp_files/12057.got.cif
#   From: 2010.05.17/outbox.cif.g08.bks.cpg/sg63_7_cif.got.tgz:12057.got - 2010.06.03 15:47:04.
