data_PCOD9475363
_publ_section_title
;
Structure prediction by ZEFSAII (Michael W. Deem and Ramdas Pophale) SiO2 
 PCOD9475363
Probable space group: C M C M
;
_chemical_formula_sum "Si O2"
_cell_formula_units_Z 60
_cell_length_a 26.610818
_cell_length_b 5.061583
_cell_length_c 20.996958
_cell_angle_alpha 90.000000
_cell_angle_beta 90.000000
_cell_angle_gamma 90.000000
_cell_volume 2828.140408
_symmetry_space_group_name_H-M "C M C M"
_symmetry_group_IT_number 63
_symmetry_cell_setting 'orthorhombic'
loop_
_space_group_symop_operation_xyz
x,y,z
-x,-y,1/2+z
x,-y,-z
-x,y,1/2-z
-x,-y,-z
x,y,1/2-z
-x,y,z
x,-y,1/2+z
1/2+x,1/2+y,z
1/2-x,1/2-y,1/2+z
1/2+x,1/2-y,-z
1/2-x,1/2+y,1/2-z
1/2-x,1/2-y,-z
1/2+x,1/2+y,1/2-z
1/2-x,1/2+y,z
1/2+x,1/2-y,1/2+z
loop_
_atom_site_type_symbol
_atom_site_label
_atom_site_fract_x
_atom_site_fract_y
_atom_site_fract_z
Si Si1 0.500000 0.991347 0.250000
Si Si2 0.416584 0.910004 0.360282
Si Si3 0.213067 0.000000 0.000000
Si Si4 0.282881 0.361242 0.250000
Si Si5 0.850153 0.916618 0.370955
Si Si6 0.500000 0.749715 0.455958
O O1 0.455641 0.983000 0.304931
O O2 0.376679 0.681485 0.344127
O O3 0.450522 0.770237 0.413539
O O4 0.389326 0.177672 0.382494
O O5 0.179121 0.985486 0.063873
O O6 0.250000 0.750000 0.000000
O O7 0.236777 0.159696 0.250000
O O8 0.314125 0.316517 0.314436
O O9 0.500000 0.500000 0.500000
O O10 0.500000 0.000000 0.500000
#
# Coordination Sequence:
#
# PCOD9475363 Si02
#       6
#     4  16   8   8  16   8
#     4  10  24  48  68 100 146 176 226 276 360 394
#     4  11  25  42  69  99 133 181 221 282 329 409
#     4  12  26  46  68  97 140 183 224 288 356 408
#     4  12  24  43  68  97 134 173 226 289 349 402
#     4  12  25  43  70 101 134 177 237 280 342 417
#     4  11  24  41  64  93 138 172 220 267 325 387
#
# _framework density 21.215354000000001
#
# number of rings (size 3 to 8) (size 9 to 14) (size 15 to 20)
#    0.000    0.533    0.000    8.000    5.600    4.267 
#    0.000    0.000    0.000    0.000    0.000    0.000 
#    0.000    0.000    0.000    0.000    0.000    0.000 
#
# Total GULP energy -167316.986284 kJ/mol
# GULP energy per Si atom -5577.232876 kJ/mol
# Density = 2.116707 g / cm^3
# Si number density = 21.215354 Si / 1000 Ang^3
#
#
#
# Elastic Constant Matrix: (Units=GPa)
#
#
# Indices 1 2 3 4 5 6 
#
# 1 123.9219 47.8328 66.5934 0.0000 0.0000 0.0000
# 2 47.8328 132.1830 22.1445 0.0000 0.0000 0.0000
# 3 66.5934 22.1445 149.7745 0.0000 0.0000 0.0000
# 4 0.0000 0.0000 0.0000 17.1251 0.0000 0.0000
# 5 0.0000 0.0000 0.0000 0.0000 345.4631 0.0000
# 6 0.0000 0.0000 0.0000 0.0000 0.0000 40.8871
#
#
#
# Elastic Compliance Matrix: (Units=1/GPa)
#
#
# Indices 1 2 3 4 5 6 
#
# 1 0.012031 -0.003545 -0.004825 0.000000 0.000000 0.000000
# 2 -0.003545 0.008802 0.000275 0.000000 0.000000 0.000000
# 3 -0.004825 0.000275 0.008781 0.000000 0.000000 0.000000
# 4 0.000000 0.000000 0.000000 0.058394 0.000000 0.000000
# 5 0.000000 0.000000 0.000000 0.000000 0.002895 0.000000
# 6 0.000000 0.000000 0.000000 0.000000 0.000000 0.024458
#
#
# Mechanical properties :
#
#
# Convention : Reuss Voigt Hill
#
# Bulk Modulus (GPa) = 74.49575 75.44678 74.97126
# Shear Modulus (GPa) = 36.75771 98.64898 67.70335
#
# Velocity S-wave (km/s) = 4.16697 6.82641 5.65524
# Velocity P-wave (km/s) = 7.63818 9.88800 8.83500
#
# Compressibility (1/GPa) = 0.01342359
#
# Stress axis : x y z
#
# Youngs Moduli (GPa) = 83.11893 113.60879 113.87697
#
# Poissons Ratio (x) = 0.40277 0.54947
# Poissons Ratio (y) = 0.29468 -0.03130
# Poissons Ratio (z) = 0.40106 -0.03123
#
# Static dielectric constant tensor:
#      x y z
#    x 1.680340 0.000000 0.000000 
#    y 0.000000 1.722960 0.000000 
#    z 0.000000 0.000000 1.769740 
# 
# From -- ./inp_files/57163.got.cif
#   From: 2010.05.17/outbox.cif.g08.bks.cpg/sg63_29_cif.got.tgz:57163.got - 2010.06.03 15:47:04.
