data_PCOD9475630
_publ_section_title
;
Structure prediction by ZEFSAII (Michael W. Deem and Ramdas Pophale) SiO2 
 PCOD9475630
Probable space group: C M C M
;
_chemical_formula_sum "Si O2"
_cell_formula_units_Z 96
_cell_length_a 8.756697
_cell_length_b 20.304993
_cell_length_c 29.622912
_cell_angle_alpha 90.000000
_cell_angle_beta 90.000000
_cell_angle_gamma 90.000000
_cell_volume 5267.092131
_symmetry_space_group_name_H-M "C M C M"
_symmetry_group_IT_number 63
_symmetry_cell_setting 'orthorhombic'
loop_
_space_group_symop_operation_xyz
x,y,z
-x,-y,1/2+z
x,-y,-z
-x,y,1/2-z
-x,-y,-z
x,y,1/2-z
-x,y,z
x,-y,1/2+z
1/2+x,1/2+y,z
1/2-x,1/2-y,1/2+z
1/2+x,1/2-y,-z
1/2-x,1/2+y,1/2-z
1/2-x,1/2-y,-z
1/2+x,1/2+y,1/2-z
1/2-x,1/2+y,z
1/2+x,1/2-y,1/2+z
loop_
_atom_site_type_symbol
_atom_site_label
_atom_site_fract_x
_atom_site_fract_y
_atom_site_fract_z
Si Si1 0.818554 0.395633 0.196464
Si Si2 0.821867 0.437383 0.467003
Si Si3 0.682412 0.507800 0.875229
Si Si4 0.686225 0.745520 0.301756
Si Si5 0.817466 0.183640 0.020512
Si Si6 0.686194 0.355689 0.878635
O O1 0.797198 0.404576 0.250000
O O2 0.731395 0.449749 0.167780
O O3 0.769686 0.320409 0.185763
O O4 0.000000 0.400674 0.187039
O O5 0.808481 0.500000 0.500000
O O6 0.755106 0.458330 0.419021
O O7 0.734035 0.377195 0.489713
O O8 0.000000 0.420046 0.462399
O O9 0.500000 0.507781 0.879970
O O10 0.733757 0.431555 0.872352
O O11 0.734706 0.732019 0.250000
O O12 0.500000 0.744954 0.301395
O O13 0.738065 0.692177 0.338316
O O14 0.765403 0.170064 0.072069
O O15 0.000000 0.187869 0.021066
O O16 0.750000 0.250000 0.000000
O O17 0.500000 0.354921 0.878109
#
# Coordination Sequence:
#
# PCOD9475630 Si02
#       6
#    16  16  16  16  16  16
#     4   9  19  36  58  84 114 149 191 239 288 343
#     4  11  23  40  61  83 112 155 200 240 288 348
#     4  11  22  36  57  86 117 151 188 238 297 346
#     4   8  15  31  55  80 107 143 187 230 275 335
#     4  11  23  39  58  85 120 153 192 240 290 348
#     4   9  19  34  53  80 114 148 185 233 286 336
#
# _framework density 18.226375999999998
#
# number of rings (size 3 to 8) (size 9 to 14) (size 15 to 20)
#    0.000    2.167    1.667    2.500    2.333    1.667 
#    0.000    1.667    0.000    2.000    0.000    0.000 
#    0.000    0.000    0.000    0.000    0.000    0.000 
#
# Total GULP energy -267948.891338 kJ/mol
# GULP energy per Si atom -5582.268570 kJ/mol
# Density = 1.818489 g / cm^3
# Si number density = 18.226376 Si / 1000 Ang^3
#
#
#
# Elastic Constant Matrix: (Units=GPa)
#
#
# Indices 1 2 3 4 5 6 
#
# 1 36.8160 32.6430 27.1967 0.0000 0.0000 0.0000
# 2 32.6430 145.1002 89.8191 0.0000 0.0000 0.0000
# 3 27.1967 89.8191 91.1545 0.0000 0.0000 0.0000
# 4 0.0000 0.0000 0.0000 38.8665 0.0000 0.0000
# 5 0.0000 0.0000 0.0000 0.0000 20.5646 0.0000
# 6 0.0000 0.0000 0.0000 0.0000 0.0000 24.9447
#
#
#
# Elastic Compliance Matrix: (Units=1/GPa)
#
#
# Indices 1 2 3 4 5 6 
#
# 1 0.035590 -0.003675 -0.006997 0.000000 0.000000 0.000000
# 2 -0.003675 0.018048 -0.016687 0.000000 0.000000 0.000000
# 3 -0.006997 -0.016687 0.029501 0.000000 0.000000 0.000000
# 4 0.000000 0.000000 0.000000 0.025729 0.000000 0.000000
# 5 0.000000 0.000000 0.000000 0.000000 0.048627 0.000000
# 6 0.000000 0.000000 0.000000 0.000000 0.000000 0.040089
#
#
# Mechanical properties :
#
#
# Convention : Reuss Voigt Hill
#
# Bulk Modulus (GPa) = 35.18705 63.59869 49.39287
# Shear Modulus (GPa) = 19.10025 25.10261 22.10143
#
# Velocity S-wave (km/s) = 3.24071 3.71518 3.48603
# Velocity P-wave (km/s) = 5.77498 7.30568 6.58496
#
# Compressibility (1/GPa) = 0.02841955
#
# Stress axis : x y z
#
# Youngs Moduli (GPa) = 28.09802 55.40673 33.89725
#
# Poissons Ratio (x) = 0.20364 0.23718
# Poissons Ratio (y) = 0.10327 0.56566
# Poissons Ratio (z) = 0.19660 0.92459
#
# Static dielectric constant tensor:
#      x y z
#    x 1.621060 0.000000 0.000000 
#    y 0.000000 1.613470 0.000000 
#    z 0.000000 0.000000 1.535510 
# 
# From -- ./inp_files/66933.got.cif
#   From: 2010.05.17/outbox.cif.g08.bks.cpg/sg63_34_cif.got.tgz:66933.got - 2010.06.03 15:47:04.
