data_PCOD9475889
_publ_section_title
;
Structure prediction by ZEFSAII (Michael W. Deem and Ramdas Pophale) SiO2 
 PCOD9475889
Probable space group: C M C M
;
_chemical_formula_sum "Si O2"
_cell_formula_units_Z 116
_cell_length_a 22.829276
_cell_length_b 7.711389
_cell_length_c 30.989134
_cell_angle_alpha 90.000000
_cell_angle_beta 90.000000
_cell_angle_gamma 90.000000
_cell_volume 5455.495353
_symmetry_space_group_name_H-M "C M C M"
_symmetry_group_IT_number 63
_symmetry_cell_setting 'orthorhombic'
loop_
_space_group_symop_operation_xyz
x,y,z
-x,-y,1/2+z
x,-y,-z
-x,y,1/2-z
-x,-y,-z
x,y,1/2-z
-x,y,z
x,-y,1/2+z
1/2+x,1/2+y,z
1/2-x,1/2-y,1/2+z
1/2+x,1/2-y,-z
1/2-x,1/2+y,1/2-z
1/2-x,1/2-y,-z
1/2+x,1/2+y,1/2-z
1/2-x,1/2+y,z
1/2+x,1/2-y,1/2+z
loop_
_atom_site_type_symbol
_atom_site_label
_atom_site_fract_x
_atom_site_fract_y
_atom_site_fract_z
Si Si1 0.389516 0.908026 0.122773
Si Si2 0.227035 0.780876 0.907408
Si Si3 0.500000 0.446392 0.750000
Si Si4 0.065560 0.231383 0.589344
Si Si5 0.690777 0.510170 0.795718
Si Si6 0.419585 0.565060 0.338105
Si Si7 0.308098 0.122343 0.325535
Si Si8 0.680073 0.599013 0.544961
O O1 0.328130 0.848517 0.099656
O O2 0.429408 0.743322 0.135271
O O3 0.422615 0.065844 0.099410
O O4 0.363778 0.006805 0.164443
O O5 0.273611 0.801302 0.867979
O O6 0.267585 0.735154 0.948533
O O7 0.197571 0.962643 0.917990
O O8 0.549958 0.445645 0.790640
O O9 0.000000 0.209035 0.572188
O O10 0.069445 0.104643 0.631992
O O11 0.117077 0.174552 0.557326
O O12 0.678634 0.428785 0.750000
O O13 0.649973 0.420047 0.830055
O O14 0.675111 0.711395 0.798133
O O15 0.758973 0.493623 0.803908
O O16 0.678353 0.500000 0.500000
#
# Coordination Sequence:
#
# PCOD9475889 Si02
#       8
#    16  16   4  16  16  16  16  16
#     4  12  24  41  71 100 135 178 236 278 342 430
#     4  12  20  40  71 105 138 176 222 280 357 427
#     4  12  28  48  70  96 130 180 252 304 334 390
#     4  12  26  46  72  98 134 193 240 277 345 418
#     4  12  22  36  58  93 136 172 215 280 346 403
#     4  12  24  46  68  93 132 180 231 295 343 392
#     4  12  20  37  64  95 133 176 218 267 344 430
#     4  12  24  42  71 110 146 177 224 290 352 423
#
# _framework density 21.262964
#
# number of rings (size 3 to 8) (size 9 to 14) (size 15 to 20)
#    0.000    0.000    9.655    0.828    0.966    0.276 
#    2.483    1.379    0.000    0.828    0.000    0.000 
#    0.000    0.000    0.000    0.000    0.000    0.000 
#
# Total GULP energy -323002.210947 kJ/mol
# GULP energy per Si atom -5569.003637 kJ/mol
# Density = 2.121457 g / cm^3
# Si number density = 21.262964 Si / 1000 Ang^3
#
#
#
# Elastic Constant Matrix: (Units=GPa)
#
#
# Indices 1 2 3 4 5 6 
#
# 1 84.3378 4.4267 6.2072 0.0000 0.0000 0.0000
# 2 4.4267 82.1027 -5.3375 0.0000 0.0000 0.0000
# 3 6.2072 -5.3375 62.0728 0.0000 0.0000 0.0000
# 4 0.0000 0.0000 0.0000 11.1000 0.0000 0.0000
# 5 0.0000 0.0000 0.0000 0.0000 36.3362 0.0000
# 6 0.0000 0.0000 0.0000 0.0000 0.0000 7.0773
#
#
#
# Elastic Compliance Matrix: (Units=1/GPa)
#
#
# Indices 1 2 3 4 5 6 
#
# 1 0.011988 -0.000728 -0.001261 0.000000 0.000000 0.000000
# 2 -0.000728 0.012293 0.001130 0.000000 0.000000 0.000000
# 3 -0.001261 0.001130 0.016333 0.000000 0.000000 0.000000
# 4 0.000000 0.000000 0.000000 0.090090 0.000000 0.000000
# 5 0.000000 0.000000 0.000000 0.000000 0.027521 0.000000
# 6 0.000000 0.000000 0.000000 0.000000 0.000000 0.141296
#
#
# Mechanical properties :
#
#
# Convention : Reuss Voigt Hill
#
# Bulk Modulus (GPa) = 25.71076 26.56736 26.13906
# Shear Modulus (GPa) = 15.91314 25.78383 20.84849
#
# Velocity S-wave (km/s) = 2.73865 3.48604 3.13470
# Velocity P-wave (km/s) = 4.70301 5.35958 5.04200
#
# Compressibility (1/GPa) = 0.03889422
#
# Stress axis : x y z
#
# Youngs Moduli (GPa) = 83.41571 81.34987 61.22423
#
# Poissons Ratio (x) = 0.05925 0.07723
# Poissons Ratio (y) = 0.06076 -0.06917
# Poissons Ratio (z) = 0.10522 -0.09191
#
# Static dielectric constant tensor:
#      x y z
#    x 1.822390 0.000000 0.000000 
#    y 0.000000 1.848710 0.000000 
#    z 0.000000 0.000000 1.846320 
# 
# From -- ./inp_files/74339.got.cif
#   From: 2010.05.17/outbox.cif.g08.bks.cpg/sg63_38_cif.got.tgz:74339.got - 2010.06.03 15:47:04.
