data_PCOD9475128
_publ_section_title
;
Structure prediction by ZEFSAII (Michael W. Deem and Ramdas Pophale) SiO2 
 PCOD9475128
Probable space group: C M C M
;
_chemical_formula_sum "Si O2"
_cell_formula_units_Z 64
_cell_length_a 15.940318
_cell_length_b 11.801505
_cell_length_c 15.528802
_cell_angle_alpha 90.000000
_cell_angle_beta 90.000000
_cell_angle_gamma 90.000000
_cell_volume 2921.274235
_symmetry_space_group_name_H-M "C M C M"
_symmetry_group_IT_number 63
_symmetry_cell_setting 'orthorhombic'
loop_
_space_group_symop_operation_xyz
x,y,z
-x,-y,1/2+z
x,-y,-z
-x,y,1/2-z
-x,-y,-z
x,y,1/2-z
-x,y,z
x,-y,1/2+z
1/2+x,1/2+y,z
1/2-x,1/2-y,1/2+z
1/2+x,1/2-y,-z
1/2-x,1/2+y,1/2-z
1/2-x,1/2-y,-z
1/2+x,1/2+y,1/2-z
1/2-x,1/2+y,z
1/2+x,1/2-y,1/2+z
loop_
_atom_site_type_symbol
_atom_site_label
_atom_site_fract_x
_atom_site_fract_y
_atom_site_fract_z
Si Si1 0.141783 0.270350 0.853306
Si Si2 0.828752 0.794195 0.849131
Si Si3 0.500000 0.944501 0.593471
Si Si4 0.500000 0.807967 0.151285
Si Si5 0.405498 0.516233 0.897608
O O1 0.142679 0.288143 0.750000
O O2 0.237336 0.272250 0.887311
O O3 0.107552 0.145602 0.872764
O O4 0.080951 0.365754 0.891485
O O5 0.824922 0.753682 0.750000
O O6 0.912540 0.737224 0.889243
O O7 0.843766 0.928575 0.852539
O O8 0.500000 0.000000 0.500000
O O9 0.500000 0.056458 0.652240
O O10 0.500000 0.764732 0.250000
O O11 0.500000 0.482737 0.873058
O O12 0.396474 0.500000 0.000000
#
# Coordination Sequence:
#
# PCOD9475128 Si02
#       5
#    16  16   8   8  16
#     4  11  25  45  68  98 134 180 227 273 334 407
#     4  10  23  41  68  97 129 173 226 277 332 396
#     4  12  28  43  67  94 135 178 218 277 335 405
#     4  10  22  43  65  91 130 174 218 274 329 393
#     4  11  24  41  68  97 134 172 222 280 336 396
#
# _framework density 21.908246999999999
#
# number of rings (size 3 to 8) (size 9 to 14) (size 15 to 20)
#    0.000    1.250    2.500    1.875    7.000    3.000 
#    0.000    0.000    0.000    0.000    0.000    0.000 
#    0.000    0.000    0.000    0.000    0.000    0.000 
#
# Total GULP energy -178865.512757 kJ/mol
# GULP energy per Si atom -5589.547274 kJ/mol
# Density = 2.185838 g / cm^3
# Si number density = 21.908247 Si / 1000 Ang^3
#
#
#
# Elastic Constant Matrix: (Units=GPa)
#
#
# Indices 1 2 3 4 5 6 
#
# 1 161.1568 34.0351 18.0947 0.0000 0.0000 0.0000
# 2 34.0351 99.1297 -0.6072 0.0000 0.0000 0.0000
# 3 18.0947 -0.6072 58.6141 0.0000 0.0000 0.0000
# 4 0.0000 0.0000 0.0000 36.0870 0.0000 0.0000
# 5 0.0000 0.0000 0.0000 0.0000 2.6937 0.0000
# 6 0.0000 0.0000 0.0000 0.0000 0.0000 -4.4535
#
#
#
# Elastic Compliance Matrix: (Units=1/GPa)
#
#
# Indices 1 2 3 4 5 6 
#
# 1 0.006956 -0.002402 -0.002172 0.000000 0.000000 0.000000
# 2 -0.002402 0.010918 0.000855 0.000000 0.000000 0.000000
# 3 -0.002172 0.000855 0.017740 0.000000 0.000000 0.000000
# 4 0.000000 0.000000 0.000000 0.027711 0.000000 0.000000
# 5 0.000000 0.000000 0.000000 0.000000 0.371236 0.000000
# 6 0.000000 0.000000 0.000000 0.000000 0.000000 -0.224542
#
#
# Mechanical properties :
#
#
# Convention : Reuss Voigt Hill
#
# Bulk Modulus (GPa) = 35.49228 46.88285 41.18757
# Shear Modulus (GPa) = 22.04105 24.69063 23.36584
#
# Velocity S-wave (km/s) = 3.17529 3.36073 3.26932
# Velocity P-wave (km/s) = 5.44783 6.04197 5.75258
#
# Compressibility (1/GPa) = 0.02817514
#
# Stress axis : x y z
#
# Youngs Moduli (GPa) = 143.75545 91.59509 56.36906
#
# Poissons Ratio (x) = 0.21998 0.12245
# Poissons Ratio (y) = 0.34525 -0.04817
# Poissons Ratio (z) = 0.31229 -0.07827
#
# Static dielectric constant tensor:
#      x y z
#    x 1.824780 0.000000 0.000000 
#    y 0.000000 1.732150 0.000000 
#    z 0.000000 0.000000 1.918770 
# 
# From -- ./inp_files/43493.got.cif
#   From: 2010.05.17/outbox.cif.g08.bks.cpg/sg63_22_cif.got.tgz:43493.got - 2010.06.03 15:47:04.
