data_PCOD9475798
_publ_section_title
;
Structure prediction by ZEFSAII (Michael W. Deem and Ramdas Pophale) SiO2 
 PCOD9475798
Probable space group: C M C M
;
_chemical_formula_sum "Si O2"
_cell_formula_units_Z 80
_cell_length_a 8.019862
_cell_length_b 25.507848
_cell_length_c 20.964135
_cell_angle_alpha 90.000000
_cell_angle_beta 90.000000
_cell_angle_gamma 90.000000
_cell_volume 4288.620956
_symmetry_space_group_name_H-M "C M C M"
_symmetry_group_IT_number 63
_symmetry_cell_setting 'orthorhombic'
loop_
_space_group_symop_operation_xyz
x,y,z
-x,-y,1/2+z
x,-y,-z
-x,y,1/2-z
-x,-y,-z
x,y,1/2-z
-x,y,z
x,-y,1/2+z
1/2+x,1/2+y,z
1/2-x,1/2-y,1/2+z
1/2+x,1/2-y,-z
1/2-x,1/2+y,1/2-z
1/2-x,1/2-y,-z
1/2+x,1/2+y,1/2-z
1/2-x,1/2+y,z
1/2+x,1/2-y,1/2+z
loop_
_atom_site_type_symbol
_atom_site_label
_atom_site_fract_x
_atom_site_fract_y
_atom_site_fract_z
Si Si1 0.500000 0.550712 0.675565
Si Si2 0.000000 0.167767 0.826737
Si Si3 0.198961 0.744993 0.674475
Si Si4 0.301860 0.085375 0.013906
Si Si5 0.196563 0.201876 0.454704
Si Si6 0.701120 0.008274 0.602573
O O1 0.500000 0.558032 0.750000
O O2 0.500000 0.609402 0.646260
O O3 0.330168 0.521230 0.657568
O O4 0.828815 0.198504 0.842200
O O5 0.000000 0.166020 0.750000
O O6 0.223971 0.758989 0.750000
O O7 0.242009 0.787692 0.619840
O O8 0.000000 0.731752 0.668150
O O9 0.500000 0.085030 0.014666
O O10 0.250298 0.145263 0.019951
O O11 0.251885 0.048010 0.072611
O O12 0.258345 0.052544 0.950810
O O13 0.250000 0.250000 0.500000
O O14 0.000000 0.202085 0.456323
O O15 0.500000 0.009917 0.615452
#
# Coordination Sequence:
#
# PCOD9475798 Si02
#       6
#     8   8  16  16  16  16
#     4  11  24  37  59  93 117 150 201 246 292 349
#     4   9  20  36  57  81 113 154 191 236 286 341
#     4   9  20  39  57  78 114 159 198 229 287 362
#     4   9  20  39  60  85 113 152 197 238 297 355
#     4  11  24  35  56  90 122 152 190 252 300 339
#     4   9  21  40  62  83 115 156 194 241 293 358
#
# _framework density 18.654015000000001
#
# number of rings (size 3 to 8) (size 9 to 14) (size 15 to 20)
#    0.000    2.400    0.000    1.800    8.400    2.000 
#    0.000    3.000    0.000    1.200    0.000    0.000 
#    0.000    0.000    0.000    0.000    0.000    0.000 
#
# Total GULP energy -222696.551750 kJ/mol
# GULP energy per Si atom -5567.413794 kJ/mol
# Density = 1.861156 g / cm^3
# Si number density = 18.654015 Si / 1000 Ang^3
#
#
#
# Elastic Constant Matrix: (Units=GPa)
#
#
# Indices 1 2 3 4 5 6 
#
# 1 33.4525 17.1228 16.2037 0.0000 0.0000 0.0000
# 2 17.1228 126.4685 36.5222 0.0000 0.0000 0.0000
# 3 16.2037 36.5222 52.8881 0.0000 0.0000 0.0000
# 4 0.0000 0.0000 0.0000 20.8535 0.0000 0.0000
# 5 0.0000 0.0000 0.0000 0.0000 61.6266 0.0000
# 6 0.0000 0.0000 0.0000 0.0000 0.0000 63.1194
#
#
#
# Elastic Compliance Matrix: (Units=1/GPa)
#
#
# Indices 1 2 3 4 5 6 
#
# 1 0.035536 -0.002082 -0.009449 0.000000 0.000000 0.000000
# 2 -0.002082 0.009999 -0.006267 0.000000 0.000000 0.000000
# 3 -0.009449 -0.006267 0.026130 0.000000 0.000000 0.000000
# 4 0.000000 0.000000 0.000000 0.047954 0.000000 0.000000
# 5 0.000000 0.000000 0.000000 0.000000 0.016227 0.000000
# 6 0.000000 0.000000 0.000000 0.000000 0.000000 0.015843
#
#
# Mechanical properties :
#
#
# Convention : Reuss Voigt Hill
#
# Bulk Modulus (GPa) = 27.72520 39.16738 33.44629
# Shear Modulus (GPa) = 25.08674 38.65061 31.86867
#
# Velocity S-wave (km/s) = 3.67119 4.55683 4.13777
# Velocity P-wave (km/s) = 5.73283 6.98059 6.38725
#
# Compressibility (1/GPa) = 0.03606826
#
# Stress axis : x y z
#
# Youngs Moduli (GPa) = 28.14036 100.01212 38.26958
#
# Poissons Ratio (x) = 0.20827 0.36162
# Poissons Ratio (y) = 0.05860 0.23982
# Poissons Ratio (z) = 0.26591 0.62675
#
# Static dielectric constant tensor:
#      x y z
#    x 1.650210 0.000000 0.000000 
#    y 0.000000 1.618600 0.000000 
#    z 0.000000 0.000000 1.690860 
# 
# From -- ./inp_files/59489.got.cif
#   From: 2010.05.17/outbox.cif.g08.bks.cpg/sg63_30_cif.got.tgz:59489.got - 2010.06.03 15:47:04.
