data_PCOD9475156
_publ_section_title
;
Structure prediction by ZEFSAII (Michael W. Deem and Ramdas Pophale) SiO2 
 PCOD9475156
Probable space group: C M C M
;
_chemical_formula_sum "Si O2"
_cell_formula_units_Z 88
_cell_length_a 9.452316
_cell_length_b 23.672077
_cell_length_c 18.897393
_cell_angle_alpha 90.000000
_cell_angle_beta 90.000000
_cell_angle_gamma 90.000000
_cell_volume 4228.404164
_symmetry_space_group_name_H-M "C M C M"
_symmetry_group_IT_number 63
_symmetry_cell_setting 'orthorhombic'
loop_
_space_group_symop_operation_xyz
x,y,z
-x,-y,1/2+z
x,-y,-z
-x,y,1/2-z
-x,-y,-z
x,y,1/2-z
-x,y,z
x,-y,1/2+z
1/2+x,1/2+y,z
1/2-x,1/2-y,1/2+z
1/2+x,1/2-y,-z
1/2-x,1/2+y,1/2-z
1/2-x,1/2-y,-z
1/2+x,1/2+y,1/2-z
1/2-x,1/2+y,z
1/2+x,1/2-y,1/2+z
loop_
_atom_site_type_symbol
_atom_site_label
_atom_site_fract_x
_atom_site_fract_y
_atom_site_fract_z
Si Si1 0.668137 0.919174 0.619867
Si Si2 0.837937 0.845773 0.358876
Si Si3 0.331663 0.229066 0.750000
Si Si4 0.837154 0.458099 0.333325
Si Si5 0.831899 0.863011 0.750000
Si Si6 0.500000 0.747030 0.467316
Si Si7 0.257659 0.673939 0.482362
O O1 0.500000 0.912090 0.632578
O O2 0.756634 0.890757 0.682469
O O3 0.711094 0.885624 0.549647
O O4 0.695144 0.986233 0.621497
O O5 0.741558 0.801150 0.316986
O O6 0.767940 0.906630 0.346159
O O7 0.834145 0.833496 0.442119
O O8 0.000000 0.843232 0.334625
O O9 0.500000 0.217441 0.750000
O O10 0.308135 0.295674 0.750000
O O11 0.830688 0.473787 0.250000
O O12 0.000000 0.439909 0.347716
O O13 0.000000 0.873768 0.750000
O O14 0.374059 0.705809 0.435431
O O15 0.622412 0.787589 0.503009
#
# Coordination Sequence:
#
# PCOD9475156 Si02
#       7
#    16  16   8  16   8   8  16
#     4  11  24  45  69  98 131 176 226 273 329 396
#     4  12  26  44  66  99 133 173 222 276 334 393
#     4  11  27  42  65  96 133 172 224 275 328 399
#     4  10  22  44  70  93 129 178 223 272 331 394
#     4  11  27  40  65 100 135 170 220 277 334 393
#     4  10  24  44  66  94 146 176 218 262 340 402
#     4  11  25  42  69 102 131 182 220 273 330 396
#
# _framework density 20.811633
#
# number of rings (size 3 to 8) (size 9 to 14) (size 15 to 20)
#    0.000    1.091    3.636    1.091    8.909    2.909 
#    0.000    2.727    0.000    0.000    0.000    0.000 
#    0.000    0.000    0.000    0.000    0.000    0.000 
#
# Total GULP energy -245063.390505 kJ/mol
# GULP energy per Si atom -5569.622511 kJ/mol
# Density = 2.076427 g / cm^3
# Si number density = 20.811633 Si / 1000 Ang^3
#
#
#
# Elastic Constant Matrix: (Units=GPa)
#
#
# Indices 1 2 3 4 5 6 
#
# 1 162.5366 63.3182 8.6201 0.0000 0.0000 0.0000
# 2 63.3182 89.4700 8.3539 0.0000 0.0000 0.0000
# 3 8.6201 8.3539 48.4353 0.0000 0.0000 0.0000
# 4 0.0000 0.0000 0.0000 21.8083 0.0000 0.0000
# 5 0.0000 0.0000 0.0000 0.0000 12.3193 0.0000
# 6 0.0000 0.0000 0.0000 0.0000 0.0000 10.2155
#
#
#
# Elastic Compliance Matrix: (Units=1/GPa)
#
#
# Indices 1 2 3 4 5 6 
#
# 1 0.008505 -0.005974 -0.000483 0.000000 0.000000 0.000000
# 2 -0.005974 0.015556 -0.001620 0.000000 0.000000 0.000000
# 3 -0.000483 -0.001620 0.021011 0.000000 0.000000 0.000000
# 4 0.000000 0.000000 0.000000 0.045854 0.000000 0.000000
# 5 0.000000 0.000000 0.000000 0.000000 0.081173 0.000000
# 6 0.000000 0.000000 0.000000 0.000000 0.000000 0.097891
#
#
# Mechanical properties :
#
#
# Convention : Reuss Voigt Hill
#
# Bulk Modulus (GPa) = 34.58007 51.22514 42.90260
# Shear Modulus (GPa) = 16.90418 23.54528 20.22473
#
# Velocity S-wave (km/s) = 2.85309 3.36721 3.12075
# Velocity P-wave (km/s) = 5.24455 6.30750 5.80042
#
# Compressibility (1/GPa) = 0.02891839
#
# Stress axis : x y z
#
# Youngs Moduli (GPa) = 117.57230 64.28343 47.59301
#
# Poissons Ratio (x) = 0.38404 0.02300
# Poissons Ratio (y) = 0.70240 0.07709
# Poissons Ratio (z) = 0.05682 0.10413
#
# Static dielectric constant tensor:
#      x y z
#    x 1.703060 0.000000 0.000000 
#    y 0.000000 1.744370 0.000000 
#    z 0.000000 0.000000 1.817250 
# 
# From -- ./inp_files/51103.got.cif
#   From: 2010.05.17/outbox.cif.g08.bks.cpg/sg63_26_cif.got.tgz:51103.got - 2010.06.03 15:47:04.
