data_PCOD9475225
_publ_section_title
;
Structure prediction by ZEFSAII (Michael W. Deem and Ramdas Pophale) SiO2 
 PCOD9475225
Probable space group: C M C M
;
_chemical_formula_sum "Si O2"
_cell_formula_units_Z 36
_cell_length_a 19.251779
_cell_length_b 4.905441
_cell_length_c 15.173079
_cell_angle_alpha 90.000000
_cell_angle_beta 90.000000
_cell_angle_gamma 90.000000
_cell_volume 1432.922306
_symmetry_space_group_name_H-M "C M C M"
_symmetry_group_IT_number 63
_symmetry_cell_setting 'orthorhombic'
loop_
_space_group_symop_operation_xyz
x,y,z
-x,-y,1/2+z
x,-y,-z
-x,y,1/2-z
-x,-y,-z
x,y,1/2-z
-x,y,z
x,-y,1/2+z
1/2+x,1/2+y,z
1/2-x,1/2-y,1/2+z
1/2+x,1/2-y,-z
1/2-x,1/2+y,1/2-z
1/2-x,1/2-y,-z
1/2+x,1/2+y,1/2-z
1/2-x,1/2+y,z
1/2+x,1/2-y,1/2+z
loop_
_atom_site_type_symbol
_atom_site_label
_atom_site_fract_x
_atom_site_fract_y
_atom_site_fract_z
Si Si1 0.797123 0.769966 0.347229
Si Si2 0.500000 0.250936 0.612921
Si Si3 0.000000 0.250136 0.750000
Si Si4 0.114611 0.500000 0.500000
O O1 0.831322 0.724591 0.250000
O O2 0.727816 0.581262 0.349953
O O3 0.840920 0.664803 0.428300
O O4 0.500000 0.514633 0.672533
O O5 0.433021 0.214056 0.551724
O O6 0.500000 0.987288 0.674404
#
# Coordination Sequence:
#
# PCOD9475225 Si02
#       4
#    16   8   4   8
#     4  10  23  42  65 100 136 175 221 271 334 391
#     4  10  26  44  69 103 134 171 235 260 355 387
#     4  10  24  48  64  94 142 178 212 284 320 416
#     4  11  24  44  72 104 130 181 220 288 316 413
#
# _framework density 25.123481000000002
#
# number of rings (size 3 to 8) (size 9 to 14) (size 15 to 20)
#    0.000    1.778    0.000    1.333    6.222   10.667 
#    8.000    0.000    0.000    0.000    0.000    0.000 
#    0.000    0.000    0.000    0.000    0.000    0.000 
#
# Total GULP energy -100524.267200 kJ/mol
# GULP energy per Si atom -5584.681511 kJ/mol
# Density = 2.506630 g / cm^3
# Si number density = 25.123481 Si / 1000 Ang^3
#
#
#
# Elastic Constant Matrix: (Units=GPa)
#
#
# Indices 1 2 3 4 5 6 
#
# 1 51.1394 6.1996 71.0616 0.0000 0.0000 0.0000
# 2 6.1996 183.1801 49.9746 0.0000 0.0000 0.0000
# 3 71.0616 49.9746 221.3635 0.0000 0.0000 0.0000
# 4 0.0000 0.0000 0.0000 71.1242 0.0000 0.0000
# 5 0.0000 0.0000 0.0000 0.0000 4.9043 0.0000
# 6 0.0000 0.0000 0.0000 0.0000 0.0000 -7.1131
#
#
#
# Elastic Compliance Matrix: (Units=1/GPa)
#
#
# Indices 1 2 3 4 5 6 
#
# 1 0.036018 0.002062 -0.012028 0.000000 0.000000 0.000000
# 2 0.002062 0.005936 -0.002002 0.000000 0.000000 0.000000
# 3 -0.012028 -0.002002 0.008831 0.000000 0.000000 0.000000
# 4 0.000000 0.000000 0.000000 0.014060 0.000000 0.000000
# 5 0.000000 0.000000 0.000000 0.000000 0.203904 0.000000
# 6 0.000000 0.000000 0.000000 0.000000 0.000000 -0.140586
#
#
# Mechanical properties :
#
#
# Convention : Reuss Voigt Hill
#
# Bulk Modulus (GPa) = 37.24543 78.90608 58.07576
# Shear Modulus (GPa) = 31.04670 35.67954 33.36312
#
# Velocity S-wave (km/s) = 3.51916 3.77260 3.64808
# Velocity P-wave (km/s) = 5.60087 7.10297 6.39617
#
# Compressibility (1/GPa) = 0.02684893
#
# Stress axis : x y z
#
# Youngs Moduli (GPa) = 27.76375 168.47765 113.24162
#
# Poissons Ratio (x) = -0.34748 1.36208
# Poissons Ratio (y) = -0.05726 0.22672
# Poissons Ratio (z) = 0.33395 0.33730
#
# Static dielectric constant tensor:
#      x y z
#    x 2.103150 0.000000 0.000000 
#    y 0.000000 1.864040 0.000000 
#    z 0.000000 0.000000 1.934540 
# 
# From -- ./inp_files/34583.got.cif
#   From: 2010.05.17/outbox.cif.g08.bks.cpg/sg63_18_cif.got.tgz:34583.got - 2010.06.03 15:47:04.
