data_PCOD9475492
_publ_section_title
;
Structure prediction by ZEFSAII (Michael W. Deem and Ramdas Pophale) SiO2 
 PCOD9475492
Probable space group: C M C M
;
_chemical_formula_sum "Si O2"
_cell_formula_units_Z 96
_cell_length_a 23.718285
_cell_length_b 13.737701
_cell_length_c 19.560727
_cell_angle_alpha 90.000000
_cell_angle_beta 90.000000
_cell_angle_gamma 90.000000
_cell_volume 6373.563762
_symmetry_space_group_name_H-M "C M C M"
_symmetry_group_IT_number 63
_symmetry_cell_setting 'orthorhombic'
loop_
_space_group_symop_operation_xyz
x,y,z
-x,-y,1/2+z
x,-y,-z
-x,y,1/2-z
-x,-y,-z
x,y,1/2-z
-x,y,z
x,-y,1/2+z
1/2+x,1/2+y,z
1/2-x,1/2-y,1/2+z
1/2+x,1/2-y,-z
1/2-x,1/2+y,1/2-z
1/2-x,1/2-y,-z
1/2+x,1/2+y,1/2-z
1/2-x,1/2+y,z
1/2+x,1/2-y,1/2+z
loop_
_atom_site_type_symbol
_atom_site_label
_atom_site_fract_x
_atom_site_fract_y
_atom_site_fract_z
Si Si1 0.677321 0.623884 0.327827
Si Si2 0.228908 0.475515 0.579349
Si Si3 0.286167 0.809583 0.399776
Si Si4 0.564635 0.348869 0.453253
Si Si5 0.828605 0.721633 0.447303
Si Si6 0.564691 0.437151 0.894684
O O1 0.691152 0.599188 0.250000
O O2 0.716992 0.564598 0.380478
O O3 0.690513 0.736963 0.343108
O O4 0.612741 0.600239 0.344725
O O5 0.243496 0.500000 0.500000
O O6 0.207131 0.575898 0.611231
O O7 0.183497 0.388201 0.577731
O O8 0.220021 0.787181 0.412636
O O9 0.315831 0.780463 0.471464
O O10 0.500000 0.316446 0.443777
O O11 0.610849 0.268491 0.435559
O O12 0.571121 0.382079 0.532418
O O13 0.572826 0.448221 0.410484
O O14 0.500000 0.422941 0.871855
#
# Coordination Sequence:
#
# PCOD9475492 Si02
#       6
#    16  16  16  16  16  16
#     4  11  21  30  46  70  97 128 161 197 237 286
#     4   9  19  31  50  71  93 129 159 196 239 287
#     4   9  17  29  44  64  92 122 153 190 234 289
#     4   9  16  27  48  73  95 120 157 202 241 279
#     4   9  15  27  48  69  87 118 157 191 234 285
#     4   9  18  29  44  67  96 129 159 193 239 285
#
# _framework density 15.062217
#
# number of rings (size 3 to 8) (size 9 to 14) (size 15 to 20)
#    0.000    2.667    1.667    3.000    2.333    1.000 
#    0.000    0.000    0.000    5.500    0.000    0.000 
#    0.000    0.000    0.000    0.000    0.000    0.000 
#
# Total GULP energy -267426.301180 kJ/mol
# GULP energy per Si atom -5571.381275 kJ/mol
# Density = 1.502793 g / cm^3
# Si number density = 15.062217 Si / 1000 Ang^3
#
#
#
# Elastic Constant Matrix: (Units=GPa)
#
#
# Indices 1 2 3 4 5 6 
#
# 1 110.6909 65.9441 28.5584 0.0000 0.0000 0.0000
# 2 65.9441 97.4868 25.6259 0.0000 0.0000 0.0000
# 3 28.5584 25.6259 35.6264 0.0000 0.0000 0.0000
# 4 0.0000 0.0000 0.0000 10.7355 0.0000 0.0000
# 5 0.0000 0.0000 0.0000 0.0000 8.8852 0.0000
# 6 0.0000 0.0000 0.0000 0.0000 0.0000 23.2248
#
#
#
# Elastic Compliance Matrix: (Units=1/GPa)
#
#
# Indices 1 2 3 4 5 6 
#
# 1 0.016201 -0.009305 -0.006294 0.000000 0.000000 0.000000
# 2 -0.009305 0.017993 -0.005484 0.000000 0.000000 0.000000
# 3 -0.006294 -0.005484 0.037059 0.000000 0.000000 0.000000
# 4 0.000000 0.000000 0.000000 0.093149 0.000000 0.000000
# 5 0.000000 0.000000 0.000000 0.000000 0.112547 0.000000
# 6 0.000000 0.000000 0.000000 0.000000 0.000000 0.043057
#
#
# Mechanical properties :
#
#
# Convention : Reuss Voigt Hill
#
# Bulk Modulus (GPa) = 34.37823 53.78453 44.08138
# Shear Modulus (GPa) = 13.44559 16.81414 15.12986
#
# Velocity S-wave (km/s) = 2.99100 3.34475 3.17281
# Velocity P-wave (km/s) = 5.89931 7.12055 6.53850
#
# Compressibility (1/GPa) = 0.02908818
#
# Stress axis : x y z
#
# Youngs Moduli (GPa) = 61.72308 55.57590 26.98392
#
# Poissons Ratio (x) = 0.51712 0.16985
# Poissons Ratio (y) = 0.57432 0.14797
# Poissons Ratio (z) = 0.38850 0.30477
#
# Static dielectric constant tensor:
#      x y z
#    x 1.486680 0.000000 0.000000 
#    y 0.000000 1.510060 0.000000 
#    z 0.000000 0.000000 1.495560 
# 
# From -- ./inp_files/56696.got.cif
#   From: 2010.05.17/outbox.cif.g08.bks.cpg/sg63_29_cif.got.tgz:56696.got - 2010.06.03 15:47:04.
