data_PCOD9475744
_publ_section_title
;
Structure prediction by ZEFSAII (Michael W. Deem and Ramdas Pophale) SiO2 
 PCOD9475744
Probable space group: C M C M
;
_chemical_formula_sum "Si O2"
_cell_formula_units_Z 64
_cell_length_a 16.302294
_cell_length_b 17.351579
_cell_length_c 10.354180
_cell_angle_alpha 90.000000
_cell_angle_beta 90.000000
_cell_angle_gamma 90.000000
_cell_volume 2928.892511
_symmetry_space_group_name_H-M "C M C M"
_symmetry_group_IT_number 63
_symmetry_cell_setting 'orthorhombic'
loop_
_space_group_symop_operation_xyz
x,y,z
-x,-y,1/2+z
x,-y,-z
-x,y,1/2-z
-x,-y,-z
x,y,1/2-z
-x,y,z
x,-y,1/2+z
1/2+x,1/2+y,z
1/2-x,1/2-y,1/2+z
1/2+x,1/2-y,-z
1/2-x,1/2+y,1/2-z
1/2-x,1/2-y,-z
1/2+x,1/2+y,1/2-z
1/2-x,1/2+y,z
1/2+x,1/2-y,1/2+z
loop_
_atom_site_type_symbol
_atom_site_label
_atom_site_fract_x
_atom_site_fract_y
_atom_site_fract_z
Si Si1 0.500000 0.696409 0.750000
Si Si2 0.500000 0.203443 0.750000
Si Si3 0.697590 0.583587 0.021598
Si Si4 0.500000 0.177542 0.044259
Si Si5 0.804965 0.166845 0.750000
Si Si6 0.621386 0.052787 0.387868
Si Si7 0.666705 0.300988 0.750000
O O1 0.500000 0.740111 0.611064
O O2 0.405354 0.665972 0.750000
O O3 0.500000 0.166061 0.891520
O O4 0.585760 0.249312 0.750000
O O5 0.716280 0.622217 0.882989
O O6 0.654385 0.500000 0.000000
O O7 0.782706 0.562265 0.091429
O O8 0.661165 0.645563 0.121596
O O9 0.420975 0.134776 0.101010
O O10 0.749650 0.246422 0.750000
O O11 0.603650 0.017274 0.250000
O O12 0.588867 0.000000 0.500000
#
# Coordination Sequence:
#
# PCOD9475744 Si02
#       7
#     4   4  16   8   8  16   8
#     4  12  24  44  68  96 132 176 234 272 352 416
#     4  12  28  40  68  98 132 182 234 280 338 410
#     4  11  24  43  69  97 134 178 229 285 345 403
#     4  12  23  42  61  94 138 176 216 284 345 409
#     4  12  25  43  72 101 134 183 229 286 346 410
#     4  11  23  39  65  96 133 176 223 274 342 422
#     4  12  23  47  66 101 138 177 231 288 342 406
#
# _framework density 21.851261999999998
#
# number of rings (size 3 to 8) (size 9 to 14) (size 15 to 20)
#    0.000    0.500    2.500    6.375    7.000    0.000 
#    0.000    3.750    0.000    0.000    0.000    0.000 
#    0.000    0.000    0.000    0.000    0.000    0.000 
#
# Total GULP energy -178477.365878 kJ/mol
# GULP energy per Si atom -5577.417684 kJ/mol
# Density = 2.180153 g / cm^3
# Si number density = 21.851262 Si / 1000 Ang^3
#
#
#
# Elastic Constant Matrix: (Units=GPa)
#
#
# Indices 1 2 3 4 5 6 
#
# 1 78.3650 4.1405 -1.1015 0.0000 0.0000 0.0000
# 2 4.1405 71.4008 44.4346 0.0000 0.0000 0.0000
# 3 -1.1015 44.4346 221.7088 0.0000 0.0000 0.0000
# 4 0.0000 0.0000 0.0000 48.6309 0.0000 0.0000
# 5 0.0000 0.0000 0.0000 0.0000 78.9129 0.0000
# 6 0.0000 0.0000 0.0000 0.0000 0.0000 6.3601
#
#
#
# Elastic Compliance Matrix: (Units=1/GPa)
#
#
# Indices 1 2 3 4 5 6 
#
# 1 0.012811 -0.000894 0.000243 0.000000 0.000000 0.000000
# 2 -0.000894 0.016064 -0.003224 0.000000 0.000000 0.000000
# 3 0.000243 -0.003224 0.005158 0.000000 0.000000 0.000000
# 4 0.000000 0.000000 0.000000 0.020563 0.000000 0.000000
# 5 0.000000 0.000000 0.000000 0.000000 0.012672 0.000000
# 6 0.000000 0.000000 0.000000 0.000000 0.000000 0.157229
#
#
# Mechanical properties :
#
#
# Convention : Reuss Voigt Hill
#
# Bulk Modulus (GPa) = 38.04801 51.82466 44.93633
# Shear Modulus (GPa) = 20.74617 48.38083 34.56350
#
# Velocity S-wave (km/s) = 3.08462 4.71052 3.98145
# Velocity P-wave (km/s) = 5.48968 7.30437 6.46105
#
# Compressibility (1/GPa) = 0.02628258
#
# Stress axis : x y z
#
# Youngs Moduli (GPa) = 78.05515 62.25253 193.88274
#
# Poissons Ratio (x) = 0.05566 -0.04708
# Poissons Ratio (y) = 0.06979 0.62506
# Poissons Ratio (z) = -0.01895 0.20070
#
# Static dielectric constant tensor:
#      x y z
#    x 1.843500 0.000000 0.000000 
#    y 0.000000 1.875650 0.000000 
#    z 0.000000 0.000000 2.072500 
# 
# From -- ./inp_files/7586.got.cif
#   From: 2010.05.17/outbox.cif.g08.bks.cpg/sg63_4_cif.got.tgz:7586.got - 2010.06.03 15:47:04.
