data_PCOD9475163
_publ_section_title
;
Structure prediction by ZEFSAII (Michael W. Deem and Ramdas Pophale) SiO2 
 PCOD9475163
Probable space group: C M C M
;
_chemical_formula_sum "Si O2"
_cell_formula_units_Z 68
_cell_length_a 22.464799
_cell_length_b 10.494591
_cell_length_c 12.574631
_cell_angle_alpha 90.000000
_cell_angle_beta 90.000000
_cell_angle_gamma 90.000000
_cell_volume 2964.580888
_symmetry_space_group_name_H-M "C M C M"
_symmetry_group_IT_number 63
_symmetry_cell_setting 'orthorhombic'
loop_
_space_group_symop_operation_xyz
x,y,z
-x,-y,1/2+z
x,-y,-z
-x,y,1/2-z
-x,-y,-z
x,y,1/2-z
-x,y,z
x,-y,1/2+z
1/2+x,1/2+y,z
1/2-x,1/2-y,1/2+z
1/2+x,1/2-y,-z
1/2-x,1/2+y,1/2-z
1/2-x,1/2-y,-z
1/2+x,1/2+y,1/2-z
1/2-x,1/2+y,z
1/2+x,1/2-y,1/2+z
loop_
_atom_site_type_symbol
_atom_site_label
_atom_site_fract_x
_atom_site_fract_y
_atom_site_fract_z
Si Si1 0.215311 0.221324 0.878120
Si Si2 0.435243 0.663707 0.373525
Si Si3 0.500000 0.125332 0.250000
Si Si4 0.905097 0.636964 0.052987
Si Si5 0.692475 0.565433 0.122891
O O1 0.213713 0.217098 0.750000
O O2 0.156336 0.296527 0.912761
O O3 0.273230 0.304604 0.906966
O O4 0.214680 0.073373 0.912560
O O5 0.430038 0.709614 0.250000
O O6 0.500000 0.598885 0.381759
O O7 0.432321 0.776261 0.458665
O O8 0.378203 0.576935 0.394904
O O9 0.448152 0.127016 0.154856
O O10 0.894091 0.500000 0.000000
O O11 0.700205 0.562587 0.250000
#
# Coordination Sequence:
#
# PCOD9475163 Si02
#       5
#    16  16   4  16  16
#     4  10  22  45  72 109 148 197 254 308 379 443
#     4  10  23  44  70 105 147 195 249 306 371 445
#     4  12  26  52  70 106 154 200 250 314 364 470
#     4  12  27  44  74 107 145 200 247 313 375 442
#     4   9  21  43  73 109 152 199 251 313 373 442
#
# _framework density 22.937476
#
# number of rings (size 3 to 8) (size 9 to 14) (size 15 to 20)
#    0.000    1.647    2.353    0.353    4.941    1.882 
#    2.118    1.176    0.000    0.000    0.000    1.647 
#    0.000    0.000    0.000    0.000    0.000    0.000 
#
# Total GULP energy -189598.138590 kJ/mol
# GULP energy per Si atom -5576.415841 kJ/mol
# Density = 2.288527 g / cm^3
# Si number density = 22.937476 Si / 1000 Ang^3
#
#
#
# Elastic Constant Matrix: (Units=GPa)
#
#
# Indices 1 2 3 4 5 6 
#
# 1 162.9597 91.6464 32.9491 0.0000 0.0000 0.0000
# 2 91.6464 160.1943 81.8066 0.0000 0.0000 0.0000
# 3 32.9491 81.8066 147.1115 0.0000 0.0000 0.0000
# 4 0.0000 0.0000 0.0000 41.4677 0.0000 0.0000
# 5 0.0000 0.0000 0.0000 0.0000 42.7531 0.0000
# 6 0.0000 0.0000 0.0000 0.0000 0.0000 3.6836
#
#
#
# Elastic Compliance Matrix: (Units=1/GPa)
#
#
# Indices 1 2 3 4 5 6 
#
# 1 0.009199 -0.005880 0.001210 0.000000 0.000000 0.000000
# 2 -0.005880 0.012477 -0.005621 0.000000 0.000000 0.000000
# 3 0.001210 -0.005621 0.009653 0.000000 0.000000 0.000000
# 4 0.000000 0.000000 0.000000 0.024115 0.000000 0.000000
# 5 0.000000 0.000000 0.000000 0.000000 0.023390 0.000000
# 6 0.000000 0.000000 0.000000 0.000000 0.000000 0.271476
#
#
# Mechanical properties :
#
#
# Convention : Reuss Voigt Hill
#
# Bulk Modulus (GPa) = 93.06995 98.11888 95.59441
# Shear Modulus (GPa) = 13.35199 35.17177 24.26188
#
# Velocity S-wave (km/s) = 2.41530 3.92008 3.25582
# Velocity P-wave (km/s) = 6.96002 7.95983 7.47666
#
# Compressibility (1/GPa) = 0.01074461
#
# Stress axis : x y z
#
# Youngs Moduli (GPa) = 108.70768 80.14576 103.59925
#
# Poissons Ratio (x) = 0.47129 -0.12532
# Poissons Ratio (y) = 0.63925 0.58237
# Poissons Ratio (z) = -0.13150 0.45053
#
# Static dielectric constant tensor:
#      x y z
#    x 1.828630 0.000000 0.000000 
#    y 0.000000 1.827250 0.000000 
#    z 0.000000 0.000000 1.933330 
# 
# From -- ./inp_files/19179.got.cif
#   From: 2010.05.17/outbox.cif.g08.bks.cpg/sg63_10_cif.got.tgz:19179.got - 2010.06.03 15:47:04.
