data_PCOD9475942
_publ_section_title
;
Structure prediction by ZEFSAII (Michael W. Deem and Ramdas Pophale) SiO2 
 PCOD9475942
Probable space group: C M C M
;
_chemical_formula_sum "Si O2"
_cell_formula_units_Z 80
_cell_length_a 7.443959
_cell_length_b 27.082171
_cell_length_c 20.186438
_cell_angle_alpha 90.000000
_cell_angle_beta 90.000000
_cell_angle_gamma 90.000000
_cell_volume 4069.557045
_symmetry_space_group_name_H-M "C M C M"
_symmetry_group_IT_number 63
_symmetry_cell_setting 'orthorhombic'
loop_
_space_group_symop_operation_xyz
x,y,z
-x,-y,1/2+z
x,-y,-z
-x,y,1/2-z
-x,-y,-z
x,y,1/2-z
-x,y,z
x,-y,1/2+z
1/2+x,1/2+y,z
1/2-x,1/2-y,1/2+z
1/2+x,1/2-y,-z
1/2-x,1/2+y,1/2-z
1/2-x,1/2-y,-z
1/2+x,1/2+y,1/2-z
1/2-x,1/2+y,z
1/2+x,1/2-y,1/2+z
loop_
_atom_site_type_symbol
_atom_site_label
_atom_site_fract_x
_atom_site_fract_y
_atom_site_fract_z
Si Si1 0.285432 0.946050 0.574425
Si Si2 0.779808 0.356649 0.326608
Si Si3 0.792131 0.751363 0.669374
Si Si4 0.785039 0.858092 0.825033
Si Si5 0.719524 0.056778 0.923715
O O1 0.500000 0.949766 0.569726
O O2 0.246779 0.903231 0.626218
O O3 0.222592 0.934623 0.499721
O O4 0.222631 0.001004 0.594280
O O5 0.727433 0.364338 0.250000
O O6 0.716391 0.302135 0.349252
O O7 0.720400 0.400786 0.373852
O O8 0.000000 0.355388 0.327105
O O9 0.791025 0.751746 0.750000
O O10 0.713974 0.804671 0.650322
O O11 0.000000 0.750776 0.647358
O O12 0.718835 0.867552 0.750000
O O13 0.000000 0.852136 0.820376
O O14 0.500000 0.057773 0.922304
#
# Coordination Sequence:
#
# PCOD9475942 Si02
#       5
#    16  16  16  16  16
#     4   9  17  29  43  60  86 116 140 165 204 251
#     4   8  12  20  38  61  80 102 137 176 208 240
#     4   7  11  21  37  57  80 104 131 167 209 245
#     4   9  17  29  44  62  84 108 136 172 209 244
#     4   8  15  27  40  57  85 115 138 167 208 246
#
# _framework density 19.658158
#
# number of rings (size 3 to 8) (size 9 to 14) (size 15 to 20)
#    0.000    3.800    0.000    3.600    0.000    1.200 
#    0.000    5.000    0.000    0.000    0.000    1.400 
#    0.000    3.200    0.000    0.000    0.000    0.000 
#
# Total GULP energy -222699.162266 kJ/mol
# GULP energy per Si atom -5567.479057 kJ/mol
# Density = 1.961342 g / cm^3
# Si number density = 19.658158 Si / 1000 Ang^3
#
#
#
# Elastic Constant Matrix: (Units=GPa)
#
#
# Indices 1 2 3 4 5 6 
#
# 1 56.7527 6.8708 3.2551 0.0000 0.0000 0.0000
# 2 6.8708 252.2619 128.8563 0.0000 0.0000 0.0000
# 3 3.2551 128.8563 93.7279 0.0000 0.0000 0.0000
# 4 0.0000 0.0000 0.0000 -36.1989 0.0000 0.0000
# 5 0.0000 0.0000 0.0000 0.0000 6.4399 0.0000
# 6 0.0000 0.0000 0.0000 0.0000 0.0000 -17.9390
#
#
#
# Elastic Compliance Matrix: (Units=1/GPa)
#
#
# Indices 1 2 3 4 5 6 
#
# 1 0.017679 -0.000564 0.000161 0.000000 0.000000 0.000000
# 2 -0.000564 0.013332 -0.018309 0.000000 0.000000 0.000000
# 3 0.000161 -0.018309 0.035834 0.000000 0.000000 0.000000
# 4 0.000000 0.000000 0.000000 -0.027625 0.000000 0.000000
# 5 0.000000 0.000000 0.000000 0.000000 0.155283 0.000000
# 6 0.000000 0.000000 0.000000 0.000000 0.000000 -0.055745
#
#
# Mechanical properties :
#
#
# Convention : Reuss Voigt Hill
#
# Bulk Modulus (GPa) = 33.98757 75.63412 54.81084
# Shear Modulus (GPa) = 26.88348 8.04441 17.46394
#
# Velocity S-wave (km/s) = 3.70205 2.02510 2.98381
# Velocity P-wave (km/s) = 5.96661 6.63523 6.30978
#
# Compressibility (1/GPa) = 0.02942252
#
# Stress axis : x y z
#
# Youngs Moduli (GPa) = 56.56324 75.01000 27.90648
#
# Poissons Ratio (x) = 0.04230 -0.00450
# Poissons Ratio (y) = 0.03190 0.51093
# Poissons Ratio (z) = -0.00912 1.37332
#
# Static dielectric constant tensor:
#      x y z
#    x 1.769530 0.000000 0.000000 
#    y 0.000000 1.727330 0.000000 
#    z 0.000000 0.000000 1.650480 
# 
# From -- ./inp_files/40693.got.cif
#   From: 2010.05.17/outbox.cif.g08.bks.cpg/sg63_21_cif.got.tgz:40693.got - 2010.06.03 15:47:04.
