data_PCOD9475497
_publ_section_title
;
Structure prediction by ZEFSAII (Michael W. Deem and Ramdas Pophale) SiO2 
 PCOD9475497
Probable space group: C M C M
;
_chemical_formula_sum "Si O2"
_cell_formula_units_Z 80
_cell_length_a 26.509736
_cell_length_b 21.809259
_cell_length_c 9.635603
_cell_angle_alpha 90.000000
_cell_angle_beta 90.000000
_cell_angle_gamma 90.000000
_cell_volume 5570.898054
_symmetry_space_group_name_H-M "C M C M"
_symmetry_group_IT_number 63
_symmetry_cell_setting 'orthorhombic'
loop_
_space_group_symop_operation_xyz
x,y,z
-x,-y,1/2+z
x,-y,-z
-x,y,1/2-z
-x,-y,-z
x,y,1/2-z
-x,y,z
x,-y,1/2+z
1/2+x,1/2+y,z
1/2-x,1/2-y,1/2+z
1/2+x,1/2-y,-z
1/2-x,1/2+y,1/2-z
1/2-x,1/2-y,-z
1/2+x,1/2+y,1/2-z
1/2-x,1/2+y,z
1/2+x,1/2-y,1/2+z
loop_
_atom_site_type_symbol
_atom_site_label
_atom_site_fract_x
_atom_site_fract_y
_atom_site_fract_z
Si Si1 0.727157 0.936479 0.081878
Si Si2 0.559063 0.899441 0.250000
Si Si3 0.119795 0.619700 0.014146
Si Si4 0.219484 0.165878 0.091280
Si Si5 0.174614 0.739964 0.098051
Si Si6 0.560878 0.046174 0.250000
O O1 0.730653 0.941241 0.250000
O O2 0.671413 0.911887 0.039708
O O3 0.766679 0.888630 0.014486
O O4 0.733859 0.000000 0.000000
O O5 0.500000 0.890694 0.250000
O O6 0.584354 0.871083 0.383763
O O7 0.568590 0.973037 0.250000
O O8 0.135362 0.684907 0.077728
O O9 0.089366 0.576378 0.119619
O O10 0.208437 0.146455 0.250000
O O11 0.270986 0.205939 0.098554
O O12 0.177738 0.210142 0.023401
O O13 0.167855 0.768706 0.250000
O O14 0.500000 0.057310 0.250000
#
# Coordination Sequence:
#
# PCOD9475497 Si02
#       6
#    16   8  16  16  16   8
#     4  11  21  31  46  66  92 119 150 184 220 262
#     4  11  22  34  46  63  86 114 151 196 241 279
#     4  11  21  32  48  65  84 114 153 194 232 271
#     4   9  18  29  46  66  87 111 140 178 222 262
#     4   9  17  30  45  62  85 109 143 183 222 266
#     4  11  22  36  48  61  84 116 151 194 241 281
#
# _framework density 14.360341
#
# number of rings (size 3 to 8) (size 9 to 14) (size 15 to 20)
#    0.000    1.800    2.000    3.600    4.200    4.000 
#    0.000    0.000    0.000    0.000    0.000    0.000 
#    0.000    0.000    0.000    0.000    0.000    6.000 
#
# Total GULP energy -222940.793332 kJ/mol
# GULP energy per Si atom -5573.519833 kJ/mol
# Density = 1.432766 g / cm^3
# Si number density = 14.360341 Si / 1000 Ang^3
#
#
#
# Elastic Constant Matrix: (Units=GPa)
#
#
# Indices 1 2 3 4 5 6 
#
# 1 37.0876 21.9980 19.1298 0.0000 0.0000 0.0000
# 2 21.9980 49.5243 32.1092 0.0000 0.0000 0.0000
# 3 19.1298 32.1092 125.3485 0.0000 0.0000 0.0000
# 4 0.0000 0.0000 0.0000 28.0393 0.0000 0.0000
# 5 0.0000 0.0000 0.0000 0.0000 23.0498 0.0000
# 6 0.0000 0.0000 0.0000 0.0000 0.0000 20.1231
#
#
#
# Elastic Compliance Matrix: (Units=1/GPa)
#
#
# Indices 1 2 3 4 5 6 
#
# 1 0.036914 -0.015282 -0.001719 0.000000 0.000000 0.000000
# 2 -0.015282 0.030540 -0.005491 0.000000 0.000000 0.000000
# 3 -0.001719 -0.005491 0.009647 0.000000 0.000000 0.000000
# 4 0.000000 0.000000 0.000000 0.035664 0.000000 0.000000
# 5 0.000000 0.000000 0.000000 0.000000 0.043384 0.000000
# 6 0.000000 0.000000 0.000000 0.000000 0.000000 0.049694
#
#
# Mechanical properties :
#
#
# Convention : Reuss Voigt Hill
#
# Bulk Modulus (GPa) = 31.13617 39.82602 35.48109
# Shear Modulus (GPa) = 19.11798 23.49068 21.30433
#
# Velocity S-wave (km/s) = 3.65266 4.04889 3.85587
# Velocity P-wave (km/s) = 6.28636 7.04639 6.67720
#
# Compressibility (1/GPa) = 0.03211699
#
# Stress axis : x y z
#
# Youngs Moduli (GPa) = 27.08977 32.74358 103.66323
#
# Poissons Ratio (x) = 0.50040 0.17818
# Poissons Ratio (y) = 0.41400 0.56920
# Poissons Ratio (z) = 0.04656 0.17979
#
# Static dielectric constant tensor:
#      x y z
#    x 1.447180 0.000000 0.000000 
#    y 0.000000 1.471790 0.000000 
#    z 0.000000 0.000000 1.476390 
# 
# From -- ./inp_files/8078.got.cif
#   From: 2010.05.17/outbox.cif.g08.bks.cpg/sg63_5_cif.got.tgz:8078.got - 2010.06.03 15:47:04.
