data_PCOD9475401
_publ_section_title
;
Structure prediction by ZEFSAII (Michael W. Deem and Ramdas Pophale) SiO2 
 PCOD9475401
Probable space group: C M C M
;
_chemical_formula_sum "Si O2"
_cell_formula_units_Z 80
_cell_length_a 13.651821
_cell_length_b 19.979336
_cell_length_c 18.491033
_cell_angle_alpha 90.000000
_cell_angle_beta 90.000000
_cell_angle_gamma 90.000000
_cell_volume 5043.509109
_symmetry_space_group_name_H-M "C M C M"
_symmetry_group_IT_number 63
_symmetry_cell_setting 'orthorhombic'
loop_
_space_group_symop_operation_xyz
x,y,z
-x,-y,1/2+z
x,-y,-z
-x,y,1/2-z
-x,-y,-z
x,y,1/2-z
-x,y,z
x,-y,1/2+z
1/2+x,1/2+y,z
1/2-x,1/2-y,1/2+z
1/2+x,1/2-y,-z
1/2-x,1/2+y,1/2-z
1/2-x,1/2-y,-z
1/2+x,1/2+y,1/2-z
1/2-x,1/2+y,z
1/2+x,1/2-y,1/2+z
loop_
_atom_site_type_symbol
_atom_site_label
_atom_site_fract_x
_atom_site_fract_y
_atom_site_fract_z
Si Si1 0.613998 0.286101 0.666168
Si Si2 0.781490 0.304915 0.560006
Si Si3 0.616334 0.075064 0.975200
Si Si4 0.191419 0.634119 0.667533
Si Si5 0.111769 0.207682 0.665240
O O1 0.632695 0.304956 0.750000
O O2 0.500000 0.297006 0.650070
O O3 0.687150 0.320183 0.609810
O O4 0.638290 0.206636 0.661004
O O5 0.750000 0.250000 0.500000
O O6 0.826694 0.369066 0.521408
O O7 0.858691 0.268456 0.613130
O O8 0.500000 0.086182 0.982535
O O9 0.647588 0.086224 0.892308
O O10 0.638824 0.000000 0.000000
O O11 0.179469 0.611060 0.750000
O O12 0.305873 0.650974 0.653542
O O13 0.121725 0.227318 0.750000
O O14 0.000000 0.186638 0.652825
#
# Coordination Sequence:
#
# PCOD9475401 Si02
#       5
#    16  16  16  16  16
#     4   9  17  30  52  80 104 130 173 223 263 302
#     4  11  19  31  51  78 106 136 170 217 262 308
#     4  11  23  37  51  75 111 142 172 214 261 311
#     4   9  17  32  52  75 101 136 178 215 253 306
#     4   9  17  30  51  79 106 132 169 217 265 309
#
# _framework density 15.861972
#
# number of rings (size 3 to 8) (size 9 to 14) (size 15 to 20)
#    0.000    2.200    4.000    3.000    0.000    2.000 
#    0.000    2.000    0.000    4.800    0.000    2.800 
#    0.000    0.000    0.000    0.000    0.000    0.000 
#
# Total GULP energy -222964.278973 kJ/mol
# GULP energy per Si atom -5574.106974 kJ/mol
# Density = 1.582587 g / cm^3
# Si number density = 15.861972 Si / 1000 Ang^3
#
#
#
# Elastic Constant Matrix: (Units=GPa)
#
#
# Indices 1 2 3 4 5 6 
#
# 1 104.1111 49.5575 56.3002 0.0000 0.0000 0.0000
# 2 49.5575 84.1154 60.1988 0.0000 0.0000 0.0000
# 3 56.3002 60.1988 106.0295 0.0000 0.0000 0.0000
# 4 0.0000 0.0000 0.0000 20.1761 0.0000 0.0000
# 5 0.0000 0.0000 0.0000 0.0000 27.8476 0.0000
# 6 0.0000 0.0000 0.0000 0.0000 0.0000 16.7912
#
#
#
# Elastic Compliance Matrix: (Units=1/GPa)
#
#
# Indices 1 2 3 4 5 6 
#
# 1 0.014702 -0.005179 -0.004866 0.000000 0.000000 0.000000
# 2 -0.005179 0.021850 -0.009655 0.000000 0.000000 0.000000
# 3 -0.004866 -0.009655 0.017497 0.000000 0.000000 0.000000
# 4 0.000000 0.000000 0.000000 0.049563 0.000000 0.000000
# 5 0.000000 0.000000 0.000000 0.000000 0.035910 0.000000
# 6 0.000000 0.000000 0.000000 0.000000 0.000000 0.059555
#
#
# Mechanical properties :
#
#
# Convention : Reuss Voigt Hill
#
# Bulk Modulus (GPa) = 68.27034 69.59656 68.93345
# Shear Modulus (GPa) = 20.54567 21.50961 21.02764
#
# Velocity S-wave (km/s) = 3.60290 3.68645 3.64492
# Velocity P-wave (km/s) = 7.77442 7.87982 7.82729
#
# Compressibility (1/GPa) = 0.01464765
#
# Stress axis : x y z
#
# Youngs Moduli (GPa) = 68.01866 45.76691 57.15331
#
# Poissons Ratio (x) = 0.23705 0.27810
# Poissons Ratio (y) = 0.35230 0.55182
# Poissons Ratio (z) = 0.33097 0.44189
#
# Static dielectric constant tensor:
#      x y z
#    x 1.548850 0.000000 0.000000 
#    y 0.000000 1.487760 0.000000 
#    z 0.000000 0.000000 1.553230 
# 
# From -- ./inp_files/44230.got.cif
#   From: 2010.05.17/outbox.cif.g08.bks.cpg/sg63_23_cif.got.tgz:44230.got - 2010.06.03 15:47:04.
