data_PCOD9475063
_publ_section_title
;
Structure prediction by ZEFSAII (Michael W. Deem and Ramdas Pophale) SiO2 
 PCOD9475063
Probable space group: C M C M
;
_chemical_formula_sum "Si O2"
_cell_formula_units_Z 68
_cell_length_a 19.988268
_cell_length_b 10.450069
_cell_length_c 15.548220
_cell_angle_alpha 90.000000
_cell_angle_beta 90.000000
_cell_angle_gamma 90.000000
_cell_volume 3247.693222
_symmetry_space_group_name_H-M "C M C M"
_symmetry_group_IT_number 63
_symmetry_cell_setting 'orthorhombic'
loop_
_space_group_symop_operation_xyz
x,y,z
-x,-y,1/2+z
x,-y,-z
-x,y,1/2-z
-x,-y,-z
x,y,1/2-z
-x,y,z
x,-y,1/2+z
1/2+x,1/2+y,z
1/2-x,1/2-y,1/2+z
1/2+x,1/2-y,-z
1/2-x,1/2+y,1/2-z
1/2-x,1/2-y,-z
1/2+x,1/2+y,1/2-z
1/2-x,1/2+y,z
1/2+x,1/2-y,1/2+z
loop_
_atom_site_type_symbol
_atom_site_label
_atom_site_fract_x
_atom_site_fract_y
_atom_site_fract_z
Si Si1 0.642314 0.755274 0.750000
Si Si2 0.425119 0.023675 0.750000
Si Si3 0.175111 0.500000 0.500000
Si Si4 0.758974 0.697354 0.401450
Si Si5 0.615602 0.784450 0.396869
Si Si6 0.000000 0.081159 0.414522
Si Si7 0.000000 0.103214 0.750000
O O1 0.687325 0.738303 0.836855
O O2 0.570995 0.681238 0.750000
O O3 0.624527 0.905600 0.750000
O O4 0.500000 0.971284 0.750000
O O5 0.414262 0.116314 0.829767
O O6 0.220149 0.450370 0.579681
O O7 0.130872 0.377005 0.477640
O O8 0.750000 0.750000 0.500000
O O9 0.685259 0.722986 0.364983
O O10 0.564266 0.672509 0.413944
O O11 0.000000 0.000000 0.500000
O O12 0.000000 0.987924 0.333114
#
# Coordination Sequence:
#
# PCOD9475063 Si02
#       7
#     8   8   8  16  16   8   4
#     4  12  25  49  77 111 144 199 249 315 378 450
#     4  12  22  44  73 105 139 181 248 309 359 433
#     4  10  22  41  74 105 136 180 250 304 362 439
#     4  10  24  43  72 113 144 184 246 302 376 441
#     4  11  24  45  70 101 146 188 241 303 363 435
#     4  12  30  46  72 106 156 208 242 302 386 444
#     4  12  32  50  72 110 152 198 252 300 384 464
#
# _framework density 20.937937999999999
#
# number of rings (size 3 to 8) (size 9 to 14) (size 15 to 20)
#    0.000    0.941    4.118    1.412    8.235    2.353 
#    4.235    0.000    0.000    0.000    0.000    0.000 
#    0.000    0.000    0.000    0.000    0.000    0.000 
#
# Total GULP energy -189646.250422 kJ/mol
# GULP energy per Si atom -5577.830895 kJ/mol
# Density = 2.089028 g / cm^3
# Si number density = 20.937938 Si / 1000 Ang^3
#
#
#
# Elastic Constant Matrix: (Units=GPa)
#
#
# Indices 1 2 3 4 5 6 
#
# 1 169.7971 69.8035 54.8024 0.0000 0.0000 0.0000
# 2 69.8035 123.9192 54.4524 0.0000 0.0000 0.0000
# 3 54.8024 54.4524 113.8783 0.0000 0.0000 0.0000
# 4 0.0000 0.0000 0.0000 26.7678 0.0000 0.0000
# 5 0.0000 0.0000 0.0000 0.0000 29.9746 0.0000
# 6 0.0000 0.0000 0.0000 0.0000 0.0000 26.5773
#
#
#
# Elastic Compliance Matrix: (Units=1/GPa)
#
#
# Indices 1 2 3 4 5 6 
#
# 1 0.008064 -0.003592 -0.002163 0.000000 0.000000 0.000000
# 2 -0.003592 0.011816 -0.003922 0.000000 0.000000 0.000000
# 3 -0.002163 -0.003922 0.011697 0.000000 0.000000 0.000000
# 4 0.000000 0.000000 0.000000 0.037358 0.000000 0.000000
# 5 0.000000 0.000000 0.000000 0.000000 0.033362 0.000000
# 6 0.000000 0.000000 0.000000 0.000000 0.000000 0.037626
#
#
# Mechanical properties :
#
#
# Convention : Reuss Voigt Hill
#
# Bulk Modulus (GPa) = 81.80302 85.07902 83.44102
# Shear Modulus (GPa) = 30.60868 31.89970 31.25419
#
# Velocity S-wave (km/s) = 3.82760 3.90748 3.86775
# Velocity P-wave (km/s) = 7.66082 7.81537 7.73848
#
# Compressibility (1/GPa) = 0.01222449
#
# Stress axis : x y z
#
# Youngs Moduli (GPa) = 124.00407 84.62845 85.48854
#
# Poissons Ratio (x) = 0.30399 0.18493
# Poissons Ratio (y) = 0.44542 0.33525
# Poissons Ratio (z) = 0.26825 0.33187
#
# Static dielectric constant tensor:
#      x y z
#    x 1.840770 0.000000 0.000000 
#    y 0.000000 1.750670 0.000000 
#    z 0.000000 0.000000 1.788930 
# 
# From -- ./inp_files/46698.got.cif
#   From: 2010.05.17/outbox.cif.g08.bks.cpg/sg63_24_cif.got.tgz:46698.got - 2010.06.03 15:47:04.
