data_PCOD9475094
_publ_section_title
;
Structure prediction by ZEFSAII (Michael W. Deem and Ramdas Pophale) SiO2 
 PCOD9475094
Probable space group: C M C M
;
_chemical_formula_sum "Si O2"
_cell_formula_units_Z 52
_cell_length_a 12.135279
_cell_length_b 14.383084
_cell_length_c 14.168515
_cell_angle_alpha 90.000000
_cell_angle_beta 90.000000
_cell_angle_gamma 90.000000
_cell_volume 2473.011390
_symmetry_space_group_name_H-M "C M C M"
_symmetry_group_IT_number 63
_symmetry_cell_setting 'orthorhombic'
loop_
_space_group_symop_operation_xyz
x,y,z
-x,-y,1/2+z
x,-y,-z
-x,y,1/2-z
-x,-y,-z
x,y,1/2-z
-x,y,z
x,-y,1/2+z
1/2+x,1/2+y,z
1/2-x,1/2-y,1/2+z
1/2+x,1/2-y,-z
1/2-x,1/2+y,1/2-z
1/2-x,1/2-y,-z
1/2+x,1/2+y,1/2-z
1/2-x,1/2+y,z
1/2+x,1/2-y,1/2+z
loop_
_atom_site_type_symbol
_atom_site_label
_atom_site_fract_x
_atom_site_fract_y
_atom_site_fract_z
Si Si1 0.500000 0.411605 0.250000
Si Si2 0.180573 0.974461 0.102177
Si Si3 0.873822 0.333474 0.050181
Si Si4 0.260885 0.177963 0.144934
O O1 0.596387 0.420923 0.167957
O O2 0.289001 0.913234 0.081461
O O3 0.217855 0.072527 0.145622
O O4 0.131946 0.000000 0.000000
O O5 0.838627 0.243971 0.110963
O O6 0.000000 0.358991 0.064336
O O7 0.849515 0.313501 0.939434
O O8 0.299901 0.203381 0.250000
#
# Coordination Sequence:
#
# PCOD9475094 Si02
#       4
#     4  16  16  16
#     4  12  22  40  66  98 128 170 214 278 312 394
#     4  10  23  42  66  97 127 170 218 266 326 379
#     4  10  24  45  66  95 136 170 210 270 326 385
#     4  10  22  42  66  97 125 169 227 254 322 387
#
# _framework density 21.026996
#
# number of rings (size 3 to 8) (size 9 to 14) (size 15 to 20)
#    0.000    1.846    1.538    0.462    4.308    6.769 
#   16.615    0.000    0.000    0.000    0.000    0.000 
#    0.000    0.000    0.000    0.000    0.000    0.000 
#
# Total GULP energy -144750.375587 kJ/mol
# GULP energy per Si atom -5567.322138 kJ/mol
# Density = 2.097914 g / cm^3
# Si number density = 21.026996 Si / 1000 Ang^3
#
#
#
# Elastic Constant Matrix: (Units=GPa)
#
#
# Indices 1 2 3 4 5 6 
#
# 1 165.1596 32.6561 55.6852 0.0000 0.0000 0.0000
# 2 32.6561 72.9945 46.6085 0.0000 0.0000 0.0000
# 3 55.6852 46.6085 166.3767 0.0000 0.0000 0.0000
# 4 0.0000 0.0000 0.0000 32.4829 0.0000 0.0000
# 5 0.0000 0.0000 0.0000 0.0000 6.6421 0.0000
# 6 0.0000 0.0000 0.0000 0.0000 0.0000 -2.5209
#
#
#
# Elastic Compliance Matrix: (Units=1/GPa)
#
#
# Indices 1 2 3 4 5 6 
#
# 1 0.007059 -0.002009 -0.001800 0.000000 0.000000 0.000000
# 2 -0.002009 0.017256 -0.004162 0.000000 0.000000 0.000000
# 3 -0.001800 -0.004162 0.007779 0.000000 0.000000 0.000000
# 4 0.000000 0.000000 0.000000 0.030785 0.000000 0.000000
# 5 0.000000 0.000000 0.000000 0.000000 0.150555 0.000000
# 6 0.000000 0.000000 0.000000 0.000000 0.000000 -0.396679
#
#
# Mechanical properties :
#
#
# Convention : Reuss Voigt Hill
#
# Bulk Modulus (GPa) = 61.90914 74.93671 68.42293
# Shear Modulus (GPa) = -30.87919 25.29288 -2.79316
#
# Velocity S-wave (km/s) = -3.83632 3.47201 -1.15380
# Velocity P-wave (km/s) = 3.14379 7.19645 5.55303
#
# Compressibility (1/GPa) = 0.01615270
#
# Stress axis : x y z
#
# Youngs Moduli (GPa) = 141.66836 57.95210 128.55653
#
# Poissons Ratio (x) = 0.11641 0.23138
# Poissons Ratio (y) = 0.28457 0.53501
# Poissons Ratio (z) = 0.25497 0.24118
#
# Static dielectric constant tensor:
#      x y z
#    x 1.705140 0.000000 0.000000 
#    y 0.000000 1.797360 0.000000 
#    z 0.000000 0.000000 1.778310 
# 
# From -- ./inp_files/28748.got.cif
#   From: 2010.05.17/outbox.cif.g08.bks.cpg/sg63_15_cif.got.tgz:28748.got - 2010.06.03 15:47:04.
