data_PCOD9475086
_publ_section_title
;
Structure prediction by ZEFSAII (Michael W. Deem and Ramdas Pophale) SiO2 
 PCOD9475086
Probable space group: C M C M
;
_chemical_formula_sum "Si O2"
_cell_formula_units_Z 64
_cell_length_a 13.764458
_cell_length_b 29.338677
_cell_length_c 8.211158
_cell_angle_alpha 90.000000
_cell_angle_beta 90.000000
_cell_angle_gamma 90.000000
_cell_volume 3315.920042
_symmetry_space_group_name_H-M "C M C M"
_symmetry_group_IT_number 63
_symmetry_cell_setting 'orthorhombic'
loop_
_space_group_symop_operation_xyz
x,y,z
-x,-y,1/2+z
x,-y,-z
-x,y,1/2-z
-x,-y,-z
x,y,1/2-z
-x,y,z
x,-y,1/2+z
1/2+x,1/2+y,z
1/2-x,1/2-y,1/2+z
1/2+x,1/2-y,-z
1/2-x,1/2+y,1/2-z
1/2-x,1/2-y,-z
1/2+x,1/2+y,1/2-z
1/2-x,1/2+y,z
1/2+x,1/2-y,1/2+z
loop_
_atom_site_type_symbol
_atom_site_label
_atom_site_fract_x
_atom_site_fract_y
_atom_site_fract_z
Si Si1 0.500000 0.856229 0.450276
Si Si2 0.891913 0.052314 0.444185
Si Si3 0.789348 0.612407 0.938990
Si Si4 0.802277 0.795432 0.554924
Si Si5 0.000000 0.249168 0.052898
O O1 0.500000 0.855429 0.250000
O O2 0.599555 0.881639 0.504110
O O3 0.500000 0.802349 0.503807
O O4 0.895481 0.054073 0.250000
O O5 0.794202 0.079058 0.493303
O O6 0.000000 0.069200 0.503493
O O7 0.884100 0.000000 0.500000
O O8 0.799722 0.600902 0.750000
O O9 0.743720 0.662221 0.964178
O O10 0.795788 0.802923 0.750000
O O11 0.750000 0.750000 0.500000
O O12 0.910371 0.782268 0.507145
O O13 0.000000 0.253227 0.250000
#
# Coordination Sequence:
#
# PCOD9475086 Si02
#       5
#     8  16  16  16   8
#     4   9  18  36  57  79 114 159 196 235 288 337
#     4  10  22  42  66  91 119 149 183 232 292 349
#     4  11  22  38  60  86 116 154 198 241 288 345
#     4  11  21  35  54  79 112 154 198 243 291 342
#     4   9  18  34  52  71 108 155 194 235 290 338
#
# _framework density 19.300826000000001
#
# number of rings (size 3 to 8) (size 9 to 14) (size 15 to 20)
#    0.000    1.750    2.500    2.250    1.750    1.500 
#    0.000    6.250    0.000    0.000    0.000    0.000 
#    0.000    0.000    0.000    0.000    0.000    0.000 
#
# Total GULP energy -178242.099938 kJ/mol
# GULP energy per Si atom -5570.065623 kJ/mol
# Density = 1.925690 g / cm^3
# Si number density = 19.300826 Si / 1000 Ang^3
#
#
#
# Elastic Constant Matrix: (Units=GPa)
#
#
# Indices 1 2 3 4 5 6 
#
# 1 215.1728 61.6012 16.5986 0.0000 0.0000 0.0000
# 2 61.6012 71.5537 -0.1112 0.0000 0.0000 0.0000
# 3 16.5986 -0.1112 17.5767 0.0000 0.0000 0.0000
# 4 0.0000 0.0000 0.0000 32.4252 0.0000 0.0000
# 5 0.0000 0.0000 0.0000 0.0000 20.0117 0.0000
# 6 0.0000 0.0000 0.0000 0.0000 0.0000 10.8068
#
#
#
# Elastic Compliance Matrix: (Units=1/GPa)
#
#
# Indices 1 2 3 4 5 6 
#
# 1 0.006836 -0.005895 -0.006493 0.000000 0.000000 0.000000
# 2 -0.005895 0.019060 0.005688 0.000000 0.000000 0.000000
# 3 -0.006493 0.005688 0.063061 0.000000 0.000000 0.000000
# 4 0.000000 0.000000 0.000000 0.030840 0.000000 0.000000
# 5 0.000000 0.000000 0.000000 0.000000 0.049971 0.000000
# 6 0.000000 0.000000 0.000000 0.000000 0.000000 0.092534
#
#
# Mechanical properties :
#
#
# Convention : Reuss Voigt Hill
#
# Bulk Modulus (GPa) = 13.23521 51.16450 32.19986
# Shear Modulus (GPa) = 16.61747 27.72973 22.17360
#
# Velocity S-wave (km/s) = 2.93742 3.79451 3.39313
# Velocity P-wave (km/s) = 4.28681 6.76493 5.66308
#
# Compressibility (1/GPa) = 0.07555604
#
# Stress axis : x y z
#
# Youngs Moduli (GPa) = 146.28341 52.46677 15.85761
#
# Poissons Ratio (x) = 0.30931 0.10296
# Poissons Ratio (y) = 0.86239 -0.09019
# Poissons Ratio (z) = 0.94981 -0.29842
#
# Static dielectric constant tensor:
#      x y z
#    x 1.687320 0.000000 0.000000 
#    y 0.000000 1.633010 0.000000 
#    z 0.000000 0.000000 1.716450 
# 
# From -- ./inp_files/3197.got.cif
#   From: 2010.05.17/outbox.cif.g08.bks.cpg/sg63_2_cif.got.tgz:3197.got - 2010.06.03 15:47:04.
