data_PCOD9475756
_publ_section_title
;
Structure prediction by ZEFSAII (Michael W. Deem and Ramdas Pophale) SiO2 
 PCOD9475756
Probable space group: C M C M
;
_chemical_formula_sum "Si O2"
_cell_formula_units_Z 96
_cell_length_a 10.026463
_cell_length_b 22.612684
_cell_length_c 23.067303
_cell_angle_alpha 90.000000
_cell_angle_beta 90.000000
_cell_angle_gamma 90.000000
_cell_volume 5229.939796
_symmetry_space_group_name_H-M "C M C M"
_symmetry_group_IT_number 63
_symmetry_cell_setting 'orthorhombic'
loop_
_space_group_symop_operation_xyz
x,y,z
-x,-y,1/2+z
x,-y,-z
-x,y,1/2-z
-x,-y,-z
x,y,1/2-z
-x,y,z
x,-y,1/2+z
1/2+x,1/2+y,z
1/2-x,1/2-y,1/2+z
1/2+x,1/2-y,-z
1/2-x,1/2+y,1/2-z
1/2-x,1/2-y,-z
1/2+x,1/2+y,1/2-z
1/2-x,1/2+y,z
1/2+x,1/2-y,1/2+z
loop_
_atom_site_type_symbol
_atom_site_label
_atom_site_fract_x
_atom_site_fract_y
_atom_site_fract_z
Si Si1 0.657580 0.252263 0.319114
Si Si2 0.731751 0.364558 0.113386
Si Si3 0.500000 0.066928 0.430725
Si Si4 0.649660 0.695613 0.496349
Si Si5 0.500000 0.569645 0.681972
Si Si6 0.000000 0.928182 0.817352
Si Si7 0.754348 0.133382 0.119479
Si Si8 0.000000 0.575148 0.931605
O O1 0.672929 0.255029 0.250000
O O2 0.500000 0.262239 0.332869
O O3 0.741771 0.303454 0.350584
O O4 0.700815 0.188667 0.343161
O O5 0.629989 0.404739 0.149884
O O6 0.869881 0.396617 0.098359
O O7 0.668494 0.345917 0.051955
O O8 0.369623 0.093165 0.399804
O O9 0.500000 0.086358 0.498678
O O10 0.500000 0.995947 0.426560
O O11 0.500000 0.719316 0.495476
O O12 0.750000 0.750000 0.500000
O O13 0.680431 0.659594 0.438611
O O14 0.500000 0.587479 0.750000
O O15 0.500000 0.499004 0.678340
O O16 0.867787 0.902210 0.846830
O O17 0.000000 0.911415 0.750000
#
# Coordination Sequence:
#
# PCOD9475756 Si02
#       8
#    16  16   8  16   8   8  16   8
#     4  11  23  40  66  94 125 169 220 271 322 388
#     4  12  23  42  67  97 131 168 217 268 329 393
#     4  11  24  43  65  95 134 182 215 257 325 400
#     4  12  25  39  64  99 135 175 213 266 337 404
#     4  11  24  46  71  91 126 179 228 269 319 392
#     4  11  26  46  67  95 130 173 222 279 329 376
#     4  12  23  43  67  96 134 169 220 269 331 395
#     4  11  26  41  63  99 138 172 213 267 329 388
#
# _framework density 18.355851999999999
#
# number of rings (size 3 to 8) (size 9 to 14) (size 15 to 20)
#    0.000    0.500    6.667    2.000    2.333    0.667 
#    0.000    3.333    0.000    5.000    0.000    0.000 
#    0.000    0.000    0.000    0.000    0.000    0.000 
#
# Total GULP energy -268460.142952 kJ/mol
# GULP energy per Si atom -5592.919645 kJ/mol
# Density = 1.831407 g / cm^3
# Si number density = 18.355852 Si / 1000 Ang^3
#
#
#
# Elastic Constant Matrix: (Units=GPa)
#
#
# Indices 1 2 3 4 5 6 
#
# 1 182.9302 76.5446 75.1791 0.0000 0.0000 0.0000
# 2 76.5446 107.2274 62.4174 0.0000 0.0000 0.0000
# 3 75.1791 62.4174 138.8357 0.0000 0.0000 0.0000
# 4 0.0000 0.0000 0.0000 36.1881 0.0000 0.0000
# 5 0.0000 0.0000 0.0000 0.0000 30.6791 0.0000
# 6 0.0000 0.0000 0.0000 0.0000 0.0000 16.4670
#
#
#
# Elastic Compliance Matrix: (Units=1/GPa)
#
#
# Indices 1 2 3 4 5 6 
#
# 1 0.008393 -0.004532 -0.002508 0.000000 0.000000 0.000000
# 2 -0.004532 0.015079 -0.004325 0.000000 0.000000 0.000000
# 3 -0.002508 -0.004325 0.010505 0.000000 0.000000 0.000000
# 4 0.000000 0.000000 0.000000 0.027633 0.000000 0.000000
# 5 0.000000 0.000000 0.000000 0.000000 0.032595 0.000000
# 6 0.000000 0.000000 0.000000 0.000000 0.000000 0.060727
#
#
# Mechanical properties :
#
#
# Convention : Reuss Voigt Hill
#
# Bulk Modulus (GPa) = 88.90388 95.25283 92.07836
# Shear Modulus (GPa) = 27.56159 30.99035 29.27597
#
# Velocity S-wave (km/s) = 3.87914 4.11336 3.99797
# Velocity P-wave (km/s) = 8.28265 8.63508 8.46070
#
# Compressibility (1/GPa) = 0.01124810
#
# Stress axis : x y z
#
# Youngs Moduli (GPa) = 119.14037 66.31837 95.19295
#
# Poissons Ratio (x) = 0.30056 0.23870
# Poissons Ratio (y) = 0.53995 0.41171
# Poissons Ratio (z) = 0.29875 0.28683
#
# Static dielectric constant tensor:
#      x y z
#    x 1.602350 0.000000 0.000000 
#    y 0.000000 1.612000 0.000000 
#    z 0.000000 0.000000 1.618840 
# 
# From -- ./inp_files/60130.got.cif
#   From: 2010.05.17/outbox.cif.g08.bks.cpg/sg63_31_cif.got.tgz:60130.got - 2010.06.03 15:47:04.
