data_PCOD9475102
_publ_section_title
;
Structure prediction by ZEFSAII (Michael W. Deem and Ramdas Pophale) SiO2 
 PCOD9475102
Probable space group: C M C M
;
_chemical_formula_sum "Si O2"
_cell_formula_units_Z 56
_cell_length_a 32.354259
_cell_length_b 5.398307
_cell_length_c 12.414966
_cell_angle_alpha 90.000000
_cell_angle_beta 90.000000
_cell_angle_gamma 90.000000
_cell_volume 2168.375898
_symmetry_space_group_name_H-M "C M C M"
_symmetry_group_IT_number 63
_symmetry_cell_setting 'orthorhombic'
loop_
_space_group_symop_operation_xyz
x,y,z
-x,-y,1/2+z
x,-y,-z
-x,y,1/2-z
-x,-y,-z
x,y,1/2-z
-x,y,z
x,-y,1/2+z
1/2+x,1/2+y,z
1/2-x,1/2-y,1/2+z
1/2+x,1/2-y,-z
1/2-x,1/2+y,1/2-z
1/2-x,1/2-y,-z
1/2+x,1/2+y,1/2-z
1/2-x,1/2+y,z
1/2+x,1/2-y,1/2+z
loop_
_atom_site_type_symbol
_atom_site_label
_atom_site_fract_x
_atom_site_fract_y
_atom_site_fract_z
Si Si1 0.772588 0.841220 0.380419
Si Si2 0.000000 0.623618 0.620999
Si Si3 0.133803 0.841901 0.381268
Si Si4 0.592488 0.158324 0.876892
O O1 0.772775 0.842427 0.250000
O O2 0.741035 0.620755 0.409232
O O3 0.819393 0.774870 0.411875
O O4 0.000000 0.500000 0.500000
O O5 0.044957 0.747673 0.615611
O O6 0.000000 0.516348 0.750000
O O7 0.133051 0.848470 0.250000
O O8 0.122577 0.122932 0.412812
O O9 0.100988 0.626220 0.412074
O O10 0.600848 0.140226 0.750000
#
# Coordination Sequence:
#
# PCOD9475102 Si02
#       4
#    16   8  16  16
#     4   9  15  22  36  63 103 151 202 257 317 382
#     4  10  22  42  68 100 138 180 228 282 342 408
#     4   9  16  28  46  72 111 159 210 264 324 390
#     4   9  18  32  52  78 113 159 209 263 323 389
#
# _framework density 25.825780000000002
#
# number of rings (size 3 to 8) (size 9 to 14) (size 15 to 20)
#    0.000    2.857    0.000    1.714    0.000    8.000 
#    0.000    8.571    0.000    0.000    0.000    0.000 
#    0.000   22.857    0.000   17.143    0.000   40.000 
#
# Total GULP energy -156224.498459 kJ/mol
# GULP energy per Si atom -5579.446374 kJ/mol
# Density = 2.576700 g / cm^3
# Si number density = 25.825780 Si / 1000 Ang^3
#
#
#
# Elastic Constant Matrix: (Units=GPa)
#
#
# Indices 1 2 3 4 5 6 
#
# 1 132.3407 70.0542 -14.7098 0.0000 0.0000 0.0000
# 2 70.0542 113.0766 9.6177 0.0000 0.0000 0.0000
# 3 -14.7098 9.6177 72.3429 0.0000 0.0000 0.0000
# 4 0.0000 0.0000 0.0000 75.8495 0.0000 0.0000
# 5 0.0000 0.0000 0.0000 0.0000 48.8015 0.0000
# 6 0.0000 0.0000 0.0000 0.0000 0.0000 13.0666
#
#
#
# Elastic Compliance Matrix: (Units=1/GPa)
#
#
# Indices 1 2 3 4 5 6 
#
# 1 0.012053 -0.007763 0.003483 0.000000 0.000000 0.000000
# 2 -0.007763 0.013945 -0.003432 0.000000 0.000000 0.000000
# 3 0.003483 -0.003432 0.014988 0.000000 0.000000 0.000000
# 4 0.000000 0.000000 0.000000 0.013184 0.000000 0.000000
# 5 0.000000 0.000000 0.000000 0.000000 0.020491 0.000000
# 6 0.000000 0.000000 0.000000 0.000000 0.000000 0.076531
#
#
# Mechanical properties :
#
#
# Convention : Reuss Voigt Hill
#
# Bulk Modulus (GPa) = 39.12416 49.74269 44.43342
# Shear Modulus (GPa) = 28.54900 44.39674 36.47287
#
# Velocity S-wave (km/s) = 3.32843 4.15068 3.76209
# Velocity P-wave (km/s) = 5.47297 6.50181 6.00945
#
# Compressibility (1/GPa) = 0.02555966
#
# Stress axis : x y z
#
# Youngs Moduli (GPa) = 82.96776 71.70970 66.72188
#
# Poissons Ratio (x) = 0.55671 -0.23238
# Poissons Ratio (y) = 0.64411 0.22902
# Poissons Ratio (z) = -0.28897 0.24614
#
# Static dielectric constant tensor:
#      x y z
#    x 1.913860 0.000000 0.000000 
#    y 0.000000 1.925300 0.000000 
#    z 0.000000 0.000000 2.359990 
# 
# From -- ./inp_files/38201.got.cif
#   From: 2010.05.17/outbox.cif.g08.bks.cpg/sg63_20_cif.got.tgz:38201.got - 2010.06.03 15:47:04.
