data_PCOD9475664
_publ_section_title
;
Structure prediction by ZEFSAII (Michael W. Deem and Ramdas Pophale) SiO2 
 PCOD9475664
Probable space group: C M C M
;
_chemical_formula_sum "Si O2"
_cell_formula_units_Z 100
_cell_length_a 33.636815
_cell_length_b 19.233756
_cell_length_c 7.414059
_cell_angle_alpha 90.000000
_cell_angle_beta 90.000000
_cell_angle_gamma 90.000000
_cell_volume 4796.616606
_symmetry_space_group_name_H-M "C M C M"
_symmetry_group_IT_number 63
_symmetry_cell_setting 'orthorhombic'
loop_
_space_group_symop_operation_xyz
x,y,z
-x,-y,1/2+z
x,-y,-z
-x,y,1/2-z
-x,-y,-z
x,y,1/2-z
-x,y,z
x,-y,1/2+z
1/2+x,1/2+y,z
1/2-x,1/2-y,1/2+z
1/2+x,1/2-y,-z
1/2-x,1/2+y,1/2-z
1/2-x,1/2-y,-z
1/2+x,1/2+y,1/2-z
1/2-x,1/2+y,z
1/2+x,1/2-y,1/2+z
loop_
_atom_site_type_symbol
_atom_site_label
_atom_site_fract_x
_atom_site_fract_y
_atom_site_fract_z
Si Si1 0.796441 0.668933 0.958696
Si Si2 0.500000 0.300795 0.250000
Si Si3 0.367074 0.418269 0.036014
Si Si4 0.382590 0.830475 0.030428
Si Si5 0.543063 0.918001 0.034675
Si Si6 0.071388 0.805944 0.956320
Si Si7 0.209508 0.832302 0.030351
O O1 0.796564 0.647033 0.750000
O O2 0.839103 0.648730 0.038329
O O3 0.753721 0.645836 0.033154
O O4 0.796549 0.753139 0.967255
O O5 0.465000 0.302531 0.407736
O O6 0.368693 0.407578 0.250000
O O7 0.326487 0.381263 0.970774
O O8 0.366727 0.500000 0.000000
O O9 0.405541 0.379086 0.959657
O O10 0.380793 0.834956 0.250000
O O11 0.418689 0.878186 0.964728
O O12 0.395643 0.751854 0.988911
O O13 0.542451 0.907901 0.250000
O O14 0.500000 0.893186 0.963875
O O15 0.545833 0.000000 0.000000
O O16 0.059088 0.789900 0.750000
O O17 0.210128 0.830672 0.250000
#
# Coordination Sequence:
#
# PCOD9475664 Si02
#       7
#    16   4  16  16  16  16  16
#     4   9  16  30  53  82 113 149 188 234 294 351
#     4  12  26  44  62  94 128 156 202 262 316 378
#     4  11  22  39  61  87 120 161 210 259 309 370
#     4   9  18  33  58  84 115 155 197 246 303 364
#     4   9  18  34  51  74 105 144 191 239 290 353
#     4  11  23  42  65  92 123 160 204 256 317 376
#     4   9  18  31  52  82 116 148 187 241 289 345
#
# _framework density 20.848030000000001
#
# number of rings (size 3 to 8) (size 9 to 14) (size 15 to 20)
#    0.000    2.240    2.400    0.720    1.120    0.640 
#    1.440    1.200    0.000    0.000    0.000    0.000 
#    0.000    0.000    0.000    0.000    0.000    0.000 
#
# Total GULP energy -278555.942241 kJ/mol
# GULP energy per Si atom -5571.118845 kJ/mol
# Density = 2.080058 g / cm^3
# Si number density = 20.848030 Si / 1000 Ang^3
#
#
#
# Elastic Constant Matrix: (Units=GPa)
#
#
# Indices 1 2 3 4 5 6 
#
# 1 154.3370 -0.2805 24.0997 0.0000 0.0000 0.0000
# 2 -0.2805 18.6169 -10.1377 0.0000 0.0000 0.0000
# 3 24.0997 -10.1377 103.5587 0.0000 0.0000 0.0000
# 4 0.0000 0.0000 0.0000 12.5734 0.0000 0.0000
# 5 0.0000 0.0000 0.0000 0.0000 14.7135 0.0000
# 6 0.0000 0.0000 0.0000 0.0000 0.0000 31.2855
#
#
#
# Elastic Compliance Matrix: (Units=1/GPa)
#
#
# Indices 1 2 3 4 5 6 
#
# 1 0.006735 -0.000794 -0.001645 0.000000 0.000000 0.000000
# 2 -0.000794 0.056833 0.005748 0.000000 0.000000 0.000000
# 3 -0.001645 0.005748 0.010602 0.000000 0.000000 0.000000
# 4 0.000000 0.000000 0.000000 0.079533 0.000000 0.000000
# 5 0.000000 0.000000 0.000000 0.000000 0.067965 0.000000
# 6 0.000000 0.000000 0.000000 0.000000 0.000000 0.031964
#
#
# Mechanical properties :
#
#
# Convention : Reuss Voigt Hill
#
# Bulk Modulus (GPa) = 12.37811 33.76396 23.07104
# Shear Modulus (GPa) = 18.25201 29.23654 23.74428
#
# Velocity S-wave (km/s) = 2.96206 3.74888 3.37845
# Velocity P-wave (km/s) = 4.20102 5.91348 5.12922
#
# Compressibility (1/GPa) = 0.08078777
#
# Stress axis : x y z
#
# Youngs Moduli (GPa) = 148.48344 17.59540 94.32259
#
# Poissons Ratio (x) = 0.01398 0.15516
# Poissons Ratio (y) = 0.11795 -0.54220
# Poissons Ratio (z) = 0.24426 -0.10115
#
# Static dielectric constant tensor:
#      x y z
#    x 1.779710 0.000000 0.000000 
#    y 0.000000 1.710670 0.000000 
#    z 0.000000 0.000000 1.790650 
# 
# From -- ./inp_files/14451.got.cif
#   From: 2010.05.17/outbox.cif.g08.bks.cpg/sg63_8_cif.got.tgz:14451.got - 2010.06.03 15:47:04.
