data_PCOD9475881
_publ_section_title
;
Structure prediction by ZEFSAII (Michael W. Deem and Ramdas Pophale) SiO2 
 PCOD9475881
Probable space group: C M C M
;
_chemical_formula_sum "Si O2"
_cell_formula_units_Z 72
_cell_length_a 14.371940
_cell_length_b 20.415194
_cell_length_c 14.164032
_cell_angle_alpha 90.000000
_cell_angle_beta 90.000000
_cell_angle_gamma 90.000000
_cell_volume 4155.811169
_symmetry_space_group_name_H-M "C M C M"
_symmetry_group_IT_number 63
_symmetry_cell_setting 'orthorhombic'
loop_
_space_group_symop_operation_xyz
x,y,z
-x,-y,1/2+z
x,-y,-z
-x,y,1/2-z
-x,-y,-z
x,y,1/2-z
-x,y,z
x,-y,1/2+z
1/2+x,1/2+y,z
1/2-x,1/2-y,1/2+z
1/2+x,1/2-y,-z
1/2-x,1/2+y,1/2-z
1/2-x,1/2-y,-z
1/2+x,1/2+y,1/2-z
1/2-x,1/2+y,z
1/2+x,1/2-y,1/2+z
loop_
_atom_site_type_symbol
_atom_site_label
_atom_site_fract_x
_atom_site_fract_y
_atom_site_fract_z
Si Si1 0.500000 0.826035 0.250000
Si Si2 0.705721 0.689302 0.943282
Si Si3 0.705347 0.764837 0.250000
Si Si4 0.000000 0.369410 0.040694
Si Si5 0.799502 0.378442 0.750000
Si Si6 0.691733 0.072588 0.039995
Si Si7 0.500000 0.188185 0.250000
Si Si8 0.000000 0.232685 0.556676
O O1 0.595092 0.782329 0.250000
O O2 0.500000 0.870611 0.154774
O O3 0.746138 0.701529 0.839676
O O4 0.595167 0.693720 0.950201
O O5 0.750000 0.750000 0.000000
O O6 0.739984 0.622356 0.987574
O O7 0.733625 0.687150 0.250000
O O8 0.089556 0.401620 0.991470
O O9 0.000000 0.292041 0.017773
O O10 0.790759 0.418490 0.652203
O O11 0.905660 0.352745 0.750000
O O12 0.702717 0.000000 0.000000
O O13 0.500000 0.232272 0.157700
#
# Coordination Sequence:
#
# PCOD9475881 Si02
#       8
#     4  16   8   8   8  16   4   8
#     4  12  24  32  63 102 137 158 206 276 330 378
#     4  12  21  39  63  94 126 169 217 270 316 374
#     4  12  20  37  65  92 133 164 217 270 326 370
#     4  12  21  39  61  94 131 168 206 263 332 378
#     4  12  22  40  64  91 124 169 223 260 324 390
#     4  12  26  42  62  93 136 177 211 263 327 395
#     4  12  16  34  65  98 117 164 212 274 320 374
#     4  12  20  35  67  97 124 156 228 275 305 376
#
# _framework density 17.325137000000002
#
# number of rings (size 3 to 8) (size 9 to 14) (size 15 to 20)
#    0.000    0.000   11.111    0.333    0.000    1.778 
#    0.000    0.556    0.000    0.000    0.000    0.000 
#    0.000    0.000    0.000    0.000    0.000    0.000 
#
# Total GULP energy -201098.169861 kJ/mol
# GULP energy per Si atom -5586.060274 kJ/mol
# Density = 1.728570 g / cm^3
# Si number density = 17.325137 Si / 1000 Ang^3
#
#
#
# Elastic Constant Matrix: (Units=GPa)
#
#
# Indices 1 2 3 4 5 6 
#
# 1 151.6475 68.1781 44.8856 0.0000 0.0000 0.0000
# 2 68.1781 124.5339 65.5548 0.0000 0.0000 0.0000
# 3 44.8856 65.5548 179.2036 0.0000 0.0000 0.0000
# 4 0.0000 0.0000 0.0000 24.8378 0.0000 0.0000
# 5 0.0000 0.0000 0.0000 0.0000 16.8713 0.0000
# 6 0.0000 0.0000 0.0000 0.0000 0.0000 -13.2999
#
#
#
# Elastic Compliance Matrix: (Units=1/GPa)
#
#
# Indices 1 2 3 4 5 6 
#
# 1 0.008790 -0.004525 -0.000547 0.000000 0.000000 0.000000
# 2 -0.004525 0.012274 -0.003357 0.000000 0.000000 0.000000
# 3 -0.000547 -0.003357 0.006945 0.000000 0.000000 0.000000
# 4 0.000000 0.000000 0.000000 0.040261 0.000000 0.000000
# 5 0.000000 0.000000 0.000000 0.000000 0.059272 0.000000
# 6 0.000000 0.000000 0.000000 0.000000 0.000000 -0.075189
#
#
# Mechanical properties :
#
#
# Convention : Reuss Voigt Hill
#
# Bulk Modulus (GPa) = 89.65767 90.29136 89.97451
# Shear Modulus (GPa) = 68.56119 24.13294 46.34706
#
# Velocity S-wave (km/s) = 6.29755 3.73627 5.17778
# Velocity P-wave (km/s) = 10.23432 8.41676 9.36971
#
# Compressibility (1/GPa) = 0.01115354
#
# Stress axis : x y z
#
# Youngs Moduli (GPa) = 113.76293 81.47313 143.98752
#
# Poissons Ratio (x) = 0.36864 0.07869
# Poissons Ratio (y) = 0.51474 0.48332
# Poissons Ratio (z) = 0.06218 0.27348
#
# Static dielectric constant tensor:
#      x y z
#    x 1.539820 0.000000 0.000000 
#    y 0.000000 1.553050 0.000000 
#    z 0.000000 0.000000 1.577120 
# 
# From -- ./inp_files/31540.got.cif
#   From: 2010.05.17/outbox.cif.g08.bks.cpg/sg63_16_cif.got.tgz:31540.got - 2010.06.03 15:47:04.
