data_PCOD9475726
_publ_section_title
;
Structure prediction by ZEFSAII (Michael W. Deem and Ramdas Pophale) SiO2 
 PCOD9475726
Probable space group: C M C M
;
_chemical_formula_sum "Si O2"
_cell_formula_units_Z 104
_cell_length_a 22.220424
_cell_length_b 9.473290
_cell_length_c 25.742771
_cell_angle_alpha 90.000000
_cell_angle_beta 90.000000
_cell_angle_gamma 90.000000
_cell_volume 5418.866694
_symmetry_space_group_name_H-M "C M C M"
_symmetry_group_IT_number 63
_symmetry_cell_setting 'orthorhombic'
loop_
_space_group_symop_operation_xyz
x,y,z
-x,-y,1/2+z
x,-y,-z
-x,y,1/2-z
-x,-y,-z
x,y,1/2-z
-x,y,z
x,-y,1/2+z
1/2+x,1/2+y,z
1/2-x,1/2-y,1/2+z
1/2+x,1/2-y,-z
1/2-x,1/2+y,1/2-z
1/2-x,1/2-y,-z
1/2+x,1/2+y,1/2-z
1/2-x,1/2+y,z
1/2+x,1/2-y,1/2+z
loop_
_atom_site_type_symbol
_atom_site_label
_atom_site_fract_x
_atom_site_fract_y
_atom_site_fract_z
Si Si1 0.000000 0.972278 0.616074
Si Si2 0.723279 0.216067 0.557485
Si Si3 0.500000 0.259602 0.310160
Si Si4 0.183778 0.416768 0.901607
Si Si5 0.000000 0.300839 0.187286
Si Si6 0.064481 0.640501 0.034645
Si Si7 0.101686 0.522815 0.189362
Si Si8 0.104561 0.116969 0.460481
O O1 0.000000 0.115466 0.648620
O O2 0.000000 0.843720 0.656689
O O3 0.058967 0.954042 0.579956
O O4 0.750000 0.250000 0.500000
O O5 0.769891 0.288252 0.596774
O O6 0.659569 0.295474 0.563092
O O7 0.712148 0.051035 0.568172
O O8 0.500000 0.311900 0.250000
O O9 0.441385 0.159811 0.315695
O O10 0.123069 0.365854 0.930265
O O11 0.160338 0.464809 0.845682
O O12 0.941128 0.392604 0.172892
O O13 0.000000 0.285507 0.250000
O O14 0.000000 0.643093 0.062835
O O15 0.066018 0.500000 0.000000
O O16 0.068616 0.771899 0.995975
O O17 0.115836 0.505930 0.250000
O O18 0.129603 0.000000 0.500000
#
# Coordination Sequence:
#
# PCOD9475726 Si02
#       8
#     8  16   8  16   8  16  16  16
#     4  12  24  36  58  93 131 162 199 254 323 375
#     4  12  24  42  59  88 120 171 216 248 294 384
#     4   9  21  40  64  92 123 162 204 255 318 385
#     4  12  24  40  66  87 122 168 209 255 315 356
#     4   9  19  38  63  90 121 156 198 257 311 367
#     4  11  23  38  60  89 123 162 207 254 303 366
#     4   9  21  41  66  93 117 152 211 262 307 371
#     4  12  25  38  53  88 131 163 204 257 307 364
#
# _framework density 19.192204
#
# number of rings (size 3 to 8) (size 9 to 14) (size 15 to 20)
#    0.000    1.077    3.846    3.692    4.308    0.000 
#    0.000    0.769    0.000    1.846    0.000    0.000 
#    0.000    0.000    0.000    0.000    0.000    0.000 
#
# Total GULP energy -290754.112869 kJ/mol
# GULP energy per Si atom -5591.425247 kJ/mol
# Density = 1.914852 g / cm^3
# Si number density = 19.192204 Si / 1000 Ang^3
#
#
#
# Elastic Constant Matrix: (Units=GPa)
#
#
# Indices 1 2 3 4 5 6 
#
# 1 99.3319 9.0867 17.6307 0.0000 0.0000 0.0000
# 2 9.0867 83.7002 22.9810 0.0000 0.0000 0.0000
# 3 17.6307 22.9810 56.5667 0.0000 0.0000 0.0000
# 4 0.0000 0.0000 0.0000 30.2855 0.0000 0.0000
# 5 0.0000 0.0000 0.0000 0.0000 43.8261 0.0000
# 6 0.0000 0.0000 0.0000 0.0000 0.0000 22.0163
#
#
#
# Elastic Compliance Matrix: (Units=1/GPa)
#
#
# Indices 1 2 3 4 5 6 
#
# 1 0.010662 -0.000276 -0.003211 0.000000 0.000000 0.000000
# 2 -0.000276 0.013455 -0.005380 0.000000 0.000000 0.000000
# 3 -0.003211 -0.005380 0.020865 0.000000 0.000000 0.000000
# 4 0.000000 0.000000 0.000000 0.033019 0.000000 0.000000
# 5 0.000000 0.000000 0.000000 0.000000 0.022817 0.000000
# 6 0.000000 0.000000 0.000000 0.000000 0.000000 0.045421
#
#
# Mechanical properties :
#
#
# Convention : Reuss Voigt Hill
#
# Bulk Modulus (GPa) = 36.70061 37.66618 37.18339
# Shear Modulus (GPa) = 28.89236 31.88562 30.38899
#
# Velocity S-wave (km/s) = 3.88419 4.08043 3.98352
# Velocity P-wave (km/s) = 6.26738 6.47057 6.36978
#
# Compressibility (1/GPa) = 0.02724750
#
# Stress axis : x y z
#
# Youngs Moduli (GPa) = 93.78701 74.32439 47.92746
#
# Poissons Ratio (x) = 0.02050 0.15390
# Poissons Ratio (y) = 0.02587 0.25786
# Poissons Ratio (z) = 0.30117 0.39987
#
# Static dielectric constant tensor:
#      x y z
#    x 1.669170 0.000000 0.000000 
#    y 0.000000 1.713130 0.000000 
#    z 0.000000 0.000000 1.684580 
# 
# From -- ./inp_files/70417.got.cif
#   From: 2010.05.17/outbox.cif.g08.bks.cpg/sg63_36_cif.got.tgz:70417.got - 2010.06.03 15:47:04.
