data_PCOD9475850
_publ_section_title
;
Structure prediction by ZEFSAII (Michael W. Deem and Ramdas Pophale) SiO2 
 PCOD9475850
Probable space group: C M C M
;
_chemical_formula_sum "Si O2"
_cell_formula_units_Z 64
_cell_length_a 18.664922
_cell_length_b 13.945403
_cell_length_c 10.601868
_cell_angle_alpha 90.000000
_cell_angle_beta 90.000000
_cell_angle_gamma 90.000000
_cell_volume 2759.558730
_symmetry_space_group_name_H-M "C M C M"
_symmetry_group_IT_number 63
_symmetry_cell_setting 'orthorhombic'
loop_
_space_group_symop_operation_xyz
x,y,z
-x,-y,1/2+z
x,-y,-z
-x,y,1/2-z
-x,-y,-z
x,y,1/2-z
-x,y,z
x,-y,1/2+z
1/2+x,1/2+y,z
1/2-x,1/2-y,1/2+z
1/2+x,1/2-y,-z
1/2-x,1/2+y,1/2-z
1/2-x,1/2-y,-z
1/2+x,1/2+y,1/2-z
1/2-x,1/2+y,z
1/2+x,1/2-y,1/2+z
loop_
_atom_site_type_symbol
_atom_site_label
_atom_site_fract_x
_atom_site_fract_y
_atom_site_fract_z
Si Si1 0.500000 0.069090 0.117058
Si Si2 0.755261 0.675846 0.250000
Si Si3 0.081677 0.896091 0.061388
Si Si4 0.370175 0.185801 0.024747
Si Si5 0.195115 0.977220 0.250000
Si Si6 0.166849 0.370919 0.250000
O O1 0.500000 0.015663 0.250000
O O2 0.431751 0.136533 0.105631
O O3 0.500000 0.000000 0.000000
O O4 0.801438 0.675243 0.118435
O O5 0.694854 0.592215 0.250000
O O6 0.716636 0.777245 0.250000
O O7 0.106586 0.796257 0.999243
O O8 0.152579 0.924390 0.139778
O O9 0.000000 0.875703 0.112080
O O10 0.071331 0.000000 0.000000
O O11 0.368594 0.134180 0.888053
O O12 0.279441 0.959751 0.250000
#
# Coordination Sequence:
#
# PCOD9475850 Si02
#       6
#     8   8  16  16   8   8
#     4  12  30  52  81 110 148 200 263 322 385 454
#     4  12  26  47  74 109 151 200 257 306 380 461
#     4  11  24  46  75 108 146 197 257 316 382 453
#     4  12  26  49  76 111 150 203 254 316 383 456
#     4  12  27  41  73 103 151 195 248 314 376 459
#     4  12  28  42  71 111 154 193 249 306 384 455
#
# _framework density 23.192112999999999
#
# number of rings (size 3 to 8) (size 9 to 14) (size 15 to 20)
#    0.000    0.250    5.000    2.625    8.750    0.000 
#    0.000    1.250    0.000    0.000    0.000    0.000 
#    0.000    0.000    0.000    0.000    0.000    0.000 
#
# Total GULP energy -178229.640897 kJ/mol
# GULP energy per Si atom -5569.676278 kJ/mol
# Density = 2.313933 g / cm^3
# Si number density = 23.192113 Si / 1000 Ang^3
#
#
#
# Elastic Constant Matrix: (Units=GPa)
#
#
# Indices 1 2 3 4 5 6 
#
# 1 68.7129 -1.9980 28.8878 0.0000 0.0000 0.0000
# 2 -1.9980 68.2730 7.4973 0.0000 0.0000 0.0000
# 3 28.8878 7.4973 144.0892 0.0000 0.0000 0.0000
# 4 0.0000 0.0000 0.0000 33.5385 0.0000 0.0000
# 5 0.0000 0.0000 0.0000 0.0000 7.7551 0.0000
# 6 0.0000 0.0000 0.0000 0.0000 0.0000 51.6226
#
#
#
# Elastic Compliance Matrix: (Units=1/GPa)
#
#
# Indices 1 2 3 4 5 6 
#
# 1 0.015939 0.000822 -0.003238 0.000000 0.000000 0.000000
# 2 0.000822 0.014774 -0.000934 0.000000 0.000000 0.000000
# 3 -0.003238 -0.000934 0.007638 0.000000 0.000000 0.000000
# 4 0.000000 0.000000 0.000000 0.029816 0.000000 0.000000
# 5 0.000000 0.000000 0.000000 0.000000 0.128948 0.000000
# 6 0.000000 0.000000 0.000000 0.000000 0.000000 0.019371
#
#
# Mechanical properties :
#
#
# Convention : Reuss Voigt Hill
#
# Bulk Modulus (GPa) = 31.59483 38.87217 35.23350
# Shear Modulus (GPa) = 21.39173 35.02910 28.21041
#
# Velocity S-wave (km/s) = 3.04035 3.89059 3.49145
# Velocity P-wave (km/s) = 5.09683 6.08108 5.61058
#
# Compressibility (1/GPa) = 0.03165075
#
# Stress axis : x y z
#
# Youngs Moduli (GPa) = 62.74079 67.68810 130.92543
#
# Poissons Ratio (x) = -0.05564 0.42397
# Poissons Ratio (y) = -0.05157 0.12222
# Poissons Ratio (z) = 0.20317 0.06319
#
# Static dielectric constant tensor:
#      x y z
#    x 1.880400 0.000000 0.000000 
#    y 0.000000 1.918200 0.000000 
#    z 0.000000 0.000000 1.526260 
# 
# From -- ./inp_files/20615.got.cif
#   From: 2010.05.17/outbox.cif.g08.bks.cpg/sg63_11_cif.got.tgz:20615.got - 2010.06.03 15:47:04.
