data_PCOD9475713
_publ_section_title
;
Structure prediction by ZEFSAII (Michael W. Deem and Ramdas Pophale) SiO2 
 PCOD9475713
Probable space group: C M C M
;
_chemical_formula_sum "Si O2"
_cell_formula_units_Z 80
_cell_length_a 16.854618
_cell_length_b 26.609745
_cell_length_c 9.594539
_cell_angle_alpha 90.000000
_cell_angle_beta 90.000000
_cell_angle_gamma 90.000000
_cell_volume 4303.122793
_symmetry_space_group_name_H-M "C M C M"
_symmetry_group_IT_number 63
_symmetry_cell_setting 'orthorhombic'
loop_
_space_group_symop_operation_xyz
x,y,z
-x,-y,1/2+z
x,-y,-z
-x,y,1/2-z
-x,-y,-z
x,y,1/2-z
-x,y,z
x,-y,1/2+z
1/2+x,1/2+y,z
1/2-x,1/2-y,1/2+z
1/2+x,1/2-y,-z
1/2-x,1/2+y,1/2-z
1/2-x,1/2-y,-z
1/2+x,1/2+y,1/2-z
1/2-x,1/2+y,z
1/2+x,1/2-y,1/2+z
loop_
_atom_site_type_symbol
_atom_site_label
_atom_site_fract_x
_atom_site_fract_y
_atom_site_fract_z
Si Si1 0.904568 0.659325 0.089698
Si Si2 0.403440 0.952902 0.912130
Si Si3 0.404389 0.642376 0.408629
Si Si4 0.168606 0.748213 0.916061
Si Si5 0.597029 0.451771 0.410149
O O1 0.877089 0.668934 0.250000
O O2 0.877006 0.603276 0.046780
O O3 0.000000 0.658230 0.094318
O O4 0.878714 0.702179 0.984110
O O5 0.384080 0.959605 0.750000
O O6 0.500000 0.952872 0.922817
O O7 0.373374 0.000000 0.000000
O O8 0.380643 0.628957 0.250000
O O9 0.500000 0.643286 0.412632
O O10 0.373989 0.698192 0.438599
O O11 0.376959 0.599652 0.515293
O O12 0.178716 0.741618 0.750000
O O13 0.250000 0.750000 0.000000
O O14 0.621954 0.500000 0.500000
O O15 0.622637 0.454953 0.250000
O O16 0.500000 0.451701 0.410327
#
# Coordination Sequence:
#
# PCOD9475713 Si02
#       5
#    16  16  16  16  16
#     4   9  18  33  53  77 105 135 168 209 255 301
#     4   8  14  25  43  70 102 132 161 197 243 292
#     4   9  18  33  52  74 100 129 164 207 251 296
#     4  11  23  37  53  73 100 135 173 213 258 305
#     4   9  16  26  44  72 103 132 161 196 241 292
#
# _framework density 18.591148
#
# number of rings (size 3 to 8) (size 9 to 14) (size 15 to 20)
#    0.000    2.800    0.000    3.000    0.000    6.000 
#    0.000    4.000    0.000    1.200    0.000    5.600 
#    0.000    0.000    0.000    0.000    0.000    0.000 
#
# Total GULP energy -223008.515385 kJ/mol
# GULP energy per Si atom -5575.212885 kJ/mol
# Density = 1.854883 g / cm^3
# Si number density = 18.591148 Si / 1000 Ang^3
#
#
#
# Elastic Constant Matrix: (Units=GPa)
#
#
# Indices 1 2 3 4 5 6 
#
# 1 5.0089 20.6200 20.1844 0.0000 0.0000 0.0000
# 2 20.6200 189.3719 133.5915 0.0000 0.0000 0.0000
# 3 20.1844 133.5915 144.2210 0.0000 0.0000 0.0000
# 4 0.0000 0.0000 0.0000 42.9071 0.0000 0.0000
# 5 0.0000 0.0000 0.0000 0.0000 13.6698 0.0000
# 6 0.0000 0.0000 0.0000 0.0000 0.0000 -13.7964
#
#
#
# Elastic Compliance Matrix: (Units=1/GPa)
#
#
# Indices 1 2 3 4 5 6 
#
# 1 0.470012 -0.013774 -0.053021 0.000000 0.000000 0.000000
# 2 -0.013774 0.015641 -0.012561 0.000000 0.000000 0.000000
# 3 -0.053021 -0.012561 0.025989 0.000000 0.000000 0.000000
# 4 0.000000 0.000000 0.000000 0.023306 0.000000 0.000000
# 5 0.000000 0.000000 0.000000 0.000000 0.073154 0.000000
# 6 0.000000 0.000000 0.000000 0.000000 0.000000 -0.072483
#
#
# Mechanical properties :
#
#
# Convention : Reuss Voigt Hill
#
# Bulk Modulus (GPa) = 2.83342 76.37707 39.60525
# Shear Modulus (GPa) = 6.15782 19.50317 12.83049
#
# Velocity S-wave (km/s) = 1.82193 3.24243 2.62990
# Velocity P-wave (km/s) = 2.43993 7.42896 5.52914
#
# Compressibility (1/GPa) = 0.35292989
#
# Stress axis : x y z
#
# Youngs Moduli (GPa) = 2.12761 63.93284 38.47719
#
# Poissons Ratio (x) = 0.88063 2.04011
# Poissons Ratio (y) = 0.02931 0.48330
# Poissons Ratio (z) = 0.11281 0.80305
#
# Static dielectric constant tensor:
#      x y z
#    x 1.648630 0.000000 0.000000 
#    y 0.000000 1.651460 0.000000 
#    z 0.000000 0.000000 1.625930 
# 
# From -- ./inp_files/6380.got.cif
#   From: 2010.05.17/outbox.cif.g08.bks.cpg/sg63_4_cif.got.tgz:6380.got - 2010.06.03 15:47:04.
