data_PCOD9475653
_publ_section_title
;
Structure prediction by ZEFSAII (Michael W. Deem and Ramdas Pophale) SiO2 
 PCOD9475653
Probable space group: C M C M
;
_chemical_formula_sum "Si O2"
_cell_formula_units_Z 72
_cell_length_a 28.891531
_cell_length_b 8.875616
_cell_length_c 14.525179
_cell_angle_alpha 90.000000
_cell_angle_beta 90.000000
_cell_angle_gamma 90.000000
_cell_volume 3724.693609
_symmetry_space_group_name_H-M "C M C M"
_symmetry_group_IT_number 63
_symmetry_cell_setting 'orthorhombic'
loop_
_space_group_symop_operation_xyz
x,y,z
-x,-y,1/2+z
x,-y,-z
-x,y,1/2-z
-x,-y,-z
x,y,1/2-z
-x,y,z
x,-y,1/2+z
1/2+x,1/2+y,z
1/2-x,1/2-y,1/2+z
1/2+x,1/2-y,-z
1/2-x,1/2+y,1/2-z
1/2-x,1/2-y,-z
1/2+x,1/2+y,1/2-z
1/2-x,1/2+y,z
1/2+x,1/2-y,1/2+z
loop_
_atom_site_type_symbol
_atom_site_label
_atom_site_fract_x
_atom_site_fract_y
_atom_site_fract_z
Si Si1 0.384925 0.500000 0.500000
Si Si2 0.688823 0.601759 0.354170
Si Si3 0.056154 0.434525 0.352535
Si Si4 0.055567 0.268789 0.959139
Si Si5 0.769324 0.381487 0.067320
O O1 0.351679 0.420137 0.572842
O O2 0.417293 0.384047 0.445983
O O3 0.675849 0.565524 0.250000
O O4 0.729555 0.484233 0.385668
O O5 0.703924 0.777167 0.361081
O O6 0.073578 0.398674 0.250000
O O7 0.067841 0.326691 0.437764
O O8 0.068972 0.601976 0.386628
O O9 0.000000 0.432432 0.348938
O O10 0.000000 0.249989 0.954917
O O11 0.795517 0.500000 0.000000
O O12 0.750000 0.250000 0.000000
#
# Coordination Sequence:
#
# PCOD9475653 Si02
#       5
#     8  16  16  16  16
#     4  12  23  36  52  82 124 152 186 244 279 330
#     4  11  22  38  60  87 116 151 190 231 283 342
#     4   8  15  33  58  78  97 132 189 241 279 334
#     4   9  19  35  56  80 110 153 193 231 288 337
#     4   9  17  38  64  83 109 147 182 227 285 337
#
# _framework density 19.330449000000002
#
# number of rings (size 3 to 8) (size 9 to 14) (size 15 to 20)
#    0.000    2.444    3.333    2.333    0.000    1.778 
#    4.000    0.000    0.000    6.667    0.000    0.000 
#    0.000    0.000    0.000    0.000    0.000    0.000 
#
# Total GULP energy -200492.803301 kJ/mol
# GULP energy per Si atom -5569.244536 kJ/mol
# Density = 1.928645 g / cm^3
# Si number density = 19.330449 Si / 1000 Ang^3
#
#
#
# Elastic Constant Matrix: (Units=GPa)
#
#
# Indices 1 2 3 4 5 6 
#
# 1 40.7494 27.3054 2.8555 0.0000 0.0000 0.0000
# 2 27.3054 85.7009 -8.6110 0.0000 0.0000 0.0000
# 3 2.8555 -8.6110 80.2936 0.0000 0.0000 0.0000
# 4 0.0000 0.0000 0.0000 16.9862 0.0000 0.0000
# 5 0.0000 0.0000 0.0000 0.0000 -2.2988 0.0000
# 6 0.0000 0.0000 0.0000 0.0000 0.0000 -145.5436
#
#
#
# Elastic Compliance Matrix: (Units=1/GPa)
#
#
# Indices 1 2 3 4 5 6 
#
# 1 0.031591 -0.010289 -0.002227 0.000000 0.000000 0.000000
# 2 -0.010289 0.015147 0.001990 0.000000 0.000000 0.000000
# 3 -0.002227 0.001990 0.012747 0.000000 0.000000 0.000000
# 4 0.000000 0.000000 0.000000 0.058871 0.000000 0.000000
# 5 0.000000 0.000000 0.000000 0.000000 -0.435015 0.000000
# 6 0.000000 0.000000 0.000000 0.000000 0.000000 -0.006871
#
#
# Mechanical properties :
#
#
# Convention : Reuss Voigt Hill
#
# Bulk Modulus (GPa) = 26.01914 27.76039 26.88977
# Shear Modulus (GPa) = -17.26113 -13.82496 -15.54304
#
# Velocity S-wave (km/s) = -2.99147 -2.67721 -2.83869
# Velocity P-wave (km/s) = 1.24802 2.19899 1.78789
#
# Compressibility (1/GPa) = 0.03843324
#
# Stress axis : x y z
#
# Youngs Moduli (GPa) = 31.65488 66.02119 78.45024
#
# Poissons Ratio (x) = 0.67929 0.17470
# Poissons Ratio (y) = 0.32570 -0.15614
# Poissons Ratio (z) = 0.07049 -0.13140
#
# Static dielectric constant tensor:
#      x y z
#    x 1.701930 0.000000 0.000000 
#    y 0.000000 1.694340 0.000000 
#    z 0.000000 0.000000 1.714600 
# 
# From -- ./inp_files/38326.got.cif
#   From: 2010.05.17/outbox.cif.g08.bks.cpg/sg63_20_cif.got.tgz:38326.got - 2010.06.03 15:47:04.
