data_PCOD9475968
_publ_section_title
;
Structure prediction by ZEFSAII (Michael W. Deem and Ramdas Pophale) SiO2 
 PCOD9475968
Probable space group: C M C M
;
_chemical_formula_sum "Si O2"
_cell_formula_units_Z 80
_cell_length_a 23.772229
_cell_length_b 9.972455
_cell_length_c 15.070451
_cell_angle_alpha 90.000000
_cell_angle_beta 90.000000
_cell_angle_gamma 90.000000
_cell_volume 3572.713901
_symmetry_space_group_name_H-M "C M C M"
_symmetry_group_IT_number 63
_symmetry_cell_setting 'orthorhombic'
loop_
_space_group_symop_operation_xyz
x,y,z
-x,-y,1/2+z
x,-y,-z
-x,y,1/2-z
-x,-y,-z
x,y,1/2-z
-x,y,z
x,-y,1/2+z
1/2+x,1/2+y,z
1/2-x,1/2-y,1/2+z
1/2+x,1/2-y,-z
1/2-x,1/2+y,1/2-z
1/2-x,1/2-y,-z
1/2+x,1/2+y,1/2-z
1/2-x,1/2+y,z
1/2+x,1/2-y,1/2+z
loop_
_atom_site_type_symbol
_atom_site_label
_atom_site_fract_x
_atom_site_fract_y
_atom_site_fract_z
Si Si1 0.911105 0.128869 0.652872
Si Si2 0.315822 0.786781 0.015842
Si Si3 0.186842 0.539135 0.146429
Si Si4 0.000000 0.885454 0.841876
Si Si5 0.321553 0.429484 0.849980
Si Si6 0.000000 0.163884 0.520410
O O1 0.916941 0.192200 0.750000
O O2 0.945336 0.199935 0.576063
O O3 0.946684 0.987117 0.657268
O O4 0.848433 0.076239 0.639998
O O5 0.341188 0.658534 0.066550
O O6 0.320742 0.901669 0.091619
O O7 0.250000 0.750000 0.000000
O O8 0.336319 0.847752 0.921778
O O9 0.168088 0.539514 0.250000
O O10 0.254336 0.561173 0.148846
O O11 0.000000 0.810587 0.750000
O O12 0.000000 0.783701 0.922106
O O13 0.336756 0.380339 0.750000
O O14 0.000000 0.000000 0.500000
#
# Coordination Sequence:
#
# PCOD9475968 Si02
#       6
#    16  16  16   8  16   8
#     4   8  13  22  36  55  76  99 128 159 194 234
#     4   9  17  29  39  59  78 102 137 171 208 239
#     4   9  17  29  43  56  77 109 139 168 209 248
#     4   8  14  25  36  51  78 104 132 161 195 241
#     4   9  16  26  42  61  81 106 136 170 203 241
#     4   8  13  23  34  55  73 104 127 155 201 236
#
# _framework density 22.391940999999999
#
# number of rings (size 3 to 8) (size 9 to 14) (size 15 to 20)
#    0.000    3.600    0.000    1.500    0.000    0.800 
#   21.600    0.000    0.000    1.200    0.000    0.000 
#    0.000   12.800    0.000    8.800    0.000    0.400 
#
# Total GULP energy -222773.430549 kJ/mol
# GULP energy per Si atom -5569.335764 kJ/mol
# Density = 2.234098 g / cm^3
# Si number density = 22.391941 Si / 1000 Ang^3
#
#
#
# Elastic Constant Matrix: (Units=GPa)
#
#
# Indices 1 2 3 4 5 6 
#
# 1 50.0737 -0.5504 10.4050 0.0000 0.0000 0.0000
# 2 -0.5504 52.7468 37.3116 0.0000 0.0000 0.0000
# 3 10.4050 37.3116 223.8879 0.0000 0.0000 0.0000
# 4 0.0000 0.0000 0.0000 17.0926 0.0000 0.0000
# 5 0.0000 0.0000 0.0000 0.0000 16.6055 0.0000
# 6 0.0000 0.0000 0.0000 0.0000 0.0000 5.3831
#
#
#
# Elastic Compliance Matrix: (Units=1/GPa)
#
#
# Indices 1 2 3 4 5 6 
#
# 1 0.020211 0.000992 -0.001105 0.000000 0.000000 0.000000
# 2 0.000992 0.021541 -0.003636 0.000000 0.000000 0.000000
# 3 -0.001105 -0.003636 0.005124 0.000000 0.000000 0.000000
# 4 0.000000 0.000000 0.000000 0.058505 0.000000 0.000000
# 5 0.000000 0.000000 0.000000 0.000000 0.060221 0.000000
# 6 0.000000 0.000000 0.000000 0.000000 0.000000 0.185768
#
#
# Mechanical properties :
#
#
# Convention : Reuss Voigt Hill
#
# Bulk Modulus (GPa) = 25.39424 46.78231 36.08827
# Shear Modulus (GPa) = 13.44112 26.45237 19.94674
#
# Velocity S-wave (km/s) = 2.45269 3.44078 2.98787
# Velocity P-wave (km/s) = 4.40299 6.05996 5.29667
#
# Compressibility (1/GPa) = 0.03937901
#
# Stress axis : x y z
#
# Youngs Moduli (GPa) = 49.47799 46.42344 195.16751
#
# Poissons Ratio (x) = -0.04607 0.21559
# Poissons Ratio (y) = -0.04910 0.70962
# Poissons Ratio (z) = 0.05466 0.16879
#
# Static dielectric constant tensor:
#      x y z
#    x 1.889420 0.000000 0.000000 
#    y 0.000000 1.900250 0.000000 
#    z 0.000000 0.000000 2.055120 
# 
# From -- ./inp_files/37734.got.cif
#   From: 2010.05.17/outbox.cif.g08.bks.cpg/sg63_19_cif.got.tgz:37734.got - 2010.06.03 15:47:04.
