data_PCOD9475386
_publ_section_title
;
Structure prediction by ZEFSAII (Michael W. Deem and Ramdas Pophale) SiO2 
 PCOD9475386
Probable space group: C M C M
;
_chemical_formula_sum "Si O2"
_cell_formula_units_Z 112
_cell_length_a 16.283135
_cell_length_b 22.899527
_cell_length_c 19.956174
_cell_angle_alpha 90.000000
_cell_angle_beta 90.000000
_cell_angle_gamma 90.000000
_cell_volume 7441.180124
_symmetry_space_group_name_H-M "C M C M"
_symmetry_group_IT_number 63
_symmetry_cell_setting 'orthorhombic'
loop_
_space_group_symop_operation_xyz
x,y,z
-x,-y,1/2+z
x,-y,-z
-x,y,1/2-z
-x,-y,-z
x,y,1/2-z
-x,y,z
x,-y,1/2+z
1/2+x,1/2+y,z
1/2-x,1/2-y,1/2+z
1/2+x,1/2-y,-z
1/2-x,1/2+y,1/2-z
1/2-x,1/2-y,-z
1/2+x,1/2+y,1/2-z
1/2-x,1/2+y,z
1/2+x,1/2-y,1/2+z
loop_
_atom_site_type_symbol
_atom_site_label
_atom_site_fract_x
_atom_site_fract_y
_atom_site_fract_z
Si Si1 0.000000 0.650308 0.169278
Si Si2 0.500000 0.283115 0.329127
Si Si3 0.753776 0.331840 0.599469
Si Si4 0.097195 0.527383 0.574465
Si Si5 0.904270 0.227464 0.449993
Si Si6 0.160494 0.209703 0.899001
Si Si7 0.343055 0.927683 0.829948
Si Si8 0.680847 0.150953 0.552299
O O1 0.000000 0.716125 0.142688
O O2 0.079405 0.613442 0.150260
O O3 0.000000 0.654168 0.250000
O O4 0.500000 0.280499 0.250000
O O5 0.414765 0.310035 0.353447
O O6 0.659530 0.312157 0.591432
O O7 0.803159 0.273253 0.621881
O O8 0.767805 0.387074 0.646935
O O9 0.789870 0.347532 0.525621
O O10 0.103528 0.500000 0.500000
O O11 0.143863 0.486161 0.627580
O O12 0.138045 0.590851 0.570840
O O13 0.000000 0.530250 0.591496
O O14 0.878105 0.217033 0.527084
O O15 0.881004 0.294944 0.437192
O O16 0.000000 0.216057 0.439569
O O17 0.237363 0.166421 0.905620
O O18 0.343974 0.937405 0.750000
#
# Coordination Sequence:
#
# PCOD9475386 Si02
#       8
#     8   8  16  16  16  16  16  16
#     4   9  18  28  43  67 101 130 154 199 247 294
#     4  11  18  26  46  73  98 128 161 195 246 300
#     4   9  17  29  46  71  99 126 160 200 245 293
#     4  11  21  31  48  73 101 134 168 199 233 286
#     4   9  16  28  49  72  97 127 158 197 245 292
#     4   9  17  28  44  69 100 129 157 196 245 292
#     4  11  20  32  48  71 100 130 165 203 245 291
#     4   9  18  31  45  69 103 131 160 198 238 286
#
# _framework density 15.051375999999999
#
# number of rings (size 3 to 8) (size 9 to 14) (size 15 to 20)
#    0.000    2.286    4.286    2.143    0.000    0.000 
#    0.000    0.714    0.000    1.286    1.857    2.500 
#    0.000    0.000    0.000    0.000    0.000    0.000 
#
# Total GULP energy -311987.843933 kJ/mol
# GULP energy per Si atom -5571.211499 kJ/mol
# Density = 1.501712 g / cm^3
# Si number density = 15.051376 Si / 1000 Ang^3
#
#
#
# Elastic Constant Matrix: (Units=GPa)
#
#
# Indices 1 2 3 4 5 6 
#
# 1 114.6183 48.6113 29.8791 0.0000 0.0000 0.0000
# 2 48.6113 93.9273 33.9125 0.0000 0.0000 0.0000
# 3 29.8791 33.9125 49.6955 0.0000 0.0000 0.0000
# 4 0.0000 0.0000 0.0000 18.2527 0.0000 0.0000
# 5 0.0000 0.0000 0.0000 0.0000 15.8881 0.0000
# 6 0.0000 0.0000 0.0000 0.0000 0.0000 18.4901
#
#
#
# Elastic Compliance Matrix: (Units=1/GPa)
#
#
# Indices 1 2 3 4 5 6 
#
# 1 0.011709 -0.004668 -0.003854 0.000000 0.000000 0.000000
# 2 -0.004668 0.015989 -0.008104 0.000000 0.000000 0.000000
# 3 -0.003854 -0.008104 0.027970 0.000000 0.000000 0.000000
# 4 0.000000 0.000000 0.000000 0.054786 0.000000 0.000000
# 5 0.000000 0.000000 0.000000 0.000000 0.062940 0.000000
# 6 0.000000 0.000000 0.000000 0.000000 0.000000 0.054083
#
#
# Mechanical properties :
#
#
# Convention : Reuss Voigt Hill
#
# Bulk Modulus (GPa) = 44.61363 53.67187 49.14275
# Shear Modulus (GPa) = 18.64265 20.24874 19.44570
#
# Velocity S-wave (km/s) = 3.52319 3.67182 3.59828
# Velocity P-wave (km/s) = 6.80116 7.32891 7.06996
#
# Compressibility (1/GPa) = 0.02241467
#
# Stress axis : x y z
#
# Youngs Moduli (GPa) = 85.40189 62.54486 35.75252
#
# Poissons Ratio (x) = 0.29199 0.13780
# Poissons Ratio (y) = 0.39869 0.28973
# Poissons Ratio (z) = 0.32917 0.50685
#
# Static dielectric constant tensor:
#      x y z
#    x 1.516450 0.000000 0.000000 
#    y 0.000000 1.491050 0.000000 
#    z 0.000000 0.000000 1.499920 
# 
# From -- ./inp_files/56015.got.cif
#   From: 2010.05.17/outbox.cif.g08.bks.cpg/sg63_29_cif.got.tgz:56015.got - 2010.06.03 15:47:04.
