data_PCOD9475002
_publ_section_title
;
Structure prediction by ZEFSAII (Michael W. Deem and Ramdas Pophale) SiO2 
 PCOD9475002
Probable space group: C M C M
;
_chemical_formula_sum "Si O2"
_cell_formula_units_Z 52
_cell_length_a 24.856773
_cell_length_b 10.834096
_cell_length_c 9.856974
_cell_angle_alpha 90.000000
_cell_angle_beta 90.000000
_cell_angle_gamma 90.000000
_cell_volume 2654.489652
_symmetry_space_group_name_H-M "C M C M"
_symmetry_group_IT_number 63
_symmetry_cell_setting 'orthorhombic'
loop_
_space_group_symop_operation_xyz
x,y,z
-x,-y,1/2+z
x,-y,-z
-x,y,1/2-z
-x,-y,-z
x,y,1/2-z
-x,y,z
x,-y,1/2+z
1/2+x,1/2+y,z
1/2-x,1/2-y,1/2+z
1/2+x,1/2-y,-z
1/2-x,1/2+y,1/2-z
1/2-x,1/2-y,-z
1/2+x,1/2+y,1/2-z
1/2-x,1/2+y,z
1/2+x,1/2-y,1/2+z
loop_
_atom_site_type_symbol
_atom_site_label
_atom_site_fract_x
_atom_site_fract_y
_atom_site_fract_z
Si Si1 0.173466 0.879786 0.750000
Si Si2 0.904319 0.232849 0.458698
Si Si3 0.626666 0.653623 0.750000
Si Si4 0.500000 0.320892 0.750000
Si Si5 0.198717 0.610722 0.250000
Si Si6 0.365761 0.000000 0.500000
O O1 0.150278 0.810877 0.882848
O O2 0.237383 0.888614 0.750000
O O3 0.148030 0.015634 0.750000
O O4 0.905382 0.182011 0.611732
O O5 0.901765 0.381670 0.461986
O O6 0.952861 0.185449 0.367846
O O7 0.676085 0.750029 0.750000
O O8 0.172545 0.543133 0.378561
#
# Coordination Sequence:
#
# PCOD9475002 Si02
#       6
#     8  16   8   4   8   8
#     4  11  23  38  62  90 130 167 212 246 308 373
#     4  10  23  42  62  92 124 164 210 264 307 368
#     4  10  23  39  60  94 129 164 210 258 299 379
#     4  10  22  44  70  88 122 164 208 264 328 356
#     4  10  23  35  62  90 128 171 203 252 313 362
#     4  10  22  41  62  92 128 157 210 260 312 374
#
# _framework density 19.589452000000001
#
# number of rings (size 3 to 8) (size 9 to 14) (size 15 to 20)
#    0.000    1.846    0.000    2.769    8.615    3.692 
#    0.000   12.308    0.000    0.000    0.000    0.000 
#    0.000    0.000    0.000    0.000    0.000    0.000 
#
# Total GULP energy -144765.461630 kJ/mol
# GULP energy per Si atom -5567.902370 kJ/mol
# Density = 1.954487 g / cm^3
# Si number density = 19.589452 Si / 1000 Ang^3
#
#
#
# Elastic Constant Matrix: (Units=GPa)
#
#
# Indices 1 2 3 4 5 6 
#
# 1 73.4539 -20.2736 25.1093 0.0000 0.0000 0.0000
# 2 -20.2736 92.1693 22.1423 0.0000 0.0000 0.0000
# 3 25.1093 22.1423 146.1302 0.0000 0.0000 0.0000
# 4 0.0000 0.0000 0.0000 25.4788 0.0000 0.0000
# 5 0.0000 0.0000 0.0000 0.0000 -17.4566 0.0000
# 6 0.0000 0.0000 0.0000 0.0000 0.0000 -17.4350
#
#
#
# Elastic Compliance Matrix: (Units=1/GPa)
#
#
# Indices 1 2 3 4 5 6 
#
# 1 0.015971 0.004330 -0.003400 0.000000 0.000000 0.000000
# 2 0.004330 0.012433 -0.002628 0.000000 0.000000 0.000000
# 3 -0.003400 -0.002628 0.007826 0.000000 0.000000 0.000000
# 4 0.000000 0.000000 0.000000 0.039248 0.000000 0.000000
# 5 0.000000 0.000000 0.000000 0.000000 -0.057285 0.000000
# 6 0.000000 0.000000 0.000000 0.000000 0.000000 -0.057356
#
#
# Mechanical properties :
#
#
# Convention : Reuss Voigt Hill
#
# Bulk Modulus (GPa) = 30.45654 40.63438 35.54546
# Shear Modulus (GPa) = -201.44620 17.10247 -92.17186
#
# Velocity S-wave (km/s) = -10.15171 2.95794 -6.86687
# Velocity P-wave (km/s) = 11.03760 5.69683 6.68486
#
# Compressibility (1/GPa) = 0.03283368
#
# Stress axis : x y z
#
# Youngs Moduli (GPa) = 62.61166 80.42884 127.78400
#
# Poissons Ratio (x) = -0.34826 0.43452
# Poissons Ratio (y) = -0.27111 0.33581
# Poissons Ratio (z) = 0.21291 0.21136
#
# Static dielectric constant tensor:
#      x y z
#    x 1.632570 0.000000 0.000000 
#    y 0.000000 1.706700 0.000000 
#    z 0.000000 0.000000 1.686240 
# 
# From -- ./inp_files/11402.got.cif
#   From: 2010.05.17/outbox.cif.g08.bks.cpg/sg63_6_cif.got.tgz:11402.got - 2010.06.03 15:47:04.
