data_PCOD9475088
_publ_section_title
;
Structure prediction by ZEFSAII (Michael W. Deem and Ramdas Pophale) SiO2 
 PCOD9475088
Probable space group: C M C M
;
_chemical_formula_sum "Si O2"
_cell_formula_units_Z 52
_cell_length_a 9.994983
_cell_length_b 23.407340
_cell_length_c 10.771664
_cell_angle_alpha 90.000000
_cell_angle_beta 90.000000
_cell_angle_gamma 90.000000
_cell_volume 2520.095050
_symmetry_space_group_name_H-M "C M C M"
_symmetry_group_IT_number 63
_symmetry_cell_setting 'orthorhombic'
loop_
_space_group_symop_operation_xyz
x,y,z
-x,-y,1/2+z
x,-y,-z
-x,y,1/2-z
-x,-y,-z
x,y,1/2-z
-x,y,z
x,-y,1/2+z
1/2+x,1/2+y,z
1/2-x,1/2-y,1/2+z
1/2+x,1/2-y,-z
1/2-x,1/2+y,1/2-z
1/2-x,1/2-y,-z
1/2+x,1/2+y,1/2-z
1/2-x,1/2+y,z
1/2+x,1/2-y,1/2+z
loop_
_atom_site_type_symbol
_atom_site_label
_atom_site_fract_x
_atom_site_fract_y
_atom_site_fract_z
Si Si1 0.145607 0.447000 0.750000
Si Si2 0.293114 0.878678 0.995821
Si Si3 0.000000 0.851821 0.250000
Si Si4 0.244740 0.435260 0.250000
Si Si5 0.500000 0.669741 0.016577
Si Si6 0.000000 0.294682 0.104550
O O1 0.155074 0.408579 0.627757
O O2 0.256747 0.496584 0.750000
O O3 0.000000 0.476620 0.750000
O O4 0.136583 0.865837 0.970399
O O5 0.317531 0.918305 0.117026
O O6 0.371748 0.821236 0.034190
O O7 0.124898 0.894759 0.250000
O O8 0.000000 0.813487 0.371277
O O9 0.500000 0.726543 0.096677
O O10 0.000000 0.311804 0.250000
#
# Coordination Sequence:
#
# PCOD9475088 Si02
#       6
#     8  16   4   8   8   8
#     4  12  26  39  65  96 131 169 210 276 317 380
#     4  11  24  44  64  98 129 166 220 265 315 388
#     4   8  20  44  66  92 126 166 212 268 316 392
#     4  10  22  42  66  91 127 170 210 258 333 378
#     4  10  24  43  69  91 129 172 213 266 325 375
#     4  12  24  42  66  95 129 176 214 265 322 381
#
# _framework density 20.634142000000001
#
# number of rings (size 3 to 8) (size 9 to 14) (size 15 to 20)
#    0.000    1.231    3.077    1.846    4.308    3.692 
#    0.000    4.615    0.000    0.000    0.000    0.000 
#    0.000    0.000    0.000    0.000    0.000    0.000 
#
# Total GULP energy -145046.963885 kJ/mol
# GULP energy per Si atom -5578.729380 kJ/mol
# Density = 2.058718 g / cm^3
# Si number density = 20.634142 Si / 1000 Ang^3
#
#
#
# Elastic Constant Matrix: (Units=GPa)
#
#
# Indices 1 2 3 4 5 6 
#
# 1 99.3914 15.5842 22.5244 0.0000 0.0000 0.0000
# 2 15.5842 74.9311 50.3238 0.0000 0.0000 0.0000
# 3 22.5244 50.3238 160.0814 0.0000 0.0000 0.0000
# 4 0.0000 0.0000 0.0000 26.8546 0.0000 0.0000
# 5 0.0000 0.0000 0.0000 0.0000 12.2126 0.0000
# 6 0.0000 0.0000 0.0000 0.0000 0.0000 -13.1502
#
#
#
# Elastic Compliance Matrix: (Units=1/GPa)
#
#
# Indices 1 2 3 4 5 6 
#
# 1 0.010526 -0.001514 -0.001005 0.000000 0.000000 0.000000
# 2 -0.001514 0.017135 -0.005174 0.000000 0.000000 0.000000
# 3 -0.001005 -0.005174 0.008015 0.000000 0.000000 0.000000
# 4 0.000000 0.000000 0.000000 0.037238 0.000000 0.000000
# 5 0.000000 0.000000 0.000000 0.000000 0.081883 0.000000
# 6 0.000000 0.000000 0.000000 0.000000 0.000000 -0.076045
#
#
# Mechanical properties :
#
#
# Convention : Reuss Voigt Hill
#
# Bulk Modulus (GPa) = 49.28469 56.80761 53.04615
# Shear Modulus (GPa) = 49.55337 21.58150 35.56744
#
# Velocity S-wave (km/s) = 4.90585 3.23757 4.15627
# Velocity P-wave (km/s) = 7.48510 6.44720 6.98545
#
# Compressibility (1/GPa) = 0.02029028
#
# Stress axis : x y z
#
# Youngs Moduli (GPa) = 94.99887 58.35971 124.77174
#
# Poissons Ratio (x) = 0.08837 0.12541
# Poissons Ratio (y) = 0.14385 0.64552
# Poissons Ratio (z) = 0.09548 0.30193
#
# Static dielectric constant tensor:
#      x y z
#    x 1.761790 0.000000 0.000000 
#    y 0.000000 1.679540 0.000000 
#    z 0.000000 0.000000 1.722110 
# 
# From -- ./inp_files/17107.got.cif
#   From: 2010.05.17/outbox.cif.g08.bks.cpg/sg63_9_cif.got.tgz:17107.got - 2010.06.03 15:47:04.
