data_PCOD9475428
_publ_section_title
;
Structure prediction by ZEFSAII (Michael W. Deem and Ramdas Pophale) SiO2 
 PCOD9475428
Probable space group: C M C M
;
_chemical_formula_sum "Si O2"
_cell_formula_units_Z 80
_cell_length_a 8.968116
_cell_length_b 26.033439
_cell_length_c 20.135025
_cell_angle_alpha 90.000000
_cell_angle_beta 90.000000
_cell_angle_gamma 90.000000
_cell_volume 4700.942425
_symmetry_space_group_name_H-M "C M C M"
_symmetry_group_IT_number 63
_symmetry_cell_setting 'orthorhombic'
loop_
_space_group_symop_operation_xyz
x,y,z
-x,-y,1/2+z
x,-y,-z
-x,y,1/2-z
-x,-y,-z
x,y,1/2-z
-x,y,z
x,-y,1/2+z
1/2+x,1/2+y,z
1/2-x,1/2-y,1/2+z
1/2+x,1/2-y,-z
1/2-x,1/2+y,1/2-z
1/2-x,1/2-y,-z
1/2+x,1/2+y,1/2-z
1/2-x,1/2+y,z
1/2+x,1/2-y,1/2+z
loop_
_atom_site_type_symbol
_atom_site_label
_atom_site_fract_x
_atom_site_fract_y
_atom_site_fract_z
Si Si1 0.676664 0.189728 0.172049
Si Si2 0.328338 0.007310 0.919734
Si Si3 0.677988 0.232528 0.930467
Si Si4 0.177095 0.096623 0.401141
Si Si5 0.321238 0.116430 0.544542
O O1 0.699631 0.198574 0.250000
O O2 0.500000 0.188455 0.158211
O O3 0.751945 0.233702 0.127692
O O4 0.747807 0.135788 0.149839
O O5 0.500000 0.000694 0.898304
O O6 0.281205 0.066560 0.911536
O O7 0.228877 0.962095 0.890392
O O8 0.325296 0.000000 0.000000
O O9 0.500000 0.240520 0.933142
O O10 0.706647 0.171637 0.923380
O O11 0.750000 0.250000 0.000000
O O12 0.236943 0.112642 0.474322
O O13 0.000000 0.100906 0.399181
O O14 0.500000 0.112353 0.531147
#
# Coordination Sequence:
#
# PCOD9475428 Si02
#       5
#    16  16  16  16  16
#     4  11  24  40  56  75 105 146 187 228 277 332
#     4   8  15  29  48  71 103 140 172 207 253 311
#     4  11  21  34  56  83 111 143 181 226 272 324
#     4  11  20  30  50  78 107 137 172 222 273 320
#     4   9  18  32  51  76 108 143 176 213 263 321
#
# _framework density 17.017863999999999
#
# number of rings (size 3 to 8) (size 9 to 14) (size 15 to 20)
#    0.000    2.000    2.000    4.200    0.000    6.000 
#    0.000    0.000    0.000    1.200    0.000    2.800 
#    0.000    0.000    0.000    0.000    0.000    0.000 
#
# Total GULP energy -223167.027881 kJ/mol
# GULP energy per Si atom -5579.175697 kJ/mol
# Density = 1.697913 g / cm^3
# Si number density = 17.017864 Si / 1000 Ang^3
#
#
#
# Elastic Constant Matrix: (Units=GPa)
#
#
# Indices 1 2 3 4 5 6 
#
# 1 99.5943 78.0676 56.3154 0.0000 0.0000 0.0000
# 2 78.0676 172.1034 57.4548 0.0000 0.0000 0.0000
# 3 56.3154 57.4548 57.7909 0.0000 0.0000 0.0000
# 4 0.0000 0.0000 0.0000 18.6055 0.0000 0.0000
# 5 0.0000 0.0000 0.0000 0.0000 18.8894 0.0000
# 6 0.0000 0.0000 0.0000 0.0000 0.0000 31.0449
#
#
#
# Elastic Compliance Matrix: (Units=1/GPa)
#
#
# Indices 1 2 3 4 5 6 
#
# 1 0.024705 -0.004744 -0.019358 0.000000 0.000000 0.000000
# 2 -0.004744 0.009608 -0.004929 0.000000 0.000000 0.000000
# 3 -0.019358 -0.004929 0.041068 0.000000 0.000000 0.000000
# 4 0.000000 0.000000 0.000000 0.053748 0.000000 0.000000
# 5 0.000000 0.000000 0.000000 0.000000 0.052940 0.000000
# 6 0.000000 0.000000 0.000000 0.000000 0.000000 0.032211
#
#
# Mechanical properties :
#
#
# Convention : Reuss Voigt Hill
#
# Bulk Modulus (GPa) = 57.74079 79.24047 68.49063
# Shear Modulus (GPa) = 17.97813 22.88469 20.43141
#
# Velocity S-wave (km/s) = 3.25380 3.67106 3.46871
# Velocity P-wave (km/s) = 6.93682 8.03947 7.50841
#
# Compressibility (1/GPa) = 0.01731878
#
# Stress axis : x y z
#
# Youngs Moduli (GPa) = 40.47687 104.08042 24.34980
#
# Poissons Ratio (x) = 0.49377 0.47137
# Poissons Ratio (y) = 0.19203 0.12002
# Poissons Ratio (z) = 0.78356 0.51302
#
# Static dielectric constant tensor:
#      x y z
#    x 1.568090 0.000000 0.000000 
#    y 0.000000 1.618450 0.000000 
#    z 0.000000 0.000000 1.538650 
# 
# From -- ./inp_files/40506.got.cif
#   From: 2010.05.17/outbox.cif.g08.bks.cpg/sg63_21_cif.got.tgz:40506.got - 2010.06.03 15:47:04.
