data_PCOD9475795
_publ_section_title
;
Structure prediction by ZEFSAII (Michael W. Deem and Ramdas Pophale) SiO2 
 PCOD9475795
Probable space group: C M C M
;
_chemical_formula_sum "Si O2"
_cell_formula_units_Z 64
_cell_length_a 22.429959
_cell_length_b 8.261940
_cell_length_c 14.497250
_cell_angle_alpha 90.000000
_cell_angle_beta 90.000000
_cell_angle_gamma 90.000000
_cell_volume 2686.557528
_symmetry_space_group_name_H-M "C M C M"
_symmetry_group_IT_number 63
_symmetry_cell_setting 'orthorhombic'
loop_
_space_group_symop_operation_xyz
x,y,z
-x,-y,1/2+z
x,-y,-z
-x,y,1/2-z
-x,-y,-z
x,y,1/2-z
-x,y,z
x,-y,1/2+z
1/2+x,1/2+y,z
1/2-x,1/2-y,1/2+z
1/2+x,1/2-y,-z
1/2-x,1/2+y,1/2-z
1/2-x,1/2-y,-z
1/2+x,1/2+y,1/2-z
1/2-x,1/2+y,z
1/2+x,1/2-y,1/2+z
loop_
_atom_site_type_symbol
_atom_site_label
_atom_site_fract_x
_atom_site_fract_y
_atom_site_fract_z
Si Si1 0.729271 0.767381 0.895114
Si Si2 0.110501 0.432196 0.640080
Si Si3 0.342276 0.556910 0.151162
Si Si4 0.569042 0.254726 0.966677
O O1 0.681294 0.910338 0.878487
O O2 0.693920 0.607488 0.866351
O O3 0.790547 0.808105 0.845542
O O4 0.750000 0.750000 0.000000
O O5 0.099423 0.418182 0.750000
O O6 0.085602 0.598300 0.597013
O O7 0.082122 0.295978 0.572537
O O8 0.373162 0.546124 0.250000
O O9 0.388243 0.608841 0.073753
O O10 0.500000 0.293893 0.956422
#
# Coordination Sequence:
#
# PCOD9475795 Si02
#       4
#    16  16  16  16
#     4  12  25  45  73 107 145 182 231 300 369 427
#     4  11  23  44  73 106 142 187 243 300 363 430
#     4  12  25  44  72 107 146 187 238 295 361 433
#     4  11  26  46  72 105 145 196 245 297 357 424
#
# _framework density 23.822309000000001
#
# number of rings (size 3 to 8) (size 9 to 14) (size 15 to 20)
#    0.000    0.500    2.500    6.750    3.500    3.500 
#    0.000    3.750    0.000    6.000    0.000    0.000 
#    0.000    0.000    0.000    0.000    0.000    0.000 
#
# Total GULP energy -179250.337686 kJ/mol
# GULP energy per Si atom -5601.573053 kJ/mol
# Density = 2.376809 g / cm^3
# Si number density = 23.822309 Si / 1000 Ang^3
#
#
#
# Elastic Constant Matrix: (Units=GPa)
#
#
# Indices 1 2 3 4 5 6 
#
# 1 170.3230 38.0211 47.2596 0.0000 0.0000 0.0000
# 2 38.0211 101.1460 45.6205 0.0000 0.0000 0.0000
# 3 47.2596 45.6205 226.9293 0.0000 0.0000 0.0000
# 4 0.0000 0.0000 0.0000 -136.0225 0.0000 0.0000
# 5 0.0000 0.0000 0.0000 0.0000 -15.3366 0.0000
# 6 0.0000 0.0000 0.0000 0.0000 0.0000 19.0499
#
#
#
# Elastic Compliance Matrix: (Units=1/GPa)
#
#
# Indices 1 2 3 4 5 6 
#
# 1 0.006595 -0.002045 -0.000962 0.000000 0.000000 0.000000
# 2 -0.002045 0.011507 -0.001887 0.000000 0.000000 0.000000
# 3 -0.000962 -0.001887 0.004986 0.000000 0.000000 0.000000
# 4 0.000000 0.000000 0.000000 -0.007352 0.000000 0.000000
# 5 0.000000 0.000000 0.000000 0.000000 -0.065203 0.000000
# 6 0.000000 0.000000 0.000000 0.000000 0.000000 0.052494
#
#
# Mechanical properties :
#
#
# Convention : Reuss Voigt Hill
#
# Bulk Modulus (GPa) = 75.19546 84.46673 79.83109
# Shear Modulus (GPa) = 289.88100 -1.96203 143.95948
#
# Velocity S-wave (km/s) = 11.04304 -0.90851 7.78214
# Velocity P-wave (km/s) = 13.93672 5.86800 10.69265
#
# Compressibility (1/GPa) = 0.01329868
#
# Stress axis : x y z
#
# Youngs Moduli (GPa) = 151.63707 86.90619 200.54209
#
# Poissons Ratio (x) = 0.17772 0.19298
# Poissons Ratio (y) = 0.31009 0.37849
# Poissons Ratio (z) = 0.14592 0.16402
#
# Static dielectric constant tensor:
#      x y z
#    x 1.865340 0.000000 0.000000 
#    y 0.000000 2.024760 0.000000 
#    z 0.000000 0.000000 1.956290 
# 
# From -- ./inp_files/36199.got.cif
#   From: 2010.05.17/outbox.cif.g08.bks.cpg/sg63_19_cif.got.tgz:36199.got - 2010.06.03 15:47:04.
