data_PCOD9475983
_publ_section_title
;
Structure prediction by ZEFSAII (Michael W. Deem and Ramdas Pophale) SiO2 
 PCOD9475983
Probable space group: C M C M
;
_chemical_formula_sum "Si O2"
_cell_formula_units_Z 88
_cell_length_a 14.876535
_cell_length_b 40.123149
_cell_length_c 7.384156
_cell_angle_alpha 90.000000
_cell_angle_beta 90.000000
_cell_angle_gamma 90.000000
_cell_volume 4407.554206
_symmetry_space_group_name_H-M "C M C M"
_symmetry_group_IT_number 63
_symmetry_cell_setting 'orthorhombic'
loop_
_space_group_symop_operation_xyz
x,y,z
-x,-y,1/2+z
x,-y,-z
-x,y,1/2-z
-x,-y,-z
x,y,1/2-z
-x,y,z
x,-y,1/2+z
1/2+x,1/2+y,z
1/2-x,1/2-y,1/2+z
1/2+x,1/2-y,-z
1/2-x,1/2+y,1/2-z
1/2-x,1/2-y,-z
1/2+x,1/2+y,1/2-z
1/2-x,1/2+y,z
1/2+x,1/2-y,1/2+z
loop_
_atom_site_type_symbol
_atom_site_label
_atom_site_fract_x
_atom_site_fract_y
_atom_site_fract_z
Si Si1 0.000000 0.039486 0.035019
Si Si2 0.896674 0.156451 0.470790
Si Si3 0.303352 0.539005 0.466838
Si Si4 0.398093 0.837621 0.528753
Si Si5 0.257403 0.289026 0.965691
Si Si6 0.237365 0.606744 0.470407
O O1 0.000000 0.046842 0.250000
O O2 0.097231 0.049384 0.963273
O O3 0.000000 0.000000 0.000000
O O4 0.899815 0.156019 0.250000
O O5 0.845665 0.190568 0.529044
O O6 0.828294 0.126715 0.523459
O O7 0.000000 0.153505 0.532297
O O8 0.284345 0.500000 0.500000
O O9 0.307927 0.541122 0.250000
O O10 0.238389 0.568380 0.530047
O O11 0.399976 0.837162 0.750000
O O12 0.500000 0.834716 0.466435
O O13 0.331749 0.808095 0.468688
O O14 0.347861 0.871508 0.472828
O O15 0.258684 0.293317 0.750000
O O16 0.250000 0.250000 0.000000
O O17 0.237073 0.607160 0.250000
#
# Coordination Sequence:
#
# PCOD9475983 Si02
#       6
#     8  16  16  16  16  16
#     4   8  14  22  32  50  76 102 126 154 188 232
#     4   8  14  24  39  59  82 105 131 166 202 232
#     4   9  16  25  38  58  82 106 133 164 201 243
#     4   8  14  26  43  62  83 106 136 174 208 234
#     4   9  17  28  42  63  86 107 133 164 199 241
#     4   8  14  23  38  59  79 103 138 172 200 236
#
# _framework density 19.965722
#
# number of rings (size 3 to 8) (size 9 to 14) (size 15 to 20)
#    0.000    3.636    0.000    2.182    1.273    0.727 
#    0.000    0.000    0.000    4.909    0.000    0.000 
#    0.000    0.000    0.000    0.000    0.000    0.000 
#
# Total GULP energy -244996.470214 kJ/mol
# GULP energy per Si atom -5568.101596 kJ/mol
# Density = 1.992028 g / cm^3
# Si number density = 19.965722 Si / 1000 Ang^3
#
#
#
# Elastic Constant Matrix: (Units=GPa)
#
#
# Indices 1 2 3 4 5 6 
#
# 1 139.6613 62.6432 5.1391 0.0000 0.0000 0.0000
# 2 62.6432 148.5118 -1.7715 0.0000 0.0000 0.0000
# 3 5.1391 -1.7715 67.1718 0.0000 0.0000 0.0000
# 4 0.0000 0.0000 0.0000 12.9544 0.0000 0.0000
# 5 0.0000 0.0000 0.0000 0.0000 -11.4936 0.0000
# 6 0.0000 0.0000 0.0000 0.0000 0.0000 15.3578
#
#
#
# Elastic Compliance Matrix: (Units=1/GPa)
#
#
# Indices 1 2 3 4 5 6 
#
# 1 0.008871 -0.003751 -0.000778 0.000000 0.000000 0.000000
# 2 -0.003751 0.008322 0.000506 0.000000 0.000000 0.000000
# 3 -0.000778 0.000506 0.014960 0.000000 0.000000 0.000000
# 4 0.000000 0.000000 0.000000 0.077194 0.000000 0.000000
# 5 0.000000 0.000000 0.000000 0.000000 -0.087005 0.000000
# 6 0.000000 0.000000 0.000000 0.000000 0.000000 0.065114
#
#
# Mechanical properties :
#
#
# Convention : Reuss Voigt Hill
#
# Bulk Modulus (GPa) = 41.47944 54.15185 47.81564
# Shear Modulus (GPa) = 48.29185 22.65264 35.47225
#
# Velocity S-wave (km/s) = 4.92340 3.37200 4.21961
# Velocity P-wave (km/s) = 7.28974 6.50706 6.90949
#
# Compressibility (1/GPa) = 0.02410833
#
# Stress axis : x y z
#
# Youngs Moduli (GPa) = 112.72203 120.16589 66.84466
#
# Poissons Ratio (x) = 0.45078 0.05198
# Poissons Ratio (y) = 0.42285 -0.03385
# Poissons Ratio (z) = 0.08766 -0.06086
#
# Static dielectric constant tensor:
#      x y z
#    x 1.699320 0.000000 0.000000 
#    y 0.000000 1.715410 0.000000 
#    z 0.000000 0.000000 1.780810 
# 
# From -- ./inp_files/19905.got.cif
#   From: 2010.05.17/outbox.cif.g08.bks.cpg/sg63_10_cif.got.tgz:19905.got - 2010.06.03 15:47:04.
