data_PCOD9475344
_publ_section_title
;
Structure prediction by ZEFSAII (Michael W. Deem and Ramdas Pophale) SiO2 
 PCOD9475344
Probable space group: C M C M
;
_chemical_formula_sum "Si O2"
_cell_formula_units_Z 64
_cell_length_a 7.935092
_cell_length_b 22.655749
_cell_length_c 15.996370
_cell_angle_alpha 90.000000
_cell_angle_beta 90.000000
_cell_angle_gamma 90.000000
_cell_volume 2875.754657
_symmetry_space_group_name_H-M "C M C M"
_symmetry_group_IT_number 63
_symmetry_cell_setting 'orthorhombic'
loop_
_space_group_symop_operation_xyz
x,y,z
-x,-y,1/2+z
x,-y,-z
-x,y,1/2-z
-x,-y,-z
x,y,1/2-z
-x,y,z
x,-y,1/2+z
1/2+x,1/2+y,z
1/2-x,1/2-y,1/2+z
1/2+x,1/2-y,-z
1/2-x,1/2+y,1/2-z
1/2-x,1/2-y,-z
1/2+x,1/2+y,1/2-z
1/2-x,1/2+y,z
1/2+x,1/2-y,1/2+z
loop_
_atom_site_type_symbol
_atom_site_label
_atom_site_fract_x
_atom_site_fract_y
_atom_site_fract_z
Si Si1 0.500000 0.070881 0.991478
Si Si2 0.187437 0.949586 0.930000
Si Si3 0.197461 0.765784 0.405013
Si Si4 0.297805 0.313861 0.750000
Si Si5 0.000000 0.349399 0.347717
Si Si6 0.198674 0.954594 0.750000
O O1 0.500000 0.090011 0.897259
O O2 0.331191 0.093327 0.036301
O O3 0.500000 0.000000 0.000000
O O4 0.252874 0.975202 0.841619
O O5 0.000000 0.923266 0.917988
O O6 0.169977 0.000000 0.000000
O O7 0.250000 0.750000 0.500000
O O8 0.222816 0.714972 0.334276
O O9 0.331919 0.814633 0.375132
O O10 0.000000 0.783418 0.404269
O O11 0.500000 0.302710 0.750000
O O12 0.271700 0.384150 0.750000
O O13 0.000000 0.356809 0.250000
O O14 0.000000 0.967846 0.750000
#
# Coordination Sequence:
#
# PCOD9475344 Si02
#       6
#     8  16  16   8   8   8
#     4  10  24  45  66  94 124 172 230 274 342 407
#     4   9  19  40  63  91 132 168 222 285 337 406
#     4  12  24  42  68 100 140 186 226 276 342 414
#     4  11  21  41  63  94 140 177 228 286 328 407
#     4  12  26  48  69  99 144 185 229 292 350 410
#     4   9  20  34  62  96 127 178 222 277 347 393
#
# _framework density 22.255027999999999
#
# number of rings (size 3 to 8) (size 9 to 14) (size 15 to 20)
#    0.000    1.500    3.750    0.375    3.500    1.500 
#   11.250    0.000    0.000    0.000    0.000    0.000 
#    0.000    0.000    0.000    0.000    0.000    0.000 
#
# Total GULP energy -178546.778353 kJ/mol
# GULP energy per Si atom -5579.586824 kJ/mol
# Density = 2.220437 g / cm^3
# Si number density = 22.255028 Si / 1000 Ang^3
#
#
#
# Elastic Constant Matrix: (Units=GPa)
#
#
# Indices 1 2 3 4 5 6 
#
# 1 189.6914 18.5567 52.5101 0.0000 0.0000 0.0000
# 2 18.5567 47.5682 47.8912 0.0000 0.0000 0.0000
# 3 52.5101 47.8912 253.2287 0.0000 0.0000 0.0000
# 4 0.0000 0.0000 0.0000 42.1576 0.0000 0.0000
# 5 0.0000 0.0000 0.0000 0.0000 31.0281 0.0000
# 6 0.0000 0.0000 0.0000 0.0000 0.0000 2.4036
#
#
#
# Elastic Compliance Matrix: (Units=1/GPa)
#
#
# Indices 1 2 3 4 5 6 
#
# 1 0.005654 -0.001266 -0.000933 0.000000 0.000000 0.000000
# 2 -0.001266 0.026250 -0.004702 0.000000 0.000000 0.000000
# 3 -0.000933 -0.004702 0.005032 0.000000 0.000000 0.000000
# 4 0.000000 0.000000 0.000000 0.023721 0.000000 0.000000
# 5 0.000000 0.000000 0.000000 0.000000 0.032229 0.000000
# 6 0.000000 0.000000 0.000000 0.000000 0.000000 0.416039
#
#
# Mechanical properties :
#
#
# Convention : Reuss Voigt Hill
#
# Bulk Modulus (GPa) = 43.22743 80.93383 62.08063
# Shear Modulus (GPa) = 9.42618 39.88654 24.65636
#
# Velocity S-wave (km/s) = 2.06027 4.23809 3.33213
# Velocity P-wave (km/s) = 5.01253 7.77136 6.53909
#
# Compressibility (1/GPa) = 0.02313346
#
# Stress axis : x y z
#
# Youngs Moduli (GPa) = 176.87074 38.09478 198.74050
#
# Poissons Ratio (x) = 0.04824 0.18540
# Poissons Ratio (y) = 0.22398 0.93446
# Poissons Ratio (z) = 0.16500 0.17912
#
# Static dielectric constant tensor:
#      x y z
#    x 1.995870 0.000000 0.000000 
#    y 0.000000 1.736470 0.000000 
#    z 0.000000 0.000000 1.858890 
# 
# From -- ./inp_files/27835.got.cif
#   From: 2010.05.17/outbox.cif.g08.bks.cpg/sg63_14_cif.got.tgz:27835.got - 2010.06.03 15:47:04.
