data_PCOD9475357
_publ_section_title
;
Structure prediction by ZEFSAII (Michael W. Deem and Ramdas Pophale) SiO2 
 PCOD9475357
Probable space group: C M C M
;
_chemical_formula_sum "Si O2"
_cell_formula_units_Z 100
_cell_length_a 23.649696
_cell_length_b 9.896459
_cell_length_c 22.160291
_cell_angle_alpha 90.000000
_cell_angle_beta 90.000000
_cell_angle_gamma 90.000000
_cell_volume 5186.577258
_symmetry_space_group_name_H-M "C M C M"
_symmetry_group_IT_number 63
_symmetry_cell_setting 'orthorhombic'
loop_
_space_group_symop_operation_xyz
x,y,z
-x,-y,1/2+z
x,-y,-z
-x,y,1/2-z
-x,-y,-z
x,y,1/2-z
-x,y,z
x,-y,1/2+z
1/2+x,1/2+y,z
1/2-x,1/2-y,1/2+z
1/2+x,1/2-y,-z
1/2-x,1/2+y,1/2-z
1/2-x,1/2-y,-z
1/2+x,1/2+y,1/2-z
1/2-x,1/2+y,z
1/2+x,1/2-y,1/2+z
loop_
_atom_site_type_symbol
_atom_site_label
_atom_site_fract_x
_atom_site_fract_y
_atom_site_fract_z
Si Si1 0.696991 0.323317 0.750000
Si Si2 0.066493 0.993014 0.429529
Si Si3 0.737555 0.378792 0.041469
Si Si4 0.396870 0.265117 0.848238
Si Si5 0.187206 0.850082 0.250000
Si Si6 0.637818 0.273478 0.376132
Si Si7 0.500000 0.259336 0.750000
Si Si8 0.638164 0.022443 0.929152
O O1 0.659918 0.278641 0.691911
O O2 0.756276 0.243004 0.750000
O O3 0.701448 0.488318 0.750000
O O4 0.083486 0.849060 0.402498
O O5 0.000000 0.018452 0.423362
O O6 0.080760 0.000000 0.500000
O O7 0.098895 0.104192 0.390660
O O8 0.691766 0.335705 0.089518
O O9 0.796471 0.429801 0.068941
O O10 0.715560 0.500000 0.000000
O O11 0.750000 0.250000 0.000000
O O12 0.449852 0.260822 0.802775
O O13 0.395197 0.136840 0.892792
O O14 0.149512 0.809932 0.307412
O O15 0.634537 0.116967 0.392948
O O16 0.622049 0.000000 0.000000
#
# Coordination Sequence:
#
# PCOD9475357 Si02
#       8
#     8  16  16  16   8  16   4  16
#     4  11  26  45  67  97 138 186 230 278 338 401
#     4  11  24  44  73 104 130 172 231 294 348 401
#     4  11  22  39  67 101 136 182 225 270 333 412
#     4  11  23  46  74  96 130 179 232 283 334 413
#     4  12  28  41  64  98 141 187 222 280 329 412
#     4  12  25  43  64  99 145 176 227 278 346 396
#     4  10  24  46  76  94 120 174 244 272 328 406
#     4  11  24  42  66 104 140 176 215 280 345 410
#
# _framework density 19.280538
#
# number of rings (size 3 to 8) (size 9 to 14) (size 15 to 20)
#    0.000    0.800    5.600    2.400    6.720    0.640 
#    1.440    0.400    0.000    0.000    0.000    0.000 
#    0.000    0.000    0.000    0.000    0.000    0.000 
#
# Total GULP energy -278989.604525 kJ/mol
# GULP energy per Si atom -5579.792090 kJ/mol
# Density = 1.923665 g / cm^3
# Si number density = 19.280538 Si / 1000 Ang^3
#
#
#
# Elastic Constant Matrix: (Units=GPa)
#
#
# Indices 1 2 3 4 5 6 
#
# 1 31.9223 -3.8485 12.6400 0.0000 0.0000 0.0000
# 2 -3.8485 122.5082 20.9038 0.0000 0.0000 0.0000
# 3 12.6400 20.9038 107.4800 0.0000 0.0000 0.0000
# 4 0.0000 0.0000 0.0000 27.8685 0.0000 0.0000
# 5 0.0000 0.0000 0.0000 0.0000 23.3756 0.0000
# 6 0.0000 0.0000 0.0000 0.0000 0.0000 10.4061
#
#
#
# Elastic Compliance Matrix: (Units=1/GPa)
#
#
# Indices 1 2 3 4 5 6 
#
# 1 0.033223 0.001769 -0.004251 0.000000 0.000000 0.000000
# 2 0.001769 0.008537 -0.001868 0.000000 0.000000 0.000000
# 3 -0.004251 -0.001868 0.010167 0.000000 0.000000 0.000000
# 4 0.000000 0.000000 0.000000 0.035883 0.000000 0.000000
# 5 0.000000 0.000000 0.000000 0.000000 0.042780 0.000000
# 6 0.000000 0.000000 0.000000 0.000000 0.000000 0.096098
#
#
# Mechanical properties :
#
#
# Convention : Reuss Voigt Hill
#
# Bulk Modulus (GPa) = 23.13420 35.70013 29.41716
# Shear Modulus (GPa) = 20.01625 27.81106 23.91365
#
# Velocity S-wave (km/s) = 3.22554 3.80207 3.52561
# Velocity P-wave (km/s) = 5.08890 6.15066 5.64480
#
# Compressibility (1/GPa) = 0.04322605
#
# Stress axis : x y z
#
# Youngs Moduli (GPa) = 30.09999 117.13569 98.35361
#
# Poissons Ratio (x) = -0.20722 0.41812
# Poissons Ratio (y) = -0.05325 0.18377
# Poissons Ratio (z) = 0.12796 0.21886
#
# Static dielectric constant tensor:
#      x y z
#    x 1.671950 0.000000 0.000000 
#    y 0.000000 -15.239450 0.000000 
#    z 0.000000 0.000000 1.674970 
# 
# From -- ./inp_files/58239.got.cif
#   From: 2010.05.17/outbox.cif.g08.bks.cpg/sg63_30_cif.got.tgz:58239.got - 2010.06.03 15:47:04.
