data_PCOD9475780
_publ_section_title
;
Structure prediction by ZEFSAII (Michael W. Deem and Ramdas Pophale) SiO2 
 PCOD9475780
Probable space group: C M C M
;
_chemical_formula_sum "Si O2"
_cell_formula_units_Z 48
_cell_length_a 7.611140
_cell_length_b 18.942806
_cell_length_c 17.117807
_cell_angle_alpha 90.000000
_cell_angle_beta 90.000000
_cell_angle_gamma 90.000000
_cell_volume 2467.982907
_symmetry_space_group_name_H-M "C M C M"
_symmetry_group_IT_number 63
_symmetry_cell_setting 'orthorhombic'
loop_
_space_group_symop_operation_xyz
x,y,z
-x,-y,1/2+z
x,-y,-z
-x,y,1/2-z
-x,-y,-z
x,y,1/2-z
-x,y,z
x,-y,1/2+z
1/2+x,1/2+y,z
1/2-x,1/2-y,1/2+z
1/2+x,1/2-y,-z
1/2-x,1/2+y,1/2-z
1/2-x,1/2-y,-z
1/2+x,1/2+y,1/2-z
1/2-x,1/2+y,z
1/2+x,1/2-y,1/2+z
loop_
_atom_site_type_symbol
_atom_site_label
_atom_site_fract_x
_atom_site_fract_y
_atom_site_fract_z
Si Si1 0.000000 0.870255 0.157727
Si Si2 0.294576 0.878129 0.658113
Si Si3 0.204457 0.728010 0.588661
Si Si4 0.500000 0.523621 0.089391
O O1 0.168824 0.833756 0.117953
O O2 0.000000 0.855590 0.250000
O O3 0.000000 0.953261 0.141376
O O4 0.269043 0.892271 0.750000
O O5 0.500000 0.887410 0.639080
O O6 0.242838 0.797519 0.639991
O O7 0.169067 0.928921 0.609216
O O8 0.250000 0.750000 0.500000
O O9 0.000000 0.708986 0.593675
O O10 0.500000 0.500000 0.000000
#
# Coordination Sequence:
#
# PCOD9475780 Si02
#       4
#     8  16  16   8
#     4  12  26  42  64 104 142 168 220 290 336 382
#     4  11  23  42  69  97 128 174 227 269 321 400
#     4  12  23  41  69  99 133 176 223 272 331 397
#     4  12  26  44  68  96 135 178 219 274 338 396
#
# _framework density 19.449082000000001
#
# number of rings (size 3 to 8) (size 9 to 14) (size 15 to 20)
#    0.000    0.333    5.000    4.500    0.000    4.000 
#    0.000    0.000    0.000    0.000    0.000    0.000 
#    0.000    0.000    0.000    0.000    0.000    0.000 
#
# Total GULP energy -134368.403591 kJ/mol
# GULP energy per Si atom -5598.683483 kJ/mol
# Density = 1.940481 g / cm^3
# Si number density = 19.449082 Si / 1000 Ang^3
#
#
#
# Elastic Constant Matrix: (Units=GPa)
#
#
# Indices 1 2 3 4 5 6 
#
# 1 154.3101 15.9388 13.6375 0.0000 0.0000 0.0000
# 2 15.9388 65.7984 -31.7261 0.0000 0.0000 0.0000
# 3 13.6375 -31.7261 49.3975 0.0000 0.0000 0.0000
# 4 0.0000 0.0000 0.0000 40.0065 0.0000 0.0000
# 5 0.0000 0.0000 0.0000 0.0000 6.7583 0.0000
# 6 0.0000 0.0000 0.0000 0.0000 0.0000 22.9937
#
#
#
# Elastic Compliance Matrix: (Units=1/GPa)
#
#
# Indices 1 2 3 4 5 6 
#
# 1 0.007293 -0.003966 -0.004560 0.000000 0.000000 0.000000
# 2 -0.003966 0.024172 0.016620 0.000000 0.000000 0.000000
# 3 -0.004560 0.016620 0.032177 0.000000 0.000000 0.000000
# 4 0.000000 0.000000 0.000000 0.024996 0.000000 0.000000
# 5 0.000000 0.000000 0.000000 0.000000 0.147965 0.000000
# 6 0.000000 0.000000 0.000000 0.000000 0.000000 0.043490
#
#
# Mechanical properties :
#
#
# Convention : Reuss Voigt Hill
#
# Bulk Modulus (GPa) = 12.52673 29.46740 20.99706
# Shear Modulus (GPa) = 17.21074 32.06209 24.63641
#
# Velocity S-wave (km/s) = 2.97798 4.06459 3.56295
# Velocity P-wave (km/s) = 4.27542 6.10015 5.26740
#
# Compressibility (1/GPa) = 0.07982931
#
# Stress axis : x y z
#
# Youngs Moduli (GPa) = 137.11603 41.37022 31.07809
#
# Poissons Ratio (x) = 0.16406 0.14173
# Poissons Ratio (y) = 0.54374 -0.51650
# Poissons Ratio (z) = 0.62530 -0.68755
#
# Static dielectric constant tensor:
#      x y z
#    x 1.649630 0.000000 0.000000 
#    y 0.000000 1.639970 0.000000 
#    z 0.000000 0.000000 1.674260 
# 
# From -- ./inp_files/26966.got.cif
#   From: 2010.05.17/outbox.cif.g08.bks.cpg/sg63_14_cif.got.tgz:26966.got - 2010.06.03 15:47:04.
