data_PCOD9475389
_publ_section_title
;
Structure prediction by ZEFSAII (Michael W. Deem and Ramdas Pophale) SiO2 
 PCOD9475389
Probable space group: C M C M
;
_chemical_formula_sum "Si O2"
_cell_formula_units_Z 116
_cell_length_a 19.024491
_cell_length_b 12.383279
_cell_length_c 26.496280
_cell_angle_alpha 90.000000
_cell_angle_beta 90.000000
_cell_angle_gamma 90.000000
_cell_volume 6242.141489
_symmetry_space_group_name_H-M "C M C M"
_symmetry_group_IT_number 63
_symmetry_cell_setting 'orthorhombic'
loop_
_space_group_symop_operation_xyz
x,y,z
-x,-y,1/2+z
x,-y,-z
-x,y,1/2-z
-x,-y,-z
x,y,1/2-z
-x,y,z
x,-y,1/2+z
1/2+x,1/2+y,z
1/2-x,1/2-y,1/2+z
1/2+x,1/2-y,-z
1/2-x,1/2+y,1/2-z
1/2-x,1/2-y,-z
1/2+x,1/2+y,1/2-z
1/2-x,1/2+y,z
1/2+x,1/2-y,1/2+z
loop_
_atom_site_type_symbol
_atom_site_label
_atom_site_fract_x
_atom_site_fract_y
_atom_site_fract_z
Si Si1 0.213152 0.240436 0.192561
Si Si2 0.082245 0.387684 0.903559
Si Si3 0.500000 0.724088 0.750000
Si Si4 0.323373 0.527095 0.136471
Si Si5 0.660874 0.836687 0.502643
Si Si6 0.675302 0.916001 0.387535
Si Si7 0.874301 0.799456 0.332250
Si Si8 0.181075 0.109521 0.469512
O O1 0.192103 0.263406 0.250000
O O2 0.195217 0.117103 0.177944
O O3 0.175102 0.318452 0.152224
O O4 0.296761 0.264679 0.187554
O O5 0.118871 0.490606 0.877724
O O6 0.112934 0.277100 0.880511
O O7 0.000000 0.390736 0.896158
O O8 0.103161 0.390766 0.962361
O O9 0.562614 0.722205 0.793731
O O10 0.251361 0.470332 0.118541
O O11 0.370568 0.427317 0.154919
O O12 0.347909 0.590335 0.086442
O O13 0.667422 0.876771 0.445209
O O14 0.735707 0.859175 0.530215
O O15 0.646858 0.709599 0.498144
O O16 0.173598 0.000000 0.500000
#
# Coordination Sequence:
#
# PCOD9475389 Si02
#       8
#    16  16   4  16  16  16  16  16
#     4  11  23  41  66  98 125 157 210 282 335 368
#     4  12  24  42  63  90 134 176 214 255 311 398
#     4  12  24  48  64  88 130 172 226 258 320 398
#     4  11  21  37  66  95 127 155 209 276 322 377
#     4  11  21  33  58  93 127 167 210 250 320 385
#     4  11  22  38  59  96 131 163 209 262 327 380
#     4  11  24  42  64  94 123 168 214 266 323 378
#     4  11  18  32  58  90 126 161 198 261 324 376
#
# _framework density 18.583366999999999
#
# number of rings (size 3 to 8) (size 9 to 14) (size 15 to 20)
#    0.000    0.828    6.897    1.241    4.828    1.655 
#    1.241    0.000    3.034    1.241    0.000    0.000 
#    0.000    0.000    0.000    0.000    0.000    0.000 
#
# Total GULP energy -323294.952375 kJ/mol
# GULP energy per Si atom -5574.050903 kJ/mol
# Density = 1.854107 g / cm^3
# Si number density = 18.583367 Si / 1000 Ang^3
#
#
#
# Elastic Constant Matrix: (Units=GPa)
#
#
# Indices 1 2 3 4 5 6 
#
# 1 46.6369 24.3561 21.0714 0.0000 0.0000 0.0000
# 2 24.3561 118.5855 35.6016 0.0000 0.0000 0.0000
# 3 21.0714 35.6016 111.8264 0.0000 0.0000 0.0000
# 4 0.0000 0.0000 0.0000 9.1939 0.0000 0.0000
# 5 0.0000 0.0000 0.0000 0.0000 20.2058 0.0000
# 6 0.0000 0.0000 0.0000 0.0000 0.0000 9.3234
#
#
#
# Elastic Compliance Matrix: (Units=1/GPa)
#
#
# Indices 1 2 3 4 5 6 
#
# 1 0.025149 -0.004138 -0.003421 0.000000 0.000000 0.000000
# 2 -0.004138 0.010005 -0.002405 0.000000 0.000000 0.000000
# 3 -0.003421 -0.002405 0.010353 0.000000 0.000000 0.000000
# 4 0.000000 0.000000 0.000000 0.108768 0.000000 0.000000
# 5 0.000000 0.000000 0.000000 0.000000 0.049491 0.000000
# 6 0.000000 0.000000 0.000000 0.000000 0.000000 0.107257
#
#
# Mechanical properties :
#
#
# Convention : Reuss Voigt Hill
#
# Bulk Modulus (GPa) = 39.09769 48.78966 43.94367
# Shear Modulus (GPa) = 14.72849 20.81262 17.77055
#
# Velocity S-wave (km/s) = 2.81830 3.35021 3.09570
# Velocity P-wave (km/s) = 5.62807 6.42469 6.03953
#
# Compressibility (1/GPa) = 0.02557696
#
# Stress axis : x y z
#
# Youngs Moduli (GPa) = 39.76263 99.95179 96.59106
#
# Poissons Ratio (x) = 0.41362 0.33048
# Poissons Ratio (y) = 0.16455 0.23234
# Poissons Ratio (z) = 0.13604 0.24043
#
# Static dielectric constant tensor:
#      x y z
#    x 1.616140 0.000000 0.000000 
#    y 0.000000 1.672280 0.000000 
#    z 0.000000 0.000000 1.667480 
# 
# From -- ./inp_files/70018.got.cif
#   From: 2010.05.17/outbox.cif.g08.bks.cpg/sg63_36_cif.got.tgz:70018.got - 2010.06.03 15:47:04.
