data_PCOD9475326
_publ_section_title
;
Structure prediction by ZEFSAII (Michael W. Deem and Ramdas Pophale) SiO2 
 PCOD9475326
Probable space group: C M C M
;
_chemical_formula_sum "Si O2"
_cell_formula_units_Z 84
_cell_length_a 22.184970
_cell_length_b 9.047905
_cell_length_c 21.696621
_cell_angle_alpha 90.000000
_cell_angle_beta 90.000000
_cell_angle_gamma 90.000000
_cell_volume 4355.108513
_symmetry_space_group_name_H-M "C M C M"
_symmetry_group_IT_number 63
_symmetry_cell_setting 'orthorhombic'
loop_
_space_group_symop_operation_xyz
x,y,z
-x,-y,1/2+z
x,-y,-z
-x,y,1/2-z
-x,-y,-z
x,y,1/2-z
-x,y,z
x,-y,1/2+z
1/2+x,1/2+y,z
1/2-x,1/2-y,1/2+z
1/2+x,1/2-y,-z
1/2-x,1/2+y,1/2-z
1/2-x,1/2-y,-z
1/2+x,1/2+y,1/2-z
1/2-x,1/2+y,z
1/2+x,1/2-y,1/2+z
loop_
_atom_site_type_symbol
_atom_site_label
_atom_site_fract_x
_atom_site_fract_y
_atom_site_fract_z
Si Si1 0.771191 0.087252 0.750000
Si Si2 0.173533 0.794514 0.750000
Si Si3 0.933749 0.987095 0.573594
Si Si4 0.813496 0.152930 0.884094
Si Si5 0.097737 0.298465 0.355635
Si Si6 0.500000 0.879419 0.250000
Si Si7 0.308586 0.991799 0.572987
O O1 0.702298 0.134377 0.750000
O O2 0.803021 0.145370 0.811055
O O3 0.773966 0.911833 0.750000
O O4 0.136551 0.810310 0.688243
O O5 0.929390 0.815907 0.594971
O O6 0.000000 0.041746 0.595004
O O7 0.931610 0.000000 0.500000
O O8 0.877201 0.080024 0.598391
O O9 0.757206 0.062023 0.913034
O O10 0.809768 0.321470 0.906571
O O11 0.141276 0.414485 0.389526
O O12 0.052155 0.368868 0.305636
O O13 0.320214 0.000000 0.500000
#
# Coordination Sequence:
#
# PCOD9475326 Si02
#       7
#     8   8  16  16  16   4  16
#     4  12  22  37  62  94 130 171 211 278 329 397
#     4  11  22  37  63  91 135 164 218 273 328 407
#     4  11  23  43  68  96 133 176 225 274 329 408
#     4  12  24  42  65 102 137 175 224 275 347 389
#     4  11  22  43  67  99 126 180 228 266 342 396
#     4  10  24  42  72  90 136 174 228 278 326 416
#     4  12  25  43  70 101 140 178 223 284 336 404
#
# _framework density 19.287693999999998
#
# number of rings (size 3 to 8) (size 9 to 14) (size 15 to 20)
#    0.000    0.571    4.762    4.571    0.000    0.762 
#    1.714    0.476    0.000    0.000    0.000    0.000 
#    0.000    0.000    0.000    0.000    0.000    0.000 
#
# Total GULP energy -233932.240413 kJ/mol
# GULP energy per Si atom -5569.815248 kJ/mol
# Density = 1.924379 g / cm^3
# Si number density = 19.287694 Si / 1000 Ang^3
#
#
#
# Elastic Constant Matrix: (Units=GPa)
#
#
# Indices 1 2 3 4 5 6 
#
# 1 155.9036 59.2287 59.9315 0.0000 0.0000 0.0000
# 2 59.2287 103.4552 36.3635 0.0000 0.0000 0.0000
# 3 59.9315 36.3635 146.0089 0.0000 0.0000 0.0000
# 4 0.0000 0.0000 0.0000 27.2991 0.0000 0.0000
# 5 0.0000 0.0000 0.0000 0.0000 82.5369 0.0000
# 6 0.0000 0.0000 0.0000 0.0000 0.0000 16.4559
#
#
#
# Elastic Compliance Matrix: (Units=1/GPa)
#
#
# Indices 1 2 3 4 5 6 
#
# 1 0.009049 -0.004247 -0.002657 0.000000 0.000000 0.000000
# 2 -0.004247 0.012586 -0.001392 0.000000 0.000000 0.000000
# 3 -0.002657 -0.001392 0.008286 0.000000 0.000000 0.000000
# 4 0.000000 0.000000 0.000000 0.036631 0.000000 0.000000
# 5 0.000000 0.000000 0.000000 0.000000 0.012116 0.000000
# 6 0.000000 0.000000 0.000000 0.000000 0.000000 0.060769
#
#
# Mechanical properties :
#
#
# Convention : Reuss Voigt Hill
#
# Bulk Modulus (GPa) = 75.01050 79.60169 77.30609
# Shear Modulus (GPa) = 31.15843 41.91462 36.53653
#
# Velocity S-wave (km/s) = 4.02363 4.66674 4.35707
# Velocity P-wave (km/s) = 7.78209 8.39037 8.09195
#
# Compressibility (1/GPa) = 0.01333147
#
# Stress axis : x y z
#
# Youngs Moduli (GPa) = 110.51192 79.45081 120.68724
#
# Poissons Ratio (x) = 0.33741 0.32061
# Poissons Ratio (y) = 0.46931 0.16794
# Poissons Ratio (z) = 0.29358 0.11056
#
# Static dielectric constant tensor:
#      x y z
#    x 1.687530 0.000000 0.000000 
#    y 0.000000 1.666160 0.000000 
#    z 0.000000 0.000000 1.698330 
# 
# From -- ./inp_files/64365.got.cif
#   From: 2010.05.17/outbox.cif.g08.bks.cpg/sg63_33_cif.got.tgz:64365.got - 2010.06.03 15:47:04.
