data_PCOD9475448
_publ_section_title
;
Structure prediction by ZEFSAII (Michael W. Deem and Ramdas Pophale) SiO2 
 PCOD9475448
Probable space group: C M C M
;
_chemical_formula_sum "Si O2"
_cell_formula_units_Z 80
_cell_length_a 23.863179
_cell_length_b 20.729683
_cell_length_c 10.172757
_cell_angle_alpha 90.000000
_cell_angle_beta 90.000000
_cell_angle_gamma 90.000000
_cell_volume 5032.220126
_symmetry_space_group_name_H-M "C M C M"
_symmetry_group_IT_number 63
_symmetry_cell_setting 'orthorhombic'
loop_
_space_group_symop_operation_xyz
x,y,z
-x,-y,1/2+z
x,-y,-z
-x,y,1/2-z
-x,-y,-z
x,y,1/2-z
-x,y,z
x,-y,1/2+z
1/2+x,1/2+y,z
1/2-x,1/2-y,1/2+z
1/2+x,1/2-y,-z
1/2-x,1/2+y,1/2-z
1/2-x,1/2-y,-z
1/2+x,1/2+y,1/2-z
1/2-x,1/2+y,z
1/2+x,1/2-y,1/2+z
loop_
_atom_site_type_symbol
_atom_site_label
_atom_site_fract_x
_atom_site_fract_y
_atom_site_fract_z
Si Si1 0.738194 0.054518 0.750000
Si Si2 0.262435 0.652015 0.973828
Si Si3 0.063752 0.654967 0.975418
Si Si4 0.275022 0.905438 0.750000
Si Si5 0.662906 0.750180 0.096122
Si Si6 0.102015 0.441102 0.250000
Si Si7 0.409439 0.909670 0.750000
O O1 0.762654 0.091285 0.623254
O O2 0.670038 0.060525 0.750000
O O3 0.748246 0.978282 0.750000
O O4 0.243420 0.630134 0.118159
O O5 0.319257 0.691694 0.000557
O O6 0.215287 0.700147 0.915666
O O7 0.068934 0.625992 0.120863
O O8 0.000000 0.674845 0.948956
O O9 0.107866 0.712116 0.950631
O O10 0.081070 0.597829 0.876276
O O11 0.342095 0.906615 0.750000
O O12 0.657260 0.731900 0.250000
O O13 0.078987 0.513785 0.250000
#
# Coordination Sequence:
#
# PCOD9475448 Si02
#       7
#     8  16  16   8  16   8   8
#     4  11  20  35  53  79 107 130 175 214 258 312
#     4  11  20  34  54  76 101 135 170 210 263 317
#     4  12  23  36  52  71 100 137 183 223 255 293
#     4  11  20  33  55  77 105 140 167 212 260 306
#     4  11  21  35  53  74 101 133 180 214 259 314
#     4  11  21  37  51  69 103 144 180 215 249 299
#     4  11  23  35  49  73 105 136 182 221 253 289
#
# _framework density 15.897556
#
# number of rings (size 3 to 8) (size 9 to 14) (size 15 to 20)
#    0.000    0.800    7.000    1.800    0.000    6.400 
#    0.000    0.000    0.000    0.000    0.000    0.000 
#    0.000    4.800    0.000    0.000    0.000    0.000 
#
# Total GULP energy -223393.650920 kJ/mol
# GULP energy per Si atom -5584.841273 kJ/mol
# Density = 1.586137 g / cm^3
# Si number density = 15.897556 Si / 1000 Ang^3
#
#
#
# Elastic Constant Matrix: (Units=GPa)
#
#
# Indices 1 2 3 4 5 6 
#
# 1 89.6286 34.8041 18.6762 0.0000 0.0000 0.0000
# 2 34.8041 33.8300 3.1938 0.0000 0.0000 0.0000
# 3 18.6762 3.1938 96.9789 0.0000 0.0000 0.0000
# 4 0.0000 0.0000 0.0000 37.9629 0.0000 0.0000
# 5 0.0000 0.0000 0.0000 0.0000 45.3615 0.0000
# 6 0.0000 0.0000 0.0000 0.0000 0.0000 14.3925
#
#
#
# Elastic Compliance Matrix: (Units=1/GPa)
#
#
# Indices 1 2 3 4 5 6 
#
# 1 0.019466 -0.019734 -0.003099 0.000000 0.000000 0.000000
# 2 -0.019734 0.049657 0.002165 0.000000 0.000000 0.000000
# 3 -0.003099 0.002165 0.010837 0.000000 0.000000 0.000000
# 4 0.000000 0.000000 0.000000 0.026342 0.000000 0.000000
# 5 0.000000 0.000000 0.000000 0.000000 0.022045 0.000000
# 6 0.000000 0.000000 0.000000 0.000000 0.000000 0.069481
#
#
# Mechanical properties :
#
#
# Convention : Reuss Voigt Hill
#
# Bulk Modulus (GPa) = 25.89013 37.08728 31.48871
# Shear Modulus (GPa) = 19.83835 30.46095 25.14965
#
# Velocity S-wave (km/s) = 3.53638 4.38205 3.98173
# Velocity P-wave (km/s) = 5.74418 6.99877 6.40228
#
# Compressibility (1/GPa) = 0.03862476
#
# Stress axis : x y z
#
# Youngs Moduli (GPa) = 51.37235 20.13810 92.27654
#
# Poissons Ratio (x) = 0.39740 0.28595
# Poissons Ratio (y) = 1.01377 -0.19978
# Poissons Ratio (z) = 0.15919 -0.04360
#
# Static dielectric constant tensor:
#      x y z
#    x 1.519260 0.000000 0.000000 
#    y 0.000000 1.538440 0.000000 
#    z 0.000000 0.000000 1.499610 
# 
# From -- ./inp_files/10150.got.cif
#   From: 2010.05.17/outbox.cif.g08.bks.cpg/sg63_6_cif.got.tgz:10150.got - 2010.06.03 15:47:04.
