data_PCOD9475838
_publ_section_title
;
Structure prediction by ZEFSAII (Michael W. Deem and Ramdas Pophale) SiO2 
 PCOD9475838
Probable space group: C M C M
;
_chemical_formula_sum "Si O2"
_cell_formula_units_Z 64
_cell_length_a 15.388643
_cell_length_b 9.280798
_cell_length_c 22.573887
_cell_angle_alpha 90.000000
_cell_angle_beta 90.000000
_cell_angle_gamma 90.000000
_cell_volume 3223.977421
_symmetry_space_group_name_H-M "C M C M"
_symmetry_group_IT_number 63
_symmetry_cell_setting 'orthorhombic'
loop_
_space_group_symop_operation_xyz
x,y,z
-x,-y,1/2+z
x,-y,-z
-x,y,1/2-z
-x,-y,-z
x,y,1/2-z
-x,y,z
x,-y,1/2+z
1/2+x,1/2+y,z
1/2-x,1/2-y,1/2+z
1/2+x,1/2-y,-z
1/2-x,1/2+y,1/2-z
1/2-x,1/2-y,-z
1/2+x,1/2+y,1/2-z
1/2-x,1/2+y,z
1/2+x,1/2-y,1/2+z
loop_
_atom_site_type_symbol
_atom_site_label
_atom_site_fract_x
_atom_site_fract_y
_atom_site_fract_z
Si Si1 0.158730 0.308661 0.872521
Si Si2 0.104121 0.536353 0.250000
Si Si3 0.167477 0.964530 0.867729
Si Si4 0.500000 0.853435 0.535686
Si Si5 0.893886 0.803705 0.750000
Si Si6 0.500000 0.603460 0.445140
O O1 0.134507 0.382473 0.809497
O O2 0.245429 0.391720 0.892570
O O3 0.082589 0.329949 0.920858
O O4 0.174373 0.137709 0.863367
O O5 0.129963 0.366659 0.250000
O O6 0.000000 0.538822 0.250000
O O7 0.145923 0.886441 0.805873
O O8 0.085044 0.926058 0.907411
O O9 0.500000 0.751872 0.478680
O O10 0.500000 0.000000 0.500000
O O11 0.000000 0.813973 0.750000
O O12 0.500000 0.500000 0.500000
#
# Coordination Sequence:
#
# PCOD9475838 Si02
#       6
#    16   8  16   8   8   8
#     4  12  26  47  71 107 138 185 226 290 345 412
#     4  11  24  43  74 104 144 174 232 281 353 413
#     4  12  26  45  75 102 143 178 234 283 350 409
#     4  12  30  47  74  99 141 186 237 284 344 404
#     4  11  24  43  74 108 136 184 222 289 349 415
#     4  12  26  51  70 101 137 188 235 282 338 412
#
# _framework density 19.851254999999998
#
# number of rings (size 3 to 8) (size 9 to 14) (size 15 to 20)
#    0.000    0.250    5.000    3.000    7.000    3.000 
#    0.000    0.000    0.000    0.000    0.000    0.000 
#    0.000    0.000    0.000    0.000    0.000    0.000 
#
# Total GULP energy -178890.201936 kJ/mol
# GULP energy per Si atom -5590.318811 kJ/mol
# Density = 1.980607 g / cm^3
# Si number density = 19.851255 Si / 1000 Ang^3
#
#
#
# Elastic Constant Matrix: (Units=GPa)
#
#
# Indices 1 2 3 4 5 6 
#
# 1 162.4495 70.9104 48.6738 0.0000 0.0000 0.0000
# 2 70.9104 237.9290 62.4973 0.0000 0.0000 0.0000
# 3 48.6738 62.4973 98.6727 0.0000 0.0000 0.0000
# 4 0.0000 0.0000 0.0000 40.5075 0.0000 0.0000
# 5 0.0000 0.0000 0.0000 0.0000 92.4423 0.0000
# 6 0.0000 0.0000 0.0000 0.0000 0.0000 12.6891
#
#
#
# Elastic Compliance Matrix: (Units=1/GPa)
#
#
# Indices 1 2 3 4 5 6 
#
# 1 0.007672 -0.001550 -0.002803 0.000000 0.000000 0.000000
# 2 -0.001550 0.005355 -0.002627 0.000000 0.000000 0.000000
# 3 -0.002803 -0.002627 0.013181 0.000000 0.000000 0.000000
# 4 0.000000 0.000000 0.000000 0.024687 0.000000 0.000000
# 5 0.000000 0.000000 0.000000 0.000000 0.010818 0.000000
# 6 0.000000 0.000000 0.000000 0.000000 0.000000 0.078808
#
#
# Mechanical properties :
#
#
# Convention : Reuss Voigt Hill
#
# Bulk Modulus (GPa) = 81.64486 95.91268 88.77877
# Shear Modulus (GPa) = 31.53319 50.25910 40.89614
#
# Velocity S-wave (km/s) = 3.98989 5.03714 4.54379
# Velocity P-wave (km/s) = 7.90210 9.06923 8.50571
#
# Compressibility (1/GPa) = 0.01224817
#
# Stress axis : x y z
#
# Youngs Moduli (GPa) = 130.33977 186.74005 75.86750
#
# Poissons Ratio (x) = 0.28952 0.21263
# Poissons Ratio (y) = 0.20208 0.19930
# Poissons Ratio (z) = 0.36529 0.49056
#
# Static dielectric constant tensor:
#      x y z
#    x 1.725730 0.000000 0.000000 
#    y 0.000000 1.645020 0.000000 
#    z 0.000000 0.000000 1.624560 
# 
# From -- ./inp_files/62395.got.cif
#   From: 2010.05.17/outbox.cif.g08.bks.cpg/sg63_32_cif.got.tgz:62395.got - 2010.06.03 15:47:04.
