data_PCOD9475592
_publ_section_title
;
Structure prediction by ZEFSAII (Michael W. Deem and Ramdas Pophale) SiO2 
 PCOD9475592
Probable space group: C M C M
;
_chemical_formula_sum "Si O2"
_cell_formula_units_Z 80
_cell_length_a 18.911200
_cell_length_b 7.327860
_cell_length_c 28.572589
_cell_angle_alpha 90.000000
_cell_angle_beta 90.000000
_cell_angle_gamma 90.000000
_cell_volume 3959.550126
_symmetry_space_group_name_H-M "C M C M"
_symmetry_group_IT_number 63
_symmetry_cell_setting 'orthorhombic'
loop_
_space_group_symop_operation_xyz
x,y,z
-x,-y,1/2+z
x,-y,-z
-x,y,1/2-z
-x,-y,-z
x,y,1/2-z
-x,y,z
x,-y,1/2+z
1/2+x,1/2+y,z
1/2-x,1/2-y,1/2+z
1/2+x,1/2-y,-z
1/2-x,1/2+y,1/2-z
1/2-x,1/2-y,-z
1/2+x,1/2+y,1/2-z
1/2-x,1/2+y,z
1/2+x,1/2-y,1/2+z
loop_
_atom_site_type_symbol
_atom_site_label
_atom_site_fract_x
_atom_site_fract_y
_atom_site_fract_z
Si Si1 0.418956 0.258498 0.900580
Si Si2 0.835265 0.607065 0.401377
Si Si3 0.692005 0.523489 0.946159
Si Si4 0.299421 0.905092 0.698876
Si Si5 0.859693 0.183615 0.198759
O O1 0.500000 0.280668 0.913975
O O2 0.395213 0.046662 0.903139
O O3 0.365403 0.372843 0.932364
O O4 0.406628 0.330491 0.847351
O O5 0.761663 0.505781 0.414467
O O6 0.839904 0.222315 0.564207
O O7 0.828603 0.682929 0.348411
O O8 0.712752 0.500000 0.000000
O O9 0.313716 0.819599 0.750000
O O10 0.333521 0.105562 0.699234
O O11 0.214792 0.921434 0.694419
O O12 0.891468 0.143312 0.250000
#
# Coordination Sequence:
#
# PCOD9475592 Si02
#       5
#    16  16  16  16  16
#     4  11  25  41  59  90 129 162 200 253 311 369
#     4  11  21  40  66  92 121 160 203 255 306 363
#     4  12  24  40  68  93 117 156 214 261 305 362
#     4   9  16  29  54  90 117 146 194 247 293 352
#     4   9  17  31  55  85 118 155 196 243 302 363
#
# _framework density 20.204314
#
# number of rings (size 3 to 8) (size 9 to 14) (size 15 to 20)
#    0.000    1.600    4.000    1.800    0.000    1.600 
#    0.000    1.000    0.000    0.000    0.000    2.800 
#    0.000    0.000    0.000    0.000    0.000    0.000 
#
# Total GULP energy -223316.073136 kJ/mol
# GULP energy per Si atom -5582.901828 kJ/mol
# Density = 2.015833 g / cm^3
# Si number density = 20.204314 Si / 1000 Ang^3
#
#
#
# Elastic Constant Matrix: (Units=GPa)
#
#
# Indices 1 2 3 4 5 6 
#
# 1 46.0766 -6.6010 -5.3118 0.0000 0.0000 0.0000
# 2 -6.6010 41.6125 -5.1714 0.0000 0.0000 0.0000
# 3 -5.3118 -5.1714 79.6619 0.0000 0.0000 0.0000
# 4 0.0000 0.0000 0.0000 28.6369 0.0000 0.0000
# 5 0.0000 0.0000 0.0000 0.0000 2.7185 0.0000
# 6 0.0000 0.0000 0.0000 0.0000 0.0000 14.7662
#
#
#
# Elastic Compliance Matrix: (Units=1/GPa)
#
#
# Indices 1 2 3 4 5 6 
#
# 1 0.022445 0.003777 0.001742 0.000000 0.000000 0.000000
# 2 0.003777 0.024862 0.001866 0.000000 0.000000 0.000000
# 3 0.001742 0.001866 0.012790 0.000000 0.000000 0.000000
# 4 0.000000 0.000000 0.000000 0.034920 0.000000 0.000000
# 5 0.000000 0.000000 0.000000 0.000000 0.367853 0.000000
# 6 0.000000 0.000000 0.000000 0.000000 0.000000 0.067722
#
#
# Mechanical properties :
#
#
# Convention : Reuss Voigt Hill
#
# Bulk Modulus (GPa) = 13.35712 14.79808 14.07760
# Shear Modulus (GPa) = 9.24591 21.51998 15.38294
#
# Velocity S-wave (km/s) = 2.14153 3.26716 2.76229
# Velocity P-wave (km/s) = 3.56935 4.64462 4.14203
#
# Compressibility (1/GPa) = 0.07486642
#
# Stress axis : x y z
#
# Youngs Moduli (GPa) = 44.55360 40.22163 78.18419
#
# Poissons Ratio (x) = -0.15191 -0.13618
# Poissons Ratio (y) = -0.16827 -0.14588
# Poissons Ratio (z) = -0.07760 -0.07505
#
# Static dielectric constant tensor:
#      x y z
#    x 1.660230 0.000000 0.000000 
#    y 0.000000 1.759450 0.000000 
#    z 0.000000 0.000000 1.762340 
# 
# From -- ./inp_files/73723.got.cif
#   From: 2010.05.17/outbox.cif.g08.bks.cpg/sg63_37_cif.got.tgz:73723.got - 2010.06.03 15:47:04.
