data_PCOD9475234
_publ_section_title
;
Structure prediction by ZEFSAII (Michael W. Deem and Ramdas Pophale) SiO2 
 PCOD9475234
Probable space group: C M C M
;
_chemical_formula_sum "Si O2"
_cell_formula_units_Z 64
_cell_length_a 20.490979
_cell_length_b 9.643734
_cell_length_c 16.732923
_cell_angle_alpha 90.000000
_cell_angle_beta 90.000000
_cell_angle_gamma 90.000000
_cell_volume 3306.585399
_symmetry_space_group_name_H-M "C M C M"
_symmetry_group_IT_number 63
_symmetry_cell_setting 'orthorhombic'
loop_
_space_group_symop_operation_xyz
x,y,z
-x,-y,1/2+z
x,-y,-z
-x,y,1/2-z
-x,-y,-z
x,y,1/2-z
-x,y,z
x,-y,1/2+z
1/2+x,1/2+y,z
1/2-x,1/2-y,1/2+z
1/2+x,1/2-y,-z
1/2-x,1/2+y,1/2-z
1/2-x,1/2-y,-z
1/2+x,1/2+y,1/2-z
1/2-x,1/2+y,z
1/2+x,1/2-y,1/2+z
loop_
_atom_site_type_symbol
_atom_site_label
_atom_site_fract_x
_atom_site_fract_y
_atom_site_fract_z
Si Si1 0.873519 0.960515 0.346940
Si Si2 0.381998 0.785702 0.345045
Si Si3 0.500000 0.285160 0.154465
Si Si4 0.257921 0.877862 0.440604
Si Si5 0.000000 0.471809 0.406709
O O1 0.864106 0.947513 0.250000
O O2 0.888837 0.122086 0.364106
O O3 0.934339 0.864276 0.372594
O O4 0.808632 0.917430 0.394669
O O5 0.385872 0.798921 0.250000
O O6 0.312977 0.839424 0.376999
O O7 0.437770 0.880640 0.382498
O O8 0.500000 0.298740 0.250000
O O9 0.500000 0.123401 0.133533
O O10 0.250000 0.750000 0.500000
O O11 0.278898 0.000000 0.500000
O O12 0.000000 0.500000 0.500000
#
# Coordination Sequence:
#
# PCOD9475234 Si02
#       5
#    16  16   8  16   8
#     4  10  23  44  68  94 129 175 220 265 324 393
#     4  11  24  45  68  94 130 178 221 265 325 397
#     4  10  23  42  67  96 127 166 215 267 321 385
#     4  12  25  43  65  97 135 169 217 272 330 385
#     4  12  27  42  66 100 134 165 218 274 330 382
#
# _framework density 19.355314
#
# number of rings (size 3 to 8) (size 9 to 14) (size 15 to 20)
#    0.000    1.000    2.500    3.375    7.000    2.000 
#    0.000    1.875    0.000    0.000    0.000    0.000 
#    0.000    0.000    0.000    0.000    0.000    0.000 
#
# Total GULP energy -178916.286234 kJ/mol
# GULP energy per Si atom -5591.133945 kJ/mol
# Density = 1.931126 g / cm^3
# Si number density = 19.355314 Si / 1000 Ang^3
#
#
#
# Elastic Constant Matrix: (Units=GPa)
#
#
# Indices 1 2 3 4 5 6 
#
# 1 153.9470 82.8259 54.5526 0.0000 0.0000 0.0000
# 2 82.8259 169.9589 54.6265 0.0000 0.0000 0.0000
# 3 54.5526 54.6265 69.7205 0.0000 0.0000 0.0000
# 4 0.0000 0.0000 0.0000 38.2656 0.0000 0.0000
# 5 0.0000 0.0000 0.0000 0.0000 -536.8157 0.0000
# 6 0.0000 0.0000 0.0000 0.0000 0.0000 40.8417
#
#
#
# Elastic Compliance Matrix: (Units=1/GPa)
#
#
# Indices 1 2 3 4 5 6 
#
# 1 0.010139 -0.003196 -0.005429 0.000000 0.000000 0.000000
# 2 -0.003196 0.008872 -0.004450 0.000000 0.000000 0.000000
# 3 -0.005429 -0.004450 0.022078 0.000000 0.000000 0.000000
# 4 0.000000 0.000000 0.000000 0.026133 0.000000 0.000000
# 5 0.000000 0.000000 0.000000 0.000000 -0.001863 0.000000
# 6 0.000000 0.000000 0.000000 0.000000 0.000000 0.024485
#
#
# Mechanical properties :
#
#
# Convention : Reuss Voigt Hill
#
# Bulk Modulus (GPa) = 66.94512 86.40403 76.67458
# Shear Modulus (GPa) = 41.33116 -78.10025 -18.38454
#
# Velocity S-wave (km/s) = 4.62604 -6.35912 -3.08530
# Velocity P-wave (km/s) = 7.94961 3.02985 5.19694
#
# Compressibility (1/GPa) = 0.01493761
#
# Stress axis : x y z
#
# Youngs Moduli (GPa) = 98.62722 112.71821 45.29432
#
# Poissons Ratio (x) = 0.36026 0.24591
# Poissons Ratio (y) = 0.31522 0.20157
# Poissons Ratio (z) = 0.53547 0.50162
#
# Static dielectric constant tensor:
#      x y z
#    x 1.653720 0.000000 0.000000 
#    y 0.000000 1.693090 0.000000 
#    z 0.000000 0.000000 1.650940 
# 
# From -- ./inp_files/46546.got.cif
#   From: 2010.05.17/outbox.cif.g08.bks.cpg/sg63_24_cif.got.tgz:46546.got - 2010.06.03 15:47:04.
