data_PCOD9475364
_publ_section_title
;
Structure prediction by ZEFSAII (Michael W. Deem and Ramdas Pophale) SiO2 
 PCOD9475364
Probable space group: C M C M
;
_chemical_formula_sum "Si O2"
_cell_formula_units_Z 92
_cell_length_a 16.045927
_cell_length_b 12.531572
_cell_length_c 21.526000
_cell_angle_alpha 90.000000
_cell_angle_beta 90.000000
_cell_angle_gamma 90.000000
_cell_volume 4328.462922
_symmetry_space_group_name_H-M "C M C M"
_symmetry_group_IT_number 63
_symmetry_cell_setting 'orthorhombic'
loop_
_space_group_symop_operation_xyz
x,y,z
-x,-y,1/2+z
x,-y,-z
-x,y,1/2-z
-x,-y,-z
x,y,1/2-z
-x,y,z
x,-y,1/2+z
1/2+x,1/2+y,z
1/2-x,1/2-y,1/2+z
1/2+x,1/2-y,-z
1/2-x,1/2+y,1/2-z
1/2-x,1/2-y,-z
1/2+x,1/2+y,1/2-z
1/2-x,1/2+y,z
1/2+x,1/2-y,1/2+z
loop_
_atom_site_type_symbol
_atom_site_label
_atom_site_fract_x
_atom_site_fract_y
_atom_site_fract_z
Si Si1 0.867746 0.360701 0.415641
Si Si2 0.653606 0.187237 0.444082
Si Si3 0.597031 0.586564 0.250000
Si Si4 0.193347 0.070811 0.940737
Si Si5 0.500000 0.623864 0.750000
Si Si6 0.333039 0.370369 0.618159
Si Si7 0.000000 0.308232 0.851349
Si Si8 0.500000 0.954526 0.179041
O O1 0.871245 0.371451 0.491240
O O2 0.774328 0.400121 0.400855
O O3 0.879974 0.235012 0.404476
O O4 0.924570 0.420640 0.366418
O O5 0.664054 0.312712 0.461117
O O6 0.738411 0.147740 0.408949
O O7 0.580123 0.186070 0.395240
O O8 0.500000 0.629268 0.250000
O O9 0.578223 0.458515 0.250000
O O10 0.650082 0.623315 0.190971
O O11 0.135789 0.986542 0.905228
O O12 0.215891 0.000000 0.000000
O O13 0.500000 0.702906 0.808973
O O14 0.000000 0.418508 0.814697
O O15 0.500000 0.909753 0.250000
#
# Coordination Sequence:
#
# PCOD9475364 Si02
#       8
#    16  16   8  16   4  16   8   8
#     4  11  24  41  68 102 138 179 234 295 346 421
#     4  11  23  41  71 108 135 185 234 291 356 409
#     4  10  26  45  70  99 136 187 230 281 340 416
#     4  11  19  41  68  99 141 176 228 285 355 417
#     4  10  24  50  64  94 146 180 230 284 342 412
#     4  11  22  42  69 100 142 184 229 291 345 416
#     4  12  25  46  69  95 147 179 234 296 344 421
#     4  12  29  46  68  95 137 192 232 286 360 428
#
# _framework density 21.254657000000002
#
# number of rings (size 3 to 8) (size 9 to 14) (size 15 to 20)
#    0.261    0.696    3.913    3.652    2.435    1.391 
#    4.696    1.304    0.000    0.000    0.000    0.000 
#    0.000    0.000    0.000    0.000    0.000    0.000 
#
# Total GULP energy -256172.946767 kJ/mol
# GULP energy per Si atom -5568.977104 kJ/mol
# Density = 2.120628 g / cm^3
# Si number density = 21.254657 Si / 1000 Ang^3
#
#
#
# Elastic Constant Matrix: (Units=GPa)
#
#
# Indices 1 2 3 4 5 6 
#
# 1 54.3848 23.0659 48.7944 0.0000 0.0000 0.0000
# 2 23.0659 127.1335 54.2035 0.0000 0.0000 0.0000
# 3 48.7944 54.2035 182.1337 0.0000 0.0000 0.0000
# 4 0.0000 0.0000 0.0000 34.8076 0.0000 0.0000
# 5 0.0000 0.0000 0.0000 0.0000 62.6070 0.0000
# 6 0.0000 0.0000 0.0000 0.0000 0.0000 13.6832
#
#
#
# Elastic Compliance Matrix: (Units=1/GPa)
#
#
# Indices 1 2 3 4 5 6 
#
# 1 0.024597 -0.001893 -0.006026 0.000000 0.000000 0.000000
# 2 -0.001893 0.009155 -0.002217 0.000000 0.000000 0.000000
# 3 -0.006026 -0.002217 0.007765 0.000000 0.000000 0.000000
# 4 0.000000 0.000000 0.000000 0.028729 0.000000 0.000000
# 5 0.000000 0.000000 0.000000 0.000000 0.015973 0.000000
# 6 0.000000 0.000000 0.000000 0.000000 0.000000 0.073082
#
#
# Mechanical properties :
#
#
# Convention : Reuss Voigt Hill
#
# Bulk Modulus (GPa) = 47.07433 68.41995 57.74714
# Shear Modulus (GPa) = 26.78729 38.05877 32.42303
#
# Velocity S-wave (km/s) = 3.55392 4.23615 3.90994
# Velocity P-wave (km/s) = 6.24791 7.49580 6.90012
#
# Compressibility (1/GPa) = 0.02124300
#
# Stress axis : x y z
#
# Youngs Moduli (GPa) = 40.65483 109.23517 128.78679
#
# Poissons Ratio (x) = 0.20683 0.77610
# Poissons Ratio (y) = 0.07698 0.28554
# Poissons Ratio (z) = 0.24500 0.24219
#
# Static dielectric constant tensor:
#      x y z
#    x 1.788780 0.000000 0.000000 
#    y 0.000000 1.851360 0.000000 
#    z 0.000000 0.000000 1.786760 
# 
# From -- ./inp_files/55473.got.cif
#   From: 2010.05.17/outbox.cif.g08.bks.cpg/sg63_28_cif.got.tgz:55473.got - 2010.06.03 15:47:04.
