data_PCOD9475267
_publ_section_title
;
Structure prediction by ZEFSAII (Michael W. Deem and Ramdas Pophale) SiO2 
 PCOD9475267
Probable space group: C M C M
;
_chemical_formula_sum "Si O2"
_cell_formula_units_Z 64
_cell_length_a 17.633029
_cell_length_b 10.992217
_cell_length_c 13.900586
_cell_angle_alpha 90.000000
_cell_angle_beta 90.000000
_cell_angle_gamma 90.000000
_cell_volume 2694.296110
_symmetry_space_group_name_H-M "C M C M"
_symmetry_group_IT_number 63
_symmetry_cell_setting 'orthorhombic'
loop_
_space_group_symop_operation_xyz
x,y,z
-x,-y,1/2+z
x,-y,-z
-x,y,1/2-z
-x,-y,-z
x,y,1/2-z
-x,y,z
x,-y,1/2+z
1/2+x,1/2+y,z
1/2-x,1/2-y,1/2+z
1/2+x,1/2-y,-z
1/2-x,1/2+y,1/2-z
1/2-x,1/2-y,-z
1/2+x,1/2+y,1/2-z
1/2-x,1/2+y,z
1/2+x,1/2-y,1/2+z
loop_
_atom_site_type_symbol
_atom_site_label
_atom_site_fract_x
_atom_site_fract_y
_atom_site_fract_z
Si Si1 0.416070 0.303205 0.635108
Si Si2 0.589979 0.822100 0.862927
Si Si3 0.341207 0.445323 0.135136
Si Si4 0.696646 0.137406 0.968914
O O1 0.419805 0.309631 0.750000
O O2 0.500000 0.283960 0.595695
O O3 0.383982 0.433285 0.601989
O O4 0.362148 0.194222 0.606067
O O5 0.607264 0.848037 0.750000
O O6 0.500000 0.841942 0.876922
O O7 0.611438 0.679272 0.880217
O O8 0.643505 0.893013 0.938402
O O9 0.330655 0.453728 0.250000
O O10 0.259237 0.442306 0.086024
O O11 0.750000 0.250000 0.000000
#
# Coordination Sequence:
#
# PCOD9475267 Si02
#       4
#    16  16  16  16
#     4  10  23  45  73 103 136 180 234 289 344 408
#     4  10  23  44  69  97 133 181 235 292 349 406
#     4  10  23  43  71 102 135 175 231 295 353 408
#     4  12  27  42  65 100 143 183 226 277 345 419
#
# _framework density 23.753885
#
# number of rings (size 3 to 8) (size 9 to 14) (size 15 to 20)
#    0.000    1.500    0.000    3.000    7.000    7.000 
#    0.000    5.000    0.000    0.000    0.000    0.000 
#    0.000    2.000    0.000    0.000    0.000    0.000 
#
# Total GULP energy -178949.605821 kJ/mol
# GULP energy per Si atom -5592.175182 kJ/mol
# Density = 2.369982 g / cm^3
# Si number density = 23.753885 Si / 1000 Ang^3
#
#
#
# Elastic Constant Matrix: (Units=GPa)
#
#
# Indices 1 2 3 4 5 6 
#
# 1 179.3411 14.0401 37.3377 0.0000 0.0000 0.0000
# 2 14.0401 21.1324 -2.1371 0.0000 0.0000 0.0000
# 3 37.3377 -2.1371 88.1049 0.0000 0.0000 0.0000
# 4 0.0000 0.0000 0.0000 38.3787 0.0000 0.0000
# 5 0.0000 0.0000 0.0000 0.0000 -7.9755 0.0000
# 6 0.0000 0.0000 0.0000 0.0000 0.0000 33.6710
#
#
#
# Elastic Compliance Matrix: (Units=1/GPa)
#
#
# Indices 1 2 3 4 5 6 
#
# 1 0.006539 -0.004636 -0.002884 0.000000 0.000000 0.000000
# 2 -0.004636 0.050724 0.003195 0.000000 0.000000 0.000000
# 3 -0.002884 0.003195 0.012650 0.000000 0.000000 0.000000
# 4 0.000000 0.000000 0.000000 0.026056 0.000000 0.000000
# 5 0.000000 0.000000 0.000000 0.000000 -0.125384 0.000000
# 6 0.000000 0.000000 0.000000 0.000000 0.000000 0.029699
#
#
# Mechanical properties :
#
#
# Convention : Reuss Voigt Hill
#
# Bulk Modulus (GPa) = 16.32296 43.00664 29.66480
# Shear Modulus (GPa) = 170.33061 28.77070 99.55065
#
# Velocity S-wave (km/s) = 8.47715 3.48400 6.48076
# Velocity P-wave (km/s) = 10.13424 5.85908 8.27742
#
# Compressibility (1/GPa) = 0.06126339
#
# Stress axis : x y z
#
# Youngs Moduli (GPa) = 152.92156 19.71453 79.05323
#
# Poissons Ratio (x) = 0.09140 0.22797
# Poissons Ratio (y) = 0.70898 -0.25259
# Poissons Ratio (z) = 0.44098 -0.06299
#
# Static dielectric constant tensor:
#      x y z
#    x 2.052710 0.000000 0.000000 
#    y 0.000000 2.128210 0.000000 
#    z 0.000000 0.000000 1.911610 
# 
# From -- ./inp_files/33332.got.cif
#   From: 2010.05.17/outbox.cif.g08.bks.cpg/sg63_17_cif.got.tgz:33332.got - 2010.06.03 15:47:04.
