data_PCOD9475611
_publ_section_title
;
Structure prediction by ZEFSAII (Michael W. Deem and Ramdas Pophale) SiO2 
 PCOD9475611
Probable space group: C M C M
;
_chemical_formula_sum "Si O2"
_cell_formula_units_Z 96
_cell_length_a 7.624355
_cell_length_b 18.806790
_cell_length_c 32.463525
_cell_angle_alpha 90.000000
_cell_angle_beta 90.000000
_cell_angle_gamma 90.000000
_cell_volume 4654.933272
_symmetry_space_group_name_H-M "C M C M"
_symmetry_group_IT_number 63
_symmetry_cell_setting 'orthorhombic'
loop_
_space_group_symop_operation_xyz
x,y,z
-x,-y,1/2+z
x,-y,-z
-x,y,1/2-z
-x,-y,-z
x,y,1/2-z
-x,y,z
x,-y,1/2+z
1/2+x,1/2+y,z
1/2-x,1/2-y,1/2+z
1/2+x,1/2-y,-z
1/2-x,1/2+y,1/2-z
1/2-x,1/2-y,-z
1/2+x,1/2+y,1/2-z
1/2-x,1/2+y,z
1/2+x,1/2-y,1/2+z
loop_
_atom_site_type_symbol
_atom_site_label
_atom_site_fract_x
_atom_site_fract_y
_atom_site_fract_z
Si Si1 0.796912 0.913351 0.000374
Si Si2 0.784623 0.085828 0.410318
Si Si3 0.291454 0.578064 0.750000
Si Si4 0.793011 0.666774 0.831506
Si Si5 0.785108 0.827860 0.830229
Si Si6 0.714881 0.583976 0.250000
Si Si7 0.291750 0.423465 0.411328
O O1 0.718787 0.894560 0.044989
O O2 0.000000 0.889563 0.999847
O O3 0.722425 0.891590 0.956001
O O4 0.795969 0.000000 0.000000
O O5 0.729763 0.135369 0.372809
O O6 0.000000 0.086228 0.410957
O O7 0.727856 0.003946 0.403238
O O8 0.241237 0.620815 0.709148
O O9 0.222703 0.497387 0.750000
O O10 0.000000 0.916842 0.750000
O O11 0.722267 0.746755 0.827391
O O12 0.731692 0.626198 0.872252
O O13 0.000000 0.673833 0.835862
O O14 0.730039 0.874137 0.790923
O O15 0.000000 0.827890 0.829748
O O16 0.500000 0.427430 0.250000
O O17 0.500000 0.431001 0.418188
#
# Coordination Sequence:
#
# PCOD9475611 Si02
#       7
#    16  16   8  16  16   8  16
#     4   7  11  21  42  72  97 118 157 214 257 273
#     4   8  13  25  48  74  95 123 171 218 243 269
#     4  11  22  37  59  79  92 115 158 208 246 277
#     4  11  22  34  49  72 104 134 155 184 235 298
#     4   9  17  29  46  69  98 130 161 193 232 283
#     4   9  17  31  53  77  92 111 156 208 240 271
#     4   9  16  29  51  75  97 124 163 210 249 280
#
# _framework density 20.623280999999999
#
# number of rings (size 3 to 8) (size 9 to 14) (size 15 to 20)
#    0.000    3.000    0.000    4.250    0.000    4.000 
#    0.000    0.833    0.000   18.500    0.000    0.000 
#    0.000    0.000    0.000    0.000    0.000    0.000 
#
# Total GULP energy -267660.618909 kJ/mol
# GULP energy per Si atom -5576.262894 kJ/mol
# Density = 2.057634 g / cm^3
# Si number density = 20.623281 Si / 1000 Ang^3
#
#
#
# Elastic Constant Matrix: (Units=GPa)
#
#
# Indices 1 2 3 4 5 6 
#
# 1 34.0698 -3.1432 -7.7432 0.0000 0.0000 0.0000
# 2 -3.1432 144.8183 111.3284 0.0000 0.0000 0.0000
# 3 -7.7432 111.3284 228.4019 0.0000 0.0000 0.0000
# 4 0.0000 0.0000 0.0000 -14.9573 0.0000 0.0000
# 5 0.0000 0.0000 0.0000 0.0000 -298.9199 0.0000
# 6 0.0000 0.0000 0.0000 0.0000 0.0000 9.4883
#
#
#
# Elastic Compliance Matrix: (Units=1/GPa)
#
#
# Indices 1 2 3 4 5 6 
#
# 1 0.029583 -0.000206 0.001103 0.000000 0.000000 0.000000
# 2 -0.000206 0.011045 -0.005390 0.000000 0.000000 0.000000
# 3 0.001103 -0.005390 0.007043 0.000000 0.000000 0.000000
# 4 0.000000 0.000000 0.000000 -0.066857 0.000000 0.000000
# 5 0.000000 0.000000 0.000000 0.000000 -0.003345 0.000000
# 6 0.000000 0.000000 0.000000 0.000000 0.000000 0.105393
#
#
# Mechanical properties :
#
#
# Convention : Reuss Voigt Hill
#
# Bulk Modulus (GPa) = 25.85009 67.57491 46.71250
# Shear Modulus (GPa) = 47.73607 -40.42127 3.65740
#
# Velocity S-wave (km/s) = 4.81632 -4.43197 1.33315
# Velocity P-wave (km/s) = 6.59476 2.57830 5.00692
#
# Compressibility (1/GPa) = 0.03868459
#
# Stress axis : x y z
#
# Youngs Moduli (GPa) = 33.80294 90.54240 141.98408
#
# Poissons Ratio (x) = 0.01867 -0.15667
# Poissons Ratio (y) = 0.00697 0.76535
# Poissons Ratio (z) = -0.03730 0.48806
#
# Static dielectric constant tensor:
#      x y z
#    x 1.793670 0.000000 0.000000 
#    y 0.000000 1.710730 0.000000 
#    z 0.000000 0.000000 1.723590 
# 
# From -- ./inp_files/68375.got.cif
#   From: 2010.05.17/outbox.cif.g08.bks.cpg/sg63_35_cif.got.tgz:68375.got - 2010.06.03 15:47:04.
