data_PCOD9475529
_publ_section_title
;
Structure prediction by ZEFSAII (Michael W. Deem and Ramdas Pophale) SiO2 
 PCOD9475529
Probable space group: C M C M
;
_chemical_formula_sum "Si O2"
_cell_formula_units_Z 68
_cell_length_a 16.263755
_cell_length_b 6.825566
_cell_length_c 23.800880
_cell_angle_alpha 90.000000
_cell_angle_beta 90.000000
_cell_angle_gamma 90.000000
_cell_volume 2642.119817
_symmetry_space_group_name_H-M "C M C M"
_symmetry_group_IT_number 63
_symmetry_cell_setting 'orthorhombic'
loop_
_space_group_symop_operation_xyz
x,y,z
-x,-y,1/2+z
x,-y,-z
-x,y,1/2-z
-x,-y,-z
x,y,1/2-z
-x,y,z
x,-y,1/2+z
1/2+x,1/2+y,z
1/2-x,1/2-y,1/2+z
1/2+x,1/2-y,-z
1/2-x,1/2+y,1/2-z
1/2-x,1/2-y,-z
1/2+x,1/2+y,1/2-z
1/2-x,1/2+y,z
1/2+x,1/2-y,1/2+z
loop_
_atom_site_type_symbol
_atom_site_label
_atom_site_fract_x
_atom_site_fract_y
_atom_site_fract_z
Si Si1 0.330856 0.074903 0.688060
Si Si2 0.000000 0.993074 0.250000
Si Si3 0.597416 0.276372 0.454503
Si Si4 0.357594 0.623331 0.833882
Si Si5 0.902839 0.313958 0.075122
O O1 0.356683 0.143956 0.750000
O O2 0.366044 0.856181 0.680577
O O3 0.232682 0.061172 0.685464
O O4 0.358300 0.202449 0.634720
O O5 0.928891 0.976845 0.200810
O O6 0.500000 0.319786 0.454935
O O7 0.635750 0.386375 0.401486
O O8 0.627732 0.295185 0.518747
O O9 0.604819 0.045114 0.440070
O O10 0.000000 0.273873 0.081899
#
# Coordination Sequence:
#
# PCOD9475529 Si02
#       5
#    16   4  16  16  16
#     4  11  21  34  52  82 112 137 174 225 266 309
#     4  12  20  36  60  84  94 150 182 212 252 330
#     4   8  14  29  50  78 100 137 182 220 249 307
#     4  11  22  35  59  79 110 137 180 218 268 311
#     4   8  16  28  50  76 108 136 177 220 260 303
#
# _framework density 25.736912
#
# number of rings (size 3 to 8) (size 9 to 14) (size 15 to 20)
#    0.000    2.353    3.529    1.412    1.647    1.412 
#    0.000    0.000    2.588    1.412    0.000    3.294 
#    0.000    0.000    0.000    0.000    0.000    0.000 
#
# Total GULP energy -190001.576134 kJ/mol
# GULP energy per Si atom -5588.281651 kJ/mol
# Density = 2.567833 g / cm^3
# Si number density = 25.736912 Si / 1000 Ang^3
#
#
#
# Elastic Constant Matrix: (Units=GPa)
#
#
# Indices 1 2 3 4 5 6 
#
# 1 66.0801 18.2589 77.3136 0.0000 0.0000 0.0000
# 2 18.2589 98.9972 62.8372 0.0000 0.0000 0.0000
# 3 77.3136 62.8372 313.2255 0.0000 0.0000 0.0000
# 4 0.0000 0.0000 0.0000 46.9244 0.0000 0.0000
# 5 0.0000 0.0000 0.0000 0.0000 45.1638 0.0000
# 6 0.0000 0.0000 0.0000 0.0000 0.0000 -26.8531
#
#
#
# Elastic Compliance Matrix: (Units=1/GPa)
#
#
# Indices 1 2 3 4 5 6 
#
# 1 0.021318 -0.000678 -0.005126 0.000000 0.000000 0.000000
# 2 -0.000678 0.011597 -0.002159 0.000000 0.000000 0.000000
# 3 -0.005126 -0.002159 0.004891 0.000000 0.000000 0.000000
# 4 0.000000 0.000000 0.000000 0.021311 0.000000 0.000000
# 5 0.000000 0.000000 0.000000 0.000000 0.022142 0.000000
# 6 0.000000 0.000000 0.000000 0.000000 0.000000 -0.037240
#
#
# Mechanical properties :
#
#
# Convention : Reuss Voigt Hill
#
# Bulk Modulus (GPa) = 45.70549 88.34693 67.02621
# Shear Modulus (GPa) = 74.36309 34.37323 54.36816
#
# Velocity S-wave (km/s) = 5.38110 3.65850 4.60114
# Velocity P-wave (km/s) = 7.51037 7.22825 7.37066
#
# Compressibility (1/GPa) = 0.02187921
#
# Stress axis : x y z
#
# Youngs Moduli (GPa) = 46.90934 86.23041 204.46031
#
# Poissons Ratio (x) = 0.05849 1.04802
# Poissons Ratio (y) = 0.03182 0.44144
# Poissons Ratio (z) = 0.24045 0.18618
#
# Static dielectric constant tensor:
#      x y z
#    x 1.900240 0.000000 0.000000 
#    y 0.000000 2.151120 0.000000 
#    z 0.000000 0.000000 2.008700 
# 
# From -- ./inp_files/53821.got.cif
#   From: 2010.05.17/outbox.cif.g08.bks.cpg/sg63_27_cif.got.tgz:53821.got - 2010.06.03 15:47:04.
