data_PCOD9475590
_publ_section_title
;
Structure prediction by ZEFSAII (Michael W. Deem and Ramdas Pophale) SiO2 
 PCOD9475590
Probable space group: C M C M
;
_chemical_formula_sum "Si O2"
_cell_formula_units_Z 112
_cell_length_a 15.014479
_cell_length_b 11.613546
_cell_length_c 28.124507
_cell_angle_alpha 90.000000
_cell_angle_beta 90.000000
_cell_angle_gamma 90.000000
_cell_volume 4904.108044
_symmetry_space_group_name_H-M "C M C M"
_symmetry_group_IT_number 63
_symmetry_cell_setting 'orthorhombic'
loop_
_space_group_symop_operation_xyz
x,y,z
-x,-y,1/2+z
x,-y,-z
-x,y,1/2-z
-x,-y,-z
x,y,1/2-z
-x,y,z
x,-y,1/2+z
1/2+x,1/2+y,z
1/2-x,1/2-y,1/2+z
1/2+x,1/2-y,-z
1/2-x,1/2+y,1/2-z
1/2-x,1/2-y,-z
1/2+x,1/2+y,1/2-z
1/2-x,1/2+y,z
1/2+x,1/2-y,1/2+z
loop_
_atom_site_type_symbol
_atom_site_label
_atom_site_fract_x
_atom_site_fract_y
_atom_site_fract_z
Si Si1 0.843863 0.833300 0.954365
Si Si2 0.727906 0.796422 0.696234
Si Si3 0.101000 0.427992 0.624176
Si Si4 0.096499 0.062244 0.907726
Si Si5 0.278816 0.848232 0.116549
Si Si6 0.901633 0.957280 0.802698
Si Si7 0.140208 0.373965 0.979459
O O1 0.896288 0.947304 0.939821
O O2 0.823316 0.764400 0.905700
O O3 0.747971 0.870189 0.975267
O O4 0.885390 0.735348 0.988191
O O5 0.697904 0.783603 0.750000
O O6 0.653739 0.855076 0.663250
O O7 0.753837 0.678016 0.670716
O O8 0.817274 0.873540 0.695702
O O9 0.156522 0.544000 0.614718
O O10 0.103186 0.365127 0.573503
O O11 0.000000 0.451203 0.638532
O O12 0.099398 0.029420 0.851433
O O13 0.000000 0.116619 0.916682
O O14 0.189508 0.128014 0.913720
O O15 0.897507 0.015534 0.750000
O O16 0.000000 0.898664 0.803757
O O17 0.114719 0.500000 0.000000
#
# Coordination Sequence:
#
# PCOD9475590 Si02
#       7
#    16  16  16  16  16  16  16
#     4  11  21  39  68  95 134 176 217 268 334 398
#     4  11  24  44  69  94 133 180 224 278 344 402
#     4  12  26  44  67  99 140 179 224 281 338 405
#     4  11  22  38  63  93 128 167 214 270 325 391
#     4  12  21  43  63  99 129 172 222 274 332 394
#     4   9  17  33  60  91 122 159 209 268 327 388
#     4  11  21  40  69 100 133 176 223 273 333 400
#
# _framework density 22.837997000000001
#
# number of rings (size 3 to 8) (size 9 to 14) (size 15 to 20)
#    0.000    1.000    7.143    0.000    0.000    4.000 
#    0.000    0.000    0.000    3.857    0.000    0.000 
#    0.000    0.000    0.000    0.000    0.000    0.000 
#
# Total GULP energy -313188.913256 kJ/mol
# GULP energy per Si atom -5592.659165 kJ/mol
# Density = 2.278602 g / cm^3
# Si number density = 22.837997 Si / 1000 Ang^3
#
#
#
# Elastic Constant Matrix: (Units=GPa)
#
#
# Indices 1 2 3 4 5 6 
#
# 1 135.5672 25.7085 23.5008 0.0000 0.0000 0.0000
# 2 25.7085 60.3189 22.2736 0.0000 0.0000 0.0000
# 3 23.5008 22.2736 138.6815 0.0000 0.0000 0.0000
# 4 0.0000 0.0000 0.0000 33.0815 0.0000 0.0000
# 5 0.0000 0.0000 0.0000 0.0000 7.6732 0.0000
# 6 0.0000 0.0000 0.0000 0.0000 0.0000 4.4547
#
#
#
# Elastic Compliance Matrix: (Units=1/GPa)
#
#
# Indices 1 2 3 4 5 6 
#
# 1 0.008123 -0.003140 -0.000872 0.000000 0.000000 0.000000
# 2 -0.003140 0.018838 -0.002493 0.000000 0.000000 0.000000
# 3 -0.000872 -0.002493 0.007759 0.000000 0.000000 0.000000
# 4 0.000000 0.000000 0.000000 0.030228 0.000000 0.000000
# 5 0.000000 0.000000 0.000000 0.000000 0.130324 0.000000
# 6 0.000000 0.000000 0.000000 0.000000 0.000000 0.224480
#
#
# Mechanical properties :
#
#
# Convention : Reuss Voigt Hill
#
# Bulk Modulus (GPa) = 46.06512 53.05926 49.56219
# Shear Modulus (GPa) = 11.36363 26.58086 18.97224
#
# Velocity S-wave (km/s) = 2.23306 3.41528 2.88537
# Velocity P-wave (km/s) = 5.18294 6.23181 5.73142
#
# Compressibility (1/GPa) = 0.02170840
#
# Stress axis : x y z
#
# Youngs Moduli (GPa) = 123.10589 53.08535 128.88206
#
# Poissons Ratio (x) = 0.16669 0.11241
# Poissons Ratio (y) = 0.38656 0.32135
# Poissons Ratio (z) = 0.10737 0.13236
#
# Static dielectric constant tensor:
#      x y z
#    x 1.841520 0.000000 0.000000 
#    y 0.000000 1.859000 0.000000 
#    z 0.000000 0.000000 1.871860 
# 
# From -- ./inp_files/73427.got.cif
#   From: 2010.05.17/outbox.cif.g08.bks.cpg/sg63_37_cif.got.tgz:73427.got - 2010.06.03 15:47:04.
