data_PCOD9475303
_publ_section_title
;
Structure prediction by ZEFSAII (Michael W. Deem and Ramdas Pophale) SiO2 
 PCOD9475303
Probable space group: C M C M
;
_chemical_formula_sum "Si O2"
_cell_formula_units_Z 64
_cell_length_a 14.907223
_cell_length_b 26.487070
_cell_length_c 9.985835
_cell_angle_alpha 90.000000
_cell_angle_beta 90.000000
_cell_angle_gamma 90.000000
_cell_volume 3942.893560
_symmetry_space_group_name_H-M "C M C M"
_symmetry_group_IT_number 63
_symmetry_cell_setting 'orthorhombic'
loop_
_space_group_symop_operation_xyz
x,y,z
-x,-y,1/2+z
x,-y,-z
-x,y,1/2-z
-x,-y,-z
x,y,1/2-z
-x,y,z
x,-y,1/2+z
1/2+x,1/2+y,z
1/2-x,1/2-y,1/2+z
1/2+x,1/2-y,-z
1/2-x,1/2+y,1/2-z
1/2-x,1/2-y,-z
1/2+x,1/2+y,1/2-z
1/2-x,1/2+y,z
1/2+x,1/2-y,1/2+z
loop_
_atom_site_type_symbol
_atom_site_label
_atom_site_fract_x
_atom_site_fract_y
_atom_site_fract_z
Si Si1 0.500000 0.274028 0.908301
Si Si2 0.202839 0.794250 0.590171
Si Si3 0.667511 0.884412 0.961504
Si Si4 0.500000 0.816120 0.606156
Si Si5 0.106752 0.417537 0.250000
Si Si6 0.891640 0.461769 0.750000
O O1 0.500000 0.266200 0.750000
O O2 0.403365 0.297964 0.941228
O O3 0.500000 0.221557 0.984538
O O4 0.213544 0.782566 0.750000
O O5 0.250000 0.750000 0.500000
O O6 0.247603 0.848588 0.562557
O O7 0.650426 0.895258 0.116653
O O8 0.586298 0.850724 0.905622
O O9 0.656242 0.935893 0.877535
O O10 0.500000 0.789312 0.750000
O O11 0.116644 0.478110 0.250000
O O12 0.000000 0.406210 0.250000
O O13 0.000000 0.451032 0.750000
#
# Coordination Sequence:
#
# PCOD9475303 Si02
#       6
#     8  16  16   8   8   8
#     4  10  24  38  54  79 110 145 190 228 260 313
#     4  11  23  37  56  80 110 146 186 223 267 325
#     4  12  21  36  55  79 113 153 181 217 274 326
#     4  12  20  32  51  80 113 146 179 217 267 320
#     4  11  24  34  55  83 115 145 183 228 271 327
#     4  11  20  38  55  81 111 145 185 228 273 327
#
# _framework density 16.231733999999999
#
# number of rings (size 3 to 8) (size 9 to 14) (size 15 to 20)
#    0.000    0.750    7.500    0.750    3.500    2.000 
#    0.000    0.000    0.000    0.000    0.000    5.250 
#    0.000    0.000    0.000    0.000    0.000    0.000 
#
# Total GULP energy -178505.747887 kJ/mol
# GULP energy per Si atom -5578.304621 kJ/mol
# Density = 1.619479 g / cm^3
# Si number density = 16.231734 Si / 1000 Ang^3
#
#
#
# Elastic Constant Matrix: (Units=GPa)
#
#
# Indices 1 2 3 4 5 6 
#
# 1 118.0318 46.6975 44.9871 0.0000 0.0000 0.0000
# 2 46.6975 58.3897 20.6581 0.0000 0.0000 0.0000
# 3 44.9871 20.6581 84.2396 0.0000 0.0000 0.0000
# 4 0.0000 0.0000 0.0000 -39.0969 0.0000 0.0000
# 5 0.0000 0.0000 0.0000 0.0000 20.3449 0.0000
# 6 0.0000 0.0000 0.0000 0.0000 0.0000 40.8873
#
#
#
# Elastic Compliance Matrix: (Units=1/GPa)
#
#
# Indices 1 2 3 4 5 6 
#
# 1 0.014255 -0.009534 -0.005274 0.000000 0.000000 0.000000
# 2 -0.009534 0.025130 -0.001071 0.000000 0.000000 0.000000
# 3 -0.005274 -0.001071 0.014950 0.000000 0.000000 0.000000
# 4 0.000000 0.000000 0.000000 -0.025577 0.000000 0.000000
# 5 0.000000 0.000000 0.000000 0.000000 0.049152 0.000000
# 6 0.000000 0.000000 0.000000 0.000000 0.000000 0.024457
#
#
# Mechanical properties :
#
#
# Convention : Reuss Voigt Hill
#
# Bulk Modulus (GPa) = 44.29520 53.92738 49.11129
# Shear Modulus (GPa) = 35.29767 14.31494 24.80631
#
# Velocity S-wave (km/s) = 4.66833 2.97292 3.91354
# Velocity P-wave (km/s) = 7.51041 6.71416 7.12342
#
# Compressibility (1/GPa) = 0.02257581
#
# Stress axis : x y z
#
# Youngs Moduli (GPa) = 70.15243 39.79260 66.88814
#
# Poissons Ratio (x) = 0.37939 0.35280
# Poissons Ratio (y) = 0.66885 0.07164
# Poissons Ratio (z) = 0.37002 0.04262
#
# Static dielectric constant tensor:
#      x y z
#    x 1.562300 0.000000 0.000000 
#    y 0.000000 1.532900 0.000000 
#    z 0.000000 0.000000 1.575680 
# 
# From -- ./inp_files/4348.got.cif
#   From: 2010.05.17/outbox.cif.g08.bks.cpg/sg63_3_cif.got.tgz:4348.got - 2010.06.03 15:47:04.
