data_PCOD9475408
_publ_section_title
;
Structure prediction by ZEFSAII (Michael W. Deem and Ramdas Pophale) SiO2 
 PCOD9475408
Probable space group: C M C M
;
_chemical_formula_sum "Si O2"
_cell_formula_units_Z 80
_cell_length_a 18.869316
_cell_length_b 13.224991
_cell_length_c 18.374542
_cell_angle_alpha 90.000000
_cell_angle_beta 90.000000
_cell_angle_gamma 90.000000
_cell_volume 4585.303275
_symmetry_space_group_name_H-M "C M C M"
_symmetry_group_IT_number 63
_symmetry_cell_setting 'orthorhombic'
loop_
_space_group_symop_operation_xyz
x,y,z
-x,-y,1/2+z
x,-y,-z
-x,y,1/2-z
-x,-y,-z
x,y,1/2-z
-x,y,z
x,-y,1/2+z
1/2+x,1/2+y,z
1/2-x,1/2-y,1/2+z
1/2+x,1/2-y,-z
1/2-x,1/2+y,1/2-z
1/2-x,1/2-y,-z
1/2+x,1/2+y,1/2-z
1/2-x,1/2+y,z
1/2+x,1/2-y,1/2+z
loop_
_atom_site_type_symbol
_atom_site_label
_atom_site_fract_x
_atom_site_fract_y
_atom_site_fract_z
Si Si1 0.354061 0.163689 0.928074
Si Si2 0.000000 0.660649 0.163348
Si Si3 0.145006 0.738021 0.095094
Si Si4 0.790546 0.955701 0.419404
Si Si5 0.711276 0.658581 0.335884
Si Si6 0.000000 0.547822 0.581114
O O1 0.290452 0.084250 0.915088
O O2 0.337181 0.261289 0.879120
O O3 0.429320 0.113984 0.911636
O O4 0.351226 0.196522 0.012601
O O5 0.930005 0.711443 0.129724
O O6 0.000000 0.668562 0.250000
O O7 0.000000 0.544271 0.137460
O O8 0.161479 0.857265 0.093152
O O9 0.208511 0.685836 0.139885
O O10 0.801728 0.000000 0.500000
O O11 0.803496 0.045301 0.362856
O O12 0.703125 0.669227 0.250000
O O13 0.000000 0.500000 0.500000
#
# Coordination Sequence:
#
# PCOD9475408 Si02
#       6
#    16   8  16  16  16   8
#     4  11  21  37  63  90 118 155 201 243 287 363
#     4  12  26  40  58  90 125 150 193 253 298 345
#     4  11  21  39  62  86 117 159 198 241 294 358
#     4  11  19  36  64  87 115 154 202 241 288 346
#     4  11  23  37  58  89 121 152 197 250 295 339
#     4  12  22  38  67  89 115 157 199 232 300 360
#
# _framework density 17.447046
#
# number of rings (size 3 to 8) (size 9 to 14) (size 15 to 20)
#    0.000    0.800    6.000    3.600    0.000    4.800 
#    0.000    1.500    0.000    0.000    0.000    0.000 
#    0.000    0.000    0.000    0.000    0.000    0.000 
#
# Total GULP energy -223643.881492 kJ/mol
# GULP energy per Si atom -5591.097037 kJ/mol
# Density = 1.740734 g / cm^3
# Si number density = 17.447046 Si / 1000 Ang^3
#
#
#
# Elastic Constant Matrix: (Units=GPa)
#
#
# Indices 1 2 3 4 5 6 
#
# 1 137.0484 66.6202 49.4935 0.0000 0.0000 0.0000
# 2 66.6202 120.4767 46.8398 0.0000 0.0000 0.0000
# 3 49.4935 46.8398 136.0956 0.0000 0.0000 0.0000
# 4 0.0000 0.0000 0.0000 27.8568 0.0000 0.0000
# 5 0.0000 0.0000 0.0000 0.0000 0.8001 0.0000
# 6 0.0000 0.0000 0.0000 0.0000 0.0000 17.0230
#
#
#
# Elastic Compliance Matrix: (Units=1/GPa)
#
#
# Indices 1 2 3 4 5 6 
#
# 1 0.010473 -0.004976 -0.002096 0.000000 0.000000 0.000000
# 2 -0.004976 0.011947 -0.002302 0.000000 0.000000 0.000000
# 3 -0.002096 -0.002302 0.008902 0.000000 0.000000 0.000000
# 4 0.000000 0.000000 0.000000 0.035898 0.000000 0.000000
# 5 0.000000 0.000000 0.000000 0.000000 1.249805 0.000000
# 6 0.000000 0.000000 0.000000 0.000000 0.000000 0.058744
#
#
# Mechanical properties :
#
#
# Convention : Reuss Voigt Hill
#
# Bulk Modulus (GPa) = 79.53201 79.94752 79.73976
# Shear Modulus (GPa) = 3.57473 24.51380 14.04426
#
# Velocity S-wave (km/s) = 1.43295 3.75245 2.84027
# Velocity P-wave (km/s) = 6.95856 8.04344 7.52059
#
# Compressibility (1/GPa) = 0.01257355
#
# Stress axis : x y z
#
# Youngs Moduli (GPa) = 95.48775 83.70252 112.33044
#
# Poissons Ratio (x) = 0.41652 0.23543
# Poissons Ratio (y) = 0.47516 0.25860
# Poissons Ratio (z) = 0.20013 0.19269
#
# Static dielectric constant tensor:
#      x y z
#    x 1.569190 0.000000 0.000000 
#    y 0.000000 1.585120 0.000000 
#    z 0.000000 0.000000 1.621430 
# 
# From -- ./inp_files/46838.got.cif
#   From: 2010.05.17/outbox.cif.g08.bks.cpg/sg63_24_cif.got.tgz:46838.got - 2010.06.03 15:47:04.
