data_PCOD9475505
_publ_section_title
;
Structure prediction by ZEFSAII (Michael W. Deem and Ramdas Pophale) SiO2 
 PCOD9475505
Probable space group: C M C M
;
_chemical_formula_sum "Si O2"
_cell_formula_units_Z 80
_cell_length_a 19.173213
_cell_length_b 13.981487
_cell_length_c 15.795079
_cell_angle_alpha 90.000000
_cell_angle_beta 90.000000
_cell_angle_gamma 90.000000
_cell_volume 4234.187275
_symmetry_space_group_name_H-M "C M C M"
_symmetry_group_IT_number 63
_symmetry_cell_setting 'orthorhombic'
loop_
_space_group_symop_operation_xyz
x,y,z
-x,-y,1/2+z
x,-y,-z
-x,y,1/2-z
-x,-y,-z
x,y,1/2-z
-x,y,z
x,-y,1/2+z
1/2+x,1/2+y,z
1/2-x,1/2-y,1/2+z
1/2+x,1/2-y,-z
1/2-x,1/2+y,1/2-z
1/2-x,1/2-y,-z
1/2+x,1/2+y,1/2-z
1/2-x,1/2+y,z
1/2+x,1/2-y,1/2+z
loop_
_atom_site_type_symbol
_atom_site_label
_atom_site_fract_x
_atom_site_fract_y
_atom_site_fract_z
Si Si1 0.500000 0.514933 0.353653
Si Si2 0.215091 0.473374 0.647350
Si Si3 0.856171 0.078798 0.647532
Si Si4 0.000000 0.236186 0.145829
Si Si5 0.275300 0.760050 0.904643
Si Si6 0.361259 0.840333 0.151565
O O1 0.500000 0.514411 0.250000
O O2 0.430025 0.461414 0.381594
O O3 0.500000 0.625505 0.380139
O O4 0.212314 0.471819 0.750000
O O5 0.292971 0.507828 0.623232
O O6 0.202203 0.367462 0.614817
O O7 0.163548 0.557320 0.615702
O O8 0.856633 0.083079 0.750000
O O9 0.834927 0.182998 0.614814
O O10 0.929967 0.289891 0.115910
O O11 0.000000 0.235233 0.250000
O O12 0.206296 0.728468 0.852504
O O13 0.250000 0.750000 0.000000
O O14 0.376840 0.857834 0.250000
#
# Coordination Sequence:
#
# PCOD9475505 Si02
#       6
#     8  16  16   8  16  16
#     4   9  16  28  50  76 101 128 159 208 264 301
#     4   9  17  32  53  72  94 127 166 210 252 290
#     4   9  18  32  51  75  99 127 168 211 251 298
#     4   9  16  30  54  81 103 125 163 212 258 302
#     4  11  21  32  49  72 103 138 170 203 246 299
#     4   9  18  32  52  76  98 125 168 214 252 297
#
# _framework density 18.893827000000002
#
# number of rings (size 3 to 8) (size 9 to 14) (size 15 to 20)
#    0.000    2.600    0.000    4.200    0.000    6.400 
#    0.000    2.000    0.000    7.200    0.000    0.000 
#    0.000    0.000    0.000    0.000    0.000    0.000 
#
# Total GULP energy -223125.881420 kJ/mol
# GULP energy per Si atom -5578.147036 kJ/mol
# Density = 1.885082 g / cm^3
# Si number density = 18.893827 Si / 1000 Ang^3
#
#
#
# Elastic Constant Matrix: (Units=GPa)
#
#
# Indices 1 2 3 4 5 6 
#
# 1 156.6925 110.2436 13.2763 0.0000 0.0000 0.0000
# 2 110.2436 189.3637 16.2771 0.0000 0.0000 0.0000
# 3 13.2763 16.2771 14.5757 0.0000 0.0000 0.0000
# 4 0.0000 0.0000 0.0000 -6.5846 0.0000 0.0000
# 5 0.0000 0.0000 0.0000 0.0000 5.0408 0.0000
# 6 0.0000 0.0000 0.0000 0.0000 0.0000 18.9599
#
#
#
# Elastic Compliance Matrix: (Units=1/GPa)
#
#
# Indices 1 2 3 4 5 6 
#
# 1 0.010939 -0.006097 -0.003155 0.000000 0.000000 0.000000
# 2 -0.006097 0.009240 -0.004765 0.000000 0.000000 0.000000
# 3 -0.003155 -0.004765 0.076802 0.000000 0.000000 0.000000
# 4 0.000000 0.000000 0.000000 -0.151869 0.000000 0.000000
# 5 0.000000 0.000000 0.000000 0.000000 0.198379 0.000000
# 6 0.000000 0.000000 0.000000 0.000000 0.000000 0.052743
#
#
# Mechanical properties :
#
#
# Convention : Reuss Voigt Hill
#
# Bulk Modulus (GPa) = 14.50392 71.13623 42.82007
# Shear Modulus (GPa) = 20.22235 18.20554 19.21395
#
# Velocity S-wave (km/s) = 3.27512 3.10751 3.19241
# Velocity P-wave (km/s) = 4.68989 7.11391 6.02506
#
# Compressibility (1/GPa) = 0.06894687
#
# Stress axis : x y z
#
# Youngs Moduli (GPa) = 91.41495 108.22293 13.02052
#
# Poissons Ratio (x) = 0.65987 0.04108
# Poissons Ratio (y) = 0.55739 0.06204
# Poissons Ratio (z) = 0.28840 0.51568
#
# Static dielectric constant tensor:
#      x y z
#    x 1.650400 0.000000 0.000000 
#    y 0.000000 1.644570 0.000000 
#    z 0.000000 0.000000 1.692180 
# 
# From -- ./inp_files/46827.got.cif
#   From: 2010.05.17/outbox.cif.g08.bks.cpg/sg63_24_cif.got.tgz:46827.got - 2010.06.03 15:47:04.
