data_PCOD9475846
_publ_section_title
;
Structure prediction by ZEFSAII (Michael W. Deem and Ramdas Pophale) SiO2 
 PCOD9475846
Probable space group: C M C M
;
_chemical_formula_sum "Si O2"
_cell_formula_units_Z 64
_cell_length_a 10.367798
_cell_length_b 10.255116
_cell_length_c 30.877915
_cell_angle_alpha 90.000000
_cell_angle_beta 90.000000
_cell_angle_gamma 90.000000
_cell_volume 3283.031666
_symmetry_space_group_name_H-M "C M C M"
_symmetry_group_IT_number 63
_symmetry_cell_setting 'orthorhombic'
loop_
_space_group_symop_operation_xyz
x,y,z
-x,-y,1/2+z
x,-y,-z
-x,y,1/2-z
-x,-y,-z
x,y,1/2-z
-x,y,z
x,-y,1/2+z
1/2+x,1/2+y,z
1/2-x,1/2-y,1/2+z
1/2+x,1/2-y,-z
1/2-x,1/2+y,1/2-z
1/2-x,1/2-y,-z
1/2+x,1/2+y,1/2-z
1/2-x,1/2+y,z
1/2+x,1/2-y,1/2+z
loop_
_atom_site_type_symbol
_atom_site_label
_atom_site_fract_x
_atom_site_fract_y
_atom_site_fract_z
Si Si1 0.761912 0.357880 0.410760
Si Si2 0.742422 0.894365 0.851609
Si Si3 0.000000 0.717545 0.198659
Si Si4 0.000000 0.636951 0.524018
Si Si5 0.500000 0.612300 0.536402
Si Si6 0.000000 0.971919 0.802054
O O1 0.756563 0.218286 0.387515
O O2 0.787941 0.469882 0.375454
O O3 0.626758 0.392442 0.433798
O O4 0.874014 0.354332 0.446164
O O5 0.625641 0.848971 0.821443
O O6 0.872907 0.911948 0.824075
O O7 0.000000 0.703214 0.250000
O O8 0.000000 0.872403 0.188708
O O9 0.000000 0.500000 0.500000
O O10 0.000000 0.751608 0.489093
O O11 0.500000 0.500000 0.500000
O O12 0.000000 0.953845 0.750000
#
# Coordination Sequence:
#
# PCOD9475846 Si02
#       6
#    16  16   8   8   8   8
#     4  12  24  41  67  96 131 175 224 274 329 399
#     4  12  23  45  68 102 133 179 224 273 336 392
#     4  11  24  45  69 101 139 176 219 277 334 396
#     4  12  24  41  60  94 129 172 223 274 329 393
#     4  12  24  43  64  94 133 178 217 274 339 389
#     4  11  24  45  69 101 139 177 219 276 336 398
#
# _framework density 19.494177000000001
#
# number of rings (size 3 to 8) (size 9 to 14) (size 15 to 20)
#    0.000    0.250    2.500    8.250    0.000    0.000 
#    0.000    1.250    0.000    0.000    0.000    0.000 
#    0.000    0.000    0.000    0.000    0.000    0.000 
#
# Total GULP energy -179238.433069 kJ/mol
# GULP energy per Si atom -5601.201033 kJ/mol
# Density = 1.944981 g / cm^3
# Si number density = 19.494177 Si / 1000 Ang^3
#
#
#
# Elastic Constant Matrix: (Units=GPa)
#
#
# Indices 1 2 3 4 5 6 
#
# 1 163.4753 9.6389 50.6958 0.0000 0.0000 0.0000
# 2 9.6389 71.5323 9.3535 0.0000 0.0000 0.0000
# 3 50.6958 9.3535 72.5267 0.0000 0.0000 0.0000
# 4 0.0000 0.0000 0.0000 45.6099 0.0000 0.0000
# 5 0.0000 0.0000 0.0000 0.0000 64.5116 0.0000
# 6 0.0000 0.0000 0.0000 0.0000 0.0000 37.9724
#
#
#
# Elastic Compliance Matrix: (Units=1/GPa)
#
#
# Indices 1 2 3 4 5 6 
#
# 1 0.007818 -0.000345 -0.005421 0.000000 0.000000 0.000000
# 2 -0.000345 0.014235 -0.001595 0.000000 0.000000 0.000000
# 3 -0.005421 -0.001595 0.017783 0.000000 0.000000 0.000000
# 4 0.000000 0.000000 0.000000 0.021925 0.000000 0.000000
# 5 0.000000 0.000000 0.000000 0.000000 0.015501 0.000000
# 6 0.000000 0.000000 0.000000 0.000000 0.000000 0.026335
#
#
# Mechanical properties :
#
#
# Convention : Reuss Voigt Hill
#
# Bulk Modulus (GPa) = 39.81606 49.65674 44.73640
# Shear Modulus (GPa) = 39.46671 45.47518 42.47095
#
# Velocity S-wave (km/s) = 4.50437 4.83510 4.67266
# Velocity P-wave (km/s) = 6.89357 7.52986 7.21873
#
# Compressibility (1/GPa) = 0.02511550
#
# Stress axis : x y z
#
# Youngs Moduli (GPa) = 127.90245 70.25092 56.23453
#
# Poissons Ratio (x) = 0.02422 0.30483
# Poissons Ratio (y) = 0.04409 0.08968
# Poissons Ratio (z) = 0.69331 0.11204
#
# Static dielectric constant tensor:
#      x y z
#    x 1.642860 0.000000 0.000000 
#    y 0.000000 1.647430 0.000000 
#    z 0.000000 0.000000 1.651180 
# 
# From -- ./inp_files/71388.got.cif
#   From: 2010.05.17/outbox.cif.g08.bks.cpg/sg63_36_cif.got.tgz:71388.got - 2010.06.03 15:47:04.
