data_PCOD9475870
_publ_section_title
;
Structure prediction by ZEFSAII (Michael W. Deem and Ramdas Pophale) SiO2 
 PCOD9475870
Probable space group: C M C M
;
_chemical_formula_sum "Si O2"
_cell_formula_units_Z 116
_cell_length_a 23.537247
_cell_length_b 8.018087
_cell_length_c 28.814250
_cell_angle_alpha 90.000000
_cell_angle_beta 90.000000
_cell_angle_gamma 90.000000
_cell_volume 5437.931705
_symmetry_space_group_name_H-M "C M C M"
_symmetry_group_IT_number 63
_symmetry_cell_setting 'orthorhombic'
loop_
_space_group_symop_operation_xyz
x,y,z
-x,-y,1/2+z
x,-y,-z
-x,y,1/2-z
-x,-y,-z
x,y,1/2-z
-x,y,z
x,-y,1/2+z
1/2+x,1/2+y,z
1/2-x,1/2-y,1/2+z
1/2+x,1/2-y,-z
1/2-x,1/2+y,1/2-z
1/2-x,1/2-y,-z
1/2+x,1/2+y,1/2-z
1/2-x,1/2+y,z
1/2+x,1/2-y,1/2+z
loop_
_atom_site_type_symbol
_atom_site_label
_atom_site_fract_x
_atom_site_fract_y
_atom_site_fract_z
Si Si1 0.260065 0.285012 0.106659
Si Si2 0.500000 0.497903 0.250000
Si Si3 0.934430 0.599086 0.066108
Si Si4 0.566971 0.270971 0.524086
Si Si5 0.179198 0.068008 0.449071
Si Si6 0.316103 0.816905 0.304132
Si Si7 0.642005 0.865339 0.849679
Si Si8 0.381386 0.481427 0.199319
O O1 0.212852 0.231986 0.069034
O O2 0.299667 0.430542 0.087169
O O3 0.233411 0.314758 0.157612
O O4 0.303653 0.133463 0.116111
O O5 0.448603 0.496022 0.210249
O O6 0.930035 0.410981 0.047453
O O7 0.909980 0.601710 0.116871
O O8 0.000000 0.642937 0.067129
O O9 0.910565 0.729378 0.028124
O O10 0.500000 0.322109 0.524810
O O11 0.612129 0.390526 0.548637
O O12 0.195653 0.000000 0.500000
O O13 0.298793 0.804753 0.250000
O O14 0.355843 0.658021 0.316586
O O15 0.349269 0.990380 0.312142
O O16 0.633524 0.681641 0.829347
O O17 0.353872 0.452979 0.250000
#
# Coordination Sequence:
#
# PCOD9475870 Si02
#       8
#    16   4  16  16  16  16  16  16
#     4  12  26  46  66 103 142 181 249 299 348 439
#     4   8  20  48  70 104 144 164 240 304 348 428
#     4   9  20  39  68 101 138 185 235 295 355 432
#     4   9  20  42  69  99 139 188 238 290 363 436
#     4  12  25  44  70 102 140 190 235 300 370 428
#     4  11  25  47  70  98 139 190 240 294 365 432
#     4  12  23  42  69 102 140 183 239 292 358 430
#     4   9  22  43  70 101 136 176 226 294 356 417
#
# _framework density 21.331638999999999
#
# number of rings (size 3 to 8) (size 9 to 14) (size 15 to 20)
#    0.414    1.103    1.379    4.138    0.966    1.379 
#    1.241    1.379    4.552    0.000    0.000    0.000 
#    0.000    0.000    0.000    0.000    0.000    0.000 
#
# Total GULP energy -323094.628544 kJ/mol
# GULP energy per Si atom -5570.597044 kJ/mol
# Density = 2.128309 g / cm^3
# Si number density = 21.331639 Si / 1000 Ang^3
#
#
#
# Elastic Constant Matrix: (Units=GPa)
#
#
# Indices 1 2 3 4 5 6 
#
# 1 78.8763 55.1934 47.4468 0.0000 0.0000 0.0000
# 2 55.1934 102.0828 45.4858 0.0000 0.0000 0.0000
# 3 47.4468 45.4858 102.9673 0.0000 0.0000 0.0000
# 4 0.0000 0.0000 0.0000 30.9045 0.0000 0.0000
# 5 0.0000 0.0000 0.0000 0.0000 38.6395 0.0000
# 6 0.0000 0.0000 0.0000 0.0000 0.0000 25.9537
#
#
#
# Elastic Compliance Matrix: (Units=1/GPa)
#
#
# Indices 1 2 3 4 5 6 
#
# 1 0.023409 -0.009774 -0.006469 0.000000 0.000000 0.000000
# 2 -0.009774 0.016278 -0.002687 0.000000 0.000000 0.000000
# 3 -0.006469 -0.002687 0.013880 0.000000 0.000000 0.000000
# 4 0.000000 0.000000 0.000000 0.032358 0.000000 0.000000
# 5 0.000000 0.000000 0.000000 0.000000 0.025880 0.000000
# 6 0.000000 0.000000 0.000000 0.000000 0.000000 0.038530
#
#
# Mechanical properties :
#
#
# Convention : Reuss Voigt Hill
#
# Bulk Modulus (GPa) = 63.66845 64.46428 64.06636
# Shear Modulus (GPa) = 25.84924 28.15291 27.00108
#
# Velocity S-wave (km/s) = 3.48484 3.63681 3.56163
# Velocity P-wave (km/s) = 6.78998 6.92249 6.85655
#
# Compressibility (1/GPa) = 0.01570637
#
# Stress axis : x y z
#
# Youngs Moduli (GPa) = 42.71911 61.43365 72.04821
#
# Poissons Ratio (x) = 0.60046 0.46608
# Poissons Ratio (y) = 0.41754 0.19358
# Poissons Ratio (z) = 0.27635 0.16506
#
# Static dielectric constant tensor:
#      x y z
#    x 1.791970 0.000000 0.000000 
#    y 0.000000 1.857100 0.000000 
#    z 0.000000 0.000000 1.781140 
# 
# From -- ./inp_files/70741.got.cif
#   From: 2010.05.17/outbox.cif.g08.bks.cpg/sg63_36_cif.got.tgz:70741.got - 2010.06.03 15:47:04.
