data_PCOD9475017
_publ_section_title
;
Structure prediction by ZEFSAII (Michael W. Deem and Ramdas Pophale) SiO2 
 PCOD9475017
Probable space group: C M C M
;
_chemical_formula_sum "Si O2"
_cell_formula_units_Z 64
_cell_length_a 10.280684
_cell_length_b 9.055521
_cell_length_c 32.153310
_cell_angle_alpha 90.000000
_cell_angle_beta 90.000000
_cell_angle_gamma 90.000000
_cell_volume 2993.375089
_symmetry_space_group_name_H-M "C M C M"
_symmetry_group_IT_number 63
_symmetry_cell_setting 'orthorhombic'
loop_
_space_group_symop_operation_xyz
x,y,z
-x,-y,1/2+z
x,-y,-z
-x,y,1/2-z
-x,-y,-z
x,y,1/2-z
-x,y,z
x,-y,1/2+z
1/2+x,1/2+y,z
1/2-x,1/2-y,1/2+z
1/2+x,1/2-y,-z
1/2-x,1/2+y,1/2-z
1/2-x,1/2-y,-z
1/2+x,1/2+y,1/2-z
1/2-x,1/2+y,z
1/2+x,1/2-y,1/2+z
loop_
_atom_site_type_symbol
_atom_site_label
_atom_site_fract_x
_atom_site_fract_y
_atom_site_fract_z
Si Si1 0.220290 0.107153 0.854000
Si Si2 0.000000 0.390210 0.939223
Si Si3 0.000000 0.730164 0.529332
Si Si4 0.353773 0.866031 0.796768
Si Si5 0.204395 0.851866 0.910560
O O1 0.144693 0.218107 0.824146
O O2 0.317829 0.216081 0.878779
O O3 0.278911 0.987779 0.822823
O O4 0.158231 0.004855 0.889873
O O5 0.000000 0.561482 0.953611
O O6 0.861780 0.363140 0.916256
O O7 0.000000 0.286451 0.979945
O O8 0.126440 0.812911 0.547843
O O9 0.301947 0.840759 0.750000
O O10 0.500000 0.920488 0.793218
#
# Coordination Sequence:
#
# PCOD9475017 Si02
#       5
#    16   8   8  16  16
#     4  10  23  37  64  90 128 158 210 261 309 376
#     4  11  24  45  63  95 134 166 215 268 321 383
#     4  11  24  43  67  93 130 172 211 268 327 377
#     4  10  22  41  64  90 124 165 207 260 320 377
#     4  11  23  41  67  96 126 172 213 264 319 377
#
# _framework density 21.380548999999998
#
# number of rings (size 3 to 8) (size 9 to 14) (size 15 to 20)
#    0.000    1.500    2.500    1.500   10.500    0.000 
#    0.000    1.250    0.000    7.500    0.000    0.000 
#    0.000    0.000    0.000    0.000    0.000    0.000 
#
# Total GULP energy -178492.834297 kJ/mol
# GULP energy per Si atom -5577.901072 kJ/mol
# Density = 2.133189 g / cm^3
# Si number density = 21.380549 Si / 1000 Ang^3
#
#
#
# Elastic Constant Matrix: (Units=GPa)
#
#
# Indices 1 2 3 4 5 6 
#
# 1 89.9532 8.2410 18.1359 0.0000 0.0000 0.0000
# 2 8.2410 95.0850 11.7679 0.0000 0.0000 0.0000
# 3 18.1359 11.7679 89.6544 0.0000 0.0000 0.0000
# 4 0.0000 0.0000 0.0000 31.2449 0.0000 0.0000
# 5 0.0000 0.0000 0.0000 0.0000 59.9206 0.0000
# 6 0.0000 0.0000 0.0000 0.0000 0.0000 -0.6658
#
#
#
# Elastic Compliance Matrix: (Units=1/GPa)
#
#
# Indices 1 2 3 4 5 6 
#
# 1 0.011639 -0.000729 -0.002259 0.000000 0.000000 0.000000
# 2 -0.000729 0.010736 -0.001262 0.000000 0.000000 0.000000
# 3 -0.002259 -0.001262 0.011776 0.000000 0.000000 0.000000
# 4 0.000000 0.000000 0.000000 0.032005 0.000000 0.000000
# 5 0.000000 0.000000 0.000000 0.000000 0.016689 0.000000
# 6 0.000000 0.000000 0.000000 0.000000 0.000000 -1.501885
#
#
# Mechanical properties :
#
#
# Convention : Reuss Voigt Hill
#
# Bulk Modulus (GPa) = 38.98254 38.99803 38.99028
# Shear Modulus (GPa) = -3.56636 33.86980 15.15172
#
# Velocity S-wave (km/s) = -1.29293 3.98444 2.66497
# Velocity P-wave (km/s) = 4.00542 6.28071 5.26739
#
# Compressibility (1/GPa) = 0.02565251
#
# Stress axis : x y z
#
# Youngs Moduli (GPa) = 85.91734 93.14233 84.91511
#
# Poissons Ratio (x) = 0.06792 0.19180
# Poissons Ratio (y) = 0.06265 0.10714
# Poissons Ratio (z) = 0.19406 0.11752
#
# Static dielectric constant tensor:
#      x y z
#    x 1.781690 0.000000 0.000000 
#    y 0.000000 1.768200 0.000000 
#    z 0.000000 0.000000 1.803090 
# 
# From -- ./inp_files/72375.got.cif
#   From: 2010.05.17/outbox.cif.g08.bks.cpg/sg63_37_cif.got.tgz:72375.got - 2010.06.03 15:47:04.
