data_PCOD9475145
_publ_section_title
;
Structure prediction by ZEFSAII (Michael W. Deem and Ramdas Pophale) SiO2 
 PCOD9475145
Probable space group: C M C M
;
_chemical_formula_sum "Si O2"
_cell_formula_units_Z 72
_cell_length_a 13.771935
_cell_length_b 7.230608
_cell_length_c 28.242856
_cell_angle_alpha 90.000000
_cell_angle_beta 90.000000
_cell_angle_gamma 90.000000
_cell_volume 2812.408445
_symmetry_space_group_name_H-M "C M C M"
_symmetry_group_IT_number 63
_symmetry_cell_setting 'orthorhombic'
loop_
_space_group_symop_operation_xyz
x,y,z
-x,-y,1/2+z
x,-y,-z
-x,y,1/2-z
-x,-y,-z
x,y,1/2-z
-x,y,z
x,-y,1/2+z
1/2+x,1/2+y,z
1/2-x,1/2-y,1/2+z
1/2+x,1/2-y,-z
1/2-x,1/2+y,1/2-z
1/2-x,1/2-y,-z
1/2+x,1/2+y,1/2-z
1/2-x,1/2+y,z
1/2+x,1/2-y,1/2+z
loop_
_atom_site_type_symbol
_atom_site_label
_atom_site_fract_x
_atom_site_fract_y
_atom_site_fract_z
Si Si1 0.640061 0.457797 0.303331
Si Si2 0.889042 0.727357 0.037389
Si Si3 0.822833 0.868167 0.561555
Si Si4 0.000000 0.673129 0.150200
Si Si5 0.847331 0.657122 0.659828
O O1 0.619580 0.391559 0.250000
O O2 0.752289 0.427835 0.315948
O O3 0.615941 0.674090 0.307781
O O4 0.582420 0.332066 0.339559
O O5 0.792654 0.613572 0.050668
O O6 0.000000 0.668683 0.051014
O O7 0.870230 0.929578 0.059637
O O8 0.877247 0.759617 0.981045
O O9 0.829695 0.762334 0.610346
O O10 0.917152 0.511256 0.149808
#
# Coordination Sequence:
#
# PCOD9475145 Si02
#       5
#    16  16  16   8  16
#     4  12  27  50  77 110 151 198 251 312 384 452
#     4  10  22  43  72  99 146 195 233 305 370 436
#     4  10  22  44  67 106 145 185 252 297 366 451
#     4  12  29  48  78 113 145 203 257 307 383 455
#     4  12  26  49  77 114 154 197 251 321 373 451
#
# _framework density 25.600832
#
# number of rings (size 3 to 8) (size 9 to 14) (size 15 to 20)
#    0.000    0.889    2.222    4.333    3.111    2.667 
#    6.000   10.000    0.000    0.000    0.000    0.000 
#    0.000    0.000    0.000    0.000    0.000    0.000 
#
# Total GULP energy -200919.816744 kJ/mol
# GULP energy per Si atom -5581.106021 kJ/mol
# Density = 2.554256 g / cm^3
# Si number density = 25.600832 Si / 1000 Ang^3
#
#
#
# Elastic Constant Matrix: (Units=GPa)
#
#
# Indices 1 2 3 4 5 6 
#
# 1 177.1505 24.3890 -4.1935 0.0000 0.0000 0.0000
# 2 24.3890 88.1210 16.7976 0.0000 0.0000 0.0000
# 3 -4.1935 16.7976 43.6641 0.0000 0.0000 0.0000
# 4 0.0000 0.0000 0.0000 2.0422 0.0000 0.0000
# 5 0.0000 0.0000 0.0000 0.0000 -13.3816 0.0000
# 6 0.0000 0.0000 0.0000 0.0000 0.0000 61.3105
#
#
#
# Elastic Compliance Matrix: (Units=1/GPa)
#
#
# Indices 1 2 3 4 5 6 
#
# 1 0.005936 -0.001890 0.001297 0.000000 0.000000 0.000000
# 2 -0.001890 0.012848 -0.005124 0.000000 0.000000 0.000000
# 3 0.001297 -0.005124 0.024998 0.000000 0.000000 0.000000
# 4 0.000000 0.000000 0.000000 0.489661 0.000000 0.000000
# 5 0.000000 0.000000 0.000000 0.000000 -0.074729 0.000000
# 6 0.000000 0.000000 0.000000 0.000000 0.000000 0.016310
#
#
# Mechanical properties :
#
#
# Convention : Reuss Voigt Hill
#
# Bulk Modulus (GPa) = 30.91415 42.54686 36.73050
# Shear Modulus (GPa) = 10.05550 28.12372 19.08961
#
# Velocity S-wave (km/s) = 1.98402 3.31803 2.73365
# Velocity P-wave (km/s) = 4.16535 5.59772 4.93379
#
# Compressibility (1/GPa) = 0.03234765
#
# Stress axis : x y z
#
# Youngs Moduli (GPa) = 168.46799 77.83361 40.00324
#
# Poissons Ratio (x) = 0.14712 -0.05189
# Poissons Ratio (y) = 0.31843 0.20498
# Poissons Ratio (z) = -0.21854 0.39883
#
# Static dielectric constant tensor:
#      x y z
#    x 1.994250 0.000000 0.000000 
#    y 0.000000 1.964690 0.000000 
#    z 0.000000 0.000000 2.205410 
# 
# From -- ./inp_files/73234.got.cif
#   From: 2010.05.17/outbox.cif.g08.bks.cpg/sg63_37_cif.got.tgz:73234.got - 2010.06.03 15:47:04.
