data_PCOD9475249
_publ_section_title
;
Structure prediction by ZEFSAII (Michael W. Deem and Ramdas Pophale) SiO2 
 PCOD9475249
Probable space group: C M C M
;
_chemical_formula_sum "Si O2"
_cell_formula_units_Z 68
_cell_length_a 7.938653
_cell_length_b 20.570870
_cell_length_c 21.342272
_cell_angle_alpha 90.000000
_cell_angle_beta 90.000000
_cell_angle_gamma 90.000000
_cell_volume 3485.299704
_symmetry_space_group_name_H-M "C M C M"
_symmetry_group_IT_number 63
_symmetry_cell_setting 'orthorhombic'
loop_
_space_group_symop_operation_xyz
x,y,z
-x,-y,1/2+z
x,-y,-z
-x,y,1/2-z
-x,-y,-z
x,y,1/2-z
-x,y,z
x,-y,1/2+z
1/2+x,1/2+y,z
1/2-x,1/2-y,1/2+z
1/2+x,1/2-y,-z
1/2-x,1/2+y,1/2-z
1/2-x,1/2-y,-z
1/2+x,1/2+y,1/2-z
1/2-x,1/2+y,z
1/2+x,1/2-y,1/2+z
loop_
_atom_site_type_symbol
_atom_site_label
_atom_site_fract_x
_atom_site_fract_y
_atom_site_fract_z
Si Si1 0.195097 0.760331 0.681499
Si Si2 0.194062 0.798827 0.055317
Si Si3 0.000000 0.061449 0.250000
Si Si4 0.692439 0.096711 0.158862
Si Si5 0.299613 0.072716 0.488063
O O1 0.233507 0.730621 0.750000
O O2 0.216359 0.715546 0.621091
O O3 0.299035 0.826399 0.673889
O O4 0.000000 0.781732 0.683096
O O5 0.000000 0.785445 0.067165
O O6 0.250000 0.750000 0.000000
O O7 0.219628 0.871428 0.030371
O O8 0.152835 0.064890 0.303751
O O9 0.500000 0.073487 0.172529
O O10 0.721855 0.089361 0.084801
O O11 0.500000 0.073776 0.501584
O O12 0.236195 0.000000 0.500000
#
# Coordination Sequence:
#
# PCOD9475249 Si02
#       5
#    16  16   4  16  16
#     4  11  21  37  60  90 127 164 206 261 323 378
#     4  12  24  37  61  94 126 161 208 262 317 378
#     4  12  22  36  58  94 128 164 206 272 314 390
#     4  11  21  36  61  92 124 164 211 263 319 381
#     4  10  23  43  65  90 123 167 216 267 324 380
#
# _framework density 19.510515999999999
#
# number of rings (size 3 to 8) (size 9 to 14) (size 15 to 20)
#    0.000    0.941    4.706    3.176    1.647    1.882 
#    0.000    0.000    2.588    0.000    0.000    0.000 
#    0.000    0.000    0.000    0.000    0.000    0.000 
#
# Total GULP energy -189309.926007 kJ/mol
# GULP energy per Si atom -5567.939000 kJ/mol
# Density = 1.946611 g / cm^3
# Si number density = 19.510516 Si / 1000 Ang^3
#
#
#
# Elastic Constant Matrix: (Units=GPa)
#
#
# Indices 1 2 3 4 5 6 
#
# 1 112.0765 1.2011 35.5347 0.0000 0.0000 0.0000
# 2 1.2011 71.2925 42.6726 0.0000 0.0000 0.0000
# 3 35.5347 42.6726 155.6133 0.0000 0.0000 0.0000
# 4 0.0000 0.0000 0.0000 14.0977 0.0000 0.0000
# 5 0.0000 0.0000 0.0000 0.0000 34.8688 0.0000
# 6 0.0000 0.0000 0.0000 0.0000 0.0000 17.0847
#
#
#
# Elastic Compliance Matrix: (Units=1/GPa)
#
#
# Indices 1 2 3 4 5 6 
#
# 1 0.009734 0.001395 -0.002605 0.000000 0.000000 0.000000
# 2 0.001395 0.016981 -0.004975 0.000000 0.000000 0.000000
# 3 -0.002605 -0.004975 0.008385 0.000000 0.000000 0.000000
# 4 0.000000 0.000000 0.000000 0.070933 0.000000 0.000000
# 5 0.000000 0.000000 0.000000 0.000000 0.028679 0.000000
# 6 0.000000 0.000000 0.000000 0.000000 0.000000 0.058532
#
#
# Mechanical properties :
#
#
# Convention : Reuss Voigt Hill
#
# Bulk Modulus (GPa) = 43.99493 55.31103 49.65298
# Shear Modulus (GPa) = 23.45310 30.51516 26.98413
#
# Velocity S-wave (km/s) = 3.47086 3.95908 3.72298
# Velocity P-wave (km/s) = 6.21778 7.02211 6.63215
#
# Compressibility (1/GPa) = 0.02272989
#
# Stress axis : x y z
#
# Youngs Moduli (GPa) = 102.73726 58.88861 119.25404
#
# Poissons Ratio (x) = -0.08218 0.31070
# Poissons Ratio (y) = -0.14337 0.59332
# Poissons Ratio (z) = 0.26767 0.29299
#
# Static dielectric constant tensor:
#      x y z
#    x 1.699990 0.000000 0.000000 
#    y 0.000000 1.622550 0.000000 
#    z 0.000000 0.000000 1.637090 
# 
# From -- ./inp_files/50496.got.cif
#   From: 2010.05.17/outbox.cif.g08.bks.cpg/sg63_26_cif.got.tgz:50496.got - 2010.06.03 15:47:04.
