data_PCOD9475693
_publ_section_title
;
Structure prediction by ZEFSAII (Michael W. Deem and Ramdas Pophale) SiO2 
 PCOD9475693
Probable space group: C M C M
;
_chemical_formula_sum "Si O2"
_cell_formula_units_Z 60
_cell_length_a 11.061900
_cell_length_b 19.089475
_cell_length_c 13.727198
_cell_angle_alpha 90.000000
_cell_angle_beta 90.000000
_cell_angle_gamma 90.000000
_cell_volume 2898.715619
_symmetry_space_group_name_H-M "C M C M"
_symmetry_group_IT_number 63
_symmetry_cell_setting 'orthorhombic'
loop_
_space_group_symop_operation_xyz
x,y,z
-x,-y,1/2+z
x,-y,-z
-x,y,1/2-z
-x,-y,-z
x,y,1/2-z
-x,y,z
x,-y,1/2+z
1/2+x,1/2+y,z
1/2-x,1/2-y,1/2+z
1/2+x,1/2-y,-z
1/2-x,1/2+y,1/2-z
1/2-x,1/2-y,-z
1/2+x,1/2+y,1/2-z
1/2-x,1/2+y,z
1/2+x,1/2-y,1/2+z
loop_
_atom_site_type_symbol
_atom_site_label
_atom_site_fract_x
_atom_site_fract_y
_atom_site_fract_z
Si Si1 0.500000 0.464885 0.750000
Si Si2 0.248006 0.497679 0.750000
Si Si3 0.355232 0.147557 0.750000
Si Si4 0.759109 0.172139 0.541556
Si Si5 0.000000 0.915621 0.528820
Si Si6 0.129876 0.563245 0.424292
O O1 0.386515 0.516991 0.750000
O O2 0.500000 0.419616 0.648686
O O3 0.158798 0.562959 0.750000
O O4 0.227815 0.450805 0.656243
O O5 0.500000 0.165138 0.750000
O O6 0.281447 0.171630 0.845662
O O7 0.750000 0.250000 0.500000
O O8 0.653712 0.131145 0.485585
O O9 0.881805 0.127081 0.514259
O O10 0.000000 0.000000 0.500000
O O11 0.134278 0.500000 0.500000
O O12 0.000000 0.564311 0.375339
#
# Coordination Sequence:
#
# PCOD9475693 Si02
#       6
#     4   8   8  16   8  16
#     4  12  24  42  74 104 160 192 258 304 376 446
#     4  12  22  41  71 113 133 196 250 306 366 444
#     4  12  26  48  78 105 147 193 251 308 389 452
#     4  12  28  46  73 111 151 197 248 307 384 449
#     4  12  26  50  76 108 155 205 260 313 372 464
#     4  11  22  41  69 102 141 180 243 305 359 435
#
# _framework density 20.698822
#
# number of rings (size 3 to 8) (size 9 to 14) (size 15 to 20)
#    0.000    0.267    5.333    4.400    3.733    2.667 
#    0.000    0.000    0.000    0.000    0.000    0.000 
#    0.000    0.000    0.000    0.000    0.000    0.000 
#
# Total GULP energy -167328.928384 kJ/mol
# GULP energy per Si atom -5577.630946 kJ/mol
# Density = 2.065171 g / cm^3
# Si number density = 20.698822 Si / 1000 Ang^3
#
#
#
# Elastic Constant Matrix: (Units=GPa)
#
#
# Indices 1 2 3 4 5 6 
#
# 1 144.6241 33.0290 52.8554 0.0000 0.0000 0.0000
# 2 33.0290 150.6081 58.9179 0.0000 0.0000 0.0000
# 3 52.8554 58.9179 175.6127 0.0000 0.0000 0.0000
# 4 0.0000 0.0000 0.0000 49.4503 0.0000 0.0000
# 5 0.0000 0.0000 0.0000 0.0000 25.6528 0.0000
# 6 0.0000 0.0000 0.0000 0.0000 0.0000 0.5076
#
#
#
# Elastic Compliance Matrix: (Units=1/GPa)
#
#
# Indices 1 2 3 4 5 6 
#
# 1 0.007879 -0.000921 -0.002062 0.000000 0.000000 0.000000
# 2 -0.000921 0.007751 -0.002323 0.000000 0.000000 0.000000
# 3 -0.002062 -0.002323 0.007094 0.000000 0.000000 0.000000
# 4 0.000000 0.000000 0.000000 0.020222 0.000000 0.000000
# 5 0.000000 0.000000 0.000000 0.000000 0.038982 0.000000
# 6 0.000000 0.000000 0.000000 0.000000 0.000000 1.969933
#
#
# Mechanical properties :
#
#
# Convention : Reuss Voigt Hill
#
# Bulk Modulus (GPa) = 82.57140 84.49440 83.53290
# Shear Modulus (GPa) = 2.41954 36.85832 19.63893
#
# Velocity S-wave (km/s) = 1.08234 4.22441 3.08359
# Velocity P-wave (km/s) = 6.44518 8.04386 7.28849
#
# Compressibility (1/GPa) = 0.01211073
#
# Stress axis : x y z
#
# Youngs Moduli (GPa) = 126.92763 129.02349 140.95564
#
# Poissons Ratio (x) = 0.11884 0.29068
# Poissons Ratio (y) = 0.11691 0.32745
# Poissons Ratio (z) = 0.26176 0.29973
#
# Static dielectric constant tensor:
#      x y z
#    x 1.796870 0.000000 0.000000 
#    y 0.000000 1.682650 0.000000 
#    z 0.000000 0.000000 1.755520 
# 
# From -- ./inp_files/17170.got.cif
#   From: 2010.05.17/outbox.cif.g08.bks.cpg/sg63_9_cif.got.tgz:17170.got - 2010.06.03 15:47:04.
