data_PCOD9475113
_publ_section_title
;
Structure prediction by ZEFSAII (Michael W. Deem and Ramdas Pophale) SiO2 
 PCOD9475113
Probable space group: C M C M
;
_chemical_formula_sum "Si O2"
_cell_formula_units_Z 116
_cell_length_a 27.423841
_cell_length_b 8.849334
_cell_length_c 22.116700
_cell_angle_alpha 90.000000
_cell_angle_beta 90.000000
_cell_angle_gamma 90.000000
_cell_volume 5367.341103
_symmetry_space_group_name_H-M "C M C M"
_symmetry_group_IT_number 63
_symmetry_cell_setting 'orthorhombic'
loop_
_space_group_symop_operation_xyz
x,y,z
-x,-y,1/2+z
x,-y,-z
-x,y,1/2-z
-x,-y,-z
x,y,1/2-z
-x,y,z
x,-y,1/2+z
1/2+x,1/2+y,z
1/2-x,1/2-y,1/2+z
1/2+x,1/2-y,-z
1/2-x,1/2+y,1/2-z
1/2-x,1/2-y,-z
1/2+x,1/2+y,1/2-z
1/2-x,1/2+y,z
1/2+x,1/2-y,1/2+z
loop_
_atom_site_type_symbol
_atom_site_label
_atom_site_fract_x
_atom_site_fract_y
_atom_site_fract_z
Si Si1 0.055360 0.722619 0.424921
Si Si2 0.142532 0.120002 0.894695
Si Si3 0.303053 0.821161 0.507810
Si Si4 0.576811 0.925572 0.361776
Si Si5 0.605071 0.311597 0.551071
Si Si6 0.500000 0.938477 0.250000
Si Si7 0.186836 0.420857 0.322989
Si Si8 0.783430 0.078206 0.177693
O O1 0.092785 0.796190 0.376743
O O2 0.060391 0.544233 0.413260
O O3 0.073369 0.773963 0.491336
O O4 0.000000 0.769803 0.415587
O O5 0.173573 0.241651 0.932872
O O6 0.121970 0.981257 0.935254
O O7 0.176981 0.040441 0.846514
O O8 0.250000 0.750000 0.500000
O O9 0.343919 0.774572 0.459159
O O10 0.298707 0.000000 0.500000
O O11 0.577474 0.759453 0.391671
O O12 0.542482 0.937520 0.303777
O O13 0.633051 0.958159 0.345270
O O14 0.185799 0.430442 0.250000
O O15 0.202338 0.248905 0.338092
O O16 0.230178 0.529305 0.345665
O O17 0.782486 0.069164 0.250000
#
# Coordination Sequence:
#
# PCOD9475113 Si02
#       8
#    16  16  16  16  16   4  16  16
#     4  11  25  45  69  99 137 185 248 295 361 432
#     4  11  24  44  68 102 145 182 238 301 363 437
#     4  11  23  40  63 100 144 187 235 289 356 432
#     4  12  24  46  72 102 144 186 241 307 356 434
#     4  11  24  44  70 101 135 188 239 298 369 436
#     4  12  28  48  74 110 140 196 254 308 376 432
#     4  10  22  42  69 100 140 184 237 286 349 433
#     4  10  23  43  68 104 141 188 235 284 360 438
#
# _framework density 21.612189999999998
#
# number of rings (size 3 to 8) (size 9 to 14) (size 15 to 20)
#    0.000    1.103    2.759    4.552    4.828    2.759 
#    3.724    0.000    0.000    0.828    0.000    0.000 
#    0.000    0.000    0.000    0.000    0.000    0.000 
#
# Total GULP energy -323594.043646 kJ/mol
# GULP energy per Si atom -5579.207649 kJ/mol
# Density = 2.156300 g / cm^3
# Si number density = 21.612190 Si / 1000 Ang^3
#
#
#
# Elastic Constant Matrix: (Units=GPa)
#
#
# Indices 1 2 3 4 5 6 
#
# 1 199.4929 51.7316 40.3932 0.0000 0.0000 0.0000
# 2 51.7316 133.6886 31.2788 0.0000 0.0000 0.0000
# 3 40.3932 31.2788 68.5742 0.0000 0.0000 0.0000
# 4 0.0000 0.0000 0.0000 25.0602 0.0000 0.0000
# 5 0.0000 0.0000 0.0000 0.0000 32.6988 0.0000
# 6 0.0000 0.0000 0.0000 0.0000 0.0000 14.3349
#
#
#
# Elastic Compliance Matrix: (Units=1/GPa)
#
#
# Indices 1 2 3 4 5 6 
#
# 1 0.006009 -0.001676 -0.002775 0.000000 0.000000 0.000000
# 2 -0.001676 0.008841 -0.003045 0.000000 0.000000 0.000000
# 3 -0.002775 -0.003045 0.017607 0.000000 0.000000 0.000000
# 4 0.000000 0.000000 0.000000 0.039904 0.000000 0.000000
# 5 0.000000 0.000000 0.000000 0.000000 0.030582 0.000000
# 6 0.000000 0.000000 0.000000 0.000000 0.000000 0.069760
#
#
# Mechanical properties :
#
#
# Convention : Reuss Voigt Hill
#
# Bulk Modulus (GPa) = 57.26200 72.06253 64.66226
# Shear Modulus (GPa) = 25.83743 32.97558 29.40650
#
# Velocity S-wave (km/s) = 3.46135 3.91037 3.69269
# Velocity P-wave (km/s) = 6.52130 7.33511 6.94014
#
# Compressibility (1/GPa) = 0.01746359
#
# Stress axis : x y z
#
# Youngs Moduli (GPa) = 166.41008 113.10739 56.79678
#
# Poissons Ratio (x) = 0.18957 0.15762
# Poissons Ratio (y) = 0.27890 0.17297
# Poissons Ratio (z) = 0.46183 0.34447
#
# Static dielectric constant tensor:
#      x y z
#    x 1.773970 0.000000 0.000000 
#    y 0.000000 1.858720 0.000000 
#    z 0.000000 0.000000 1.843700 
# 
# From -- ./inp_files/65503.got.cif
#   From: 2010.05.17/outbox.cif.g08.bks.cpg/sg63_33_cif.got.tgz:65503.got - 2010.06.03 15:47:04.
