data_PCOD9475787
_publ_section_title
;
Structure prediction by ZEFSAII (Michael W. Deem and Ramdas Pophale) SiO2 
 PCOD9475787
Probable space group: C M C M
;
_chemical_formula_sum "Si O2"
_cell_formula_units_Z 48
_cell_length_a 12.346897
_cell_length_b 13.821836
_cell_length_c 13.740541
_cell_angle_alpha 90.000000
_cell_angle_beta 90.000000
_cell_angle_gamma 90.000000
_cell_volume 2344.916557
_symmetry_space_group_name_H-M "C M C M"
_symmetry_group_IT_number 63
_symmetry_cell_setting 'orthorhombic'
loop_
_space_group_symop_operation_xyz
x,y,z
-x,-y,1/2+z
x,-y,-z
-x,y,1/2-z
-x,-y,-z
x,y,1/2-z
-x,y,z
x,-y,1/2+z
1/2+x,1/2+y,z
1/2-x,1/2-y,1/2+z
1/2+x,1/2-y,-z
1/2-x,1/2+y,1/2-z
1/2-x,1/2-y,-z
1/2+x,1/2+y,1/2-z
1/2-x,1/2+y,z
1/2+x,1/2-y,1/2+z
loop_
_atom_site_type_symbol
_atom_site_label
_atom_site_fract_x
_atom_site_fract_y
_atom_site_fract_z
Si Si1 0.665472 0.911244 0.250000
Si Si2 0.000000 0.259466 0.602682
Si Si3 0.671196 0.437027 0.750000
Si Si4 0.188632 0.731887 0.250000
Si Si5 0.000000 0.027042 0.609835
Si Si6 0.000000 0.404138 0.072203
O O1 0.770733 0.842473 0.250000
O O2 0.599194 0.899938 0.149529
O O3 0.709653 0.019459 0.250000
O O4 0.889855 0.289312 0.658793
O O5 0.000000 0.143010 0.614376
O O6 0.000000 0.310652 0.498237
O O7 0.697055 0.324369 0.750000
O O8 0.603251 0.477462 0.660158
O O9 0.000000 0.000000 0.500000
O O10 0.000000 0.500000 0.000000
#
# Coordination Sequence:
#
# PCOD9475787 Si02
#       6
#     8   8   8   8   8   8
#     4  11  24  45  64  98 136 169 224 279 326 394
#     4  11  23  47  67  98 134 176 223 272 335 402
#     4  11  23  44  66  91 131 176 219 266 337 387
#     4  11  23  42  72  93 131 178 219 276 331 391
#     4  11  25  42  64  96 135 170 218 276 330 405
#     4  11  26  42  67 100 136 172 224 279 331 392
#
# _framework density 20.469811
#
# number of rings (size 3 to 8) (size 9 to 14) (size 15 to 20)
#    0.000    1.000    3.333    3.000    4.667    9.333 
#    0.000    0.000    0.000    0.000    0.000    0.000 
#    0.000    0.000    0.000    0.000    0.000    0.000 
#
# Total GULP energy -133859.876329 kJ/mol
# GULP energy per Si atom -5577.494847 kJ/mol
# Density = 2.042322 g / cm^3
# Si number density = 20.469811 Si / 1000 Ang^3
#
#
#
# Elastic Constant Matrix: (Units=GPa)
#
#
# Indices 1 2 3 4 5 6 
#
# 1 92.0015 21.5246 55.9214 0.0000 0.0000 0.0000
# 2 21.5246 78.5965 24.5159 0.0000 0.0000 0.0000
# 3 55.9214 24.5159 166.3403 0.0000 0.0000 0.0000
# 4 0.0000 0.0000 0.0000 33.8610 0.0000 0.0000
# 5 0.0000 0.0000 0.0000 0.0000 58.0437 0.0000
# 6 0.0000 0.0000 0.0000 0.0000 0.0000 45.4551
#
#
#
# Elastic Compliance Matrix: (Units=1/GPa)
#
#
# Indices 1 2 3 4 5 6 
#
# 1 0.014115 -0.002500 -0.004377 0.000000 0.000000 0.000000
# 2 -0.002500 0.013779 -0.001190 0.000000 0.000000 0.000000
# 3 -0.004377 -0.001190 0.007659 0.000000 0.000000 0.000000
# 4 0.000000 0.000000 0.000000 0.029532 0.000000 0.000000
# 5 0.000000 0.000000 0.000000 0.000000 0.017228 0.000000
# 6 0.000000 0.000000 0.000000 0.000000 0.000000 0.022000
#
#
# Mechanical properties :
#
#
# Convention : Reuss Voigt Hill
#
# Bulk Modulus (GPa) = 51.49862 60.09578 55.79720
# Shear Modulus (GPa) = 39.39486 43.13705 41.26596
#
# Velocity S-wave (km/s) = 4.39171 4.59557 4.49480
# Velocity P-wave (km/s) = 7.13646 7.58821 7.36580
#
# Compressibility (1/GPa) = 0.01941799
#
# Stress axis : x y z
#
# Youngs Moduli (GPa) = 70.84854 72.57303 130.57273
#
# Poissons Ratio (x) = 0.18145 0.57147
# Poissons Ratio (y) = 0.17714 0.15542
# Poissons Ratio (z) = 0.31008 0.08638
#
# Static dielectric constant tensor:
#      x y z
#    x 1.723540 0.000000 0.000000 
#    y 0.000000 1.768060 0.000000 
#    z 0.000000 0.000000 1.680740 
# 
# From -- ./inp_files/18562.got.cif
#   From: 2010.05.17/outbox.cif.g08.bks.cpg/sg63_10_cif.got.tgz:18562.got - 2010.06.03 15:47:04.
