data_PCOD9475523
_publ_section_title
;
Structure prediction by ZEFSAII (Michael W. Deem and Ramdas Pophale) SiO2 
 PCOD9475523
Probable space group: C M C M
;
_chemical_formula_sum "Si O2"
_cell_formula_units_Z 64
_cell_length_a 17.108376
_cell_length_b 10.554203
_cell_length_c 15.152056
_cell_angle_alpha 90.000000
_cell_angle_beta 90.000000
_cell_angle_gamma 90.000000
_cell_volume 2735.935133
_symmetry_space_group_name_H-M "C M C M"
_symmetry_group_IT_number 63
_symmetry_cell_setting 'orthorhombic'
loop_
_space_group_symop_operation_xyz
x,y,z
-x,-y,1/2+z
x,-y,-z
-x,y,1/2-z
-x,-y,-z
x,y,1/2-z
-x,y,z
x,-y,1/2+z
1/2+x,1/2+y,z
1/2-x,1/2-y,1/2+z
1/2+x,1/2-y,-z
1/2-x,1/2+y,1/2-z
1/2-x,1/2-y,-z
1/2+x,1/2+y,1/2-z
1/2-x,1/2+y,z
1/2+x,1/2-y,1/2+z
loop_
_atom_site_type_symbol
_atom_site_label
_atom_site_fract_x
_atom_site_fract_y
_atom_site_fract_z
Si Si1 0.786508 0.062575 0.652084
Si Si2 0.129124 0.707782 0.652812
Si Si3 0.588355 0.678232 0.534228
Si Si4 0.858890 0.554446 0.401736
O O1 0.820650 0.061740 0.750000
O O2 0.721527 0.174460 0.646049
O O3 0.850154 0.084025 0.578142
O O4 0.727984 0.943992 0.639539
O O5 0.111171 0.759376 0.750000
O O6 0.103502 0.787454 0.568385
O O7 0.096611 0.562253 0.645142
O O8 0.500000 0.635353 0.545385
O O9 0.601286 0.810953 0.587709
O O10 0.846893 0.500000 0.500000
#
# Coordination Sequence:
#
# PCOD9475523 Si02
#       4
#    16  16  16  16
#     4   9  19  36  53  78 114 152 187 226 274 333
#     4   8  17  34  53  76 112 155 188 220 269 333
#     4  11  21  33  58  90 115 142 182 236 289 327
#     4   8  17  32  54  77 109 145 188 222 271 328
#
# _framework density 23.392368000000001
#
# number of rings (size 3 to 8) (size 9 to 14) (size 15 to 20)
#    1.500    1.500    0.000    0.750    0.000    7.500 
#    0.000    0.000    0.000    0.750    0.000    0.000 
#    0.000    0.000    0.000    0.000    0.000    0.000 
#
# Total GULP energy -178450.058652 kJ/mol
# GULP energy per Si atom -5576.564333 kJ/mol
# Density = 2.333913 g / cm^3
# Si number density = 23.392368 Si / 1000 Ang^3
#
#
#
# Elastic Constant Matrix: (Units=GPa)
#
#
# Indices 1 2 3 4 5 6 
#
# 1 108.3799 9.9680 40.7483 0.0000 0.0000 0.0000
# 2 9.9680 71.8488 -16.2417 0.0000 0.0000 0.0000
# 3 40.7483 -16.2417 108.3257 0.0000 0.0000 0.0000
# 4 0.0000 0.0000 0.0000 14.4743 0.0000 0.0000
# 5 0.0000 0.0000 0.0000 0.0000 3.7799 0.0000
# 6 0.0000 0.0000 0.0000 0.0000 0.0000 11.8133
#
#
#
# Elastic Compliance Matrix: (Units=1/GPa)
#
#
# Indices 1 2 3 4 5 6 
#
# 1 0.011195 -0.002593 -0.004600 0.000000 0.000000 0.000000
# 2 -0.002593 0.015007 0.003225 0.000000 0.000000 0.000000
# 3 -0.004600 0.003225 0.011445 0.000000 0.000000 0.000000
# 4 0.000000 0.000000 0.000000 0.069088 0.000000 0.000000
# 5 0.000000 0.000000 0.000000 0.000000 0.264556 0.000000
# 6 0.000000 0.000000 0.000000 0.000000 0.000000 0.084651
#
#
# Mechanical properties :
#
#
# Convention : Reuss Voigt Hill
#
# Bulk Modulus (GPa) = 33.65603 39.72261 36.68932
# Shear Modulus (GPa) = 10.55342 22.95214 16.75278
#
# Velocity S-wave (km/s) = 2.12633 3.13578 2.67903
# Velocity P-wave (km/s) = 4.52186 5.48896 5.02871
#
# Compressibility (1/GPa) = 0.02971235
#
# Stress axis : x y z
#
# Youngs Moduli (GPa) = 89.32787 66.63573 87.37197
#
# Poissons Ratio (x) = 0.17278 0.40190
# Poissons Ratio (y) = 0.23162 -0.28181
# Poissons Ratio (z) = 0.41089 -0.21493
#
# Static dielectric constant tensor:
#      x y z
#    x 1.842880 0.000000 0.000000 
#    y 0.000000 1.975390 0.000000 
#    z 0.000000 0.000000 1.875040 
# 
# From -- ./inp_files/33363.got.cif
#   From: 2010.05.17/outbox.cif.g08.bks.cpg/sg63_17_cif.got.tgz:33363.got - 2010.06.03 15:47:04.
