data_PCOD9475056
_publ_section_title
;
Structure prediction by ZEFSAII (Michael W. Deem and Ramdas Pophale) SiO2 
 PCOD9475056
Probable space group: C M C M
;
_chemical_formula_sum "Si O2"
_cell_formula_units_Z 56
_cell_length_a 26.204930
_cell_length_b 11.013540
_cell_length_c 9.830864
_cell_angle_alpha 90.000000
_cell_angle_beta 90.000000
_cell_angle_gamma 90.000000
_cell_volume 2837.276268
_symmetry_space_group_name_H-M "C M C M"
_symmetry_group_IT_number 63
_symmetry_cell_setting 'orthorhombic'
loop_
_space_group_symop_operation_xyz
x,y,z
-x,-y,1/2+z
x,-y,-z
-x,y,1/2-z
-x,-y,-z
x,y,1/2-z
-x,y,z
x,-y,1/2+z
1/2+x,1/2+y,z
1/2-x,1/2-y,1/2+z
1/2+x,1/2-y,-z
1/2-x,1/2+y,1/2-z
1/2-x,1/2-y,-z
1/2+x,1/2+y,1/2-z
1/2-x,1/2+y,z
1/2+x,1/2-y,1/2+z
loop_
_atom_site_type_symbol
_atom_site_label
_atom_site_fract_x
_atom_site_fract_y
_atom_site_fract_z
Si Si1 0.891587 0.779310 0.485091
Si Si2 0.236575 0.864409 0.750000
Si Si3 0.159604 0.327662 0.250000
Si Si4 0.143059 0.387473 0.750000
Si Si5 0.500000 0.374341 0.917176
Si Si6 0.319903 0.500000 0.500000
O O1 0.864668 0.732945 0.619693
O O2 0.885076 0.672879 0.377014
O O3 0.858687 0.897751 0.440210
O O4 0.948936 0.809682 0.528708
O O5 0.216909 0.724581 0.750000
O O6 0.297107 0.854973 0.750000
O O7 0.214595 0.936487 0.882724
O O8 0.146438 0.467986 0.250000
O O9 0.500000 0.385413 0.750000
O O10 0.500000 0.500000 0.000000
#
# Coordination Sequence:
#
# PCOD9475056 Si02
#       6
#    16   8   8   8   8   8
#     4  11  24  44  70 103 140 179 237 297 347 419
#     4  10  25  40  68  98 145 187 236 284 356 413
#     4  10  24  45  63  97 145 189 230 292 347 423
#     4  12  27  41  67 101 142 194 236 282 345 430
#     4  12  26  46  79 107 140 180 227 300 368 408
#     4  10  22  41  68 102 136 175 230 292 350 414
#
# _framework density 19.73724
#
# number of rings (size 3 to 8) (size 9 to 14) (size 15 to 20)
#    0.000    1.143    2.857    1.714   10.000    2.286 
#    0.000    4.286    0.000    0.000    0.000    0.000 
#    0.000    0.000    0.000    0.000    0.000    0.000 
#
# Total GULP energy -156297.193802 kJ/mol
# GULP energy per Si atom -5582.042636 kJ/mol
# Density = 1.969232 g / cm^3
# Si number density = 19.737240 Si / 1000 Ang^3
#
#
#
# Elastic Constant Matrix: (Units=GPa)
#
#
# Indices 1 2 3 4 5 6 
#
# 1 132.6630 39.9561 41.7976 0.0000 0.0000 0.0000
# 2 39.9561 127.0257 31.6682 0.0000 0.0000 0.0000
# 3 41.7976 31.6682 111.7496 0.0000 0.0000 0.0000
# 4 0.0000 0.0000 0.0000 30.8920 0.0000 0.0000
# 5 0.0000 0.0000 0.0000 0.0000 31.7268 0.0000
# 6 0.0000 0.0000 0.0000 0.0000 0.0000 25.5020
#
#
#
# Elastic Compliance Matrix: (Units=1/GPa)
#
#
# Indices 1 2 3 4 5 6 
#
# 1 0.009063 -0.002158 -0.002778 0.000000 0.000000 0.000000
# 2 -0.002158 0.008985 -0.001739 0.000000 0.000000 0.000000
# 3 -0.002778 -0.001739 0.010481 0.000000 0.000000 0.000000
# 4 0.000000 0.000000 0.000000 0.032371 0.000000 0.000000
# 5 0.000000 0.000000 0.000000 0.000000 0.031519 0.000000
# 6 0.000000 0.000000 0.000000 0.000000 0.000000 0.039213
#
#
# Mechanical properties :
#
#
# Convention : Reuss Voigt Hill
#
# Bulk Modulus (GPa) = 65.88613 66.47577 66.18095
# Shear Modulus (GPa) = 33.32415 34.82525 34.07470
#
# Velocity S-wave (km/s) = 4.11346 4.20509 4.15952
# Velocity P-wave (km/s) = 7.48431 7.57169 7.52812
#
# Compressibility (1/GPa) = 0.01517770
#
# Stress axis : x y z
#
# Youngs Moduli (GPa) = 110.33537 111.29886 95.41494
#
# Poissons Ratio (x) = 0.24021 0.26509
# Poissons Ratio (y) = 0.23813 0.16592
# Poissons Ratio (z) = 0.30655 0.19354
#
# Static dielectric constant tensor:
#      x y z
#    x 1.641900 0.000000 0.000000 
#    y 0.000000 1.717530 0.000000 
#    z 0.000000 0.000000 1.672280 
# 
# From -- ./inp_files/11503.got.cif
#   From: 2010.05.17/outbox.cif.g08.bks.cpg/sg63_6_cif.got.tgz:11503.got - 2010.06.03 15:47:04.
