data_PCOD9475687
_publ_section_title
;
Structure prediction by ZEFSAII (Michael W. Deem and Ramdas Pophale) SiO2 
 PCOD9475687
Probable space group: C M C M
;
_chemical_formula_sum "Si O2"
_cell_formula_units_Z 64
_cell_length_a 10.461749
_cell_length_b 18.038349
_cell_length_c 16.916417
_cell_angle_alpha 90.000000
_cell_angle_beta 90.000000
_cell_angle_gamma 90.000000
_cell_volume 3192.342382
_symmetry_space_group_name_H-M "C M C M"
_symmetry_group_IT_number 63
_symmetry_cell_setting 'orthorhombic'
loop_
_space_group_symop_operation_xyz
x,y,z
-x,-y,1/2+z
x,-y,-z
-x,y,1/2-z
-x,-y,-z
x,y,1/2-z
-x,y,z
x,-y,1/2+z
1/2+x,1/2+y,z
1/2-x,1/2-y,1/2+z
1/2+x,1/2-y,-z
1/2-x,1/2+y,1/2-z
1/2-x,1/2-y,-z
1/2+x,1/2+y,1/2-z
1/2-x,1/2+y,z
1/2+x,1/2-y,1/2+z
loop_
_atom_site_type_symbol
_atom_site_label
_atom_site_fract_x
_atom_site_fract_y
_atom_site_fract_z
Si Si1 0.500000 0.852420 0.344168
Si Si2 0.754598 0.094114 0.155188
Si Si3 0.761118 0.741093 0.906210
Si Si4 0.500000 0.981479 0.907556
Si Si5 0.000000 0.999604 0.346178
Si Si6 0.500000 0.329666 0.344897
O O1 0.500000 0.840277 0.250000
O O2 0.624893 0.813931 0.381613
O O3 0.500000 0.940001 0.361879
O O4 0.741007 0.088889 0.250000
O O5 0.783427 0.178365 0.131711
O O6 0.624932 0.065183 0.115773
O O7 0.872714 0.042684 0.129247
O O8 0.627177 0.710025 0.874587
O O9 0.750000 0.750000 0.000000
O O10 0.500000 0.000000 0.000000
O O11 0.000000 0.914876 0.372762
O O12 0.000000 0.999453 0.250000
O O13 0.500000 0.328912 0.250000
#
# Coordination Sequence:
#
# PCOD9475687 Si02
#       6
#     8  16  16   8   8   8
#     4  12  24  42  66  93 124 167 217 264 312 378
#     4  11  22  41  65  91 123 165 210 257 313 381
#     4  12  25  42  63  94 130 166 209 264 319 372
#     4  12  25  42  63  94 130 166 209 264 319 372
#     4   9  21  39  64  92 118 150 202 257 304 363
#     4  11  22  41  65  91 123 165 210 257 313 381
#
# _framework density 20.047974
#
# number of rings (size 3 to 8) (size 9 to 14) (size 15 to 20)
#    0.000    0.750    0.000    8.625    0.000    3.000 
#    0.000    1.875    0.000    0.000    0.000    0.000 
#    0.000    0.000    0.000    0.000    0.000    0.000 
#
# Total GULP energy -179195.912407 kJ/mol
# GULP energy per Si atom -5599.872263 kJ/mol
# Density = 2.000234 g / cm^3
# Si number density = 20.047974 Si / 1000 Ang^3
#
#
#
# Elastic Constant Matrix: (Units=GPa)
#
#
# Indices 1 2 3 4 5 6 
#
# 1 61.2857 -24.6180 30.8690 0.0000 0.0000 0.0000
# 2 -24.6180 67.1212 -6.0536 0.0000 0.0000 0.0000
# 3 30.8690 -6.0536 40.3677 0.0000 0.0000 0.0000
# 4 0.0000 0.0000 0.0000 26.5391 0.0000 0.0000
# 5 0.0000 0.0000 0.0000 0.0000 66.2748 0.0000
# 6 0.0000 0.0000 0.0000 0.0000 0.0000 44.0391
#
#
#
# Elastic Compliance Matrix: (Units=1/GPa)
#
#
# Indices 1 2 3 4 5 6 
#
# 1 0.031600 0.009539 -0.022733 0.000000 0.000000 0.000000
# 2 0.009539 0.017983 -0.004598 0.000000 0.000000 0.000000
# 3 -0.022733 -0.004598 0.041467 0.000000 0.000000 0.000000
# 4 0.000000 0.000000 0.000000 0.037680 0.000000 0.000000
# 5 0.000000 0.000000 0.000000 0.000000 0.015089 0.000000
# 6 0.000000 0.000000 0.000000 0.000000 0.000000 0.022707
#
#
# Mechanical properties :
#
#
# Convention : Reuss Voigt Hill
#
# Bulk Modulus (GPa) = 18.02945 18.79658 18.41302
# Shear Modulus (GPa) = 22.66572 38.60908 30.63740
#
# Velocity S-wave (km/s) = 3.36605 4.39319 3.91347
# Velocity P-wave (km/s) = 4.91118 5.92703 5.44286
#
# Compressibility (1/GPa) = 0.05546480
#
# Stress axis : x y z
#
# Youngs Moduli (GPa) = 31.64604 55.60958 24.11560
#
# Poissons Ratio (x) = -0.53048 0.54823
# Poissons Ratio (y) = -0.30189 0.11089
# Poissons Ratio (z) = 0.71942 0.25570
#
# Static dielectric constant tensor:
#      x y z
#    x 1.657690 0.000000 0.000000 
#    y 0.000000 1.635530 0.000000 
#    z 0.000000 0.000000 1.678090 
# 
# From -- ./inp_files/29203.got.cif
#   From: 2010.05.17/outbox.cif.g08.bks.cpg/sg63_15_cif.got.tgz:29203.got - 2010.06.03 15:47:04.
