data_PCOD9475668
_publ_section_title
;
Structure prediction by ZEFSAII (Michael W. Deem and Ramdas Pophale) SiO2 
 PCOD9475668
Probable space group: C M C M
;
_chemical_formula_sum "Si O2"
_cell_formula_units_Z 64
_cell_length_a 36.366730
_cell_length_b 9.914822
_cell_length_c 10.088097
_cell_angle_alpha 90.000000
_cell_angle_beta 90.000000
_cell_angle_gamma 90.000000
_cell_volume 3637.461652
_symmetry_space_group_name_H-M "C M C M"
_symmetry_group_IT_number 63
_symmetry_cell_setting 'orthorhombic'
loop_
_space_group_symop_operation_xyz
x,y,z
-x,-y,1/2+z
x,-y,-z
-x,y,1/2-z
-x,-y,-z
x,y,1/2-z
-x,y,z
x,-y,1/2+z
1/2+x,1/2+y,z
1/2-x,1/2-y,1/2+z
1/2+x,1/2-y,-z
1/2-x,1/2+y,1/2-z
1/2-x,1/2-y,-z
1/2+x,1/2+y,1/2-z
1/2-x,1/2+y,z
1/2+x,1/2-y,1/2+z
loop_
_atom_site_type_symbol
_atom_site_label
_atom_site_fract_x
_atom_site_fract_y
_atom_site_fract_z
Si Si1 0.164279 0.500000 0.000000
Si Si2 0.617258 0.253339 0.593642
Si Si3 0.958319 0.369182 0.406838
Si Si4 0.785469 0.924045 0.250000
Si Si5 0.711701 0.101536 0.250000
Si Si6 0.664633 0.500000 0.500000
O O1 0.138531 0.615698 0.939571
O O2 0.188731 0.436751 0.881981
O O3 0.619532 0.279120 0.750000
O O4 0.574492 0.232411 0.558415
O O5 0.638405 0.372647 0.522112
O O6 0.954732 0.500000 0.500000
O O7 0.953799 0.404766 0.250000
O O8 0.000000 0.316802 0.423108
O O9 0.779607 0.761822 0.250000
O O10 0.747798 0.008119 0.250000
O O11 0.809175 0.967797 0.123279
#
# Coordination Sequence:
#
# PCOD9475668 Si02
#       6
#     8  16  16   8   8   8
#     4  12  23  40  63  90 118 156 202 244 299 362
#     4  11  22  39  64  92 121 161 202 251 295 355
#     4   9  18  34  58  91 127 160 196 243 298 353
#     4  12  28  44  64  88 121 156 200 251 314 369
#     4  12  28  42  62  90 119 156 198 251 306 373
#     4  12  25  44  63  88 120 162 204 252 301 360
#
# _framework density 17.594688000000001
#
# number of rings (size 3 to 8) (size 9 to 14) (size 15 to 20)
#    0.000    1.000    6.250    0.750    3.500    2.000 
#    2.250    0.625    0.000    0.000    0.000    0.000 
#    0.000    0.000    0.000    0.000    0.000    0.000 
#
# Total GULP energy -178692.090793 kJ/mol
# GULP energy per Si atom -5584.127837 kJ/mol
# Density = 1.755464 g / cm^3
# Si number density = 17.594688 Si / 1000 Ang^3
#
#
#
# Elastic Constant Matrix: (Units=GPa)
#
#
# Indices 1 2 3 4 5 6 
#
# 1 132.2063 36.3150 37.2029 0.0000 0.0000 0.0000
# 2 36.3150 76.2944 3.8384 0.0000 0.0000 0.0000
# 3 37.2029 3.8384 74.3436 0.0000 0.0000 0.0000
# 4 0.0000 0.0000 0.0000 22.5014 0.0000 0.0000
# 5 0.0000 0.0000 0.0000 0.0000 20.3573 0.0000
# 6 0.0000 0.0000 0.0000 0.0000 0.0000 15.8363
#
#
#
# Elastic Compliance Matrix: (Units=1/GPa)
#
#
# Indices 1 2 3 4 5 6 
#
# 1 0.010200 -0.004610 -0.004866 0.000000 0.000000 0.000000
# 2 -0.004610 0.015225 0.001521 0.000000 0.000000 0.000000
# 3 -0.004866 0.001521 0.015808 0.000000 0.000000 0.000000
# 4 0.000000 0.000000 0.000000 0.044442 0.000000 0.000000
# 5 0.000000 0.000000 0.000000 0.000000 0.049122 0.000000
# 6 0.000000 0.000000 0.000000 0.000000 0.000000 0.063146
#
#
# Mechanical properties :
#
#
# Convention : Reuss Voigt Hill
#
# Bulk Modulus (GPa) = 39.49181 48.61742 44.05462
# Shear Modulus (GPa) = 22.49282 25.43820 23.96551
#
# Velocity S-wave (km/s) = 3.57933 3.80648 3.69465
# Velocity P-wave (km/s) = 6.29096 6.85645 6.57978
#
# Compressibility (1/GPa) = 0.02532171
#
# Stress axis : x y z
#
# Youngs Moduli (GPa) = 98.04372 65.68182 63.26079
#
# Poissons Ratio (x) = 0.30279 0.30783
# Poissons Ratio (y) = 0.45198 -0.09621
# Poissons Ratio (z) = 0.47708 -0.09989
#
# Static dielectric constant tensor:
#      x y z
#    x 1.600740 0.000000 0.000000 
#    y 0.000000 1.566030 0.000000 
#    z 0.000000 0.000000 1.591580 
# 
# From -- ./inp_files/25540.got.cif
#   From: 2010.05.17/outbox.cif.g08.bks.cpg/sg63_13_cif.got.tgz:25540.got - 2010.06.03 15:47:04.
