data_PCOD9475308
_publ_section_title
;
Structure prediction by ZEFSAII (Michael W. Deem and Ramdas Pophale) SiO2 
 PCOD9475308
Probable space group: C M C M
;
_chemical_formula_sum "Si O2"
_cell_formula_units_Z 52
_cell_length_a 7.763496
_cell_length_b 22.132719
_cell_length_c 16.992051
_cell_angle_alpha 90.000000
_cell_angle_beta 90.000000
_cell_angle_gamma 90.000000
_cell_volume 2919.697827
_symmetry_space_group_name_H-M "C M C M"
_symmetry_group_IT_number 63
_symmetry_cell_setting 'orthorhombic'
loop_
_space_group_symop_operation_xyz
x,y,z
-x,-y,1/2+z
x,-y,-z
-x,y,1/2-z
-x,-y,-z
x,y,1/2-z
-x,y,z
x,-y,1/2+z
1/2+x,1/2+y,z
1/2-x,1/2-y,1/2+z
1/2+x,1/2-y,-z
1/2-x,1/2+y,1/2-z
1/2-x,1/2-y,-z
1/2+x,1/2+y,1/2-z
1/2-x,1/2+y,z
1/2+x,1/2-y,1/2+z
loop_
_atom_site_type_symbol
_atom_site_label
_atom_site_fract_x
_atom_site_fract_y
_atom_site_fract_z
Si Si1 0.705731 0.916897 0.425222
Si Si2 0.000000 0.846389 0.339407
Si Si3 0.813390 0.863473 0.750000
Si Si4 0.000000 0.728591 0.250000
Si Si5 0.705605 0.055225 0.393165
O O1 0.500000 0.906374 0.414125
O O2 0.740088 0.920756 0.518825
O O3 0.830601 0.869467 0.384027
O O4 0.747467 0.984015 0.392373
O O5 0.000000 0.871964 0.250000
O O6 0.000000 0.774479 0.324090
O O7 0.664857 0.813968 0.750000
O O8 0.794035 0.906087 0.673893
O O9 0.000000 0.833908 0.750000
O O10 0.500000 0.059749 0.380670
#
# Coordination Sequence:
#
# PCOD9475308 Si02
#       5
#    16   8   8   4  16
#     4   9  20  37  61  96 121 151 185 239 304 355
#     4  10  24  39  63  79 123 154 197 249 287 343
#     4  12  24  37  63  83 115 166 200 235 298 348
#     4  10  26  48  50  82 122 158 204 258 276 332
#     4   9  19  37  61  92 131 147 182 244 298 357
#
# _framework density 17.810063
#
# number of rings (size 3 to 8) (size 9 to 14) (size 15 to 20)
#    0.462    1.846    1.538    1.846    6.462    3.077 
#    0.000    1.538    0.000    0.000    0.000    0.000 
#    0.000    0.000    0.000    0.000    0.000    0.000 
#
# Total GULP energy -145021.066954 kJ/mol
# GULP energy per Si atom -5577.733344 kJ/mol
# Density = 1.776953 g / cm^3
# Si number density = 17.810063 Si / 1000 Ang^3
#
#
#
# Elastic Constant Matrix: (Units=GPa)
#
#
# Indices 1 2 3 4 5 6 
#
# 1 115.1035 77.1180 62.5189 0.0000 0.0000 0.0000
# 2 77.1180 101.2514 62.5871 0.0000 0.0000 0.0000
# 3 62.5189 62.5871 69.1222 0.0000 0.0000 0.0000
# 4 0.0000 0.0000 0.0000 -51.3257 0.0000 0.0000
# 5 0.0000 0.0000 0.0000 0.0000 89.7327 0.0000
# 6 0.0000 0.0000 0.0000 0.0000 0.0000 -25.3968
#
#
#
# Elastic Compliance Matrix: (Units=1/GPa)
#
#
# Indices 1 2 3 4 5 6 
#
# 1 0.020358 -0.009366 -0.009933 0.000000 0.000000 0.000000
# 2 -0.009366 0.026740 -0.015741 0.000000 0.000000 0.000000
# 3 -0.009933 -0.015741 0.037703 0.000000 0.000000 0.000000
# 4 0.000000 0.000000 0.000000 -0.019483 0.000000 0.000000
# 5 0.000000 0.000000 0.000000 0.000000 0.011144 0.000000
# 6 0.000000 0.000000 0.000000 0.000000 0.000000 -0.039375
#
#
# Mechanical properties :
#
#
# Convention : Reuss Voigt Hill
#
# Bulk Modulus (GPa) = 67.92208 76.65834 72.29021
# Shear Modulus (GPa) = 44.61430 8.15224 26.38327
#
# Velocity S-wave (km/s) = 5.01043 2.14179 3.85303
# Velocity P-wave (km/s) = 8.46713 7.01797 7.77638
#
# Compressibility (1/GPa) = 0.01472275
#
# Stress axis : x y z
#
# Youngs Moduli (GPa) = 49.12145 37.39785 26.52286
#
# Poissons Ratio (x) = 0.35025 0.26344
# Poissons Ratio (y) = 0.46005 0.41748
# Poissons Ratio (z) = 0.48791 0.58866
#
# Static dielectric constant tensor:
#      x y z
#    x 1.617890 0.000000 0.000000 
#    y 0.000000 1.582270 0.000000 
#    z 0.000000 0.000000 1.607150 
# 
# From -- ./inp_files/27141.got.cif
#   From: 2010.05.17/outbox.cif.g08.bks.cpg/sg63_14_cif.got.tgz:27141.got - 2010.06.03 15:47:04.
