data_PCOD9475971
_publ_section_title
;
Structure prediction by ZEFSAII (Michael W. Deem and Ramdas Pophale) SiO2 
 PCOD9475971
Probable space group: C M C M
;
_chemical_formula_sum "Si O2"
_cell_formula_units_Z 80
_cell_length_a 31.415057
_cell_length_b 6.974193
_cell_length_c 14.293050
_cell_angle_alpha 90.000000
_cell_angle_beta 90.000000
_cell_angle_gamma 90.000000
_cell_volume 3131.531082
_symmetry_space_group_name_H-M "C M C M"
_symmetry_group_IT_number 63
_symmetry_cell_setting 'orthorhombic'
loop_
_space_group_symop_operation_xyz
x,y,z
-x,-y,1/2+z
x,-y,-z
-x,y,1/2-z
-x,-y,-z
x,y,1/2-z
-x,y,z
x,-y,1/2+z
1/2+x,1/2+y,z
1/2-x,1/2-y,1/2+z
1/2+x,1/2-y,-z
1/2-x,1/2+y,1/2-z
1/2-x,1/2-y,-z
1/2+x,1/2+y,1/2-z
1/2-x,1/2+y,z
1/2+x,1/2-y,1/2+z
loop_
_atom_site_type_symbol
_atom_site_label
_atom_site_fract_x
_atom_site_fract_y
_atom_site_fract_z
Si Si1 0.547041 0.770954 0.978050
Si Si2 0.874186 0.638075 0.140212
Si Si3 0.101467 0.816140 0.640412
Si Si4 0.692499 0.597576 0.357614
Si Si5 0.715191 0.042554 0.141910
O O1 0.500000 0.716068 0.944853
O O2 0.587080 0.754285 0.908698
O O3 0.561270 0.664812 0.073086
O O4 0.544765 0.000000 0.000000
O O5 0.872668 0.682864 0.250000
O O6 0.886624 0.411812 0.133692
O O7 0.825493 0.657327 0.101068
O O8 0.093836 0.856857 0.750000
O O9 0.144423 0.924971 0.607590
O O10 0.691255 0.528261 0.250000
O O11 0.737512 0.532599 0.399486
O O12 0.699628 0.825774 0.354757
O O13 0.720434 0.109188 0.250000
#
# Coordination Sequence:
#
# PCOD9475971 Si02
#       5
#    16  16  16  16  16
#     4   9  16  24  35  52  73  99 131 163 196 237
#     4   8  14  24  36  51  74 102 128 157 196 236
#     4   8  14  24  36  51  74 102 128 157 196 236
#     4   8  13  22  37  56  79 107 134 160 194 235
#     4   8  13  22  37  56  79 107 134 160 194 235
#
# _framework density 25.546610000000001
#
# number of rings (size 3 to 8) (size 9 to 14) (size 15 to 20)
#    0.000    3.800    0.000    2.400    0.000    0.800 
#    0.000    5.000    0.000    0.000    0.000    0.000 
#    0.000    3.200    0.000   15.600    0.000   16.000 
#
# Total GULP energy -223362.698811 kJ/mol
# GULP energy per Si atom -5584.067470 kJ/mol
# Density = 2.548847 g / cm^3
# Si number density = 25.546610 Si / 1000 Ang^3
#
#
#
# Elastic Constant Matrix: (Units=GPa)
#
#
# Indices 1 2 3 4 5 6 
#
# 1 243.2827 25.2982 67.1424 0.0000 0.0000 0.0000
# 2 25.2982 78.5247 1.9967 0.0000 0.0000 0.0000
# 3 67.1424 1.9967 92.4951 0.0000 0.0000 0.0000
# 4 0.0000 0.0000 0.0000 11.9893 0.0000 0.0000
# 5 0.0000 0.0000 0.0000 0.0000 42.6782 0.0000
# 6 0.0000 0.0000 0.0000 0.0000 0.0000 39.1609
#
#
#
# Elastic Compliance Matrix: (Units=1/GPa)
#
#
# Indices 1 2 3 4 5 6 
#
# 1 0.005339 -0.001622 -0.003841 0.000000 0.000000 0.000000
# 2 -0.001622 0.013235 0.000892 0.000000 0.000000 0.000000
# 3 -0.003841 0.000892 0.013580 0.000000 0.000000 0.000000
# 4 0.000000 0.000000 0.000000 0.083408 0.000000 0.000000
# 5 0.000000 0.000000 0.000000 0.000000 0.023431 0.000000
# 6 0.000000 0.000000 0.000000 0.000000 0.000000 0.025536
#
#
# Mechanical properties :
#
#
# Convention : Reuss Voigt Hill
#
# Bulk Modulus (GPa) = 43.45574 67.01967 55.23770
# Shear Modulus (GPa) = 27.57233 40.09004 33.83118
#
# Velocity S-wave (km/s) = 3.28883 3.96572 3.64303
# Velocity P-wave (km/s) = 5.60974 6.87463 6.27414
#
# Compressibility (1/GPa) = 0.02301192
#
# Stress axis : x y z
#
# Youngs Moduli (GPa) = 187.29680 75.55805 73.63734
#
# Poissons Ratio (x) = 0.12259 0.28282
# Poissons Ratio (y) = 0.30388 -0.06569
# Poissons Ratio (z) = 0.71934 -0.06740
#
# Static dielectric constant tensor:
#      x y z
#    x 2.025750 0.000000 0.000000 
#    y 0.000000 2.137450 0.000000 
#    z 0.000000 0.000000 2.003780 
# 
# From -- ./inp_files/30015.got.cif
#   From: 2010.05.17/outbox.cif.g08.bks.cpg/sg63_16_cif.got.tgz:30015.got - 2010.06.03 15:47:04.
