data_PCOD9475954
_publ_section_title
;
Structure prediction by ZEFSAII (Michael W. Deem and Ramdas Pophale) SiO2 
 PCOD9475954
Probable space group: C M C M
;
_chemical_formula_sum "Si O2"
_cell_formula_units_Z 96
_cell_length_a 14.284868
_cell_length_b 9.956581
_cell_length_c 25.384448
_cell_angle_alpha 90.000000
_cell_angle_beta 90.000000
_cell_angle_gamma 90.000000
_cell_volume 3610.390574
_symmetry_space_group_name_H-M "C M C M"
_symmetry_group_IT_number 63
_symmetry_cell_setting 'orthorhombic'
loop_
_space_group_symop_operation_xyz
x,y,z
-x,-y,1/2+z
x,-y,-z
-x,y,1/2-z
-x,-y,-z
x,y,1/2-z
-x,y,z
x,-y,1/2+z
1/2+x,1/2+y,z
1/2-x,1/2-y,1/2+z
1/2+x,1/2-y,-z
1/2-x,1/2+y,1/2-z
1/2-x,1/2-y,-z
1/2+x,1/2+y,1/2-z
1/2-x,1/2+y,z
1/2+x,1/2-y,1/2+z
loop_
_atom_site_type_symbol
_atom_site_label
_atom_site_fract_x
_atom_site_fract_y
_atom_site_fract_z
Si Si1 0.180789 0.820449 0.309740
Si Si2 0.145313 0.617480 0.958289
Si Si3 0.100328 0.279646 0.190025
Si Si4 0.369738 0.334467 0.032883
Si Si5 0.134163 0.050813 0.108716
Si Si6 0.850447 0.396452 0.887412
O O1 0.152278 0.839969 0.250000
O O2 0.294033 0.838260 0.313625
O O3 0.138813 0.930074 0.348625
O O4 0.151245 0.671802 0.330281
O O5 0.257074 0.642241 0.962796
O O6 0.116017 0.545235 0.903906
O O7 0.122509 0.500000 0.000000
O O8 0.106073 0.759645 0.978140
O O9 0.103396 0.217848 0.250000
O O10 0.095407 0.172911 0.142624
O O11 0.000000 0.356142 0.189793
O O12 0.403479 0.475052 0.056829
O O13 0.393248 0.216709 0.074689
O O14 0.240821 0.095300 0.097377
#
# Coordination Sequence:
#
# PCOD9475954 Si02
#       6
#    16  16  16  16  16  16
#     4   9  16  25  38  57  81 109 141 177 215 256
#     4   8  12  19  31  49  78 107 131 166 216 253
#     4   9  17  28  41  59  84 113 144 178 218 263
#     4   8  13  20  32  52  79 104 132 169 213 252
#     4   9  15  24  38  57  81 107 140 175 214 256
#     4   8  14  22  33  52  79 104 133 170 212 250
#
# _framework density 26.589919999999999
#
# number of rings (size 3 to 8) (size 9 to 14) (size 15 to 20)
#    0.000    3.500    0.000    0.500    0.000    0.667 
#    0.000    0.000    0.000    0.000    0.000   10.500 
#    0.000  858.667    0.000    0.000    0.000  100.000 
#
# Total GULP energy -267595.210824 kJ/mol
# GULP energy per Si atom -5574.900225 kJ/mol
# Density = 2.652940 g / cm^3
# Si number density = 26.589920 Si / 1000 Ang^3
#
#
#
# Elastic Constant Matrix: (Units=GPa)
#
#
# Indices 1 2 3 4 5 6 
#
# 1 76.9714 -0.4538 -7.4482 0.0000 0.0000 0.0000
# 2 -0.4538 153.1594 36.1663 0.0000 0.0000 0.0000
# 3 -7.4482 36.1663 123.1011 0.0000 0.0000 0.0000
# 4 0.0000 0.0000 0.0000 40.9558 0.0000 0.0000
# 5 0.0000 0.0000 0.0000 0.0000 -24.1134 0.0000
# 6 0.0000 0.0000 0.0000 0.0000 0.0000 -20.4673
#
#
#
# Elastic Compliance Matrix: (Units=1/GPa)
#
#
# Indices 1 2 3 4 5 6 
#
# 1 0.013072 -0.000159 0.000838 0.000000 0.000000 0.000000
# 2 -0.000159 0.007018 -0.002071 0.000000 0.000000 0.000000
# 3 0.000838 -0.002071 0.008783 0.000000 0.000000 0.000000
# 4 0.000000 0.000000 0.000000 0.024417 0.000000 0.000000
# 5 0.000000 0.000000 0.000000 0.000000 -0.041471 0.000000
# 6 0.000000 0.000000 0.000000 0.000000 0.000000 -0.048858
#
#
# Mechanical properties :
#
#
# Convention : Reuss Voigt Hill
#
# Bulk Modulus (GPa) = 38.33362 45.52893 41.93128
# Shear Modulus (GPa) = -195.62721 20.93952 -87.34384
#
# Velocity S-wave (km/s) = -8.58671 2.80928 -5.73758
# Velocity P-wave (km/s) = 9.15756 5.26142 5.29993
#
# Compressibility (1/GPa) = 0.02608676
#
# Stress axis : x y z
#
# Youngs Moduli (GPa) = 76.49964 142.49467 113.86085
#
# Poissons Ratio (x) = 0.02267 -0.09538
# Poissons Ratio (y) = 0.01217 0.23585
# Poissons Ratio (z) = -0.06408 0.29516
#
# Static dielectric constant tensor:
#      x y z
#    x 2.147320 0.000000 0.000000 
#    y 0.000000 2.105910 0.000000 
#    z 0.000000 0.000000 2.121550 
# 
# From -- ./inp_files/69867.got.cif
#   From: 2010.05.17/outbox.cif.g08.bks.cpg/sg63_35_cif.got.tgz:69867.got - 2010.06.03 15:47:04.
