data_PCOD9475600
_publ_section_title
;
Structure prediction by ZEFSAII (Michael W. Deem and Ramdas Pophale) SiO2 
 PCOD9475600
Probable space group: C M C M
;
_chemical_formula_sum "Si O2"
_cell_formula_units_Z 68
_cell_length_a 9.654065
_cell_length_b 15.796762
_cell_length_c 19.599109
_cell_angle_alpha 90.000000
_cell_angle_beta 90.000000
_cell_angle_gamma 90.000000
_cell_volume 2988.922276
_symmetry_space_group_name_H-M "C M C M"
_symmetry_group_IT_number 63
_symmetry_cell_setting 'orthorhombic'
loop_
_space_group_symop_operation_xyz
x,y,z
-x,-y,1/2+z
x,-y,-z
-x,y,1/2-z
-x,-y,-z
x,y,1/2-z
-x,y,z
x,-y,1/2+z
1/2+x,1/2+y,z
1/2-x,1/2-y,1/2+z
1/2+x,1/2-y,-z
1/2-x,1/2+y,1/2-z
1/2-x,1/2-y,-z
1/2+x,1/2+y,1/2-z
1/2-x,1/2+y,z
1/2+x,1/2-y,1/2+z
loop_
_atom_site_type_symbol
_atom_site_label
_atom_site_fract_x
_atom_site_fract_y
_atom_site_fract_z
Si Si1 0.500000 0.261961 0.406887
Si Si2 0.000000 0.201061 0.362724
Si Si3 0.166388 0.929263 0.250000
Si Si4 0.000000 0.641268 0.963480
Si Si5 0.500000 0.194847 0.250000
Si Si6 0.000000 0.970476 0.924450
Si Si7 0.771520 0.099056 0.896095
Si Si8 0.301337 0.368142 0.750000
O O1 0.500000 0.185296 0.461898
O O2 0.500000 0.238989 0.325777
O O3 0.633555 0.322025 0.419339
O O4 0.130479 0.179278 0.314684
O O5 0.000000 0.287191 0.403568
O O6 0.000000 0.128261 0.418931
O O7 0.247170 0.891485 0.315049
O O8 0.000000 0.905787 0.250000
O O9 0.164765 0.031966 0.250000
O O10 0.139990 0.591385 0.944841
O O11 0.361148 0.141009 0.250000
O O12 0.135355 0.014560 0.894711
O O13 0.000000 0.000000 0.000000
#
# Coordination Sequence:
#
# PCOD9475600 Si02
#       8
#     8   8   8   8   4   8  16   8
#     4  11  23  45  64  93 135 180 223 266 343 427
#     4  11  21  44  66  95 131 179 218 277 336 403
#     4  12  19  45  71  94 129 180 244 267 320 415
#     4  12  27  42  65 105 147 163 222 303 347 386
#     4  12  26  38  64 100 126 176 220 274 354 402
#     4  11  22  41  70  91 124 185 239 255 334 429
#     4  11  23  42  70  97 129 185 221 284 335 402
#     4  11  22  39  67  94 134 166 226 287 322 393
#
# _framework density 22.750675999999999
#
# number of rings (size 3 to 8) (size 9 to 14) (size 15 to 20)
#    0.000    0.706    5.882    4.235    0.000    5.176 
#    0.000    0.588    0.000    0.000    0.000    0.000 
#    0.000    0.000    0.000    0.000    0.000    0.000 
#
# Total GULP energy -189959.772574 kJ/mol
# GULP energy per Si atom -5587.052135 kJ/mol
# Density = 2.269889 g / cm^3
# Si number density = 22.750676 Si / 1000 Ang^3
#
#
#
# Elastic Constant Matrix: (Units=GPa)
#
#
# Indices 1 2 3 4 5 6 
#
# 1 125.0105 10.9514 10.2933 0.0000 0.0000 0.0000
# 2 10.9514 55.5276 -0.8167 0.0000 0.0000 0.0000
# 3 10.2933 -0.8167 113.3228 0.0000 0.0000 0.0000
# 4 0.0000 0.0000 0.0000 33.1720 0.0000 0.0000
# 5 0.0000 0.0000 0.0000 0.0000 -76.7152 0.0000
# 6 0.0000 0.0000 0.0000 0.0000 0.0000 -18.4256
#
#
#
# Elastic Compliance Matrix: (Units=1/GPa)
#
#
# Indices 1 2 3 4 5 6 
#
# 1 0.008204 -0.001629 -0.000757 0.000000 0.000000 0.000000
# 2 -0.001629 0.018335 0.000280 0.000000 0.000000 0.000000
# 3 -0.000757 0.000280 0.008895 0.000000 0.000000 0.000000
# 4 0.000000 0.000000 0.000000 0.030146 0.000000 0.000000
# 5 0.000000 0.000000 0.000000 0.000000 -0.013035 0.000000
# 6 0.000000 0.000000 0.000000 0.000000 0.000000 -0.054272
#
#
# Mechanical properties :
#
#
# Convention : Reuss Voigt Hill
#
# Bulk Modulus (GPa) = 32.02886 37.19078 34.60982
# Shear Modulus (GPa) = 387.84189 5.83510 196.83849
#
# Velocity S-wave (km/s) = 13.07077 1.60324 9.31170
# Velocity P-wave (km/s) = 15.55320 4.45082 11.43923
#
# Compressibility (1/GPa) = 0.03122185
#
# Stress axis : x y z
#
# Youngs Moduli (GPa) = 121.88604 54.54195 112.42111
#
# Poissons Ratio (x) = 0.08886 0.08510
# Poissons Ratio (y) = 0.19858 -0.03149
# Poissons Ratio (z) = 0.09226 -0.01528
#
# Static dielectric constant tensor:
#      x y z
#    x 1.783170 0.000000 0.000000 
#    y 0.000000 1.862510 0.000000 
#    z 0.000000 0.000000 1.904360 
# 
# From -- ./inp_files/50558.got.cif
#   From: 2010.05.17/outbox.cif.g08.bks.cpg/sg63_26_cif.got.tgz:50558.got - 2010.06.03 15:47:04.
