data_PCOD9475939
_publ_section_title
;
Structure prediction by ZEFSAII (Michael W. Deem and Ramdas Pophale) SiO2 
 PCOD9475939
Probable space group: C M C M
;
_chemical_formula_sum "Si O2"
_cell_formula_units_Z 80
_cell_length_a 7.357502
_cell_length_b 31.744890
_cell_length_c 14.933807
_cell_angle_alpha 90.000000
_cell_angle_beta 90.000000
_cell_angle_gamma 90.000000
_cell_volume 3487.986133
_symmetry_space_group_name_H-M "C M C M"
_symmetry_group_IT_number 63
_symmetry_cell_setting 'orthorhombic'
loop_
_space_group_symop_operation_xyz
x,y,z
-x,-y,1/2+z
x,-y,-z
-x,y,1/2-z
-x,-y,-z
x,y,1/2-z
-x,y,z
x,-y,1/2+z
1/2+x,1/2+y,z
1/2-x,1/2-y,1/2+z
1/2+x,1/2-y,-z
1/2-x,1/2+y,1/2-z
1/2-x,1/2-y,-z
1/2+x,1/2+y,1/2-z
1/2-x,1/2+y,z
1/2+x,1/2-y,1/2+z
loop_
_atom_site_type_symbol
_atom_site_label
_atom_site_fract_x
_atom_site_fract_y
_atom_site_fract_z
Si Si1 0.715210 0.387869 0.148961
Si Si2 0.722337 0.451776 0.499115
Si Si3 0.287301 0.294061 0.640513
Si Si4 0.781679 0.295735 0.146289
Si Si5 0.777849 0.885890 0.853123
O O1 0.791102 0.387898 0.250000
O O2 0.500000 0.394224 0.156014
O O3 0.784632 0.425033 0.086648
O O4 0.737310 0.341231 0.106781
O O5 0.781962 0.500000 0.500000
O O6 0.500000 0.452211 0.498501
O O7 0.778015 0.424251 0.584681
O O8 0.278701 0.292994 0.750000
O O9 0.500000 0.294638 0.615924
O O10 0.211978 0.248919 0.608878
O O11 0.212369 0.339675 0.614910
O O12 0.717942 0.298108 0.250000
O O13 0.000000 0.292772 0.147907
O O14 0.724221 0.891594 0.750000
O O15 0.000000 0.884323 0.854461
#
# Coordination Sequence:
#
# PCOD9475939 Si02
#       5
#    16  16  16  16  16
#     4   9  17  28  41  59  86 115 136 159 199 248
#     4   9  17  27  38  54  78 108 140 172 206 245
#     4   7  10  18  34  56  78  98 124 163 206 237
#     4   8  13  23  41  62  82 106 137 170 200 234
#     4   8  13  22  37  56  77 101 132 172 211 240
#
# _framework density 22.935870000000001
#
# number of rings (size 3 to 8) (size 9 to 14) (size 15 to 20)
#    0.000    3.800    0.000    2.400    0.000    0.800 
#    0.000    5.000    0.000    0.600    0.000    0.000 
#    0.000    0.800    0.000    0.800    0.000    0.000 
#
# Total GULP energy -223041.624212 kJ/mol
# GULP energy per Si atom -5576.040605 kJ/mol
# Density = 2.288367 g / cm^3
# Si number density = 22.935870 Si / 1000 Ang^3
#
#
#
# Elastic Constant Matrix: (Units=GPa)
#
#
# Indices 1 2 3 4 5 6 
#
# 1 86.5699 7.3319 2.5218 0.0000 0.0000 0.0000
# 2 7.3319 298.3532 96.6760 0.0000 0.0000 0.0000
# 3 2.5218 96.6760 99.3512 0.0000 0.0000 0.0000
# 4 0.0000 0.0000 0.0000 43.2973 0.0000 0.0000
# 5 0.0000 0.0000 0.0000 0.0000 -13.3314 0.0000
# 6 0.0000 0.0000 0.0000 0.0000 0.0000 13.2164
#
#
#
# Elastic Compliance Matrix: (Units=1/GPa)
#
#
# Indices 1 2 3 4 5 6 
#
# 1 0.011575 -0.000276 -0.000025 0.000000 0.000000 0.000000
# 2 -0.000276 0.004902 -0.004763 0.000000 0.000000 0.000000
# 3 -0.000025 -0.004763 0.014701 0.000000 0.000000 0.000000
# 4 0.000000 0.000000 0.000000 0.023096 0.000000 0.000000
# 5 0.000000 0.000000 0.000000 0.000000 -0.075011 0.000000
# 6 0.000000 0.000000 0.000000 0.000000 0.000000 0.075664
#
#
# Mechanical properties :
#
#
# Convention : Reuss Voigt Hill
#
# Bulk Modulus (GPa) = 47.50668 77.48151 62.49410
# Shear Modulus (GPa) = 69.37536 33.81943 51.59740
#
# Velocity S-wave (km/s) = 5.50574 3.84412 4.74818
# Velocity P-wave (km/s) = 7.82147 7.31834 7.57408
#
# Compressibility (1/GPa) = 0.02104967
#
# Stress axis : x y z
#
# Youngs Moduli (GPa) = 86.38943 204.00527 68.02482
#
# Poissons Ratio (x) = 0.05639 0.00169
# Poissons Ratio (y) = 0.02388 0.32399
# Poissons Ratio (z) = 0.00215 0.97164
#
# Static dielectric constant tensor:
#      x y z
#    x 1.923330 0.000000 0.000000 
#    y 0.000000 1.854140 0.000000 
#    z 0.000000 0.000000 1.872770 
# 
# From -- ./inp_files/30018.got.cif
#   From: 2010.05.17/outbox.cif.g08.bks.cpg/sg63_16_cif.got.tgz:30018.got - 2010.06.03 15:47:04.
