data_PCOD9475519
_publ_section_title
;
Structure prediction by ZEFSAII (Michael W. Deem and Ramdas Pophale) SiO2 
 PCOD9475519
Probable space group: C M C M
;
_chemical_formula_sum "Si O2"
_cell_formula_units_Z 88
_cell_length_a 27.907996
_cell_length_b 18.255235
_cell_length_c 9.064309
_cell_angle_alpha 90.000000
_cell_angle_beta 90.000000
_cell_angle_gamma 90.000000
_cell_volume 4617.966543
_symmetry_space_group_name_H-M "C M C M"
_symmetry_group_IT_number 63
_symmetry_cell_setting 'orthorhombic'
loop_
_space_group_symop_operation_xyz
x,y,z
-x,-y,1/2+z
x,-y,-z
-x,y,1/2-z
-x,-y,-z
x,y,1/2-z
-x,y,z
x,-y,1/2+z
1/2+x,1/2+y,z
1/2-x,1/2-y,1/2+z
1/2+x,1/2-y,-z
1/2-x,1/2+y,1/2-z
1/2-x,1/2-y,-z
1/2+x,1/2+y,1/2-z
1/2-x,1/2+y,z
1/2+x,1/2-y,1/2+z
loop_
_atom_site_type_symbol
_atom_site_label
_atom_site_fract_x
_atom_site_fract_y
_atom_site_fract_z
Si Si1 0.340530 0.870373 0.077899
Si Si2 0.553369 0.836661 0.073312
Si Si3 0.074530 0.181892 0.924174
Si Si4 0.000000 0.921860 0.925308
Si Si5 0.749140 0.426577 0.575753
Si Si6 0.671915 0.696039 0.077048
O O1 0.334944 0.890075 0.250000
O O2 0.396946 0.878569 0.038207
O O3 0.325977 0.784202 0.063102
O O4 0.302964 0.914157 0.981142
O O5 0.556139 0.820932 0.250000
O O6 0.500000 0.868720 0.045727
O O7 0.557708 0.761068 0.984055
O O8 0.066401 0.176086 0.750000
O O9 0.045225 0.122563 0.014628
O O10 0.129753 0.173350 0.967621
O O11 0.000000 0.926085 0.750000
O O12 0.000000 0.000000 0.000000
O O13 0.729192 0.500000 0.500000
O O14 0.748818 0.436995 0.750000
O O15 0.718213 0.353231 0.543493
O O16 0.659146 0.682465 0.250000
#
# Coordination Sequence:
#
# PCOD9475519 Si02
#       6
#    16  16  16   8  16  16
#     4   9  18  34  57  85 113 143 184 229 278 334
#     4   9  17  32  56  82 111 146 177 217 273 326
#     4  11  21  33  52  80 108 137 178 225 271 319
#     4  12  24  38  52  68 100 144 185 226 273 326
#     4  11  23  38  57  80 110 148 187 229 281 338
#     4   9  20  38  58  80 108 146 187 229 279 331
#
# _framework density 19.056006
#
# number of rings (size 3 to 8) (size 9 to 14) (size 15 to 20)
#    0.000    2.000    0.909    4.636    0.000    5.091 
#    0.000    1.818    0.000    0.545    0.000    0.000 
#    0.000    0.000    0.000    0.000    0.000    0.000 
#
# Total GULP energy -245442.980459 kJ/mol
# GULP energy per Si atom -5578.249556 kJ/mol
# Density = 1.901263 g / cm^3
# Si number density = 19.056006 Si / 1000 Ang^3
#
#
#
# Elastic Constant Matrix: (Units=GPa)
#
#
# Indices 1 2 3 4 5 6 
#
# 1 102.5379 6.3336 29.7018 0.0000 0.0000 0.0000
# 2 6.3336 14.5695 13.1746 0.0000 0.0000 0.0000
# 3 29.7018 13.1746 74.1812 0.0000 0.0000 0.0000
# 4 0.0000 0.0000 0.0000 26.7338 0.0000 0.0000
# 5 0.0000 0.0000 0.0000 0.0000 46.7719 0.0000
# 6 0.0000 0.0000 0.0000 0.0000 0.0000 -12.2165
#
#
#
# Elastic Compliance Matrix: (Units=1/GPa)
#
#
# Indices 1 2 3 4 5 6 
#
# 1 0.011043 -0.000956 -0.004252 0.000000 0.000000 0.000000
# 2 -0.000956 0.081851 -0.014154 0.000000 0.000000 0.000000
# 3 -0.004252 -0.014154 0.017697 0.000000 0.000000 0.000000
# 4 0.000000 0.000000 0.000000 0.037406 0.000000 0.000000
# 5 0.000000 0.000000 0.000000 0.000000 0.021380 0.000000
# 6 0.000000 0.000000 0.000000 0.000000 0.000000 -0.081856
#
#
# Mechanical properties :
#
#
# Convention : Reuss Voigt Hill
#
# Bulk Modulus (GPa) = 13.91454 32.18987 23.05220
# Shear Modulus (GPa) = 33.28893 21.72974 27.50933
#
# Velocity S-wave (km/s) = 4.18413 3.38051 3.80360
# Velocity P-wave (km/s) = 5.53718 5.67151 5.60475
#
# Compressibility (1/GPa) = 0.07186729
#
# Stress axis : x y z
#
# Youngs Moduli (GPa) = 90.55377 12.21732 56.50769
#
# Poissons Ratio (x) = 0.01168 0.24026
# Poissons Ratio (y) = 0.08656 0.79981
# Poissons Ratio (z) = 0.38502 0.17292
#
# Static dielectric constant tensor:
#      x y z
#    x 1.704040 0.000000 0.000000 
#    y 0.000000 1.985140 0.000000 
#    z 0.000000 0.000000 1.684610 
# 
# From -- ./inp_files/14173.got.cif
#   From: 2010.05.17/outbox.cif.g08.bks.cpg/sg63_8_cif.got.tgz:14173.got - 2010.06.03 15:47:04.
