data_PCOD9475947
_publ_section_title
;
Structure prediction by ZEFSAII (Michael W. Deem and Ramdas Pophale) SiO2 
 PCOD9475947
Probable space group: C M C M
;
_chemical_formula_sum "Si O2"
_cell_formula_units_Z 112
_cell_length_a 7.278023
_cell_length_b 28.327187
_cell_length_c 25.435585
_cell_angle_alpha 90.000000
_cell_angle_beta 90.000000
_cell_angle_gamma 90.000000
_cell_volume 5243.950744
_symmetry_space_group_name_H-M "C M C M"
_symmetry_group_IT_number 63
_symmetry_cell_setting 'orthorhombic'
loop_
_space_group_symop_operation_xyz
x,y,z
-x,-y,1/2+z
x,-y,-z
-x,y,1/2-z
-x,-y,-z
x,y,1/2-z
-x,y,z
x,-y,1/2+z
1/2+x,1/2+y,z
1/2-x,1/2-y,1/2+z
1/2+x,1/2-y,-z
1/2-x,1/2+y,1/2-z
1/2-x,1/2-y,-z
1/2+x,1/2+y,1/2-z
1/2-x,1/2+y,z
1/2+x,1/2-y,1/2+z
loop_
_atom_site_type_symbol
_atom_site_label
_atom_site_fract_x
_atom_site_fract_y
_atom_site_fract_z
Si Si1 0.776871 0.022157 0.909373
Si Si2 0.224748 0.915098 0.585076
Si Si3 0.721587 0.241377 0.190659
Si Si4 0.223340 0.078836 0.690466
Si Si5 0.214001 0.868759 0.691546
Si Si6 0.723501 0.614194 0.525960
Si Si7 0.723597 0.670976 0.624791
O O1 0.721507 0.038644 0.850927
O O2 0.720780 0.063851 0.948764
O O3 0.000000 0.021971 0.910747
O O4 0.718548 0.969431 0.922260
O O5 0.289937 0.895457 0.640948
O O6 0.282117 0.884836 0.534401
O O7 0.000000 0.914297 0.585697
O O8 0.779794 0.254861 0.250000
O O9 0.500000 0.242170 0.190353
O O10 0.777085 0.187422 0.181737
O O11 0.785644 0.279211 0.147938
O O12 0.286842 0.073121 0.750000
O O13 0.276248 0.128899 0.664754
O O14 0.000000 0.078575 0.691522
O O15 0.292503 0.877459 0.750000
O O16 0.000000 0.882197 0.694414
O O17 0.500000 0.614769 0.526399
O O18 0.782815 0.654635 0.566738
O O19 0.500000 0.671701 0.624225
#
# Coordination Sequence:
#
# PCOD9475947 Si02
#       7
#    16  16  16  16  16  16  16
#     4   8  13  19  29  47  71 100 131 158 184 223
#     4   9  15  23  35  49  71 106 136 155 185 228
#     4   9  16  27  44  61  76  99 131 163 194 230
#     4   8  12  17  26  44  71  97 119 149 192 235
#     4   9  18  30  41  56  80 106 132 162 192 224
#     4   8  13  21  33  51  75 100 127 158 190 228
#     4   8  13  21  34  53  74  94 119 156 199 234
#
# _framework density 21.357942000000001
#
# number of rings (size 3 to 8) (size 9 to 14) (size 15 to 20)
#    0.000    3.571    0.000    2.571    0.000    4.000 
#    0.000    3.571    0.000    0.000    0.000    0.000 
#    0.000    6.857    0.000   29.143    0.000   30.000 
#
# Total GULP energy -312367.019947 kJ/mol
# GULP energy per Si atom -5577.982499 kJ/mol
# Density = 2.130933 g / cm^3
# Si number density = 21.357942 Si / 1000 Ang^3
#
#
#
# Elastic Constant Matrix: (Units=GPa)
#
#
# Indices 1 2 3 4 5 6 
#
# 1 91.5478 -3.5778 5.9100 0.0000 0.0000 0.0000
# 2 -3.5778 38.6332 36.2789 0.0000 0.0000 0.0000
# 3 5.9100 36.2789 147.9267 0.0000 0.0000 0.0000
# 4 0.0000 0.0000 0.0000 24.5027 0.0000 0.0000
# 5 0.0000 0.0000 0.0000 0.0000 -17.0572 0.0000
# 6 0.0000 0.0000 0.0000 0.0000 0.0000 5.4622
#
#
#
# Elastic Compliance Matrix: (Units=1/GPa)
#
#
# Indices 1 2 3 4 5 6 
#
# 1 0.011054 0.001869 -0.000900 0.000000 0.000000 0.000000
# 2 0.001869 0.033945 -0.008400 0.000000 0.000000 0.000000
# 3 -0.000900 -0.008400 0.008856 0.000000 0.000000 0.000000
# 4 0.000000 0.000000 0.000000 0.040812 0.000000 0.000000
# 5 0.000000 0.000000 0.000000 0.000000 -0.058626 0.000000
# 6 0.000000 0.000000 0.000000 0.000000 0.000000 0.183075
#
#
# Mechanical properties :
#
#
# Convention : Reuss Voigt Hill
#
# Bulk Modulus (GPa) = 25.64483 39.48108 32.56296
# Shear Modulus (GPa) = 20.24487 18.54799 19.39643
#
# Velocity S-wave (km/s) = 3.08211 2.95012 3.01684
# Velocity P-wave (km/s) = 4.96982 5.48907 5.23588
#
# Compressibility (1/GPa) = 0.03899421
#
# Stress axis : x y z
#
# Youngs Moduli (GPa) = 90.46173 29.45902 112.91651
#
# Poissons Ratio (x) = -0.05506 0.10162
# Poissons Ratio (y) = -0.16906 0.94847
# Poissons Ratio (z) = 0.08141 0.24745
#
# Static dielectric constant tensor:
#      x y z
#    x 2.033630 0.000000 0.000000 
#    y 0.000000 1.717540 0.000000 
#    z 0.000000 0.000000 1.770230 
# 
# From -- ./inp_files/62117.got.cif
#   From: 2010.05.17/outbox.cif.g08.bks.cpg/sg63_32_cif.got.tgz:62117.got - 2010.06.03 15:47:04.
