data_PCOD9475527
_publ_section_title
;
Structure prediction by ZEFSAII (Michael W. Deem and Ramdas Pophale) SiO2 
 PCOD9475527
Probable space group: C M C M
;
_chemical_formula_sum "Si O2"
_cell_formula_units_Z 84
_cell_length_a 15.579785
_cell_length_b 6.812087
_cell_length_c 29.706375
_cell_angle_alpha 90.000000
_cell_angle_beta 90.000000
_cell_angle_gamma 90.000000
_cell_volume 3152.762855
_symmetry_space_group_name_H-M "C M C M"
_symmetry_group_IT_number 63
_symmetry_cell_setting 'orthorhombic'
loop_
_space_group_symop_operation_xyz
x,y,z
-x,-y,1/2+z
x,-y,-z
-x,y,1/2-z
-x,-y,-z
x,y,1/2-z
-x,y,z
x,-y,1/2+z
1/2+x,1/2+y,z
1/2-x,1/2-y,1/2+z
1/2+x,1/2-y,-z
1/2-x,1/2+y,1/2-z
1/2-x,1/2-y,-z
1/2+x,1/2+y,1/2-z
1/2-x,1/2+y,z
1/2+x,1/2-y,1/2+z
loop_
_atom_site_type_symbol
_atom_site_label
_atom_site_fract_x
_atom_site_fract_y
_atom_site_fract_z
Si Si1 0.339172 0.030347 0.299544
Si Si2 0.602364 0.323882 0.584505
Si Si3 0.356638 0.422153 0.682041
Si Si4 0.898434 0.639451 0.393149
Si Si5 0.000000 0.946989 0.250000
Si Si6 0.896311 0.269340 0.511346
O O1 0.370646 0.091776 0.250000
O O2 0.236739 0.022291 0.300253
O O3 0.360893 0.157675 0.343439
O O4 0.372886 0.809641 0.307210
O O5 0.500000 0.363958 0.584365
O O6 0.640335 0.433430 0.627719
O O7 0.635119 0.345084 0.533100
O O8 0.612161 0.091828 0.595190
O O9 0.426876 0.532591 0.710415
O O10 0.864007 0.752084 0.437407
O O11 0.000000 0.677451 0.390230
O O12 0.884614 0.500000 0.500000
O O13 0.000000 0.238280 0.512863
#
# Coordination Sequence:
#
# PCOD9475527 Si02
#       6
#    16  16  16  16   4  16
#     4  11  21  34  51  76 108 135 166 216 259 296
#     4   8  13  24  46  72  94 127 174 211 241 295
#     4  11  22  35  56  78 105 134 172 210 259 298
#     4   8  15  25  45  70 100 134 169 205 251 300
#     4  12  20  36  60  78  96 136 186 206 232 312
#     4   7  10  20  38  67  98 124 161 213 250 280
#
# _framework density 26.643298000000001
#
# number of rings (size 3 to 8) (size 9 to 14) (size 15 to 20)
#    0.000    2.857    2.857    2.286    1.333    0.381 
#    0.000    0.952    2.095    1.143    0.000    0.000 
#    0.000    4.571    0.000    0.000    0.000    0.000 
#
# Total GULP energy -234647.872539 kJ/mol
# GULP energy per Si atom -5586.854108 kJ/mol
# Density = 2.658266 g / cm^3
# Si number density = 26.643298 Si / 1000 Ang^3
#
#
#
# Elastic Constant Matrix: (Units=GPa)
#
#
# Indices 1 2 3 4 5 6 
#
# 1 25.6601 11.2434 51.7204 0.0000 0.0000 0.0000
# 2 11.2434 108.9801 74.9238 0.0000 0.0000 0.0000
# 3 51.7204 74.9238 344.1287 0.0000 0.0000 0.0000
# 4 0.0000 0.0000 0.0000 56.8483 0.0000 0.0000
# 5 0.0000 0.0000 0.0000 0.0000 63.1683 0.0000
# 6 0.0000 0.0000 0.0000 0.0000 0.0000 -72.2649
#
#
#
# Elastic Compliance Matrix: (Units=1/GPa)
#
#
# Indices 1 2 3 4 5 6 
#
# 1 0.055907 0.000010 -0.008405 0.000000 0.000000 0.000000
# 2 0.000010 0.010791 -0.002351 0.000000 0.000000 0.000000
# 3 -0.008405 -0.002351 0.004681 0.000000 0.000000 0.000000
# 4 0.000000 0.000000 0.000000 0.017591 0.000000 0.000000
# 5 0.000000 0.000000 0.000000 0.000000 0.015831 0.000000
# 6 0.000000 0.000000 0.000000 0.000000 0.000000 -0.013838
#
#
# Mechanical properties :
#
#
# Convention : Reuss Voigt Hill
#
# Bulk Modulus (GPa) = 20.04477 83.83824 51.94150
# Shear Modulus (GPa) = 38.73484 32.27577 35.50531
#
# Velocity S-wave (km/s) = 3.81705 3.48430 3.65446
# Velocity P-wave (km/s) = 5.19290 6.90814 6.11100
#
# Compressibility (1/GPa) = 0.04988833
#
# Stress axis : x y z
#
# Youngs Moduli (GPa) = 17.88687 92.66764 213.63268
#
# Poissons Ratio (x) = -0.00096 1.79552
# Poissons Ratio (y) = -0.00019 0.50226
# Poissons Ratio (z) = 0.15033 0.21786
#
# Static dielectric constant tensor:
#      x y z
#    x 1.993020 0.000000 0.000000 
#    y 0.000000 2.193490 0.000000 
#    z 0.000000 0.000000 2.078190 
# 
# From -- ./inp_files/73291.got.cif
#   From: 2010.05.17/outbox.cif.g08.bks.cpg/sg63_37_cif.got.tgz:73291.got - 2010.06.03 15:47:04.
