data_PCOD9475658
_publ_section_title
;
Structure prediction by ZEFSAII (Michael W. Deem and Ramdas Pophale) SiO2 
 PCOD9475658
Probable space group: C M C M
;
_chemical_formula_sum "Si O2"
_cell_formula_units_Z 96
_cell_length_a 22.108352
_cell_length_b 11.544403
_cell_length_c 18.725628
_cell_angle_alpha 90.000000
_cell_angle_beta 90.000000
_cell_angle_gamma 90.000000
_cell_volume 4779.299437
_symmetry_space_group_name_H-M "C M C M"
_symmetry_group_IT_number 63
_symmetry_cell_setting 'orthorhombic'
loop_
_space_group_symop_operation_xyz
x,y,z
-x,-y,1/2+z
x,-y,-z
-x,y,1/2-z
-x,-y,-z
x,y,1/2-z
-x,y,z
x,-y,1/2+z
1/2+x,1/2+y,z
1/2-x,1/2-y,1/2+z
1/2+x,1/2-y,-z
1/2-x,1/2+y,1/2-z
1/2-x,1/2-y,-z
1/2+x,1/2+y,1/2-z
1/2-x,1/2+y,z
1/2+x,1/2-y,1/2+z
loop_
_atom_site_type_symbol
_atom_site_label
_atom_site_fract_x
_atom_site_fract_y
_atom_site_fract_z
Si Si1 0.319673 0.421681 0.169886
Si Si2 0.500000 0.769175 0.164428
Si Si3 0.818724 0.772462 0.473723
Si Si4 0.104646 0.554919 0.431037
Si Si5 0.679063 0.896445 0.171799
Si Si6 0.629362 0.663585 0.378243
Si Si7 0.000000 0.451108 0.666012
O O1 0.334766 0.376055 0.250000
O O2 0.325702 0.339550 0.101060
O O3 0.247215 0.442136 0.171051
O O4 0.356486 0.539368 0.155691
O O5 0.500000 0.753572 0.250000
O O6 0.438740 0.710627 0.134257
O O7 0.500000 0.908625 0.151774
O O8 0.750000 0.750000 0.500000
O O9 0.849976 0.649954 0.460289
O O10 0.853035 0.836864 0.538321
O O11 0.072907 0.500000 0.500000
O O12 0.141976 0.457750 0.389519
O O13 0.057682 0.601271 0.373606
O O14 0.651781 0.920623 0.250000
O O15 0.673495 0.759524 0.157928
O O16 0.000000 0.433419 0.750000
#
# Coordination Sequence:
#
# PCOD9475658 Si02
#       7
#    16   8  16  16  16  16   8
#     4  11  25  42  65  99 137 177 226 284 349 418
#     4  11  22  41  69 101 140 185 237 294 341 404
#     4  12  24  44  68  97 139 180 225 282 354 421
#     4  12  22  39  63  93 131 174 219 277 342 407
#     4  11  22  38  64  97 130 170 223 286 348 405
#     4  12  23  44  69  98 135 179 237 283 345 408
#     4  11  23  39  62  97 134 173 229 286 342 401
#
# _framework density 20.086625000000002
#
# number of rings (size 3 to 8) (size 9 to 14) (size 15 to 20)
#    0.000    0.500    5.000    3.750    0.000    2.000 
#    0.000    2.500    0.000    1.000    0.000    0.000 
#    0.000    0.000    0.000    0.000    0.000    0.000 
#
# Total GULP energy -268179.875855 kJ/mol
# GULP energy per Si atom -5587.080747 kJ/mol
# Density = 2.004091 g / cm^3
# Si number density = 20.086625 Si / 1000 Ang^3
#
#
#
# Elastic Constant Matrix: (Units=GPa)
#
#
# Indices 1 2 3 4 5 6 
#
# 1 95.4701 18.4839 39.6932 0.0000 0.0000 0.0000
# 2 18.4839 44.6301 24.3301 0.0000 0.0000 0.0000
# 3 39.6932 24.3301 186.3176 0.0000 0.0000 0.0000
# 4 0.0000 0.0000 0.0000 26.6095 0.0000 0.0000
# 5 0.0000 0.0000 0.0000 0.0000 25.5805 0.0000
# 6 0.0000 0.0000 0.0000 0.0000 0.0000 28.9002
#
#
#
# Elastic Compliance Matrix: (Units=1/GPa)
#
#
# Indices 1 2 3 4 5 6 
#
# 1 0.012085 -0.003878 -0.002068 0.000000 0.000000 0.000000
# 2 -0.003878 0.025368 -0.002487 0.000000 0.000000 0.000000
# 3 -0.002068 -0.002487 0.006133 0.000000 0.000000 0.000000
# 4 0.000000 0.000000 0.000000 0.037581 0.000000 0.000000
# 5 0.000000 0.000000 0.000000 0.000000 0.039092 0.000000
# 6 0.000000 0.000000 0.000000 0.000000 0.000000 0.034602
#
#
# Mechanical properties :
#
#
# Convention : Reuss Voigt Hill
#
# Bulk Modulus (GPa) = 37.42424 54.60359 46.01391
# Shear Modulus (GPa) = 27.68056 32.47873 30.07965
#
# Velocity S-wave (km/s) = 3.71625 4.02547 3.87395
# Velocity P-wave (km/s) = 6.08982 6.98920 6.55495
#
# Compressibility (1/GPa) = 0.02672065
#
# Stress axis : x y z
#
# Youngs Moduli (GPa) = 82.74623 39.41985 163.06544
#
# Poissons Ratio (x) = 0.15286 0.33726
# Poissons Ratio (y) = 0.32086 0.40547
# Poissons Ratio (z) = 0.17114 0.09802
#
# Static dielectric constant tensor:
#      x y z
#    x 1.722480 0.000000 0.000000 
#    y 0.000000 1.690600 0.000000 
#    z 0.000000 0.000000 1.765700 
# 
# From -- ./inp_files/48077.got.cif
#   From: 2010.05.17/outbox.cif.g08.bks.cpg/sg63_25_cif.got.tgz:48077.got - 2010.06.03 15:47:04.
