data_PCOD9475949
_publ_section_title
;
Structure prediction by ZEFSAII (Michael W. Deem and Ramdas Pophale) SiO2 
 PCOD9475949
Probable space group: C M C M
;
_chemical_formula_sum "Si O2"
_cell_formula_units_Z 96
_cell_length_a 7.328737
_cell_length_b 33.795098
_cell_length_c 19.291896
_cell_angle_alpha 90.000000
_cell_angle_beta 90.000000
_cell_angle_gamma 90.000000
_cell_volume 4778.127772
_symmetry_space_group_name_H-M "C M C M"
_symmetry_group_IT_number 63
_symmetry_cell_setting 'orthorhombic'
loop_
_space_group_symop_operation_xyz
x,y,z
-x,-y,1/2+z
x,-y,-z
-x,y,1/2-z
-x,-y,-z
x,y,1/2-z
-x,y,z
x,-y,1/2+z
1/2+x,1/2+y,z
1/2-x,1/2-y,1/2+z
1/2+x,1/2-y,-z
1/2-x,1/2+y,1/2-z
1/2-x,1/2-y,-z
1/2+x,1/2+y,1/2-z
1/2-x,1/2+y,z
1/2+x,1/2-y,1/2+z
loop_
_atom_site_type_symbol
_atom_site_label
_atom_site_fract_x
_atom_site_fract_y
_atom_site_fract_z
Si Si1 0.222116 0.917965 0.828096
Si Si2 0.284934 0.667984 0.671880
Si Si3 0.277962 0.663087 0.099101
Si Si4 0.777643 0.041653 0.031057
Si Si5 0.219427 0.242454 0.170534
Si Si6 0.777421 0.122239 0.959231
O O1 0.282690 0.927082 0.750000
O O2 0.275354 0.873469 0.851158
O O3 0.279125 0.947154 0.890438
O O4 0.000000 0.918538 0.827617
O O5 0.208619 0.665462 0.750000
O O6 0.500000 0.659970 0.677230
O O7 0.266876 0.713369 0.647002
O O8 0.211555 0.638240 0.614268
O O9 0.500000 0.663554 0.099799
O O10 0.214769 0.705609 0.125439
O O11 0.222082 0.651320 0.021700
O O12 0.000000 0.041069 0.031973
O O13 0.722758 0.078328 0.982259
O O14 0.716513 0.000000 0.000000
O O15 0.283560 0.238343 0.250000
O O16 0.000000 0.240412 0.171742
O O17 0.000000 0.122392 0.958155
#
# Coordination Sequence:
#
# PCOD9475949 Si02
#       6
#    16  16  16  16  16  16
#     4   8  12  18  29  45  65  88 113 144 185 228
#     4   9  17  28  39  51  72 103 132 153 177 215
#     4   8  13  21  34  51  69  89 115 149 187 223
#     4   8  13  21  32  46  66  91 119 151 184 219
#     4   9  16  25  38  56  75  95 123 159 191 214
#     4   8  14  24  36  49  67  94 124 149 178 219
#
# _framework density 20.091552
#
# number of rings (size 3 to 8) (size 9 to 14) (size 15 to 20)
#    0.000    3.667    0.000    2.500    0.000    2.667 
#    0.000    0.833    0.000    5.000    0.000    0.000 
#    0.000    0.667    0.000    0.500    0.000   62.000 
#
# Total GULP energy -267612.089848 kJ/mol
# GULP energy per Si atom -5575.251872 kJ/mol
# Density = 2.004582 g / cm^3
# Si number density = 20.091552 Si / 1000 Ang^3
#
#
#
# Elastic Constant Matrix: (Units=GPa)
#
#
# Indices 1 2 3 4 5 6 
#
# 1 78.3218 1.7363 6.9014 0.0000 0.0000 0.0000
# 2 1.7363 145.5529 124.0886 0.0000 0.0000 0.0000
# 3 6.9014 124.0886 162.8028 0.0000 0.0000 0.0000
# 4 0.0000 0.0000 0.0000 24.8116 0.0000 0.0000
# 5 0.0000 0.0000 0.0000 0.0000 -10.9000 0.0000
# 6 0.0000 0.0000 0.0000 0.0000 0.0000 -14.9255
#
#
#
# Elastic Compliance Matrix: (Units=1/GPa)
#
#
# Indices 1 2 3 4 5 6 
#
# 1 0.012856 0.000889 -0.001222 0.000000 0.000000 0.000000
# 2 0.000889 0.019680 -0.015038 0.000000 0.000000 0.000000
# 3 -0.001222 -0.015038 0.017656 0.000000 0.000000 0.000000
# 4 0.000000 0.000000 0.000000 0.040304 0.000000 0.000000
# 5 0.000000 0.000000 0.000000 0.000000 -0.091743 0.000000
# 6 0.000000 0.000000 0.000000 0.000000 0.000000 -0.066999
#
#
# Mechanical properties :
#
#
# Convention : Reuss Voigt Hill
#
# Bulk Modulus (GPa) = 51.41641 72.45891 61.93766
# Shear Modulus (GPa) = -161.18284 16.72728 -72.22778
#
# Velocity S-wave (km/s) = -8.96651 2.88853 -6.00228
# Velocity P-wave (km/s) = 9.03057 6.87513 4.14027
#
# Compressibility (1/GPa) = 0.01944904
#
# Stress axis : x y z
#
# Youngs Moduli (GPa) = 77.78563 50.81313 56.63783
#
# Poissons Ratio (x) = -0.04516 0.06924
# Poissons Ratio (y) = -0.06914 0.85171
# Poissons Ratio (z) = 0.09509 0.76412
#
# Static dielectric constant tensor:
#      x y z
#    x 2.484600 0.000000 0.000000 
#    y 0.000000 1.669420 0.000000 
#    z 0.000000 0.000000 1.705640 
# 
# From -- ./inp_files/51383.got.cif
#   From: 2010.05.17/outbox.cif.g08.bks.cpg/sg63_26_cif.got.tgz:51383.got - 2010.06.03 15:47:04.
