data_PCOD9475464
_publ_section_title
;
Structure prediction by ZEFSAII (Michael W. Deem and Ramdas Pophale) SiO2 
 PCOD9475464
Probable space group: C M C M
;
_chemical_formula_sum "Si O2"
_cell_formula_units_Z 120
_cell_length_a 27.218231
_cell_length_b 17.230861
_cell_length_c 15.310204
_cell_angle_alpha 90.000000
_cell_angle_beta 90.000000
_cell_angle_gamma 90.000000
_cell_volume 7180.387002
_symmetry_space_group_name_H-M "C M C M"
_symmetry_group_IT_number 63
_symmetry_cell_setting 'orthorhombic'
loop_
_space_group_symop_operation_xyz
x,y,z
-x,-y,1/2+z
x,-y,-z
-x,y,1/2-z
-x,-y,-z
x,y,1/2-z
-x,y,z
x,-y,1/2+z
1/2+x,1/2+y,z
1/2-x,1/2-y,1/2+z
1/2+x,1/2-y,-z
1/2-x,1/2+y,1/2-z
1/2-x,1/2-y,-z
1/2+x,1/2+y,1/2-z
1/2-x,1/2+y,z
1/2+x,1/2-y,1/2+z
loop_
_atom_site_type_symbol
_atom_site_label
_atom_site_fract_x
_atom_site_fract_y
_atom_site_fract_z
Si Si1 0.806888 0.701575 0.591032
Si Si2 0.297523 0.229187 0.115360
Si Si3 0.057442 0.906634 0.994689
Si Si4 0.631805 0.654111 0.148507
Si Si5 0.195368 0.008328 0.395499
Si Si6 0.175856 0.591812 0.250000
Si Si7 0.126054 0.866391 0.152221
Si Si8 0.309540 0.021419 0.602690
O O1 0.755319 0.731122 0.631080
O O2 0.800007 0.705959 0.486354
O O3 0.848346 0.762265 0.619568
O O4 0.817395 0.613012 0.614421
O O5 0.306727 0.155117 0.174642
O O6 0.339220 0.293130 0.133583
O O7 0.087492 0.875108 0.911957
O O8 0.000000 0.887654 0.990492
O O9 0.083992 0.873025 0.080167
O O10 0.062435 0.000000 0.000000
O O11 0.618922 0.653321 0.250000
O O12 0.675845 0.592233 0.132356
O O13 0.191158 0.000000 0.500000
O O14 0.160590 0.942420 0.355709
O O15 0.252113 0.995578 0.372984
O O16 0.161211 0.529700 0.171790
O O17 0.106078 0.861724 0.250000
O O18 0.316186 0.000000 0.500000
#
# Coordination Sequence:
#
# PCOD9475464 Si02
#       8
#    16  16  16  16  16   8  16  16
#     4  11  23  38  53  80 119 160 200 246 277 337
#     4  11  22  37  55  82 117 157 201 241 283 332
#     4  11  24  43  60  82 117 152 193 249 301 347
#     4  12  24  37  60  85 113 156 204 240 287 350
#     4  11  20  36  51  76 114 158 203 238 277 338
#     4  12  24  36  54  80 113 160 199 232 298 336
#     4  12  21  35  59  83 113 150 200 236 289 346
#     4  11  24  36  52  79 118 163 204 244 283 334
#
# _framework density 16.712191000000001
#
# number of rings (size 3 to 8) (size 9 to 14) (size 15 to 20)
#    0.000    0.667    7.333    1.200    9.333    0.533 
#    0.000    1.333    0.000    0.000    0.000    0.000 
#    0.000    5.867    0.000    0.000    0.000    0.000 
#
# Total GULP energy -334359.316991 kJ/mol
# GULP energy per Si atom -5572.655283 kJ/mol
# Density = 1.667415 g / cm^3
# Si number density = 16.712191 Si / 1000 Ang^3
#
#
#
# Elastic Constant Matrix: (Units=GPa)
#
#
# Indices 1 2 3 4 5 6 
#
# 1 67.9968 21.0260 30.1582 0.0000 0.0000 0.0000
# 2 21.0260 126.4322 28.6117 0.0000 0.0000 0.0000
# 3 30.1582 28.6117 105.3908 0.0000 0.0000 0.0000
# 4 0.0000 0.0000 0.0000 31.4074 0.0000 0.0000
# 5 0.0000 0.0000 0.0000 0.0000 -4.5602 0.0000
# 6 0.0000 0.0000 0.0000 0.0000 0.0000 14.1327
#
#
#
# Elastic Compliance Matrix: (Units=1/GPa)
#
#
# Indices 1 2 3 4 5 6 
#
# 1 0.017248 -0.001866 -0.004429 0.000000 0.000000 0.000000
# 2 -0.001866 0.008629 -0.001809 0.000000 0.000000 0.000000
# 3 -0.004429 -0.001809 0.011247 0.000000 0.000000 0.000000
# 4 0.000000 0.000000 0.000000 0.031840 0.000000 0.000000
# 5 0.000000 0.000000 0.000000 0.000000 -0.219290 0.000000
# 6 0.000000 0.000000 0.000000 0.000000 0.000000 0.070758
#
#
# Mechanical properties :
#
#
# Convention : Reuss Voigt Hill
#
# Bulk Modulus (GPa) = 47.80929 51.04572 49.42751
# Shear Modulus (GPa) = -88.66914 22.86425 -32.90244
#
# Velocity S-wave (km/s) = -7.29190 3.70282 -4.44189
# Velocity P-wave (km/s) = 6.49816 6.99225 1.82556
#
# Compressibility (1/GPa) = 0.02091644
#
# Stress axis : x y z
#
# Youngs Moduli (GPa) = 57.97780 115.88819 88.91352
#
# Poissons Ratio (x) = 0.21626 0.39380
# Poissons Ratio (y) = 0.10819 0.16081
# Poissons Ratio (z) = 0.25678 0.20960
#
# Static dielectric constant tensor:
#      x y z
#    x 1.539680 0.000000 0.000000 
#    y 0.000000 1.571470 0.000000 
#    z 0.000000 0.000000 1.579640 
# 
# From -- ./inp_files/38773.got.cif
#   From: 2010.05.17/outbox.cif.g08.bks.cpg/sg63_20_cif.got.tgz:38773.got - 2010.06.03 15:47:04.
