data_PCOD9475114
_publ_section_title
;
Structure prediction by ZEFSAII (Michael W. Deem and Ramdas Pophale) SiO2 
 PCOD9475114
Probable space group: C M C M
;
_chemical_formula_sum "Si O2"
_cell_formula_units_Z 56
_cell_length_a 26.063370
_cell_length_b 9.897379
_cell_length_c 10.866422
_cell_angle_alpha 90.000000
_cell_angle_beta 90.000000
_cell_angle_gamma 90.000000
_cell_volume 2803.091906
_symmetry_space_group_name_H-M "C M C M"
_symmetry_group_IT_number 63
_symmetry_cell_setting 'orthorhombic'
loop_
_space_group_symop_operation_xyz
x,y,z
-x,-y,1/2+z
x,-y,-z
-x,y,1/2-z
-x,-y,-z
x,y,1/2-z
-x,y,z
x,-y,1/2+z
1/2+x,1/2+y,z
1/2-x,1/2-y,1/2+z
1/2+x,1/2-y,-z
1/2-x,1/2+y,1/2-z
1/2-x,1/2-y,-z
1/2+x,1/2+y,1/2-z
1/2-x,1/2+y,z
1/2+x,1/2-y,1/2+z
loop_
_atom_site_type_symbol
_atom_site_label
_atom_site_fract_x
_atom_site_fract_y
_atom_site_fract_z
Si Si1 0.000000 0.395673 0.113229
Si Si2 0.880283 0.912299 0.115169
Si Si3 0.716355 0.507049 0.750000
Si Si4 0.309966 0.203623 0.750000
Si Si5 0.890695 0.342376 0.464813
O O1 0.946474 0.318791 0.096307
O O2 0.000000 0.458537 0.250000
O O3 0.000000 0.500000 0.000000
O O4 0.903534 0.944017 0.250000
O O5 0.820117 0.946531 0.136929
O O6 0.886519 0.756145 0.081052
O O7 0.899303 0.000000 0.000000
O O8 0.719482 0.345977 0.750000
O O9 0.769896 0.581886 0.750000
O O10 0.346661 0.195815 0.631534
O O11 0.886272 0.500000 0.500000
#
# Coordination Sequence:
#
# PCOD9475114 Si02
#       5
#     8  16   8   8  16
#     4  10  22  42  69 102 137 178 232 286 338 402
#     4  10  22  45  66  93 138 175 222 283 336 399
#     4  10  26  40  68  95 137 179 233 276 334 405
#     4  12  24  43  66  99 139 184 225 282 342 403
#     4  11  24  40  70  98 137 181 229 279 344 404
#
# _framework density 19.977938999999999
#
# number of rings (size 3 to 8) (size 9 to 14) (size 15 to 20)
#    0.857    0.571    4.286    0.000    6.000    3.429 
#    0.000    0.714    0.000    0.000    0.000    0.000 
#    0.000    0.000    0.000    0.000    0.000    0.000 
#
# Total GULP energy -156084.750319 kJ/mol
# GULP energy per Si atom -5574.455369 kJ/mol
# Density = 1.993247 g / cm^3
# Si number density = 19.977939 Si / 1000 Ang^3
#
#
#
# Elastic Constant Matrix: (Units=GPa)
#
#
# Indices 1 2 3 4 5 6 
#
# 1 73.3650 56.3666 24.5068 0.0000 0.0000 0.0000
# 2 56.3666 116.4325 42.9607 0.0000 0.0000 0.0000
# 3 24.5068 42.9607 148.3887 0.0000 0.0000 0.0000
# 4 0.0000 0.0000 0.0000 35.1029 0.0000 0.0000
# 5 0.0000 0.0000 0.0000 0.0000 31.0899 0.0000
# 6 0.0000 0.0000 0.0000 0.0000 0.0000 9.3267
#
#
#
# Elastic Compliance Matrix: (Units=1/GPa)
#
#
# Indices 1 2 3 4 5 6 
#
# 1 0.021752 -0.010306 -0.000609 0.000000 0.000000 0.000000
# 2 -0.010306 0.014499 -0.002496 0.000000 0.000000 0.000000
# 3 -0.000609 -0.002496 0.007562 0.000000 0.000000 0.000000
# 4 0.000000 0.000000 0.000000 0.028488 0.000000 0.000000
# 5 0.000000 0.000000 0.000000 0.000000 0.032165 0.000000
# 6 0.000000 0.000000 0.000000 0.000000 0.000000 0.107219
#
#
# Mechanical properties :
#
#
# Convention : Reuss Voigt Hill
#
# Bulk Modulus (GPa) = 58.84954 65.09494 61.97224
# Shear Modulus (GPa) = 20.47774 29.39405 24.93590
#
# Velocity S-wave (km/s) = 3.20506 3.83995 3.53678
# Velocity P-wave (km/s) = 6.57402 7.23287 6.91130
#
# Compressibility (1/GPa) = 0.01699249
#
# Stress axis : x y z
#
# Youngs Moduli (GPa) = 45.97341 68.97224 132.23877
#
# Poissons Ratio (x) = 0.71081 0.08049
# Poissons Ratio (y) = 0.47379 0.33001
# Poissons Ratio (z) = 0.02798 0.17212
#
# Static dielectric constant tensor:
#      x y z
#    x 1.692050 0.000000 0.000000 
#    y 0.000000 1.704410 0.000000 
#    z 0.000000 0.000000 1.745210 
# 
# From -- ./inp_files/25443.got.cif
#   From: 2010.05.17/outbox.cif.g08.bks.cpg/sg63_13_cif.got.tgz:25443.got - 2010.06.03 15:47:04.
