data_PCOD9475805
_publ_section_title
;
Structure prediction by ZEFSAII (Michael W. Deem and Ramdas Pophale) SiO2 
 PCOD9475805
Probable space group: C M C M
;
_chemical_formula_sum "Si O2"
_cell_formula_units_Z 80
_cell_length_a 25.799572
_cell_length_b 18.650677
_cell_length_c 8.870804
_cell_angle_alpha 90.000000
_cell_angle_beta 90.000000
_cell_angle_gamma 90.000000
_cell_volume 4268.448892
_symmetry_space_group_name_H-M "C M C M"
_symmetry_group_IT_number 63
_symmetry_cell_setting 'orthorhombic'
loop_
_space_group_symop_operation_xyz
x,y,z
-x,-y,1/2+z
x,-y,-z
-x,y,1/2-z
-x,-y,-z
x,y,1/2-z
-x,y,z
x,-y,1/2+z
1/2+x,1/2+y,z
1/2-x,1/2-y,1/2+z
1/2+x,1/2-y,-z
1/2-x,1/2+y,1/2-z
1/2-x,1/2-y,-z
1/2+x,1/2+y,1/2-z
1/2-x,1/2+y,z
1/2+x,1/2-y,1/2+z
loop_
_atom_site_type_symbol
_atom_site_label
_atom_site_fract_x
_atom_site_fract_y
_atom_site_fract_z
Si Si1 0.560825 0.337843 0.429553
Si Si2 0.059740 0.329704 0.931177
Si Si3 0.348569 0.078596 0.570265
Si Si4 0.153652 0.921436 0.570498
Si Si5 0.253841 0.671058 0.569078
O O1 0.570315 0.347072 0.250000
O O2 0.500000 0.351902 0.456563
O O3 0.570577 0.253994 0.466276
O O4 0.598535 0.388287 0.522495
O O5 0.063347 0.337024 0.750000
O O6 0.000000 0.344835 0.974166
O O7 0.100786 0.381109 0.008617
O O8 0.351798 0.072326 0.750000
O O9 0.298140 0.126305 0.533424
O O10 0.343802 0.000000 0.500000
O O11 0.158558 0.924751 0.750000
O O12 0.197534 0.870225 0.501183
O O13 0.159431 0.000000 0.500000
O O14 0.259278 0.675161 0.750000
O O15 0.250000 0.750000 0.500000
#
# Coordination Sequence:
#
# PCOD9475805 Si02
#       5
#    16  16  16  16  16
#     4   9  19  38  63  89 118 154 196 242 293 350
#     4   9  19  37  61  87 116 152 192 235 285 341
#     4  11  24  39  58  85 116 152 192 236 287 341
#     4  12  25  40  60  87 120 158 198 243 296 350
#     4  11  24  42  64  90 118 151 194 241 293 353
#
# _framework density 18.742172
#
# number of rings (size 3 to 8) (size 9 to 14) (size 15 to 20)
#    0.000    1.600    0.000    6.000    0.000   10.400 
#    0.000    2.000    0.000    0.000    0.000    0.000 
#    0.000    0.000    0.000    0.000    0.000    0.000 
#
# Total GULP energy -223685.220905 kJ/mol
# GULP energy per Si atom -5592.130523 kJ/mol
# Density = 1.869951 g / cm^3
# Si number density = 18.742172 Si / 1000 Ang^3
#
#
#
# Elastic Constant Matrix: (Units=GPa)
#
#
# Indices 1 2 3 4 5 6 
#
# 1 96.6137 90.9526 65.3074 0.0000 0.0000 0.0000
# 2 90.9526 164.8422 79.8399 0.0000 0.0000 0.0000
# 3 65.3074 79.8399 81.9078 0.0000 0.0000 0.0000
# 4 0.0000 0.0000 0.0000 31.3708 0.0000 0.0000
# 5 0.0000 0.0000 0.0000 0.0000 34.4819 0.0000
# 6 0.0000 0.0000 0.0000 0.0000 0.0000 1905.3634
#
#
#
# Elastic Compliance Matrix: (Units=1/GPa)
#
#
# Indices 1 2 3 4 5 6 
#
# 1 0.027792 -0.008717 -0.013662 0.000000 0.000000 0.000000
# 2 -0.008717 0.014226 -0.006916 0.000000 0.000000 0.000000
# 3 -0.013662 -0.006916 0.029844 0.000000 0.000000 0.000000
# 4 0.000000 0.000000 0.000000 0.031877 0.000000 0.000000
# 5 0.000000 0.000000 0.000000 0.000000 0.029001 0.000000
# 6 0.000000 0.000000 0.000000 0.000000 0.000000 0.000525
#
#
# Mechanical properties :
#
#
# Convention : Reuss Voigt Hill
#
# Bulk Modulus (GPa) = 75.35626 90.61817 82.98722
# Shear Modulus (GPa) = 25.47377 401.39414 213.43395
#
# Velocity S-wave (km/s) = 3.69069 14.65030 10.68299
# Velocity P-wave (km/s) = 7.64563 18.29289 14.01937
#
# Compressibility (1/GPa) = 0.01327030
#
# Stress axis : x y z
#
# Youngs Moduli (GPa) = 35.98127 70.29322 33.50749
#
# Poissons Ratio (x) = 0.61276 0.45779
# Poissons Ratio (y) = 0.31366 0.23175
# Poissons Ratio (z) = 0.49159 0.48618
#
# Static dielectric constant tensor:
#      x y z
#    x 1.632470 0.000000 0.000000 
#    y 0.000000 1.616180 0.000000 
#    z 0.000000 0.000000 1.625400 
# 
# From -- ./inp_files/12038.got.cif
#   From: 2010.05.17/outbox.cif.g08.bks.cpg/sg63_7_cif.got.tgz:12038.got - 2010.06.03 15:47:04.
