data_PCOD9475503
_publ_section_title
;
Structure prediction by ZEFSAII (Michael W. Deem and Ramdas Pophale) SiO2 
 PCOD9475503
Probable space group: C M C M
;
_chemical_formula_sum "Si O2"
_cell_formula_units_Z 96
_cell_length_a 15.422124
_cell_length_b 17.600941
_cell_length_c 18.650491
_cell_angle_alpha 90.000000
_cell_angle_beta 90.000000
_cell_angle_gamma 90.000000
_cell_volume 5062.561914
_symmetry_space_group_name_H-M "C M C M"
_symmetry_group_IT_number 63
_symmetry_cell_setting 'orthorhombic'
loop_
_space_group_symop_operation_xyz
x,y,z
-x,-y,1/2+z
x,-y,-z
-x,y,1/2-z
-x,-y,-z
x,y,1/2-z
-x,y,z
x,-y,1/2+z
1/2+x,1/2+y,z
1/2-x,1/2-y,1/2+z
1/2+x,1/2-y,-z
1/2-x,1/2+y,1/2-z
1/2-x,1/2-y,-z
1/2+x,1/2+y,1/2-z
1/2-x,1/2+y,z
1/2+x,1/2-y,1/2+z
loop_
_atom_site_type_symbol
_atom_site_label
_atom_site_fract_x
_atom_site_fract_y
_atom_site_fract_z
Si Si1 0.154698 0.413529 0.168946
Si Si2 0.595842 0.248977 0.663813
Si Si3 0.234386 0.537843 0.076833
Si Si4 0.904458 0.998772 0.336226
Si Si5 0.733207 0.787756 0.923256
Si Si6 0.346139 0.663619 0.668922
O O1 0.132735 0.437002 0.250000
O O2 0.097084 0.341592 0.147645
O O3 0.164505 0.485209 0.117671
O O4 0.250365 0.374802 0.170413
O O5 0.609521 0.256650 0.750000
O O6 0.500000 0.279388 0.646743
O O7 0.676772 0.283931 0.621886
O O8 0.323774 0.534451 0.122376
O O9 0.207079 0.624902 0.069124
O O10 0.250884 0.500000 0.000000
O O11 0.891067 0.005506 0.250000
O O12 0.000000 0.029537 0.353338
O O13 0.903232 0.908377 0.353233
O O14 0.663351 0.735579 0.882002
O O15 0.750000 0.750000 0.000000
O O16 0.368742 0.686402 0.750000
#
# Coordination Sequence:
#
# PCOD9475503 Si02
#       6
#    16  16  16  16  16  16
#     4   8  15  30  51  73  97 126 161 200 247 302
#     4   9  18  34  57  82 105 130 164 212 267 312
#     4  11  21  32  49  71  99 134 171 211 249 293
#     4   9  18  33  52  74 102 133 162 198 250 308
#     4  11  21  33  50  73 104 139 173 212 254 304
#     4   8  15  30  50  70  94 129 169 203 242 297
#
# _framework density 18.962731000000002
#
# number of rings (size 3 to 8) (size 9 to 14) (size 15 to 20)
#    0.000    2.667    0.000    6.000    0.000    3.667 
#    0.000    4.167    0.000    5.500    0.000    4.667 
#    0.000    0.000    0.000    0.000    0.000    0.000 
#
# Total GULP energy -267543.809828 kJ/mol
# GULP energy per Si atom -5573.829371 kJ/mol
# Density = 1.891957 g / cm^3
# Si number density = 18.962731 Si / 1000 Ang^3
#
#
#
# Elastic Constant Matrix: (Units=GPa)
#
#
# Indices 1 2 3 4 5 6 
#
# 1 32.8877 -8.3647 -5.7809 0.0000 0.0000 0.0000
# 2 -8.3647 120.0532 43.7513 0.0000 0.0000 0.0000
# 3 -5.7809 43.7513 59.4351 0.0000 0.0000 0.0000
# 4 0.0000 0.0000 0.0000 27.8174 0.0000 0.0000
# 5 0.0000 0.0000 0.0000 0.0000 10.8355 0.0000
# 6 0.0000 0.0000 0.0000 0.0000 0.0000 11.6808
#
#
#
# Elastic Compliance Matrix: (Units=1/GPa)
#
#
# Indices 1 2 3 4 5 6 
#
# 1 0.031120 0.001456 0.001955 0.000000 0.000000 0.000000
# 2 0.001456 0.011452 -0.008288 0.000000 0.000000 0.000000
# 3 0.001955 -0.008288 0.023116 0.000000 0.000000 0.000000
# 4 0.000000 0.000000 0.000000 0.035949 0.000000 0.000000
# 5 0.000000 0.000000 0.000000 0.000000 0.092290 0.000000
# 6 0.000000 0.000000 0.000000 0.000000 0.000000 0.085611
#
#
# Mechanical properties :
#
#
# Convention : Reuss Voigt Hill
#
# Bulk Modulus (GPa) = 17.87819 30.17639 24.02729
# Shear Modulus (GPa) = 16.23713 22.25141 19.24427
#
# Velocity S-wave (km/s) = 2.92938 3.42925 3.18912
# Velocity P-wave (km/s) = 4.57058 5.62386 5.12435
#
# Compressibility (1/GPa) = 0.05593407
#
# Stress axis : x y z
#
# Youngs Moduli (GPa) = 32.13324 87.32464 43.25956
#
# Poissons Ratio (x) = -0.12712 -0.08458
# Poissons Ratio (y) = -0.04678 0.35854
# Poissons Ratio (z) = -0.06283 0.72375
#
# Static dielectric constant tensor:
#      x y z
#    x 1.678690 0.000000 0.000000 
#    y 0.000000 1.682110 0.000000 
#    z 0.000000 0.000000 1.652970 
# 
# From -- ./inp_files/45708.got.cif
#   From: 2010.05.17/outbox.cif.g08.bks.cpg/sg63_23_cif.got.tgz:45708.got - 2010.06.03 15:47:04.
