data_PCOD9475891
_publ_section_title
;
Structure prediction by ZEFSAII (Michael W. Deem and Ramdas Pophale) SiO2 
 PCOD9475891
Probable space group: C M C M
;
_chemical_formula_sum "Si O2"
_cell_formula_units_Z 40
_cell_length_a 8.130887
_cell_length_b 11.685990
_cell_length_c 16.249042
_cell_angle_alpha 90.000000
_cell_angle_beta 90.000000
_cell_angle_gamma 90.000000
_cell_volume 1543.942766
_symmetry_space_group_name_H-M "C M C M"
_symmetry_group_IT_number 63
_symmetry_cell_setting 'orthorhombic'
loop_
_space_group_symop_operation_xyz
x,y,z
-x,-y,1/2+z
x,-y,-z
-x,y,1/2-z
-x,-y,-z
x,y,1/2-z
-x,y,z
x,-y,1/2+z
1/2+x,1/2+y,z
1/2-x,1/2-y,1/2+z
1/2+x,1/2-y,-z
1/2-x,1/2+y,1/2-z
1/2-x,1/2-y,-z
1/2+x,1/2+y,1/2-z
1/2-x,1/2+y,z
1/2+x,1/2-y,1/2+z
loop_
_atom_site_type_symbol
_atom_site_label
_atom_site_fract_x
_atom_site_fract_y
_atom_site_fract_z
Si Si1 0.823211 0.929420 0.395384
Si Si2 0.500000 0.358380 0.842615
Si Si3 0.500000 0.155644 0.524649
Si Si4 0.500000 0.771493 0.836656
O O1 0.664333 0.908386 0.447620
O O2 0.846061 0.818093 0.337834
O O3 0.000000 0.918975 0.441804
O O4 0.845847 0.052081 0.352632
O O5 0.500000 0.311619 0.750000
O O6 0.500000 0.268234 0.916423
O O7 0.500000 0.170957 0.426205
O O8 0.500000 0.836585 0.750000
#
# Coordination Sequence:
#
# PCOD9475891 Si02
#       4
#    16   8   8   8
#     4   8  21  41  64  94 143 167 225 303 336 399
#     4   9  22  42  63 103 145 171 230 298 335 417
#     4  12  20  41  78  95 124 204 231 254 374 432
#     4   9  20  40  65  98 145 175 221 306 339 386
#
# _framework density 25.907693999999999
#
# number of rings (size 3 to 8) (size 9 to 14) (size 15 to 20)
#    2.400    0.000    0.000    3.600    0.000    6.400 
#    3.600    0.000    0.000    7.200    0.000    0.000 
#    0.000    0.000    0.000    0.000    0.000    0.000 
#
# Total GULP energy -111468.162225 kJ/mol
# GULP energy per Si atom -5573.408111 kJ/mol
# Density = 2.584873 g / cm^3
# Si number density = 25.907694 Si / 1000 Ang^3
#
#
#
# Elastic Constant Matrix: (Units=GPa)
#
#
# Indices 1 2 3 4 5 6 
#
# 1 171.1497 35.1314 88.4017 0.0000 0.0000 0.0000
# 2 35.1314 86.5165 65.3175 0.0000 0.0000 0.0000
# 3 88.4017 65.3175 251.4929 0.0000 0.0000 0.0000
# 4 0.0000 0.0000 0.0000 22.7955 0.0000 0.0000
# 5 0.0000 0.0000 0.0000 0.0000 19.2828 0.0000
# 6 0.0000 0.0000 0.0000 0.0000 0.0000 10.8158
#
#
#
# Elastic Compliance Matrix: (Units=1/GPa)
#
#
# Indices 1 2 3 4 5 6 
#
# 1 0.007249 -0.001269 -0.002219 0.000000 0.000000 0.000000
# 2 -0.001269 0.014600 -0.003346 0.000000 0.000000 0.000000
# 3 -0.002219 -0.003346 0.005625 0.000000 0.000000 0.000000
# 4 0.000000 0.000000 0.000000 0.043868 0.000000 0.000000
# 5 0.000000 0.000000 0.000000 0.000000 0.051860 0.000000
# 6 0.000000 0.000000 0.000000 0.000000 0.000000 0.092458
#
#
# Mechanical properties :
#
#
# Convention : Reuss Voigt Hill
#
# Bulk Modulus (GPa) = 72.42353 98.54006 85.48180
# Shear Modulus (GPa) = 21.37406 31.93272 26.65339
#
# Velocity S-wave (km/s) = 2.87541 3.51459 3.21094
# Velocity P-wave (km/s) = 6.24813 7.38833 6.84202
#
# Compressibility (1/GPa) = 0.01380767
#
# Stress axis : x y z
#
# Youngs Moduli (GPa) = 137.94567 68.49459 177.77379
#
# Poissons Ratio (x) = 0.08689 0.39442
# Poissons Ratio (y) = 0.17500 0.59481
# Poissons Ratio (z) = 0.30606 0.22918
#
# Static dielectric constant tensor:
#      x y z
#    x 2.059560 0.000000 0.000000 
#    y 0.000000 2.178490 0.000000 
#    z 0.000000 0.000000 2.002470 
# 
# From -- ./inp_files/39164.got.cif
#   From: 2010.05.17/outbox.cif.g08.bks.cpg/sg63_20_cif.got.tgz:39164.got - 2010.06.03 15:47:04.
