data_PCOD9475238
_publ_section_title
;
Structure prediction by ZEFSAII (Michael W. Deem and Ramdas Pophale) SiO2 
 PCOD9475238
Probable space group: C M C M
;
_chemical_formula_sum "Si O2"
_cell_formula_units_Z 52
_cell_length_a 7.978791
_cell_length_b 23.039753
_cell_length_c 14.519443
_cell_angle_alpha 90.000000
_cell_angle_beta 90.000000
_cell_angle_gamma 90.000000
_cell_volume 2669.100116
_symmetry_space_group_name_H-M "C M C M"
_symmetry_group_IT_number 63
_symmetry_cell_setting 'orthorhombic'
loop_
_space_group_symop_operation_xyz
x,y,z
-x,-y,1/2+z
x,-y,-z
-x,y,1/2-z
-x,-y,-z
x,y,1/2-z
-x,y,z
x,-y,1/2+z
1/2+x,1/2+y,z
1/2-x,1/2-y,1/2+z
1/2+x,1/2-y,-z
1/2-x,1/2+y,1/2-z
1/2-x,1/2-y,-z
1/2+x,1/2+y,1/2-z
1/2-x,1/2+y,z
1/2+x,1/2-y,1/2+z
loop_
_atom_site_type_symbol
_atom_site_label
_atom_site_fract_x
_atom_site_fract_y
_atom_site_fract_z
Si Si1 0.263882 0.000000 0.500000
Si Si2 0.299617 0.337804 0.750000
Si Si3 0.500000 0.662576 0.926041
Si Si4 0.687190 0.130629 0.049446
Si Si5 0.500000 0.468371 0.144459
Si Si6 0.000000 0.245889 0.750000
O O1 0.332787 0.935054 0.511500
O O2 0.156266 0.994830 0.407819
O O3 0.500000 0.325358 0.750000
O O4 0.251106 0.370165 0.844972
O O5 0.171305 0.283381 0.750000
O O6 0.500000 0.599929 0.876108
O O7 0.500000 0.708688 0.844099
O O8 0.332293 0.662263 0.989633
O O9 0.500000 0.157668 0.045432
O O10 0.500000 0.481531 0.250000
#
# Coordination Sequence:
#
# PCOD9475238 Si02
#       6
#     8   8   8  16   8   4
#     4   9  21  32  62  97 127 170 205 241 318 381
#     4  12  26  44  65  95 129 163 220 262 322 381
#     4  10  23  42  70  89 126 164 220 262 315 374
#     4  11  22  43  65  98 132 168 207 261 310 388
#     4   9  17  34  58  94 125 167 204 255 308 373
#     4  12  26  48  66  94 124 168 214 282 326 360
#
# _framework density 19.482220999999999
#
# number of rings (size 3 to 8) (size 9 to 14) (size 15 to 20)
#    0.000    1.538    3.846    1.385    2.154    2.462 
#    0.000    0.000    0.000    0.000    0.000    0.000 
#    0.000    0.000    0.000    0.000    0.000    0.000 
#
# Total GULP energy -144775.285418 kJ/mol
# GULP energy per Si atom -5568.280208 kJ/mol
# Density = 1.943788 g / cm^3
# Si number density = 19.482221 Si / 1000 Ang^3
#
#
#
# Elastic Constant Matrix: (Units=GPa)
#
#
# Indices 1 2 3 4 5 6 
#
# 1 187.5587 40.4570 78.6302 0.0000 0.0000 0.0000
# 2 40.4570 57.2975 29.6022 0.0000 0.0000 0.0000
# 3 78.6302 29.6022 182.6546 0.0000 0.0000 0.0000
# 4 0.0000 0.0000 0.0000 39.3536 0.0000 0.0000
# 5 0.0000 0.0000 0.0000 0.0000 18.2870 0.0000
# 6 0.0000 0.0000 0.0000 0.0000 0.0000 35.1092
#
#
#
# Elastic Compliance Matrix: (Units=1/GPa)
#
#
# Indices 1 2 3 4 5 6 
#
# 1 0.007190 -0.003796 -0.002480 0.000000 0.000000 0.000000
# 2 -0.003796 0.021051 -0.001778 0.000000 0.000000 0.000000
# 3 -0.002480 -0.001778 0.006831 0.000000 0.000000 0.000000
# 4 0.000000 0.000000 0.000000 0.025411 0.000000 0.000000
# 5 0.000000 0.000000 0.000000 0.000000 0.054684 0.000000
# 6 0.000000 0.000000 0.000000 0.000000 0.000000 0.028483
#
#
# Mechanical properties :
#
#
# Convention : Reuss Voigt Hill
#
# Bulk Modulus (GPa) = 52.72848 80.54330 66.63589
# Shear Modulus (GPa) = 30.10645 37.13803 33.62224
#
# Velocity S-wave (km/s) = 3.93533 4.37080 4.15877
# Velocity P-wave (km/s) = 6.91179 8.17946 7.57220
#
# Compressibility (1/GPa) = 0.01896508
#
# Stress axis : x y z
#
# Youngs Moduli (GPa) = 139.07998 47.50324 146.40032
#
# Poissons Ratio (x) = 0.18030 0.36309
# Poissons Ratio (y) = 0.52788 0.26027
# Poissons Ratio (z) = 0.34493 0.08445
#
# Static dielectric constant tensor:
#      x y z
#    x 1.734710 0.000000 0.000000 
#    y 0.000000 1.693190 0.000000 
#    z 0.000000 0.000000 1.635570 
# 
# From -- ./inp_files/27187.got.cif
#   From: 2010.05.17/outbox.cif.g08.bks.cpg/sg63_14_cif.got.tgz:27187.got - 2010.06.03 15:47:04.
