data_PCOD9475162
_publ_section_title
;
Structure prediction by ZEFSAII (Michael W. Deem and Ramdas Pophale) SiO2 
 PCOD9475162
Probable space group: C M C M
;
_chemical_formula_sum "Si O2"
_cell_formula_units_Z 80
_cell_length_a 21.928931
_cell_length_b 12.718909
_cell_length_c 11.714606
_cell_angle_alpha 90.000000
_cell_angle_beta 90.000000
_cell_angle_gamma 90.000000
_cell_volume 3267.345101
_symmetry_space_group_name_H-M "C M C M"
_symmetry_group_IT_number 63
_symmetry_cell_setting 'orthorhombic'
loop_
_space_group_symop_operation_xyz
x,y,z
-x,-y,1/2+z
x,-y,-z
-x,y,1/2-z
-x,-y,-z
x,y,1/2-z
-x,y,z
x,-y,1/2+z
1/2+x,1/2+y,z
1/2-x,1/2-y,1/2+z
1/2+x,1/2-y,-z
1/2-x,1/2+y,1/2-z
1/2-x,1/2-y,-z
1/2+x,1/2+y,1/2-z
1/2-x,1/2+y,z
1/2+x,1/2-y,1/2+z
loop_
_atom_site_type_symbol
_atom_site_label
_atom_site_fract_x
_atom_site_fract_y
_atom_site_fract_z
Si Si1 0.571603 0.044495 0.250000
Si Si2 0.819670 0.109758 0.121294
Si Si3 0.572811 0.692989 0.002780
Si Si4 0.226877 0.869878 0.125598
Si Si5 0.639485 0.905054 0.428239
Si Si6 0.925676 0.785345 0.250000
O O1 0.500000 0.053919 0.250000
O O2 0.593625 0.974038 0.353884
O O3 0.596668 0.163403 0.250000
O O4 0.808062 0.150780 0.250000
O O5 0.795023 0.991252 0.126462
O O6 0.891520 0.120641 0.092533
O O7 0.792198 0.161665 0.004528
O O8 0.500000 0.692887 0.017663
O O9 0.588698 0.662791 0.871823
O O10 0.600270 0.810629 0.019188
O O11 0.204694 0.824299 0.250000
O O12 0.300089 0.861281 0.129836
O O13 0.668064 0.000000 0.500000
O O14 0.000000 0.779594 0.250000
#
# Coordination Sequence:
#
# PCOD9475162 Si02
#       6
#     8  16  16  16  16   8
#     4  11  22  36  59  92 135 183 225 261 320 397
#     4  10  23  43  68  97 132 171 218 279 331 389
#     4  11  25  42  63  97 135 173 220 273 333 394
#     4  10  22  45  69  95 128 171 224 269 327 393
#     4  12  22  39  65  94 130 179 217 270 322 393
#     4   9  20  38  57  86 129 173 218 263 316 385
#
# _framework density 24.484711000000001
#
# number of rings (size 3 to 8) (size 9 to 14) (size 15 to 20)
#    0.000    1.400    5.000    0.600    2.800    2.000 
#    1.800    2.000    0.000    1.200    0.000    0.000 
#    0.000    0.000    0.000    0.000    0.000    0.000 
#
# Total GULP energy -223084.576717 kJ/mol
# GULP energy per Si atom -5577.114418 kJ/mol
# Density = 2.442898 g / cm^3
# Si number density = 24.484711 Si / 1000 Ang^3
#
#
#
# Elastic Constant Matrix: (Units=GPa)
#
#
# Indices 1 2 3 4 5 6 
#
# 1 136.9211 41.1260 52.0675 0.0000 0.0000 0.0000
# 2 41.1260 89.5726 32.6956 0.0000 0.0000 0.0000
# 3 52.0675 32.6956 192.5918 0.0000 0.0000 0.0000
# 4 0.0000 0.0000 0.0000 44.6282 0.0000 0.0000
# 5 0.0000 0.0000 0.0000 0.0000 18.4451 0.0000
# 6 0.0000 0.0000 0.0000 0.0000 0.0000 41.3921
#
#
#
# Elastic Compliance Matrix: (Units=1/GPa)
#
#
# Indices 1 2 3 4 5 6 
#
# 1 0.009055 -0.003479 -0.001857 0.000000 0.000000 0.000000
# 2 -0.003479 0.013239 -0.001307 0.000000 0.000000 0.000000
# 3 -0.001857 -0.001307 0.005916 0.000000 0.000000 0.000000
# 4 0.000000 0.000000 0.000000 0.022407 0.000000 0.000000
# 5 0.000000 0.000000 0.000000 0.000000 0.054215 0.000000
# 6 0.000000 0.000000 0.000000 0.000000 0.000000 0.024159
#
#
# Mechanical properties :
#
#
# Convention : Reuss Voigt Hill
#
# Bulk Modulus (GPa) = 67.01196 74.54041 70.77618
# Shear Modulus (GPa) = 33.95523 40.43951 37.19737
#
# Velocity S-wave (km/s) = 3.72801 4.06843 3.90193
# Velocity P-wave (km/s) = 6.77931 7.25115 7.01920
#
# Compressibility (1/GPa) = 0.01492271
#
# Stress axis : x y z
#
# Youngs Moduli (GPa) = 110.43794 75.53625 169.02437
#
# Poissons Ratio (x) = 0.26283 0.31393
# Poissons Ratio (y) = 0.38426 0.22088
# Poissons Ratio (z) = 0.20512 0.09871
#
# Static dielectric constant tensor:
#      x y z
#    x 1.947810 0.000000 0.000000 
#    y 0.000000 1.903890 0.000000 
#    z 0.000000 0.000000 1.932180 
# 
# From -- ./inp_files/23697.got.cif
#   From: 2010.05.17/outbox.cif.g08.bks.cpg/sg63_12_cif.got.tgz:23697.got - 2010.06.03 15:47:04.
