data_PCOD9475941
_publ_section_title
;
Structure prediction by ZEFSAII (Michael W. Deem and Ramdas Pophale) SiO2 
 PCOD9475941
Probable space group: C M C M
;
_chemical_formula_sum "Si O2"
_cell_formula_units_Z 96
_cell_length_a 23.407442
_cell_length_b 8.011636
_cell_length_c 23.154462
_cell_angle_alpha 90.000000
_cell_angle_beta 90.000000
_cell_angle_gamma 90.000000
_cell_volume 4342.200368
_symmetry_space_group_name_H-M "C M C M"
_symmetry_group_IT_number 63
_symmetry_cell_setting 'orthorhombic'
loop_
_space_group_symop_operation_xyz
x,y,z
-x,-y,1/2+z
x,-y,-z
-x,y,1/2-z
-x,-y,-z
x,y,1/2-z
-x,y,z
x,-y,1/2+z
1/2+x,1/2+y,z
1/2-x,1/2-y,1/2+z
1/2+x,1/2-y,-z
1/2-x,1/2+y,1/2-z
1/2-x,1/2-y,-z
1/2+x,1/2+y,1/2-z
1/2-x,1/2+y,z
1/2+x,1/2-y,1/2+z
loop_
_atom_site_type_symbol
_atom_site_label
_atom_site_fract_x
_atom_site_fract_y
_atom_site_fract_z
Si Si1 0.769602 0.668214 0.818708
Si Si2 0.159781 0.324626 0.681988
Si Si3 0.932982 0.265531 0.483304
Si Si4 0.567827 0.037096 0.875483
Si Si5 0.879114 0.858974 0.681222
Si Si6 0.433095 0.422675 0.408519
O O1 0.763964 0.698542 0.750000
O O2 0.800172 0.491013 0.824000
O O3 0.705441 0.689228 0.841165
O O4 0.816356 0.801693 0.839955
O O5 0.147350 0.298420 0.750000
O O6 0.102227 0.382171 0.650472
O O7 0.911828 0.409158 0.440060
O O8 0.909211 0.211776 0.545472
O O9 0.000000 0.300862 0.493222
O O10 0.930913 0.097286 0.444694
O O11 0.500000 0.010873 0.876733
O O12 0.581449 0.199311 0.835544
O O13 0.877928 0.879032 0.750000
O O14 0.902157 0.023630 0.650079
O O15 0.500000 0.388053 0.397519
#
# Coordination Sequence:
#
# PCOD9475941 Si02
#       6
#    16  16  16  16  16  16
#     4   8  15  26  38  54  76 104 137 164 191 230
#     4   9  16  26  40  58  80 106 135 165 195 233
#     4   7  11  19  29  44  68  97 124 150 188 237
#     4   9  15  22  35  56  79  98 121 161 206 237
#     4   9  15  21  31  50  76 101 124 155 194 233
#     4   8  12  18  29  45  68  98 127 154 189 234
#
# _framework density 22.108606000000002
#
# number of rings (size 3 to 8) (size 9 to 14) (size 15 to 20)
#    0.000    3.667    0.000    4.000    0.000    2.333 
#    0.000    0.000    0.000    1.000    0.000    5.833 
#    0.000   33.333    0.000    6.000    0.000    4.833 
#
# Total GULP energy -267779.104020 kJ/mol
# GULP energy per Si atom -5578.731334 kJ/mol
# Density = 2.205829 g / cm^3
# Si number density = 22.108606 Si / 1000 Ang^3
#
#
#
# Elastic Constant Matrix: (Units=GPa)
#
#
# Indices 1 2 3 4 5 6 
#
# 1 103.9360 13.4259 31.9372 0.0000 0.0000 0.0000
# 2 13.4259 86.2390 11.8485 0.0000 0.0000 0.0000
# 3 31.9372 11.8485 95.4928 0.0000 0.0000 0.0000
# 4 0.0000 0.0000 0.0000 32.3710 0.0000 0.0000
# 5 0.0000 0.0000 0.0000 0.0000 -17.5022 0.0000
# 6 0.0000 0.0000 0.0000 0.0000 0.0000 21.1720
#
#
#
# Elastic Compliance Matrix: (Units=1/GPa)
#
#
# Indices 1 2 3 4 5 6 
#
# 1 0.010846 -0.001211 -0.003477 0.000000 0.000000 0.000000
# 2 -0.001211 0.011932 -0.001076 0.000000 0.000000 0.000000
# 3 -0.003477 -0.001076 0.011768 0.000000 0.000000 0.000000
# 4 0.000000 0.000000 0.000000 0.030892 0.000000 0.000000
# 5 0.000000 0.000000 0.000000 0.000000 -0.057136 0.000000
# 6 0.000000 0.000000 0.000000 0.000000 0.000000 0.047232
#
#
# Mechanical properties :
#
#
# Convention : Reuss Voigt Hill
#
# Bulk Modulus (GPa) = 43.44168 44.45455 43.94812
# Shear Modulus (GPa) = 66.90291 22.43857 44.67074
#
# Velocity S-wave (km/s) = 5.50697 3.18924 4.49989
# Velocity P-wave (km/s) = 7.75419 5.80626 6.84983
#
# Compressibility (1/GPa) = 0.02301937
#
# Stress axis : x y z
#
# Youngs Moduli (GPa) = 92.19837 83.80861 84.97337
#
# Poissons Ratio (x) = 0.10148 0.29547
# Poissons Ratio (y) = 0.11163 0.09139
# Poissons Ratio (z) = 0.32059 0.09014
#
# Static dielectric constant tensor:
#      x y z
#    x 1.814970 0.000000 0.000000 
#    y 0.000000 1.979970 0.000000 
#    z 0.000000 0.000000 1.829710 
# 
# From -- ./inp_files/64573.got.cif
#   From: 2010.05.17/outbox.cif.g08.bks.cpg/sg63_33_cif.got.tgz:64573.got - 2010.06.03 15:47:04.
