data_PCOD9475466
_publ_section_title
;
Structure prediction by ZEFSAII (Michael W. Deem and Ramdas Pophale) SiO2 
 PCOD9475466
Probable space group: C M C M
;
_chemical_formula_sum "Si O2"
_cell_formula_units_Z 116
_cell_length_a 30.352428
_cell_length_b 13.237698
_cell_length_c 17.038986
_cell_angle_alpha 90.000000
_cell_angle_beta 90.000000
_cell_angle_gamma 90.000000
_cell_volume 6846.201112
_symmetry_space_group_name_H-M "C M C M"
_symmetry_group_IT_number 63
_symmetry_cell_setting 'orthorhombic'
loop_
_space_group_symop_operation_xyz
x,y,z
-x,-y,1/2+z
x,-y,-z
-x,y,1/2-z
-x,-y,-z
x,y,1/2-z
-x,y,z
x,-y,1/2+z
1/2+x,1/2+y,z
1/2-x,1/2-y,1/2+z
1/2+x,1/2-y,-z
1/2-x,1/2+y,1/2-z
1/2-x,1/2-y,-z
1/2+x,1/2+y,1/2-z
1/2-x,1/2+y,z
1/2+x,1/2-y,1/2+z
loop_
_atom_site_type_symbol
_atom_site_label
_atom_site_fract_x
_atom_site_fract_y
_atom_site_fract_z
Si Si1 0.673916 0.743898 0.115681
Si Si2 0.500000 0.328446 0.750000
Si Si3 0.415179 0.658030 0.365077
Si Si4 0.449600 0.382499 0.470898
Si Si5 0.783724 0.549517 0.576747
Si Si6 0.734625 0.844729 0.838289
Si Si7 0.694080 0.332107 0.057723
Si Si8 0.616410 0.427407 0.342125
O O1 0.626195 0.729117 0.152911
O O2 0.687837 0.860521 0.112372
O O3 0.713750 0.683725 0.156746
O O4 0.674867 0.698959 0.026608
O O5 0.539656 0.331439 0.817297
O O6 0.427139 0.672979 0.456432
O O7 0.395254 0.545873 0.350584
O O8 0.448988 0.500000 0.500000
O O9 0.500000 0.352866 0.460412
O O10 0.422917 0.373996 0.390370
O O11 0.805289 0.500000 0.500000
O O12 0.772823 0.459700 0.636149
O O13 0.738342 0.602216 0.547843
O O14 0.718993 0.827293 0.750000
O O15 0.709343 0.768828 0.896786
O O16 0.660049 0.395531 0.110480
O O17 0.619085 0.402653 0.250000
#
# Coordination Sequence:
#
# PCOD9475466 Si02
#       8
#    16   4  16  16  16  16  16  16
#     4  11  22  37  59  81 112 157 200 232 283 351
#     4  12  24  40  58  84 124 150 180 246 298 344
#     4  11  22  36  55  80 113 149 187 234 289 347
#     4   9  18  31  49  70  99 140 181 221 278 340
#     4  11  20  36  59  81 110 158 200 234 281 336
#     4  11  23  37  55  82 120 154 190 246 284 324
#     4  11  21  36  56  80 116 158 199 232 282 341
#     4  11  22  32  52  79 112 152 193 237 278 343
#
# _framework density 16.943704
#
# number of rings (size 3 to 8) (size 9 to 14) (size 15 to 20)
#    0.000    1.241    5.517    2.069    1.931    4.138 
#    0.000    0.000    0.000    0.000    0.000    0.483 
#    2.069    1.103    0.000    0.000    0.000    0.000 
#
# Total GULP energy -323175.894490 kJ/mol
# GULP energy per Si atom -5571.998181 kJ/mol
# Density = 1.690514 g / cm^3
# Si number density = 16.943704 Si / 1000 Ang^3
#
#
#
# Elastic Constant Matrix: (Units=GPa)
#
#
# Indices 1 2 3 4 5 6 
#
# 1 119.5633 40.7151 14.9153 0.0000 0.0000 0.0000
# 2 40.7151 72.0978 22.6466 0.0000 0.0000 0.0000
# 3 14.9153 22.6466 86.6808 0.0000 0.0000 0.0000
# 4 0.0000 0.0000 0.0000 5.7696 0.0000 0.0000
# 5 0.0000 0.0000 0.0000 0.0000 14.7459 0.0000
# 6 0.0000 0.0000 0.0000 0.0000 0.0000 12.8571
#
#
#
# Elastic Compliance Matrix: (Units=1/GPa)
#
#
# Indices 1 2 3 4 5 6 
#
# 1 0.010361 -0.005764 -0.000277 0.000000 0.000000 0.000000
# 2 -0.005764 0.018317 -0.003794 0.000000 0.000000 0.000000
# 3 -0.000277 -0.003794 0.012575 0.000000 0.000000 0.000000
# 4 0.000000 0.000000 0.000000 0.173323 0.000000 0.000000
# 5 0.000000 0.000000 0.000000 0.000000 0.067815 0.000000
# 6 0.000000 0.000000 0.000000 0.000000 0.000000 0.077778
#
#
# Mechanical properties :
#
#
# Convention : Reuss Voigt Hill
#
# Bulk Modulus (GPa) = 46.33088 48.32176 47.32632
# Shear Modulus (GPa) = 12.91875 20.01218 16.46546
#
# Velocity S-wave (km/s) = 2.76425 3.44044 3.12071
# Velocity P-wave (km/s) = 6.13119 6.66056 6.40135
#
# Compressibility (1/GPa) = 0.02158387
#
# Stress axis : x y z
#
# Youngs Moduli (GPa) = 96.51390 54.59462 79.52047
#
# Poissons Ratio (x) = 0.31469 0.02202
# Poissons Ratio (y) = 0.55633 0.30167
# Poissons Ratio (z) = 0.02672 0.20711
#
# Static dielectric constant tensor:
#      x y z
#    x 1.569180 0.000000 0.000000 
#    y 0.000000 1.572960 0.000000 
#    z 0.000000 0.000000 1.605580 
# 
# From -- ./inp_files/49605.got.cif
#   From: 2010.05.17/outbox.cif.g08.bks.cpg/sg63_25_cif.got.tgz:49605.got - 2010.06.03 15:47:04.
