data_PCOD9475432
_publ_section_title
;
Structure prediction by ZEFSAII (Michael W. Deem and Ramdas Pophale) SiO2 
 PCOD9475432
Probable space group: C M C M
;
_chemical_formula_sum "Si O2"
_cell_formula_units_Z 80
_cell_length_a 18.022737
_cell_length_b 12.451414
_cell_length_c 17.993407
_cell_angle_alpha 90.000000
_cell_angle_beta 90.000000
_cell_angle_gamma 90.000000
_cell_volume 4037.874551
_symmetry_space_group_name_H-M "C M C M"
_symmetry_group_IT_number 63
_symmetry_cell_setting 'orthorhombic'
loop_
_space_group_symop_operation_xyz
x,y,z
-x,-y,1/2+z
x,-y,-z
-x,y,1/2-z
-x,-y,-z
x,y,1/2-z
-x,y,z
x,-y,1/2+z
1/2+x,1/2+y,z
1/2-x,1/2-y,1/2+z
1/2+x,1/2-y,-z
1/2-x,1/2+y,1/2-z
1/2-x,1/2-y,-z
1/2+x,1/2+y,1/2-z
1/2-x,1/2+y,z
1/2+x,1/2-y,1/2+z
loop_
_atom_site_type_symbol
_atom_site_label
_atom_site_fract_x
_atom_site_fract_y
_atom_site_fract_z
Si Si1 0.663725 0.655573 0.946524
Si Si2 0.414861 0.845436 0.487322
Si Si3 0.718978 0.123818 0.421631
Si Si4 0.837623 0.970863 0.834590
Si Si5 0.589569 0.764003 0.332989
O O1 0.707769 0.750102 0.902204
O O2 0.638700 0.560473 0.893663
O O3 0.597359 0.721728 0.984945
O O4 0.720816 0.620795 0.011298
O O5 0.500000 0.876581 0.492512
O O6 0.359963 0.906331 0.543263
O O7 0.388488 0.839346 0.401917
O O8 0.752278 0.055214 0.355797
O O9 0.846861 0.006553 0.750000
O O10 0.878584 0.856251 0.843162
O O11 0.611387 0.800312 0.250000
O O12 0.500000 0.757812 0.335778
#
# Coordination Sequence:
#
# PCOD9475432 Si02
#       5
#    16  16  16  16  16
#     4   9  18  32  51  75  99 132 172 219 249 306
#     4   9  17  32  54  76 101 139 174 210 262 308
#     4   9  18  34  51  73 104 134 173 219 251 303
#     4  11  20  31  51  75 105 141 172 211 267 312
#     4   9  17  28  44  74 110 138 167 204 257 321
#
# _framework density 19.812403
#
# number of rings (size 3 to 8) (size 9 to 14) (size 15 to 20)
#    1.200    1.400    2.000    0.600    0.000    1.600 
#    0.000    3.000    0.000    4.200    0.000    0.000 
#    0.000    0.000    0.000    0.000    0.000    0.000 
#
# Total GULP energy -222674.051473 kJ/mol
# GULP energy per Si atom -5566.851287 kJ/mol
# Density = 1.976731 g / cm^3
# Si number density = 19.812403 Si / 1000 Ang^3
#
#
#
# Elastic Constant Matrix: (Units=GPa)
#
#
# Indices 1 2 3 4 5 6 
#
# 1 48.8017 -4.6215 5.3630 0.0000 0.0000 0.0000
# 2 -4.6215 42.0224 5.7449 0.0000 0.0000 0.0000
# 3 5.3630 5.7449 66.2569 0.0000 0.0000 0.0000
# 4 0.0000 0.0000 0.0000 27.2862 0.0000 0.0000
# 5 0.0000 0.0000 0.0000 0.0000 23.6058 0.0000
# 6 0.0000 0.0000 0.0000 0.0000 0.0000 -3.8797
#
#
#
# Elastic Compliance Matrix: (Units=1/GPa)
#
#
# Indices 1 2 3 4 5 6 
#
# 1 0.020945 0.002566 -0.001918 0.000000 0.000000 0.000000
# 2 0.002566 0.024397 -0.002323 0.000000 0.000000 0.000000
# 3 -0.001918 -0.002323 0.015449 0.000000 0.000000 0.000000
# 4 0.000000 0.000000 0.000000 0.036649 0.000000 0.000000
# 5 0.000000 0.000000 0.000000 0.000000 0.042362 0.000000
# 6 0.000000 0.000000 0.000000 0.000000 0.000000 -0.257749
#
#
# Mechanical properties :
#
#
# Convention : Reuss Voigt Hill
#
# Bulk Modulus (GPa) = 17.40932 18.89486 18.15209
# Shear Modulus (GPa) = -52.38316 19.44210 -16.47053
#
# Velocity S-wave (km/s) = -5.14752 3.13598 -2.88640
# Velocity P-wave (km/s) = 5.15006 4.76132 1.38799
#
# Compressibility (1/GPa) = 0.05744049
#
# Stress axis : x y z
#
# Youngs Moduli (GPa) = 47.74450 40.98941 64.72733
#
# Poissons Ratio (x) = -0.10516 0.12413
# Poissons Ratio (y) = -0.12250 0.15036
# Poissons Ratio (z) = 0.09156 0.09522
#
# Static dielectric constant tensor:
#      x y z
#    x 1.701820 0.000000 0.000000 
#    y 0.000000 1.768590 0.000000 
#    z 0.000000 0.000000 1.703390 
# 
# From -- ./inp_files/47022.got.cif
#   From: 2010.05.17/outbox.cif.g08.bks.cpg/sg63_24_cif.got.tgz:47022.got - 2010.06.03 15:47:04.
