data_PCOD9475336
_publ_section_title
;
Structure prediction by ZEFSAII (Michael W. Deem and Ramdas Pophale) SiO2 
 PCOD9475336
Probable space group: C M C M
;
_chemical_formula_sum "Si O2"
_cell_formula_units_Z 56
_cell_length_a 17.281691
_cell_length_b 9.226208
_cell_length_c 17.512304
_cell_angle_alpha 90.000000
_cell_angle_beta 90.000000
_cell_angle_gamma 90.000000
_cell_volume 2792.240131
_symmetry_space_group_name_H-M "C M C M"
_symmetry_group_IT_number 63
_symmetry_cell_setting 'orthorhombic'
loop_
_space_group_symop_operation_xyz
x,y,z
-x,-y,1/2+z
x,-y,-z
-x,y,1/2-z
-x,-y,-z
x,y,1/2-z
-x,y,z
x,-y,1/2+z
1/2+x,1/2+y,z
1/2-x,1/2-y,1/2+z
1/2+x,1/2-y,-z
1/2-x,1/2+y,1/2-z
1/2-x,1/2-y,-z
1/2+x,1/2+y,1/2-z
1/2-x,1/2+y,z
1/2+x,1/2-y,1/2+z
loop_
_atom_site_type_symbol
_atom_site_label
_atom_site_fract_x
_atom_site_fract_y
_atom_site_fract_z
Si Si1 0.857039 0.890904 0.250000
Si Si2 0.842494 0.256816 0.083130
Si Si3 0.500000 0.297113 0.331920
Si Si4 0.241867 0.000000 0.000000
Si Si5 0.500000 0.172927 0.500969
Si Si6 0.294394 0.707962 0.250000
O O1 0.918988 0.883396 0.320196
O O2 0.795333 0.759806 0.250000
O O3 0.806625 0.035166 0.250000
O O4 0.793248 0.390360 0.049487
O O5 0.835732 0.264181 0.173839
O O6 0.925947 0.270493 0.046063
O O7 0.806602 0.105190 0.054656
O O8 0.500000 0.208349 0.250000
O O9 0.500000 0.222035 0.412710
O O10 0.500000 0.000000 0.500000
#
# Coordination Sequence:
#
# PCOD9475336 Si02
#       6
#     8  16   8   8   8   8
#     4   9  24  44  74  99 136 172 236 275 346 403
#     4  11  26  43  70 100 144 176 233 277 348 407
#     4   8  24  46  70  94 135 185 222 280 338 412
#     4  10  24  44  68 104 132 186 224 290 338 408
#     4  12  26  46  66 103 138 183 226 288 344 410
#     4  12  24  42  70 112 130 182 224 294 332 419
#
# _framework density 20.055581
#
# number of rings (size 3 to 8) (size 9 to 14) (size 15 to 20)
#    0.857    0.571    1.429    1.714   12.000    5.714 
#    2.571    0.000    0.000    3.429    0.000    0.000 
#    0.000    0.000    0.000    0.000    0.000    0.000 
#
# Total GULP energy -156237.945662 kJ/mol
# GULP energy per Si atom -5579.926631 kJ/mol
# Density = 2.000993 g / cm^3
# Si number density = 20.055581 Si / 1000 Ang^3
#
#
#
# Elastic Constant Matrix: (Units=GPa)
#
#
# Indices 1 2 3 4 5 6 
#
# 1 162.4585 73.2324 72.8428 0.0000 0.0000 0.0000
# 2 73.2324 114.1207 49.7571 0.0000 0.0000 0.0000
# 3 72.8428 49.7571 190.0423 0.0000 0.0000 0.0000
# 4 0.0000 0.0000 0.0000 19.7157 0.0000 0.0000
# 5 0.0000 0.0000 0.0000 0.0000 16.3353 0.0000
# 6 0.0000 0.0000 0.0000 0.0000 0.0000 6.6430
#
#
#
# Elastic Compliance Matrix: (Units=1/GPa)
#
#
# Indices 1 2 3 4 5 6 
#
# 1 0.009477 -0.005077 -0.002303 0.000000 0.000000 0.000000
# 2 -0.005077 0.012612 -0.001356 0.000000 0.000000 0.000000
# 3 -0.002303 -0.001356 0.006500 0.000000 0.000000 0.000000
# 4 0.000000 0.000000 0.000000 0.050721 0.000000 0.000000
# 5 0.000000 0.000000 0.000000 0.000000 0.061217 0.000000
# 6 0.000000 0.000000 0.000000 0.000000 0.000000 0.150534
#
#
# Mechanical properties :
#
#
# Convention : Reuss Voigt Hill
#
# Bulk Modulus (GPa) = 89.96101 95.36514 92.66308
# Shear Modulus (GPa) = 16.01341 26.59141 21.30241
#
# Velocity S-wave (km/s) = 2.82875 3.64522 3.26263
# Velocity P-wave (km/s) = 7.45804 8.08520 7.77795
#
# Compressibility (1/GPa) = 0.01111593
#
# Stress axis : x y z
#
# Youngs Moduli (GPa) = 105.52151 79.28993 153.85097
#
# Poissons Ratio (x) = 0.40257 0.35434
# Poissons Ratio (y) = 0.53575 0.20862
# Poissons Ratio (z) = 0.24303 0.10752
#
# Static dielectric constant tensor:
#      x y z
#    x 1.688490 0.000000 0.000000 
#    y 0.000000 1.686080 0.000000 
#    z 0.000000 0.000000 1.724330 
# 
# From -- ./inp_files/45063.got.cif
#   From: 2010.05.17/outbox.cif.g08.bks.cpg/sg63_23_cif.got.tgz:45063.got - 2010.06.03 15:47:04.
