data_PCOD9475498
_publ_section_title
;
Structure prediction by ZEFSAII (Michael W. Deem and Ramdas Pophale) SiO2 
 PCOD9475498
Probable space group: C M C M
;
_chemical_formula_sum "Si O2"
_cell_formula_units_Z 112
_cell_length_a 27.797876
_cell_length_b 14.876750
_cell_length_c 14.818618
_cell_angle_alpha 90.000000
_cell_angle_beta 90.000000
_cell_angle_gamma 90.000000
_cell_volume 6128.121692
_symmetry_space_group_name_H-M "C M C M"
_symmetry_group_IT_number 63
_symmetry_cell_setting 'orthorhombic'
loop_
_space_group_symop_operation_xyz
x,y,z
-x,-y,1/2+z
x,-y,-z
-x,y,1/2-z
-x,-y,-z
x,y,1/2-z
-x,y,z
x,-y,1/2+z
1/2+x,1/2+y,z
1/2-x,1/2-y,1/2+z
1/2+x,1/2-y,-z
1/2-x,1/2+y,1/2-z
1/2-x,1/2-y,-z
1/2+x,1/2+y,1/2-z
1/2-x,1/2+y,z
1/2+x,1/2-y,1/2+z
loop_
_atom_site_type_symbol
_atom_site_label
_atom_site_fract_x
_atom_site_fract_y
_atom_site_fract_z
Si Si1 0.942819 0.237660 0.141708
Si Si2 0.638297 0.761703 0.495174
Si Si3 0.281497 0.217470 0.852818
Si Si4 0.357268 0.567550 0.915638
Si Si5 0.948127 0.968733 0.644250
Si Si6 0.307892 0.846217 0.850702
Si Si7 0.752015 0.978862 0.393363
O O1 0.930844 0.249229 0.250000
O O2 0.000000 0.258309 0.133025
O O3 0.936512 0.132521 0.113727
O O4 0.907505 0.284177 0.068829
O O5 0.681161 0.744510 0.424005
O O6 0.636671 0.669819 0.552847
O O7 0.654610 0.837740 0.567151
O O8 0.297006 0.233820 0.750000
O O9 0.230148 0.265189 0.864795
O O10 0.276464 0.111873 0.871433
O O11 0.405788 0.538064 0.867860
O O12 0.307124 0.543969 0.865675
O O13 0.356084 0.500000 0.000000
O O14 0.953461 0.956349 0.750000
O O15 0.000000 0.997515 0.606511
O O16 0.329208 0.837513 0.750000
O O17 0.275096 0.935584 0.852811
O O18 0.752597 0.000000 0.500000
#
# Coordination Sequence:
#
# PCOD9475498 Si02
#       7
#    16  16  16  16  16  16  16
#     4   9  19  36  58  85 114 147 192 243 292 342
#     4  12  21  37  56  81 116 149 189 242 287 335
#     4  11  22  37  57  82 112 152 196 239 287 339
#     4  11  21  31  52  78 106 151 197 231 275 334
#     4   9  19  34  50  74 109 147 194 243 278 328
#     4  11  24  38  55  81 116 154 197 241 283 341
#     4  11  21  38  57  78 115 155 193 237 284 340
#
# _framework density 18.276399000000001
#
# number of rings (size 3 to 8) (size 9 to 14) (size 15 to 20)
#    0.000    1.429    4.286    3.857    0.000    2.571 
#    0.000    0.000    0.000    0.429    0.000    2.000 
#    0.000    2.286    0.000    0.143    0.000    0.000 
#
# Total GULP energy -312106.910241 kJ/mol
# GULP energy per Si atom -5573.337683 kJ/mol
# Density = 1.823480 g / cm^3
# Si number density = 18.276399 Si / 1000 Ang^3
#
#
#
# Elastic Constant Matrix: (Units=GPa)
#
#
# Indices 1 2 3 4 5 6 
#
# 1 79.1642 10.2255 51.7003 0.0000 0.0000 0.0000
# 2 10.2255 55.7784 8.6700 0.0000 0.0000 0.0000
# 3 51.7003 8.6700 91.5471 0.0000 0.0000 0.0000
# 4 0.0000 0.0000 0.0000 16.6567 0.0000 0.0000
# 5 0.0000 0.0000 0.0000 0.0000 31.2182 0.0000
# 6 0.0000 0.0000 0.0000 0.0000 0.0000 36.3246
#
#
#
# Elastic Compliance Matrix: (Units=1/GPa)
#
#
# Indices 1 2 3 4 5 6 
#
# 1 0.020222 -0.001961 -0.011235 0.000000 0.000000 0.000000
# 2 -0.001961 0.018386 -0.000634 0.000000 0.000000 0.000000
# 3 -0.011235 -0.000634 0.017328 0.000000 0.000000 0.000000
# 4 0.000000 0.000000 0.000000 0.060036 0.000000 0.000000
# 5 0.000000 0.000000 0.000000 0.000000 0.032033 0.000000
# 6 0.000000 0.000000 0.000000 0.000000 0.000000 0.027530
#
#
# Mechanical properties :
#
#
# Convention : Reuss Voigt Hill
#
# Bulk Modulus (GPa) = 35.36370 40.85347 38.10858
# Shear Modulus (GPa) = 23.51623 27.23285 25.37454
#
# Velocity S-wave (km/s) = 3.59095 3.86431 3.73014
# Velocity P-wave (km/s) = 6.04852 6.50478 6.28080
#
# Compressibility (1/GPa) = 0.02827759
#
# Stress axis : x y z
#
# Youngs Moduli (GPa) = 49.45022 54.38893 57.71003
#
# Poissons Ratio (x) = 0.10666 0.64835
# Poissons Ratio (y) = 0.09697 0.03658
# Poissons Ratio (z) = 0.55556 0.03447
#
# Static dielectric constant tensor:
#      x y z
#    x 1.697020 0.000000 0.000000 
#    y 0.000000 1.635080 0.000000 
#    z 0.000000 0.000000 1.654190 
# 
# From -- ./inp_files/37925.got.cif
#   From: 2010.05.17/outbox.cif.g08.bks.cpg/sg63_19_cif.got.tgz:37925.got - 2010.06.03 15:47:04.
