data_PCOD9475917
_publ_section_title
;
Structure prediction by ZEFSAII (Michael W. Deem and Ramdas Pophale) SiO2 
 PCOD9475917
Probable space group: C M C M
;
_chemical_formula_sum "Si O2"
_cell_formula_units_Z 48
_cell_length_a 20.003498
_cell_length_b 7.660631
_cell_length_c 14.758484
_cell_angle_alpha 90.000000
_cell_angle_beta 90.000000
_cell_angle_gamma 90.000000
_cell_volume 2261.581482
_symmetry_space_group_name_H-M "C M C M"
_symmetry_group_IT_number 63
_symmetry_cell_setting 'orthorhombic'
loop_
_space_group_symop_operation_xyz
x,y,z
-x,-y,1/2+z
x,-y,-z
-x,y,1/2-z
-x,-y,-z
x,y,1/2-z
-x,y,z
x,-y,1/2+z
1/2+x,1/2+y,z
1/2-x,1/2-y,1/2+z
1/2+x,1/2-y,-z
1/2-x,1/2+y,1/2-z
1/2-x,1/2-y,-z
1/2+x,1/2+y,1/2-z
1/2-x,1/2+y,z
1/2+x,1/2-y,1/2+z
loop_
_atom_site_type_symbol
_atom_site_label
_atom_site_fract_x
_atom_site_fract_y
_atom_site_fract_z
Si Si1 0.858805 0.136185 0.250000
Si Si2 0.578206 0.771749 0.075031
Si Si3 0.222669 0.220330 0.750000
Si Si4 0.840209 0.612444 0.075004
O O1 0.902050 0.154109 0.340243
O O2 0.802593 0.288501 0.250000
O O3 0.815308 0.962055 0.250000
O O4 0.500000 0.765867 0.056638
O O5 0.602489 0.970062 0.100491
O O6 0.622160 0.741094 0.984685
O O7 0.199948 0.318748 0.658985
O O8 0.798308 0.500000 0.000000
#
# Coordination Sequence:
#
# PCOD9475917 Si02
#       4
#     8  16   8  16
#     4  12  25  37  64  84 135 165 199 266 297 374
#     4   9  19  41  64  92 120 162 203 244 312 361
#     4  12  24  43  56  98 122 161 219 244 325 358
#     4   8  20  39  70  89 119 162 201 261 301 368
#
# _framework density 21.224084999999999
#
# number of rings (size 3 to 8) (size 9 to 14) (size 15 to 20)
#    2.000    0.000    0.000    5.500    0.000    2.667 
#    0.000   10.833    0.000    0.000    0.000    0.000 
#    0.000    0.000    0.000    0.000    0.000    0.000 
#
# Total GULP energy -133747.438667 kJ/mol
# GULP energy per Si atom -5572.809944 kJ/mol
# Density = 2.117578 g / cm^3
# Si number density = 21.224085 Si / 1000 Ang^3
#
#
#
# Elastic Constant Matrix: (Units=GPa)
#
#
# Indices 1 2 3 4 5 6 
#
# 1 66.7596 -11.8267 45.5581 0.0000 0.0000 0.0000
# 2 -11.8267 40.0061 21.4591 0.0000 0.0000 0.0000
# 3 45.5581 21.4591 142.3282 0.0000 0.0000 0.0000
# 4 0.0000 0.0000 0.0000 12.5210 0.0000 0.0000
# 5 0.0000 0.0000 0.0000 0.0000 13.6371 0.0000
# 6 0.0000 0.0000 0.0000 0.0000 0.0000 18.0390
#
#
#
# Elastic Compliance Matrix: (Units=1/GPa)
#
#
# Indices 1 2 3 4 5 6 
#
# 1 0.023435 0.011915 -0.009298 0.000000 0.000000 0.000000
# 2 0.011915 0.033254 -0.008828 0.000000 0.000000 0.000000
# 3 -0.009298 -0.008828 0.011333 0.000000 0.000000 0.000000
# 4 0.000000 0.000000 0.000000 0.079866 0.000000 0.000000
# 5 0.000000 0.000000 0.000000 0.000000 0.073329 0.000000
# 6 0.000000 0.000000 0.000000 0.000000 0.000000 0.055435
#
#
# Mechanical properties :
#
#
# Convention : Reuss Voigt Hill
#
# Bulk Modulus (GPa) = 17.98520 39.94164 28.96342
# Shear Modulus (GPa) = 16.25452 21.76632 19.01042
#
# Velocity S-wave (km/s) = 2.77041 3.20589 2.99607
# Velocity P-wave (km/s) = 4.32734 5.70645 5.06406
#
# Compressibility (1/GPa) = 0.05560127
#
# Stress axis : x y z
#
# Youngs Moduli (GPa) = 42.67130 30.07180 88.23683
#
# Poissons Ratio (x) = -0.35831 0.82041
# Poissons Ratio (y) = -0.50844 0.77893
# Poissons Ratio (z) = 0.39675 0.26546
#
# Static dielectric constant tensor:
#      x y z
#    x 1.695360 0.000000 0.000000 
#    y 0.000000 1.851120 0.000000 
#    z 0.000000 0.000000 2.006220 
# 
# From -- ./inp_files/34643.got.cif
#   From: 2010.05.17/outbox.cif.g08.bks.cpg/sg63_18_cif.got.tgz:34643.got - 2010.06.03 15:47:04.
