data_PCOD9475450
_publ_section_title
;
Structure prediction by ZEFSAII (Michael W. Deem and Ramdas Pophale) SiO2 
 PCOD9475450
Probable space group: C M C M
;
_chemical_formula_sum "Si O2"
_cell_formula_units_Z 80
_cell_length_a 21.330144
_cell_length_b 13.120355
_cell_length_c 16.111023
_cell_angle_alpha 90.000000
_cell_angle_beta 90.000000
_cell_angle_gamma 90.000000
_cell_volume 4508.815776
_symmetry_space_group_name_H-M "C M C M"
_symmetry_group_IT_number 63
_symmetry_cell_setting 'orthorhombic'
loop_
_space_group_symop_operation_xyz
x,y,z
-x,-y,1/2+z
x,-y,-z
-x,y,1/2-z
-x,-y,-z
x,y,1/2-z
-x,y,z
x,-y,1/2+z
1/2+x,1/2+y,z
1/2-x,1/2-y,1/2+z
1/2+x,1/2-y,-z
1/2-x,1/2+y,1/2-z
1/2-x,1/2-y,-z
1/2+x,1/2+y,1/2-z
1/2-x,1/2+y,z
1/2+x,1/2-y,1/2+z
loop_
_atom_site_type_symbol
_atom_site_label
_atom_site_fract_x
_atom_site_fract_y
_atom_site_fract_z
Si Si1 0.218687 0.432902 0.416959
Si Si2 0.425180 0.585714 0.750000
Si Si3 0.775584 0.636408 0.156262
Si Si4 0.574682 0.655060 0.250000
Si Si5 0.852444 0.179215 0.594833
Si Si6 0.148240 0.778974 0.588255
O O1 0.212912 0.500000 0.500000
O O2 0.208330 0.517782 0.347041
O O3 0.288314 0.386732 0.407708
O O4 0.171519 0.337993 0.416302
O O5 0.500000 0.597335 0.750000
O O6 0.409713 0.465497 0.750000
O O7 0.396134 0.635300 0.666912
O O8 0.763138 0.670766 0.250000
O O9 0.829591 0.707511 0.119391
O O10 0.712243 0.657467 0.104908
O O11 0.500000 0.666376 0.250000
O O12 0.603982 0.702337 0.333420
O O13 0.878049 0.185126 0.500849
#
# Coordination Sequence:
#
# PCOD9475450 Si02
#       6
#    16   8  16   8  16  16
#     4  11  20  33  58  96 122 151 186 225 297 369
#     4  11  26  43  61  83 109 155 209 242 282 337
#     4  11  20  33  55  92 125 152 184 229 295 355
#     4  11  26  43  59  83 113 153 201 242 286 339
#     4  11  22  37  59  87 123 152 186 243 289 340
#     4  11  22  38  59  87 124 153 188 239 290 347
#
# _framework density 17.743017999999999
#
# number of rings (size 3 to 8) (size 9 to 14) (size 15 to 20)
#    0.000    1.000    6.000    2.400    2.800    0.800 
#    0.000    2.000    0.000    3.000    0.000    0.000 
#    0.000    0.000    0.000    0.000    0.000    0.000 
#
# Total GULP energy -223328.358955 kJ/mol
# GULP energy per Si atom -5583.208974 kJ/mol
# Density = 1.770263 g / cm^3
# Si number density = 17.743018 Si / 1000 Ang^3
#
#
#
# Elastic Constant Matrix: (Units=GPa)
#
#
# Indices 1 2 3 4 5 6 
#
# 1 58.4577 43.6321 48.6291 0.0000 0.0000 0.0000
# 2 43.6321 117.0831 53.3454 0.0000 0.0000 0.0000
# 3 48.6291 53.3454 168.4503 0.0000 0.0000 0.0000
# 4 0.0000 0.0000 0.0000 31.7105 0.0000 0.0000
# 5 0.0000 0.0000 0.0000 0.0000 8.4744 0.0000
# 6 0.0000 0.0000 0.0000 0.0000 0.0000 19.0573
#
#
#
# Elastic Compliance Matrix: (Units=1/GPa)
#
#
# Indices 1 2 3 4 5 6 
#
# 1 0.027424 -0.007728 -0.005470 0.000000 0.000000 0.000000
# 2 -0.007728 0.012159 -0.001620 0.000000 0.000000 0.000000
# 3 -0.005470 -0.001620 0.008028 0.000000 0.000000 0.000000
# 4 0.000000 0.000000 0.000000 0.031535 0.000000 0.000000
# 5 0.000000 0.000000 0.000000 0.000000 0.118003 0.000000
# 6 0.000000 0.000000 0.000000 0.000000 0.000000 0.052473
#
#
# Mechanical properties :
#
#
# Convention : Reuss Voigt Hill
#
# Bulk Modulus (GPa) = 55.62581 70.57824 63.10203
# Shear Modulus (GPa) = 17.52849 25.07406 21.30127
#
# Velocity S-wave (km/s) = 3.14651 3.76331 3.46865
# Velocity P-wave (km/s) = 6.67979 7.66470 7.18913
#
# Compressibility (1/GPa) = 0.01797727
#
# Stress axis : x y z
#
# Youngs Moduli (GPa) = 36.46379 82.24571 124.55797
#
# Poissons Ratio (x) = 0.63558 0.68130
# Poissons Ratio (y) = 0.28179 0.20173
# Poissons Ratio (z) = 0.19945 0.13320
#
# Static dielectric constant tensor:
#      x y z
#    x 1.560840 0.000000 0.000000 
#    y 0.000000 1.621040 0.000000 
#    z 0.000000 0.000000 1.670040 
# 
# From -- ./inp_files/47912.got.cif
#   From: 2010.05.17/outbox.cif.g08.bks.cpg/sg63_24_cif.got.tgz:47912.got - 2010.06.03 15:47:04.
