data_PCOD9475027
_publ_section_title
;
Structure prediction by ZEFSAII (Michael W. Deem and Ramdas Pophale) SiO2 
 PCOD9475027
Probable space group: C M C M
;
_chemical_formula_sum "Si O2"
_cell_formula_units_Z 80
_cell_length_a 17.321572
_cell_length_b 26.661572
_cell_length_c 9.341073
_cell_angle_alpha 90.000000
_cell_angle_beta 90.000000
_cell_angle_gamma 90.000000
_cell_volume 4313.897500
_symmetry_space_group_name_H-M "C M C M"
_symmetry_group_IT_number 63
_symmetry_cell_setting 'orthorhombic'
loop_
_space_group_symop_operation_xyz
x,y,z
-x,-y,1/2+z
x,-y,-z
-x,y,1/2-z
-x,-y,-z
x,y,1/2-z
-x,y,z
x,-y,1/2+z
1/2+x,1/2+y,z
1/2-x,1/2-y,1/2+z
1/2+x,1/2-y,-z
1/2-x,1/2+y,1/2-z
1/2-x,1/2-y,-z
1/2+x,1/2+y,1/2-z
1/2-x,1/2+y,z
1/2+x,1/2-y,1/2+z
loop_
_atom_site_type_symbol
_atom_site_label
_atom_site_fract_x
_atom_site_fract_y
_atom_site_fract_z
Si Si1 0.591481 0.463115 0.750000
Si Si2 0.723447 0.799260 0.583023
Si Si3 0.647508 0.947607 0.575589
Si Si4 0.407128 0.583190 0.750000
Si Si5 0.412825 0.145864 0.918777
Si Si6 0.313512 0.600573 0.473373
O O1 0.500000 0.456679 0.750000
O O2 0.606357 0.522678 0.750000
O O3 0.630301 0.434050 0.880180
O O4 0.706342 0.789549 0.750000
O O5 0.750000 0.750000 0.500000
O O6 0.649082 0.819390 0.497329
O O7 0.786588 0.844470 0.578624
O O8 0.645305 0.949027 0.750000
O O9 0.592392 0.905821 0.507263
O O10 0.733144 0.930156 0.525503
O O11 0.630357 0.000000 0.500000
O O12 0.500000 0.591148 0.750000
O O13 0.361354 0.605864 0.617233
O O14 0.393256 0.138327 0.750000
O O15 0.500000 0.165629 0.925429
#
# Coordination Sequence:
#
# PCOD9475027 Si02
#       6
#     8  16  16   8  16  16
#     4  11  20  38  59  84 127 171 208 253 308 366
#     4  11  24  43  70  94 119 160 209 261 318 371
#     4  11  22  35  58  89 121 164 209 251 302 362
#     4  11  24  36  57  90 127 173 212 249 308 372
#     4  10  22  41  64  92 125 159 198 247 307 370
#     4  11  22  38  59  89 122 160 208 258 304 369
#
# _framework density 18.544716000000001
#
# number of rings (size 3 to 8) (size 9 to 14) (size 15 to 20)
#    0.000    1.200    2.000    5.400    8.400    3.600 
#    0.000    2.000    0.000    0.000    0.000    0.000 
#    0.000    0.000    0.000    0.000    0.000    0.000 
#
# Total GULP energy -223164.152870 kJ/mol
# GULP energy per Si atom -5579.103822 kJ/mol
# Density = 1.850251 g / cm^3
# Si number density = 18.544716 Si / 1000 Ang^3
#
#
#
# Elastic Constant Matrix: (Units=GPa)
#
#
# Indices 1 2 3 4 5 6 
#
# 1 98.3890 40.7103 52.9390 0.0000 0.0000 0.0000
# 2 40.7103 110.8387 30.5809 0.0000 0.0000 0.0000
# 3 52.9390 30.5809 154.3033 0.0000 0.0000 0.0000
# 4 0.0000 0.0000 0.0000 33.4707 0.0000 0.0000
# 5 0.0000 0.0000 0.0000 0.0000 31.6443 0.0000
# 6 0.0000 0.0000 0.0000 0.0000 0.0000 6.9070
#
#
#
# Elastic Compliance Matrix: (Units=1/GPa)
#
#
# Indices 1 2 3 4 5 6 
#
# 1 0.013984 -0.004033 -0.003998 0.000000 0.000000 0.000000
# 2 -0.004033 0.010707 -0.000738 0.000000 0.000000 0.000000
# 3 -0.003998 -0.000738 0.007999 0.000000 0.000000 0.000000
# 4 0.000000 0.000000 0.000000 0.029877 0.000000 0.000000
# 5 0.000000 0.000000 0.000000 0.000000 0.031601 0.000000
# 6 0.000000 0.000000 0.000000 0.000000 0.000000 0.144781
#
#
# Mechanical properties :
#
#
# Convention : Reuss Voigt Hill
#
# Bulk Modulus (GPa) = 66.00485 67.99903 67.00194
# Shear Modulus (GPa) = 19.11761 30.35776 24.73768
#
# Velocity S-wave (km/s) = 3.21423 4.05038 3.65629
# Velocity P-wave (km/s) = 7.03169 7.65645 7.35071
#
# Compressibility (1/GPa) = 0.01515040
#
# Stress axis : x y z
#
# Youngs Moduli (GPa) = 71.51126 93.39572 125.01809
#
# Poissons Ratio (x) = 0.37666 0.49986
# Poissons Ratio (y) = 0.28840 0.09231
# Poissons Ratio (z) = 0.28593 0.06896
#
# Static dielectric constant tensor:
#      x y z
#    x 1.633520 0.000000 0.000000 
#    y 0.000000 1.638520 0.000000 
#    z 0.000000 0.000000 1.594760 
# 
# From -- ./inp_files/6489.got.cif
#   From: 2010.05.17/outbox.cif.g08.bks.cpg/sg63_4_cif.got.tgz:6489.got - 2010.06.03 15:47:04.
