data_PCOD9475663
_publ_section_title
;
Structure prediction by ZEFSAII (Michael W. Deem and Ramdas Pophale) SiO2 
 PCOD9475663
Probable space group: C M C M
;
_chemical_formula_sum "Si O2"
_cell_formula_units_Z 88
_cell_length_a 25.612512
_cell_length_b 8.558771
_cell_length_c 20.180621
_cell_angle_alpha 90.000000
_cell_angle_beta 90.000000
_cell_angle_gamma 90.000000
_cell_volume 4423.826722
_symmetry_space_group_name_H-M "C M C M"
_symmetry_group_IT_number 63
_symmetry_cell_setting 'orthorhombic'
loop_
_space_group_symop_operation_xyz
x,y,z
-x,-y,1/2+z
x,-y,-z
-x,y,1/2-z
-x,-y,-z
x,y,1/2-z
-x,y,z
x,-y,1/2+z
1/2+x,1/2+y,z
1/2-x,1/2-y,1/2+z
1/2+x,1/2-y,-z
1/2-x,1/2+y,1/2-z
1/2-x,1/2-y,-z
1/2+x,1/2+y,1/2-z
1/2-x,1/2+y,z
1/2+x,1/2-y,1/2+z
loop_
_atom_site_type_symbol
_atom_site_label
_atom_site_fract_x
_atom_site_fract_y
_atom_site_fract_z
Si Si1 0.195177 0.945481 0.424956
Si Si2 0.193844 0.431445 0.575710
Si Si3 0.500000 0.686109 0.013616
Si Si4 0.000000 0.616353 0.377409
Si Si5 0.409755 0.372844 0.886787
Si Si6 0.603147 0.049468 0.827621
Si Si7 0.000000 0.060433 0.677454
O O1 0.192253 0.757492 0.424147
O O2 0.199008 0.000000 0.500000
O O3 0.250332 0.006742 0.397035
O O4 0.143731 0.036431 0.401026
O O5 0.186162 0.500000 0.500000
O O6 0.150076 0.490937 0.626107
O O7 0.444984 0.704583 0.053743
O O8 0.500000 0.500000 0.000000
O O9 0.500000 0.798459 0.949486
O O10 0.949066 0.516990 0.361599
O O11 0.000000 0.755794 0.324837
O O12 0.399303 0.235949 0.835066
O O13 0.449174 0.500470 0.859069
O O14 0.606872 0.004865 0.750000
O O15 0.000000 0.992158 0.750000
#
# Coordination Sequence:
#
# PCOD9475663 Si02
#       7
#    16  16   8   8  16  16   8
#     4  11  22  41  69 101 135 169 221 274 337 400
#     4  11  24  43  70 102 134 176 219 275 338 395
#     4  11  23  39  64 108 132 168 216 281 327 401
#     4  12  25  41  66  94 138 173 219 272 340 393
#     4  11  23  40  67  93 135 176 220 280 329 388
#     4  12  27  45  64  95 134 177 228 278 329 397
#     4  11  22  39  60  90 128 181 224 261 332 401
#
# _framework density 19.89228
#
# number of rings (size 3 to 8) (size 9 to 14) (size 15 to 20)
#    0.000    0.727    1.818    8.455    5.091    0.727 
#    0.000    5.455    0.000    0.000    0.000    0.000 
#    0.000    0.000    0.000    0.000    0.000    0.000 
#
# Total GULP energy -245584.598278 kJ/mol
# GULP energy per Si atom -5581.468143 kJ/mol
# Density = 1.984700 g / cm^3
# Si number density = 19.892280 Si / 1000 Ang^3
#
#
#
# Elastic Constant Matrix: (Units=GPa)
#
#
# Indices 1 2 3 4 5 6 
#
# 1 214.0160 61.8259 69.6545 0.0000 0.0000 0.0000
# 2 61.8259 131.3901 28.4152 0.0000 0.0000 0.0000
# 3 69.6545 28.4152 104.7773 0.0000 0.0000 0.0000
# 4 0.0000 0.0000 0.0000 23.1633 0.0000 0.0000
# 5 0.0000 0.0000 0.0000 0.0000 -89.2914 0.0000
# 6 0.0000 0.0000 0.0000 0.0000 0.0000 20.1124
#
#
#
# Elastic Compliance Matrix: (Units=1/GPa)
#
#
# Indices 1 2 3 4 5 6 
#
# 1 0.006544 -0.002272 -0.003734 0.000000 0.000000 0.000000
# 2 -0.002272 0.008874 -0.000896 0.000000 0.000000 0.000000
# 3 -0.003734 -0.000896 0.012270 0.000000 0.000000 0.000000
# 4 0.000000 0.000000 0.000000 0.043172 0.000000 0.000000
# 5 0.000000 0.000000 0.000000 0.000000 -0.011199 0.000000
# 6 0.000000 0.000000 0.000000 0.000000 0.000000 0.049721
#
#
# Mechanical properties :
#
#
# Convention : Reuss Voigt Hill
#
# Bulk Modulus (GPa) = 72.03188 85.55274 78.79231
# Shear Modulus (GPa) = 39.11954 10.14938 24.63446
#
# Velocity S-wave (km/s) = 4.43941 2.26125 3.52290
# Velocity P-wave (km/s) = 7.90996 7.06534 7.49955
#
# Compressibility (1/GPa) = 0.01388274
#
# Stress axis : x y z
#
# Youngs Moduli (GPa) = 152.80581 112.69190 81.50144
#
# Poissons Ratio (x) = 0.25601 0.30436
# Poissons Ratio (y) = 0.34714 0.07305
# Poissons Ratio (z) = 0.57064 0.10100
#
# Static dielectric constant tensor:
#      x y z
#    x 1.698160 0.000000 0.000000 
#    y 0.000000 1.877320 0.000000 
#    z 0.000000 0.000000 1.719730 
# 
# From -- ./inp_files/57379.got.cif
#   From: 2010.05.17/outbox.cif.g08.bks.cpg/sg63_29_cif.got.tgz:57379.got - 2010.06.03 15:47:04.
