data_PCOD9475979
_publ_section_title
;
Structure prediction by ZEFSAII (Michael W. Deem and Ramdas Pophale) SiO2 
 PCOD9475979
Probable space group: C M C M
;
_chemical_formula_sum "Si O2"
_cell_formula_units_Z 80
_cell_length_a 14.621797
_cell_length_b 35.570409
_cell_length_c 7.442065
_cell_angle_alpha 90.000000
_cell_angle_beta 90.000000
_cell_angle_gamma 90.000000
_cell_volume 3870.642562
_symmetry_space_group_name_H-M "C M C M"
_symmetry_group_IT_number 63
_symmetry_cell_setting 'orthorhombic'
loop_
_space_group_symop_operation_xyz
x,y,z
-x,-y,1/2+z
x,-y,-z
-x,y,1/2-z
-x,-y,-z
x,y,1/2-z
-x,y,z
x,-y,1/2+z
1/2+x,1/2+y,z
1/2-x,1/2-y,1/2+z
1/2+x,1/2-y,-z
1/2-x,1/2+y,1/2-z
1/2-x,1/2-y,-z
1/2+x,1/2+y,1/2-z
1/2-x,1/2+y,z
1/2+x,1/2-y,1/2+z
loop_
_atom_site_type_symbol
_atom_site_label
_atom_site_fract_x
_atom_site_fract_y
_atom_site_fract_z
Si Si1 0.109167 0.231541 0.035592
Si Si2 0.893144 0.312735 0.031060
Si Si3 0.104166 0.457495 0.464838
Si Si4 0.897516 0.148422 0.959515
Si Si5 0.782212 0.386240 0.029276
O O1 0.118960 0.230377 0.250000
O O2 0.145132 0.271972 0.970322
O O3 0.000000 0.232517 0.994710
O O4 0.140817 0.191215 0.966656
O O5 0.891160 0.312004 0.250000
O O6 0.839970 0.349653 0.973008
O O7 0.000000 0.315472 0.980060
O O8 0.135723 0.500000 0.500000
O O9 0.099186 0.453135 0.250000
O O10 0.169583 0.424443 0.531125
O O11 0.000000 0.453844 0.534665
O O12 0.906561 0.139414 0.750000
O O13 0.821153 0.120687 0.034014
O O14 0.000000 0.147743 0.038772
O O15 0.781731 0.386268 0.250000
#
# Coordination Sequence:
#
# PCOD9475979 Si02
#       5
#    16  16  16  16  16
#     4   8  14  25  40  57  79 109 143 177 210 240
#     4   8  13  22  38  60  83 106 137 176 209 239
#     4   9  17  30  49  70  89 108 130 160 202 251
#     4   9  17  28  41  58  82 112 144 175 204 235
#     4   9  16  26  42  63  84 108 139 171 202 241
#
# _framework density 20.668403000000001
#
# number of rings (size 3 to 8) (size 9 to 14) (size 15 to 20)
#    0.000    3.400    0.000    1.800    0.000    3.200 
#    0.000    1.000    0.000    1.800    0.000    5.600 
#    0.000    0.000    0.000    0.000    0.000    0.000 
#
# Total GULP energy -223078.680979 kJ/mol
# GULP energy per Si atom -5576.967024 kJ/mol
# Density = 2.062136 g / cm^3
# Si number density = 20.668403 Si / 1000 Ang^3
#
#
#
# Elastic Constant Matrix: (Units=GPa)
#
#
# Indices 1 2 3 4 5 6 
#
# 1 103.8599 101.7284 1.0201 0.0000 0.0000 0.0000
# 2 101.7284 173.9590 7.6883 0.0000 0.0000 0.0000
# 3 1.0201 7.6883 54.6958 0.0000 0.0000 0.0000
# 4 0.0000 0.0000 0.0000 16.2002 0.0000 0.0000
# 5 0.0000 0.0000 0.0000 0.0000 -2.9127 0.0000
# 6 0.0000 0.0000 0.0000 0.0000 0.0000 31.8487
#
#
#
# Elastic Compliance Matrix: (Units=1/GPa)
#
#
# Indices 1 2 3 4 5 6 
#
# 1 0.022651 -0.013310 0.001448 0.000000 0.000000 0.000000
# 2 -0.013310 0.013605 -0.001664 0.000000 0.000000 0.000000
# 3 0.001448 -0.001664 0.018490 0.000000 0.000000 0.000000
# 4 0.000000 0.000000 0.000000 0.061728 0.000000 0.000000
# 5 0.000000 0.000000 0.000000 0.000000 -0.343329 0.000000
# 6 0.000000 0.000000 0.000000 0.000000 0.000000 0.031398
#
#
# Mechanical properties :
#
#
# Convention : Reuss Voigt Hill
#
# Bulk Modulus (GPa) = 36.10776 61.48759 48.79767
# Shear Modulus (GPa) = -31.41209 23.83245 -3.78982
#
# Velocity S-wave (km/s) = -3.90271 3.39940 -1.35559
# Velocity P-wave (km/s) = 1.67338 6.72473 4.60553
#
# Compressibility (1/GPa) = 0.02769488
#
# Stress axis : x y z
#
# Youngs Moduli (GPa) = 44.14854 73.50016 54.08372
#
# Poissons Ratio (x) = 0.97828 -0.07834
# Poissons Ratio (y) = 0.58761 0.09001
# Poissons Ratio (z) = -0.06395 0.12232
#
# Static dielectric constant tensor:
#      x y z
#    x 1.774180 0.000000 0.000000 
#    y 0.000000 1.719940 0.000000 
#    z 0.000000 0.000000 1.790840 
# 
# From -- ./inp_files/19370.got.cif
#   From: 2010.05.17/outbox.cif.g08.bks.cpg/sg63_10_cif.got.tgz:19370.got - 2010.06.03 15:47:04.
