data_PCOD9475122
_publ_section_title
;
Structure prediction by ZEFSAII (Michael W. Deem and Ramdas Pophale) SiO2 
 PCOD9475122
Probable space group: C M C M
;
_chemical_formula_sum "Si O2"
_cell_formula_units_Z 72
_cell_length_a 23.838817
_cell_length_b 5.120517
_cell_length_c 25.577157
_cell_angle_alpha 90.000000
_cell_angle_beta 90.000000
_cell_angle_gamma 90.000000
_cell_volume 3122.128555
_symmetry_space_group_name_H-M "C M C M"
_symmetry_group_IT_number 63
_symmetry_cell_setting 'orthorhombic'
loop_
_space_group_symop_operation_xyz
x,y,z
-x,-y,1/2+z
x,-y,-z
-x,y,1/2-z
-x,-y,-z
x,y,1/2-z
-x,y,z
x,-y,1/2+z
1/2+x,1/2+y,z
1/2-x,1/2-y,1/2+z
1/2+x,1/2-y,-z
1/2-x,1/2+y,1/2-z
1/2-x,1/2-y,-z
1/2+x,1/2+y,1/2-z
1/2-x,1/2+y,z
1/2+x,1/2-y,1/2+z
loop_
_atom_site_type_symbol
_atom_site_label
_atom_site_fract_x
_atom_site_fract_y
_atom_site_fract_z
Si Si1 0.874308 0.834021 0.446038
Si Si2 0.291090 0.000000 0.500000
Si Si3 0.711482 0.700739 0.250000
Si Si4 0.435673 0.080854 0.189040
Si Si5 0.871624 0.100438 0.342522
Si Si6 0.000000 0.250122 0.537389
O O1 0.835164 0.581668 0.454369
O O2 0.851557 0.011222 0.399301
O O3 0.939513 0.762247 0.434302
O O4 0.873376 0.000000 0.500000
O O5 0.250000 0.750000 0.500000
O O6 0.752996 0.939844 0.250000
O O7 0.674457 0.702177 0.197740
O O8 0.431307 0.998461 0.250000
O O9 0.500000 0.147790 0.178616
O O10 0.416277 0.834501 0.155028
O O11 0.398510 0.337162 0.181202
O O12 0.000000 0.500000 0.500000
O O13 0.000000 0.000000 0.500000
#
# Coordination Sequence:
#
# PCOD9475122 Si02
#       6
#    16   8   8  16  16   8
#     4  11  27  48  73 110 149 198 246 303 369 445
#     4  12  26  47  72  97 140 190 252 308 350 418
#     4  12  26  50  73 102 139 184 246 304 368 428
#     4  11  23  43  71 107 146 184 230 295 369 446
#     4  12  26  45  75 105 146 185 243 296 368 439
#     4  10  22  42  70  99 146 189 236 290 357 432
#
# _framework density 23.06119
#
# number of rings (size 3 to 8) (size 9 to 14) (size 15 to 20)
#    0.000    0.667    4.444    2.000    6.222    3.556 
#    0.000    0.000    0.000    0.000    0.000    0.000 
#    0.000    0.000    0.000    0.000    0.000    0.000 
#
# Total GULP energy -201465.436789 kJ/mol
# GULP energy per Si atom -5596.262133 kJ/mol
# Density = 2.300870 g / cm^3
# Si number density = 23.061190 Si / 1000 Ang^3
#
#
#
# Elastic Constant Matrix: (Units=GPa)
#
#
# Indices 1 2 3 4 5 6 
#
# 1 111.7306 16.9683 22.3665 0.0000 0.0000 0.0000
# 2 16.9683 121.0236 3.3241 0.0000 0.0000 0.0000
# 3 22.3665 3.3241 101.3663 0.0000 0.0000 0.0000
# 4 0.0000 0.0000 0.0000 40.7817 0.0000 0.0000
# 5 0.0000 0.0000 0.0000 0.0000 10.8876 0.0000
# 6 0.0000 0.0000 0.0000 0.0000 0.0000 44.9479
#
#
#
# Elastic Compliance Matrix: (Units=1/GPa)
#
#
# Indices 1 2 3 4 5 6 
#
# 1 0.009559 -0.001283 -0.002067 0.000000 0.000000 0.000000
# 2 -0.001283 0.008443 0.000006 0.000000 0.000000 0.000000
# 3 -0.002067 0.000006 0.010321 0.000000 0.000000 0.000000
# 4 0.000000 0.000000 0.000000 0.024521 0.000000 0.000000
# 5 0.000000 0.000000 0.000000 0.000000 0.091847 0.000000
# 6 0.000000 0.000000 0.000000 0.000000 0.000000 0.022248
#
#
# Mechanical properties :
#
#
# Convention : Reuss Voigt Hill
#
# Bulk Modulus (GPa) = 46.22313 46.60427 46.41370
# Shear Modulus (GPa) = 27.64899 38.75424 33.20161
#
# Velocity S-wave (km/s) = 3.46633 4.10383 3.79848
# Velocity P-wave (km/s) = 6.00897 6.53514 6.27757
#
# Compressibility (1/GPa) = 0.02163419
#
# Stress axis : x y z
#
# Youngs Moduli (GPa) = 104.61562 118.44663 96.88885
#
# Poissons Ratio (x) = 0.15202 0.20028
# Poissons Ratio (y) = 0.13427 -0.00061
# Poissons Ratio (z) = 0.21625 -0.00075
#
# Static dielectric constant tensor:
#      x y z
#    x 1.878070 0.000000 0.000000 
#    y 0.000000 1.804730 0.000000 
#    z 0.000000 0.000000 1.905220 
# 
# From -- ./inp_files/70590.got.cif
#   From: 2010.05.17/outbox.cif.g08.bks.cpg/sg63_36_cif.got.tgz:70590.got - 2010.06.03 15:47:04.
