data_PCOD9475065
_publ_section_title
;
Structure prediction by ZEFSAII (Michael W. Deem and Ramdas Pophale) SiO2 
 PCOD9475065
Probable space group: C M C M
;
_chemical_formula_sum "Si O2"
_cell_formula_units_Z 84
_cell_length_a 13.213389
_cell_length_b 30.090185
_cell_length_c 11.901556
_cell_angle_alpha 90.000000
_cell_angle_beta 90.000000
_cell_angle_gamma 90.000000
_cell_volume 4731.979157
_symmetry_space_group_name_H-M "C M C M"
_symmetry_group_IT_number 63
_symmetry_cell_setting 'orthorhombic'
loop_
_space_group_symop_operation_xyz
x,y,z
-x,-y,1/2+z
x,-y,-z
-x,y,1/2-z
-x,-y,-z
x,y,1/2-z
-x,y,z
x,-y,1/2+z
1/2+x,1/2+y,z
1/2-x,1/2-y,1/2+z
1/2+x,1/2-y,-z
1/2-x,1/2+y,1/2-z
1/2-x,1/2-y,-z
1/2+x,1/2+y,1/2-z
1/2-x,1/2+y,z
1/2+x,1/2-y,1/2+z
loop_
_atom_site_type_symbol
_atom_site_label
_atom_site_fract_x
_atom_site_fract_y
_atom_site_fract_z
Si Si1 0.720651 0.836968 0.750000
Si Si2 0.500000 0.752911 0.510296
Si Si3 0.000000 0.650655 0.614501
Si Si4 0.798678 0.797070 0.518896
Si Si5 0.500000 0.801797 0.750000
Si Si6 0.774570 0.380592 0.115437
Si Si7 0.116120 0.947501 0.503009
Si Si8 0.611348 0.408275 0.750000
O O1 0.759597 0.813995 0.637536
O O2 0.599843 0.832547 0.750000
O O3 0.782965 0.882254 0.750000
O O4 0.500000 0.799675 0.440279
O O5 0.411577 0.718890 0.483214
O O6 0.500000 0.770744 0.639012
O O7 0.104908 0.624637 0.584282
O O8 0.000000 0.655917 0.750000
O O9 0.750000 0.750000 0.500000
O O10 0.772087 0.833948 0.426925
O O11 0.769193 0.385306 0.250000
O O12 0.703984 0.418471 0.057689
O O13 0.112682 0.934740 0.634081
O O14 0.000000 0.939299 0.458426
O O15 0.136403 0.000000 0.500000
O O16 0.500000 0.383649 0.750000
#
# Coordination Sequence:
#
# PCOD9475065 Si02
#       8
#     8   8   8  16   4  16  16   8
#     4  12  24  40  62  87 121 163 209 254 303 354
#     4  12  26  38  58  85 123 168 212 253 302 349
#     4  10  22  42  61  84 123 167 209 250 296 358
#     4  12  25  39  59  87 125 167 212 250 299 354
#     4  12  24  40  56  84 126 162 204 256 304 352
#     4  11  24  41  63  91 124 163 207 252 304 363
#     4  10  23  44  68  95 124 157 196 248 313 372
#     4  10  22  42  64  92 124 155 201 251 302 365
#
# _framework density 17.751556999999998
#
# number of rings (size 3 to 8) (size 9 to 14) (size 15 to 20)
#    0.000    0.952    5.714    0.000    8.000    0.381 
#    0.000    0.476    0.000    0.000    0.000    0.000 
#    0.000    0.000    0.000    0.000    0.000    0.000 
#
# Total GULP energy -233847.813307 kJ/mol
# GULP energy per Si atom -5567.805079 kJ/mol
# Density = 1.771115 g / cm^3
# Si number density = 17.751557 Si / 1000 Ang^3
#
#
#
# Elastic Constant Matrix: (Units=GPa)
#
#
# Indices 1 2 3 4 5 6 
#
# 1 208.9399 77.1192 47.6058 0.0000 0.0000 0.0000
# 2 77.1192 108.4252 36.1695 0.0000 0.0000 0.0000
# 3 47.6058 36.1695 89.0923 0.0000 0.0000 0.0000
# 4 0.0000 0.0000 0.0000 16.8950 0.0000 0.0000
# 5 0.0000 0.0000 0.0000 0.0000 28.8495 0.0000
# 6 0.0000 0.0000 0.0000 0.0000 0.0000 29.2226
#
#
#
# Elastic Compliance Matrix: (Units=1/GPa)
#
#
# Indices 1 2 3 4 5 6 
#
# 1 0.006763 -0.004169 -0.001921 0.000000 0.000000 0.000000
# 2 -0.004169 0.013238 -0.003147 0.000000 0.000000 0.000000
# 3 -0.001921 -0.003147 0.013528 0.000000 0.000000 0.000000
# 4 0.000000 0.000000 0.000000 0.059189 0.000000 0.000000
# 5 0.000000 0.000000 0.000000 0.000000 0.034663 0.000000
# 6 0.000000 0.000000 0.000000 0.000000 0.000000 0.034220
#
#
# Mechanical properties :
#
#
# Convention : Reuss Voigt Hill
#
# Bulk Modulus (GPa) = 66.42132 80.91626 73.66879
# Shear Modulus (GPa) = 27.01351 31.36427 29.18889
#
# Velocity S-wave (km/s) = 3.90520 4.20795 4.05940
# Velocity P-wave (km/s) = 7.60477 8.32410 7.97255
#
# Compressibility (1/GPa) = 0.01505541
#
# Stress axis : x y z
#
# Youngs Moduli (GPa) = 147.87251 75.54003 73.91972
#
# Poissons Ratio (x) = 0.31494 0.14200
# Poissons Ratio (y) = 0.61651 0.23259
# Poissons Ratio (z) = 0.28405 0.23769
#
# Static dielectric constant tensor:
#      x y z
#    x 1.567550 0.000000 0.000000 
#    y 0.000000 1.553320 0.000000 
#    z 0.000000 0.000000 1.587580 
# 
# From -- ./inp_files/18080.got.cif
#   From: 2010.05.17/outbox.cif.g08.bks.cpg/sg63_10_cif.got.tgz:18080.got - 2010.06.03 15:47:04.
