data_PCOD9475771
_publ_section_title
;
Structure prediction by ZEFSAII (Michael W. Deem and Ramdas Pophale) SiO2 
 PCOD9475771
Probable space group: C M C M
;
_chemical_formula_sum "Si O2"
_cell_formula_units_Z 52
_cell_length_a 18.179972
_cell_length_b 15.906010
_cell_length_c 7.479564
_cell_angle_alpha 90.000000
_cell_angle_beta 90.000000
_cell_angle_gamma 90.000000
_cell_volume 2162.871628
_symmetry_space_group_name_H-M "C M C M"
_symmetry_group_IT_number 63
_symmetry_cell_setting 'orthorhombic'
loop_
_space_group_symop_operation_xyz
x,y,z
-x,-y,1/2+z
x,-y,-z
-x,y,1/2-z
-x,-y,-z
x,y,1/2-z
-x,y,z
x,-y,1/2+z
1/2+x,1/2+y,z
1/2-x,1/2-y,1/2+z
1/2+x,1/2-y,-z
1/2-x,1/2+y,1/2-z
1/2-x,1/2-y,-z
1/2+x,1/2+y,1/2-z
1/2-x,1/2+y,z
1/2+x,1/2-y,1/2+z
loop_
_atom_site_type_symbol
_atom_site_label
_atom_site_fract_x
_atom_site_fract_y
_atom_site_fract_z
Si Si1 0.736459 0.347027 0.962103
Si Si2 0.500000 0.166198 0.250000
Si Si3 0.578259 0.599490 0.036034
Si Si4 0.894949 0.596219 0.547354
O O1 0.735297 0.363017 0.750000
O O2 0.655698 0.368409 0.035407
O O3 0.750000 0.250000 0.000000
O O4 0.806737 0.395860 0.035798
O O5 0.435642 0.155510 0.406695
O O6 0.577956 0.613402 0.250000
O O7 0.500000 0.634547 0.964804
O O8 0.577399 0.500000 0.000000
O O9 0.915107 0.500000 0.500000
O O10 0.916248 0.615363 0.750000
#
# Coordination Sequence:
#
# PCOD9475771 Si02
#       4
#    16   4  16  16
#     4  11  23  42  61  91 132 174 217 265 327 393
#     4  12  24  44  66  98 134 162 228 262 330 382
#     4   9  19  37  64  92 121 157 208 266 319 375
#     4  12  24  41  68  97 131 173 216 272 324 389
#
# _framework density 24.042111999999999
#
# number of rings (size 3 to 8) (size 9 to 14) (size 15 to 20)
#    0.000    1.231    3.077    2.769    0.000    4.923 
#    2.769    0.000    0.000    0.000    0.000    0.000 
#    0.000    0.000    0.000    0.000    0.000    0.000 
#
# Total GULP energy -144994.149439 kJ/mol
# GULP energy per Si atom -5576.698055 kJ/mol
# Density = 2.398739 g / cm^3
# Si number density = 24.042112 Si / 1000 Ang^3
#
#
#
# Elastic Constant Matrix: (Units=GPa)
#
#
# Indices 1 2 3 4 5 6 
#
# 1 277.6264 36.3737 37.6237 0.0000 0.0000 0.0000
# 2 36.3737 36.3882 -20.6763 0.0000 0.0000 0.0000
# 3 37.6237 -20.6763 183.1006 0.0000 0.0000 0.0000
# 4 0.0000 0.0000 0.0000 14.2628 0.0000 0.0000
# 5 0.0000 0.0000 0.0000 0.0000 6.0343 0.0000
# 6 0.0000 0.0000 0.0000 0.0000 0.0000 27.6680
#
#
#
# Elastic Compliance Matrix: (Units=1/GPa)
#
#
# Indices 1 2 3 4 5 6 
#
# 1 0.004516 -0.005387 -0.001536 0.000000 0.000000 0.000000
# 2 -0.005387 0.035792 0.005149 0.000000 0.000000 0.000000
# 3 -0.001536 0.005149 0.006359 0.000000 0.000000 0.000000
# 4 0.000000 0.000000 0.000000 0.070113 0.000000 0.000000
# 5 0.000000 0.000000 0.000000 0.000000 0.165719 0.000000
# 6 0.000000 0.000000 0.000000 0.000000 0.000000 0.036143
#
#
# Mechanical properties :
#
#
# Convention : Reuss Voigt Hill
#
# Bulk Modulus (GPa) = 23.19263 67.08415 45.13839
# Shear Modulus (GPa) = 14.85608 39.17929 27.01769
#
# Velocity S-wave (km/s) = 2.48849 4.04122 3.35590
# Velocity P-wave (km/s) = 4.23372 7.05256 5.81649
#
# Compressibility (1/GPa) = 0.04311714
#
# Stress axis : x y z
#
# Youngs Moduli (GPa) = 221.43697 27.93923 157.26825
#
# Poissons Ratio (x) = 0.15051 0.24161
# Poissons Ratio (y) = 1.19290 -0.80973
# Poissons Ratio (z) = 0.34019 -0.14385
#
# Static dielectric constant tensor:
#      x y z
#    x 1.968490 0.000000 0.000000 
#    y 0.000000 1.904580 0.000000 
#    z 0.000000 0.000000 1.862970 
# 
# From -- ./inp_files/3908.got.cif
#   From: 2010.05.17/outbox.cif.g08.bks.cpg/sg63_2_cif.got.tgz:3908.got - 2010.06.03 15:47:04.
