data_PCOD9475436
_publ_section_title
;
Structure prediction by ZEFSAII (Michael W. Deem and Ramdas Pophale) SiO2 
 PCOD9475436
Probable space group: C M C M
;
_chemical_formula_sum "Si O2"
_cell_formula_units_Z 80
_cell_length_a 25.724251
_cell_length_b 20.928077
_cell_length_c 8.692454
_cell_angle_alpha 90.000000
_cell_angle_beta 90.000000
_cell_angle_gamma 90.000000
_cell_volume 4679.661762
_symmetry_space_group_name_H-M "C M C M"
_symmetry_group_IT_number 63
_symmetry_cell_setting 'orthorhombic'
loop_
_space_group_symop_operation_xyz
x,y,z
-x,-y,1/2+z
x,-y,-z
-x,y,1/2-z
-x,-y,-z
x,y,1/2-z
-x,y,z
x,-y,1/2+z
1/2+x,1/2+y,z
1/2-x,1/2-y,1/2+z
1/2+x,1/2-y,-z
1/2-x,1/2+y,1/2-z
1/2-x,1/2-y,-z
1/2+x,1/2+y,1/2-z
1/2-x,1/2+y,z
1/2+x,1/2-y,1/2+z
loop_
_atom_site_type_symbol
_atom_site_label
_atom_site_fract_x
_atom_site_fract_y
_atom_site_fract_z
Si Si1 0.388357 0.759240 0.563287
Si Si2 0.716976 0.433102 0.433184
Si Si3 0.000000 0.268017 0.927358
Si Si4 0.389462 0.384120 0.933392
Si Si5 0.277956 0.812784 0.934154
Si Si6 0.500000 0.387791 0.427645
O O1 0.391087 0.749990 0.750000
O O2 0.443924 0.786394 0.507294
O O3 0.381931 0.689368 0.488931
O O4 0.338985 0.803190 0.531165
O O5 0.736459 0.500000 0.500000
O O6 0.716360 0.434042 0.250000
O O7 0.658429 0.422110 0.494395
O O8 0.751919 0.374681 0.492474
O O9 0.000000 0.289293 0.750000
O O10 0.000000 0.190249 0.929767
O O11 0.387383 0.387164 0.750000
O O12 0.446140 0.406680 0.991691
O O13 0.271284 0.814800 0.750000
O O14 0.250000 0.750000 0.000000
O O15 0.500000 0.407977 0.250000
#
# Coordination Sequence:
#
# PCOD9475436 Si02
#       6
#    16  16   8  16  16   8
#     4   9  17  30  51  77 108 143 179 218 268 320
#     4  12  25  41  57  76 106 144 184 229 281 332
#     4   7  12  25  45  72 103 136 171 212 258 311
#     4  11  20  32  52  78 107 139 181 226 272 321
#     4  11  21  34  55  83 111 144 184 226 271 325
#     4   9  17  31  50  72 103 142 182 222 268 315
#
# _framework density 17.095253
#
# number of rings (size 3 to 8) (size 9 to 14) (size 15 to 20)
#    0.000    1.800    2.000    5.700    0.000    0.800 
#    0.000    0.500    0.000    0.000    0.000    0.700 
#    0.000    0.000    0.000    0.000    0.000    0.000 
#
# Total GULP energy -223253.906404 kJ/mol
# GULP energy per Si atom -5581.347660 kJ/mol
# Density = 1.705634 g / cm^3
# Si number density = 17.095253 Si / 1000 Ang^3
#
#
#
# Elastic Constant Matrix: (Units=GPa)
#
#
# Indices 1 2 3 4 5 6 
#
# 1 133.0456 55.6097 52.6770 0.0000 0.0000 0.0000
# 2 55.6097 92.5114 41.3234 0.0000 0.0000 0.0000
# 3 52.6770 41.3234 106.5094 0.0000 0.0000 0.0000
# 4 0.0000 0.0000 0.0000 20.7985 0.0000 0.0000
# 5 0.0000 0.0000 0.0000 0.0000 26.0010 0.0000
# 6 0.0000 0.0000 0.0000 0.0000 0.0000 12.7608
#
#
#
# Elastic Compliance Matrix: (Units=1/GPa)
#
#
# Indices 1 2 3 4 5 6 
#
# 1 0.011011 -0.005064 -0.003481 0.000000 0.000000 0.000000
# 2 -0.005064 0.015404 -0.003472 0.000000 0.000000 0.000000
# 3 -0.003481 -0.003472 0.012458 0.000000 0.000000 0.000000
# 4 0.000000 0.000000 0.000000 0.048081 0.000000 0.000000
# 5 0.000000 0.000000 0.000000 0.000000 0.038460 0.000000
# 6 0.000000 0.000000 0.000000 0.000000 0.000000 0.078365
#
#
# Mechanical properties :
#
#
# Convention : Reuss Voigt Hill
#
# Bulk Modulus (GPa) = 67.39077 70.14296 68.76687
# Shear Modulus (GPa) = 21.48141 24.07579 22.77860
#
# Velocity S-wave (km/s) = 3.54866 3.75685 3.65424
# Velocity P-wave (km/s) = 7.50313 7.74198 7.62349
#
# Compressibility (1/GPa) = 0.01483883
#
# Stress axis : x y z
#
# Youngs Moduli (GPa) = 90.81736 64.91657 80.27212
#
# Poissons Ratio (x) = 0.32873 0.27944
# Poissons Ratio (y) = 0.45989 0.27871
# Poissons Ratio (z) = 0.31615 0.22540
#
# Static dielectric constant tensor:
#      x y z
#    x 1.624720 0.000000 0.000000 
#    y 0.000000 1.534240 0.000000 
#    z 0.000000 0.000000 1.571770 
# 
# From -- ./inp_files/12126.got.cif
#   From: 2010.05.17/outbox.cif.g08.bks.cpg/sg63_7_cif.got.tgz:12126.got - 2010.06.03 15:47:04.
