data_PCOD9475420
_publ_section_title
;
Structure prediction by ZEFSAII (Michael W. Deem and Ramdas Pophale) SiO2 
 PCOD9475420
Probable space group: C M C M
;
_chemical_formula_sum "Si O2"
_cell_formula_units_Z 112
_cell_length_a 15.102707
_cell_length_b 29.287089
_cell_length_c 14.122411
_cell_angle_alpha 90.000000
_cell_angle_beta 90.000000
_cell_angle_gamma 90.000000
_cell_volume 6246.544675
_symmetry_space_group_name_H-M "C M C M"
_symmetry_group_IT_number 63
_symmetry_cell_setting 'orthorhombic'
loop_
_space_group_symop_operation_xyz
x,y,z
-x,-y,1/2+z
x,-y,-z
-x,y,1/2-z
-x,-y,-z
x,y,1/2-z
-x,y,z
x,-y,1/2+z
1/2+x,1/2+y,z
1/2-x,1/2-y,1/2+z
1/2+x,1/2-y,-z
1/2-x,1/2+y,1/2-z
1/2-x,1/2-y,-z
1/2+x,1/2+y,1/2-z
1/2-x,1/2+y,z
1/2+x,1/2-y,1/2+z
loop_
_atom_site_type_symbol
_atom_site_label
_atom_site_fract_x
_atom_site_fract_y
_atom_site_fract_z
Si Si1 0.790598 0.930117 0.634291
Si Si2 0.844412 0.299825 0.642496
Si Si3 0.392966 0.619341 0.861647
Si Si4 0.399699 0.289286 0.043577
Si Si5 0.642109 0.333036 0.856327
Si Si6 0.403134 0.100997 0.365163
Si Si7 0.603181 0.480886 0.365610
O O1 0.787711 0.930205 0.750000
O O2 0.851020 0.885890 0.611354
O O3 0.688628 0.922615 0.602227
O O4 0.837011 0.976791 0.603773
O O5 0.872633 0.287194 0.750000
O O6 0.852609 0.256864 0.574204
O O7 0.743573 0.316513 0.647698
O O8 0.896415 0.345141 0.611103
O O9 0.375110 0.622983 0.750000
O O10 0.500000 0.618693 0.873819
O O11 0.358243 0.664897 0.911117
O O12 0.363105 0.569308 0.895541
O O13 0.500000 0.284632 0.080090
O O14 0.402123 0.300752 0.932938
O O15 0.605601 0.331169 0.750000
O O16 0.401336 0.098961 0.250000
O O17 0.500000 0.083275 0.396094
O O18 0.603624 0.480180 0.250000
O O19 0.500000 0.486833 0.392726
#
# Coordination Sequence:
#
# PCOD9475420 Si02
#       7
#    16  16  16  16  16  16  16
#     4   8  14  25  41  58  78 112 152 182 215 260
#     4   9  17  30  47  64  85 114 146 181 222 267
#     4   8  15  27  41  61  89 115 142 179 217 252
#     4  11  20  28  43  66  90 117 147 179 218 263
#     4   9  19  33  44  58  85 118 150 183 214 254
#     4   8  13  22  38  62  89 110 132 173 227 273
#     4   8  13  23  40  59  82 115 148 176 209 251
#
# _framework density 17.929912000000002
#
# number of rings (size 3 to 8) (size 9 to 14) (size 15 to 20)
#    0.000    3.286    0.000    3.857    0.000    2.286 
#    0.000    2.143    0.000    2.571    0.000    0.000 
#    0.000   13.714    0.000   19.714    0.000    7.000 
#
# Total GULP energy -311862.435219 kJ/mol
# GULP energy per Si atom -5568.972057 kJ/mol
# Density = 1.788910 g / cm^3
# Si number density = 17.929912 Si / 1000 Ang^3
#
#
#
# Elastic Constant Matrix: (Units=GPa)
#
#
# Indices 1 2 3 4 5 6 
#
# 1 51.9042 24.4941 -6.7673 0.0000 0.0000 0.0000
# 2 24.4941 99.2068 21.0474 0.0000 0.0000 0.0000
# 3 -6.7673 21.0474 32.0351 0.0000 0.0000 0.0000
# 4 0.0000 0.0000 0.0000 17.5260 0.0000 0.0000
# 5 0.0000 0.0000 0.0000 0.0000 33.9744 0.0000
# 6 0.0000 0.0000 0.0000 0.0000 0.0000 -11.2577
#
#
#
# Elastic Compliance Matrix: (Units=1/GPa)
#
#
# Indices 1 2 3 4 5 6 
#
# 1 0.024591 -0.008336 0.010671 0.000000 0.000000 0.000000
# 2 -0.008336 0.014538 -0.011313 0.000000 0.000000 0.000000
# 3 0.010671 -0.011313 0.040902 0.000000 0.000000 0.000000
# 4 0.000000 0.000000 0.000000 0.057058 0.000000 0.000000
# 5 0.000000 0.000000 0.000000 0.000000 0.029434 0.000000
# 6 0.000000 0.000000 0.000000 0.000000 0.000000 -0.088828
#
#
# Mechanical properties :
#
#
# Convention : Reuss Voigt Hill
#
# Bulk Modulus (GPa) = 16.10867 28.96605 22.53736
# Shear Modulus (GPa) = 42.97685 17.67334 30.32510
#
# Velocity S-wave (km/s) = 4.90116 3.14298 4.11702
# Velocity P-wave (km/s) = 6.40564 5.41861 5.93269
#
# Compressibility (1/GPa) = 0.06207836
#
# Stress axis : x y z
#
# Youngs Moduli (GPa) = 40.66491 68.78514 24.44839
#
# Poissons Ratio (x) = 0.57336 -0.26090
# Poissons Ratio (y) = 0.33896 0.27657
# Poissons Ratio (z) = -0.43395 0.77813
#
# Static dielectric constant tensor:
#      x y z
#    x 1.629470 0.000000 0.000000 
#    y 0.000000 1.627020 0.000000 
#    z 0.000000 0.000000 1.649210 
# 
# From -- ./inp_files/32766.got.cif
#   From: 2010.05.17/outbox.cif.g08.bks.cpg/sg63_17_cif.got.tgz:32766.got - 2010.06.03 15:47:04.
