data_PCOD9475747
_publ_section_title
;
Structure prediction by ZEFSAII (Michael W. Deem and Ramdas Pophale) SiO2 
 PCOD9475747
Probable space group: C M C M
;
_chemical_formula_sum "Si O2"
_cell_formula_units_Z 96
_cell_length_a 23.328417
_cell_length_b 11.743106
_cell_length_c 18.209574
_cell_angle_alpha 90.000000
_cell_angle_beta 90.000000
_cell_angle_gamma 90.000000
_cell_volume 4988.477719
_symmetry_space_group_name_H-M "C M C M"
_symmetry_group_IT_number 63
_symmetry_cell_setting 'orthorhombic'
loop_
_space_group_symop_operation_xyz
x,y,z
-x,-y,1/2+z
x,-y,-z
-x,y,1/2-z
-x,-y,-z
x,y,1/2-z
-x,y,z
x,-y,1/2+z
1/2+x,1/2+y,z
1/2-x,1/2-y,1/2+z
1/2+x,1/2-y,-z
1/2-x,1/2+y,1/2-z
1/2-x,1/2-y,-z
1/2+x,1/2+y,1/2-z
1/2-x,1/2+y,z
1/2+x,1/2-y,1/2+z
loop_
_atom_site_type_symbol
_atom_site_label
_atom_site_fract_x
_atom_site_fract_y
_atom_site_fract_z
Si Si1 0.933748 0.317457 0.667823
Si Si2 0.149351 0.899130 0.335202
Si Si3 0.648266 0.965997 0.915474
Si Si4 0.850425 0.293240 0.162580
Si Si5 0.065683 0.101231 0.160696
Si Si6 0.736207 0.761180 0.586154
O O1 0.925751 0.367734 0.750000
O O2 0.896793 0.203072 0.665706
O O3 0.909908 0.402949 0.607674
O O4 0.000000 0.290637 0.658239
O O5 0.168087 0.918404 0.250000
O O6 0.201207 0.849383 0.383862
O O7 0.113036 0.007621 0.362541
O O8 0.697683 0.872912 0.900603
O O9 0.652619 0.080138 0.868635
O O10 0.650168 0.000000 0.000000
O O11 0.847429 0.294308 0.250000
O O12 0.907705 0.223888 0.140945
O O13 0.795178 0.229839 0.130080
O O14 0.064081 0.093160 0.250000
O O15 0.000000 0.084259 0.135082
O O16 0.750000 0.750000 0.500000
#
# Coordination Sequence:
#
# PCOD9475747 Si02
#       6
#    16  16  16  16  16  16
#     4   9  18  34  59  88 116 151 197 249 301 357
#     4   9  18  35  62  92 118 153 205 258 303 360
#     4  11  23  40  59  85 119 161 200 246 308 371
#     4  11  24  39  62  92 121 159 204 250 302 372
#     4   9  19  37  62  93 126 159 199 253 312 364
#     4  11  23  40  61  86 122 163 204 254 313 365
#
# _framework density 19.244347999999999
#
# number of rings (size 3 to 8) (size 9 to 14) (size 15 to 20)
#    0.000    2.000    1.667    1.500    2.333    5.000 
#    0.000    1.667    0.000    1.000    0.000    0.000 
#    0.000    0.000    0.000    0.000    0.000    0.000 
#
# Total GULP energy -267852.483392 kJ/mol
# GULP energy per Si atom -5580.260071 kJ/mol
# Density = 1.920055 g / cm^3
# Si number density = 19.244348 Si / 1000 Ang^3
#
#
#
# Elastic Constant Matrix: (Units=GPa)
#
#
# Indices 1 2 3 4 5 6 
#
# 1 89.1100 24.0631 26.2569 0.0000 0.0000 0.0000
# 2 24.0631 81.4340 30.2625 0.0000 0.0000 0.0000
# 3 26.2569 30.2625 57.6684 0.0000 0.0000 0.0000
# 4 0.0000 0.0000 0.0000 28.5755 0.0000 0.0000
# 5 0.0000 0.0000 0.0000 0.0000 20.0352 0.0000
# 6 0.0000 0.0000 0.0000 0.0000 0.0000 21.4840
#
#
#
# Elastic Compliance Matrix: (Units=1/GPa)
#
#
# Indices 1 2 3 4 5 6 
#
# 1 0.013238 -0.002077 -0.004937 0.000000 0.000000 0.000000
# 2 -0.002077 0.015581 -0.007231 0.000000 0.000000 0.000000
# 3 -0.004937 -0.007231 0.023383 0.000000 0.000000 0.000000
# 4 0.000000 0.000000 0.000000 0.034995 0.000000 0.000000
# 5 0.000000 0.000000 0.000000 0.000000 0.049912 0.000000
# 6 0.000000 0.000000 0.000000 0.000000 0.000000 0.046546
#
#
# Mechanical properties :
#
#
# Convention : Reuss Voigt Hill
#
# Bulk Modulus (GPa) = 42.17338 43.26416 42.71877
# Shear Modulus (GPa) = 22.72230 23.86094 23.29162
#
# Velocity S-wave (km/s) = 3.43990 3.52503 3.48272
# Velocity P-wave (km/s) = 6.14324 6.25285 6.19829
#
# Compressibility (1/GPa) = 0.02371164
#
# Stress axis : x y z
#
# Youngs Moduli (GPa) = 75.54156 64.18239 42.76620
#
# Poissons Ratio (x) = 0.13329 0.21115
# Poissons Ratio (y) = 0.15688 0.30923
# Poissons Ratio (z) = 0.37298 0.46408
#
# Static dielectric constant tensor:
#      x y z
#    x 1.667990 0.000000 0.000000 
#    y 0.000000 1.686650 0.000000 
#    z 0.000000 0.000000 1.662760 
# 
# From -- ./inp_files/47985.got.cif
#   From: 2010.05.17/outbox.cif.g08.bks.cpg/sg63_24_cif.got.tgz:47985.got - 2010.06.03 15:47:04.
