data_PCOD9475822
_publ_section_title
;
Structure prediction by ZEFSAII (Michael W. Deem and Ramdas Pophale) SiO2 
 PCOD9475822
Probable space group: C M C M
;
_chemical_formula_sum "Si O2"
_cell_formula_units_Z 64
_cell_length_a 12.251114
_cell_length_b 15.584605
_cell_length_c 17.536513
_cell_angle_alpha 90.000000
_cell_angle_beta 90.000000
_cell_angle_gamma 90.000000
_cell_volume 3348.224901
_symmetry_space_group_name_H-M "C M C M"
_symmetry_group_IT_number 63
_symmetry_cell_setting 'orthorhombic'
loop_
_space_group_symop_operation_xyz
x,y,z
-x,-y,1/2+z
x,-y,-z
-x,y,1/2-z
-x,-y,-z
x,y,1/2-z
-x,y,z
x,-y,1/2+z
1/2+x,1/2+y,z
1/2-x,1/2-y,1/2+z
1/2+x,1/2-y,-z
1/2-x,1/2+y,1/2-z
1/2-x,1/2-y,-z
1/2+x,1/2+y,1/2-z
1/2-x,1/2+y,z
1/2+x,1/2-y,1/2+z
loop_
_atom_site_type_symbol
_atom_site_label
_atom_site_fract_x
_atom_site_fract_y
_atom_site_fract_z
Si Si1 0.500000 0.875078 0.161047
Si Si2 0.262769 0.833242 0.400560
Si Si3 0.729753 0.859812 0.580582
Si Si4 0.872555 0.006226 0.840432
Si Si5 0.000000 0.451960 0.582114
O O1 0.500000 0.852699 0.250000
O O2 0.610128 0.843162 0.120945
O O3 0.500000 0.976977 0.147824
O O4 0.246536 0.849785 0.490571
O O5 0.233169 0.734912 0.383662
O O6 0.192211 0.905925 0.358669
O O7 0.608973 0.897436 0.587651
O O8 0.813362 0.927625 0.616894
O O9 0.867193 0.990794 0.750000
O O10 0.000000 0.013191 0.862711
O O11 0.000000 0.500000 0.500000
#
# Coordination Sequence:
#
# PCOD9475822 Si02
#       5
#     8  16  16  16   8
#     4  12  24  42  68  95 131 175 213 268 332 385
#     4  11  24  42  66  99 127 169 219 270 323 391
#     4  11  24  41  69  97 129 168 219 269 325 388
#     4  11  25  44  63  92 134 174 213 267 330 392
#     4  12  20  42  70  97 131 164 215 278 319 384
#
# _framework density 19.114606999999999
#
# number of rings (size 3 to 8) (size 9 to 14) (size 15 to 20)
#    0.000    0.750    5.000    1.500    3.500    4.000 
#    0.000    0.000    0.000    0.000    0.000    0.000 
#    0.000    0.000    0.000    0.000    0.000    0.000 
#
# Total GULP energy -178906.717769 kJ/mol
# GULP energy per Si atom -5590.834930 kJ/mol
# Density = 1.907110 g / cm^3
# Si number density = 19.114607 Si / 1000 Ang^3
#
#
#
# Elastic Constant Matrix: (Units=GPa)
#
#
# Indices 1 2 3 4 5 6 
#
# 1 180.4131 101.5801 37.7068 0.0000 0.0000 0.0000
# 2 101.5801 172.2283 40.7682 0.0000 0.0000 0.0000
# 3 37.7068 40.7682 67.0864 0.0000 0.0000 0.0000
# 4 0.0000 0.0000 0.0000 -1.4815 0.0000 0.0000
# 5 0.0000 0.0000 0.0000 0.0000 112.7063 0.0000
# 6 0.0000 0.0000 0.0000 0.0000 0.0000 25.5128
#
#
#
# Elastic Compliance Matrix: (Units=1/GPa)
#
#
# Indices 1 2 3 4 5 6 
#
# 1 0.008529 -0.004550 -0.002029 0.000000 0.000000 0.000000
# 2 -0.004550 0.009209 -0.003039 0.000000 0.000000 0.000000
# 3 -0.002029 -0.003039 0.017893 0.000000 0.000000 0.000000
# 4 0.000000 0.000000 0.000000 -0.674993 0.000000 0.000000
# 5 0.000000 0.000000 0.000000 0.000000 0.008873 0.000000
# 6 0.000000 0.000000 0.000000 0.000000 0.000000 0.039196
#
#
# Mechanical properties :
#
#
# Convention : Reuss Voigt Hill
#
# Bulk Modulus (GPa) = 60.99143 86.64868 73.82005
# Shear Modulus (GPa) = -8.82468 43.32569 17.25050
#
# Velocity S-wave (km/s) = -2.15099 4.76608 3.00739
# Velocity P-wave (km/s) = 5.08021 8.70154 7.12480
#
# Compressibility (1/GPa) = 0.01639575
#
# Stress axis : x y z
#
# Youngs Moduli (GPa) = 117.25169 108.58711 55.88721
#
# Poissons Ratio (x) = 0.49407 0.11337
# Poissons Ratio (y) = 0.53349 0.16984
# Poissons Ratio (z) = 0.23786 0.33000
#
# Static dielectric constant tensor:
#      x y z
#    x 1.623780 0.000000 0.000000 
#    y 0.000000 1.657300 0.000000 
#    z 0.000000 0.000000 1.667590 
# 
# From -- ./inp_files/41522.got.cif
#   From: 2010.05.17/outbox.cif.g08.bks.cpg/sg63_21_cif.got.tgz:41522.got - 2010.06.03 15:47:04.
