data_PCOD9475143
_publ_section_title
;
Structure prediction by ZEFSAII (Michael W. Deem and Ramdas Pophale) SiO2 
 PCOD9475143
Probable space group: C M C M
;
_chemical_formula_sum "Si O2"
_cell_formula_units_Z 48
_cell_length_a 13.829375
_cell_length_b 8.161518
_cell_length_c 18.117670
_cell_angle_alpha 90.000000
_cell_angle_beta 90.000000
_cell_angle_gamma 90.000000
_cell_volume 2044.917733
_symmetry_space_group_name_H-M "C M C M"
_symmetry_group_IT_number 63
_symmetry_cell_setting 'orthorhombic'
loop_
_space_group_symop_operation_xyz
x,y,z
-x,-y,1/2+z
x,-y,-z
-x,y,1/2-z
-x,-y,-z
x,y,1/2-z
-x,y,z
x,-y,1/2+z
1/2+x,1/2+y,z
1/2-x,1/2-y,1/2+z
1/2+x,1/2-y,-z
1/2-x,1/2+y,1/2-z
1/2-x,1/2-y,-z
1/2+x,1/2+y,1/2-z
1/2-x,1/2+y,z
1/2+x,1/2-y,1/2+z
loop_
_atom_site_type_symbol
_atom_site_label
_atom_site_fract_x
_atom_site_fract_y
_atom_site_fract_z
Si Si1 0.795488 0.645241 0.331924
Si Si2 0.386766 0.672776 0.969101
Si Si3 0.387529 0.200697 0.628416
O O1 0.820479 0.705642 0.250000
O O2 0.834581 0.756787 0.398226
O O3 0.679555 0.654321 0.340547
O O4 0.841930 0.467241 0.342353
O O5 0.500000 0.648744 0.951038
O O6 0.348002 0.500000 0.000000
O O7 0.380977 0.793144 0.039329
O O8 0.500000 0.215470 0.648046
#
# Coordination Sequence:
#
# PCOD9475143 Si02
#       3
#    16  16  16
#     4  12  25  42  69 103 139 180 227 286 351 407
#     4  10  22  43  72 102 136 184 235 283 340 409
#     4  11  25  46  71 100 138 183 232 282 337 411
#
# _framework density 23.472828
#
# number of rings (size 3 to 8) (size 9 to 14) (size 15 to 20)
#    0.000    1.000    0.000    6.000    0.000    7.333 
#    0.000    3.333    0.000   20.000    0.000    0.000 
#    0.000    0.000    0.000    0.000    0.000    0.000 
#
# Total GULP energy -134443.126092 kJ/mol
# GULP energy per Si atom -5601.796921 kJ/mol
# Density = 2.341940 g / cm^3
# Si number density = 23.472828 Si / 1000 Ang^3
#
#
#
# Elastic Constant Matrix: (Units=GPa)
#
#
# Indices 1 2 3 4 5 6 
#
# 1 165.4700 55.9991 55.2745 0.0000 0.0000 0.0000
# 2 55.9991 72.9077 31.7760 0.0000 0.0000 0.0000
# 3 55.2745 31.7760 138.9933 0.0000 0.0000 0.0000
# 4 0.0000 0.0000 0.0000 17.6636 0.0000 0.0000
# 5 0.0000 0.0000 0.0000 0.0000 -1.3485 0.0000
# 6 0.0000 0.0000 0.0000 0.0000 0.0000 37.0773
#
#
#
# Elastic Compliance Matrix: (Units=1/GPa)
#
#
# Indices 1 2 3 4 5 6 
#
# 1 0.008707 -0.005752 -0.002148 0.000000 0.000000 0.000000
# 2 -0.005752 0.019033 -0.002064 0.000000 0.000000 0.000000
# 3 -0.002148 -0.002064 0.008521 0.000000 0.000000 0.000000
# 4 0.000000 0.000000 0.000000 0.056614 0.000000 0.000000
# 5 0.000000 0.000000 0.000000 0.000000 -0.741540 0.000000
# 6 0.000000 0.000000 0.000000 0.000000 0.000000 0.026971
#
#
# Mechanical properties :
#
#
# Convention : Reuss Voigt Hill
#
# Bulk Modulus (GPa) = 61.22128 73.71891 67.47009
# Shear Modulus (GPa) = -8.38473 26.29990 8.95758
#
# Velocity S-wave (km/s) = -1.89205 3.35093 1.95562
# Velocity P-wave (km/s) = 4.62226 6.81512 5.82285
#
# Compressibility (1/GPa) = 0.01633419
#
# Stress axis : x y z
#
# Youngs Moduli (GPa) = 114.84423 52.53899 117.36320
#
# Poissons Ratio (x) = 0.30220 0.25207
# Poissons Ratio (y) = 0.66058 0.24223
# Poissons Ratio (z) = 0.24666 0.10844
#
# Static dielectric constant tensor:
#      x y z
#    x 1.904050 0.000000 0.000000 
#    y 0.000000 1.911800 0.000000 
#    z 0.000000 0.000000 1.871860 
# 
# From -- ./inp_files/43137.got.cif
#   From: 2010.05.17/outbox.cif.g08.bks.cpg/sg63_22_cif.got.tgz:43137.got - 2010.06.03 15:47:04.
