data_PCOD9475029
_publ_section_title
;
Structure prediction by ZEFSAII (Michael W. Deem and Ramdas Pophale) SiO2 
 PCOD9475029
Probable space group: C M C M
;
_chemical_formula_sum "Si O2"
_cell_formula_units_Z 88
_cell_length_a 18.877130
_cell_length_b 8.966823
_cell_length_c 26.412304
_cell_angle_alpha 90.000000
_cell_angle_beta 90.000000
_cell_angle_gamma 90.000000
_cell_volume 4470.754795
_symmetry_space_group_name_H-M "C M C M"
_symmetry_group_IT_number 63
_symmetry_cell_setting 'orthorhombic'
loop_
_space_group_symop_operation_xyz
x,y,z
-x,-y,1/2+z
x,-y,-z
-x,y,1/2-z
-x,-y,-z
x,y,1/2-z
-x,y,z
x,-y,1/2+z
1/2+x,1/2+y,z
1/2-x,1/2-y,1/2+z
1/2+x,1/2-y,-z
1/2-x,1/2+y,1/2-z
1/2-x,1/2-y,-z
1/2+x,1/2+y,1/2-z
1/2-x,1/2+y,z
1/2+x,1/2-y,1/2+z
loop_
_atom_site_type_symbol
_atom_site_label
_atom_site_fract_x
_atom_site_fract_y
_atom_site_fract_z
Si Si1 0.918044 0.802652 0.921478
Si Si2 0.347660 0.718909 0.250000
Si Si3 0.081337 0.431794 0.167625
Si Si4 0.315581 0.477481 0.651092
Si Si5 0.330270 0.185082 0.371162
Si Si6 0.673356 0.177585 0.011028
O O1 0.914904 0.655845 0.885715
O O2 0.873464 0.924455 0.890223
O O3 0.000000 0.845676 0.927215
O O4 0.881381 0.758970 0.973778
O O5 0.332137 0.595783 0.294994
O O6 0.369469 0.842564 0.293855
O O7 0.108330 0.597651 0.158007
O O8 0.000000 0.424314 0.185192
O O9 0.314691 0.655252 0.652882
O O10 0.239841 0.416209 0.633032
O O11 0.345998 0.202016 0.430496
O O12 0.750000 0.250000 0.000000
O O13 0.675233 0.000000 0.000000
#
# Coordination Sequence:
#
# PCOD9475029 Si02
#       6
#    16   8  16  16  16  16
#     4  10  22  41  64  93 132 178 224 270 332 405
#     4  10  23  44  68  90 125 172 216 268 347 398
#     4  10  22  43  68  97 130 172 223 276 336 404
#     4  11  24  42  65  97 134 175 223 283 334 399
#     4  12  24  40  67 100 136 173 228 281 333 395
#     4  12  23  39  66  95 134 184 222 271 338 403
#
# _framework density 19.683477
#
# number of rings (size 3 to 8) (size 9 to 14) (size 15 to 20)
#    0.000    1.091    3.636    3.545    0.000    6.182 
#    0.000    0.909    0.000    0.000    0.000    0.000 
#    0.000    0.000    0.000    0.000    0.000    0.000 
#
# Total GULP energy -244963.930005 kJ/mol
# GULP energy per Si atom -5567.362046 kJ/mol
# Density = 1.963868 g / cm^3
# Si number density = 19.683477 Si / 1000 Ang^3
#
#
#
# Elastic Constant Matrix: (Units=GPa)
#
#
# Indices 1 2 3 4 5 6 
#
# 1 35.5572 -11.0469 -2.4383 0.0000 0.0000 0.0000
# 2 -11.0469 44.7418 -7.5688 0.0000 0.0000 0.0000
# 3 -2.4383 -7.5688 126.0907 0.0000 0.0000 0.0000
# 4 0.0000 0.0000 0.0000 18.6658 0.0000 0.0000
# 5 0.0000 0.0000 0.0000 0.0000 -2.7271 0.0000
# 6 0.0000 0.0000 0.0000 0.0000 0.0000 19.7040
#
#
#
# Elastic Compliance Matrix: (Units=1/GPa)
#
#
# Indices 1 2 3 4 5 6 
#
# 1 0.030599 0.007734 0.001056 0.000000 0.000000 0.000000
# 2 0.007734 0.024534 0.001622 0.000000 0.000000 0.000000
# 3 0.001056 0.001622 0.008049 0.000000 0.000000 0.000000
# 4 0.000000 0.000000 0.000000 0.053574 0.000000 0.000000
# 5 0.000000 0.000000 0.000000 0.000000 -0.366693 0.000000
# 6 0.000000 0.000000 0.000000 0.000000 0.000000 0.050751
#
#
# Mechanical properties :
#
#
# Convention : Reuss Voigt Hill
#
# Bulk Modulus (GPa) = 11.90400 18.25350 15.07875
# Shear Modulus (GPa) = -26.04058 22.29146 -1.87456
#
# Velocity S-wave (km/s) = -3.64121 3.36891 -0.97694
# Velocity P-wave (km/s) = 3.40837 4.94230 2.53075
#
# Compressibility (1/GPa) = 0.08400539
#
# Stress axis : x y z
#
# Youngs Moduli (GPa) = 32.68105 40.75912 124.24525
#
# Poissons Ratio (x) = -0.31521 -0.13120
# Poissons Ratio (y) = -0.25274 -0.20156
# Poissons Ratio (z) = -0.03451 -0.06612
#
# Static dielectric constant tensor:
#      x y z
#    x 1.696990 0.000000 0.000000 
#    y 0.000000 1.673260 0.000000 
#    z 0.000000 0.000000 1.712890 
# 
# From -- ./inp_files/64416.got.cif
#   From: 2010.05.17/outbox.cif.g08.bks.cpg/sg63_33_cif.got.tgz:64416.got - 2010.06.03 15:47:04.
