data_PCOD9475049
_publ_section_title
;
Structure prediction by ZEFSAII (Michael W. Deem and Ramdas Pophale) SiO2 
 PCOD9475049
Probable space group: C M C M
;
_chemical_formula_sum "Si O2"
_cell_formula_units_Z 72
_cell_length_a 17.656061
_cell_length_b 22.701957
_cell_length_c 8.698881
_cell_angle_alpha 90.000000
_cell_angle_beta 90.000000
_cell_angle_gamma 90.000000
_cell_volume 3486.747572
_symmetry_space_group_name_H-M "C M C M"
_symmetry_group_IT_number 63
_symmetry_cell_setting 'orthorhombic'
loop_
_space_group_symop_operation_xyz
x,y,z
-x,-y,1/2+z
x,-y,-z
-x,y,1/2-z
-x,-y,-z
x,y,1/2-z
-x,y,z
x,-y,1/2+z
1/2+x,1/2+y,z
1/2-x,1/2-y,1/2+z
1/2+x,1/2-y,-z
1/2-x,1/2+y,1/2-z
1/2-x,1/2-y,-z
1/2+x,1/2+y,1/2-z
1/2-x,1/2+y,z
1/2+x,1/2-y,1/2+z
loop_
_atom_site_type_symbol
_atom_site_label
_atom_site_fract_x
_atom_site_fract_y
_atom_site_fract_z
Si Si1 0.500000 0.566245 0.933925
Si Si2 0.735913 0.938421 0.069347
Si Si3 0.589948 0.768965 0.428528
Si Si4 0.587875 0.104742 0.069235
Si Si5 0.360067 0.358714 0.934262
O O1 0.500000 0.563599 0.750000
O O2 0.500000 0.500000 0.000000
O O3 0.426692 0.602172 0.992048
O O4 0.748851 0.937050 0.250000
O O5 0.647687 0.931245 0.029673
O O6 0.781415 0.886211 0.988001
O O7 0.763863 0.000000 0.000000
O O8 0.609730 0.782494 0.250000
O O9 0.500000 0.755500 0.431597
O O10 0.601916 0.826463 0.530651
O O11 0.631511 0.709664 0.479344
O O12 0.599635 0.093624 0.250000
O O13 0.500000 0.092477 0.031093
O O14 0.367695 0.361363 0.750000
#
# Coordination Sequence:
#
# PCOD9475049 Si02
#       5
#     8  16  16  16  16
#     4  12  24  38  58  86 122 166 215 256 301 362
#     4  12  26  44  64  89 122 162 206 257 311 369
#     4   9  18  36  62  92 125 162 203 250 303 359
#     4  10  22  41  66  95 124 158 201 253 309 369
#     4  11  22  40  63  90 125 165 207 255 306 360
#
# _framework density 20.649616000000002
#
# number of rings (size 3 to 8) (size 9 to 14) (size 15 to 20)
#    0.000    1.333    1.111    5.000    0.000    4.444 
#    0.000    0.000    0.000    0.000    0.000    0.000 
#    0.000    0.000    0.000    0.000    0.000    0.000 
#
# Total GULP energy -201400.435581 kJ/mol
# GULP energy per Si atom -5594.456544 kJ/mol
# Density = 2.060262 g / cm^3
# Si number density = 20.649616 Si / 1000 Ang^3
#
#
#
# Elastic Constant Matrix: (Units=GPa)
#
#
# Indices 1 2 3 4 5 6 
#
# 1 46.9940 -2.2272 6.3212 0.0000 0.0000 0.0000
# 2 -2.2272 32.2407 -0.8012 0.0000 0.0000 0.0000
# 3 6.3212 -0.8012 65.5851 0.0000 0.0000 0.0000
# 4 0.0000 0.0000 0.0000 29.6250 0.0000 0.0000
# 5 0.0000 0.0000 0.0000 0.0000 32.5438 0.0000
# 6 0.0000 0.0000 0.0000 0.0000 0.0000 30.3218
#
#
#
# Elastic Compliance Matrix: (Units=1/GPa)
#
#
# Indices 1 2 3 4 5 6 
#
# 1 0.021626 0.001443 -0.002067 0.000000 0.000000 0.000000
# 2 0.001443 0.031122 0.000241 0.000000 0.000000 0.000000
# 3 -0.002067 0.000241 0.015449 0.000000 0.000000 0.000000
# 4 0.000000 0.000000 0.000000 0.033755 0.000000 0.000000
# 5 0.000000 0.000000 0.000000 0.000000 0.030728 0.000000
# 6 0.000000 0.000000 0.000000 0.000000 0.000000 0.032980
#
#
# Mechanical properties :
#
#
# Convention : Reuss Voigt Hill
#
# Bulk Modulus (GPa) = 14.82986 16.82284 15.82635
# Shear Modulus (GPa) = 26.46855 27.93324 27.20089
#
# Velocity S-wave (km/s) = 3.58410 3.68193 3.63334
# Velocity P-wave (km/s) = 4.93203 5.12250 5.02817
#
# Compressibility (1/GPa) = 0.06743153
#
# Stress axis : x y z
#
# Youngs Moduli (GPa) = 46.24131 32.13121 64.72705
#
# Poissons Ratio (x) = -0.04635 0.13377
# Poissons Ratio (y) = -0.06671 -0.01561
# Poissons Ratio (z) = 0.09557 -0.00775
#
# Static dielectric constant tensor:
#      x y z
#    x 1.744670 0.000000 0.000000 
#    y 0.000000 1.709470 0.000000 
#    z 0.000000 0.000000 1.686040 
# 
# From -- ./inp_files/6142.got.cif
#   From: 2010.05.17/outbox.cif.g08.bks.cpg/sg63_4_cif.got.tgz:6142.got - 2010.06.03 15:47:04.
