data_PCOD9475926
_publ_section_title
;
Structure prediction by ZEFSAII (Michael W. Deem and Ramdas Pophale) SiO2 
 PCOD9475926
Probable space group: C M C M
;
_chemical_formula_sum "Si O2"
_cell_formula_units_Z 40
_cell_length_a 19.820655
_cell_length_b 5.025741
_cell_length_c 16.350173
_cell_angle_alpha 90.000000
_cell_angle_beta 90.000000
_cell_angle_gamma 90.000000
_cell_volume 1628.697606
_symmetry_space_group_name_H-M "C M C M"
_symmetry_group_IT_number 63
_symmetry_cell_setting 'orthorhombic'
loop_
_space_group_symop_operation_xyz
x,y,z
-x,-y,1/2+z
x,-y,-z
-x,y,1/2-z
-x,-y,-z
x,y,1/2-z
-x,y,z
x,-y,1/2+z
1/2+x,1/2+y,z
1/2-x,1/2-y,1/2+z
1/2+x,1/2-y,-z
1/2-x,1/2+y,1/2-z
1/2-x,1/2-y,-z
1/2+x,1/2+y,1/2-z
1/2-x,1/2+y,z
1/2+x,1/2-y,1/2+z
loop_
_atom_site_type_symbol
_atom_site_label
_atom_site_fract_x
_atom_site_fract_y
_atom_site_fract_z
Si Si1 0.500000 0.253914 0.438806
Si Si2 0.139224 0.689512 0.345797
Si Si3 0.691079 0.662118 0.065593
O O1 0.500000 0.500000 0.500000
O O2 0.564825 0.253183 0.378844
O O3 0.500000 0.000000 0.500000
O O4 0.138689 0.633586 0.250000
O O5 0.162574 0.429134 0.395921
O O6 0.190732 0.937959 0.363034
O O7 0.645567 0.500000 0.000000
O O8 0.750000 0.750000 0.000000
#
# Coordination Sequence:
#
# PCOD9475926 Si02
#       3
#     8  16  16
#     4  12  25  44  77 108 143 196 243 290 369 458
#     4  12  26  47  74 112 151 190 245 316 374 431
#     4  12  25  47  74 100 144 200 250 299 363 448
#
# _framework density 24.559501000000001
#
# number of rings (size 3 to 8) (size 9 to 14) (size 15 to 20)
#    0.000    0.000    0.000   12.600    0.000    0.000 
#    0.000   26.000    0.000    0.000    0.000    0.000 
#    0.000    0.000    0.000    0.000    0.000    0.000 
#
# Total GULP energy -111570.554824 kJ/mol
# GULP energy per Si atom -5578.527741 kJ/mol
# Density = 2.450360 g / cm^3
# Si number density = 24.559501 Si / 1000 Ang^3
#
#
#
# Elastic Constant Matrix: (Units=GPa)
#
#
# Indices 1 2 3 4 5 6 
#
# 1 175.8479 60.3288 93.3965 0.0000 0.0000 0.0000
# 2 60.3288 259.1604 91.5961 0.0000 0.0000 0.0000
# 3 93.3965 91.5961 222.6739 0.0000 0.0000 0.0000
# 4 0.0000 0.0000 0.0000 48.3856 0.0000 0.0000
# 5 0.0000 0.0000 0.0000 0.0000 44.6931 0.0000
# 6 0.0000 0.0000 0.0000 0.0000 0.0000 27.3349
#
#
#
# Elastic Compliance Matrix: (Units=1/GPa)
#
#
# Indices 1 2 3 4 5 6 
#
# 1 0.007435 -0.000735 -0.002816 0.000000 0.000000 0.000000
# 2 -0.000735 0.004588 -0.001579 0.000000 0.000000 0.000000
# 3 -0.002816 -0.001579 0.006321 0.000000 0.000000 0.000000
# 4 0.000000 0.000000 0.000000 0.020667 0.000000 0.000000
# 5 0.000000 0.000000 0.000000 0.000000 0.022375 0.000000
# 6 0.000000 0.000000 0.000000 0.000000 0.000000 0.036583
#
#
# Mechanical properties :
#
#
# Convention : Reuss Voigt Hill
#
# Bulk Modulus (GPa) = 123.70442 127.59169 125.64805
# Shear Modulus (GPa) = 45.07610 51.57341 48.32475
#
# Velocity S-wave (km/s) = 4.28879 4.58748 4.44064
# Velocity P-wave (km/s) = 8.66046 8.95125 8.80705
#
# Compressibility (1/GPa) = 0.00808379
#
# Stress axis : x y z
#
# Youngs Moduli (GPa) = 134.50684 217.97013 158.19585
#
# Poissons Ratio (x) = 0.16031 0.44544
# Poissons Ratio (y) = 0.09893 0.24974
# Poissons Ratio (z) = 0.37874 0.34411
#
# Static dielectric constant tensor:
#      x y z
#    x 2.183570 0.000000 0.000000 
#    y 0.000000 2.344120 0.000000 
#    z 0.000000 0.000000 1.945950 
# 
# From -- ./inp_files/47634.got.cif
#   From: 2010.05.17/outbox.cif.g08.bks.cpg/sg63_24_cif.got.tgz:47634.got - 2010.06.03 15:47:04.
