data_PCOD9475801
_publ_section_title
;
Structure prediction by ZEFSAII (Michael W. Deem and Ramdas Pophale) SiO2 
 PCOD9475801
Probable space group: C M C M
;
_chemical_formula_sum "Si O2"
_cell_formula_units_Z 64
_cell_length_a 14.390802
_cell_length_b 24.269182
_cell_length_c 10.405283
_cell_angle_alpha 90.000000
_cell_angle_beta 90.000000
_cell_angle_gamma 90.000000
_cell_volume 3634.076229
_symmetry_space_group_name_H-M "C M C M"
_symmetry_group_IT_number 63
_symmetry_cell_setting 'orthorhombic'
loop_
_space_group_symop_operation_xyz
x,y,z
-x,-y,1/2+z
x,-y,-z
-x,y,1/2-z
-x,-y,-z
x,y,1/2-z
-x,y,z
x,-y,1/2+z
1/2+x,1/2+y,z
1/2-x,1/2-y,1/2+z
1/2+x,1/2-y,-z
1/2-x,1/2+y,1/2-z
1/2-x,1/2-y,-z
1/2+x,1/2+y,1/2-z
1/2-x,1/2+y,z
1/2+x,1/2-y,1/2+z
loop_
_atom_site_type_symbol
_atom_site_label
_atom_site_fract_x
_atom_site_fract_y
_atom_site_fract_z
Si Si1 0.606325 0.853378 0.596156
Si Si2 0.891870 0.777417 0.098571
Si Si3 0.702460 0.618830 0.500922
Si Si4 0.610153 0.435676 0.250000
Si Si5 0.108791 0.932219 0.750000
O O1 0.619940 0.861702 0.750000
O O2 0.500000 0.869023 0.565488
O O3 0.615743 0.787595 0.572989
O O4 0.686777 0.883297 0.517344
O O5 0.870907 0.785714 0.250000
O O6 0.000000 0.792824 0.078648
O O7 0.828358 0.817419 0.015650
O O8 0.660553 0.588565 0.624848
O O9 0.656237 0.592667 0.375665
O O10 0.500000 0.420968 0.250000
O O11 0.616835 0.501686 0.250000
O O12 0.000000 0.918186 0.750000
#
# Coordination Sequence:
#
# PCOD9475801 Si02
#       5
#    16  16  16   8   8
#     4   9  19  36  56  83 117 151 186 226 273 328
#     4   9  17  31  54  84 118 151 181 216 273 342
#     4  12  20  36  60  84 109 151 193 224 274 334
#     4  11  24  40  58  81 115 151 180 228 292 343
#     4  11  24  38  56  85 115 141 186 240 282 329
#
# _framework density 17.611077000000002
#
# number of rings (size 3 to 8) (size 9 to 14) (size 15 to 20)
#    0.000    1.750    2.500    5.250    0.000    2.000 
#    0.000    0.625    0.000    7.500    0.000    0.000 
#    0.000    0.000    0.000    0.000    0.000    0.000 
#
# Total GULP energy -178638.212492 kJ/mol
# GULP energy per Si atom -5582.444140 kJ/mol
# Density = 1.757099 g / cm^3
# Si number density = 17.611077 Si / 1000 Ang^3
#
#
#
# Elastic Constant Matrix: (Units=GPa)
#
#
# Indices 1 2 3 4 5 6 
#
# 1 170.4791 52.6134 77.8157 0.0000 0.0000 0.0000
# 2 52.6134 33.0494 36.3309 0.0000 0.0000 0.0000
# 3 77.8157 36.3309 115.8256 0.0000 0.0000 0.0000
# 4 0.0000 0.0000 0.0000 20.3768 0.0000 0.0000
# 5 0.0000 0.0000 0.0000 0.0000 30.9216 0.0000
# 6 0.0000 0.0000 0.0000 0.0000 0.0000 18.7920
#
#
#
# Elastic Compliance Matrix: (Units=1/GPa)
#
#
# Indices 1 2 3 4 5 6 
#
# 1 0.012276 -0.015990 -0.003232 0.000000 0.000000 0.000000
# 2 -0.015990 0.067010 -0.010276 0.000000 0.000000 0.000000
# 3 -0.003232 -0.010276 0.014028 0.000000 0.000000 0.000000
# 4 0.000000 0.000000 0.000000 0.049076 0.000000 0.000000
# 5 0.000000 0.000000 0.000000 0.000000 0.032340 0.000000
# 6 0.000000 0.000000 0.000000 0.000000 0.000000 0.053214
#
#
# Mechanical properties :
#
#
# Convention : Reuss Voigt Hill
#
# Bulk Modulus (GPa) = 29.13931 72.54156 50.84043
# Shear Modulus (GPa) = 16.75721 24.19100 20.47411
#
# Velocity S-wave (km/s) = 3.08801 3.71026 3.41335
# Velocity P-wave (km/s) = 5.41261 7.72237 6.66826
#
# Compressibility (1/GPa) = 0.03431790
#
# Stress axis : x y z
#
# Youngs Moduli (GPa) = 81.46094 14.92314 71.28486
#
# Poissons Ratio (x) = 0.23862 0.23037
# Poissons Ratio (y) = 1.30256 0.73254
# Poissons Ratio (z) = 0.26326 0.15335
#
# Static dielectric constant tensor:
#      x y z
#    x 1.600820 0.000000 0.000000 
#    y 0.000000 1.604520 0.000000 
#    z 0.000000 0.000000 1.573100 
# 
# From -- ./inp_files/4325.got.cif
#   From: 2010.05.17/outbox.cif.g08.bks.cpg/sg63_3_cif.got.tgz:4325.got - 2010.06.03 15:47:04.
