data_PCOD9475799
_publ_section_title
;
Structure prediction by ZEFSAII (Michael W. Deem and Ramdas Pophale) SiO2 
 PCOD9475799
Probable space group: C M C M
;
_chemical_formula_sum "Si O2"
_cell_formula_units_Z 80
_cell_length_a 7.625741
_cell_length_b 30.487803
_cell_length_c 19.041086
_cell_angle_alpha 90.000000
_cell_angle_beta 90.000000
_cell_angle_gamma 90.000000
_cell_volume 4426.901867
_symmetry_space_group_name_H-M "C M C M"
_symmetry_group_IT_number 63
_symmetry_cell_setting 'orthorhombic'
loop_
_space_group_symop_operation_xyz
x,y,z
-x,-y,1/2+z
x,-y,-z
-x,y,1/2-z
-x,-y,-z
x,y,1/2-z
-x,y,z
x,-y,1/2+z
1/2+x,1/2+y,z
1/2-x,1/2-y,1/2+z
1/2+x,1/2-y,-z
1/2-x,1/2+y,1/2-z
1/2-x,1/2-y,-z
1/2+x,1/2+y,1/2-z
1/2-x,1/2+y,z
1/2+x,1/2-y,1/2+z
loop_
_atom_site_type_symbol
_atom_site_label
_atom_site_fract_x
_atom_site_fract_y
_atom_site_fract_z
Si Si1 0.500000 0.295670 0.664403
Si Si2 0.212885 0.547117 0.089749
Si Si3 0.791084 0.448712 0.427279
Si Si4 0.000000 0.103399 0.165937
Si Si5 0.290257 0.633011 0.829326
Si Si6 0.701229 0.270579 0.164382
O O1 0.500000 0.295770 0.750000
O O2 0.500000 0.345956 0.641588
O O3 0.670403 0.268107 0.641782
O O4 0.265268 0.496147 0.102018
O O5 0.327446 0.578711 0.137679
O O6 0.000000 0.551834 0.097882
O O7 0.263299 0.556124 0.008340
O O8 0.745573 0.407561 0.379577
O O9 0.000000 0.451931 0.430394
O O10 0.000000 0.102709 0.250000
O O11 0.222698 0.625184 0.750000
O O12 0.500000 0.637598 0.824400
O O13 0.230018 0.680888 0.855590
O O14 0.699558 0.271227 0.250000
O O15 0.500000 0.264413 0.141199
#
# Coordination Sequence:
#
# PCOD9475799 Si02
#       6
#     8  16  16   8  16  16
#     4   9  18  32  51  75 101 135 182 222 257 317
#     4   9  21  40  56  77 109 143 188 227 257 320
#     4   9  19  35  56  79 104 148 188 211 262 326
#     4  11  24  37  57  85 104 139 188 228 282 317
#     4   9  18  29  47  83 116 137 169 215 273 326
#     4   8  15  29  47  71 105 137 167 211 264 318
#
# _framework density 18.07133
#
# number of rings (size 3 to 8) (size 9 to 14) (size 15 to 20)
#    0.000    3.000    0.000    2.400    4.200    3.200 
#    0.000    4.000    0.000    1.200    0.000    0.000 
#    0.000    0.000    0.000    0.000    0.000    0.000 
#
# Total GULP energy -222863.267217 kJ/mol
# GULP energy per Si atom -5571.581680 kJ/mol
# Density = 1.803020 g / cm^3
# Si number density = 18.071330 Si / 1000 Ang^3
#
#
#
# Elastic Constant Matrix: (Units=GPa)
#
#
# Indices 1 2 3 4 5 6 
#
# 1 77.6447 66.4684 27.4446 0.0000 0.0000 0.0000
# 2 66.4684 184.8860 64.3950 0.0000 0.0000 0.0000
# 3 27.4446 64.3950 40.6528 0.0000 0.0000 0.0000
# 4 0.0000 0.0000 0.0000 -29.1453 0.0000 0.0000
# 5 0.0000 0.0000 0.0000 0.0000 25.5779 0.0000
# 6 0.0000 0.0000 0.0000 0.0000 0.0000 26.2943
#
#
#
# Elastic Compliance Matrix: (Units=1/GPa)
#
#
# Indices 1 2 3 4 5 6 
#
# 1 0.018962 -0.005261 -0.004468 0.000000 0.000000 0.000000
# 2 -0.005261 0.013525 -0.017872 0.000000 0.000000 0.000000
# 3 -0.004468 -0.017872 0.055924 0.000000 0.000000 0.000000
# 4 0.000000 0.000000 0.000000 -0.034311 0.000000 0.000000
# 5 0.000000 0.000000 0.000000 0.000000 0.039096 0.000000
# 6 0.000000 0.000000 0.000000 0.000000 0.000000 0.038031
#
#
# Mechanical properties :
#
#
# Convention : Reuss Voigt Hill
#
# Bulk Modulus (GPa) = 30.11156 68.86659 49.48907
# Shear Modulus (GPa) = 25.31658 14.20374 19.76016
#
# Velocity S-wave (km/s) = 3.74695 2.80658 3.31033
# Velocity P-wave (km/s) = 5.95133 6.97807 6.48505
#
# Compressibility (1/GPa) = 0.03320984
#
# Stress axis : x y z
#
# Youngs Moduli (GPa) = 52.73688 73.93801 17.88132
#
# Poissons Ratio (x) = 0.38899 0.07989
# Poissons Ratio (y) = 0.27745 0.31957
# Poissons Ratio (z) = 0.23561 1.32142
#
# Static dielectric constant tensor:
#      x y z
#    x 1.645610 0.000000 0.000000 
#    y 0.000000 1.651110 0.000000 
#    z 0.000000 0.000000 1.664410 
# 
# From -- ./inp_files/40618.got.cif
#   From: 2010.05.17/outbox.cif.g08.bks.cpg/sg63_21_cif.got.tgz:40618.got - 2010.06.03 15:47:04.
