data_PCOD9475836
_publ_section_title
;
Structure prediction by ZEFSAII (Michael W. Deem and Ramdas Pophale) SiO2 
 PCOD9475836
Probable space group: C M C M
;
_chemical_formula_sum "Si O2"
_cell_formula_units_Z 68
_cell_length_a 9.915231
_cell_length_b 14.233710
_cell_length_c 21.736693
_cell_angle_alpha 90.000000
_cell_angle_beta 90.000000
_cell_angle_gamma 90.000000
_cell_volume 3067.710843
_symmetry_space_group_name_H-M "C M C M"
_symmetry_group_IT_number 63
_symmetry_cell_setting 'orthorhombic'
loop_
_space_group_symop_operation_xyz
x,y,z
-x,-y,1/2+z
x,-y,-z
-x,y,1/2-z
-x,-y,-z
x,y,1/2-z
-x,y,z
x,-y,1/2+z
1/2+x,1/2+y,z
1/2-x,1/2-y,1/2+z
1/2+x,1/2-y,-z
1/2-x,1/2+y,1/2-z
1/2-x,1/2-y,-z
1/2+x,1/2+y,1/2-z
1/2-x,1/2+y,z
1/2+x,1/2-y,1/2+z
loop_
_atom_site_type_symbol
_atom_site_label
_atom_site_fract_x
_atom_site_fract_y
_atom_site_fract_z
Si Si1 0.351518 0.247461 0.679182
Si Si2 0.000000 0.528006 0.250000
Si Si3 0.267870 0.936843 0.853424
Si Si4 0.158498 0.131489 0.594154
Si Si5 0.853437 0.611458 0.014049
O O1 0.346368 0.216664 0.750000
O O2 0.500000 0.221820 0.654849
O O3 0.329216 0.358916 0.675897
O O4 0.233881 0.197536 0.642411
O O5 0.118634 0.533094 0.304498
O O6 0.330558 0.884962 0.913306
O O7 0.189953 0.026497 0.880917
O O8 0.232481 0.146684 0.528709
O O9 0.000000 0.146965 0.590148
O O10 0.000000 0.652474 0.997635
O O11 0.859563 0.500000 0.000000
#
# Coordination Sequence:
#
# PCOD9475836 Si02
#       5
#    16   4  16  16  16
#     4  11  26  44  66  96 135 176 222 277 337 399
#     4  12  24  40  72 108 128 182 214 276 330 412
#     4  11  24  43  71  96 137 172 222 269 335 396
#     4  11  26  43  68 100 133 175 226 278 330 391
#     4   9  19  39  67  96 129 172 219 272 328 393
#
# _framework density 22.166364999999999
#
# number of rings (size 3 to 8) (size 9 to 14) (size 15 to 20)
#    0.000    1.412    2.353    1.412    6.588    6.588 
#    0.000    0.000    0.000    0.000    0.000    0.000 
#    0.000    0.000    0.000    0.000    0.000    0.000 
#
# Total GULP energy -189579.009108 kJ/mol
# GULP energy per Si atom -5575.853209 kJ/mol
# Density = 2.211591 g / cm^3
# Si number density = 22.166365 Si / 1000 Ang^3
#
#
#
# Elastic Constant Matrix: (Units=GPa)
#
#
# Indices 1 2 3 4 5 6 
#
# 1 223.6560 37.8058 79.7021 0.0000 0.0000 0.0000
# 2 37.8058 67.7468 10.1698 0.0000 0.0000 0.0000
# 3 79.7021 10.1698 148.4822 0.0000 0.0000 0.0000
# 4 0.0000 0.0000 0.0000 29.1069 0.0000 0.0000
# 5 0.0000 0.0000 0.0000 0.0000 43.1230 0.0000
# 6 0.0000 0.0000 0.0000 0.0000 0.0000 7.3325
#
#
#
# Elastic Compliance Matrix: (Units=1/GPa)
#
#
# Indices 1 2 3 4 5 6 
#
# 1 0.006051 -0.002919 -0.003048 0.000000 0.000000 0.000000
# 2 -0.002919 0.016322 0.000449 0.000000 0.000000 0.000000
# 3 -0.003048 0.000449 0.008340 0.000000 0.000000 0.000000
# 4 0.000000 0.000000 0.000000 0.034356 0.000000 0.000000
# 5 0.000000 0.000000 0.000000 0.000000 0.023189 0.000000
# 6 0.000000 0.000000 0.000000 0.000000 0.000000 0.136379
#
#
# Mechanical properties :
#
#
# Convention : Reuss Voigt Hill
#
# Bulk Modulus (GPa) = 50.82042 77.24892 64.03467
# Shear Modulus (GPa) = 20.64126 36.72630 28.68378
#
# Velocity S-wave (km/s) = 3.05486 4.07486 3.60116
# Velocity P-wave (km/s) = 5.95143 7.55411 6.80015
#
# Compressibility (1/GPa) = 0.01967713
#
# Stress axis : x y z
#
# Youngs Moduli (GPa) = 165.26862 61.26547 119.90172
#
# Poissons Ratio (x) = 0.17884 0.36546
# Poissons Ratio (y) = 0.48243 -0.05383
# Poissons Ratio (z) = 0.50374 -0.02750
#
# Static dielectric constant tensor:
#      x y z
#    x 1.772810 0.000000 0.000000 
#    y 0.000000 1.867710 0.000000 
#    z 0.000000 0.000000 1.807960 
# 
# From -- ./inp_files/50461.got.cif
#   From: 2010.05.17/outbox.cif.g08.bks.cpg/sg63_26_cif.got.tgz:50461.got - 2010.06.03 15:47:04.
