data_PCOD9475792
_publ_section_title
;
Structure prediction by ZEFSAII (Michael W. Deem and Ramdas Pophale) SiO2 
 PCOD9475792
Probable space group: C M C M
;
_chemical_formula_sum "Si O2"
_cell_formula_units_Z 56
_cell_length_a 9.994355
_cell_length_b 11.447471
_cell_length_c 19.824606
_cell_angle_alpha 90.000000
_cell_angle_beta 90.000000
_cell_angle_gamma 90.000000
_cell_volume 2268.134937
_symmetry_space_group_name_H-M "C M C M"
_symmetry_group_IT_number 63
_symmetry_cell_setting 'orthorhombic'
loop_
_space_group_symop_operation_xyz
x,y,z
-x,-y,1/2+z
x,-y,-z
-x,y,1/2-z
-x,-y,-z
x,y,1/2-z
-x,y,z
x,-y,1/2+z
1/2+x,1/2+y,z
1/2-x,1/2-y,1/2+z
1/2+x,1/2-y,-z
1/2-x,1/2+y,1/2-z
1/2-x,1/2-y,-z
1/2+x,1/2+y,1/2-z
1/2-x,1/2+y,z
1/2+x,1/2-y,1/2+z
loop_
_atom_site_type_symbol
_atom_site_label
_atom_site_fract_x
_atom_site_fract_y
_atom_site_fract_z
Si Si1 0.000000 0.735312 0.009322
Si Si2 0.500000 0.557121 0.398790
Si Si3 0.000000 0.541331 0.250000
Si Si4 0.000000 0.602956 0.608977
Si Si5 0.800586 0.251931 0.750000
Si Si6 0.500000 0.332505 0.750000
Si Si7 0.307395 0.347788 0.390911
O O1 0.127729 0.756975 0.057045
O O2 0.000000 0.838295 0.952609
O O3 0.000000 0.610954 0.973619
O O4 0.500000 0.599789 0.321294
O O5 0.371138 0.473210 0.408687
O O6 0.000000 0.478219 0.323547
O O7 0.133279 0.620540 0.250000
O O8 0.148879 0.655932 0.613404
O O9 0.639374 0.261782 0.750000
O O10 0.849799 0.186254 0.684035
#
# Coordination Sequence:
#
# PCOD9475792 Si02
#       7
#     8   8   4   8   8   4  16
#     4  11  25  45  66  92 132 177 214 255 319 394
#     4  11  23  45  69  95 128 172 217 260 318 390
#     4  12  26  44  64 100 132 166 212 274 324 370
#     4  12  25  42  67  98 132 166 215 268 321 372
#     4  12  24  44  69  96 130 168 216 268 321 378
#     4  12  24  40  68  96 126 174 214 260 322 384
#     4  11  23  44  69  97 127 169 216 266 319 382
#
# _framework density 24.689889000000001
#
# number of rings (size 3 to 8) (size 9 to 14) (size 15 to 20)
#    0.000    0.571    0.000   10.286    0.000    0.571 
#    0.000   14.286    0.000    0.000    0.000    0.000 
#    0.000    0.000    0.000    0.000    0.000    0.000 
#
# Total GULP energy -156300.898622 kJ/mol
# GULP energy per Si atom -5582.174951 kJ/mol
# Density = 2.463369 g / cm^3
# Si number density = 24.689889 Si / 1000 Ang^3
#
#
#
# Elastic Constant Matrix: (Units=GPa)
#
#
# Indices 1 2 3 4 5 6 
#
# 1 197.3955 35.1711 49.2484 0.0000 0.0000 0.0000
# 2 35.1711 85.6829 82.7706 0.0000 0.0000 0.0000
# 3 49.2484 82.7706 181.3524 0.0000 0.0000 0.0000
# 4 0.0000 0.0000 0.0000 24.2813 0.0000 0.0000
# 5 0.0000 0.0000 0.0000 0.0000 71.8503 0.0000
# 6 0.0000 0.0000 0.0000 0.0000 0.0000 231.6680
#
#
#
# Elastic Compliance Matrix: (Units=1/GPa)
#
#
# Indices 1 2 3 4 5 6 
#
# 1 0.005535 -0.001467 -0.000834 0.000000 0.000000 0.000000
# 2 -0.001467 0.021263 -0.009306 0.000000 0.000000 0.000000
# 3 -0.000834 -0.009306 0.009988 0.000000 0.000000 0.000000
# 4 0.000000 0.000000 0.000000 0.041184 0.000000 0.000000
# 5 0.000000 0.000000 0.000000 0.000000 0.013918 0.000000
# 6 0.000000 0.000000 0.000000 0.000000 0.000000 0.004317
#
#
# Mechanical properties :
#
#
# Convention : Reuss Voigt Hill
#
# Bulk Modulus (GPa) = 73.67691 88.75678 81.21684
# Shear Modulus (GPa) = 40.34136 85.37597 62.85866
#
# Velocity S-wave (km/s) = 4.04657 5.88680 5.05119
# Velocity P-wave (km/s) = 7.19296 9.06822 8.18447
#
# Compressibility (1/GPa) = 0.01357277
#
# Stress axis : x y z
#
# Youngs Moduli (GPa) = 180.65800 47.03016 100.12015
#
# Poissons Ratio (x) = 0.06898 0.08348
# Poissons Ratio (y) = 0.26497 0.93175
# Poissons Ratio (z) = 0.15063 0.43768
#
# Static dielectric constant tensor:
#      x y z
#    x 1.928600 0.000000 0.000000 
#    y 0.000000 1.983200 0.000000 
#    z 0.000000 0.000000 1.967410 
# 
# From -- ./inp_files/51975.got.cif
#   From: 2010.05.17/outbox.cif.g08.bks.cpg/sg63_26_cif.got.tgz:51975.got - 2010.06.03 15:47:04.
