data_PCOD9475439
_publ_section_title
;
Structure prediction by ZEFSAII (Michael W. Deem and Ramdas Pophale) SiO2 
 PCOD9475439
Probable space group: C M C M
;
_chemical_formula_sum "Si O2"
_cell_formula_units_Z 80
_cell_length_a 21.231118
_cell_length_b 13.821785
_cell_length_c 14.631789
_cell_angle_alpha 90.000000
_cell_angle_beta 90.000000
_cell_angle_gamma 90.000000
_cell_volume 4293.726989
_symmetry_space_group_name_H-M "C M C M"
_symmetry_group_IT_number 63
_symmetry_cell_setting 'orthorhombic'
loop_
_space_group_symop_operation_xyz
x,y,z
-x,-y,1/2+z
x,-y,-z
-x,y,1/2-z
-x,-y,-z
x,y,1/2-z
-x,y,z
x,-y,1/2+z
1/2+x,1/2+y,z
1/2-x,1/2-y,1/2+z
1/2+x,1/2-y,-z
1/2-x,1/2+y,1/2-z
1/2-x,1/2-y,-z
1/2+x,1/2+y,1/2-z
1/2-x,1/2+y,z
1/2+x,1/2-y,1/2+z
loop_
_atom_site_type_symbol
_atom_site_label
_atom_site_fract_x
_atom_site_fract_y
_atom_site_fract_z
Si Si1 0.284444 0.177476 0.858206
Si Si2 0.134406 0.396753 0.983777
Si Si3 0.075084 0.768532 0.355499
Si Si4 0.163302 0.058675 0.592265
Si Si5 0.750796 0.601084 0.348903
O O1 0.286594 0.150485 0.750000
O O2 0.222810 0.132050 0.906509
O O3 0.275558 0.292043 0.863399
O O4 0.343451 0.144805 0.918520
O O5 0.100103 0.314032 0.924595
O O6 0.197575 0.421735 0.925216
O O7 0.100880 0.500000 0.000000
O O8 0.091864 0.744487 0.250000
O O9 0.106780 0.872527 0.376989
O O10 0.000000 0.774861 0.362673
O O11 0.149201 0.000000 0.500000
O O12 0.192835 0.972661 0.651784
O O13 0.782649 0.597672 0.250000
#
# Coordination Sequence:
#
# PCOD9475439 Si02
#       5
#    16  16  16  16  16
#     4  11  21  34  56  92 134 166 198 252 324 385
#     4  12  22  36  60  92 123 157 204 263 318 373
#     4  11  26  46  65  87 124 175 222 260 306 377
#     4  12  21  37  62  92 129 161 201 256 314 377
#     4  11  20  32  55  90 128 161 195 252 314 377
#
# _framework density 18.631830999999998
#
# number of rings (size 3 to 8) (size 9 to 14) (size 15 to 20)
#    0.000    0.600    6.000    4.200    0.000    1.600 
#    0.000    0.000    0.000    0.600    0.000    0.000 
#    0.000    0.000    0.000    0.000    0.000    0.000 
#
# Total GULP energy -223137.750210 kJ/mol
# GULP energy per Si atom -5578.443755 kJ/mol
# Density = 1.858942 g / cm^3
# Si number density = 18.631831 Si / 1000 Ang^3
#
#
#
# Elastic Constant Matrix: (Units=GPa)
#
#
# Indices 1 2 3 4 5 6 
#
# 1 66.3587 39.2622 44.8428 0.0000 0.0000 0.0000
# 2 39.2622 145.5709 39.0517 0.0000 0.0000 0.0000
# 3 44.8428 39.0517 107.3990 0.0000 0.0000 0.0000
# 4 0.0000 0.0000 0.0000 371.1701 0.0000 0.0000
# 5 0.0000 0.0000 0.0000 0.0000 20.7342 0.0000
# 6 0.0000 0.0000 0.0000 0.0000 0.0000 13.2586
#
#
#
# Elastic Compliance Matrix: (Units=1/GPa)
#
#
# Indices 1 2 3 4 5 6 
#
# 1 0.022923 -0.004006 -0.008115 0.000000 0.000000 0.000000
# 2 -0.004006 0.008312 -0.001350 0.000000 0.000000 0.000000
# 3 -0.008115 -0.001350 0.013190 0.000000 0.000000 0.000000
# 4 0.000000 0.000000 0.000000 0.002694 0.000000 0.000000
# 5 0.000000 0.000000 0.000000 0.000000 0.048229 0.000000
# 6 0.000000 0.000000 0.000000 0.000000 0.000000 0.075423
#
#
# Mechanical properties :
#
#
# Convention : Reuss Voigt Hill
#
# Bulk Modulus (GPa) = 57.19262 62.84911 60.02087
# Shear Modulus (GPa) = 24.56516 94.11073 59.33794
#
# Velocity S-wave (km/s) = 3.63499 7.11480 5.64949
# Velocity P-wave (km/s) = 6.95560 10.06475 8.65100
#
# Compressibility (1/GPa) = 0.01748477
#
# Stress axis : x y z
#
# Youngs Moduli (GPa) = 43.62373 120.30775 75.81472
#
# Poissons Ratio (x) = 0.48193 0.61521
# Poissons Ratio (y) = 0.17475 0.10234
# Poissons Ratio (z) = 0.35399 0.16239
#
# Static dielectric constant tensor:
#      x y z
#    x 1.610510 0.000000 0.000000 
#    y 0.000000 1.689020 0.000000 
#    z 0.000000 0.000000 1.737340 
# 
# From -- ./inp_files/35086.got.cif
#   From: 2010.05.17/outbox.cif.g08.bks.cpg/sg63_18_cif.got.tgz:35086.got - 2010.06.03 15:47:04.
