data_PCOD9475989
_publ_section_title
;
Structure prediction by ZEFSAII (Michael W. Deem and Ramdas Pophale) SiO2 
 PCOD9475989
Probable space group: C M C M
;
_chemical_formula_sum "Si O2"
_cell_formula_units_Z 80
_cell_length_a 13.706480
_cell_length_b 13.814721
_cell_length_c 19.859947
_cell_angle_alpha 90.000000
_cell_angle_beta 90.000000
_cell_angle_gamma 90.000000
_cell_volume 3760.504739
_symmetry_space_group_name_H-M "C M C M"
_symmetry_group_IT_number 63
_symmetry_cell_setting 'orthorhombic'
loop_
_space_group_symop_operation_xyz
x,y,z
-x,-y,1/2+z
x,-y,-z
-x,y,1/2-z
-x,-y,-z
x,y,1/2-z
-x,y,z
x,-y,1/2+z
1/2+x,1/2+y,z
1/2-x,1/2-y,1/2+z
1/2+x,1/2-y,-z
1/2-x,1/2+y,1/2-z
1/2-x,1/2-y,-z
1/2+x,1/2+y,1/2-z
1/2-x,1/2+y,z
1/2+x,1/2-y,1/2+z
loop_
_atom_site_type_symbol
_atom_site_label
_atom_site_fract_x
_atom_site_fract_y
_atom_site_fract_z
Si Si1 0.000000 0.481914 0.328151
Si Si2 0.891385 0.766346 0.065319
Si Si3 0.000000 0.245112 0.174196
Si Si4 0.318968 0.018923 0.920298
Si Si5 0.182046 0.246691 0.414258
Si Si6 0.603890 0.511686 0.581110
O O1 0.000000 0.363725 0.327027
O O2 0.905201 0.512459 0.370902
O O3 0.000000 0.513912 0.250000
O O4 0.794731 0.715360 0.093991
O O5 0.897911 0.873549 0.095870
O O6 0.000000 0.722113 0.069113
O O7 0.861623 0.780742 0.987067
O O8 0.100600 0.216297 0.138418
O O9 0.000000 0.210988 0.250000
O O10 0.314121 0.135975 0.914906
O O11 0.212173 0.978835 0.899897
O O12 0.337714 0.000000 0.000000
O O13 0.602181 0.500000 0.500000
O O14 0.500000 0.471625 0.606401
#
# Coordination Sequence:
#
# PCOD9475989 Si02
#       6
#     8  16   8  16  16  16
#     4   9  17  27  39  57  83 112 137 169 206 242
#     4   9  15  24  39  59  87 106 125 167 205 239
#     4   9  16  27  41  57  82 110 137 169 200 244
#     4   9  16  26  41  61  85 107 137 172 201 242
#     4   9  16  25  39  62  86 105 137 165 206 246
#     4   8  14  24  39  61  85 103 128 161 208 244
#
# _framework density 21.273738999999999
#
# number of rings (size 3 to 8) (size 9 to 14) (size 15 to 20)
#    0.000    3.200    1.000    0.300    0.000    0.000 
#    0.000    0.000    0.000    1.200    0.000   30.800 
#    0.000    0.000    0.000    0.000    0.000    0.000 
#
# Total GULP energy -222947.770388 kJ/mol
# GULP energy per Si atom -5573.694260 kJ/mol
# Density = 2.122532 g / cm^3
# Si number density = 21.273739 Si / 1000 Ang^3
#
#
#
# Elastic Constant Matrix: (Units=GPa)
#
#
# Indices 1 2 3 4 5 6 
#
# 1 301.8046 39.3374 102.3136 0.0000 0.0000 0.0000
# 2 39.3374 62.9737 2.8786 0.0000 0.0000 0.0000
# 3 102.3136 2.8786 90.9325 0.0000 0.0000 0.0000
# 4 0.0000 0.0000 0.0000 10.3058 0.0000 0.0000
# 5 0.0000 0.0000 0.0000 0.0000 2.6167 0.0000
# 6 0.0000 0.0000 0.0000 0.0000 0.0000 17.5696
#
#
#
# Elastic Compliance Matrix: (Units=1/GPa)
#
#
# Indices 1 2 3 4 5 6 
#
# 1 0.006025 -0.003459 -0.006670 0.000000 0.000000 0.000000
# 2 -0.003459 0.017888 0.003326 0.000000 0.000000 0.000000
# 3 -0.006670 0.003326 0.018397 0.000000 0.000000 0.000000
# 4 0.000000 0.000000 0.000000 0.097033 0.000000 0.000000
# 5 0.000000 0.000000 0.000000 0.000000 0.382165 0.000000
# 6 0.000000 0.000000 0.000000 0.000000 0.000000 0.056916
#
#
# Mechanical properties :
#
#
# Convention : Reuss Voigt Hill
#
# Bulk Modulus (GPa) = 34.83874 82.75224 58.79549
# Shear Modulus (GPa) = 8.31117 26.84382 17.57750
#
# Velocity S-wave (km/s) = 1.97870 3.55608 2.87758
# Velocity P-wave (km/s) = 4.65105 7.47289 6.22400
#
# Compressibility (1/GPa) = 0.02870368
#
# Stress axis : x y z
#
# Youngs Moduli (GPa) = 165.96257 55.90240 54.35719
#
# Poissons Ratio (x) = 0.19337 0.36257
# Poissons Ratio (y) = 0.57406 -0.18077
# Poissons Ratio (z) = 1.10699 -0.18591
#
# Static dielectric constant tensor:
#      x y z
#    x 1.830530 0.000000 0.000000 
#    y 0.000000 1.876670 0.000000 
#    z 0.000000 0.000000 1.686740 
# 
# From -- ./inp_files/44264.got.cif
#   From: 2010.05.17/outbox.cif.g08.bks.cpg/sg63_23_cif.got.tgz:44264.got - 2010.06.03 15:47:04.
