data_PCOD9475647
_publ_section_title
;
Structure prediction by ZEFSAII (Michael W. Deem and Ramdas Pophale) SiO2 
 PCOD9475647
Probable space group: C M C M
;
_chemical_formula_sum "Si O2"
_cell_formula_units_Z 52
_cell_length_a 10.723852
_cell_length_b 13.614262
_cell_length_c 18.467173
_cell_angle_alpha 90.000000
_cell_angle_beta 90.000000
_cell_angle_gamma 90.000000
_cell_volume 2696.157965
_symmetry_space_group_name_H-M "C M C M"
_symmetry_group_IT_number 63
_symmetry_cell_setting 'orthorhombic'
loop_
_space_group_symop_operation_xyz
x,y,z
-x,-y,1/2+z
x,-y,-z
-x,y,1/2-z
-x,-y,-z
x,y,1/2-z
-x,y,z
x,-y,1/2+z
1/2+x,1/2+y,z
1/2-x,1/2-y,1/2+z
1/2+x,1/2-y,-z
1/2-x,1/2+y,1/2-z
1/2-x,1/2-y,-z
1/2+x,1/2+y,1/2-z
1/2-x,1/2+y,z
1/2+x,1/2-y,1/2+z
loop_
_atom_site_type_symbol
_atom_site_label
_atom_site_fract_x
_atom_site_fract_y
_atom_site_fract_z
Si Si1 0.756066 0.479114 0.250000
Si Si2 0.260150 0.857153 0.627211
Si Si3 0.500000 0.157345 0.750000
Si Si4 0.642004 0.720117 0.750000
Si Si5 0.000000 0.773353 0.598820
Si Si6 0.500000 0.111846 0.473831
O O1 0.752002 0.549049 0.319791
O O2 0.649883 0.396814 0.250000
O O3 0.881291 0.414283 0.250000
O O4 0.292007 0.765304 0.679639
O O5 0.126652 0.836019 0.591386
O O6 0.375303 0.870091 0.573059
O O7 0.500000 0.225889 0.679214
O O8 0.500000 0.755807 0.750000
O O9 0.000000 0.685956 0.541102
O O10 0.500000 0.000000 0.500000
#
# Coordination Sequence:
#
# PCOD9475647 Si02
#       6
#     8  16   4   8   8   8
#     4  11  22  37  68  99 128 163 220 264 332 382
#     4  11  24  43  65  98 132 172 217 273 327 389
#     4  12  20  40  70  96 122 170 224 272 314 394
#     4  11  22  39  69  95 133 168 213 273 320 388
#     4  12  24  44  64  97 129 173 215 280 335 377
#     4  12  26  45  67  90 133 182 227 265 325 400
#
# _framework density 19.286702999999999
#
# number of rings (size 3 to 8) (size 9 to 14) (size 15 to 20)
#    0.000    0.615    4.615    4.615    4.308    0.000 
#    0.000    0.769    0.000    0.000    0.000    0.000 
#    0.000    0.000    0.000    0.000    0.000    0.000 
#
# Total GULP energy -145395.233292 kJ/mol
# GULP energy per Si atom -5592.124357 kJ/mol
# Density = 1.924281 g / cm^3
# Si number density = 19.286703 Si / 1000 Ang^3
#
#
#
# Elastic Constant Matrix: (Units=GPa)
#
#
# Indices 1 2 3 4 5 6 
#
# 1 183.6310 43.7775 52.1300 0.0000 0.0000 0.0000
# 2 43.7775 94.0773 46.6244 0.0000 0.0000 0.0000
# 3 52.1300 46.6244 113.0514 0.0000 0.0000 0.0000
# 4 0.0000 0.0000 0.0000 12.5529 0.0000 0.0000
# 5 0.0000 0.0000 0.0000 0.0000 19.7958 0.0000
# 6 0.0000 0.0000 0.0000 0.0000 0.0000 35.5982
#
#
#
# Elastic Compliance Matrix: (Units=1/GPa)
#
#
# Indices 1 2 3 4 5 6 
#
# 1 0.006538 -0.001946 -0.002212 0.000000 0.000000 0.000000
# 2 -0.001946 0.013939 -0.004852 0.000000 0.000000 0.000000
# 3 -0.002212 -0.004852 0.011866 0.000000 0.000000 0.000000
# 4 0.000000 0.000000 0.000000 0.079663 0.000000 0.000000
# 5 0.000000 0.000000 0.000000 0.000000 0.050516 0.000000
# 6 0.000000 0.000000 0.000000 0.000000 0.000000 0.028091
#
#
# Mechanical properties :
#
#
# Convention : Reuss Voigt Hill
#
# Bulk Modulus (GPa) = 69.81102 75.09149 72.45125
# Shear Modulus (GPa) = 23.42939 30.13791 26.78365
#
# Velocity S-wave (km/s) = 3.48917 3.95730 3.73058
# Velocity P-wave (km/s) = 7.24620 7.73945 7.49688
#
# Compressibility (1/GPa) = 0.01432439
#
# Stress axis : x y z
#
# Youngs Moduli (GPa) = 152.96210 71.73867 84.27117
#
# Poissons Ratio (x) = 0.13959 0.18641
# Poissons Ratio (y) = 0.29764 0.40885
# Poissons Ratio (z) = 0.33836 0.34805
#
# Static dielectric constant tensor:
#      x y z
#    x 1.703030 0.000000 0.000000 
#    y 0.000000 1.638290 0.000000 
#    z 0.000000 0.000000 1.642920 
# 
# From -- ./inp_files/28803.got.cif
#   From: 2010.05.17/outbox.cif.g08.bks.cpg/sg63_15_cif.got.tgz:28803.got - 2010.06.03 15:47:04.
