data_PCOD9475754
_publ_section_title
;
Structure prediction by ZEFSAII (Michael W. Deem and Ramdas Pophale) SiO2 
 PCOD9475754
Probable space group: C M C M
;
_chemical_formula_sum "Si O2"
_cell_formula_units_Z 64
_cell_length_a 11.469855
_cell_length_b 14.021248
_cell_length_c 17.676343
_cell_angle_alpha 90.000000
_cell_angle_beta 90.000000
_cell_angle_gamma 90.000000
_cell_volume 2842.739204
_symmetry_space_group_name_H-M "C M C M"
_symmetry_group_IT_number 63
_symmetry_cell_setting 'orthorhombic'
loop_
_space_group_symop_operation_xyz
x,y,z
-x,-y,1/2+z
x,-y,-z
-x,y,1/2-z
-x,-y,-z
x,y,1/2-z
-x,y,z
x,-y,1/2+z
1/2+x,1/2+y,z
1/2-x,1/2-y,1/2+z
1/2+x,1/2-y,-z
1/2-x,1/2+y,1/2-z
1/2-x,1/2-y,-z
1/2+x,1/2+y,1/2-z
1/2-x,1/2+y,z
1/2+x,1/2-y,1/2+z
loop_
_atom_site_type_symbol
_atom_site_label
_atom_site_fract_x
_atom_site_fract_y
_atom_site_fract_z
Si Si1 0.833529 0.210718 0.664424
Si Si2 0.635058 0.891963 0.572257
Si Si3 0.863631 0.422323 0.333522
Si Si4 0.875186 0.886666 0.490642
O O1 0.871566 0.190668 0.750000
O O2 0.862170 0.318079 0.641848
O O3 0.698784 0.179039 0.660125
O O4 0.879945 0.145281 0.596562
O O5 0.500000 0.889622 0.541754
O O6 0.747097 0.859222 0.523098
O O7 0.660832 0.998137 0.603051
O O8 0.829679 0.461183 0.250000
O O9 0.000000 0.408846 0.334917
O O10 0.000000 0.849415 0.524489
O O11 0.879044 0.000000 0.500000
#
# Coordination Sequence:
#
# PCOD9475754 Si02
#       4
#    16  16  16  16
#     4  11  23  40  65  96 131 173 221 274 330 391
#     4  11  23  41  69  98 126 168 224 275 325 390
#     4   9  19  37  61  92 131 171 215 269 326 388
#     4  11  24  43  65  95 136 177 219 269 330 396
#
# _framework density 22.513497000000001
#
# number of rings (size 3 to 8) (size 9 to 14) (size 15 to 20)
#    0.000    1.500    2.500    2.250    0.000    5.500 
#    0.000    0.000    0.000    2.250    0.000    0.000 
#    0.000    0.000    0.000    0.000    0.000    0.000 
#
# Total GULP energy -178262.232580 kJ/mol
# GULP energy per Si atom -5570.694768 kJ/mol
# Density = 2.246226 g / cm^3
# Si number density = 22.513497 Si / 1000 Ang^3
#
#
#
# Elastic Constant Matrix: (Units=GPa)
#
#
# Indices 1 2 3 4 5 6 
#
# 1 172.5705 22.2132 73.2923 0.0000 0.0000 0.0000
# 2 22.2132 66.7245 2.2526 0.0000 0.0000 0.0000
# 3 73.2923 2.2526 88.4985 0.0000 0.0000 0.0000
# 4 0.0000 0.0000 0.0000 32.6421 0.0000 0.0000
# 5 0.0000 0.0000 0.0000 0.0000 -324.0253 0.0000
# 6 0.0000 0.0000 0.0000 0.0000 0.0000-1324.4113
#
#
#
# Elastic Compliance Matrix: (Units=1/GPa)
#
#
# Indices 1 2 3 4 5 6 
#
# 1 0.009464 -0.002889 -0.007765 0.000000 0.000000 0.000000
# 2 -0.002889 0.015882 0.001988 0.000000 0.000000 0.000000
# 3 -0.007765 0.001988 0.017679 0.000000 0.000000 0.000000
# 4 0.000000 0.000000 0.000000 0.030635 0.000000 0.000000
# 5 0.000000 0.000000 0.000000 0.000000 -0.003086 0.000000
# 6 0.000000 0.000000 0.000000 0.000000 0.000000 -0.000755
#
#
# Mechanical properties :
#
#
# Convention : Reuss Voigt Hill
#
# Bulk Modulus (GPa) = 38.91811 58.14554 48.53182
# Shear Modulus (GPa) = 52.23876 -307.82322 -127.79223
#
# Velocity S-wave (km/s) = 4.82221 -11.70577 -7.54226
# Velocity P-wave (km/s) = 6.95191 12.52266 7.36506
#
# Compressibility (1/GPa) = 0.02569498
#
# Stress axis : x y z
#
# Youngs Moduli (GPa) = 105.66116 62.96624 56.56295
#
# Poissons Ratio (x) = 0.18188 0.43918
# Poissons Ratio (y) = 0.30521 -0.11245
# Poissons Ratio (z) = 0.82041 -0.12518
#
# Static dielectric constant tensor:
#      x y z
#    x 1.916320 0.000000 0.000000 
#    y 0.000000 1.778090 0.000000 
#    z 0.000000 0.000000 1.896530 
# 
# From -- ./inp_files/41485.got.cif
#   From: 2010.05.17/outbox.cif.g08.bks.cpg/sg63_21_cif.got.tgz:41485.got - 2010.06.03 15:47:04.
