data_PCOD9475245
_publ_section_title
;
Structure prediction by ZEFSAII (Michael W. Deem and Ramdas Pophale) SiO2 
 PCOD9475245
Probable space group: C M C M
;
_chemical_formula_sum "Si O2"
_cell_formula_units_Z 96
_cell_length_a 15.690133
_cell_length_b 21.855991
_cell_length_c 13.805649
_cell_angle_alpha 90.000000
_cell_angle_beta 90.000000
_cell_angle_gamma 90.000000
_cell_volume 4734.280172
_symmetry_space_group_name_H-M "C M C M"
_symmetry_group_IT_number 63
_symmetry_cell_setting 'orthorhombic'
loop_
_space_group_symop_operation_xyz
x,y,z
-x,-y,1/2+z
x,-y,-z
-x,y,1/2-z
-x,-y,-z
x,y,1/2-z
-x,y,z
x,-y,1/2+z
1/2+x,1/2+y,z
1/2-x,1/2-y,1/2+z
1/2+x,1/2-y,-z
1/2-x,1/2+y,1/2-z
1/2-x,1/2-y,-z
1/2+x,1/2+y,1/2-z
1/2-x,1/2+y,z
1/2+x,1/2-y,1/2+z
loop_
_atom_site_type_symbol
_atom_site_label
_atom_site_fract_x
_atom_site_fract_y
_atom_site_fract_z
Si Si1 0.000000 0.874443 0.357582
Si Si2 0.900461 0.532522 0.356916
Si Si3 0.099923 0.158312 0.138120
Si Si4 0.351903 0.431268 0.018854
Si Si5 0.500000 0.228591 0.361830
Si Si6 0.836423 0.586375 0.944179
Si Si7 0.848093 0.725219 0.983950
O O1 0.081763 0.896218 0.415155
O O2 0.000000 0.900435 0.250000
O O3 0.000000 0.801773 0.353578
O O4 0.866466 0.546135 0.250000
O O5 0.856915 0.567995 0.444750
O O6 0.891025 0.460024 0.379498
O O7 0.000000 0.548370 0.359881
O O8 0.124672 0.163240 0.250000
O O9 0.000000 0.140868 0.132817
O O10 0.152617 0.107329 0.080207
O O11 0.111219 0.222552 0.083336
O O12 0.261340 0.431760 0.070671
O O13 0.380641 0.500000 0.000000
O O14 0.500000 0.203878 0.250000
O O15 0.587167 0.215733 0.423778
O O16 0.845973 0.658775 0.933438
O O17 0.750000 0.750000 0.000000
#
# Coordination Sequence:
#
# PCOD9475245 Si02
#       7
#     8  16  16  16   8  16  16
#     4  11  23  41  65  93 127 167 214 262 316 379
#     4  10  23  43  64  93 129 165 212 261 314 383
#     4  11  24  43  66  93 129 169 213 264 320 382
#     4  12  22  43  64  91 132 167 213 264 317 377
#     4  11  24  43  67  98 134 173 216 272 331 391
#     4  11  23  40  68  93 127 171 207 265 323 373
#     4  12  23  43  68  94 135 170 218 272 325 389
#
# _framework density 20.277633999999999
#
# number of rings (size 3 to 8) (size 9 to 14) (size 15 to 20)
#    0.000    0.833    6.667    1.250    2.333    4.000 
#    0.000    1.667    0.000    0.000    0.000    0.000 
#    0.000    0.000    0.000    0.000    0.000    0.000 
#
# Total GULP energy -268024.171141 kJ/mol
# GULP energy per Si atom -5583.836899 kJ/mol
# Density = 2.023148 g / cm^3
# Si number density = 20.277634 Si / 1000 Ang^3
#
#
#
# Elastic Constant Matrix: (Units=GPa)
#
#
# Indices 1 2 3 4 5 6 
#
# 1 81.1406 -25.6987 8.9727 0.0000 0.0000 0.0000
# 2 -25.6987 83.0372 -13.7256 0.0000 0.0000 0.0000
# 3 8.9727 -13.7256 84.6069 0.0000 0.0000 0.0000
# 4 0.0000 0.0000 0.0000 5.2224 0.0000 0.0000
# 5 0.0000 0.0000 0.0000 0.0000 -6.6961 0.0000
# 6 0.0000 0.0000 0.0000 0.0000 0.0000 31.1501
#
#
#
# Elastic Compliance Matrix: (Units=1/GPa)
#
#
# Indices 1 2 3 4 5 6 
#
# 1 0.013714 0.004114 -0.000787 0.000000 0.000000 0.000000
# 2 0.004114 0.013609 0.001771 0.000000 0.000000 0.000000
# 3 -0.000787 0.001771 0.012190 0.000000 0.000000 0.000000
# 4 0.000000 0.000000 0.000000 0.191482 0.000000 0.000000
# 5 0.000000 0.000000 0.000000 0.000000 -0.149341 0.000000
# 6 0.000000 0.000000 0.000000 0.000000 0.000000 0.032103
#
#
# Mechanical properties :
#
#
# Convention : Reuss Voigt Hill
#
# Bulk Modulus (GPa) = 20.11630 20.87575 20.49602
# Shear Modulus (GPa) = 41.62157 24.55104 33.08630
#
# Velocity S-wave (km/s) = 4.53546 3.48335 4.04377
# Velocity P-wave (km/s) = 6.11303 5.14739 5.65088
#
# Compressibility (1/GPa) = 0.04971093
#
# Stress axis : x y z
#
# Youngs Moduli (GPa) = 72.91617 73.48128 82.03314
#
# Poissons Ratio (x) = -0.30232 0.06456
# Poissons Ratio (y) = -0.30000 -0.14531
# Poissons Ratio (z) = 0.05738 -0.13017
#
# Static dielectric constant tensor:
#      x y z
#    x 1.928020 0.000000 0.000000 
#    y 0.000000 1.699960 0.000000 
#    z 0.000000 0.000000 1.736370 
# 
# From -- ./inp_files/31973.got.cif
#   From: 2010.05.17/outbox.cif.g08.bks.cpg/sg63_16_cif.got.tgz:31973.got - 2010.06.03 15:47:04.
