data_PCOD9475201
_publ_section_title
;
Structure prediction by ZEFSAII (Michael W. Deem and Ramdas Pophale) SiO2 
 PCOD9475201
Probable space group: C M C M
;
_chemical_formula_sum "Si O2"
_cell_formula_units_Z 116
_cell_length_a 20.175719
_cell_length_b 14.399813
_cell_length_c 18.273693
_cell_angle_alpha 90.000000
_cell_angle_beta 90.000000
_cell_angle_gamma 90.000000
_cell_volume 5308.993545
_symmetry_space_group_name_H-M "C M C M"
_symmetry_group_IT_number 63
_symmetry_cell_setting 'orthorhombic'
loop_
_space_group_symop_operation_xyz
x,y,z
-x,-y,1/2+z
x,-y,-z
-x,y,1/2-z
-x,-y,-z
x,y,1/2-z
-x,y,z
x,-y,1/2+z
1/2+x,1/2+y,z
1/2-x,1/2-y,1/2+z
1/2+x,1/2-y,-z
1/2-x,1/2+y,1/2-z
1/2-x,1/2-y,-z
1/2+x,1/2+y,1/2-z
1/2-x,1/2+y,z
1/2+x,1/2-y,1/2+z
loop_
_atom_site_type_symbol
_atom_site_label
_atom_site_fract_x
_atom_site_fract_y
_atom_site_fract_z
Si Si1 0.266419 0.816358 0.123823
Si Si2 0.900428 0.207115 0.381626
Si Si3 0.711847 0.899620 0.521417
Si Si4 0.615057 0.295954 0.165408
Si Si5 0.073031 0.679063 0.474157
Si Si6 0.107297 0.992738 0.667504
Si Si7 0.233899 0.477268 0.830061
Si Si8 0.500000 0.249642 0.750000
O O1 0.324614 0.741406 0.132212
O O2 0.195537 0.797058 0.159829
O O3 0.291526 0.918468 0.151024
O O4 0.254074 0.832543 0.036897
O O5 0.921479 0.247112 0.459899
O O6 0.910524 0.095897 0.380567
O O7 0.942960 0.246685 0.314903
O O8 0.633575 0.889535 0.509257
O O9 0.719151 0.901573 0.608260
O O10 0.738829 0.000000 0.500000
O O11 0.596955 0.276102 0.250000
O O12 0.586939 0.228100 0.103696
O O13 0.591006 0.401576 0.147516
O O14 0.000000 0.637087 0.474271
O O15 0.081429 0.974976 0.750000
O O16 0.187046 0.989379 0.671396
O O17 0.209956 0.449141 0.750000
#
# Coordination Sequence:
#
# PCOD9475201 Si02
#       8
#    16  16  16  16  16  16  16   4
#     4   9  20  37  63  91 123 151 197 255 311 363
#     4  11  23  39  63  89 118 160 199 251 310 360
#     4   9  20  38  60  88 119 157 195 249 316 358
#     4  10  23  41  61  90 121 161 202 248 300 359
#     4  11  25  43  58  84 122 161 208 250 296 365
#     4   9  19  36  57  87 121 152 195 247 299 353
#     4   9  18  33  57  90 123 151 194 250 306 364
#     4  12  24  40  60  94 124 152 204 256 298 362
#
# _framework density 21.849716999999998
#
# number of rings (size 3 to 8) (size 9 to 14) (size 15 to 20)
#    0.000    2.207    1.379    1.241    5.793    2.759 
#    1.241    0.690    0.000    0.000    0.000    0.000 
#    0.000    0.000    0.000    0.000    0.000    0.000 
#
# Total GULP energy -323158.444689 kJ/mol
# GULP energy per Si atom -5571.697322 kJ/mol
# Density = 2.179999 g / cm^3
# Si number density = 21.849717 Si / 1000 Ang^3
#
#
#
# Elastic Constant Matrix: (Units=GPa)
#
#
# Indices 1 2 3 4 5 6 
#
# 1 45.8853 -7.2315 2.3942 0.0000 0.0000 0.0000
# 2 -7.2315 41.7899 21.7950 0.0000 0.0000 0.0000
# 3 2.3942 21.7950 140.3834 0.0000 0.0000 0.0000
# 4 0.0000 0.0000 0.0000 25.7698 0.0000 0.0000
# 5 0.0000 0.0000 0.0000 0.0000 16.1262 0.0000
# 6 0.0000 0.0000 0.0000 0.0000 0.0000 -9.0764
#
#
#
# Elastic Compliance Matrix: (Units=1/GPa)
#
#
# Indices 1 2 3 4 5 6 
#
# 1 0.022553 0.004465 -0.001078 0.000000 0.000000 0.000000
# 2 0.004465 0.026921 -0.004256 0.000000 0.000000 0.000000
# 3 -0.001078 -0.004256 0.007802 0.000000 0.000000 0.000000
# 4 0.000000 0.000000 0.000000 0.038805 0.000000 0.000000
# 5 0.000000 0.000000 0.000000 0.000000 0.062011 0.000000
# 6 0.000000 0.000000 0.000000 0.000000 0.000000 -0.110176
#
#
# Mechanical properties :
#
#
# Convention : Reuss Voigt Hill
#
# Bulk Modulus (GPa) = 18.00515 29.10823 23.55669
# Shear Modulus (GPa) = 73.34848 20.63732 46.99290
#
# Velocity S-wave (km/s) = 5.80021 3.07663 4.64263
# Velocity P-wave (km/s) = 7.28800 5.09625 6.28835
#
# Compressibility (1/GPa) = 0.05553966
#
# Stress axis : x y z
#
# Youngs Moduli (GPa) = 44.33924 37.14523 128.16481
#
# Poissons Ratio (x) = -0.16585 0.13814
# Poissons Ratio (y) = -0.19797 0.54544
# Poissons Ratio (z) = 0.04779 0.15808
#
# Static dielectric constant tensor:
#      x y z
#    x 1.795100 0.000000 0.000000 
#    y 0.000000 1.830130 0.000000 
#    z 0.000000 0.000000 1.830280 
# 
# From -- ./inp_files/45892.got.cif
#   From: 2010.05.17/outbox.cif.g08.bks.cpg/sg63_23_cif.got.tgz:45892.got - 2010.06.03 15:47:04.
