data_PCOD9475892
_publ_section_title
;
Structure prediction by ZEFSAII (Michael W. Deem and Ramdas Pophale) SiO2 
 PCOD9475892
Probable space group: C M C M
;
_chemical_formula_sum "Si O2"
_cell_formula_units_Z 64
_cell_length_a 11.463563
_cell_length_b 27.347435
_cell_length_c 10.194444
_cell_angle_alpha 90.000000
_cell_angle_beta 90.000000
_cell_angle_gamma 90.000000
_cell_volume 3195.948448
_symmetry_space_group_name_H-M "C M C M"
_symmetry_group_IT_number 63
_symmetry_cell_setting 'orthorhombic'
loop_
_space_group_symop_operation_xyz
x,y,z
-x,-y,1/2+z
x,-y,-z
-x,y,1/2-z
-x,-y,-z
x,y,1/2-z
-x,y,z
x,-y,1/2+z
1/2+x,1/2+y,z
1/2-x,1/2-y,1/2+z
1/2+x,1/2-y,-z
1/2-x,1/2+y,1/2-z
1/2-x,1/2-y,-z
1/2+x,1/2+y,1/2-z
1/2-x,1/2+y,z
1/2+x,1/2-y,1/2+z
loop_
_atom_site_type_symbol
_atom_site_label
_atom_site_fract_x
_atom_site_fract_y
_atom_site_fract_z
Si Si1 0.500000 0.884224 0.250000
Si Si2 0.500000 0.162892 0.250000
Si Si3 0.639075 0.645787 0.476521
Si Si4 0.751692 0.789323 0.750000
Si Si5 0.743152 0.541034 0.100979
Si Si6 0.757078 0.327041 0.250000
Si Si7 0.000000 0.576319 0.458802
O O1 0.384409 0.851296 0.250000
O O2 0.500000 0.914796 0.385109
O O3 0.383879 0.195083 0.250000
O O4 0.500000 0.127391 0.377394
O O5 0.500000 0.647291 0.476456
O O6 0.689268 0.686104 0.376778
O O7 0.683932 0.593062 0.427804
O O8 0.689874 0.655727 0.620217
O O9 0.765327 0.731440 0.750000
O O10 0.719927 0.526200 0.250000
O O11 0.881949 0.549208 0.082331
O O12 0.702872 0.500000 0.000000
#
# Coordination Sequence:
#
# PCOD9475892 Si02
#       7
#     4   4  16   8  16   8   8
#     4  12  24  40  75 100 148 176 229 290 346 400
#     4  12  20  44  75  98 140 186 221 298 352 400
#     4  12  26  48  70 100 148 187 231 287 343 416
#     4  12  25  46  75 102 139 186 239 283 350 408
#     4  12  26  45  72 104 138 182 233 286 352 414
#     4  12  27  46  69 112 137 186 235 289 342 410
#     4  12  21  44  67 102 145 180 224 290 353 407
#
# _framework density 20.025354
#
# number of rings (size 3 to 8) (size 9 to 14) (size 15 to 20)
#    0.000    0.000    7.500    1.875    7.000    0.500 
#    0.000    0.000    0.000    0.000    0.000    0.000 
#    0.000    0.000    0.000    0.000    0.000    0.000 
#
# Total GULP energy -179262.481903 kJ/mol
# GULP energy per Si atom -5601.952559 kJ/mol
# Density = 1.997978 g / cm^3
# Si number density = 20.025354 Si / 1000 Ang^3
#
#
#
# Elastic Constant Matrix: (Units=GPa)
#
#
# Indices 1 2 3 4 5 6 
#
# 1 137.3319 12.1849 38.2686 0.0000 0.0000 0.0000
# 2 12.1849 79.1706 44.5040 0.0000 0.0000 0.0000
# 3 38.2686 44.5040 200.5781 0.0000 0.0000 0.0000
# 4 0.0000 0.0000 0.0000 552.3155 0.0000 0.0000
# 5 0.0000 0.0000 0.0000 0.0000 25.8988 0.0000
# 6 0.0000 0.0000 0.0000 0.0000 0.0000 3.8753
#
#
#
# Elastic Compliance Matrix: (Units=1/GPa)
#
#
# Indices 1 2 3 4 5 6 
#
# 1 0.007702 -0.000411 -0.001378 0.000000 0.000000 0.000000
# 2 -0.000411 0.014453 -0.003128 0.000000 0.000000 0.000000
# 3 -0.001378 -0.003128 0.005943 0.000000 0.000000 0.000000
# 4 0.000000 0.000000 0.000000 0.001811 0.000000 0.000000
# 5 0.000000 0.000000 0.000000 0.000000 0.038612 0.000000
# 6 0.000000 0.000000 0.000000 0.000000 0.000000 0.258047
#
#
# Mechanical properties :
#
#
# Convention : Reuss Voigt Hill
#
# Bulk Modulus (GPa) = 54.75616 67.44395 61.10005
# Shear Modulus (GPa) = 14.59901 137.89280 76.24591
#
# Velocity S-wave (km/s) = 2.70298 8.30714 6.17716
# Velocity P-wave (km/s) = 6.09461 11.21445 9.02519
#
# Compressibility (1/GPa) = 0.01826278
#
# Stress axis : x y z
#
# Youngs Moduli (GPa) = 129.83364 69.19119 168.27343
#
# Poissons Ratio (x) = 0.02841 0.23195
# Poissons Ratio (y) = 0.05331 0.52643
# Poissons Ratio (z) = 0.17896 0.21646
#
# Static dielectric constant tensor:
#      x y z
#    x 1.672230 0.000000 0.000000 
#    y 0.000000 1.679500 0.000000 
#    z 0.000000 0.000000 1.691630 
# 
# From -- ./inp_files/3264.got.cif
#   From: 2010.05.17/outbox.cif.g08.bks.cpg/sg63_2_cif.got.tgz:3264.got - 2010.06.03 15:47:04.
