data_PCOD9475463
_publ_section_title
;
Structure prediction by ZEFSAII (Michael W. Deem and Ramdas Pophale) SiO2 
 PCOD9475463
Probable space group: C M C M
;
_chemical_formula_sum "Si O2"
_cell_formula_units_Z 80
_cell_length_a 17.275512
_cell_length_b 10.116169
_cell_length_c 22.004466
_cell_angle_alpha 90.000000
_cell_angle_beta 90.000000
_cell_angle_gamma 90.000000
_cell_volume 3845.544464
_symmetry_space_group_name_H-M "C M C M"
_symmetry_group_IT_number 63
_symmetry_cell_setting 'orthorhombic'
loop_
_space_group_symop_operation_xyz
x,y,z
-x,-y,1/2+z
x,-y,-z
-x,y,1/2-z
-x,-y,-z
x,y,1/2-z
-x,y,z
x,-y,1/2+z
1/2+x,1/2+y,z
1/2-x,1/2-y,1/2+z
1/2+x,1/2-y,-z
1/2-x,1/2+y,1/2-z
1/2-x,1/2-y,-z
1/2+x,1/2+y,1/2-z
1/2-x,1/2+y,z
1/2+x,1/2-y,1/2+z
loop_
_atom_site_type_symbol
_atom_site_label
_atom_site_fract_x
_atom_site_fract_y
_atom_site_fract_z
Si Si1 0.500000 0.510083 0.182122
Si Si2 0.612761 0.882307 0.075453
Si Si3 0.672971 0.520306 0.179327
Si Si4 0.238240 0.226246 0.623000
Si Si5 0.084122 0.691113 0.053840
Si Si6 0.500000 0.176837 0.817665
O O1 0.500000 0.446045 0.250000
O O2 0.585809 0.489753 0.154514
O O3 0.500000 0.667407 0.189076
O O4 0.702868 0.852171 0.079768
O O5 0.573640 0.854879 0.140361
O O6 0.591571 0.033195 0.062726
O O7 0.584905 0.792934 0.019169
O O8 0.664303 0.558937 0.250000
O O9 0.719057 0.639677 0.145905
O O10 0.718682 0.382131 0.174269
O O11 0.159098 0.254566 0.587411
O O12 0.000000 0.735176 0.077790
O O13 0.500000 0.116223 0.750000
#
# Coordination Sequence:
#
# PCOD9475463 Si02
#       6
#     8  16  16  16  16   8
#     4   9  20  38  61  87 127 172 206 255 327 389
#     4  11  21  42  66  95 130 173 218 271 321 388
#     4  11  24  42  65  95 135 175 215 271 334 390
#     4  12  24  41  66  98 130 168 226 269 322 393
#     4  11  23  42  66  91 131 178 220 265 329 380
#     4  11  20  35  67 101 127 168 218 265 323 401
#
# _framework density 20.803297000000001
#
# number of rings (size 3 to 8) (size 9 to 14) (size 15 to 20)
#    0.000    1.000    6.000    1.800    1.400    0.800 
#    0.000    0.000    0.000    2.400    0.000    0.000 
#    0.000    0.000    0.000    0.000    0.000    0.000 
#
# Total GULP energy -222884.500821 kJ/mol
# GULP energy per Si atom -5572.112521 kJ/mol
# Density = 2.075595 g / cm^3
# Si number density = 20.803297 Si / 1000 Ang^3
#
#
#
# Elastic Constant Matrix: (Units=GPa)
#
#
# Indices 1 2 3 4 5 6 
#
# 1 192.1993 34.5854 42.2930 0.0000 0.0000 0.0000
# 2 34.5854 50.0809 16.9798 0.0000 0.0000 0.0000
# 3 42.2930 16.9798 85.1258 0.0000 0.0000 0.0000
# 4 0.0000 0.0000 0.0000 -3.9620 0.0000 0.0000
# 5 0.0000 0.0000 0.0000 0.0000 24.9418 0.0000
# 6 0.0000 0.0000 0.0000 0.0000 0.0000 26.2769
#
#
#
# Elastic Compliance Matrix: (Units=1/GPa)
#
#
# Indices 1 2 3 4 5 6 
#
# 1 0.006388 -0.003577 -0.002460 0.000000 0.000000 0.000000
# 2 -0.003577 0.023419 -0.002894 0.000000 0.000000 0.000000
# 3 -0.002460 -0.002894 0.013547 0.000000 0.000000 0.000000
# 4 0.000000 0.000000 0.000000 -0.252400 0.000000 0.000000
# 5 0.000000 0.000000 0.000000 0.000000 0.040093 0.000000
# 6 0.000000 0.000000 0.000000 0.000000 0.000000 0.038056
#
#
# Mechanical properties :
#
#
# Convention : Reuss Voigt Hill
#
# Bulk Modulus (GPa) = 39.22940 57.23581 48.23260
# Shear Modulus (GPa) = -47.83060 25.02121 -11.40470
#
# Velocity S-wave (km/s) = -4.80018 3.47183 -2.34394
# Velocity P-wave (km/s) = 3.43862 6.60637 3.98873
#
# Compressibility (1/GPa) = 0.02549108
#
# Stress axis : x y z
#
# Youngs Moduli (GPa) = 156.54286 42.69956 73.81778
#
# Poissons Ratio (x) = 0.15275 0.18161
# Poissons Ratio (y) = 0.56002 0.21363
# Poissons Ratio (z) = 0.38512 0.12357
#
# Static dielectric constant tensor:
#      x y z
#    x 1.827260 0.000000 0.000000 
#    y 0.000000 1.720860 0.000000 
#    z 0.000000 0.000000 1.826490 
# 
# From -- ./inp_files/55298.got.cif
#   From: 2010.05.17/outbox.cif.g08.bks.cpg/sg63_28_cif.got.tgz:55298.got - 2010.06.03 15:47:04.
