data_PCOD9475484
_publ_section_title
;
Structure prediction by ZEFSAII (Michael W. Deem and Ramdas Pophale) SiO2 
 PCOD9475484
Probable space group: C M C M
;
_chemical_formula_sum "Si O2"
_cell_formula_units_Z 64
_cell_length_a 18.047347
_cell_length_b 16.769244
_cell_length_c 10.365239
_cell_angle_alpha 90.000000
_cell_angle_beta 90.000000
_cell_angle_gamma 90.000000
_cell_volume 3136.939718
_symmetry_space_group_name_H-M "C M C M"
_symmetry_group_IT_number 63
_symmetry_cell_setting 'orthorhombic'
loop_
_space_group_symop_operation_xyz
x,y,z
-x,-y,1/2+z
x,-y,-z
-x,y,1/2-z
-x,-y,-z
x,y,1/2-z
-x,y,z
x,-y,1/2+z
1/2+x,1/2+y,z
1/2-x,1/2-y,1/2+z
1/2+x,1/2-y,-z
1/2-x,1/2+y,1/2-z
1/2-x,1/2-y,-z
1/2+x,1/2+y,1/2-z
1/2-x,1/2+y,z
1/2+x,1/2-y,1/2+z
loop_
_atom_site_type_symbol
_atom_site_label
_atom_site_fract_x
_atom_site_fract_y
_atom_site_fract_z
Si Si1 0.087889 0.236188 0.250000
Si Si2 0.286711 0.156813 0.398791
Si Si3 0.864315 0.188035 0.526274
Si Si4 0.357467 0.000000 0.000000
Si Si5 0.086035 0.588969 0.750000
Si Si6 0.500000 0.573400 0.603809
O O1 0.108953 0.193606 0.119782
O O2 0.124190 0.324313 0.250000
O O3 0.000000 0.240613 0.250000
O O4 0.261049 0.166871 0.250000
O O5 0.221929 0.164265 0.506709
O O6 0.352537 0.222376 0.417920
O O7 0.314137 0.068119 0.423187
O O8 0.925507 0.129528 0.589718
O O9 0.398358 0.044397 0.883352
O O10 0.000000 0.603759 0.750000
O O11 0.500000 0.500000 0.500000
O O12 0.500000 0.540814 0.750000
#
# Coordination Sequence:
#
# PCOD9475484 Si02
#       6
#     8  16  16   8   8   8
#     4  11  20  39  70  92 126 177 230 275 333 408
#     4  11  24  42  68 100 138 181 228 280 345 410
#     4  11  24  45  70  98 134 182 230 286 341 412
#     4  12  23  42  62  97 138 176 218 278 340 405
#     4  11  24  41  62  98 130 173 228 275 333 404
#     4  12  30  52  74 107 140 181 236 291 354 415
#
# _framework density 20.402049000000002
#
# number of rings (size 3 to 8) (size 9 to 14) (size 15 to 20)
#    0.000    0.750    6.250    1.125    3.500    0.000 
#    4.500    0.000    0.000    0.000    0.000    0.000 
#    0.000    0.000    0.000    0.000    0.000    0.000 
#
# Total GULP energy -178160.207764 kJ/mol
# GULP energy per Si atom -5567.506493 kJ/mol
# Density = 2.035561 g / cm^3
# Si number density = 20.402049 Si / 1000 Ang^3
#
#
#
# Elastic Constant Matrix: (Units=GPa)
#
#
# Indices 1 2 3 4 5 6 
#
# 1 63.2928 19.5090 -4.0361 0.0000 0.0000 0.0000
# 2 19.5090 75.5663 4.0616 0.0000 0.0000 0.0000
# 3 -4.0361 4.0616 110.3301 0.0000 0.0000 0.0000
# 4 0.0000 0.0000 0.0000 34.1260 0.0000 0.0000
# 5 0.0000 0.0000 0.0000 0.0000 24.7529 0.0000
# 6 0.0000 0.0000 0.0000 0.0000 0.0000 19.6763
#
#
#
# Elastic Compliance Matrix: (Units=1/GPa)
#
#
# Indices 1 2 3 4 5 6 
#
# 1 0.017235 -0.004492 0.000796 0.000000 0.000000 0.000000
# 2 -0.004492 0.014431 -0.000696 0.000000 0.000000 0.000000
# 3 0.000796 -0.000696 0.009118 0.000000 0.000000 0.000000
# 4 0.000000 0.000000 0.000000 0.029303 0.000000 0.000000
# 5 0.000000 0.000000 0.000000 0.000000 0.040399 0.000000
# 6 0.000000 0.000000 0.000000 0.000000 0.000000 0.050822
#
#
# Mechanical properties :
#
#
# Convention : Reuss Voigt Hill
#
# Bulk Modulus (GPa) = 31.25007 32.02869 31.63938
# Shear Modulus (GPa) = 27.66103 31.02136 29.34120
#
# Velocity S-wave (km/s) = 3.68611 3.90359 3.79641
# Velocity P-wave (km/s) = 5.78506 6.00418 5.89564
#
# Compressibility (1/GPa) = 0.03199993
#
# Stress axis : x y z
#
# Youngs Moduli (GPa) = 58.02141 69.29727 109.66795
#
# Poissons Ratio (x) = 0.31131 -0.08728
# Poissons Ratio (y) = 0.26065 0.07628
# Poissons Ratio (z) = -0.04618 0.04820
#
# Static dielectric constant tensor:
#      x y z
#    x 1.762790 0.000000 0.000000 
#    y 0.000000 1.782140 0.000000 
#    z 0.000000 0.000000 1.708320 
# 
# From -- ./inp_files/20617.got.cif
#   From: 2010.05.17/outbox.cif.g08.bks.cpg/sg63_11_cif.got.tgz:20617.got - 2010.06.03 15:47:04.
