data_PCOD9475969
_publ_section_title
;
Structure prediction by ZEFSAII (Michael W. Deem and Ramdas Pophale) SiO2 
 PCOD9475969
Probable space group: C M C M
;
_chemical_formula_sum "Si O2"
_cell_formula_units_Z 80
_cell_length_a 7.414279
_cell_length_b 26.841029
_cell_length_c 20.300587
_cell_angle_alpha 90.000000
_cell_angle_beta 90.000000
_cell_angle_gamma 90.000000
_cell_volume 4039.956433
_symmetry_space_group_name_H-M "C M C M"
_symmetry_group_IT_number 63
_symmetry_cell_setting 'orthorhombic'
loop_
_space_group_symop_operation_xyz
x,y,z
-x,-y,1/2+z
x,-y,-z
-x,y,1/2-z
-x,-y,-z
x,y,1/2-z
-x,y,z
x,-y,1/2+z
1/2+x,1/2+y,z
1/2-x,1/2-y,1/2+z
1/2+x,1/2-y,-z
1/2-x,1/2+y,1/2-z
1/2-x,1/2-y,-z
1/2+x,1/2+y,1/2-z
1/2-x,1/2+y,z
1/2+x,1/2-y,1/2+z
loop_
_atom_site_type_symbol
_atom_site_label
_atom_site_fract_x
_atom_site_fract_y
_atom_site_fract_z
Si Si1 0.779586 0.055747 0.174607
Si Si2 0.287083 0.246626 0.421683
Si Si3 0.280478 0.557251 0.674579
Si Si4 0.778518 0.855200 0.421793
Si Si5 0.791044 0.136606 0.071978
O O1 0.723571 0.065702 0.250000
O O2 0.714087 0.096635 0.122741
O O3 0.000000 0.056820 0.174989
O O4 0.726240 0.999177 0.157074
O O5 0.500000 0.244370 0.410840
O O6 0.250000 0.250000 0.500000
O O7 0.221229 0.300331 0.396504
O O8 0.214558 0.193036 0.400382
O O9 0.225217 0.566974 0.750000
O O10 0.500000 0.557797 0.673843
O O11 0.220562 0.599752 0.624503
O O12 0.716316 0.862450 0.497471
O O13 0.000000 0.854145 0.422811
O O14 0.000000 0.122928 0.063663
#
# Coordination Sequence:
#
# PCOD9475969 Si02
#       5
#    16  16  16  16  16
#     4   8  14  24  38  57  81 108 136 166 204 248
#     4   9  16  27  42  61  85 110 136 166 203 246
#     4   8  13  22  36  55  81 108 130 161 209 253
#     4   8  14  23  36  56  79 103 132 165 201 239
#     4   9  16  26  41  61  84 108 135 169 204 240
#
# _framework density 19.802195000000001
#
# number of rings (size 3 to 8) (size 9 to 14) (size 15 to 20)
#    0.000    3.600    0.000    3.000    0.000    0.800 
#    0.000    5.000    0.000    1.800    0.000   12.600 
#    0.000   15.200    0.000    0.000    0.000    0.000 
#
# Total GULP energy -222758.158166 kJ/mol
# GULP energy per Si atom -5568.953954 kJ/mol
# Density = 1.975712 g / cm^3
# Si number density = 19.802195 Si / 1000 Ang^3
#
#
#
# Elastic Constant Matrix: (Units=GPa)
#
#
# Indices 1 2 3 4 5 6 
#
# 1 59.7974 -3.2261 2.8509 0.0000 0.0000 0.0000
# 2 -3.2261 206.8138 113.7260 0.0000 0.0000 0.0000
# 3 2.8509 113.7260 90.0599 0.0000 0.0000 0.0000
# 4 0.0000 0.0000 0.0000 -17.2418 0.0000 0.0000
# 5 0.0000 0.0000 0.0000 0.0000 -3.8889 0.0000
# 6 0.0000 0.0000 0.0000 0.0000 0.0000 11.3516
#
#
#
# Elastic Compliance Matrix: (Units=1/GPa)
#
#
# Indices 1 2 3 4 5 6 
#
# 1 0.016958 0.001832 -0.002850 0.000000 0.000000 0.000000
# 2 0.001832 0.016020 -0.020288 0.000000 0.000000 0.000000
# 3 -0.002850 -0.020288 0.036813 0.000000 0.000000 0.000000
# 4 0.000000 0.000000 0.000000 -0.057999 0.000000 0.000000
# 5 0.000000 0.000000 0.000000 0.000000 -0.257139 0.000000
# 6 0.000000 0.000000 0.000000 0.000000 0.000000 0.088093
#
#
# Mechanical properties :
#
#
# Convention : Reuss Voigt Hill
#
# Bulk Modulus (GPa) = 36.79308 64.81917 50.80612
# Shear Modulus (GPa) = -47.35617 14.26553 -16.54532
#
# Velocity S-wave (km/s) = -4.89556 2.68694 -2.89369
# Velocity P-wave (km/s) = 3.65167 6.51388 3.81418
#
# Compressibility (1/GPa) = 0.02717902
#
# Stress axis : x y z
#
# Youngs Moduli (GPa) = 58.96992 62.42228 27.16447
#
# Poissons Ratio (x) = -0.11433 0.07741
# Poissons Ratio (y) = -0.10801 0.55110
# Poissons Ratio (z) = 0.16804 1.26640
#
# Static dielectric constant tensor:
#      x y z
#    x 1.799380 0.000000 0.000000 
#    y 0.000000 1.709410 0.000000 
#    z 0.000000 0.000000 1.661600 
# 
# From -- ./inp_files/40494.got.cif
#   From: 2010.05.17/outbox.cif.g08.bks.cpg/sg63_21_cif.got.tgz:40494.got - 2010.06.03 15:47:04.
