data_PCOD9475054
_publ_section_title
;
Structure prediction by ZEFSAII (Michael W. Deem and Ramdas Pophale) SiO2 
 PCOD9475054
Probable space group: C M C M
;
_chemical_formula_sum "Si O2"
_cell_formula_units_Z 72
_cell_length_a 27.205482
_cell_length_b 9.197762
_cell_length_c 14.758221
_cell_angle_alpha 90.000000
_cell_angle_beta 90.000000
_cell_angle_gamma 90.000000
_cell_volume 3692.942978
_symmetry_space_group_name_H-M "C M C M"
_symmetry_group_IT_number 63
_symmetry_cell_setting 'orthorhombic'
loop_
_space_group_symop_operation_xyz
x,y,z
-x,-y,1/2+z
x,-y,-z
-x,y,1/2-z
-x,-y,-z
x,y,1/2-z
-x,y,z
x,-y,1/2+z
1/2+x,1/2+y,z
1/2-x,1/2-y,1/2+z
1/2+x,1/2-y,-z
1/2-x,1/2+y,1/2-z
1/2-x,1/2-y,-z
1/2+x,1/2+y,1/2-z
1/2-x,1/2+y,z
1/2+x,1/2-y,1/2+z
loop_
_atom_site_type_symbol
_atom_site_label
_atom_site_fract_x
_atom_site_fract_y
_atom_site_fract_z
Si Si1 0.869488 0.500000 0.000000
Si Si2 0.803914 0.045714 0.349090
Si Si3 0.722183 0.162496 0.579747
Si Si4 0.555616 0.742863 0.975940
Si Si5 0.583359 0.536405 0.139025
O O1 0.830112 0.586420 0.938221
O O2 0.904993 0.627708 0.037070
O O3 0.807430 0.980675 0.250000
O O4 0.761266 0.958755 0.396567
O O5 0.858730 0.034835 0.386311
O O6 0.788579 0.212936 0.348266
O O7 0.750000 0.250000 0.500000
O O8 0.500000 0.798666 0.969600
O O9 0.562096 0.665545 0.075283
O O10 0.562533 0.614724 0.901276
O O11 0.577497 0.551369 0.250000
#
# Coordination Sequence:
#
# PCOD9475054 Si02
#       5
#     8  16  16  16  16
#     4  12  23  40  64  88 130 160 209 256 310 372
#     4  11  23  38  59  92 127 158 200 245 300 371
#     4  12  22  38  62  89 121 167 198 241 299 372
#     4  11  24  42  66  91 121 164 213 261 315 369
#     4  10  22  41  67  95 124 160 207 261 309 368
#
# _framework density 19.496645000000001
#
# number of rings (size 3 to 8) (size 9 to 14) (size 15 to 20)
#    0.000    0.889    4.444    3.667    3.111    1.778 
#    0.000    2.222    0.000    2.667    0.000    0.000 
#    0.000    0.000    0.000    0.000    0.000    0.000 
#
# Total GULP energy -200547.172230 kJ/mol
# GULP energy per Si atom -5570.754784 kJ/mol
# Density = 1.945227 g / cm^3
# Si number density = 19.496645 Si / 1000 Ang^3
#
#
#
# Elastic Constant Matrix: (Units=GPa)
#
#
# Indices 1 2 3 4 5 6 
#
# 1 152.3688 38.1893 23.2437 0.0000 0.0000 0.0000
# 2 38.1893 100.7517 18.0221 0.0000 0.0000 0.0000
# 3 23.2437 18.0221 76.8645 0.0000 0.0000 0.0000
# 4 0.0000 0.0000 0.0000 15.8247 0.0000 0.0000
# 5 0.0000 0.0000 0.0000 0.0000 102.7037 0.0000
# 6 0.0000 0.0000 0.0000 0.0000 0.0000 22.1178
#
#
#
# Elastic Compliance Matrix: (Units=1/GPa)
#
#
# Indices 1 2 3 4 5 6 
#
# 1 0.007450 -0.002527 -0.001660 0.000000 0.000000 0.000000
# 2 -0.002527 0.011217 -0.001866 0.000000 0.000000 0.000000
# 3 -0.001660 -0.001866 0.013949 0.000000 0.000000 0.000000
# 4 0.000000 0.000000 0.000000 0.063192 0.000000 0.000000
# 5 0.000000 0.000000 0.000000 0.000000 0.009737 0.000000
# 6 0.000000 0.000000 0.000000 0.000000 0.000000 0.045212
#
#
# Mechanical properties :
#
#
# Convention : Reuss Voigt Hill
#
# Bulk Modulus (GPa) = 48.75652 54.32169 51.53911
# Shear Modulus (GPa) = 29.46372 44.83122 37.14747
#
# Velocity S-wave (km/s) = 3.89166 4.80044 4.36974
# Velocity P-wave (km/s) = 6.72720 7.65821 7.20776
#
# Compressibility (1/GPa) = 0.02051008
#
# Stress axis : x y z
#
# Youngs Moduli (GPa) = 134.23541 89.15121 71.68735
#
# Poissons Ratio (x) = 0.22526 0.11902
# Poissons Ratio (y) = 0.33918 0.13376
# Poissons Ratio (z) = 0.22287 0.16635
#
# Static dielectric constant tensor:
#      x y z
#    x 1.707310 0.000000 0.000000 
#    y 0.000000 1.671300 0.000000 
#    z 0.000000 0.000000 1.816020 
# 
# From -- ./inp_files/37545.got.cif
#   From: 2010.05.17/outbox.cif.g08.bks.cpg/sg63_19_cif.got.tgz:37545.got - 2010.06.03 15:47:04.
