data_PCOD9475856
_publ_section_title
;
Structure prediction by ZEFSAII (Michael W. Deem and Ramdas Pophale) SiO2 
 PCOD9475856
Probable space group: C M C M
;
_chemical_formula_sum "Si O2"
_cell_formula_units_Z 48
_cell_length_a 9.230021
_cell_length_b 21.748421
_cell_length_c 12.769507
_cell_angle_alpha 90.000000
_cell_angle_beta 90.000000
_cell_angle_gamma 90.000000
_cell_volume 2563.330181
_symmetry_space_group_name_H-M "C M C M"
_symmetry_group_IT_number 63
_symmetry_cell_setting 'orthorhombic'
loop_
_space_group_symop_operation_xyz
x,y,z
-x,-y,1/2+z
x,-y,-z
-x,y,1/2-z
-x,-y,-z
x,y,1/2-z
-x,y,z
x,-y,1/2+z
1/2+x,1/2+y,z
1/2-x,1/2-y,1/2+z
1/2+x,1/2-y,-z
1/2-x,1/2+y,1/2-z
1/2-x,1/2-y,-z
1/2+x,1/2+y,1/2-z
1/2-x,1/2+y,z
1/2+x,1/2-y,1/2+z
loop_
_atom_site_type_symbol
_atom_site_label
_atom_site_fract_x
_atom_site_fract_y
_atom_site_fract_z
Si Si1 0.669969 0.854951 0.867922
Si Si2 0.831778 0.069263 0.957579
Si Si3 0.672200 0.892768 0.250000
Si Si4 0.669525 0.264589 0.250000
O O1 0.695662 0.881325 0.750000
O O2 0.500000 0.864403 0.892737
O O3 0.692359 0.781930 0.848038
O O4 0.769435 0.885184 0.954191
O O5 0.738783 0.076639 0.853170
O O6 0.000000 0.083322 0.935842
O O7 0.821555 0.000000 0.000000
O O8 0.500000 0.896112 0.250000
O O9 0.727287 0.822271 0.250000
O O10 0.500000 0.282988 0.250000
#
# Coordination Sequence:
#
# PCOD9475856 Si02
#       4
#    16  16   8   8
#     4   8  18  38  64  92 120 156 199 244 298 353
#     4  11  25  42  62  88 123 163 202 248 301 360
#     4  12  26  41  62  91 121 158 204 250 301 356
#     4   8  18  39  64  91 125 156 196 250 299 358
#
# _framework density 18.725641
#
# number of rings (size 3 to 8) (size 9 to 14) (size 15 to 20)
#    1.000    1.333    0.000    2.500    2.333    6.000 
#    0.000    0.000    0.000    0.000    0.000    0.000 
#    0.000    0.000    0.000    0.000    0.000    0.000 
#
# Total GULP energy -133842.131642 kJ/mol
# GULP energy per Si atom -5576.755485 kJ/mol
# Density = 1.868302 g / cm^3
# Si number density = 18.725641 Si / 1000 Ang^3
#
#
#
# Elastic Constant Matrix: (Units=GPa)
#
#
# Indices 1 2 3 4 5 6 
#
# 1 172.5201 65.4968 91.1523 0.0000 0.0000 0.0000
# 2 65.4968 58.9927 43.7985 0.0000 0.0000 0.0000
# 3 91.1523 43.7985 105.2434 0.0000 0.0000 0.0000
# 4 0.0000 0.0000 0.0000 25.4705 0.0000 0.0000
# 5 0.0000 0.0000 0.0000 0.0000 39.8568 0.0000
# 6 0.0000 0.0000 0.0000 0.0000 0.0000 29.0132
#
#
#
# Elastic Compliance Matrix: (Units=1/GPa)
#
#
# Indices 1 2 3 4 5 6 
#
# 1 0.013345 -0.009023 -0.007803 0.000000 0.000000 0.000000
# 2 -0.009023 0.030631 -0.004933 0.000000 0.000000 0.000000
# 3 -0.007803 -0.004933 0.018313 0.000000 0.000000 0.000000
# 4 0.000000 0.000000 0.000000 0.039261 0.000000 0.000000
# 5 0.000000 0.000000 0.000000 0.000000 0.025090 0.000000
# 6 0.000000 0.000000 0.000000 0.000000 0.000000 0.034467
#
#
# Mechanical properties :
#
#
# Convention : Reuss Voigt Hill
#
# Bulk Modulus (GPa) = 53.27236 81.96124 67.61680
# Shear Modulus (GPa) = 23.71006 27.95534 25.83270
#
# Velocity S-wave (km/s) = 3.56220 3.86799 3.71824
# Velocity P-wave (km/s) = 6.74016 7.98830 7.39063
#
# Compressibility (1/GPa) = 0.01877146
#
# Stress axis : x y z
#
# Youngs Moduli (GPa) = 74.93654 32.64659 54.60615
#
# Poissons Ratio (x) = 0.29456 0.42609
# Poissons Ratio (y) = 0.67613 0.26937
# Poissons Ratio (z) = 0.58473 0.16104
#
# Static dielectric constant tensor:
#      x y z
#    x 1.614910 0.000000 0.000000 
#    y 0.000000 1.648730 0.000000 
#    z 0.000000 0.000000 1.640520 
# 
# From -- ./inp_files/15719.got.cif
#   From: 2010.05.17/outbox.cif.g08.bks.cpg/sg63_8_cif.got.tgz:15719.got - 2010.06.03 15:47:04.
