data_PCOD9475761
_publ_section_title
;
Structure prediction by ZEFSAII (Michael W. Deem and Ramdas Pophale) SiO2 
 PCOD9475761
Probable space group: C M C M
;
_chemical_formula_sum "Si O2"
_cell_formula_units_Z 80
_cell_length_a 7.864854
_cell_length_b 20.549538
_cell_length_c 26.342558
_cell_angle_alpha 90.000000
_cell_angle_beta 90.000000
_cell_angle_gamma 90.000000
_cell_volume 4257.460941
_symmetry_space_group_name_H-M "C M C M"
_symmetry_group_IT_number 63
_symmetry_cell_setting 'orthorhombic'
loop_
_space_group_symop_operation_xyz
x,y,z
-x,-y,1/2+z
x,-y,-z
-x,y,1/2-z
-x,-y,-z
x,y,1/2-z
-x,y,z
x,-y,1/2+z
1/2+x,1/2+y,z
1/2-x,1/2-y,1/2+z
1/2+x,1/2-y,-z
1/2-x,1/2+y,1/2-z
1/2-x,1/2-y,-z
1/2+x,1/2+y,1/2-z
1/2-x,1/2+y,z
1/2+x,1/2-y,1/2+z
loop_
_atom_site_type_symbol
_atom_site_label
_atom_site_fract_x
_atom_site_fract_y
_atom_site_fract_z
Si Si1 0.804097 0.996805 0.621629
Si Si2 0.297798 0.110166 0.550063
Si Si3 0.000000 0.547459 0.809369
Si Si4 0.191021 0.232279 0.618454
Si Si5 0.000000 0.295600 0.190712
Si Si6 0.797599 0.863018 0.565654
O O1 0.783867 0.045669 0.573927
O O2 0.667264 0.020130 0.662739
O O3 0.000000 0.999724 0.639365
O O4 0.765125 0.924415 0.602053
O O5 0.500000 0.106317 0.557842
O O6 0.227978 0.171841 0.581116
O O7 0.260156 0.119353 0.490959
O O8 0.000000 0.625851 0.814021
O O9 0.000000 0.530851 0.750000
O O10 0.333714 0.230382 0.661840
O O11 0.209982 0.298409 0.586575
O O12 0.000000 0.226328 0.638742
O O13 0.000000 0.278808 0.250000
O O14 0.000000 0.851208 0.564613
#
# Coordination Sequence:
#
# PCOD9475761 Si02
#       6
#    16  16   8  16   8  16
#     4  11  23  41  64  92 129 166 207 260 309 374
#     4  12  22  38  62  95 130 171 209 253 305 377
#     4  11  24  44  70  94 120 160 212 270 317 369
#     4  12  23  41  65  92 129 166 209 260 312 373
#     4  11  24  46  69  93 122 159 212 270 317 365
#     4  11  24  39  61  93 135 168 208 252 311 376
#
# _framework density 18.790543
#
# number of rings (size 3 to 8) (size 9 to 14) (size 15 to 20)
#    0.000    0.600    5.000    3.600    2.800    3.200 
#    0.000    3.000    0.000    0.000    0.000    0.000 
#    0.000    0.000    0.000    0.000    0.000    0.000 
#
# Total GULP energy -223792.209267 kJ/mol
# GULP energy per Si atom -5594.805232 kJ/mol
# Density = 1.874777 g / cm^3
# Si number density = 18.790543 Si / 1000 Ang^3
#
#
#
# Elastic Constant Matrix: (Units=GPa)
#
#
# Indices 1 2 3 4 5 6 
#
# 1 115.0128 1.3737 29.7683 0.0000 0.0000 0.0000
# 2 1.3737 40.2180 -27.4712 0.0000 0.0000 0.0000
# 3 29.7683 -27.4712 78.9685 0.0000 0.0000 0.0000
# 4 0.0000 0.0000 0.0000 -6.4489 0.0000 0.0000
# 5 0.0000 0.0000 0.0000 0.0000 17.5241 0.0000
# 6 0.0000 0.0000 0.0000 0.0000 0.0000 22.8309
#
#
#
# Elastic Compliance Matrix: (Units=1/GPa)
#
#
# Indices 1 2 3 4 5 6 
#
# 1 0.010070 -0.003852 -0.005136 0.000000 0.000000 0.000000
# 2 -0.003852 0.034088 0.013311 0.000000 0.000000 0.000000
# 3 -0.005136 0.013311 0.019230 0.000000 0.000000 0.000000
# 4 0.000000 0.000000 0.000000 -0.155066 0.000000 0.000000
# 5 0.000000 0.000000 0.000000 0.000000 0.057064 0.000000
# 6 0.000000 0.000000 0.000000 0.000000 0.000000 0.043800
#
#
# Mechanical properties :
#
#
# Convention : Reuss Voigt Hill
#
# Bulk Modulus (GPa) = 13.88271 26.83786 20.36028
# Shear Modulus (GPa) = 203.64359 22.14978 112.89668
#
# Velocity S-wave (km/s) = 10.42165 3.43705 7.75964
# Velocity P-wave (km/s) = 12.33769 5.48313 9.54682
#
# Compressibility (1/GPa) = 0.07203206
#
# Stress axis : x y z
#
# Youngs Moduli (GPa) = 99.30421 29.33590 52.00255
#
# Poissons Ratio (x) = 0.11301 0.26709
# Poissons Ratio (y) = 0.38254 -0.69218
# Poissons Ratio (z) = 0.51004 -0.39048
#
# Static dielectric constant tensor:
#      x y z
#    x 1.654840 0.000000 0.000000 
#    y 0.000000 1.631000 0.000000 
#    z 0.000000 0.000000 1.616340 
# 
# From -- ./inp_files/66681.got.cif
#   From: 2010.05.17/outbox.cif.g08.bks.cpg/sg63_34_cif.got.tgz:66681.got - 2010.06.03 15:47:04.
