data_PCOD9475643
_publ_section_title
;
Structure prediction by ZEFSAII (Michael W. Deem and Ramdas Pophale) SiO2 
 PCOD9475643
Probable space group: C M C M
;
_chemical_formula_sum "Si O2"
_cell_formula_units_Z 112
_cell_length_a 24.408331
_cell_length_b 14.800183
_cell_length_c 15.329279
_cell_angle_alpha 90.000000
_cell_angle_beta 90.000000
_cell_angle_gamma 90.000000
_cell_volume 5537.667786
_symmetry_space_group_name_H-M "C M C M"
_symmetry_group_IT_number 63
_symmetry_cell_setting 'orthorhombic'
loop_
_space_group_symop_operation_xyz
x,y,z
-x,-y,1/2+z
x,-y,-z
-x,y,1/2-z
-x,-y,-z
x,y,1/2-z
-x,y,z
x,-y,1/2+z
1/2+x,1/2+y,z
1/2-x,1/2-y,1/2+z
1/2+x,1/2-y,-z
1/2-x,1/2+y,1/2-z
1/2-x,1/2-y,-z
1/2+x,1/2+y,1/2-z
1/2-x,1/2+y,z
1/2+x,1/2-y,1/2+z
loop_
_atom_site_type_symbol
_atom_site_label
_atom_site_fract_x
_atom_site_fract_y
_atom_site_fract_z
Si Si1 0.676936 0.116700 0.649711
Si Si2 0.261985 0.467400 0.594309
Si Si3 0.378472 0.316859 0.349122
Si Si4 0.739774 0.761918 0.897807
Si Si5 0.562105 0.666360 0.024604
Si Si6 0.059475 0.660141 0.645047
Si Si7 0.618880 0.468524 0.654966
O O1 0.672968 0.092336 0.750000
O O2 0.706418 0.214616 0.643063
O O3 0.615569 0.114152 0.613358
O O4 0.717854 0.044736 0.609905
O O5 0.284273 0.500000 0.500000
O O6 0.235018 0.369625 0.609395
O O7 0.315584 0.462402 0.652895
O O8 0.393013 0.284889 0.250000
O O9 0.314676 0.289521 0.364637
O O10 0.410282 0.290732 0.437859
O O11 0.390128 0.424209 0.349848
O O12 0.750000 0.750000 0.000000
O O13 0.500000 0.637481 0.003422
O O14 0.559812 0.743955 0.097607
O O15 0.594670 0.585999 0.073156
O O16 0.063461 0.670849 0.750000
O O17 0.000000 0.616577 0.626605
O O18 0.598050 0.435610 0.750000
#
# Coordination Sequence:
#
# PCOD9475643 Si02
#       7
#    16  16  16  16  16  16  16
#     4  11  22  37  60  94 127 164 207 252 318 388
#     4  12  23  37  63  94 127 170 214 263 316 381
#     4  11  24  40  58  84 126 170 210 259 320 384
#     4  12  22  38  61  89 124 166 209 260 316 377
#     4  11  23  39  63  90 120 165 220 266 318 383
#     4   9  19  37  62  92 124 156 201 266 326 373
#     4  11  22  38  58  87 128 165 208 267 320 375
#
# _framework density 20.22512
#
# number of rings (size 3 to 8) (size 9 to 14) (size 15 to 20)
#    0.000    1.000    2.857    5.143    0.000    5.714 
#    0.000    1.429    0.000    1.286    0.000    2.000 
#    0.000    0.000    0.000    0.000    0.000    0.000 
#
# Total GULP energy -312130.464199 kJ/mol
# GULP energy per Si atom -5573.758289 kJ/mol
# Density = 2.017909 g / cm^3
# Si number density = 20.225120 Si / 1000 Ang^3
#
#
#
# Elastic Constant Matrix: (Units=GPa)
#
#
# Indices 1 2 3 4 5 6 
#
# 1 120.4417 11.9829 24.1129 0.0000 0.0000 0.0000
# 2 11.9829 46.3978 -0.0848 0.0000 0.0000 0.0000
# 3 24.1129 -0.0848 78.4740 0.0000 0.0000 0.0000
# 4 0.0000 0.0000 0.0000 9.4882 0.0000 0.0000
# 5 0.0000 0.0000 0.0000 0.0000 22.9439 0.0000
# 6 0.0000 0.0000 0.0000 0.0000 0.0000 22.0326
#
#
#
# Elastic Compliance Matrix: (Units=1/GPa)
#
#
# Indices 1 2 3 4 5 6 
#
# 1 0.009097 -0.002355 -0.002798 0.000000 0.000000 0.000000
# 2 -0.002355 0.022162 0.000747 0.000000 0.000000 0.000000
# 3 -0.002798 0.000747 0.013604 0.000000 0.000000 0.000000
# 4 0.000000 0.000000 0.000000 0.105394 0.000000 0.000000
# 5 0.000000 0.000000 0.000000 0.000000 0.043584 0.000000
# 6 0.000000 0.000000 0.000000 0.000000 0.000000 0.045387
#
#
# Mechanical properties :
#
#
# Convention : Reuss Voigt Hill
#
# Bulk Modulus (GPa) = 27.73694 35.25950 31.49822
# Shear Modulus (GPa) = 19.22660 24.84645 22.03653
#
# Velocity S-wave (km/s) = 3.08657 3.50879 3.30443
# Velocity P-wave (km/s) = 5.14261 5.82124 5.49242
#
# Compressibility (1/GPa) = 0.03605300
#
# Stress axis : x y z
#
# Youngs Moduli (GPa) = 109.92420 45.12181 73.51006
#
# Poissons Ratio (x) = 0.10624 0.20567
# Poissons Ratio (y) = 0.25883 -0.05495
# Poissons Ratio (z) = 0.30755 -0.03373
#
# Static dielectric constant tensor:
#      x y z
#    x 1.805950 0.000000 0.000000 
#    y 0.000000 2.289180 0.000000 
#    z 0.000000 0.000000 1.676140 
# 
# From -- ./inp_files/36881.got.cif
#   From: 2010.05.17/outbox.cif.g08.bks.cpg/sg63_19_cif.got.tgz:36881.got - 2010.06.03 15:47:04.
