data_PCOD9475405
_publ_section_title
;
Structure prediction by ZEFSAII (Michael W. Deem and Ramdas Pophale) SiO2 
 PCOD9475405
Probable space group: C M C M
;
_chemical_formula_sum "Si O2"
_cell_formula_units_Z 116
_cell_length_a 15.499699
_cell_length_b 21.080265
_cell_length_c 14.817868
_cell_angle_alpha 90.000000
_cell_angle_beta 90.000000
_cell_angle_gamma 90.000000
_cell_volume 4841.557033
_symmetry_space_group_name_H-M "C M C M"
_symmetry_group_IT_number 63
_symmetry_cell_setting 'orthorhombic'
loop_
_space_group_symop_operation_xyz
x,y,z
-x,-y,1/2+z
x,-y,-z
-x,y,1/2-z
-x,-y,-z
x,y,1/2-z
-x,y,z
x,-y,1/2+z
1/2+x,1/2+y,z
1/2-x,1/2-y,1/2+z
1/2+x,1/2-y,-z
1/2-x,1/2+y,1/2-z
1/2-x,1/2-y,-z
1/2+x,1/2+y,1/2-z
1/2-x,1/2+y,z
1/2+x,1/2-y,1/2+z
loop_
_atom_site_type_symbol
_atom_site_label
_atom_site_fract_x
_atom_site_fract_y
_atom_site_fract_z
Si Si1 0.666991 0.570605 0.353444
Si Si2 0.377174 0.255213 0.351403
Si Si3 0.133845 0.392749 0.894520
Si Si4 0.097798 0.601445 0.896394
Si Si5 0.632956 0.653900 0.500862
Si Si6 0.171127 0.259794 0.148374
Si Si7 0.777937 0.071485 0.850053
Si Si8 0.000000 0.559642 0.250000
O O1 0.644792 0.586238 0.250000
O O2 0.764466 0.596879 0.373453
O O3 0.605007 0.600782 0.428759
O O4 0.674662 0.495151 0.361369
O O5 0.408257 0.262732 0.250000
O O6 0.387772 0.181873 0.379045
O O7 0.413463 0.305332 0.422218
O O8 0.274103 0.267730 0.350563
O O9 0.075175 0.432590 0.827928
O O10 0.109383 0.407976 0.997001
O O11 0.121611 0.674847 0.873115
O O12 0.174980 0.562496 0.851380
O O13 0.000000 0.587163 0.867729
O O14 0.658024 0.709612 0.431041
O O15 0.699428 0.614793 0.564384
O O16 0.145769 0.239236 0.250000
O O17 0.800651 0.097479 0.750000
#
# Coordination Sequence:
#
# PCOD9475405 Si02
#       8
#    16  16  16  16  16  16  16   4
#     4  11  22  37  56  78 113 151 196 242 283 328
#     4  11  19  32  57  80 106 138 186 234 295 347
#     4  12  21  37  56  81 110 155 192 239 286 332
#     4  12  24  39  56  78 113 156 199 236 287 338
#     4  12  20  34  57  84 105 141 188 245 294 346
#     4  11  21  34  56  82 107 141 187 241 295 352
#     4  11  24  39  54  79 113 154 195 240 282 332
#     4  12  24  36  56  86 118 144 212 244 266 340
#
# _framework density 23.959235
#
# number of rings (size 3 to 8) (size 9 to 14) (size 15 to 20)
#    0.000    0.552    7.586    2.069    0.000    1.103 
#    1.241    0.690    0.000    0.000    0.000    0.000 
#    0.000    2.207    0.000    5.517    1.103    0.000 
#
# Total GULP energy -323609.929315 kJ/mol
# GULP energy per Si atom -5579.481540 kJ/mol
# Density = 2.390470 g / cm^3
# Si number density = 23.959235 Si / 1000 Ang^3
#
#
#
# Elastic Constant Matrix: (Units=GPa)
#
#
# Indices 1 2 3 4 5 6 
#
# 1 53.3168 -11.9818 6.4026 0.0000 0.0000 0.0000
# 2 -11.9818 73.7887 28.4955 0.0000 0.0000 0.0000
# 3 6.4026 28.4955 205.7555 0.0000 0.0000 0.0000
# 4 0.0000 0.0000 0.0000 -7.2946 0.0000 0.0000
# 5 0.0000 0.0000 0.0000 0.0000 -0.4013 0.0000
# 6 0.0000 0.0000 0.0000 0.0000 0.0000 -18.8976
#
#
#
# Elastic Compliance Matrix: (Units=1/GPa)
#
#
# Indices 1 2 3 4 5 6 
#
# 1 0.019706 0.003631 -0.001116 0.000000 0.000000 0.000000
# 2 0.003631 0.014987 -0.002189 0.000000 0.000000 0.000000
# 3 -0.001116 -0.002189 0.005198 0.000000 0.000000 0.000000
# 4 0.000000 0.000000 0.000000 -0.137088 0.000000 0.000000
# 5 0.000000 0.000000 0.000000 0.000000 -2.492012 0.000000
# 6 0.000000 0.000000 0.000000 0.000000 0.000000 -0.052917
#
#
# Mechanical properties :
#
#
# Convention : Reuss Voigt Hill
#
# Bulk Modulus (GPa) = 24.66511 42.07709 33.37110
# Shear Modulus (GPa) = -1.90167 15.34427 6.72130
#
# Velocity S-wave (km/s) = -0.89187 2.53342 1.67672
# Velocity P-wave (km/s) = 3.04243 5.11446 4.20797
#
# Compressibility (1/GPa) = 0.04054310
#
# Stress axis : x y z
#
# Youngs Moduli (GPa) = 50.74657 66.72468 192.38299
#
# Poissons Ratio (x) = -0.24226 0.21471
# Poissons Ratio (y) = -0.18425 0.42104
# Poissons Ratio (z) = 0.05663 0.14603
#
# Static dielectric constant tensor:
#      x y z
#    x 1.902820 0.000000 0.000000 
#    y 0.000000 1.949770 0.000000 
#    z 0.000000 0.000000 1.904430 
# 
# From -- ./inp_files/34423.got.cif
#   From: 2010.05.17/outbox.cif.g08.bks.cpg/sg63_18_cif.got.tgz:34423.got - 2010.06.03 15:47:04.
