data_PCOD9475285
_publ_section_title
;
Structure prediction by ZEFSAII (Michael W. Deem and Ramdas Pophale) SiO2 
 PCOD9475285
Probable space group: C M C M
;
_chemical_formula_sum "Si O2"
_cell_formula_units_Z 68
_cell_length_a 20.523303
_cell_length_b 15.878093
_cell_length_c 9.756285
_cell_angle_alpha 90.000000
_cell_angle_beta 90.000000
_cell_angle_gamma 90.000000
_cell_volume 3179.289507
_symmetry_space_group_name_H-M "C M C M"
_symmetry_group_IT_number 63
_symmetry_cell_setting 'orthorhombic'
loop_
_space_group_symop_operation_xyz
x,y,z
-x,-y,1/2+z
x,-y,-z
-x,y,1/2-z
-x,-y,-z
x,y,1/2-z
-x,y,z
x,-y,1/2+z
1/2+x,1/2+y,z
1/2-x,1/2-y,1/2+z
1/2+x,1/2-y,-z
1/2-x,1/2+y,1/2-z
1/2-x,1/2-y,-z
1/2+x,1/2+y,1/2-z
1/2-x,1/2+y,z
1/2+x,1/2-y,1/2+z
loop_
_atom_site_type_symbol
_atom_site_label
_atom_site_fract_x
_atom_site_fract_y
_atom_site_fract_z
Si Si1 0.422574 0.059275 0.250000
Si Si2 0.500000 0.578530 0.750000
Si Si3 0.370973 0.624180 0.605177
Si Si4 0.741301 0.579857 0.413756
Si Si5 0.421218 0.137698 0.750000
Si Si6 0.861421 0.316186 0.966271
O O1 0.500000 0.063157 0.250000
O O2 0.395984 0.110051 0.379673
O O3 0.403947 0.961654 0.250000
O O4 0.441701 0.585638 0.632481
O O5 0.333656 0.605674 0.750000
O O6 0.330786 0.594073 0.474387
O O7 0.376792 0.724940 0.593836
O O8 0.767542 0.500000 0.500000
O O9 0.743312 0.569259 0.250000
O O10 0.785676 0.659747 0.453440
O O11 0.500000 0.145174 0.750000
O O12 0.389619 0.179185 0.882485
#
# Coordination Sequence:
#
# PCOD9475285 Si02
#       6
#     8   4  16  16   8  16
#     4  11  21  40  60  89 133 187 230 267 326 402
#     4   8  22  44  76  96 132 184 214 282 338 410
#     4  10  23  44  72 100 132 174 230 274 339 403
#     4  12  26  45  71 101 137 178 222 285 346 403
#     4  11  26  36  56  95 141 181 232 279 326 397
#     4  12  24  39  67  97 135 180 229 276 337 400
#
# _framework density 21.388425999999999
#
# number of rings (size 3 to 8) (size 9 to 14) (size 15 to 20)
#    0.706    0.235    2.353    4.235    9.882    1.882 
#    0.000    1.176    0.000    0.000    0.000    0.000 
#    0.000    0.000    0.000    0.000    0.000    0.000 
#
# Total GULP energy -189442.655173 kJ/mol
# GULP energy per Si atom -5571.842799 kJ/mol
# Density = 2.133974 g / cm^3
# Si number density = 21.388426 Si / 1000 Ang^3
#
#
#
# Elastic Constant Matrix: (Units=GPa)
#
#
# Indices 1 2 3 4 5 6 
#
# 1 90.6505 -0.7976 40.8517 0.0000 0.0000 0.0000
# 2 -0.7976 45.8977 11.0284 0.0000 0.0000 0.0000
# 3 40.8517 11.0284 182.3154 0.0000 0.0000 0.0000
# 4 0.0000 0.0000 0.0000 28.8431 0.0000 0.0000
# 5 0.0000 0.0000 0.0000 0.0000 60.4260 0.0000
# 6 0.0000 0.0000 0.0000 0.0000 0.0000 7.1864
#
#
#
# Elastic Compliance Matrix: (Units=1/GPa)
#
#
# Indices 1 2 3 4 5 6 
#
# 1 0.012306 0.000889 -0.002811 0.000000 0.000000 0.000000
# 2 0.000889 0.022173 -0.001541 0.000000 0.000000 0.000000
# 3 -0.002811 -0.001541 0.006208 0.000000 0.000000 0.000000
# 4 0.000000 0.000000 0.000000 0.034670 0.000000 0.000000
# 5 0.000000 0.000000 0.000000 0.000000 0.016549 0.000000
# 6 0.000000 0.000000 0.000000 0.000000 0.000000 0.139152
#
#
# Mechanical properties :
#
#
# Convention : Reuss Voigt Hill
#
# Bulk Modulus (GPa) = 29.61866 46.78096 38.19981
# Shear Modulus (GPa) = 20.06114 37.14316 28.60215
#
# Velocity S-wave (km/s) = 3.06591 4.17178 3.66084
# Velocity P-wave (km/s) = 5.13917 6.71748 5.98062
#
# Compressibility (1/GPa) = 0.03376251
#
# Stress axis : x y z
#
# Youngs Moduli (GPa) = 81.26056 45.09948 161.07958
#
# Poissons Ratio (x) = -0.04011 0.45283
# Poissons Ratio (y) = -0.07227 0.24815
# Poissons Ratio (z) = 0.22844 0.06948
#
# Static dielectric constant tensor:
#      x y z
#    x 1.791480 0.000000 0.000000 
#    y 0.000000 1.787490 0.000000 
#    z 0.000000 0.000000 1.842700 
# 
# From -- ./inp_files/5915.got.cif
#   From: 2010.05.17/outbox.cif.g08.bks.cpg/sg63_3_cif.got.tgz:5915.got - 2010.06.03 15:47:04.
