data_PCOD9475566
_publ_section_title
;
Structure prediction by ZEFSAII (Michael W. Deem and Ramdas Pophale) SiO2 
 PCOD9475566
Probable space group: C M C M
;
_chemical_formula_sum "Si O2"
_cell_formula_units_Z 64
_cell_length_a 22.746367
_cell_length_b 8.323854
_cell_length_c 14.429440
_cell_angle_alpha 90.000000
_cell_angle_beta 90.000000
_cell_angle_gamma 90.000000
_cell_volume 2732.033200
_symmetry_space_group_name_H-M "C M C M"
_symmetry_group_IT_number 63
_symmetry_cell_setting 'orthorhombic'
loop_
_space_group_symop_operation_xyz
x,y,z
-x,-y,1/2+z
x,-y,-z
-x,y,1/2-z
-x,-y,-z
x,y,1/2-z
-x,y,z
x,-y,1/2+z
1/2+x,1/2+y,z
1/2-x,1/2-y,1/2+z
1/2+x,1/2-y,-z
1/2-x,1/2+y,1/2-z
1/2-x,1/2-y,-z
1/2+x,1/2+y,1/2-z
1/2-x,1/2+y,z
1/2+x,1/2-y,1/2+z
loop_
_atom_site_type_symbol
_atom_site_label
_atom_site_fract_x
_atom_site_fract_y
_atom_site_fract_z
Si Si1 0.430842 0.760787 0.030627
Si Si2 0.569985 0.427192 0.145445
Si Si3 0.772110 0.118123 0.071541
Si Si4 0.665075 0.094934 0.646936
O O1 0.500000 0.803048 0.027621
O O2 0.426059 0.601243 0.096166
O O3 0.389808 0.891950 0.078402
O O4 0.409442 0.706499 0.928391
O O5 0.595208 0.422731 0.250000
O O6 0.500000 0.399180 0.152984
O O7 0.808005 0.223583 0.143618
O O8 0.717416 0.023452 0.115432
O O9 0.750000 0.250000 0.000000
O O10 0.805503 0.000000 0.000000
O O11 0.646080 0.053325 0.750000
#
# Coordination Sequence:
#
# PCOD9475566 Si02
#       4
#    16  16  16  16
#     4   9  18  30  51  90 133 171 214 268 330 391
#     4   8  14  27  47  74 120 182 233 267 308 377
#     4   9  21  41  63  85 118 164 216 269 322 379
#     4  11  21  36  63  95 128 168 217 270 323 387
#
# _framework density 23.425778000000001
#
# number of rings (size 3 to 8) (size 9 to 14) (size 15 to 20)
#    0.000    2.750    0.000    3.000    3.500    1.500 
#    0.000    0.000    0.000   21.750    0.000    5.250 
#    0.000   18.000    0.000    0.000    0.000    0.000 
#
# Total GULP energy -178641.477410 kJ/mol
# GULP energy per Si atom -5582.546169 kJ/mol
# Density = 2.337246 g / cm^3
# Si number density = 23.425778 Si / 1000 Ang^3
#
#
#
# Elastic Constant Matrix: (Units=GPa)
#
#
# Indices 1 2 3 4 5 6 
#
# 1 113.6937 33.1810 37.1459 0.0000 0.0000 0.0000
# 2 33.1810 77.8531 36.9685 0.0000 0.0000 0.0000
# 3 37.1459 36.9685 194.6056 0.0000 0.0000 0.0000
# 4 0.0000 0.0000 0.0000 18.5348 0.0000 0.0000
# 5 0.0000 0.0000 0.0000 0.0000 -19.9773 0.0000
# 6 0.0000 0.0000 0.0000 0.0000 0.0000 -10.5783
#
#
#
# Elastic Compliance Matrix: (Units=1/GPa)
#
#
# Indices 1 2 3 4 5 6 
#
# 1 0.010313 -0.003804 -0.001246 0.000000 0.000000 0.000000
# 2 -0.003804 0.015521 -0.002222 0.000000 0.000000 0.000000
# 3 -0.001246 -0.002222 0.005799 0.000000 0.000000 0.000000
# 4 0.000000 0.000000 0.000000 0.053953 0.000000 0.000000
# 5 0.000000 0.000000 0.000000 0.000000 -0.050057 0.000000
# 6 0.000000 0.000000 0.000000 0.000000 0.000000 -0.094533
#
#
# Mechanical properties :
#
#
# Convention : Reuss Voigt Hill
#
# Bulk Modulus (GPa) = 58.51914 66.74925 62.63419
# Shear Modulus (GPa) = -128.98320 16.18630 -56.39845
#
# Velocity S-wave (km/s) = -7.42832 2.63147 -4.91199
# Velocity P-wave (km/s) = 6.96694 6.14724 2.31837
#
# Compressibility (1/GPa) = 0.01708843
#
# Stress axis : x y z
#
# Youngs Moduli (GPa) = 96.96778 64.42815 172.45518
#
# Poissons Ratio (x) = 0.24506 0.21486
# Poissons Ratio (y) = 0.36883 0.38328
# Poissons Ratio (z) = 0.12081 0.14319
#
# Static dielectric constant tensor:
#      x y z
#    x 2.009700 0.000000 0.000000 
#    y 0.000000 1.974250 0.000000 
#    z 0.000000 0.000000 1.943190 
# 
# From -- ./inp_files/36193.got.cif
#   From: 2010.05.17/outbox.cif.g08.bks.cpg/sg63_19_cif.got.tgz:36193.got - 2010.06.03 15:47:04.
