data_PCOD9475522
_publ_section_title
;
Structure prediction by ZEFSAII (Michael W. Deem and Ramdas Pophale) SiO2 
 PCOD9475522
Probable space group: C M C M
;
_chemical_formula_sum "Si O2"
_cell_formula_units_Z 88
_cell_length_a 19.829511
_cell_length_b 11.681037
_cell_length_c 18.436557
_cell_angle_alpha 90.000000
_cell_angle_beta 90.000000
_cell_angle_gamma 90.000000
_cell_volume 4270.445902
_symmetry_space_group_name_H-M "C M C M"
_symmetry_group_IT_number 63
_symmetry_cell_setting 'orthorhombic'
loop_
_space_group_symop_operation_xyz
x,y,z
-x,-y,1/2+z
x,-y,-z
-x,y,1/2-z
-x,-y,-z
x,y,1/2-z
-x,y,z
x,-y,1/2+z
1/2+x,1/2+y,z
1/2-x,1/2-y,1/2+z
1/2+x,1/2-y,-z
1/2-x,1/2+y,1/2-z
1/2-x,1/2-y,-z
1/2+x,1/2+y,1/2-z
1/2-x,1/2+y,z
1/2+x,1/2-y,1/2+z
loop_
_atom_site_type_symbol
_atom_site_label
_atom_site_fract_x
_atom_site_fract_y
_atom_site_fract_z
Si Si1 0.868040 0.675520 0.898729
Si Si2 0.576312 0.808944 0.750000
Si Si3 0.687293 0.391265 0.664514
Si Si4 0.609483 0.000000 0.500000
Si Si5 0.282759 0.409846 0.065598
Si Si6 0.077090 0.583733 0.750000
Si Si7 0.334620 0.814467 0.888331
O O1 0.862029 0.811145 0.883708
O O2 0.918368 0.608307 0.953288
O O3 0.793816 0.633040 0.923994
O O4 0.883919 0.625869 0.820039
O O5 0.500000 0.765202 0.750000
O O6 0.615187 0.780509 0.676067
O O7 0.574903 0.947137 0.750000
O O8 0.672638 0.384312 0.750000
O O9 0.691008 0.520274 0.635160
O O10 0.762758 0.343206 0.648675
O O11 0.642552 0.076025 0.434746
O O12 0.324706 0.293496 0.058462
O O13 0.285927 0.500000 0.000000
O O14 0.000000 0.626800 0.750000
#
# Coordination Sequence:
#
# PCOD9475522 Si02
#       7
#    16   8  16   8  16   8  16
#     4  11  21  36  56  84 120 154 188 241 291 351
#     4  11  22  41  61  85 115 151 201 251 292 339
#     4  11  21  33  57  85 119 155 190 230 290 362
#     4  12  20  36  59  80 124 150 183 234 296 346
#     4  11  22  36  58  88 125 156 190 229 296 370
#     4  11  22  39  59  81 115 155 199 251 290 335
#     4  11  23  37  58  87 122 154 191 240 295 352
#
# _framework density 20.606746999999999
#
# number of rings (size 3 to 8) (size 9 to 14) (size 15 to 20)
#    0.000    0.909    6.364    1.091    2.545    2.909 
#    0.000    1.818    0.000    2.727    0.000    0.000 
#    0.000    0.000    0.000    0.000    0.000    0.000 
#
# Total GULP energy -245273.192613 kJ/mol
# GULP energy per Si atom -5574.390741 kJ/mol
# Density = 2.055985 g / cm^3
# Si number density = 20.606747 Si / 1000 Ang^3
#
#
#
# Elastic Constant Matrix: (Units=GPa)
#
#
# Indices 1 2 3 4 5 6 
#
# 1 53.8903 16.8733 22.9991 0.0000 0.0000 0.0000
# 2 16.8733 101.8115 19.4293 0.0000 0.0000 0.0000
# 3 22.9991 19.4293 117.7318 0.0000 0.0000 0.0000
# 4 0.0000 0.0000 0.0000 25.5930 0.0000 0.0000
# 5 0.0000 0.0000 0.0000 0.0000 -13.2630 0.0000
# 6 0.0000 0.0000 0.0000 0.0000 0.0000 -0.6255
#
#
#
# Elastic Compliance Matrix: (Units=1/GPa)
#
#
# Indices 1 2 3 4 5 6 
#
# 1 0.020981 -0.002783 -0.003639 0.000000 0.000000 0.000000
# 2 -0.002783 0.010511 -0.001191 0.000000 0.000000 0.000000
# 3 -0.003639 -0.001191 0.009401 0.000000 0.000000 0.000000
# 4 0.000000 0.000000 0.000000 0.039073 0.000000 0.000000
# 5 0.000000 0.000000 0.000000 0.000000 -0.075398 0.000000
# 6 0.000000 0.000000 0.000000 0.000000 0.000000 -1.598834
#
#
# Mechanical properties :
#
#
# Convention : Reuss Voigt Hill
#
# Bulk Modulus (GPa) = 38.96108 43.55966 41.26037
# Shear Modulus (GPa) = -3.18373 16.61638 6.71633
#
# Velocity S-wave (km/s) = -1.24433 2.84272 1.80731
# Velocity P-wave (km/s) = 4.10896 5.65325 4.94180
#
# Compressibility (1/GPa) = 0.02566664
#
# Stress axis : x y z
#
# Youngs Moduli (GPa) = 47.66286 95.14278 106.36723
#
# Poissons Ratio (x) = 0.26475 0.38711
# Poissons Ratio (y) = 0.13263 0.12668
# Poissons Ratio (z) = 0.17346 0.11331
#
# Static dielectric constant tensor:
#      x y z
#    x 1.766050 0.000000 0.000000 
#    y 0.000000 1.776010 0.000000 
#    z 0.000000 0.000000 1.766050 
# 
# From -- ./inp_files/46967.got.cif
#   From: 2010.05.17/outbox.cif.g08.bks.cpg/sg63_24_cif.got.tgz:46967.got - 2010.06.03 15:47:04.
