data_PCOD9475218
_publ_section_title
;
Structure prediction by ZEFSAII (Michael W. Deem and Ramdas Pophale) SiO2 
 PCOD9475218
Probable space group: C M C M
;
_chemical_formula_sum "Si O2"
_cell_formula_units_Z 72
_cell_length_a 26.292136
_cell_length_b 9.504064
_cell_length_c 14.262508
_cell_angle_alpha 90.000000
_cell_angle_beta 90.000000
_cell_angle_gamma 90.000000
_cell_volume 3563.946067
_symmetry_space_group_name_H-M "C M C M"
_symmetry_group_IT_number 63
_symmetry_cell_setting 'orthorhombic'
loop_
_space_group_symop_operation_xyz
x,y,z
-x,-y,1/2+z
x,-y,-z
-x,y,1/2-z
-x,-y,-z
x,y,1/2-z
-x,y,z
x,-y,1/2+z
1/2+x,1/2+y,z
1/2-x,1/2-y,1/2+z
1/2+x,1/2-y,-z
1/2-x,1/2+y,1/2-z
1/2-x,1/2-y,-z
1/2+x,1/2+y,1/2-z
1/2-x,1/2+y,z
1/2+x,1/2-y,1/2+z
loop_
_atom_site_type_symbol
_atom_site_label
_atom_site_fract_x
_atom_site_fract_y
_atom_site_fract_z
Si Si1 0.086552 0.000000 0.000000
Si Si2 0.357410 0.707117 0.643362
Si Si3 0.744234 0.620732 0.931658
Si Si4 0.144539 0.531297 0.862227
Si Si5 0.557161 0.744934 0.139058
O O1 0.059535 0.890196 0.928972
O O2 0.116980 0.101414 0.929157
O O3 0.377139 0.695082 0.750000
O O4 0.297817 0.665135 0.643080
O O5 0.363571 0.868662 0.609491
O O6 0.799468 0.578078 0.894374
O O7 0.723954 0.500000 0.000000
O O8 0.750000 0.750000 0.000000
O O9 0.144979 0.529203 0.750000
O O10 0.100326 0.641361 0.888743
O O11 0.565679 0.707792 0.250000
O O12 0.500000 0.805516 0.132856
#
# Coordination Sequence:
#
# PCOD9475218 Si02
#       5
#     8  16  16  16  16
#     4  12  23  40  66  98 128 166 201 264 320 384
#     4  11  24  41  62  94 131 168 209 255 311 378
#     4  12  22  37  60  90 127 165 206 253 305 373
#     4  10  23  42  62  86 124 170 214 258 310 373
#     4  10  23  44  68  94 124 163 213 267 321 375
#
# _framework density 20.202327
#
# number of rings (size 3 to 8) (size 9 to 14) (size 15 to 20)
#    0.000    1.111    3.333    3.000    0.000    0.000 
#    0.000    3.333    0.000    5.333    0.000    0.000 
#    0.000    0.000    0.000    0.000    0.000    0.000 
#
# Total GULP energy -200905.111077 kJ/mol
# GULP energy per Si atom -5580.697530 kJ/mol
# Density = 2.015635 g / cm^3
# Si number density = 20.202327 Si / 1000 Ang^3
#
#
#
# Elastic Constant Matrix: (Units=GPa)
#
#
# Indices 1 2 3 4 5 6 
#
# 1 100.1300 49.1695 42.1507 0.0000 0.0000 0.0000
# 2 49.1695 145.2123 47.7999 0.0000 0.0000 0.0000
# 3 42.1507 47.7999 104.6521 0.0000 0.0000 0.0000
# 4 0.0000 0.0000 0.0000 39.0878 0.0000 0.0000
# 5 0.0000 0.0000 0.0000 0.0000 17.5658 0.0000
# 6 0.0000 0.0000 0.0000 0.0000 0.0000 22.3978
#
#
#
# Elastic Compliance Matrix: (Units=1/GPa)
#
#
# Indices 1 2 3 4 5 6 
#
# 1 0.013175 -0.003195 -0.003847 0.000000 0.000000 0.000000
# 2 -0.003195 0.008880 -0.002769 0.000000 0.000000 0.000000
# 3 -0.003847 -0.002769 0.012370 0.000000 0.000000 0.000000
# 4 0.000000 0.000000 0.000000 0.025583 0.000000 0.000000
# 5 0.000000 0.000000 0.000000 0.000000 0.056929 0.000000
# 6 0.000000 0.000000 0.000000 0.000000 0.000000 0.044647
#
#
# Mechanical properties :
#
#
# Convention : Reuss Voigt Hill
#
# Bulk Modulus (GPa) = 67.55631 69.80385 68.68008
# Shear Modulus (GPa) = 26.86131 29.86857 28.36494
#
# Velocity S-wave (km/s) = 3.65034 3.84926 3.75112
# Velocity P-wave (km/s) = 7.16095 7.37449 7.26850
#
# Compressibility (1/GPa) = 0.01480247
#
# Stress axis : x y z
#
# Youngs Moduli (GPa) = 75.89864 112.61587 80.84154
#
# Poissons Ratio (x) = 0.35978 0.31103
# Poissons Ratio (y) = 0.24248 0.22386
# Poissons Ratio (z) = 0.29202 0.31184
#
# Static dielectric constant tensor:
#      x y z
#    x 1.740710 0.000000 0.000000 
#    y 0.000000 1.697700 0.000000 
#    z 0.000000 0.000000 1.794470 
# 
# From -- ./inp_files/38320.got.cif
#   From: 2010.05.17/outbox.cif.g08.bks.cpg/sg63_20_cif.got.tgz:38320.got - 2010.06.03 15:47:04.
