data_PCOD9475349
_publ_section_title
;
Structure prediction by ZEFSAII (Michael W. Deem and Ramdas Pophale) SiO2 
 PCOD9475349
Probable space group: C M C M
;
_chemical_formula_sum "Si O2"
_cell_formula_units_Z 92
_cell_length_a 14.900408
_cell_length_b 14.716436
_cell_length_c 20.628820
_cell_angle_alpha 90.000000
_cell_angle_beta 90.000000
_cell_angle_gamma 90.000000
_cell_volume 4523.506230
_symmetry_space_group_name_H-M "C M C M"
_symmetry_group_IT_number 63
_symmetry_cell_setting 'orthorhombic'
loop_
_space_group_symop_operation_xyz
x,y,z
-x,-y,1/2+z
x,-y,-z
-x,y,1/2-z
-x,-y,-z
x,y,1/2-z
-x,y,z
x,-y,1/2+z
1/2+x,1/2+y,z
1/2-x,1/2-y,1/2+z
1/2+x,1/2-y,-z
1/2-x,1/2+y,1/2-z
1/2-x,1/2-y,-z
1/2+x,1/2+y,1/2-z
1/2-x,1/2+y,z
1/2+x,1/2-y,1/2+z
loop_
_atom_site_type_symbol
_atom_site_label
_atom_site_fract_x
_atom_site_fract_y
_atom_site_fract_z
Si Si1 0.500000 0.700590 0.750000
Si Si2 0.186274 0.546564 0.675796
Si Si3 0.500000 0.275259 0.933891
Si Si4 0.161895 0.810987 0.144511
Si Si5 0.645976 0.606865 0.996283
Si Si6 0.000000 0.398097 0.972742
Si Si7 0.000000 0.357630 0.172561
Si Si8 0.306798 0.122189 0.086400
O O1 0.420720 0.699358 0.693247
O O2 0.176227 0.514142 0.750000
O O3 0.261161 0.624040 0.672507
O O4 0.215832 0.465500 0.629059
O O5 0.090240 0.587537 0.654421
O O6 0.584813 0.334796 0.955222
O O7 0.500000 0.240640 0.860696
O O8 0.500000 0.180408 0.973234
O O9 0.204883 0.713949 0.126674
O O10 0.132506 0.854925 0.075692
O O11 0.747690 0.620799 0.021274
O O12 0.624705 0.500000 0.000000
O O13 0.089044 0.383776 0.931319
O O14 0.000000 0.500000 0.000000
O O15 0.000000 0.349121 0.250000
#
# Coordination Sequence:
#
# PCOD9475349 Si02
#       8
#     4  16   8  16  16   8   8  16
#     4  12  28  48  74  98 144 192 234 292 338 424
#     4  11  24  45  69 104 138 185 233 285 353 426
#     4  12  24  43  67 102 136 183 241 280 350 419
#     4  12  25  47  71 102 141 185 235 285 355 411
#     4  12  25  46  73 101 142 183 235 297 350 421
#     4  12  25  38  65 104 141 180 224 292 364 416
#     4  10  24  45  71  97 147 185 228 294 359 422
#     4  12  25  43  71 106 140 183 232 294 356 424
#
# _framework density 20.338204999999999
#
# number of rings (size 3 to 8) (size 9 to 14) (size 15 to 20)
#    0.000    0.348    4.348    4.957    3.652    0.000 
#    1.565    0.870    3.826    0.000    0.000    0.000 
#    0.000    0.000    0.000    0.000    0.000    0.000 
#
# Total GULP energy -256908.203566 kJ/mol
# GULP energy per Si atom -5584.960947 kJ/mol
# Density = 2.029191 g / cm^3
# Si number density = 20.338205 Si / 1000 Ang^3
#
#
#
# Elastic Constant Matrix: (Units=GPa)
#
#
# Indices 1 2 3 4 5 6 
#
# 1 50.2912 17.3420 10.1735 0.0000 0.0000 0.0000
# 2 17.3420 128.5776 36.7498 0.0000 0.0000 0.0000
# 3 10.1735 36.7498 100.6087 0.0000 0.0000 0.0000
# 4 0.0000 0.0000 0.0000 16.1343 0.0000 0.0000
# 5 0.0000 0.0000 0.0000 0.0000 20.8096 0.0000
# 6 0.0000 0.0000 0.0000 0.0000 0.0000 49.2567
#
#
#
# Elastic Compliance Matrix: (Units=1/GPa)
#
#
# Indices 1 2 3 4 5 6 
#
# 1 0.020986 -0.002483 -0.001215 0.000000 0.000000 0.000000
# 2 -0.002483 0.008978 -0.003028 0.000000 0.000000 0.000000
# 3 -0.001215 -0.003028 0.011169 0.000000 0.000000 0.000000
# 4 0.000000 0.000000 0.000000 0.061980 0.000000 0.000000
# 5 0.000000 0.000000 0.000000 0.000000 0.048055 0.000000
# 6 0.000000 0.000000 0.000000 0.000000 0.000000 0.020302
#
#
# Mechanical properties :
#
#
# Convention : Reuss Voigt Hill
#
# Bulk Modulus (GPa) = 36.12780 45.33422 40.73101
# Shear Modulus (GPa) = 25.75345 31.58760 28.67053
#
# Velocity S-wave (km/s) = 3.56232 3.94524 3.75865
# Velocity P-wave (km/s) = 5.89255 6.56443 6.23755
#
# Compressibility (1/GPa) = 0.02767952
#
# Stress axis : x y z
#
# Youngs Moduli (GPa) = 47.65010 111.38491 89.53741
#
# Poissons Ratio (x) = 0.27660 0.10879
# Poissons Ratio (y) = 0.11833 0.27114
# Poissons Ratio (z) = 0.05790 0.33731
#
# Static dielectric constant tensor:
#      x y z
#    x 1.712960 0.000000 0.000000 
#    y 0.000000 1.713860 0.000000 
#    z 0.000000 0.000000 1.749160 
# 
# From -- ./inp_files/54306.got.cif
#   From: 2010.05.17/outbox.cif.g08.bks.cpg/sg63_28_cif.got.tgz:54306.got - 2010.06.03 15:47:04.
