data_PCOD9475006
_publ_section_title
;
Structure prediction by ZEFSAII (Michael W. Deem and Ramdas Pophale) SiO2 
 PCOD9475006
Probable space group: C M C M
;
_chemical_formula_sum "Si O2"
_cell_formula_units_Z 88
_cell_length_a 22.551718
_cell_length_b 23.581284
_cell_length_c 8.731618
_cell_angle_alpha 90.000000
_cell_angle_beta 90.000000
_cell_angle_gamma 90.000000
_cell_volume 4643.461065
_symmetry_space_group_name_H-M "C M C M"
_symmetry_group_IT_number 63
_symmetry_cell_setting 'orthorhombic'
loop_
_space_group_symop_operation_xyz
x,y,z
-x,-y,1/2+z
x,-y,-z
-x,y,1/2-z
-x,-y,-z
x,y,1/2-z
-x,y,z
x,-y,1/2+z
1/2+x,1/2+y,z
1/2-x,1/2-y,1/2+z
1/2+x,1/2-y,-z
1/2-x,1/2+y,1/2-z
1/2-x,1/2-y,-z
1/2+x,1/2+y,1/2-z
1/2-x,1/2+y,z
1/2+x,1/2-y,1/2+z
loop_
_atom_site_type_symbol
_atom_site_label
_atom_site_fract_x
_atom_site_fract_y
_atom_site_fract_z
Si Si1 0.000000 0.064437 0.563861
Si Si2 0.624342 0.377761 0.432976
Si Si3 0.338081 0.149502 0.067237
Si Si4 0.066701 0.556745 0.067772
Si Si5 0.184956 0.765000 0.568854
Si Si6 0.755351 0.938414 0.432450
O O1 0.940004 0.098570 0.516952
O O2 0.000000 0.061131 0.750000
O O3 0.000000 0.000000 0.500000
O O4 0.621137 0.368464 0.250000
O O5 0.650608 0.319897 0.504982
O O6 0.675470 0.424497 0.461201
O O7 0.331900 0.158804 0.250000
O O8 0.394129 0.110344 0.034650
O O9 0.348106 0.207910 0.980235
O O10 0.282292 0.112539 0.008113
O O11 0.064258 0.550297 0.250000
O O12 0.000000 0.562222 0.006801
O O13 0.094228 0.500000 0.000000
O O14 0.191086 0.770975 0.750000
O O15 0.250000 0.750000 0.500000
O O16 0.744843 0.937868 0.250000
O O17 0.740447 0.000000 0.500000
#
# Coordination Sequence:
#
# PCOD9475006 Si02
#       6
#     8  16  16  16  16  16
#     4  10  22  42  68  96 128 168 213 260 313 374
#     4  10  22  41  63  89 122 163 207 252 306 365
#     4  11  22  37  59  85 117 154 198 245 299 360
#     4   9  19  36  57  82 113 151 192 235 286 343
#     4  12  24  40  63  88 119 156 198 247 304 365
#     4  11  22  35  56  86 121 155 196 245 301 360
#
# _framework density 18.951381999999999
#
# number of rings (size 3 to 8) (size 9 to 14) (size 15 to 20)
#    0.000    1.455    1.818    3.818    0.000    4.364 
#    1.636    0.000    0.000    0.000    0.000    0.000 
#    0.000    0.000    0.000    0.000    0.000    0.000 
#
# Total GULP energy -245617.394888 kJ/mol
# GULP energy per Si atom -5582.213520 kJ/mol
# Density = 1.890825 g / cm^3
# Si number density = 18.951382 Si / 1000 Ang^3
#
#
#
# Elastic Constant Matrix: (Units=GPa)
#
#
# Indices 1 2 3 4 5 6 
#
# 1 111.6100 58.9924 45.2899 0.0000 0.0000 0.0000
# 2 58.9924 143.7714 44.8012 0.0000 0.0000 0.0000
# 3 45.2899 44.8012 41.5111 0.0000 0.0000 0.0000
# 4 0.0000 0.0000 0.0000 35.9326 0.0000 0.0000
# 5 0.0000 0.0000 0.0000 0.0000 21.5813 0.0000
# 6 0.0000 0.0000 0.0000 0.0000 0.0000 19.5183
#
#
#
# Elastic Compliance Matrix: (Units=1/GPa)
#
#
# Indices 1 2 3 4 5 6 
#
# 1 0.016360 -0.001734 -0.015978 0.000000 0.000000 0.000000
# 2 -0.001734 0.010664 -0.009617 0.000000 0.000000 0.000000
# 3 -0.015978 -0.009617 0.051902 0.000000 0.000000 0.000000
# 4 0.000000 0.000000 0.000000 0.027830 0.000000 0.000000
# 5 0.000000 0.000000 0.000000 0.000000 0.046336 0.000000
# 6 0.000000 0.000000 0.000000 0.000000 0.000000 0.051234
#
#
# Mechanical properties :
#
#
# Convention : Reuss Voigt Hill
#
# Bulk Modulus (GPa) = 41.20739 66.11772 53.66255
# Shear Modulus (GPa) = 18.72150 25.26037 21.99094
#
# Velocity S-wave (km/s) = 3.14645 3.65486 3.41014
# Velocity P-wave (km/s) = 5.91533 7.26460 6.62441
#
# Compressibility (1/GPa) = 0.02426749
#
# Stress axis : x y z
#
# Youngs Moduli (GPa) = 61.12555 93.77499 19.26717
#
# Poissons Ratio (x) = 0.16259 0.30785
# Poissons Ratio (y) = 0.10598 0.18530
# Poissons Ratio (z) = 0.97665 0.90186
#
# Static dielectric constant tensor:
#      x y z
#    x 1.722430 0.000000 0.000000 
#    y 0.000000 1.655430 0.000000 
#    z 0.000000 0.000000 1.651670 
# 
# From -- ./inp_files/8196.got.cif
#   From: 2010.05.17/outbox.cif.g08.bks.cpg/sg63_5_cif.got.tgz:8196.got - 2010.06.03 15:47:04.
