data_PCOD9475335
_publ_section_title
;
Structure prediction by ZEFSAII (Michael W. Deem and Ramdas Pophale) SiO2 
 PCOD9475335
Probable space group: C M C M
;
_chemical_formula_sum "Si O2"
_cell_formula_units_Z 88
_cell_length_a 19.111002
_cell_length_b 13.011732
_cell_length_c 14.973153
_cell_angle_alpha 90.000000
_cell_angle_beta 90.000000
_cell_angle_gamma 90.000000
_cell_volume 3723.332575
_symmetry_space_group_name_H-M "C M C M"
_symmetry_group_IT_number 63
_symmetry_cell_setting 'orthorhombic'
loop_
_space_group_symop_operation_xyz
x,y,z
-x,-y,1/2+z
x,-y,-z
-x,y,1/2-z
-x,-y,-z
x,y,1/2-z
-x,y,z
x,-y,1/2+z
1/2+x,1/2+y,z
1/2-x,1/2-y,1/2+z
1/2+x,1/2-y,-z
1/2-x,1/2+y,1/2-z
1/2-x,1/2-y,-z
1/2+x,1/2+y,1/2-z
1/2-x,1/2+y,z
1/2+x,1/2-y,1/2+z
loop_
_atom_site_type_symbol
_atom_site_label
_atom_site_fract_x
_atom_site_fract_y
_atom_site_fract_z
Si Si1 0.077742 0.695305 0.107896
Si Si2 0.358986 0.598207 0.857742
Si Si3 0.689111 0.110192 0.250000
Si Si4 0.418987 0.151905 0.595917
Si Si5 0.217230 0.534363 0.897855
Si Si6 0.919434 0.883240 0.857643
O O1 0.091162 0.816984 0.099059
O O2 0.137174 0.656185 0.172650
O O3 0.000000 0.676589 0.143112
O O4 0.081698 0.643015 0.011160
O O5 0.366584 0.605855 0.750000
O O6 0.278383 0.617862 0.884009
O O7 0.379334 0.484180 0.889278
O O8 0.735777 0.054855 0.171482
O O9 0.500000 0.135937 0.626666
O O10 0.359179 0.076518 0.632026
O O11 0.396371 0.268701 0.616764
O O12 0.215751 0.500000 0.000000
O O13 0.918608 0.886631 0.750000
O O14 0.000000 0.891401 0.887504
#
# Coordination Sequence:
#
# PCOD9475335 Si02
#       6
#    16  16   8  16  16  16
#     4  11  24  44  71 100 129 168 221 277 333 386
#     4  11  24  42  66 100 133 171 218 271 332 397
#     4  12  25  46  66  96 129 174 220 270 321 392
#     4  10  24  44  67  98 129 171 226 273 323 391
#     4  12  27  46  66  96 137 179 222 265 329 394
#     4   9  20  40  65  96 133 173 216 270 331 390
#
# _framework density 23.634740000000001
#
# number of rings (size 3 to 8) (size 9 to 14) (size 15 to 20)
#    0.000    1.273    3.636    0.818    3.818    4.727 
#    0.000    2.727    0.000    0.000    0.000    0.000 
#    0.000    0.000    0.000    0.000    0.000    0.000 
#
# Total GULP energy -245105.805996 kJ/mol
# GULP energy per Si atom -5570.586500 kJ/mol
# Density = 2.358095 g / cm^3
# Si number density = 23.634740 Si / 1000 Ang^3
#
#
#
# Elastic Constant Matrix: (Units=GPa)
#
#
# Indices 1 2 3 4 5 6 
#
# 1 37.3476 9.5161 -3.9720 0.0000 0.0000 0.0000
# 2 9.5161 44.1144 2.4582 0.0000 0.0000 0.0000
# 3 -3.9720 2.4582 62.5613 0.0000 0.0000 0.0000
# 4 0.0000 0.0000 0.0000 39.1709 0.0000 0.0000
# 5 0.0000 0.0000 0.0000 0.0000 27.0827 0.0000
# 6 0.0000 0.0000 0.0000 0.0000 0.0000 41.1112
#
#
#
# Elastic Compliance Matrix: (Units=1/GPa)
#
#
# Indices 1 2 3 4 5 6 
#
# 1 0.028596 -0.006283 0.002062 0.000000 0.000000 0.000000
# 2 -0.006283 0.024099 -0.001346 0.000000 0.000000 0.000000
# 3 0.002062 -0.001346 0.016168 0.000000 0.000000 0.000000
# 4 0.000000 0.000000 0.000000 0.025529 0.000000 0.000000
# 5 0.000000 0.000000 0.000000 0.000000 0.036924 0.000000
# 6 0.000000 0.000000 0.000000 0.000000 0.000000 0.024324
#
#
# Mechanical properties :
#
#
# Convention : Reuss Voigt Hill
#
# Bulk Modulus (GPa) = 17.32231 17.78088 17.55160
# Shear Modulus (GPa) = 26.87929 30.54104 28.71017
#
# Velocity S-wave (km/s) = 3.37601 3.59863 3.48910
# Velocity P-wave (km/s) = 4.74781 4.98060 4.86560
#
# Compressibility (1/GPa) = 0.05772902
#
# Stress axis : x y z
#
# Youngs Moduli (GPa) = 34.97009 41.49590 61.84996
#
# Poissons Ratio (x) = 0.26074 -0.12756
# Poissons Ratio (y) = 0.21973 0.08324
# Poissons Ratio (z) = -0.07212 0.05585
#
# Static dielectric constant tensor:
#      x y z
#    x 1.894220 0.000000 0.000000 
#    y 0.000000 1.962340 0.000000 
#    z 0.000000 0.000000 1.887490 
# 
# From -- ./inp_files/46929.got.cif
#   From: 2010.05.17/outbox.cif.g08.bks.cpg/sg63_24_cif.got.tgz:46929.got - 2010.06.03 15:47:04.
