data_PCOD9475614
_publ_section_title
;
Structure prediction by ZEFSAII (Michael W. Deem and Ramdas Pophale) SiO2 
 PCOD9475614
Probable space group: C M C M
;
_chemical_formula_sum "Si O2"
_cell_formula_units_Z 116
_cell_length_a 31.554467
_cell_length_b 22.848848
_cell_length_c 7.553916
_cell_angle_alpha 90.000000
_cell_angle_beta 90.000000
_cell_angle_gamma 90.000000
_cell_volume 5446.246683
_symmetry_space_group_name_H-M "C M C M"
_symmetry_group_IT_number 63
_symmetry_cell_setting 'orthorhombic'
loop_
_space_group_symop_operation_xyz
x,y,z
-x,-y,1/2+z
x,-y,-z
-x,y,1/2-z
-x,-y,-z
x,y,1/2-z
-x,y,z
x,-y,1/2+z
1/2+x,1/2+y,z
1/2-x,1/2-y,1/2+z
1/2+x,1/2-y,-z
1/2-x,1/2+y,1/2-z
1/2-x,1/2-y,-z
1/2+x,1/2+y,1/2-z
1/2-x,1/2+y,z
1/2+x,1/2-y,1/2+z
loop_
_atom_site_type_symbol
_atom_site_label
_atom_site_fract_x
_atom_site_fract_y
_atom_site_fract_z
Si Si1 0.865921 0.621863 0.532082
Si Si2 0.546723 0.068908 0.537659
Si Si3 0.570895 0.677065 0.041690
Si Si4 0.203357 0.140978 0.460693
Si Si5 0.158246 0.250579 0.042868
Si Si6 0.500000 0.704458 0.750000
Si Si7 0.282491 0.935020 0.041515
Si Si8 0.876735 0.931862 0.538605
O O1 0.867817 0.622288 0.750000
O O2 0.912776 0.604380 0.470722
O O3 0.850200 0.685274 0.469316
O O4 0.829847 0.576374 0.472602
O O5 0.545678 0.075755 0.750000
O O6 0.500000 0.086298 0.469258
O O7 0.552452 0.000000 0.500000
O O8 0.557577 0.676523 0.250000
O O9 0.614069 0.715038 0.034657
O O10 0.585312 0.611444 0.984073
O O11 0.536798 0.701372 0.906662
O O12 0.196571 0.145179 0.250000
O O13 0.193114 0.205737 0.532687
O O14 0.249343 0.114233 0.485827
O O15 0.167615 0.095487 0.529927
O O16 0.168792 0.260524 0.250000
O O17 0.285342 0.930633 0.250000
O O18 0.266852 0.000000 0.000000
O O19 0.875466 0.926598 0.750000
O O20 0.881709 0.000000 0.500000
#
# Coordination Sequence:
#
# PCOD9475614 Si02
#       8
#    16  16  16  16  16   4  16  16
#     4   9  18  33  55  81 109 144 183 225 274 336
#     4   9  17  31  53  78 104 137 184 226 268 324
#     4   9  20  38  58  81 110 147 190 233 290 350
#     4   9  18  34  55  80 107 142 182 229 277 329
#     4   8  16  36  60  79 106 143 184 230 278 333
#     4  12  22  36  62  82 114 148 184 238 294 348
#     4  11  22  34  51  80 115 147 185 224 273 334
#     4   9  18  32  54  78 104 140 188 233 282 337
#
# _framework density 21.299071000000001
#
# number of rings (size 3 to 8) (size 9 to 14) (size 15 to 20)
#    0.000    2.759    0.000    3.103    0.966    2.207 
#    4.966    1.034    4.552    0.000    0.000    0.000 
#    0.000    0.000    0.000    0.000    0.000    0.000 
#
# Total GULP energy -322982.967898 kJ/mol
# GULP energy per Si atom -5568.671860 kJ/mol
# Density = 2.125059 g / cm^3
# Si number density = 21.299071 Si / 1000 Ang^3
#
#
#
# Elastic Constant Matrix: (Units=GPa)
#
#
# Indices 1 2 3 4 5 6 
#
# 1 102.9510 37.7829 12.8626 0.0000 0.0000 0.0000
# 2 37.7829 87.0972 -3.9528 0.0000 0.0000 0.0000
# 3 12.8626 -3.9528 67.9308 0.0000 0.0000 0.0000
# 4 0.0000 0.0000 0.0000 8.0545 0.0000 0.0000
# 5 0.0000 0.0000 0.0000 0.0000 9.0191 0.0000
# 6 0.0000 0.0000 0.0000 0.0000 0.0000 6.0141
#
#
#
# Elastic Compliance Matrix: (Units=1/GPa)
#
#
# Indices 1 2 3 4 5 6 
#
# 1 0.011987 -0.005317 -0.002579 0.000000 0.000000 0.000000
# 2 -0.005317 0.013870 0.001814 0.000000 0.000000 0.000000
# 3 -0.002579 0.001814 0.015315 0.000000 0.000000 0.000000
# 4 0.000000 0.000000 0.000000 0.124154 0.000000 0.000000
# 5 0.000000 0.000000 0.000000 0.000000 0.110876 0.000000
# 6 0.000000 0.000000 0.000000 0.000000 0.000000 0.166275
#
#
# Mechanical properties :
#
#
# Convention : Reuss Voigt Hill
#
# Bulk Modulus (GPa) = 34.47388 39.04048 36.75718
# Shear Modulus (GPa) = 10.76867 18.70331 14.73599
#
# Velocity S-wave (km/s) = 2.25098 2.96654 2.63318
# Velocity P-wave (km/s) = 4.79340 5.48664 5.15169
#
# Compressibility (1/GPa) = 0.02900747
#
# Stress axis : x y z
#
# Youngs Moduli (GPa) = 83.42430 72.09672 65.29656
#
# Poissons Ratio (x) = 0.38334 0.16841
# Poissons Ratio (y) = 0.44357 -0.11844
# Poissons Ratio (z) = 0.21516 -0.13077
#
# Static dielectric constant tensor:
#      x y z
#    x 1.781110 0.000000 0.000000 
#    y 0.000000 1.787300 0.000000 
#    z 0.000000 0.000000 1.803750 
# 
# From -- ./inp_files/14742.got.cif
#   From: 2010.05.17/outbox.cif.g08.bks.cpg/sg63_8_cif.got.tgz:14742.got - 2010.06.03 15:47:04.
