data_PCOD9475026
_publ_section_title
;
Structure prediction by ZEFSAII (Michael W. Deem and Ramdas Pophale) SiO2 
 PCOD9475026
Probable space group: C M C M
;
_chemical_formula_sum "Si O2"
_cell_formula_units_Z 64
_cell_length_a 15.168085
_cell_length_b 11.648585
_cell_length_c 17.246266
_cell_angle_alpha 90.000000
_cell_angle_beta 90.000000
_cell_angle_gamma 90.000000
_cell_volume 3047.186300
_symmetry_space_group_name_H-M "C M C M"
_symmetry_group_IT_number 63
_symmetry_cell_setting 'orthorhombic'
loop_
_space_group_symop_operation_xyz
x,y,z
-x,-y,1/2+z
x,-y,-z
-x,y,1/2-z
-x,-y,-z
x,y,1/2-z
-x,y,z
x,-y,1/2+z
1/2+x,1/2+y,z
1/2-x,1/2-y,1/2+z
1/2+x,1/2-y,-z
1/2-x,1/2+y,1/2-z
1/2-x,1/2-y,-z
1/2+x,1/2+y,1/2-z
1/2-x,1/2+y,z
1/2+x,1/2-y,1/2+z
loop_
_atom_site_type_symbol
_atom_site_label
_atom_site_fract_x
_atom_site_fract_y
_atom_site_fract_z
Si Si1 0.599979 0.469330 0.841396
Si Si2 0.598173 0.279448 0.104944
Si Si3 0.398825 0.120306 0.543052
Si Si4 0.713365 0.748841 0.161082
O O1 0.613333 0.501709 0.750000
O O2 0.500000 0.423785 0.847748
O O3 0.606064 0.582904 0.892812
O O4 0.667498 0.370385 0.862237
O O5 0.500000 0.252246 0.136339
O O6 0.682187 0.237340 0.152279
O O7 0.604232 0.220802 0.021288
O O8 0.500000 0.115419 0.573438
O O9 0.327640 0.152248 0.607544
O O10 0.381382 0.000000 0.500000
O O11 0.690065 0.771343 0.250000
#
# Coordination Sequence:
#
# PCOD9475026 Si02
#       4
#    16  16  16  16
#     4   9  19  37  61  92 126 159 207 265 315 373
#     4  10  22  41  64  91 128 170 210 261 320 379
#     4  10  23  43  65  94 132 172 217 266 319 388
#     4  11  23  39  66  96 127 166 214 269 326 382
#
# _framework density 21.002980999999998
#
# number of rings (size 3 to 8) (size 9 to 14) (size 15 to 20)
#    0.000    2.000    0.000    2.250    3.500    4.000 
#    0.000    5.000    0.000    9.000    0.000    0.000 
#    0.000    0.000    0.000    0.000    0.000    0.000 
#
# Total GULP energy -178772.313782 kJ/mol
# GULP energy per Si atom -5586.634806 kJ/mol
# Density = 2.095518 g / cm^3
# Si number density = 21.002981 Si / 1000 Ang^3
#
#
#
# Elastic Constant Matrix: (Units=GPa)
#
#
# Indices 1 2 3 4 5 6 
#
# 1 131.8793 78.4205 37.6839 0.0000 0.0000 0.0000
# 2 78.4205 86.9854 47.9998 0.0000 0.0000 0.0000
# 3 37.6839 47.9998 54.0598 0.0000 0.0000 0.0000
# 4 0.0000 0.0000 0.0000 12.4949 0.0000 0.0000
# 5 0.0000 0.0000 0.0000 0.0000 13.8728 0.0000
# 6 0.0000 0.0000 0.0000 0.0000 0.0000 -5.9236
#
#
#
# Elastic Compliance Matrix: (Units=1/GPa)
#
#
# Indices 1 2 3 4 5 6 
#
# 1 0.016654 -0.016877 0.003376 0.000000 0.000000 0.000000
# 2 -0.016877 0.039643 -0.023434 0.000000 0.000000 0.000000
# 3 0.003376 -0.023434 0.036952 0.000000 0.000000 0.000000
# 4 0.000000 0.000000 0.000000 0.080033 0.000000 0.000000
# 5 0.000000 0.000000 0.000000 0.000000 0.072083 0.000000
# 6 0.000000 0.000000 0.000000 0.000000 0.000000 -0.168816
#
#
# Mechanical properties :
#
#
# Convention : Reuss Voigt Hill
#
# Bulk Modulus (GPa) = 51.60448 66.79255 59.19852
# Shear Modulus (GPa) = 31.87193 11.34350 21.60771
#
# Velocity S-wave (km/s) = 3.89973 2.32650 3.21096
# Velocity P-wave (km/s) = 6.70079 6.25199 6.48028
#
# Compressibility (1/GPa) = 0.01937816
#
# Stress axis : x y z
#
# Youngs Moduli (GPa) = 60.04714 25.22540 27.06217
#
# Poissons Ratio (x) = 0.42572 -0.09136
# Poissons Ratio (y) = 1.01340 0.63418
# Poissons Ratio (z) = -0.20272 0.59114
#
# Static dielectric constant tensor:
#      x y z
#    x 1.771920 0.000000 0.000000 
#    y 0.000000 1.737780 0.000000 
#    z 0.000000 0.000000 1.745680 
# 
# From -- ./inp_files/43437.got.cif
#   From: 2010.05.17/outbox.cif.g08.bks.cpg/sg63_22_cif.got.tgz:43437.got - 2010.06.03 15:47:04.
