data_PCOD9475020
_publ_section_title
;
Structure prediction by ZEFSAII (Michael W. Deem and Ramdas Pophale) SiO2 
 PCOD9475020
Probable space group: C M C M
;
_chemical_formula_sum "Si O2"
_cell_formula_units_Z 64
_cell_length_a 10.155385
_cell_length_b 8.867923
_cell_length_c 32.925651
_cell_angle_alpha 90.000000
_cell_angle_beta 90.000000
_cell_angle_gamma 90.000000
_cell_volume 2965.191022
_symmetry_space_group_name_H-M "C M C M"
_symmetry_group_IT_number 63
_symmetry_cell_setting 'orthorhombic'
loop_
_space_group_symop_operation_xyz
x,y,z
-x,-y,1/2+z
x,-y,-z
-x,y,1/2-z
-x,-y,-z
x,y,1/2-z
-x,y,z
x,-y,1/2+z
1/2+x,1/2+y,z
1/2-x,1/2-y,1/2+z
1/2+x,1/2-y,-z
1/2-x,1/2+y,1/2-z
1/2-x,1/2-y,-z
1/2+x,1/2+y,1/2-z
1/2-x,1/2+y,z
1/2+x,1/2-y,1/2+z
loop_
_atom_site_type_symbol
_atom_site_label
_atom_site_fract_x
_atom_site_fract_y
_atom_site_fract_z
Si Si1 0.354074 0.769700 0.796468
Si Si2 0.348785 0.079193 0.657646
Si Si3 0.354819 0.387011 0.414987
Si Si4 0.708103 0.881876 0.530326
O O1 0.343610 0.824270 0.750000
O O2 0.500000 0.696381 0.800009
O O3 0.232347 0.665081 0.807548
O O4 0.351286 0.906419 0.828177
O O5 0.500000 0.130329 0.652790
O O6 0.262242 0.102430 0.617407
O O7 0.500000 0.417141 0.397817
O O8 0.355937 0.218981 0.434320
O O9 0.320473 0.515236 0.448563
O O10 0.750000 0.750000 0.500000
O O11 0.637801 0.000000 0.500000
#
# Coordination Sequence:
#
# PCOD9475020 Si02
#       4
#    16  16  16  16
#     4  10  22  41  64  91 123 159 202 251 301 357
#     4  11  24  41  62  91 126 163 204 250 302 362
#     4  11  23  40  63  91 123 161 205 252 305 366
#     4   9  21  40  61  90 122 155 199 255 309 359
#
# _framework density 21.583770000000001
#
# number of rings (size 3 to 8) (size 9 to 14) (size 15 to 20)
#    0.000    1.750    0.000    3.000    0.000   14.500 
#    0.000    7.500    0.000    0.000    0.000    0.000 
#    0.000    0.000    0.000    0.000    0.000    0.000 
#
# Total GULP energy -178390.162211 kJ/mol
# GULP energy per Si atom -5574.692569 kJ/mol
# Density = 2.153464 g / cm^3
# Si number density = 21.583770 Si / 1000 Ang^3
#
#
#
# Elastic Constant Matrix: (Units=GPa)
#
#
# Indices 1 2 3 4 5 6 
#
# 1 183.0602 39.1327 45.3942 0.0000 0.0000 0.0000
# 2 39.1327 90.2213 18.1875 0.0000 0.0000 0.0000
# 3 45.3942 18.1875 99.9648 0.0000 0.0000 0.0000
# 4 0.0000 0.0000 0.0000 41.0771 0.0000 0.0000
# 5 0.0000 0.0000 0.0000 0.0000 -120.5678 0.0000
# 6 0.0000 0.0000 0.0000 0.0000 0.0000 20.6399
#
#
#
# Elastic Compliance Matrix: (Units=1/GPa)
#
#
# Indices 1 2 3 4 5 6 
#
# 1 0.006602 -0.002345 -0.002571 0.000000 0.000000 0.000000
# 2 -0.002345 0.012339 -0.001180 0.000000 0.000000 0.000000
# 3 -0.002571 -0.001180 0.011386 0.000000 0.000000 0.000000
# 4 0.000000 0.000000 0.000000 0.024344 0.000000 0.000000
# 5 0.000000 0.000000 0.000000 0.000000 -0.008294 0.000000
# 6 0.000000 0.000000 0.000000 0.000000 0.000000 0.048450
#
#
# Mechanical properties :
#
#
# Convention : Reuss Voigt Hill
#
# Bulk Modulus (GPa) = 55.14567 64.29722 59.72145
# Shear Modulus (GPa) = 44.22295 6.26530 25.24413
#
# Velocity S-wave (km/s) = 4.53139 1.70560 3.42363
# Velocity P-wave (km/s) = 7.27894 5.80802 6.58468
#
# Compressibility (1/GPa) = 0.01813379
#
# Stress axis : x y z
#
# Youngs Moduli (GPa) = 151.47945 81.04463 87.82904
#
# Poissons Ratio (x) = 0.19005 0.22582
# Poissons Ratio (y) = 0.35523 0.10364
# Poissons Ratio (z) = 0.38947 0.09563
#
# Static dielectric constant tensor:
#      x y z
#    x 1.773390 0.000000 0.000000 
#    y 0.000000 1.783330 0.000000 
#    z 0.000000 0.000000 1.840350 
# 
# From -- ./inp_files/72367.got.cif
#   From: 2010.05.17/outbox.cif.g08.bks.cpg/sg63_37_cif.got.tgz:72367.got - 2010.06.03 15:47:04.
