data_PCOD9475202
_publ_section_title
;
Structure prediction by ZEFSAII (Michael W. Deem and Ramdas Pophale) SiO2 
 PCOD9475202
Probable space group: C M C M
;
_chemical_formula_sum "Si O2"
_cell_formula_units_Z 84
_cell_length_a 20.525518
_cell_length_b 12.508520
_cell_length_c 14.572620
_cell_angle_alpha 90.000000
_cell_angle_beta 90.000000
_cell_angle_gamma 90.000000
_cell_volume 3741.430599
_symmetry_space_group_name_H-M "C M C M"
_symmetry_group_IT_number 63
_symmetry_cell_setting 'orthorhombic'
loop_
_space_group_symop_operation_xyz
x,y,z
-x,-y,1/2+z
x,-y,-z
-x,y,1/2-z
-x,-y,-z
x,y,1/2-z
-x,y,z
x,-y,1/2+z
1/2+x,1/2+y,z
1/2-x,1/2-y,1/2+z
1/2+x,1/2-y,-z
1/2-x,1/2+y,1/2-z
1/2-x,1/2-y,-z
1/2+x,1/2+y,1/2-z
1/2-x,1/2+y,z
1/2+x,1/2-y,1/2+z
loop_
_atom_site_type_symbol
_atom_site_label
_atom_site_fract_x
_atom_site_fract_y
_atom_site_fract_z
Si Si1 0.306504 0.314547 0.606169
Si Si2 0.075943 0.414185 0.860985
Si Si3 0.327172 0.729402 0.601105
Si Si4 0.115349 0.009850 0.889415
Si Si5 0.000000 0.961680 0.750000
Si Si6 0.072491 0.659179 0.640041
O O1 0.302831 0.316691 0.496012
O O2 0.239993 0.268028 0.646216
O O3 0.323281 0.434488 0.634007
O O4 0.369087 0.239703 0.622281
O O5 0.084919 0.406952 0.750000
O O6 0.125087 0.330845 0.906283
O O7 0.086506 0.537377 0.889878
O O8 0.000000 0.388706 0.879650
O O9 0.368817 0.631157 0.639163
O O10 0.056277 0.966185 0.830201
O O11 0.102638 0.000000 0.000000
O O12 0.066888 0.654153 0.750000
O O13 0.000000 0.691404 0.605394
#
# Coordination Sequence:
#
# PCOD9475202 Si02
#       6
#    16  16  16  16   4  16
#     4  10  23  41  62  87 126 171 209 264 326 380
#     4   9  20  38  60  89 122 156 202 264 315 368
#     4  10  23  41  62  87 126 171 209 264 326 380
#     4  10  25  45  65 100 136 168 223 278 321 389
#     4  12  26  44  72  98 126 188 216 260 344 404
#     4   9  20  38  60  89 122 156 202 264 315 368
#
# _framework density 22.451305000000001
#
# number of rings (size 3 to 8) (size 9 to 14) (size 15 to 20)
#    0.000    2.286    0.000    1.429    8.000    2.286 
#    0.000    1.905    0.000    0.000    0.000    0.000 
#    0.000    0.000    0.000    0.000    0.000    0.000 
#
# Total GULP energy -233979.265171 kJ/mol
# GULP energy per Si atom -5570.934885 kJ/mol
# Density = 2.240021 g / cm^3
# Si number density = 22.451305 Si / 1000 Ang^3
#
#
#
# Elastic Constant Matrix: (Units=GPa)
#
#
# Indices 1 2 3 4 5 6 
#
# 1 90.9376 38.9074 -6.5262 0.0000 0.0000 0.0000
# 2 38.9074 76.3374 -12.7541 0.0000 0.0000 0.0000
# 3 -6.5262 -12.7541 82.7538 0.0000 0.0000 0.0000
# 4 0.0000 0.0000 0.0000 -7.7978 0.0000 0.0000
# 5 0.0000 0.0000 0.0000 0.0000 -249.5115 0.0000
# 6 0.0000 0.0000 0.0000 0.0000 0.0000 -56.5407
#
#
#
# Elastic Compliance Matrix: (Units=1/GPa)
#
#
# Indices 1 2 3 4 5 6 
#
# 1 0.014063 -0.007167 0.000004 0.000000 0.000000 0.000000
# 2 -0.007167 0.017098 0.002070 0.000000 0.000000 0.000000
# 3 0.000004 0.002070 0.012403 0.000000 0.000000 0.000000
# 4 0.000000 0.000000 0.000000 -0.128241 0.000000 0.000000
# 5 0.000000 0.000000 0.000000 0.000000 -0.004008 0.000000
# 6 0.000000 0.000000 0.000000 0.000000 0.000000 -0.017686
#
#
# Mechanical properties :
#
#
# Convention : Reuss Voigt Hill
#
# Bulk Modulus (GPa) = 29.95789 32.14255 31.05022
# Shear Modulus (GPa) = -58.78291 -47.40987 -53.09639
#
# Velocity S-wave (km/s) = -5.12243 -4.60028 -4.86836
# Velocity P-wave (km/s) = 4.64900 3.72413 4.21203
#
# Compressibility (1/GPa) = 0.03338018
#
# Stress axis : x y z
#
# Youngs Moduli (GPa) = 71.10739 58.48499 80.62287
#
# Poissons Ratio (x) = 0.41916 -0.00036
# Poissons Ratio (y) = 0.50962 -0.16689
# Poissons Ratio (z) = -0.00032 -0.12106
#
# Static dielectric constant tensor:
#      x y z
#    x 1.828990 0.000000 0.000000 
#    y 0.000000 1.835770 0.000000 
#    z 0.000000 0.000000 1.890520 
# 
# From -- ./inp_files/46818.got.cif
#   From: 2010.05.17/outbox.cif.g08.bks.cpg/sg63_24_cif.got.tgz:46818.got - 2010.06.03 15:47:04.
