data_PCOD9475724
_publ_section_title
;
Structure prediction by ZEFSAII (Michael W. Deem and Ramdas Pophale) SiO2 
 PCOD9475724
Probable space group: C M C M
;
_chemical_formula_sum "Si O2"
_cell_formula_units_Z 40
_cell_length_a 9.116057
_cell_length_b 36.087027
_cell_length_c 7.401895
_cell_angle_alpha 90.000000
_cell_angle_beta 90.000000
_cell_angle_gamma 90.000000
_cell_volume 2435.011724
_symmetry_space_group_name_H-M "C M C M"
_symmetry_group_IT_number 63
_symmetry_cell_setting 'orthorhombic'
loop_
_space_group_symop_operation_xyz
x,y,z
-x,-y,1/2+z
x,-y,-z
-x,y,1/2-z
-x,-y,-z
x,y,1/2-z
-x,y,z
x,-y,1/2+z
1/2+x,1/2+y,z
1/2-x,1/2-y,1/2+z
1/2+x,1/2-y,-z
1/2-x,1/2+y,1/2-z
1/2-x,1/2-y,-z
1/2+x,1/2+y,1/2-z
1/2-x,1/2+y,z
1/2+x,1/2-y,1/2+z
loop_
_atom_site_type_symbol
_atom_site_label
_atom_site_fract_x
_atom_site_fract_y
_atom_site_fract_z
Si Si1 0.827050 0.659936 0.250000
Si Si2 0.171931 0.789214 0.462547
Si Si3 0.000000 0.043779 0.963534
Si Si4 0.843179 0.911957 0.750000
O O1 0.753125 0.679716 0.421627
O O2 0.786821 0.616641 0.250000
O O3 0.000000 0.666359 0.250000
O O4 0.181630 0.797119 0.250000
O O5 0.250000 0.750000 0.500000
O O6 0.000000 0.786890 0.511719
O O7 0.000000 0.051133 0.750000
O O8 0.863619 0.062373 0.072758
O O9 0.000000 0.000000 0.000000
O O10 0.000000 0.889608 0.750000
#
# Coordination Sequence:
#
# PCOD9475724 Si02
#       4
#     8  16   8   8
#     4  12  24  40  56  80 124 158 196 245 294 348
#     4  11  23  38  60  83 110 151 203 253 302 350
#     4   9  15  32  61  93 114 143 183 236 293 351
#     4   8  20  32  56  88 114 140 192 231 290 330
#
# _framework density 16.427026000000001
#
# number of rings (size 3 to 8) (size 9 to 14) (size 15 to 20)
#    1.200    0.400    4.000    3.000    0.000    4.000 
#    0.000    0.000    0.000    1.200    0.000    0.000 
#    0.000    0.000    0.000    0.000    0.000    0.000 
#
# Total GULP energy -111385.960978 kJ/mol
# GULP energy per Si atom -5569.298049 kJ/mol
# Density = 1.638964 g / cm^3
# Si number density = 16.427026 Si / 1000 Ang^3
#
#
#
# Elastic Constant Matrix: (Units=GPa)
#
#
# Indices 1 2 3 4 5 6 
#
# 1 127.3050 48.9690 53.5842 0.0000 0.0000 0.0000
# 2 48.9690 108.7224 56.2387 0.0000 0.0000 0.0000
# 3 53.5842 56.2387 148.5361 0.0000 0.0000 0.0000
# 4 0.0000 0.0000 0.0000 28.5868 0.0000 0.0000
# 5 0.0000 0.0000 0.0000 0.0000 18.3881 0.0000
# 6 0.0000 0.0000 0.0000 0.0000 0.0000 29.5043
#
#
#
# Elastic Compliance Matrix: (Units=1/GPa)
#
#
# Indices 1 2 3 4 5 6 
#
# 1 0.010146 -0.003328 -0.002400 0.000000 0.000000 0.000000
# 2 -0.003328 0.012530 -0.003543 0.000000 0.000000 0.000000
# 3 -0.002400 -0.003543 0.008940 0.000000 0.000000 0.000000
# 4 0.000000 0.000000 0.000000 0.034981 0.000000 0.000000
# 5 0.000000 0.000000 0.000000 0.000000 0.054383 0.000000
# 6 0.000000 0.000000 0.000000 0.000000 0.000000 0.033893
#
#
# Mechanical properties :
#
#
# Convention : Reuss Voigt Hill
#
# Bulk Modulus (GPa) = 76.49905 78.01636 77.25770
# Shear Modulus (GPa) = 28.12582 30.34727 29.23654
#
# Velocity S-wave (km/s) = 4.14232 4.30280 4.22332
# Velocity P-wave (km/s) = 8.33958 8.50184 8.42110
#
# Compressibility (1/GPa) = 0.01307206
#
# Stress axis : x y z
#
# Youngs Moduli (GPa) = 98.56584 79.81083 111.86076
#
# Poissons Ratio (x) = 0.26563 0.26845
# Poissons Ratio (y) = 0.32805 0.39636
# Poissons Ratio (z) = 0.23654 0.28280
#
# Static dielectric constant tensor:
#      x y z
#    x 1.552650 0.000000 0.000000 
#    y 0.000000 1.541380 0.000000 
#    z 0.000000 0.000000 1.567150 
# 
# From -- ./inp_files/1877.got.cif
#   From: 2010.05.17/outbox.cif.g08.bks.cpg/sg63_1_cif.got.tgz:1877.got - 2010.06.03 15:47:04.
