data_PCOD9475921
_publ_section_title
;
Structure prediction by ZEFSAII (Michael W. Deem and Ramdas Pophale) SiO2 
 PCOD9475921
Probable space group: C M C M
;
_chemical_formula_sum "Si O2"
_cell_formula_units_Z 32
_cell_length_a 27.391421
_cell_length_b 4.965105
_cell_length_c 10.482895
_cell_angle_alpha 90.000000
_cell_angle_beta 90.000000
_cell_angle_gamma 90.000000
_cell_volume 1425.687152
_symmetry_space_group_name_H-M "C M C M"
_symmetry_group_IT_number 63
_symmetry_cell_setting 'orthorhombic'
loop_
_space_group_symop_operation_xyz
x,y,z
-x,-y,1/2+z
x,-y,-z
-x,y,1/2-z
-x,-y,-z
x,y,1/2-z
-x,y,z
x,-y,1/2+z
1/2+x,1/2+y,z
1/2-x,1/2-y,1/2+z
1/2+x,1/2-y,-z
1/2-x,1/2+y,1/2-z
1/2-x,1/2-y,-z
1/2+x,1/2+y,1/2-z
1/2-x,1/2+y,z
1/2+x,1/2-y,1/2+z
loop_
_atom_site_type_symbol
_atom_site_label
_atom_site_fract_x
_atom_site_fract_y
_atom_site_fract_z
Si Si1 0.213778 0.500000 0.500000
Si Si2 0.352386 0.013006 0.250000
Si Si3 0.000000 0.286751 0.613245
Si Si4 0.419370 0.507403 0.250000
O O1 0.250000 0.750000 0.500000
O O2 0.179761 0.522855 0.624066
O O3 0.398148 0.806294 0.250000
O O4 0.372824 0.314303 0.250000
O O5 0.000000 0.500000 0.500000
O O6 0.953387 0.090094 0.631929
O O7 0.000000 0.445671 0.750000
#
# Coordination Sequence:
#
# PCOD9475921 Si02
#       4
#     8   8   8   8
#     4  12  26  46  72 101 140 183 238 300 374 430
#     4  12  24  46  72 103 139 186 240 298 352 446
#     4   8  20  42  70 100 151 190 240 294 352 426
#     4   9  24  41  72 103 143 186 240 289 360 413
#
# _framework density 22.445316999999999
#
# number of rings (size 3 to 8) (size 9 to 14) (size 15 to 20)
#    1.500    0.000    0.000    4.500    3.500    4.000 
#    0.000    2.500    0.000    0.000    0.000    0.000 
#    0.000    0.000    0.000    0.000    0.000    0.000 
#
# Total GULP energy -89392.219543 kJ/mol
# GULP energy per Si atom -5587.013721 kJ/mol
# Density = 2.239423 g / cm^3
# Si number density = 22.445317 Si / 1000 Ang^3
#
#
#
# Elastic Constant Matrix: (Units=GPa)
#
#
# Indices 1 2 3 4 5 6 
#
# 1 131.5426 28.2782 64.7637 0.0000 0.0000 0.0000
# 2 28.2782 107.2336 29.6055 0.0000 0.0000 0.0000
# 3 64.7637 29.6055 207.8456 0.0000 0.0000 0.0000
# 4 0.0000 0.0000 0.0000 35.8167 0.0000 0.0000
# 5 0.0000 0.0000 0.0000 0.0000 -23.6759 0.0000
# 6 0.0000 0.0000 0.0000 0.0000 0.0000 41.5385
#
#
#
# Elastic Compliance Matrix: (Units=1/GPa)
#
#
# Indices 1 2 3 4 5 6 
#
# 1 0.009273 -0.001715 -0.002645 0.000000 0.000000 0.000000
# 2 -0.001715 0.010024 -0.000893 0.000000 0.000000 0.000000
# 3 -0.002645 -0.000893 0.005763 0.000000 0.000000 0.000000
# 4 0.000000 0.000000 0.000000 0.027920 0.000000 0.000000
# 5 0.000000 0.000000 0.000000 0.000000 -0.042237 0.000000
# 6 0.000000 0.000000 0.000000 0.000000 0.000000 0.024074
#
#
# Mechanical properties :
#
#
# Convention : Reuss Voigt Hill
#
# Bulk Modulus (GPa) = 68.71517 76.87961 72.79739
# Shear Modulus (GPa) = 99.64998 32.33416 65.99207
#
# Velocity S-wave (km/s) = 6.67032 3.79961 5.42818
# Velocity P-wave (km/s) = 9.48710 7.31954 8.47292
#
# Compressibility (1/GPa) = 0.01455283
#
# Stress axis : x y z
#
# Youngs Moduli (GPa) = 107.83861 99.75679 173.52843
#
# Poissons Ratio (x) = 0.17109 0.45901
# Poissons Ratio (y) = 0.18495 0.15504
# Poissons Ratio (z) = 0.28525 0.08913
#
# Static dielectric constant tensor:
#      x y z
#    x 1.794010 0.000000 0.000000 
#    y 0.000000 1.785540 0.000000 
#    z 0.000000 0.000000 1.872780 
# 
# From -- ./inp_files/13410.got.cif
#   From: 2010.05.17/outbox.cif.g08.bks.cpg/sg63_7_cif.got.tgz:13410.got - 2010.06.03 15:47:04.
