data_PCOD9475096
_publ_section_title
;
Structure prediction by ZEFSAII (Michael W. Deem and Ramdas Pophale) SiO2 
 PCOD9475096
Probable space group: C M C M
;
_chemical_formula_sum "Si O2"
_cell_formula_units_Z 72
_cell_length_a 25.781357
_cell_length_b 9.796935
_cell_length_c 14.342124
_cell_angle_alpha 90.000000
_cell_angle_beta 90.000000
_cell_angle_gamma 90.000000
_cell_volume 3622.508993
_symmetry_space_group_name_H-M "C M C M"
_symmetry_group_IT_number 63
_symmetry_cell_setting 'orthorhombic'
loop_
_space_group_symop_operation_xyz
x,y,z
-x,-y,1/2+z
x,-y,-z
-x,y,1/2-z
-x,-y,-z
x,y,1/2-z
-x,y,z
x,-y,1/2+z
1/2+x,1/2+y,z
1/2-x,1/2-y,1/2+z
1/2+x,1/2-y,-z
1/2-x,1/2+y,1/2-z
1/2-x,1/2-y,-z
1/2+x,1/2+y,1/2-z
1/2-x,1/2+y,z
1/2+x,1/2-y,1/2+z
loop_
_atom_site_type_symbol
_atom_site_label
_atom_site_fract_x
_atom_site_fract_y
_atom_site_fract_z
Si Si1 0.715952 0.000000 0.500000
Si Si2 0.936953 0.550681 0.250000
Si Si3 0.633300 0.811279 0.904923
Si Si4 0.888746 0.122524 0.433321
Si Si5 0.061109 0.768606 0.750000
Si Si6 0.200569 0.946817 0.356561
O O1 0.679289 0.087581 0.433053
O O2 0.752996 0.081520 0.571691
O O3 0.909797 0.621743 0.339274
O O4 0.921925 0.390160 0.250000
O O5 0.000000 0.563830 0.250000
O O6 0.660233 0.678722 0.858796
O O7 0.611315 0.755734 0.002635
O O8 0.919813 0.152035 0.340707
O O9 0.908092 0.000000 0.500000
O O10 0.831538 0.074820 0.398978
O O11 0.000000 0.765035 0.750000
O O12 0.217005 0.971770 0.250000
#
# Coordination Sequence:
#
# PCOD9475096 Si02
#       6
#     8   8  16  16   8  16
#     4  12  24  40  63 102 137 180 208 274 330 400
#     4  11  26  47  72  96 129 179 227 287 337 395
#     4  11  23  44  64  98 133 172 229 266 334 402
#     4  10  22  42  67  92 136 176 217 282 330 397
#     4  11  24  43  66  98 127 167 231 285 347 395
#     4  11  22  39  64  96 136 173 219 265 323 399
#
# _framework density 19.875727999999999
#
# number of rings (size 3 to 8) (size 9 to 14) (size 15 to 20)
#    0.000    1.111    5.556    2.000    1.556    1.333 
#    2.000   10.556    0.000    0.000    0.000    0.000 
#    0.000    0.000    0.000    0.000    0.000    0.000 
#
# Total GULP energy -200973.861314 kJ/mol
# GULP energy per Si atom -5582.607259 kJ/mol
# Density = 1.983049 g / cm^3
# Si number density = 19.875728 Si / 1000 Ang^3
#
#
#
# Elastic Constant Matrix: (Units=GPa)
#
#
# Indices 1 2 3 4 5 6 
#
# 1 79.9100 39.7177 56.4730 0.0000 0.0000 0.0000
# 2 39.7177 53.4792 38.2632 0.0000 0.0000 0.0000
# 3 56.4730 38.2632 167.0808 0.0000 0.0000 0.0000
# 4 0.0000 0.0000 0.0000 50.7974 0.0000 0.0000
# 5 0.0000 0.0000 0.0000 0.0000 35.2358 0.0000
# 6 0.0000 0.0000 0.0000 0.0000 0.0000 -229.5275
#
#
#
# Elastic Compliance Matrix: (Units=1/GPa)
#
#
# Indices 1 2 3 4 5 6 
#
# 1 0.022332 -0.013377 -0.004485 0.000000 0.000000 0.000000
# 2 -0.013377 0.030376 -0.002435 0.000000 0.000000 0.000000
# 3 -0.004485 -0.002435 0.008059 0.000000 0.000000 0.000000
# 4 0.000000 0.000000 0.000000 0.019686 0.000000 0.000000
# 5 0.000000 0.000000 0.000000 0.000000 0.028380 0.000000
# 6 0.000000 0.000000 0.000000 0.000000 0.000000 -0.004357
#
#
# Mechanical properties :
#
#
# Convention : Reuss Voigt Hill
#
# Bulk Modulus (GPa) = 49.57056 63.26420 56.41738
# Shear Modulus (GPa) = 32.93947 -17.63110 7.65418
#
# Velocity S-wave (km/s) = 4.07538 -2.98160 1.96453
# Velocity P-wave (km/s) = 6.86581 4.47725 5.79591
#
# Compressibility (1/GPa) = 0.02017326
#
# Stress axis : x y z
#
# Youngs Moduli (GPa) = 44.77841 32.92112 124.09060
#
# Poissons Ratio (x) = 0.44038 0.55652
# Poissons Ratio (y) = 0.59899 0.30216
# Poissons Ratio (z) = 0.20082 0.08016
#
# Static dielectric constant tensor:
#      x y z
#    x 1.686040 0.000000 0.000000 
#    y 0.000000 1.734390 0.000000 
#    z 0.000000 0.000000 1.699560 
# 
# From -- ./inp_files/37583.got.cif
#   From: 2010.05.17/outbox.cif.g08.bks.cpg/sg63_19_cif.got.tgz:37583.got - 2010.06.03 15:47:04.
