data_PCOD9475237
_publ_section_title
;
Structure prediction by ZEFSAII (Michael W. Deem and Ramdas Pophale) SiO2 
 PCOD9475237
Probable space group: C M C M
;
_chemical_formula_sum "Si O2"
_cell_formula_units_Z 68
_cell_length_a 26.522114
_cell_length_b 7.818378
_cell_length_c 14.708932
_cell_angle_alpha 90.000000
_cell_angle_beta 90.000000
_cell_angle_gamma 90.000000
_cell_volume 3050.042854
_symmetry_space_group_name_H-M "C M C M"
_symmetry_group_IT_number 63
_symmetry_cell_setting 'orthorhombic'
loop_
_space_group_symop_operation_xyz
x,y,z
-x,-y,1/2+z
x,-y,-z
-x,y,1/2-z
-x,-y,-z
x,y,1/2-z
-x,y,z
x,-y,1/2+z
1/2+x,1/2+y,z
1/2-x,1/2-y,1/2+z
1/2+x,1/2-y,-z
1/2-x,1/2+y,1/2-z
1/2-x,1/2-y,-z
1/2+x,1/2+y,1/2-z
1/2-x,1/2+y,z
1/2+x,1/2-y,1/2+z
loop_
_atom_site_type_symbol
_atom_site_label
_atom_site_fract_x
_atom_site_fract_y
_atom_site_fract_z
Si Si1 0.232268 0.959499 0.142706
Si Si2 0.084255 0.427055 0.750000
Si Si3 0.418905 0.687312 0.250000
Si Si4 0.000000 0.124213 0.750000
Si Si5 0.332002 0.880912 0.596700
Si Si6 0.142536 0.155106 0.437165
O O1 0.233559 0.995975 0.250000
O O2 0.201407 0.784798 0.128027
O O3 0.288947 0.974505 0.106437
O O4 0.198715 0.096938 0.089482
O O5 0.060967 0.617713 0.750000
O O6 0.122287 0.411640 0.835122
O O7 0.044216 0.274724 0.750000
O O8 0.456842 0.529290 0.250000
O O9 0.386375 0.672339 0.157447
O O10 0.356094 0.819361 0.501749
O O11 0.121102 0.000000 0.500000
#
# Coordination Sequence:
#
# PCOD9475237 Si02
#       6
#    16   8   8   4  16  16
#     4  11  19  36  61  98 151 207 244 284 345 415
#     4  12  27  48  78 111 146 189 255 319 382 456
#     4  12  27  50  83 106 144 199 245 321 399 450
#     4  12  26  56  84 108 138 182 260 334 404 454
#     4  11  24  41  66 107 156 201 242 301 353 439
#     4  10  23  42  70 107 153 204 255 294 361 442
#
# _framework density 22.294768000000001
#
# number of rings (size 3 to 8) (size 9 to 14) (size 15 to 20)
#    0.000    0.941    3.529    3.882    3.294    0.941 
#    0.000    5.294    0.000    7.059    0.000    0.000 
#    0.000    0.000    0.000    0.000    0.000    0.000 
#
# Total GULP energy -189721.306831 kJ/mol
# GULP energy per Si atom -5580.038436 kJ/mol
# Density = 2.224402 g / cm^3
# Si number density = 22.294768 Si / 1000 Ang^3
#
#
#
# Elastic Constant Matrix: (Units=GPa)
#
#
# Indices 1 2 3 4 5 6 
#
# 1 149.3527 71.6888 52.5019 0.0000 0.0000 0.0000
# 2 71.6888 194.5252 39.3509 0.0000 0.0000 0.0000
# 3 52.5019 39.3509 183.6287 0.0000 0.0000 0.0000
# 4 0.0000 0.0000 0.0000 27.8080 0.0000 0.0000
# 5 0.0000 0.0000 0.0000 0.0000 9.2692 0.0000
# 6 0.0000 0.0000 0.0000 0.0000 0.0000 41.0011
#
#
#
# Elastic Compliance Matrix: (Units=1/GPa)
#
#
# Indices 1 2 3 4 5 6 
#
# 1 0.008717 -0.002831 -0.001886 0.000000 0.000000 0.000000
# 2 -0.002831 0.006293 -0.000539 0.000000 0.000000 0.000000
# 3 -0.001886 -0.000539 0.006100 0.000000 0.000000 0.000000
# 4 0.000000 0.000000 0.000000 0.035961 0.000000 0.000000
# 5 0.000000 0.000000 0.000000 0.000000 0.107884 0.000000
# 6 0.000000 0.000000 0.000000 0.000000 0.000000 0.024390
#
#
# Mechanical properties :
#
#
# Convention : Reuss Voigt Hill
#
# Bulk Modulus (GPa) = 94.34864 94.95439 94.65151
# Shear Modulus (GPa) = 24.58320 39.88000 32.23160
#
# Velocity S-wave (km/s) = 3.32421 4.23396 3.80636
# Velocity P-wave (km/s) = 7.55939 8.15995 7.86541
#
# Compressibility (1/GPa) = 0.01059899
#
# Stress axis : x y z
#
# Youngs Moduli (GPa) = 114.71311 158.90264 163.92218
#
# Poissons Ratio (x) = 0.44988 0.30911
# Poissons Ratio (y) = 0.32477 0.08837
# Poissons Ratio (z) = 0.21632 0.08567
#
# Static dielectric constant tensor:
#      x y z
#    x 1.743320 0.000000 0.000000 
#    y 0.000000 1.993580 0.000000 
#    z 0.000000 0.000000 1.892040 
# 
# From -- ./inp_files/37490.got.cif
#   From: 2010.05.17/outbox.cif.g08.bks.cpg/sg63_19_cif.got.tgz:37490.got - 2010.06.03 15:47:04.
