data_PCOD9475866
_publ_section_title
;
Structure prediction by ZEFSAII (Michael W. Deem and Ramdas Pophale) SiO2 
 PCOD9475866
Probable space group: C M C M
;
_chemical_formula_sum "Si O2"
_cell_formula_units_Z 68
_cell_length_a 7.717702
_cell_length_b 24.577880
_cell_length_c 17.165371
_cell_angle_alpha 90.000000
_cell_angle_beta 90.000000
_cell_angle_gamma 90.000000
_cell_volume 3256.009169
_symmetry_space_group_name_H-M "C M C M"
_symmetry_group_IT_number 63
_symmetry_cell_setting 'orthorhombic'
loop_
_space_group_symop_operation_xyz
x,y,z
-x,-y,1/2+z
x,-y,-z
-x,y,1/2-z
-x,-y,-z
x,y,1/2-z
-x,y,z
x,-y,1/2+z
1/2+x,1/2+y,z
1/2-x,1/2-y,1/2+z
1/2+x,1/2-y,-z
1/2-x,1/2+y,1/2-z
1/2-x,1/2-y,-z
1/2+x,1/2+y,1/2-z
1/2-x,1/2+y,z
1/2+x,1/2-y,1/2+z
loop_
_atom_site_type_symbol
_atom_site_label
_atom_site_fract_x
_atom_site_fract_y
_atom_site_fract_z
Si Si1 0.708767 0.252710 0.842569
Si Si2 0.703245 0.939097 0.512095
Si Si3 0.709715 0.625040 0.339269
Si Si4 0.500000 0.118129 0.750000
Si Si5 0.691802 0.362829 0.375186
O O1 0.745960 0.244758 0.750000
O O2 0.500000 0.249721 0.849676
O O3 0.765274 0.313705 0.862917
O O4 0.788553 0.202175 0.887408
O O5 0.500000 0.939765 0.492669
O O6 0.725509 0.919015 0.600209
O O7 0.790522 0.896023 0.454845
O O8 0.772075 0.000000 0.500000
O O9 0.764852 0.615660 0.250000
O O10 0.500000 0.624952 0.339901
O O11 0.653189 0.120695 0.817662
O O12 0.500000 0.373113 0.342866
#
# Coordination Sequence:
#
# PCOD9475866 Si02
#       5
#    16  16  16   4  16
#     4   9  16  34  60  92 135 168 201 259 317 384
#     4  11  25  46  64  86 129 175 220 282 332 376
#     4   9  20  39  66  95 128 169 213 264 327 393
#     4  12  22  44  62 102 142 164 212 280 306 404
#     4  12  23  39  69  98 131 178 215 261 332 385
#
# _framework density 20.884463
#
# number of rings (size 3 to 8) (size 9 to 14) (size 15 to 20)
#    0.000    1.647    3.529    2.471    0.000    4.235 
#    2.118    2.353    0.000    0.000    0.000    0.000 
#    0.000    0.000    0.000    0.000    0.000    0.000 
#
# Total GULP energy -189426.485748 kJ/mol
# GULP energy per Si atom -5571.367228 kJ/mol
# Density = 2.083693 g / cm^3
# Si number density = 20.884463 Si / 1000 Ang^3
#
#
#
# Elastic Constant Matrix: (Units=GPa)
#
#
# Indices 1 2 3 4 5 6 
#
# 1 108.3565 15.6173 20.1580 0.0000 0.0000 0.0000
# 2 15.6173 154.7286 75.8552 0.0000 0.0000 0.0000
# 3 20.1580 75.8552 91.7384 0.0000 0.0000 0.0000
# 4 0.0000 0.0000 0.0000 97.4573 0.0000 0.0000
# 5 0.0000 0.0000 0.0000 0.0000 20.8242 0.0000
# 6 0.0000 0.0000 0.0000 0.0000 0.0000 -21.6343
#
#
#
# Elastic Compliance Matrix: (Units=1/GPa)
#
#
# Indices 1 2 3 4 5 6 
#
# 1 0.009623 0.000110 -0.002205 0.000000 0.000000 0.000000
# 2 0.000110 0.010870 -0.009012 0.000000 0.000000 0.000000
# 3 -0.002205 -0.009012 0.018837 0.000000 0.000000 0.000000
# 4 0.000000 0.000000 0.000000 0.010261 0.000000 0.000000
# 5 0.000000 0.000000 0.000000 0.000000 0.048021 0.000000
# 6 0.000000 0.000000 0.000000 0.000000 0.000000 -0.046223
#
#
# Mechanical properties :
#
#
# Convention : Reuss Voigt Hill
#
# Bulk Modulus (GPa) = 58.42872 64.23160 61.33016
# Shear Modulus (GPa) = 63.04402 35.54232 49.29317
#
# Velocity S-wave (km/s) = 5.50023 4.12983 4.86354
# Velocity P-wave (km/s) = 8.26890 7.31868 7.80826
#
# Compressibility (1/GPa) = 0.01711487
#
# Stress axis : x y z
#
# Youngs Moduli (GPa) = 103.91509 91.99607 53.08699
#
# Poissons Ratio (x) = -0.01011 0.11708
# Poissons Ratio (y) = -0.01142 0.47843
# Poissons Ratio (z) = 0.22918 0.82909
#
# Static dielectric constant tensor:
#      x y z
#    x 1.759080 0.000000 0.000000 
#    y 0.000000 1.762090 0.000000 
#    z 0.000000 0.000000 1.721650 
# 
# From -- ./inp_files/40194.got.cif
#   From: 2010.05.17/outbox.cif.g08.bks.cpg/sg63_21_cif.got.tgz:40194.got - 2010.06.03 15:47:04.
