data_PCOD9475966
_publ_section_title
;
Structure prediction by ZEFSAII (Michael W. Deem and Ramdas Pophale) SiO2 
 PCOD9475966
Probable space group: C M C M
;
_chemical_formula_sum "Si O2"
_cell_formula_units_Z 96
_cell_length_a 7.345768
_cell_length_b 32.562372
_cell_length_c 18.708629
_cell_angle_alpha 90.000000
_cell_angle_beta 90.000000
_cell_angle_gamma 90.000000
_cell_volume 4475.022305
_symmetry_space_group_name_H-M "C M C M"
_symmetry_group_IT_number 63
_symmetry_cell_setting 'orthorhombic'
loop_
_space_group_symop_operation_xyz
x,y,z
-x,-y,1/2+z
x,-y,-z
-x,y,1/2-z
-x,-y,-z
x,y,1/2-z
-x,y,z
x,-y,1/2+z
1/2+x,1/2+y,z
1/2-x,1/2-y,1/2+z
1/2+x,1/2-y,-z
1/2-x,1/2+y,1/2-z
1/2-x,1/2-y,-z
1/2+x,1/2+y,1/2-z
1/2-x,1/2+y,z
1/2+x,1/2-y,1/2+z
loop_
_atom_site_type_symbol
_atom_site_label
_atom_site_fract_x
_atom_site_fract_y
_atom_site_fract_z
Si Si1 0.778296 0.664693 0.833598
Si Si2 0.214849 0.655808 0.331456
Si Si3 0.722344 0.916997 0.413814
Si Si4 0.721990 0.000972 0.667963
Si Si5 0.722600 0.078434 0.077998
Si Si6 0.781865 0.754131 0.832585
O O1 0.726358 0.660891 0.750000
O O2 0.717166 0.625793 0.878902
O O3 0.720236 0.709860 0.861246
O O4 0.000000 0.664222 0.834609
O O5 0.289690 0.655315 0.250000
O O6 0.285233 0.619182 0.380442
O O7 0.234601 0.701522 0.363792
O O8 0.000000 0.648589 0.325061
O O9 0.500000 0.916719 0.413188
O O10 0.779884 0.921540 0.495745
O O11 0.779095 0.956180 0.367298
O O12 0.780402 0.997299 0.750000
O O13 0.500000 0.000872 0.668177
O O14 0.779101 0.962190 0.620618
O O15 0.500000 0.078516 0.077446
O O16 0.717503 0.755576 0.750000
O O17 0.000000 0.752728 0.831393
#
# Coordination Sequence:
#
# PCOD9475966 Si02
#       6
#    16  16  16  16  16  16
#     4   8  13  22  36  53  72  95 125 162 203 240
#     4   9  16  26  40  57  79 108 138 165 196 237
#     4   9  15  22  33  50  73 100 129 161 197 238
#     4   9  15  22  33  49  71 101 133 161 193 237
#     4   9  16  24  33  49  76 106 131 157 194 237
#     4   8  14  25  41  59  78 101 132 171 207 234
#
# _framework density 21.452407000000001
#
# number of rings (size 3 to 8) (size 9 to 14) (size 15 to 20)
#    0.000    3.333    0.000    2.500    0.000    6.000 
#    0.000    0.833    0.000    0.000    0.000    0.000 
#    0.000    4.000    0.000   10.667    0.000    9.500 
#
# Total GULP energy -267775.117183 kJ/mol
# GULP energy per Si atom -5578.648275 kJ/mol
# Density = 2.140358 g / cm^3
# Si number density = 21.452407 Si / 1000 Ang^3
#
#
#
# Elastic Constant Matrix: (Units=GPa)
#
#
# Indices 1 2 3 4 5 6 
#
# 1 78.7509 -4.9096 -1.6133 0.0000 0.0000 0.0000
# 2 -4.9096 146.9629 37.7465 0.0000 0.0000 0.0000
# 3 -1.6133 37.7465 78.0664 0.0000 0.0000 0.0000
# 4 0.0000 0.0000 0.0000 -8.1066 0.0000 0.0000
# 5 0.0000 0.0000 0.0000 0.0000 -11.7070 0.0000
# 6 0.0000 0.0000 0.0000 0.0000 0.0000 6.7310
#
#
#
# Elastic Compliance Matrix: (Units=1/GPa)
#
#
# Indices 1 2 3 4 5 6 
#
# 1 0.012725 0.000408 0.000066 0.000000 0.000000 0.000000
# 2 0.000408 0.007782 -0.003754 0.000000 0.000000 0.000000
# 3 0.000066 -0.003754 0.014626 0.000000 0.000000 0.000000
# 4 0.000000 0.000000 0.000000 -0.123356 0.000000 0.000000
# 5 0.000000 0.000000 0.000000 0.000000 -0.085419 0.000000
# 6 0.000000 0.000000 0.000000 0.000000 0.000000 0.148567
#
#
# Mechanical properties :
#
#
# Convention : Reuss Voigt Hill
#
# Bulk Modulus (GPa) = 34.99870 40.69192 37.84531
# Shear Modulus (GPa) = -556.23942 15.55390 -270.34276
#
# Velocity S-wave (km/s) = -16.11995 2.69558 -11.23803
# Velocity P-wave (km/s) = 18.16922 5.35704 12.27645
#
# Compressibility (1/GPa) = 0.02857249
#
# Stress axis : x y z
#
# Youngs Moduli (GPa) = 78.58503 128.49512 68.36983
#
# Poissons Ratio (x) = -0.05246 -0.00448
# Poissons Ratio (y) = -0.03208 0.25669
# Poissons Ratio (z) = -0.00515 0.48243
#
# Static dielectric constant tensor:
#      x y z
#    x 1.910720 0.000000 0.000000 
#    y 0.000000 1.771740 0.000000 
#    z 0.000000 0.000000 1.718080 
# 
# From -- ./inp_files/42705.got.cif
#   From: 2010.05.17/outbox.cif.g08.bks.cpg/sg63_22_cif.got.tgz:42705.got - 2010.06.03 15:47:04.
