data_PCOD9475542
_publ_section_title
;
Structure prediction by ZEFSAII (Michael W. Deem and Ramdas Pophale) SiO2 
 PCOD9475542
Probable space group: C M C M
;
_chemical_formula_sum "Si O2"
_cell_formula_units_Z 96
_cell_length_a 29.822902
_cell_length_b 20.083341
_cell_length_c 8.815038
_cell_angle_alpha 90.000000
_cell_angle_beta 90.000000
_cell_angle_gamma 90.000000
_cell_volume 5279.709805
_symmetry_space_group_name_H-M "C M C M"
_symmetry_group_IT_number 63
_symmetry_cell_setting 'orthorhombic'
loop_
_space_group_symop_operation_xyz
x,y,z
-x,-y,1/2+z
x,-y,-z
-x,y,1/2-z
-x,-y,-z
x,y,1/2-z
-x,y,z
x,-y,1/2+z
1/2+x,1/2+y,z
1/2-x,1/2-y,1/2+z
1/2+x,1/2-y,-z
1/2-x,1/2+y,1/2-z
1/2-x,1/2-y,-z
1/2+x,1/2+y,1/2-z
1/2-x,1/2+y,z
1/2+x,1/2-y,1/2+z
loop_
_atom_site_type_symbol
_atom_site_label
_atom_site_fract_x
_atom_site_fract_y
_atom_site_fract_z
Si Si1 0.446865 0.285710 0.932538
Si Si2 0.374441 0.805986 0.927206
Si Si3 0.554596 0.432050 0.926235
Si Si4 0.270565 0.570247 0.068530
Si Si5 0.329280 0.068808 0.930477
Si Si6 0.290604 0.707332 0.928386
O O1 0.440127 0.283247 0.750000
O O2 0.500000 0.279816 0.959487
O O3 0.431764 0.359632 0.987463
O O4 0.419183 0.228700 0.013533
O O5 0.377363 0.824070 0.750000
O O6 0.334949 0.751556 0.943666
O O7 0.360198 0.869744 0.024023
O O8 0.566512 0.433875 0.750000
O O9 0.500000 0.432625 0.935725
O O10 0.571383 0.500000 0.000000
O O11 0.270635 0.567100 0.250000
O O12 0.287118 0.500000 0.000000
O O13 0.219492 0.578655 0.007828
O O14 0.295216 0.636274 0.010191
O O15 0.323606 0.063594 0.750000
O O16 0.347195 0.000000 0.000000
O O17 0.281285 0.696466 0.750000
O O18 0.250000 0.750000 0.000000
#
# Coordination Sequence:
#
# PCOD9475542 Si02
#       6
#    16  16  16  16  16  16
#     4   9  19  36  56  79 109 146 188 232 281 335
#     4  11  23  37  56  84 114 144 186 231 278 334
#     4   8  14  26  46  72 100 131 171 218 265 317
#     4  11  21  35  55  80 112 149 190 231 277 332
#     4  11  21  35  57  82 112 145 183 226 273 328
#     4  11  22  36  55  80 112 148 186 230 278 330
#
# _framework density 18.182817
#
# number of rings (size 3 to 8) (size 9 to 14) (size 15 to 20)
#    0.000    1.833    1.667    6.000    0.000    3.000 
#    0.000    2.500    0.000    2.500    0.000    0.000 
#    0.000    0.000    0.000    0.000    0.000    0.000 
#
# Total GULP energy -268007.014976 kJ/mol
# GULP energy per Si atom -5583.479479 kJ/mol
# Density = 1.814143 g / cm^3
# Si number density = 18.182817 Si / 1000 Ang^3
#
#
#
# Elastic Constant Matrix: (Units=GPa)
#
#
# Indices 1 2 3 4 5 6 
#
# 1 18.7509 10.5716 21.9161 0.0000 0.0000 0.0000
# 2 10.5716 122.5876 63.1494 0.0000 0.0000 0.0000
# 3 21.9161 63.1494 125.9772 0.0000 0.0000 0.0000
# 4 0.0000 0.0000 0.0000 36.5416 0.0000 0.0000
# 5 0.0000 0.0000 0.0000 0.0000 19.7252 0.0000
# 6 0.0000 0.0000 0.0000 0.0000 0.0000 21.2580
#
#
#
# Elastic Compliance Matrix: (Units=1/GPa)
#
#
# Indices 1 2 3 4 5 6 
#
# 1 0.066951 0.000305 -0.011800 0.000000 0.000000 0.000000
# 2 0.000305 0.010999 -0.005566 0.000000 0.000000 0.000000
# 3 -0.011800 -0.005566 0.012781 0.000000 0.000000 0.000000
# 4 0.000000 0.000000 0.000000 0.027366 0.000000 0.000000
# 5 0.000000 0.000000 0.000000 0.000000 0.050697 0.000000
# 6 0.000000 0.000000 0.000000 0.000000 0.000000 0.047041
#
#
# Mechanical properties :
#
#
# Convention : Reuss Voigt Hill
#
# Bulk Modulus (GPa) = 17.66548 50.95444 34.30996
# Shear Modulus (GPa) = 18.59931 26.95019 22.77475
#
# Velocity S-wave (km/s) = 3.20176 3.85408 3.54297
# Velocity P-wave (km/s) = 4.83786 6.92023 5.97053
#
# Compressibility (1/GPa) = 0.05660758
#
# Stress axis : x y z
#
# Youngs Moduli (GPa) = 14.93627 90.92083 78.24022
#
# Poissons Ratio (x) = -0.02774 0.92326
# Poissons Ratio (y) = -0.00456 0.43552
# Poissons Ratio (z) = 0.17625 0.50610
#
# Static dielectric constant tensor:
#      x y z
#    x 1.619510 0.000000 0.000000 
#    y 0.000000 1.641160 0.000000 
#    z 0.000000 0.000000 1.613100 
# 
# From -- ./inp_files/12428.got.cif
#   From: 2010.05.17/outbox.cif.g08.bks.cpg/sg63_7_cif.got.tgz:12428.got - 2010.06.03 15:47:04.
