data_PCOD9475616
_publ_section_title
;
Structure prediction by ZEFSAII (Michael W. Deem and Ramdas Pophale) SiO2 
 PCOD9475616
Probable space group: C M C M
;
_chemical_formula_sum "Si O2"
_cell_formula_units_Z 80
_cell_length_a 9.734752
_cell_length_b 17.070410
_cell_length_c 25.929405
_cell_angle_alpha 90.000000
_cell_angle_beta 90.000000
_cell_angle_gamma 90.000000
_cell_volume 4308.850196
_symmetry_space_group_name_H-M "C M C M"
_symmetry_group_IT_number 63
_symmetry_cell_setting 'orthorhombic'
loop_
_space_group_symop_operation_xyz
x,y,z
-x,-y,1/2+z
x,-y,-z
-x,y,1/2-z
-x,-y,-z
x,y,1/2-z
-x,y,z
x,-y,1/2+z
1/2+x,1/2+y,z
1/2-x,1/2-y,1/2+z
1/2+x,1/2-y,-z
1/2-x,1/2+y,1/2-z
1/2-x,1/2-y,-z
1/2+x,1/2+y,1/2-z
1/2-x,1/2+y,z
1/2+x,1/2-y,1/2+z
loop_
_atom_site_type_symbol
_atom_site_label
_atom_site_fract_x
_atom_site_fract_y
_atom_site_fract_z
Si Si1 0.281721 0.828873 0.469040
Si Si2 0.657689 0.553881 0.602954
Si Si3 0.849298 0.776266 0.622947
Si Si4 0.162039 0.635481 0.689777
Si Si5 0.842852 0.593283 0.426339
O O1 0.250000 0.750000 0.500000
O O2 0.163499 0.878891 0.441299
O O3 0.358757 0.792978 0.419904
O O4 0.345046 0.883672 0.513036
O O5 0.500000 0.532889 0.612950
O O6 0.735393 0.586799 0.653490
O O7 0.748858 0.482218 0.582401
O O8 0.819885 0.727176 0.674463
O O9 0.732784 0.836282 0.604717
O O10 0.000000 0.814663 0.625588
O O11 0.188247 0.622613 0.750000
O O12 0.000000 0.617026 0.679704
O O13 0.000000 0.581942 0.409350
#
# Coordination Sequence:
#
# PCOD9475616 Si02
#       5
#    16  16  16  16  16
#     4   9  20  34  53  78 108 143 182 224 268 317
#     4  11  23  37  55  81 112 147 186 226 270 323
#     4   9  18  34  56  81 108 139 178 223 271 325
#     4   9  19  38  62  84 107 137 175 223 277 328
#     4  11  22  35  53  79 113 150 185 223 269 321
#
# _framework density 18.566437000000001
#
# number of rings (size 3 to 8) (size 9 to 14) (size 15 to 20)
#    0.000    2.200    0.000    2.400    0.000   15.600 
#    0.000    1.000    0.000    3.600    0.000    0.000 
#    0.000    0.000    0.000    0.000    0.000    0.000 
#
# Total GULP energy -222676.604011 kJ/mol
# GULP energy per Si atom -5566.915100 kJ/mol
# Density = 1.852418 g / cm^3
# Si number density = 18.566437 Si / 1000 Ang^3
#
#
#
# Elastic Constant Matrix: (Units=GPa)
#
#
# Indices 1 2 3 4 5 6 
#
# 1 153.2572 62.9439 46.3727 0.0000 0.0000 0.0000
# 2 62.9439 86.0457 41.4763 0.0000 0.0000 0.0000
# 3 46.3727 41.4763 93.4211 0.0000 0.0000 0.0000
# 4 0.0000 0.0000 0.0000 20.2294 0.0000 0.0000
# 5 0.0000 0.0000 0.0000 0.0000 13.8954 0.0000
# 6 0.0000 0.0000 0.0000 0.0000 0.0000 20.5837
#
#
#
# Elastic Compliance Matrix: (Units=1/GPa)
#
#
# Indices 1 2 3 4 5 6 
#
# 1 0.009642 -0.006039 -0.002105 0.000000 0.000000 0.000000
# 2 -0.006039 0.018568 -0.005246 0.000000 0.000000 0.000000
# 3 -0.002105 -0.005246 0.014078 0.000000 0.000000 0.000000
# 4 0.000000 0.000000 0.000000 0.049433 0.000000 0.000000
# 5 0.000000 0.000000 0.000000 0.000000 0.071966 0.000000
# 6 0.000000 0.000000 0.000000 0.000000 0.000000 0.048582
#
#
# Mechanical properties :
#
#
# Convention : Reuss Voigt Hill
#
# Bulk Modulus (GPa) = 64.48118 70.47887 67.48003
# Shear Modulus (GPa) = 20.47345 23.07044 21.77194
#
# Velocity S-wave (km/s) = 3.32431 3.52886 3.42811
# Velocity P-wave (km/s) = 7.03847 7.39233 7.21757
#
# Compressibility (1/GPa) = 0.01550840
#
# Stress axis : x y z
#
# Youngs Moduli (GPa) = 103.71226 53.85659 71.03100
#
# Poissons Ratio (x) = 0.32522 0.14954
# Poissons Ratio (y) = 0.62627 0.37264
# Poissons Ratio (z) = 0.21834 0.28254
#
# Static dielectric constant tensor:
#      x y z
#    x 1.650370 0.000000 0.000000 
#    y 0.000000 1.679590 0.000000 
#    z 0.000000 0.000000 1.677300 
# 
# From -- ./inp_files/71582.got.cif
#   From: 2010.05.17/outbox.cif.g08.bks.cpg/sg63_36_cif.got.tgz:71582.got - 2010.06.03 15:47:04.
