data_PCOD9475461
_publ_section_title
;
Structure prediction by ZEFSAII (Michael W. Deem and Ramdas Pophale) SiO2 
 PCOD9475461
Probable space group: C M C M
;
_chemical_formula_sum "Si O2"
_cell_formula_units_Z 80
_cell_length_a 12.446224
_cell_length_b 13.564114
_cell_length_c 19.127302
_cell_angle_alpha 90.000000
_cell_angle_beta 90.000000
_cell_angle_gamma 90.000000
_cell_volume 3229.109401
_symmetry_space_group_name_H-M "C M C M"
_symmetry_group_IT_number 63
_symmetry_cell_setting 'orthorhombic'
loop_
_space_group_symop_operation_xyz
x,y,z
-x,-y,1/2+z
x,-y,-z
-x,y,1/2-z
-x,-y,-z
x,y,1/2-z
-x,y,z
x,-y,1/2+z
1/2+x,1/2+y,z
1/2-x,1/2-y,1/2+z
1/2+x,1/2-y,-z
1/2-x,1/2+y,1/2-z
1/2-x,1/2-y,-z
1/2+x,1/2+y,1/2-z
1/2-x,1/2+y,z
1/2+x,1/2-y,1/2+z
loop_
_atom_site_type_symbol
_atom_site_label
_atom_site_fract_x
_atom_site_fract_y
_atom_site_fract_z
Si Si1 0.305772 0.378747 0.097961
Si Si2 0.621320 0.684945 0.750000
Si Si3 0.500000 0.381474 0.999875
Si Si4 0.500000 0.352028 0.832787
Si Si5 0.228157 0.098113 0.372490
Si Si6 0.376500 0.879879 0.501775
Si Si7 0.119175 0.578837 0.250000
O O1 0.325193 0.345536 0.177162
O O2 0.396448 0.344837 0.043169
O O3 0.321851 0.497597 0.097334
O O4 0.189255 0.352988 0.067549
O O5 0.500000 0.642578 0.750000
O O6 0.613125 0.802616 0.750000
O O7 0.500000 0.500000 0.000000
O O8 0.500000 0.353480 0.919084
O O9 0.500000 0.387720 0.750000
O O10 0.366139 0.340894 0.835453
O O11 0.301454 0.147169 0.432074
O O12 0.313303 0.054359 0.317551
O O13 0.500000 0.847490 0.505284
O O14 0.379410 0.000000 0.500000
O O15 0.000000 0.536473 0.250000
#
# Coordination Sequence:
#
# PCOD9475461 Si02
#       7
#    16   8   8   8  16  16   8
#     4  11  20  35  63  95 123 159 210 267 321 368
#     4  11  25  40  60  88 128 171 213 265 319 382
#     4  12  18  33  60 100 137 148 194 263 332 385
#     4  12  22  32  59 103 130 152 188 261 332 371
#     4  11  20  35  63  91 120 158 204 261 311 369
#     4   9  18  33  56  88 122 157 202 256 309 369
#     4  11  25  43  57  83 127 175 214 256 306 383
#
# _framework density 24.774632
#
# number of rings (size 3 to 8) (size 9 to 14) (size 15 to 20)
#    0.000    1.200    6.000    1.800    0.000    0.800 
#    0.000    1.500    4.400    0.000    0.000    0.000 
#    0.000    0.000    0.000    0.000    0.000    0.000 
#
# Total GULP energy -222937.573742 kJ/mol
# GULP energy per Si atom -5573.439344 kJ/mol
# Density = 2.471824 g / cm^3
# Si number density = 24.774632 Si / 1000 Ang^3
#
#
#
# Elastic Constant Matrix: (Units=GPa)
#
#
# Indices 1 2 3 4 5 6 
#
# 1 202.3521 17.3500 82.8723 0.0000 0.0000 0.0000
# 2 17.3500 58.5402 5.6066 0.0000 0.0000 0.0000
# 3 82.8723 5.6066 208.8994 0.0000 0.0000 0.0000
# 4 0.0000 0.0000 0.0000 11.3161 0.0000 0.0000
# 5 0.0000 0.0000 0.0000 0.0000 93.6770 0.0000
# 6 0.0000 0.0000 0.0000 0.0000 0.0000 29.2755
#
#
#
# Elastic Compliance Matrix: (Units=1/GPa)
#
#
# Indices 1 2 3 4 5 6 
#
# 1 0.006040 -0.001565 -0.002354 0.000000 0.000000 0.000000
# 2 -0.001565 0.017532 0.000150 0.000000 0.000000 0.000000
# 3 -0.002354 0.000150 0.005717 0.000000 0.000000 0.000000
# 4 0.000000 0.000000 0.000000 0.088370 0.000000 0.000000
# 5 0.000000 0.000000 0.000000 0.000000 0.010675 0.000000
# 6 0.000000 0.000000 0.000000 0.000000 0.000000 0.034158
#
#
# Mechanical properties :
#
#
# Convention : Reuss Voigt Hill
#
# Bulk Modulus (GPa) = 45.97423 75.71663 60.84543
# Shear Modulus (GPa) = 28.20401 51.11790 39.66095
#
# Velocity S-wave (km/s) = 3.37771 4.54730 4.00543
# Velocity P-wave (km/s) = 5.81457 7.62883 6.78264
#
# Compressibility (1/GPa) = 0.02175132
#
# Stress axis : x y z
#
# Youngs Moduli (GPa) = 165.55756 57.03970 174.92003
#
# Poissons Ratio (x) = 0.08925 0.41180
# Poissons Ratio (y) = 0.25905 -0.02627
# Poissons Ratio (z) = 0.38976 -0.00857
#
# Static dielectric constant tensor:
#      x y z
#    x 2.004010 0.000000 0.000000 
#    y 0.000000 2.028120 0.000000 
#    z 0.000000 0.000000 1.785470 
# 
# From -- ./inp_files/42203.got.cif
#   From: 2010.05.17/outbox.cif.g08.bks.cpg/sg63_22_cif.got.tgz:42203.got - 2010.06.03 15:47:04.
