data_PCOD9475181
_publ_section_title
;
Structure prediction by ZEFSAII (Michael W. Deem and Ramdas Pophale) SiO2 
 PCOD9475181
Probable space group: C M C M
;
_chemical_formula_sum "Si O2"
_cell_formula_units_Z 88
_cell_length_a 10.448025
_cell_length_b 15.097030
_cell_length_c 29.319883
_cell_angle_alpha 90.000000
_cell_angle_beta 90.000000
_cell_angle_gamma 90.000000
_cell_volume 4624.746731
_symmetry_space_group_name_H-M "C M C M"
_symmetry_group_IT_number 63
_symmetry_cell_setting 'orthorhombic'
loop_
_space_group_symop_operation_xyz
x,y,z
-x,-y,1/2+z
x,-y,-z
-x,y,1/2-z
-x,-y,-z
x,y,1/2-z
-x,y,z
x,-y,1/2+z
1/2+x,1/2+y,z
1/2-x,1/2-y,1/2+z
1/2+x,1/2-y,-z
1/2-x,1/2+y,1/2-z
1/2-x,1/2-y,-z
1/2+x,1/2+y,1/2-z
1/2-x,1/2+y,z
1/2+x,1/2-y,1/2+z
loop_
_atom_site_type_symbol
_atom_site_label
_atom_site_fract_x
_atom_site_fract_y
_atom_site_fract_z
Si Si1 0.357903 0.850984 0.348694
Si Si2 0.737471 0.790114 0.588719
Si Si3 0.851015 0.282630 0.250000
Si Si4 0.500000 0.484709 0.117206
Si Si5 0.846689 0.619660 0.250000
Si Si6 0.772957 0.459429 0.847925
Si Si7 0.000000 0.187801 0.944103
Si Si8 0.500000 0.357525 0.953751
O O1 0.500000 0.816221 0.357761
O O2 0.263666 0.787549 0.375107
O O3 0.335049 0.841022 0.294967
O O4 0.348167 0.952661 0.362123
O O5 0.704237 0.877827 0.617796
O O6 0.622668 0.752103 0.558810
O O7 0.869221 0.808935 0.561920
O O8 0.745954 0.205468 0.250000
O O9 0.000000 0.248816 0.250000
O O10 0.625030 0.510559 0.146435
O O11 0.500000 0.385200 0.096821
O O12 0.500000 0.550006 0.073468
O O13 0.811686 0.568266 0.203246
O O14 0.000000 0.638308 0.250000
O O15 0.000000 0.136603 0.991923
#
# Coordination Sequence:
#
# PCOD9475181 Si02
#       8
#    16  16   8   8   8  16   8   8
#     4  11  21  40  63  87 128 166 213 250 310 376
#     4  11  23  39  67  93 125 167 208 260 319 385
#     4  10  23  39  64  91 119 175 216 254 298 377
#     4  10  23  41  68  94 123 170 217 262 317 381
#     4  12  25  39  64  93 135 169 208 264 308 363
#     4  11  24  41  63  95 128 171 214 253 317 371
#     4  12  23  42  66  97 125 160 213 277 323 368
#     4  10  23  44  64  93 128 168 206 260 333 395
#
# _framework density 19.028068000000001
#
# number of rings (size 3 to 8) (size 9 to 14) (size 15 to 20)
#    0.000    1.091    4.545    1.909    3.818    0.727 
#    1.636    0.000    0.000    1.091    0.000    0.000 
#    0.000    0.000    0.000    0.000    0.000    0.000 
#
# Total GULP energy -245589.419907 kJ/mol
# GULP energy per Si atom -5581.577725 kJ/mol
# Density = 1.898476 g / cm^3
# Si number density = 19.028068 Si / 1000 Ang^3
#
#
#
# Elastic Constant Matrix: (Units=GPa)
#
#
# Indices 1 2 3 4 5 6 
#
# 1 110.0616 32.6485 32.4347 0.0000 0.0000 0.0000
# 2 32.6485 101.7342 16.9263 0.0000 0.0000 0.0000
# 3 32.4347 16.9263 68.2032 0.0000 0.0000 0.0000
# 4 0.0000 0.0000 0.0000 10.6686 0.0000 0.0000
# 5 0.0000 0.0000 0.0000 0.0000 10.9601 0.0000
# 6 0.0000 0.0000 0.0000 0.0000 0.0000 24.6570
#
#
#
# Elastic Compliance Matrix: (Units=1/GPa)
#
#
# Indices 1 2 3 4 5 6 
#
# 1 0.011308 -0.002852 -0.004670 0.000000 0.000000 0.000000
# 2 -0.002852 0.010972 -0.001367 0.000000 0.000000 0.000000
# 3 -0.004670 -0.001367 0.017222 0.000000 0.000000 0.000000
# 4 0.000000 0.000000 0.000000 0.093733 0.000000 0.000000
# 5 0.000000 0.000000 0.000000 0.000000 0.091240 0.000000
# 6 0.000000 0.000000 0.000000 0.000000 0.000000 0.040556
#
#
# Mechanical properties :
#
#
# Convention : Reuss Voigt Hill
#
# Bulk Modulus (GPa) = 46.02967 49.33532 47.68249
# Shear Modulus (GPa) = 17.23835 22.45643 19.84739
#
# Velocity S-wave (km/s) = 3.01315 3.43909 3.23315
# Velocity P-wave (km/s) = 6.02896 6.46171 6.24909
#
# Compressibility (1/GPa) = 0.02172512
#
# Stress axis : x y z
#
# Youngs Moduli (GPa) = 88.43284 91.13947 58.06513
#
# Poissons Ratio (x) = 0.25993 0.27115
# Poissons Ratio (y) = 0.25221 0.07936
# Poissons Ratio (z) = 0.41297 0.12456
#
# Static dielectric constant tensor:
#      x y z
#    x 1.686070 0.000000 0.000000 
#    y 0.000000 1.644890 0.000000 
#    z 0.000000 0.000000 1.683990 
# 
# From -- ./inp_files/68246.got.cif
#   From: 2010.05.17/outbox.cif.g08.bks.cpg/sg63_35_cif.got.tgz:68246.got - 2010.06.03 15:47:04.
