data_PCOD9475058
_publ_section_title
;
Structure prediction by ZEFSAII (Michael W. Deem and Ramdas Pophale) SiO2 
 PCOD9475058
Probable space group: C M C M
;
_chemical_formula_sum "Si O2"
_cell_formula_units_Z 112
_cell_length_a 14.299839
_cell_length_b 11.391249
_cell_length_c 30.042645
_cell_angle_alpha 90.000000
_cell_angle_beta 90.000000
_cell_angle_gamma 90.000000
_cell_volume 4893.737374
_symmetry_space_group_name_H-M "C M C M"
_symmetry_group_IT_number 63
_symmetry_cell_setting 'orthorhombic'
loop_
_space_group_symop_operation_xyz
x,y,z
-x,-y,1/2+z
x,-y,-z
-x,y,1/2-z
-x,-y,-z
x,y,1/2-z
-x,y,z
x,-y,1/2+z
1/2+x,1/2+y,z
1/2-x,1/2-y,1/2+z
1/2+x,1/2-y,-z
1/2-x,1/2+y,1/2-z
1/2-x,1/2-y,-z
1/2+x,1/2+y,1/2-z
1/2-x,1/2+y,z
1/2+x,1/2-y,1/2+z
loop_
_atom_site_type_symbol
_atom_site_label
_atom_site_fract_x
_atom_site_fract_y
_atom_site_fract_z
Si Si1 0.608154 0.638653 0.131272
Si Si2 0.609421 0.174413 0.113116
Si Si3 0.386589 0.383563 0.528048
Si Si4 0.611474 0.052290 0.201946
Si Si5 0.799337 0.300061 0.201894
Si Si6 0.104085 0.884148 0.171196
Si Si7 0.885917 0.632428 0.014836
O O1 0.500000 0.681222 0.130064
O O2 0.636229 0.611877 0.080563
O O3 0.670645 0.729166 0.158452
O O4 0.609902 0.519486 0.159643
O O5 0.500000 0.139416 0.110590
O O6 0.648443 0.110554 0.156882
O O7 0.611099 0.311494 0.125019
O O8 0.649040 0.145790 0.065425
O O9 0.355554 0.500000 0.500000
O O10 0.500000 0.385429 0.524974
O O11 0.357564 0.253362 0.510328
O O12 0.645147 0.098802 0.250000
O O13 0.500000 0.066211 0.201687
O O14 0.639176 0.917574 0.200617
O O15 0.819232 0.242166 0.250000
O O16 0.691859 0.341862 0.199313
O O17 0.000000 0.856516 0.189646
O O18 0.000000 0.634555 0.013564
O O19 0.859687 0.500000 0.000000
#
# Coordination Sequence:
#
# PCOD9475058 Si02
#       7
#    16  16  16  16  16  16  16
#     4  10  22  41  68  98 133 177 226 276 330 397
#     4   9  18  34  59  88 125 164 206 260 320 386
#     4   9  17  32  59  94 131 175 227 273 327 407
#     4   9  19  36  59  89 125 167 212 258 316 387
#     4  11  25  41  63  93 128 168 217 273 333 394
#     4  10  23  43  65  92 124 169 220 271 331 398
#     4   9  17  28  50  90 129 162 208 267 328 389
#
# _framework density 22.886393000000002
#
# number of rings (size 3 to 8) (size 9 to 14) (size 15 to 20)
#    0.000    2.429    0.000    1.286    4.000    5.714 
#    0.000    2.857    0.000    4.286    0.000    0.000 
#    0.000    0.000    0.000    0.000    0.000    0.000 
#
# Total GULP energy -312586.385596 kJ/mol
# GULP energy per Si atom -5581.899743 kJ/mol
# Density = 2.283430 g / cm^3
# Si number density = 22.886393 Si / 1000 Ang^3
#
#
#
# Elastic Constant Matrix: (Units=GPa)
#
#
# Indices 1 2 3 4 5 6 
#
# 1 79.0798 22.0257 26.6421 0.0000 0.0000 0.0000
# 2 22.0257 120.3577 51.9150 0.0000 0.0000 0.0000
# 3 26.6421 51.9150 135.7417 0.0000 0.0000 0.0000
# 4 0.0000 0.0000 0.0000 46.8711 0.0000 0.0000
# 5 0.0000 0.0000 0.0000 0.0000 -2.6194 0.0000
# 6 0.0000 0.0000 0.0000 0.0000 0.0000 17.4475
#
#
#
# Elastic Compliance Matrix: (Units=1/GPa)
#
#
# Indices 1 2 3 4 5 6 
#
# 1 0.013801 -0.001625 -0.002087 0.000000 0.000000 0.000000
# 2 -0.001625 0.010141 -0.003560 0.000000 0.000000 0.000000
# 3 -0.002087 -0.003560 0.009138 0.000000 0.000000 0.000000
# 4 0.000000 0.000000 0.000000 0.021335 0.000000 0.000000
# 5 0.000000 0.000000 0.000000 0.000000 -0.381770 0.000000
# 6 0.000000 0.000000 0.000000 0.000000 0.000000 0.057315
#
#
# Mechanical properties :
#
#
# Convention : Reuss Voigt Hill
#
# Bulk Modulus (GPa) = 53.94793 59.59385 56.77089
# Shear Modulus (GPa) = -20.05483 27.97963 3.96240
#
# Velocity S-wave (km/s) = -2.96341 3.50028 1.31723
# Velocity P-wave (km/s) = 3.45169 6.51395 5.21276
#
# Compressibility (1/GPa) = 0.01853639
#
# Stress axis : x y z
#
# Youngs Moduli (GPa) = 72.45681 98.60558 109.43360
#
# Poissons Ratio (x) = 0.16027 0.22840
# Poissons Ratio (y) = 0.11777 0.38954
# Poissons Ratio (z) = 0.15123 0.35100
#
# Static dielectric constant tensor:
#      x y z
#    x 1.884660 0.000000 0.000000 
#    y 0.000000 1.842540 0.000000 
#    z 0.000000 0.000000 1.833070 
# 
# From -- ./inp_files/73424.got.cif
#   From: 2010.05.17/outbox.cif.g08.bks.cpg/sg63_37_cif.got.tgz:73424.got - 2010.06.03 15:47:04.
