data_PCOD9475141
_publ_section_title
;
Structure prediction by ZEFSAII (Michael W. Deem and Ramdas Pophale) SiO2 
 PCOD9475141
Probable space group: C M C M
;
_chemical_formula_sum "Si O2"
_cell_formula_units_Z 68
_cell_length_a 29.307492
_cell_length_b 4.962999
_cell_length_c 19.625660
_cell_angle_alpha 90.000000
_cell_angle_beta 90.000000
_cell_angle_gamma 90.000000
_cell_volume 2854.612174
_symmetry_space_group_name_H-M "C M C M"
_symmetry_group_IT_number 63
_symmetry_cell_setting 'orthorhombic'
loop_
_space_group_symop_operation_xyz
x,y,z
-x,-y,1/2+z
x,-y,-z
-x,y,1/2-z
-x,-y,-z
x,y,1/2-z
-x,y,z
x,-y,1/2+z
1/2+x,1/2+y,z
1/2-x,1/2-y,1/2+z
1/2+x,1/2-y,-z
1/2-x,1/2+y,1/2-z
1/2-x,1/2-y,-z
1/2+x,1/2+y,1/2-z
1/2-x,1/2+y,z
1/2+x,1/2-y,1/2+z
loop_
_atom_site_type_symbol
_atom_site_label
_atom_site_fract_x
_atom_site_fract_y
_atom_site_fract_z
Si Si1 0.865039 0.572892 0.170630
Si Si2 0.617986 0.731835 0.044801
Si Si3 0.500000 0.692146 0.250000
Si Si4 0.450113 0.563360 0.868475
Si Si5 0.722800 0.574669 0.832466
O O1 0.859978 0.492796 0.250000
O O2 0.861937 0.332392 0.116607
O O3 0.825323 0.786239 0.153054
O O4 0.913225 0.723577 0.158356
O O5 0.571045 0.591161 0.068369
O O6 0.642373 0.500000 0.000000
O O7 0.612181 0.000000 0.000000
O O8 0.539022 0.651610 0.309282
O O9 0.500000 0.692847 0.880886
O O10 0.724292 0.558452 0.750000
O O11 0.738023 0.282215 0.856525
#
# Coordination Sequence:
#
# PCOD9475141 Si02
#       5
#    16  16   4  16  16
#     4  11  23  42  77 102 138 184 235 288 353 406
#     4  12  27  47  67  99 142 194 233 280 344 416
#     4   8  20  44  66 110 142 172 232 300 326 412
#     4  10  22  43  70 101 141 178 231 279 342 404
#     4   9  20  37  62 102 138 168 218 288 352 411
#
# _framework density 23.821099
#
# number of rings (size 3 to 8) (size 9 to 14) (size 15 to 20)
#    0.706    0.941    3.529    0.000    4.941    1.882 
#    0.000    1.176    0.000    4.235    0.000    0.000 
#    0.000    0.000    0.000    0.000    0.000    0.000 
#
# Total GULP energy -189380.136401 kJ/mol
# GULP energy per Si atom -5570.004012 kJ/mol
# Density = 2.376688 g / cm^3
# Si number density = 23.821099 Si / 1000 Ang^3
#
#
#
# Elastic Constant Matrix: (Units=GPa)
#
#
# Indices 1 2 3 4 5 6 
#
# 1 120.2066 21.3756 17.0522 0.0000 0.0000 0.0000
# 2 21.3756 98.0812 59.1948 0.0000 0.0000 0.0000
# 3 17.0522 59.1948 151.9164 0.0000 0.0000 0.0000
# 4 0.0000 0.0000 0.0000 5.8087 0.0000 0.0000
# 5 0.0000 0.0000 0.0000 0.0000 0.0290 0.0000
# 6 0.0000 0.0000 0.0000 0.0000 0.0000 12.3884
#
#
#
# Elastic Compliance Matrix: (Units=1/GPa)
#
#
# Indices 1 2 3 4 5 6 
#
# 1 0.008666 -0.001702 -0.000310 0.000000 0.000000 0.000000
# 2 -0.001702 0.013665 -0.005133 0.000000 0.000000 0.000000
# 3 -0.000310 -0.005133 0.008618 0.000000 0.000000 0.000000
# 4 0.000000 0.000000 0.000000 0.172157 0.000000 0.000000
# 5 0.000000 0.000000 0.000000 0.000000 34.525404 0.000000
# 6 0.000000 0.000000 0.000000 0.000000 0.000000 0.080720
#
#
# Mechanical properties :
#
#
# Convention : Reuss Voigt Hill
#
# Bulk Modulus (GPa) = 60.03030 62.82772 61.42901
# Shear Modulus (GPa) = 0.14356 21.81732 10.98044
#
# Velocity S-wave (km/s) = 0.24576 3.02964 2.14931
# Velocity P-wave (km/s) = 5.03346 6.21855 5.65712
#
# Compressibility (1/GPa) = 0.01665825
#
# Stress axis : x y z
#
# Youngs Moduli (GPa) = 115.39977 73.18125 116.04152
#
# Poissons Ratio (x) = 0.12453 0.03593
# Poissons Ratio (y) = 0.19637 0.59570
# Poissons Ratio (z) = 0.03573 0.37568
#
# Static dielectric constant tensor:
#      x y z
#    x 1.965110 0.000000 0.000000 
#    y 0.000000 1.954090 0.000000 
#    z 0.000000 0.000000 1.930590 
# 
# From -- ./inp_files/65277.got.cif
#   From: 2010.05.17/outbox.cif.g08.bks.cpg/sg63_33_cif.got.tgz:65277.got - 2010.06.03 15:47:04.
