data_PCOD9475077
_publ_section_title
;
Structure prediction by ZEFSAII (Michael W. Deem and Ramdas Pophale) SiO2 
 PCOD9475077
Probable space group: C M C M
;
_chemical_formula_sum "Si O2"
_cell_formula_units_Z 72
_cell_length_a 22.332032
_cell_length_b 19.843571
_cell_length_c 8.660606
_cell_angle_alpha 90.000000
_cell_angle_beta 90.000000
_cell_angle_gamma 90.000000
_cell_volume 3837.923841
_symmetry_space_group_name_H-M "C M C M"
_symmetry_group_IT_number 63
_symmetry_cell_setting 'orthorhombic'
loop_
_space_group_symop_operation_xyz
x,y,z
-x,-y,1/2+z
x,-y,-z
-x,y,1/2-z
-x,-y,-z
x,y,1/2-z
-x,y,z
x,-y,1/2+z
1/2+x,1/2+y,z
1/2-x,1/2-y,1/2+z
1/2+x,1/2-y,-z
1/2-x,1/2+y,1/2-z
1/2-x,1/2-y,-z
1/2+x,1/2+y,1/2-z
1/2-x,1/2+y,z
1/2+x,1/2-y,1/2+z
loop_
_atom_site_type_symbol
_atom_site_label
_atom_site_fract_x
_atom_site_fract_y
_atom_site_fract_z
Si Si1 0.929574 0.807084 0.935328
Si Si2 0.000000 0.575483 0.065153
Si Si3 0.112769 0.342036 0.435561
Si Si4 0.279813 0.926349 0.565353
Si Si5 0.647208 0.427628 0.066377
O O1 0.924271 0.816243 0.750000
O O2 0.898724 0.736018 0.975294
O O3 0.000000 0.802952 0.972589
O O4 0.897829 0.868884 0.018920
O O5 0.000000 0.574072 0.250000
O O6 0.000000 0.500000 0.000000
O O7 0.058327 0.614496 0.004027
O O8 0.112150 0.348143 0.250000
O O9 0.174166 0.371435 0.501885
O O10 0.280887 0.928207 0.750000
O O11 0.212498 0.913497 0.506630
O O12 0.297562 0.000000 0.500000
O O13 0.653320 0.432528 0.250000
O O14 0.627328 0.500000 0.000000
#
# Coordination Sequence:
#
# PCOD9475077 Si02
#       5
#    16   8  16  16  16
#     4  10  22  42  65  89 121 161 201 250 305 359
#     4  12  24  38  58  86 121 162 209 252 296 354
#     4  11  22  40  62  88 122 162 203 249 303 358
#     4  11  22  39  62  90 123 161 203 253 303 361
#     4  11  23  41  65  92 121 157 200 252 305 364
#
# _framework density 18.760144
#
# number of rings (size 3 to 8) (size 9 to 14) (size 15 to 20)
#    0.000    1.111    1.111    7.667    0.000    3.556 
#    0.000    0.000    0.000    0.000    0.000    0.000 
#    0.000    0.000    0.000    0.000    0.000    0.000 
#
# Total GULP energy -201395.536752 kJ/mol
# GULP energy per Si atom -5594.320465 kJ/mol
# Density = 1.871745 g / cm^3
# Si number density = 18.760144 Si / 1000 Ang^3
#
#
#
# Elastic Constant Matrix: (Units=GPa)
#
#
# Indices 1 2 3 4 5 6 
#
# 1 71.5536 78.1973 52.9158 0.0000 0.0000 0.0000
# 2 78.1973 152.7611 82.5641 0.0000 0.0000 0.0000
# 3 52.9158 82.5641 141.6011 0.0000 0.0000 0.0000
# 4 0.0000 0.0000 0.0000 29.0485 0.0000 0.0000
# 5 0.0000 0.0000 0.0000 0.0000 34.2532 0.0000
# 6 0.0000 0.0000 0.0000 0.0000 0.0000 46.0304
#
#
#
# Elastic Compliance Matrix: (Units=1/GPa)
#
#
# Indices 1 2 3 4 5 6 
#
# 1 0.032943 -0.014908 -0.003618 0.000000 0.000000 0.000000
# 2 -0.014908 0.016305 -0.003936 0.000000 0.000000 0.000000
# 3 -0.003618 -0.003936 0.010709 0.000000 0.000000 0.000000
# 4 0.000000 0.000000 0.000000 0.034425 0.000000 0.000000
# 5 0.000000 0.000000 0.000000 0.000000 0.029194 0.000000
# 6 0.000000 0.000000 0.000000 0.000000 0.000000 0.021725
#
#
# Mechanical properties :
#
#
# Convention : Reuss Voigt Hill
#
# Bulk Modulus (GPa) = 66.52012 88.14115 77.33063
# Shear Modulus (GPa) = 25.60992 32.01566 28.81279
#
# Velocity S-wave (km/s) = 3.69877 4.13556 3.92325
# Velocity P-wave (km/s) = 7.33324 8.35996 7.86337
#
# Compressibility (1/GPa) = 0.01503305
#
# Stress axis : x y z
#
# Youngs Moduli (GPa) = 30.35501 61.33235 93.37784
#
# Poissons Ratio (x) = 0.91433 0.33788
# Poissons Ratio (y) = 0.45253 0.36752
# Poissons Ratio (z) = 0.10984 0.24139
#
# Static dielectric constant tensor:
#      x y z
#    x 1.625070 0.000000 0.000000 
#    y 0.000000 1.623240 0.000000 
#    z 0.000000 0.000000 1.629540 
# 
# From -- ./inp_files/7805.got.cif
#   From: 2010.05.17/outbox.cif.g08.bks.cpg/sg63_4_cif.got.tgz:7805.got - 2010.06.03 15:47:04.
