data_PCOD9475636
_publ_section_title
;
Structure prediction by ZEFSAII (Michael W. Deem and Ramdas Pophale) SiO2 
 PCOD9475636
Probable space group: C M C M
;
_chemical_formula_sum "Si O2"
_cell_formula_units_Z 52
_cell_length_a 13.689834
_cell_length_b 19.390169
_cell_length_c 7.393831
_cell_angle_alpha 90.000000
_cell_angle_beta 90.000000
_cell_angle_gamma 90.000000
_cell_volume 1962.679092
_symmetry_space_group_name_H-M "C M C M"
_symmetry_group_IT_number 63
_symmetry_cell_setting 'orthorhombic'
loop_
_space_group_symop_operation_xyz
x,y,z
-x,-y,1/2+z
x,-y,-z
-x,y,1/2-z
-x,-y,-z
x,y,1/2-z
-x,y,z
x,-y,1/2+z
1/2+x,1/2+y,z
1/2-x,1/2-y,1/2+z
1/2+x,1/2-y,-z
1/2-x,1/2+y,1/2-z
1/2-x,1/2-y,-z
1/2+x,1/2+y,1/2-z
1/2-x,1/2+y,z
1/2+x,1/2-y,1/2+z
loop_
_atom_site_type_symbol
_atom_site_label
_atom_site_fract_x
_atom_site_fract_y
_atom_site_fract_z
Si Si1 0.815491 0.409556 0.541363
Si Si2 0.392402 0.607163 0.471062
Si Si3 0.000000 0.500000 0.500000
Si Si4 0.391284 0.766907 0.467113
O O1 0.820860 0.431426 0.750000
O O2 0.708475 0.426513 0.464594
O O3 0.912217 0.443080 0.458879
O O4 0.822077 0.326312 0.539006
O O5 0.391078 0.605026 0.250000
O O6 0.500000 0.581702 0.528655
O O7 0.385284 0.687746 0.525561
O O8 0.382660 0.766919 0.250000
O O9 0.500000 0.789821 0.518529
#
# Coordination Sequence:
#
# PCOD9475636 Si02
#       4
#    16  16   4  16
#     4  11  22  37  57  79 110 152 196 236 276 332
#     4   8  16  33  58  87 113 141 181 232 292 347
#     4  12  26  36  46  78 118 152 196 238 270 316
#     4   9  17  31  55  86 118 146 176 226 290 345
#
# _framework density 26.494395999999998
#
# number of rings (size 3 to 8) (size 9 to 14) (size 15 to 20)
#    0.000    2.462    1.538    3.231    0.000    2.462 
#    0.000    0.769    0.000    0.923    0.000    0.000 
#    0.000    0.000    0.000    0.000    0.000    0.000 
#
# Total GULP energy -144753.084010 kJ/mol
# GULP energy per Si atom -5567.426308 kJ/mol
# Density = 2.643409 g / cm^3
# Si number density = 26.494396 Si / 1000 Ang^3
#
#
#
# Elastic Constant Matrix: (Units=GPa)
#
#
# Indices 1 2 3 4 5 6 
#
# 1 327.9163 45.1382 23.0695 0.0000 0.0000 0.0000
# 2 45.1382 129.6642 -5.4565 0.0000 0.0000 0.0000
# 3 23.0695 -5.4565 94.8722 0.0000 0.0000 0.0000
# 4 0.0000 0.0000 0.0000 0.0667 0.0000 0.0000
# 5 0.0000 0.0000 0.0000 0.0000 -6.1342 0.0000
# 6 0.0000 0.0000 0.0000 0.0000 0.0000 6.5520
#
#
#
# Elastic Compliance Matrix: (Units=1/GPa)
#
#
# Indices 1 2 3 4 5 6 
#
# 1 0.003272 -0.001175 -0.000863 0.000000 0.000000 0.000000
# 2 -0.001175 0.008153 0.000755 0.000000 0.000000 0.000000
# 3 -0.000863 0.000755 0.010794 0.000000 0.000000 0.000000
# 4 0.000000 0.000000 0.000000 14.985558 0.000000 0.000000
# 5 0.000000 0.000000 0.000000 0.000000 -0.163019 0.000000
# 6 0.000000 0.000000 0.000000 0.000000 0.000000 0.152626
#
#
# Mechanical properties :
#
#
# Convention : Reuss Voigt Hill
#
# Bulk Modulus (GPa) = 50.88739 75.32833 63.10786
# Shear Modulus (GPa) = 0.33319 32.74366 16.53843
#
# Velocity S-wave (km/s) = 0.35501 3.51931 2.50116
# Velocity P-wave (km/s) = 4.40643 6.70877 5.67557
#
# Compressibility (1/GPa) = 0.01965123
#
# Stress axis : x y z
#
# Youngs Moduli (GPa) = 305.61556 122.65180 92.64569
#
# Poissons Ratio (x) = 0.14416 0.07998
# Poissons Ratio (y) = 0.35922 -0.06992
# Poissons Ratio (z) = 0.26382 -0.09257
#
# Static dielectric constant tensor:
#      x y z
#    x 2.075670 0.000000 0.000000 
#    y 0.000000 2.027080 0.000000 
#    z 0.000000 0.000000 2.029090 
# 
# From -- ./inp_files/3914.got.cif
#   From: 2010.05.17/outbox.cif.g08.bks.cpg/sg63_2_cif.got.tgz:3914.got - 2010.06.03 15:47:04.
