data_PCOD9475962
_publ_section_title
;
Structure prediction by ZEFSAII (Michael W. Deem and Ramdas Pophale) SiO2 
 PCOD9475962
Probable space group: C M C M
;
_chemical_formula_sum "Si O2"
_cell_formula_units_Z 96
_cell_length_a 7.424833
_cell_length_b 28.617677
_cell_length_c 24.800160
_cell_angle_alpha 90.000000
_cell_angle_beta 90.000000
_cell_angle_gamma 90.000000
_cell_volume 5269.574517
_symmetry_space_group_name_H-M "C M C M"
_symmetry_group_IT_number 63
_symmetry_cell_setting 'orthorhombic'
loop_
_space_group_symop_operation_xyz
x,y,z
-x,-y,1/2+z
x,-y,-z
-x,y,1/2-z
-x,-y,-z
x,y,1/2-z
-x,y,z
x,-y,1/2+z
1/2+x,1/2+y,z
1/2-x,1/2-y,1/2+z
1/2+x,1/2-y,-z
1/2-x,1/2+y,1/2-z
1/2-x,1/2-y,-z
1/2+x,1/2+y,1/2-z
1/2-x,1/2+y,z
1/2+x,1/2-y,1/2+z
loop_
_atom_site_type_symbol
_atom_site_label
_atom_site_fract_x
_atom_site_fract_y
_atom_site_fract_z
Si Si1 0.719694 0.519084 0.083942
Si Si2 0.215505 0.070298 0.310285
Si Si3 0.214075 0.177283 0.526133
Si Si4 0.780195 0.927427 0.023983
Si Si5 0.215753 0.679511 0.189544
Si Si6 0.717064 0.230336 0.083562
O O1 0.500000 0.519302 0.084703
O O2 0.783879 0.538372 0.141112
O O3 0.775077 0.466918 0.066869
O O4 0.773015 0.553361 0.034962
O O5 0.285767 0.060473 0.250000
O O6 0.248896 0.124935 0.322017
O O7 0.000000 0.064202 0.308491
O O8 0.284647 0.125022 0.533961
O O9 0.241102 0.194470 0.464793
O O10 0.285071 0.218951 0.564108
O O11 0.000000 0.175170 0.535396
O O12 0.000000 0.926620 0.024087
O O13 0.284778 0.689627 0.250000
O O14 0.284536 0.711198 0.140643
O O15 0.000000 0.685232 0.191168
O O16 0.500000 0.233035 0.086599
#
# Coordination Sequence:
#
# PCOD9475962 Si02
#       6
#    16  16  16  16  16  16
#     4   8  13  21  34  54  77  97 118 147 183 218
#     4   9  16  25  39  59  79  97 121 156 192 222
#     4   9  16  26  41  59  77  99 128 159 190 227
#     4   8  13  21  35  54  74  97 123 148 176 217
#     4   9  17  28  40  54  76 105 130 152 184 227
#     4   9  17  27  39  57  79 101 126 158 194 227
#
# _framework density 18.217790999999998
#
# number of rings (size 3 to 8) (size 9 to 14) (size 15 to 20)
#    0.000    3.333    0.000    2.000    0.000    2.000 
#    0.000    0.000    0.000    2.000    0.000   11.667 
#    0.000    0.000    0.000    8.333    0.000    9.000 
#
# Total GULP energy -267554.085216 kJ/mol
# GULP energy per Si atom -5574.043442 kJ/mol
# Density = 1.817633 g / cm^3
# Si number density = 18.217791 Si / 1000 Ang^3
#
#
#
# Elastic Constant Matrix: (Units=GPa)
#
#
# Indices 1 2 3 4 5 6 
#
# 1 57.8689 2.0016 2.9705 0.0000 0.0000 0.0000
# 2 2.0016 163.0379 112.0790 0.0000 0.0000 0.0000
# 3 2.9705 112.0790 165.8008 0.0000 0.0000 0.0000
# 4 0.0000 0.0000 0.0000 26.6272 0.0000 0.0000
# 5 0.0000 0.0000 0.0000 0.0000 5.4298 0.0000
# 6 0.0000 0.0000 0.0000 0.0000 0.0000 9.8736
#
#
#
# Elastic Compliance Matrix: (Units=1/GPa)
#
#
# Indices 1 2 3 4 5 6 
#
# 1 0.017296 0.000001 -0.000311 0.000000 0.000000 0.000000
# 2 0.000001 0.011458 -0.007746 0.000000 0.000000 0.000000
# 3 -0.000311 -0.007746 0.011273 0.000000 0.000000 0.000000
# 4 0.000000 0.000000 0.000000 0.037556 0.000000 0.000000
# 5 0.000000 0.000000 0.000000 0.000000 0.184170 0.000000
# 6 0.000000 0.000000 0.000000 0.000000 0.000000 0.101281
#
#
# Mechanical properties :
#
#
# Convention : Reuss Voigt Hill
#
# Bulk Modulus (GPa) = 41.81091 68.97887 55.39489
# Shear Modulus (GPa) = 12.91604 26.36321 19.63962
#
# Velocity S-wave (km/s) = 2.66556 3.80822 3.28692
# Velocity P-wave (km/s) = 5.69860 7.56851 6.69912
#
# Compressibility (1/GPa) = 0.02391720
#
# Stress axis : x y z
#
# Youngs Moduli (GPa) = 57.81573 87.27411 88.70912
#
# Poissons Ratio (x) = -0.00011 0.02757
# Poissons Ratio (y) = -0.00007 0.68710
# Poissons Ratio (z) = 0.01797 0.67599
#
# Static dielectric constant tensor:
#      x y z
#    x 1.715740 0.000000 0.000000 
#    y 0.000000 1.613840 0.000000 
#    z 0.000000 0.000000 1.623790 
# 
# From -- ./inp_files/53267.got.cif
#   From: 2010.05.17/outbox.cif.g08.bks.cpg/sg63_27_cif.got.tgz:53267.got - 2010.06.03 15:47:04.
