data_PCOD9475796
_publ_section_title
;
Structure prediction by ZEFSAII (Michael W. Deem and Ramdas Pophale) SiO2 
 PCOD9475796
Probable space group: C M C M
;
_chemical_formula_sum "Si O2"
_cell_formula_units_Z 56
_cell_length_a 9.914588
_cell_length_b 11.620433
_cell_length_c 19.379357
_cell_angle_alpha 90.000000
_cell_angle_beta 90.000000
_cell_angle_gamma 90.000000
_cell_volume 2232.730711
_symmetry_space_group_name_H-M "C M C M"
_symmetry_group_IT_number 63
_symmetry_cell_setting 'orthorhombic'
loop_
_space_group_symop_operation_xyz
x,y,z
-x,-y,1/2+z
x,-y,-z
-x,y,1/2-z
-x,-y,-z
x,y,1/2-z
-x,y,z
x,-y,1/2+z
1/2+x,1/2+y,z
1/2-x,1/2-y,1/2+z
1/2+x,1/2-y,-z
1/2-x,1/2+y,1/2-z
1/2-x,1/2-y,-z
1/2+x,1/2+y,1/2-z
1/2-x,1/2+y,z
1/2+x,1/2-y,1/2+z
loop_
_atom_site_type_symbol
_atom_site_label
_atom_site_fract_x
_atom_site_fract_y
_atom_site_fract_z
Si Si1 0.000000 0.112901 0.750000
Si Si2 0.296308 0.088069 0.399741
Si Si3 0.000000 0.243059 0.971358
Si Si4 0.500000 0.109897 0.599577
Si Si5 0.791135 0.318987 0.750000
Si Si6 0.000000 0.002523 0.400243
Si Si7 0.000000 0.284997 0.250000
O O1 0.127928 0.198903 0.750000
O O2 0.000000 0.040435 0.820249
O O3 0.372068 0.969901 0.417434
O O4 0.138917 0.070165 0.411557
O O5 0.369220 0.192689 0.438556
O O6 0.323245 0.112197 0.319004
O O7 0.000000 0.112025 0.947326
O O8 0.000000 0.281005 0.050463
O O9 0.500000 0.143309 0.679438
O O10 0.633766 0.290757 0.750000
#
# Coordination Sequence:
#
# PCOD9475796 Si02
#       7
#     4  16   8   8   8   8   4
#     4  12  20  40  70 102 144 196 236 298 358 404
#     4  11  23  45  71 106 142 193 236 294 357 425
#     4  11  26  50  70 104 149 188 238 294 360 434
#     4  11  25  49  72  99 141 189 238 291 359 437
#     4  12  22  42  72 105 145 181 242 300 342 425
#     4  12  24  43  73 107 147 192 240 299 359 417
#     4  12  26  44  70 108 132 186 240 296 358 422
#
# _framework density 25.081396000000002
#
# number of rings (size 3 to 8) (size 9 to 14) (size 15 to 20)
#    0.000    0.571    2.857    6.857    0.000    1.143 
#    5.143    2.857    0.000    0.000    0.000    0.000 
#    0.000    0.000    0.000    0.000    0.000    0.000 
#
# Total GULP energy -157322.973791 kJ/mol
# GULP energy per Si atom -5618.677635 kJ/mol
# Density = 2.502431 g / cm^3
# Si number density = 25.081396 Si / 1000 Ang^3
#
#
#
# Elastic Constant Matrix: (Units=GPa)
#
#
# Indices 1 2 3 4 5 6 
#
# 1 206.9623 73.6174 43.1970 0.0000 0.0000 0.0000
# 2 73.6174 126.7795 52.7930 0.0000 0.0000 0.0000
# 3 43.1970 52.7930 150.2988 0.0000 0.0000 0.0000
# 4 0.0000 0.0000 0.0000 27.4939 0.0000 0.0000
# 5 0.0000 0.0000 0.0000 0.0000 -153.7197 0.0000
# 6 0.0000 0.0000 0.0000 0.0000 0.0000 16.7529
#
#
#
# Elastic Compliance Matrix: (Units=1/GPa)
#
#
# Indices 1 2 3 4 5 6 
#
# 1 0.006135 -0.003313 -0.000600 0.000000 0.000000 0.000000
# 2 -0.003313 0.011028 -0.002921 0.000000 0.000000 0.000000
# 3 -0.000600 -0.002921 0.007852 0.000000 0.000000 0.000000
# 4 0.000000 0.000000 0.000000 0.036372 0.000000 0.000000
# 5 0.000000 0.000000 0.000000 0.000000 -0.006505 0.000000
# 6 0.000000 0.000000 0.000000 0.000000 0.000000 0.059691
#
#
# Mechanical properties :
#
#
# Convention : Reuss Voigt Hill
#
# Bulk Modulus (GPa) = 88.12771 91.47282 89.80026
# Shear Modulus (GPa) = 37.87214 -0.93236 18.46989
#
# Velocity S-wave (km/s) = 3.89005 -0.61036 2.71661
# Velocity P-wave (km/s) = 7.44242 6.00440 6.76175
#
# Compressibility (1/GPa) = 0.01134717
#
# Stress axis : x y z
#
# Youngs Moduli (GPa) = 162.98891 90.67847 127.35714
#
# Poissons Ratio (x) = 0.30041 0.07637
# Poissons Ratio (y) = 0.53997 0.37207
# Poissons Ratio (z) = 0.09774 0.26491
#
# Static dielectric constant tensor:
#      x y z
#    x 1.946960 0.000000 0.000000 
#    y 0.000000 1.910640 0.000000 
#    z 0.000000 0.000000 1.997350 
# 
# From -- ./inp_files/50207.got.cif
#   From: 2010.05.17/outbox.cif.g08.bks.cpg/sg63_26_cif.got.tgz:50207.got - 2010.06.03 15:47:04.
