data_PCOD9475275
_publ_section_title
;
Structure prediction by ZEFSAII (Michael W. Deem and Ramdas Pophale) SiO2 
 PCOD9475275
Probable space group: C M C M
;
_chemical_formula_sum "Si O2"
_cell_formula_units_Z 64
_cell_length_a 18.571259
_cell_length_b 13.200051
_cell_length_c 11.535962
_cell_angle_alpha 90.000000
_cell_angle_beta 90.000000
_cell_angle_gamma 90.000000
_cell_volume 2827.943789
_symmetry_space_group_name_H-M "C M C M"
_symmetry_group_IT_number 63
_symmetry_cell_setting 'orthorhombic'
loop_
_space_group_symop_operation_xyz
x,y,z
-x,-y,1/2+z
x,-y,-z
-x,y,1/2-z
-x,-y,-z
x,y,1/2-z
-x,y,z
x,-y,1/2+z
1/2+x,1/2+y,z
1/2-x,1/2-y,1/2+z
1/2+x,1/2-y,-z
1/2-x,1/2+y,1/2-z
1/2-x,1/2-y,-z
1/2+x,1/2+y,1/2-z
1/2-x,1/2+y,z
1/2+x,1/2-y,1/2+z
loop_
_atom_site_type_symbol
_atom_site_label
_atom_site_fract_x
_atom_site_fract_y
_atom_site_fract_z
Si Si1 0.171355 0.253162 0.057948
Si Si2 0.420344 0.141953 0.381141
Si Si3 0.416089 0.437202 0.879378
Si Si4 0.203837 0.475124 0.124058
O O1 0.142331 0.153820 0.120026
O O2 0.176629 0.359743 0.124544
O O3 0.250000 0.250000 0.000000
O O4 0.112364 0.271452 0.959216
O O5 0.423208 0.178396 0.250000
O O6 0.500000 0.111486 0.418636
O O7 0.364947 0.048997 0.382529
O O8 0.410194 0.488008 0.750000
O O9 0.500000 0.400279 0.884383
O O10 0.406425 0.500000 0.000000
O O11 0.239446 0.494253 0.250000
O O12 0.241953 0.500000 0.000000
#
# Coordination Sequence:
#
# PCOD9475275 Si02
#       4
#    16  16  16  16
#     4  11  23  37  58  92 127 164 204 250 310 378
#     4   9  19  36  59  88 121 157 197 245 305 371
#     4  10  23  44  67  90 120 165 223 278 322 369
#     4   9  19  36  58  86 120 154 193 242 299 364
#
# _framework density 22.631284999999998
#
# number of rings (size 3 to 8) (size 9 to 14) (size 15 to 20)
#    0.000    2.250    0.000    1.500    0.000   11.500 
#    0.000   10.000    0.000    0.000    0.000    0.000 
#    0.000    0.000    0.000    0.000    0.000    0.000 
#
# Total GULP energy -178292.562696 kJ/mol
# GULP energy per Si atom -5571.642584 kJ/mol
# Density = 2.257978 g / cm^3
# Si number density = 22.631285 Si / 1000 Ang^3
#
#
#
# Elastic Constant Matrix: (Units=GPa)
#
#
# Indices 1 2 3 4 5 6 
#
# 1 102.2361 10.0689 35.1941 0.0000 0.0000 0.0000
# 2 10.0689 70.4150 52.0464 0.0000 0.0000 0.0000
# 3 35.1941 52.0464 208.8703 0.0000 0.0000 0.0000
# 4 0.0000 0.0000 0.0000 2.5248 0.0000 0.0000
# 5 0.0000 0.0000 0.0000 0.0000 -77.1688 0.0000
# 6 0.0000 0.0000 0.0000 0.0000 0.0000 10.4759
#
#
#
# Elastic Compliance Matrix: (Units=1/GPa)
#
#
# Indices 1 2 3 4 5 6 
#
# 1 0.010387 -0.000235 -0.001692 0.000000 0.000000 0.000000
# 2 -0.000235 0.017413 -0.004299 0.000000 0.000000 0.000000
# 3 -0.001692 -0.004299 0.006144 0.000000 0.000000 0.000000
# 4 0.000000 0.000000 0.000000 0.396063 0.000000 0.000000
# 5 0.000000 0.000000 0.000000 0.000000 -0.012959 0.000000
# 6 0.000000 0.000000 0.000000 0.000000 0.000000 0.095458
#
#
# Mechanical properties :
#
#
# Convention : Reuss Voigt Hill
#
# Bulk Modulus (GPa) = 46.52914 64.01557 55.27236
# Shear Modulus (GPa) = 9.39635 6.11385 7.75510
#
# Velocity S-wave (km/s) = 2.03984 1.64541 1.85315
# Velocity P-wave (km/s) = 5.11392 5.65310 5.39026
#
# Compressibility (1/GPa) = 0.02149191
#
# Stress axis : x y z
#
# Youngs Moduli (GPa) = 96.27657 57.42856 162.76014
#
# Poissons Ratio (x) = 0.01349 0.27533
# Poissons Ratio (y) = 0.02262 0.69977
# Poissons Ratio (z) = 0.16286 0.24691
#
# Static dielectric constant tensor:
#      x y z
#    x 1.813680 0.000000 0.000000 
#    y 0.000000 1.825700 0.000000 
#    z 0.000000 0.000000 1.887330 
# 
# From -- ./inp_files/22122.got.cif
#   From: 2010.05.17/outbox.cif.g08.bks.cpg/sg63_12_cif.got.tgz:22122.got - 2010.06.03 15:47:04.
