data_PCOD9475053
_publ_section_title
;
Structure prediction by ZEFSAII (Michael W. Deem and Ramdas Pophale) SiO2 
 PCOD9475053
Probable space group: C M C M
;
_chemical_formula_sum "Si O2"
_cell_formula_units_Z 64
_cell_length_a 10.247879
_cell_length_b 9.369321
_cell_length_c 30.963686
_cell_angle_alpha 90.000000
_cell_angle_beta 90.000000
_cell_angle_gamma 90.000000
_cell_volume 2972.998993
_symmetry_space_group_name_H-M "C M C M"
_symmetry_group_IT_number 63
_symmetry_cell_setting 'orthorhombic'
loop_
_space_group_symop_operation_xyz
x,y,z
-x,-y,1/2+z
x,-y,-z
-x,y,1/2-z
-x,-y,-z
x,y,1/2-z
-x,y,z
x,-y,1/2+z
1/2+x,1/2+y,z
1/2-x,1/2-y,1/2+z
1/2+x,1/2-y,-z
1/2-x,1/2+y,1/2-z
1/2-x,1/2-y,-z
1/2+x,1/2+y,1/2-z
1/2-x,1/2+y,z
1/2+x,1/2-y,1/2+z
loop_
_atom_site_type_symbol
_atom_site_label
_atom_site_fract_x
_atom_site_fract_y
_atom_site_fract_z
Si Si1 0.000000 0.342062 0.984675
Si Si2 0.148252 0.119021 0.298366
Si Si3 0.285058 0.121600 0.856220
Si Si4 0.713364 0.122691 0.415587
Si Si5 0.000000 0.089953 0.454709
O O1 0.130080 0.325669 0.956282
O O2 0.000000 0.500000 0.000000
O O3 0.000000 0.247533 0.026688
O O4 0.205472 0.131708 0.250000
O O5 0.146567 0.271896 0.322430
O O6 0.000000 0.072167 0.294598
O O7 0.215052 0.997737 0.327138
O O8 0.208682 0.241754 0.883648
O O9 0.347203 0.017701 0.892601
O O10 0.863796 0.078684 0.428013
O O11 0.000000 0.000000 0.500000
#
# Coordination Sequence:
#
# PCOD9475053 Si02
#       5
#     8  16  16  16   8
#     4  12  24  40  60  90 129 166 219 270 328 382
#     4  10  22  41  67  94 129 170 213 266 329 389
#     4  10  23  39  64  91 131 163 217 263 320 384
#     4  11  24  39  65  94 127 175 216 270 325 389
#     4  12  24  42  64  90 129 172 221 266 330 386
#
# _framework density 21.527086000000001
#
# number of rings (size 3 to 8) (size 9 to 14) (size 15 to 20)
#    0.000    1.250    0.000    5.250   10.500    0.000 
#    0.000    0.000    0.000    7.500    0.000    0.000 
#    0.000    0.000    0.000    0.000    0.000    0.000 
#
# Total GULP energy -178263.631890 kJ/mol
# GULP energy per Si atom -5570.738497 kJ/mol
# Density = 2.147809 g / cm^3
# Si number density = 21.527086 Si / 1000 Ang^3
#
#
#
# Elastic Constant Matrix: (Units=GPa)
#
#
# Indices 1 2 3 4 5 6 
#
# 1 99.8899 12.9956 34.4655 0.0000 0.0000 0.0000
# 2 12.9956 142.0830 33.1770 0.0000 0.0000 0.0000
# 3 34.4655 33.1770 104.6623 0.0000 0.0000 0.0000
# 4 0.0000 0.0000 0.0000 41.4415 0.0000 0.0000
# 5 0.0000 0.0000 0.0000 0.0000 39.2425 0.0000
# 6 0.0000 0.0000 0.0000 0.0000 0.0000 15.4180
#
#
#
# Elastic Compliance Matrix: (Units=1/GPa)
#
#
# Indices 1 2 3 4 5 6 
#
# 1 0.011298 -0.000178 -0.003664 0.000000 0.000000 0.000000
# 2 -0.000178 0.007604 -0.002352 0.000000 0.000000 0.000000
# 3 -0.003664 -0.002352 0.011507 0.000000 0.000000 0.000000
# 4 0.000000 0.000000 0.000000 0.024130 0.000000 0.000000
# 5 0.000000 0.000000 0.000000 0.000000 0.025483 0.000000
# 6 0.000000 0.000000 0.000000 0.000000 0.000000 0.064859
#
#
# Mechanical properties :
#
#
# Convention : Reuss Voigt Hill
#
# Bulk Modulus (GPa) = 55.49034 56.43458 55.96246
# Shear Modulus (GPa) = 30.62311 36.95355 33.78833
#
# Velocity S-wave (km/s) = 3.77575 4.14769 3.96608
# Velocity P-wave (km/s) = 6.69636 7.01501 6.85754
#
# Compressibility (1/GPa) = 0.01802116
#
# Stress axis : x y z
#
# Youngs Moduli (GPa) = 88.50783 131.51773 86.90630
#
# Poissons Ratio (x) = 0.02338 0.31844
# Poissons Ratio (y) = 0.01574 0.20438
# Poissons Ratio (z) = 0.32431 0.30929
#
# Static dielectric constant tensor:
#      x y z
#    x 1.805270 0.000000 0.000000 
#    y 0.000000 1.721330 0.000000 
#    z 0.000000 0.000000 1.815030 
# 
# From -- ./inp_files/72376.got.cif
#   From: 2010.05.17/outbox.cif.g08.bks.cpg/sg63_37_cif.got.tgz:72376.got - 2010.06.03 15:47:04.
