data_PCOD9475662
_publ_section_title
;
Structure prediction by ZEFSAII (Michael W. Deem and Ramdas Pophale) SiO2 
 PCOD9475662
Probable space group: C M C M
;
_chemical_formula_sum "Si O2"
_cell_formula_units_Z 64
_cell_length_a 10.594717
_cell_length_b 36.703585
_cell_length_c 8.473599
_cell_angle_alpha 90.000000
_cell_angle_beta 90.000000
_cell_angle_gamma 90.000000
_cell_volume 3295.078415
_symmetry_space_group_name_H-M "C M C M"
_symmetry_group_IT_number 63
_symmetry_cell_setting 'orthorhombic'
loop_
_space_group_symop_operation_xyz
x,y,z
-x,-y,1/2+z
x,-y,-z
-x,y,1/2-z
-x,-y,-z
x,y,1/2-z
-x,y,z
x,-y,1/2+z
1/2+x,1/2+y,z
1/2-x,1/2-y,1/2+z
1/2+x,1/2-y,-z
1/2-x,1/2+y,1/2-z
1/2-x,1/2-y,-z
1/2+x,1/2+y,1/2-z
1/2-x,1/2+y,z
1/2+x,1/2-y,1/2+z
loop_
_atom_site_type_symbol
_atom_site_label
_atom_site_fract_x
_atom_site_fract_y
_atom_site_fract_z
Si Si1 0.752008 0.208734 0.939585
Si Si2 0.500000 0.082303 0.560407
Si Si3 0.000000 0.916437 0.557796
Si Si4 0.751900 0.541267 0.060408
Si Si5 0.000000 0.666423 0.942241
Si Si6 0.500000 0.332316 0.939627
O O1 0.753069 0.209025 0.750000
O O2 0.626012 0.187468 0.993342
O O3 0.750000 0.250000 0.000000
O O4 0.875713 0.188085 0.000043
O O5 0.500000 0.081732 0.750000
O O6 0.624264 0.061894 0.500000
O O7 0.500000 0.124412 0.506576
O O8 0.873986 0.937464 0.506583
O O9 0.000000 0.916432 0.750000
O O10 0.000000 0.874424 0.506619
O O11 0.753591 0.540979 0.250000
O O12 0.750265 0.500000 0.000000
O O13 0.000000 0.666439 0.750000
O O14 0.500000 0.331692 0.750000
#
# Coordination Sequence:
#
# PCOD9475662 Si02
#       6
#    16   8   8  16   8   8
#     4  11  22  39  61  88 118 154 195 241 292 347
#     4  11  22  39  60  85 114 151 192 237 288 342
#     4   9  21  39  61  86 116 151 194 241 289 340
#     4  11  22  39  60  86 116 151 191 237 287 343
#     4   9  21  39  60  84 115 149 192 243 289 336
#     4  11  22  39  60  87 120 155 192 239 290 346
#
# _framework density 19.422905
#
# number of rings (size 3 to 8) (size 9 to 14) (size 15 to 20)
#    0.000    1.500    0.000    5.250    0.000    1.000 
#    0.000   11.250    0.000    0.000    0.000    0.000 
#    0.000    0.000    0.000    0.000    0.000    0.000 
#
# Total GULP energy -178976.990597 kJ/mol
# GULP energy per Si atom -5593.030956 kJ/mol
# Density = 1.937870 g / cm^3
# Si number density = 19.422905 Si / 1000 Ang^3
#
#
#
# Elastic Constant Matrix: (Units=GPa)
#
#
# Indices 1 2 3 4 5 6 
#
# 1 247.0878 152.0541 45.3717 0.0000 0.0000 0.0000
# 2 152.0541 247.6065 45.6195 0.0000 0.0000 0.0000
# 3 45.3717 45.6195 60.8568 0.0000 0.0000 0.0000
# 4 0.0000 0.0000 0.0000 24.4862 0.0000 0.0000
# 5 0.0000 0.0000 0.0000 0.0000 -5.3203 0.0000
# 6 0.0000 0.0000 0.0000 0.0000 0.0000 47.7948
#
#
#
# Elastic Compliance Matrix: (Units=1/GPa)
#
#
# Indices 1 2 3 4 5 6 
#
# 1 0.006758 -0.003738 -0.002236 0.000000 0.000000 0.000000
# 2 -0.003738 0.006754 -0.002276 0.000000 0.000000 0.000000
# 3 -0.002236 -0.002276 0.019805 0.000000 0.000000 0.000000
# 4 0.000000 0.000000 0.000000 0.040839 0.000000 0.000000
# 5 0.000000 0.000000 0.000000 0.000000 -0.187960 0.000000
# 6 0.000000 0.000000 0.000000 0.000000 0.000000 0.020923
#
#
# Mechanical properties :
#
#
# Convention : Reuss Voigt Hill
#
# Bulk Modulus (GPa) = 59.46486 115.73794 87.60140
# Shear Modulus (GPa) = -70.64657 34.22587 -18.21035
#
# Velocity S-wave (km/s) = -6.03753 4.20234 -3.06530
# Velocity P-wave (km/s) = 4.23321 9.12491 5.71594
#
# Compressibility (1/GPa) = 0.01681665
#
# Stress axis : x y z
#
# Youngs Moduli (GPa) = 147.96845 148.07124 50.49184
#
# Poissons Ratio (x) = 0.55351 0.11292
# Poissons Ratio (y) = 0.55313 0.11490
# Poissons Ratio (z) = 0.33091 0.33695
#
# Static dielectric constant tensor:
#      x y z
#    x 1.641580 0.000000 0.000000 
#    y 0.000000 1.642200 0.000000 
#    z 0.000000 0.000000 1.669910 
# 
# From -- ./inp_files/3225.got.cif
#   From: 2010.05.17/outbox.cif.g08.bks.cpg/sg63_2_cif.got.tgz:3225.got - 2010.06.03 15:47:04.
