data_PCOD9475890
_publ_section_title
;
Structure prediction by ZEFSAII (Michael W. Deem and Ramdas Pophale) SiO2 
 PCOD9475890
Probable space group: C M C M
;
_chemical_formula_sum "Si O2"
_cell_formula_units_Z 84
_cell_length_a 11.402138
_cell_length_b 14.688590
_cell_length_c 23.180185
_cell_angle_alpha 90.000000
_cell_angle_beta 90.000000
_cell_angle_gamma 90.000000
_cell_volume 3882.248218
_symmetry_space_group_name_H-M "C M C M"
_symmetry_group_IT_number 63
_symmetry_cell_setting 'orthorhombic'
loop_
_space_group_symop_operation_xyz
x,y,z
-x,-y,1/2+z
x,-y,-z
-x,y,1/2-z
-x,-y,-z
x,y,1/2-z
-x,y,z
x,-y,1/2+z
1/2+x,1/2+y,z
1/2-x,1/2-y,1/2+z
1/2+x,1/2-y,-z
1/2-x,1/2+y,1/2-z
1/2-x,1/2-y,-z
1/2+x,1/2+y,1/2-z
1/2-x,1/2+y,z
1/2+x,1/2-y,1/2+z
loop_
_atom_site_type_symbol
_atom_site_label
_atom_site_fract_x
_atom_site_fract_y
_atom_site_fract_z
Si Si1 0.000000 0.726270 0.250000
Si Si2 0.716288 0.211278 0.938791
Si Si3 0.000000 0.371040 0.878235
Si Si4 0.362173 0.671167 0.250000
Si Si5 0.500000 0.891001 0.489103
Si Si6 0.269715 0.605899 0.370565
Si Si7 0.136209 0.919482 0.364845
Si Si8 0.731011 0.649049 0.750000
O O1 0.000000 0.679226 0.185589
O O2 0.882434 0.785280 0.250000
O O3 0.611178 0.141649 0.951667
O O4 0.691327 0.301137 0.901582
O O5 0.821788 0.159262 0.907333
O O6 0.750000 0.250000 0.000000
O O7 0.869106 0.413063 0.876902
O O8 0.000000 0.341641 0.947249
O O9 0.500000 0.652826 0.250000
O O10 0.302813 0.625806 0.304969
O O11 0.337607 0.779886 0.250000
O O12 0.500000 0.000000 0.500000
O O13 0.339422 0.517888 0.391533
O O14 0.216788 0.908976 0.307841
O O15 0.000000 0.910249 0.349499
#
# Coordination Sequence:
#
# PCOD9475890 Si02
#       8
#     4  16   8   8   8  16  16   8
#     4  12  20  40  80 114 124 188 246 306 356 446
#     4  12  28  45  75 105 141 197 247 299 368 435
#     4  12  22  46  78 103 144 185 252 306 359 440
#     4  12  25  44  71 107 156 189 233 305 378 441
#     4  12  28  50  73 106 154 197 246 312 367 432
#     4  12  26  47  75 111 146 194 245 305 375 440
#     4  12  27  47  75 109 148 192 249 308 369 450
#     4  12  23  44  76 108 140 191 249 301 376 435
#
# _framework density 21.636946999999999
#
# number of rings (size 3 to 8) (size 9 to 14) (size 15 to 20)
#    0.000    0.000    6.667    2.286    5.333    0.000 
#    1.714    0.952    0.000    0.000    0.000    0.000 
#    0.000    0.000    0.000    0.000    0.000    0.000 
#
# Total GULP energy -234540.835040 kJ/mol
# GULP energy per Si atom -5584.305596 kJ/mol
# Density = 2.158770 g / cm^3
# Si number density = 21.636947 Si / 1000 Ang^3
#
#
#
# Elastic Constant Matrix: (Units=GPa)
#
#
# Indices 1 2 3 4 5 6 
#
# 1 81.1013 -0.6026 2.7042 0.0000 0.0000 0.0000
# 2 -0.6026 127.6413 25.6657 0.0000 0.0000 0.0000
# 3 2.7042 25.6657 105.0601 0.0000 0.0000 0.0000
# 4 0.0000 0.0000 0.0000 -2.8374 0.0000 0.0000
# 5 0.0000 0.0000 0.0000 0.0000 33.7746 0.0000
# 6 0.0000 0.0000 0.0000 0.0000 0.0000 23.0805
#
#
#
# Elastic Compliance Matrix: (Units=1/GPa)
#
#
# Indices 1 2 3 4 5 6 
#
# 1 0.012343 0.000128 -0.000349 0.000000 0.000000 0.000000
# 2 0.000128 0.008241 -0.002016 0.000000 0.000000 0.000000
# 3 -0.000349 -0.002016 0.010020 0.000000 0.000000 0.000000
# 4 0.000000 0.000000 0.000000 -0.352437 0.000000 0.000000
# 5 0.000000 0.000000 0.000000 0.000000 0.029608 0.000000
# 6 0.000000 0.000000 0.000000 0.000000 0.000000 0.043327
#
#
# Mechanical properties :
#
#
# Convention : Reuss Voigt Hill
#
# Bulk Modulus (GPa) = 38.27132 41.03748 39.65440
# Shear Modulus (GPa) = -21.21205 29.87256 4.33025
#
# Velocity S-wave (km/s) = -3.13447 3.71971 1.41622
# Velocity P-wave (km/s) = 2.15092 6.12012 4.58707
#
# Compressibility (1/GPa) = 0.02612923
#
# Stress axis : x y z
#
# Youngs Moduli (GPa) = 81.01857 121.35155 99.80087
#
# Poissons Ratio (x) = -0.01559 0.03484
# Poissons Ratio (y) = -0.01041 0.20124
# Poissons Ratio (z) = 0.02828 0.24470
#
# Static dielectric constant tensor:
#      x y z
#    x 1.778310 0.000000 0.000000 
#    y 0.000000 1.882160 0.000000 
#    z 0.000000 0.000000 1.822200 
# 
# From -- ./inp_files/61316.got.cif
#   From: 2010.05.17/outbox.cif.g08.bks.cpg/sg63_31_cif.got.tgz:61316.got - 2010.06.03 15:47:04.
