data_PCOD9475550
_publ_section_title
;
Structure prediction by ZEFSAII (Michael W. Deem and Ramdas Pophale) SiO2 
 PCOD9475550
Probable space group: C M C M
;
_chemical_formula_sum "Si O2"
_cell_formula_units_Z 96
_cell_length_a 15.584798
_cell_length_b 20.047321
_cell_length_c 16.022180
_cell_angle_alpha 90.000000
_cell_angle_beta 90.000000
_cell_angle_gamma 90.000000
_cell_volume 5005.864946
_symmetry_space_group_name_H-M "C M C M"
_symmetry_group_IT_number 63
_symmetry_cell_setting 'orthorhombic'
loop_
_space_group_symop_operation_xyz
x,y,z
-x,-y,1/2+z
x,-y,-z
-x,y,1/2-z
-x,-y,-z
x,y,1/2-z
-x,y,z
x,-y,1/2+z
1/2+x,1/2+y,z
1/2-x,1/2-y,1/2+z
1/2+x,1/2-y,-z
1/2-x,1/2+y,1/2-z
1/2-x,1/2-y,-z
1/2+x,1/2+y,1/2-z
1/2-x,1/2+y,z
1/2+x,1/2-y,1/2+z
loop_
_atom_site_type_symbol
_atom_site_label
_atom_site_fract_x
_atom_site_fract_y
_atom_site_fract_z
Si Si1 0.000000 0.889680 0.851925
Si Si2 0.299246 0.962854 0.580649
Si Si3 0.100586 0.722147 0.250000
Si Si4 0.710540 0.286942 0.386631
Si Si5 0.678699 0.332620 0.928063
Si Si6 0.000000 0.951251 0.350343
Si Si7 0.684016 0.572742 0.653200
Si Si8 0.103084 0.568043 0.250000
O O1 0.911815 0.859190 0.891452
O O2 0.000000 0.969668 0.868902
O O3 0.000000 0.881407 0.750000
O O4 0.251620 0.891388 0.568348
O O5 0.358569 0.960279 0.663300
O O6 0.340956 0.000000 0.500000
O O7 0.223001 0.013142 0.602309
O O8 0.134285 0.761190 0.329507
O O9 0.130359 0.645765 0.250000
O O10 0.000000 0.720535 0.250000
O O11 0.676704 0.300626 0.479623
O O12 0.782583 0.230229 0.377641
O O13 0.737398 0.359869 0.355309
O O14 0.000000 0.944525 0.250000
O O15 0.087337 0.917448 0.379502
O O16 0.680741 0.553047 0.750000
O O17 0.000000 0.562507 0.250000
#
# Coordination Sequence:
#
# PCOD9475550 Si02
#       8
#     8  16   8  16  16   8  16   8
#     4  11  24  39  67  94 134 181 227 266 324 394
#     4  12  23  42  70  98 129 169 218 276 336 395
#     4  11  24  39  66  96 126 170 219 273 330 386
#     4  11  24  41  63  92 133 175 217 266 330 396
#     4  11  25  42  62  98 134 176 220 269 327 405
#     4   9  20  33  55  99 134 162 210 265 325 383
#     4  11  21  35  60  95 132 171 214 267 327 391
#     4  11  26  47  72  96 122 168 227 279 330 394
#
# _framework density 19.177503999999999
#
# number of rings (size 3 to 8) (size 9 to 14) (size 15 to 20)
#    0.000    1.000    6.667    0.000    4.667    0.333 
#    0.000    1.667    1.833    0.000    0.000    0.000 
#    0.000    0.000    0.000    0.000    0.000    0.000 
#
# Total GULP energy -267593.486478 kJ/mol
# GULP energy per Si atom -5574.864302 kJ/mol
# Density = 1.913386 g / cm^3
# Si number density = 19.177504 Si / 1000 Ang^3
#
#
#
# Elastic Constant Matrix: (Units=GPa)
#
#
# Indices 1 2 3 4 5 6 
#
# 1 65.6809 35.4948 37.1189 0.0000 0.0000 0.0000
# 2 35.4948 107.3252 23.1902 0.0000 0.0000 0.0000
# 3 37.1189 23.1902 100.1540 0.0000 0.0000 0.0000
# 4 0.0000 0.0000 0.0000 31.6571 0.0000 0.0000
# 5 0.0000 0.0000 0.0000 0.0000 4.8779 0.0000
# 6 0.0000 0.0000 0.0000 0.0000 0.0000 25.2390
#
#
#
# Elastic Compliance Matrix: (Units=1/GPa)
#
#
# Indices 1 2 3 4 5 6 
#
# 1 0.022308 -0.005886 -0.006905 0.000000 0.000000 0.000000
# 2 -0.005886 0.011361 -0.000449 0.000000 0.000000 0.000000
# 3 -0.006905 -0.000449 0.012648 0.000000 0.000000 0.000000
# 4 0.000000 0.000000 0.000000 0.031588 0.000000 0.000000
# 5 0.000000 0.000000 0.000000 0.000000 0.205007 0.000000
# 6 0.000000 0.000000 0.000000 0.000000 0.000000 0.039621
#
#
# Mechanical properties :
#
#
# Convention : Reuss Voigt Hill
#
# Bulk Modulus (GPa) = 50.41086 51.64087 51.02586
# Shear Modulus (GPa) = 14.05969 24.17854 19.11911
#
# Velocity S-wave (km/s) = 2.71058 3.55459 3.16089
# Velocity P-wave (km/s) = 6.01164 6.62066 6.32349
#
# Compressibility (1/GPa) = 0.01983700
#
# Stress axis : x y z
#
# Youngs Moduli (GPa) = 44.82655 88.01953 79.06539
#
# Poissons Ratio (x) = 0.51807 0.54595
# Poissons Ratio (y) = 0.26384 0.03552
# Poissons Ratio (z) = 0.30953 0.03954
#
# Static dielectric constant tensor:
#      x y z
#    x 1.660380 0.000000 0.000000 
#    y 0.000000 1.724210 0.000000 
#    z 0.000000 0.000000 1.734490 
# 
# From -- ./inp_files/32040.got.cif
#   From: 2010.05.17/outbox.cif.g08.bks.cpg/sg63_17_cif.got.tgz:32040.got - 2010.06.03 15:47:04.
