data_PCOD9475216
_publ_section_title
;
Structure prediction by ZEFSAII (Michael W. Deem and Ramdas Pophale) SiO2 
 PCOD9475216
Probable space group: C M C M
;
_chemical_formula_sum "Si O2"
_cell_formula_units_Z 112
_cell_length_a 23.899452
_cell_length_b 13.927220
_cell_length_c 15.398856
_cell_angle_alpha 90.000000
_cell_angle_beta 90.000000
_cell_angle_gamma 90.000000
_cell_volume 5125.554275
_symmetry_space_group_name_H-M "C M C M"
_symmetry_group_IT_number 63
_symmetry_cell_setting 'orthorhombic'
loop_
_space_group_symop_operation_xyz
x,y,z
-x,-y,1/2+z
x,-y,-z
-x,y,1/2-z
-x,-y,-z
x,y,1/2-z
-x,y,z
x,-y,1/2+z
1/2+x,1/2+y,z
1/2-x,1/2-y,1/2+z
1/2+x,1/2-y,-z
1/2-x,1/2+y,1/2-z
1/2-x,1/2-y,-z
1/2+x,1/2+y,1/2-z
1/2-x,1/2+y,z
1/2+x,1/2-y,1/2+z
loop_
_atom_site_type_symbol
_atom_site_label
_atom_site_fract_x
_atom_site_fract_y
_atom_site_fract_z
Si Si1 0.746156 0.116887 0.512037
Si Si2 0.935755 0.245376 0.146956
Si Si3 0.323249 0.432905 0.152746
Si Si4 0.441378 0.425760 0.350351
Si Si5 0.936660 0.695296 0.344977
Si Si6 0.813729 0.844022 0.652666
Si Si7 0.884434 0.612987 0.513595
O O1 0.783478 0.132622 0.596862
O O2 0.773297 0.172749 0.430247
O O3 0.680980 0.131282 0.530155
O O4 0.751714 0.000000 0.500000
O O5 0.936050 0.265933 0.250000
O O6 0.879893 0.178764 0.133417
O O7 0.921664 0.338114 0.088349
O O8 0.000000 0.211162 0.125589
O O9 0.330936 0.392585 0.250000
O O10 0.383031 0.446098 0.106084
O O11 0.304275 0.541967 0.162433
O O12 0.439545 0.463407 0.250000
O O13 0.500000 0.458825 0.389061
O O14 0.441725 0.310410 0.345374
O O15 0.915957 0.665148 0.250000
O O16 0.899172 0.662743 0.423163
O O17 0.000000 0.657645 0.356500
O O18 0.802120 0.801648 0.750000
O O19 0.894071 0.500000 0.500000
#
# Coordination Sequence:
#
# PCOD9475216 Si02
#       7
#    16  16  16  16  16  16  16
#     4   9  20  37  56  82 114 147 188 235 276 326
#     4  10  23  42  61  84 116 151 189 234 279 331
#     4   9  17  32  56  84 116 152 187 225 274 333
#     4   8  15  29  50  79 112 142 176 223 278 332
#     4   9  19  36  56  81 113 142 176 232 294 344
#     4   9  19  37  58  81 115 156 190 224 271 331
#     4  11  24  40  60  83 109 148 193 239 291 337
#
# _framework density 21.851293999999999
#
# number of rings (size 3 to 8) (size 9 to 14) (size 15 to 20)
#    0.000    2.714    0.000    1.286    2.000    4.000 
#    0.000    7.143    0.000    2.571    0.000    0.000 
#    0.000    0.000    0.000    0.000    0.000    0.000 
#
# Total GULP energy -311943.151687 kJ/mol
# GULP energy per Si atom -5570.413423 kJ/mol
# Density = 2.180156 g / cm^3
# Si number density = 21.851294 Si / 1000 Ang^3
#
#
#
# Elastic Constant Matrix: (Units=GPa)
#
#
# Indices 1 2 3 4 5 6 
#
# 1 91.0380 1.6495 53.7027 0.0000 0.0000 0.0000
# 2 1.6495 51.7932 15.0607 0.0000 0.0000 0.0000
# 3 53.7027 15.0607 72.7558 0.0000 0.0000 0.0000
# 4 0.0000 0.0000 0.0000 14.9035 0.0000 0.0000
# 5 0.0000 0.0000 0.0000 0.0000 32.6240 0.0000
# 6 0.0000 0.0000 0.0000 0.0000 0.0000 26.3360
#
#
#
# Elastic Compliance Matrix: (Units=1/GPa)
#
#
# Indices 1 2 3 4 5 6 
#
# 1 0.020179 0.003925 -0.015707 0.000000 0.000000 0.000000
# 2 0.003925 0.021308 -0.007308 0.000000 0.000000 0.000000
# 3 -0.015707 -0.007308 0.026851 0.000000 0.000000 0.000000
# 4 0.000000 0.000000 0.000000 0.067098 0.000000 0.000000
# 5 0.000000 0.000000 0.000000 0.000000 0.030652 0.000000
# 6 0.000000 0.000000 0.000000 0.000000 0.000000 0.037971
#
#
# Mechanical properties :
#
#
# Convention : Reuss Voigt Hill
#
# Bulk Modulus (GPa) = 33.15916 39.60142 36.38029
# Shear Modulus (GPa) = 19.81843 24.45096 22.13469
#
# Velocity S-wave (km/s) = 3.01486 3.34873 3.18617
# Velocity P-wave (km/s) = 5.22753 5.75452 5.49734
#
# Compressibility (1/GPa) = 0.03015758
#
# Stress axis : x y z
#
# Youngs Moduli (GPa) = 49.55740 46.93183 37.24282
#
# Poissons Ratio (x) = -0.18419 0.58496
# Poissons Ratio (y) = -0.19450 0.27216
# Poissons Ratio (z) = 0.77838 0.34296
#
# Static dielectric constant tensor:
#      x y z
#    x 1.859510 0.000000 0.000000 
#    y 0.000000 1.869930 0.000000 
#    z 0.000000 0.000000 1.861380 
# 
# From -- ./inp_files/36901.got.cif
#   From: 2010.05.17/outbox.cif.g08.bks.cpg/sg63_19_cif.got.tgz:36901.got - 2010.06.03 15:47:04.
