data_PCOD9475314
_publ_section_title
;
Structure prediction by ZEFSAII (Michael W. Deem and Ramdas Pophale) SiO2 
 PCOD9475314
Probable space group: C M C M
;
_chemical_formula_sum "Si O2"
_cell_formula_units_Z 52
_cell_length_a 15.702690
_cell_length_b 15.230115
_cell_length_c 11.658810
_cell_angle_alpha 90.000000
_cell_angle_beta 90.000000
_cell_angle_gamma 90.000000
_cell_volume 2788.248418
_symmetry_space_group_name_H-M "C M C M"
_symmetry_group_IT_number 63
_symmetry_cell_setting 'orthorhombic'
loop_
_space_group_symop_operation_xyz
x,y,z
-x,-y,1/2+z
x,-y,-z
-x,y,1/2-z
-x,-y,-z
x,y,1/2-z
-x,y,z
x,-y,1/2+z
1/2+x,1/2+y,z
1/2-x,1/2-y,1/2+z
1/2+x,1/2-y,-z
1/2-x,1/2+y,1/2-z
1/2-x,1/2-y,-z
1/2+x,1/2+y,1/2-z
1/2-x,1/2+y,z
1/2+x,1/2-y,1/2+z
loop_
_atom_site_type_symbol
_atom_site_label
_atom_site_fract_x
_atom_site_fract_y
_atom_site_fract_z
Si Si1 0.101175 0.274844 0.750000
Si Si2 0.335671 0.307178 0.018375
Si Si3 0.737462 0.500000 0.500000
Si Si4 0.671368 0.029320 0.250000
Si Si5 0.500000 0.918948 0.250000
Si Si6 0.500000 0.253320 0.876756
O O1 0.128502 0.218703 0.641460
O O2 0.151267 0.366985 0.750000
O O3 0.000000 0.292158 0.750000
O O4 0.314408 0.409405 0.006610
O O5 0.250000 0.250000 0.000000
O O6 0.412497 0.280313 0.935220
O O7 0.785502 0.493605 0.625467
O O8 0.583202 0.976977 0.250000
O O9 0.500000 0.851975 0.357570
O O10 0.500000 0.292801 0.750000
#
# Coordination Sequence:
#
# PCOD9475314 Si02
#       6
#     8  16   8   8   4   8
#     4  12  25  46  70 106 142 185 234 306 359 417
#     4  12  25  47  71  99 146 185 240 289 352 429
#     4  12  28  44  72 104 138 196 240 283 356 429
#     4  12  25  42  71 106 139 183 240 299 365 420
#     4  10  24  40  68 106 144 166 238 312 364 418
#     4  10  26  43  70 102 140 185 230 295 363 411
#
# _framework density 18.649701
#
# number of rings (size 3 to 8) (size 9 to 14) (size 15 to 20)
#    0.462    0.000    5.385    2.769    4.308    1.231 
#    0.000    0.000    0.000    0.000    0.000    0.000 
#    0.000    0.000    0.000    0.000    0.000    0.000 
#
# Total GULP energy -145028.993425 kJ/mol
# GULP energy per Si atom -5578.038209 kJ/mol
# Density = 1.860725 g / cm^3
# Si number density = 18.649701 Si / 1000 Ang^3
#
#
#
# Elastic Constant Matrix: (Units=GPa)
#
#
# Indices 1 2 3 4 5 6 
#
# 1 126.7566 55.3896 79.5976 0.0000 0.0000 0.0000
# 2 55.3896 156.6872 46.6381 0.0000 0.0000 0.0000
# 3 79.5976 46.6381 181.5090 0.0000 0.0000 0.0000
# 4 0.0000 0.0000 0.0000 39.9810 0.0000 0.0000
# 5 0.0000 0.0000 0.0000 0.0000 41.6916 0.0000
# 6 0.0000 0.0000 0.0000 0.0000 0.0000 96.2599
#
#
#
# Elastic Compliance Matrix: (Units=1/GPa)
#
#
# Indices 1 2 3 4 5 6 
#
# 1 0.011988 -0.002894 -0.004514 0.000000 0.000000 0.000000
# 2 -0.002894 0.007610 -0.000686 0.000000 0.000000 0.000000
# 3 -0.004514 -0.000686 0.007665 0.000000 0.000000 0.000000
# 4 0.000000 0.000000 0.000000 0.025012 0.000000 0.000000
# 5 0.000000 0.000000 0.000000 0.000000 0.023986 0.000000
# 6 0.000000 0.000000 0.000000 0.000000 0.000000 0.010389
#
#
# Mechanical properties :
#
#
# Convention : Reuss Voigt Hill
#
# Bulk Modulus (GPa) = 90.29418 92.02259 91.15839
# Shear Modulus (GPa) = 46.93593 54.47498 50.70546
#
# Velocity S-wave (km/s) = 5.02213 5.41045 5.21990
# Velocity P-wave (km/s) = 9.06366 9.40640 9.23662
#
# Compressibility (1/GPa) = 0.01107491
#
# Stress axis : x y z
#
# Youngs Moduli (GPa) = 83.41517 131.41457 130.46411
#
# Poissons Ratio (x) = 0.38037 0.58885
# Poissons Ratio (y) = 0.24144 0.08949
# Poissons Ratio (z) = 0.37650 0.09014
#
# Static dielectric constant tensor:
#      x y z
#    x 1.567640 0.000000 0.000000 
#    y 0.000000 1.609010 0.000000 
#    z 0.000000 0.000000 1.660400 
# 
# From -- ./inp_files/18657.got.cif
#   From: 2010.05.17/outbox.cif.g08.bks.cpg/sg63_10_cif.got.tgz:18657.got - 2010.06.03 15:47:04.
