data_PCOD9475395
_publ_section_title
;
Structure prediction by ZEFSAII (Michael W. Deem and Ramdas Pophale) SiO2 
 PCOD9475395
Probable space group: C M C M
;
_chemical_formula_sum "Si O2"
_cell_formula_units_Z 96
_cell_length_a 13.927046
_cell_length_b 29.743625
_cell_length_c 13.296783
_cell_angle_alpha 90.000000
_cell_angle_beta 90.000000
_cell_angle_gamma 90.000000
_cell_volume 5508.070474
_symmetry_space_group_name_H-M "C M C M"
_symmetry_group_IT_number 63
_symmetry_cell_setting 'orthorhombic'
loop_
_space_group_symop_operation_xyz
x,y,z
-x,-y,1/2+z
x,-y,-z
-x,y,1/2-z
-x,-y,-z
x,y,1/2-z
-x,y,z
x,-y,1/2+z
1/2+x,1/2+y,z
1/2-x,1/2-y,1/2+z
1/2+x,1/2-y,-z
1/2-x,1/2+y,1/2-z
1/2-x,1/2-y,-z
1/2+x,1/2+y,1/2-z
1/2-x,1/2+y,z
1/2+x,1/2-y,1/2+z
loop_
_atom_site_type_symbol
_atom_site_label
_atom_site_fract_x
_atom_site_fract_y
_atom_site_fract_z
Si Si1 0.114807 0.747932 0.856924
Si Si2 0.202374 0.840167 0.925323
Si Si3 0.884377 0.067039 0.426062
Si Si4 0.885082 0.811196 0.364817
Si Si5 0.612946 0.790987 0.570532
Si Si6 0.116110 0.032700 0.642087
O O1 0.151357 0.730487 0.750000
O O2 0.147827 0.798748 0.873178
O O3 0.000000 0.747707 0.855639
O O4 0.140814 0.720016 0.954943
O O5 0.166527 0.888263 0.889053
O O6 0.313411 0.829853 0.901383
O O7 0.171860 0.834460 0.043682
O O8 0.854072 0.058614 0.542207
O O9 0.000000 0.072985 0.421929
O O10 0.861753 0.020215 0.370997
O O11 0.863904 0.825265 0.250000
O O12 0.870543 0.756966 0.374456
O O13 0.000000 0.818738 0.382397
O O14 0.500000 0.801532 0.579352
O O15 0.151360 0.049396 0.750000
O O16 0.000000 0.035501 0.641917
#
# Coordination Sequence:
#
# PCOD9475395 Si02
#       6
#    16  16  16  16  16  16
#     4   9  17  29  44  62  86 115 144 175 214 257
#     4  11  19  27  43  65  88 111 142 182 216 245
#     4   9  17  28  42  64  89 107 130 163 200 250
#     4   9  17  29  44  62  86 115 144 175 214 257
#     4   9  19  32  42  56  82 117 154 186 211 240
#     4   8  15  29  46  61  83 113 132 149 193 257
#
# _framework density 17.428971000000001
#
# number of rings (size 3 to 8) (size 9 to 14) (size 15 to 20)
#    0.000    2.833    0.000    5.500    0.000    4.000 
#    0.000    3.333    0.000    0.000    0.000    2.333 
#    0.000    1.333    0.000    0.000    0.000    0.000 
#
# Total GULP energy -267545.668044 kJ/mol
# GULP energy per Si atom -5573.868084 kJ/mol
# Density = 1.738930 g / cm^3
# Si number density = 17.428971 Si / 1000 Ang^3
#
#
#
# Elastic Constant Matrix: (Units=GPa)
#
#
# Indices 1 2 3 4 5 6 
#
# 1 37.6142 20.7976 -8.5089 0.0000 0.0000 0.0000
# 2 20.7976 49.4111 -24.8468 0.0000 0.0000 0.0000
# 3 -8.5089 -24.8468 52.1416 0.0000 0.0000 0.0000
# 4 0.0000 0.0000 0.0000 -3.6815 0.0000 0.0000
# 5 0.0000 0.0000 0.0000 0.0000 6.6602 0.0000
# 6 0.0000 0.0000 0.0000 0.0000 0.0000 20.7937
#
#
#
# Elastic Compliance Matrix: (Units=1/GPa)
#
#
# Indices 1 2 3 4 5 6 
#
# 1 0.034765 -0.015492 -0.001709 0.000000 0.000000 0.000000
# 2 -0.015492 0.033520 0.013445 0.000000 0.000000 0.000000
# 3 -0.001709 0.013445 0.025307 0.000000 0.000000 0.000000
# 4 0.000000 0.000000 0.000000 -0.271631 0.000000 0.000000
# 5 0.000000 0.000000 0.000000 0.000000 0.150145 0.000000
# 6 0.000000 0.000000 0.000000 0.000000 0.000000 0.048091
#
#
# Mechanical properties :
#
#
# Convention : Reuss Voigt Hill
#
# Bulk Modulus (GPa) = 11.61731 12.67230 12.14480
# Shear Modulus (GPa) = 88.64586 14.86949 51.75767
#
# Velocity S-wave (km/s) = 7.13944 2.92404 5.45535
# Velocity P-wave (km/s) = 8.63957 4.32280 6.83113
#
# Compressibility (1/GPa) = 0.08607845
#
# Stress axis : x y z
#
# Youngs Moduli (GPa) = 28.76446 29.83271 39.51548
#
# Poissons Ratio (x) = 0.46218 0.06754
# Poissons Ratio (y) = 0.44563 -0.53129
# Poissons Ratio (z) = 0.04917 -0.40110
#
# Static dielectric constant tensor:
#      x y z
#    x 1.589310 0.000000 0.000000 
#    y 0.000000 1.583310 0.000000 
#    z 0.000000 0.000000 1.649330 
# 
# From -- ./inp_files/32662.got.cif
#   From: 2010.05.17/outbox.cif.g08.bks.cpg/sg63_17_cif.got.tgz:32662.got - 2010.06.03 15:47:04.
