data_PCOD9475582
_publ_section_title
;
Structure prediction by ZEFSAII (Michael W. Deem and Ramdas Pophale) SiO2 
 PCOD9475582
Probable space group: C M C M
;
_chemical_formula_sum "Si O2"
_cell_formula_units_Z 80
_cell_length_a 11.723158
_cell_length_b 31.027908
_cell_length_c 11.630811
_cell_angle_alpha 90.000000
_cell_angle_beta 90.000000
_cell_angle_gamma 90.000000
_cell_volume 4230.650137
_symmetry_space_group_name_H-M "C M C M"
_symmetry_group_IT_number 63
_symmetry_cell_setting 'orthorhombic'
loop_
_space_group_symop_operation_xyz
x,y,z
-x,-y,1/2+z
x,-y,-z
-x,y,1/2-z
-x,-y,-z
x,y,1/2-z
-x,y,z
x,-y,1/2+z
1/2+x,1/2+y,z
1/2-x,1/2-y,1/2+z
1/2+x,1/2-y,-z
1/2-x,1/2+y,1/2-z
1/2-x,1/2-y,-z
1/2+x,1/2+y,1/2-z
1/2-x,1/2+y,z
1/2+x,1/2-y,1/2+z
loop_
_atom_site_type_symbol
_atom_site_label
_atom_site_fract_x
_atom_site_fract_y
_atom_site_fract_z
Si Si1 0.000000 0.664475 0.386984
Si Si2 0.631731 0.827080 0.250000
Si Si3 0.224652 0.300376 0.494743
Si Si4 0.733910 0.953404 0.494741
Si Si5 0.636369 0.374018 0.885400
Si Si6 0.368541 0.930259 0.250000
Si Si7 0.500000 0.064158 0.386988
O O1 0.888927 0.687585 0.435006
O O2 0.000000 0.664486 0.250000
O O3 0.000000 0.614449 0.426465
O O4 0.500000 0.810880 0.250000
O O5 0.697355 0.812517 0.363579
O O6 0.625745 0.878618 0.250000
O O7 0.250000 0.250000 0.500000
O O8 0.320969 0.330827 0.550754
O O9 0.804837 0.914591 0.551424
O O10 0.697690 0.943775 0.364367
O O11 0.615192 0.956244 0.565178
O O12 0.792697 0.000000 0.500000
O O13 0.670863 0.373150 0.750000
O O14 0.500000 0.377401 0.890749
O O15 0.500000 0.946714 0.250000
O O16 0.500000 0.063034 0.250000
#
# Coordination Sequence:
#
# PCOD9475582 Si02
#       7
#     8   8  16  16  16   8   8
#     4  11  22  42  68  96 132 171 218 272 325 384
#     4  11  22  44  68  95 136 176 211 267 336 395
#     4  12  26  43  67 102 132 170 220 271 331 389
#     4  12  25  40  66 100 134 171 218 269 327 391
#     4  11  26  49  70  91 129 179 227 271 319 386
#     4  11  22  40  62  97 138 172 205 263 338 395
#     4  11  21  38  66 100 134 169 215 270 327 389
#
# _framework density 18.909623
#
# number of rings (size 3 to 8) (size 9 to 14) (size 15 to 20)
#    0.000    0.600    6.000    1.500    7.000    0.400 
#    0.000    2.000    0.000    0.000    0.000    0.000 
#    0.000    0.000    0.000    0.000    0.000    0.000 
#
# Total GULP energy -223744.612974 kJ/mol
# GULP energy per Si atom -5593.615324 kJ/mol
# Density = 1.886658 g / cm^3
# Si number density = 18.909623 Si / 1000 Ang^3
#
#
#
# Elastic Constant Matrix: (Units=GPa)
#
#
# Indices 1 2 3 4 5 6 
#
# 1 75.3283 36.7649 47.4171 0.0000 0.0000 0.0000
# 2 36.7649 156.5329 56.7131 0.0000 0.0000 0.0000
# 3 47.4171 56.7131 160.4487 0.0000 0.0000 0.0000
# 4 0.0000 0.0000 0.0000 36.5807 0.0000 0.0000
# 5 0.0000 0.0000 0.0000 0.0000 18.9412 0.0000
# 6 0.0000 0.0000 0.0000 0.0000 0.0000 -167.7437
#
#
#
# Elastic Compliance Matrix: (Units=1/GPa)
#
#
# Indices 1 2 3 4 5 6 
#
# 1 0.017128 -0.002510 -0.004175 0.000000 0.000000 0.000000
# 2 -0.002510 0.007695 -0.001978 0.000000 0.000000 0.000000
# 3 -0.004175 -0.001978 0.008165 0.000000 0.000000 0.000000
# 4 0.000000 0.000000 0.000000 0.027337 0.000000 0.000000
# 5 0.000000 0.000000 0.000000 0.000000 0.052795 0.000000
# 6 0.000000 0.000000 0.000000 0.000000 0.000000 -0.005961
#
#
# Mechanical properties :
#
#
# Convention : Reuss Voigt Hill
#
# Bulk Modulus (GPa) = 63.84675 74.90000 69.37338
# Shear Modulus (GPa) = 38.54897 -5.68338 16.43280
#
# Velocity S-wave (km/s) = 4.51997 -1.73553 2.95111
# Velocity P-wave (km/s) = 7.81522 5.97322 6.95547
#
# Compressibility (1/GPa) = 0.01566250
#
# Stress axis : x y z
#
# Youngs Moduli (GPa) = 58.38319 129.96011 122.46911
#
# Poissons Ratio (x) = 0.32626 0.51125
# Poissons Ratio (y) = 0.14657 0.24223
# Poissons Ratio (z) = 0.24372 0.25705
#
# Static dielectric constant tensor:
#      x y z
#    x 1.636000 0.000000 0.000000 
#    y 0.000000 1.675340 0.000000 
#    z 0.000000 0.000000 1.654530 
# 
# From -- ./inp_files/17924.got.cif
#   From: 2010.05.17/outbox.cif.g08.bks.cpg/sg63_9_cif.got.tgz:17924.got - 2010.06.03 15:47:04.
