data_PCOD9475783
_publ_section_title
;
Structure prediction by ZEFSAII (Michael W. Deem and Ramdas Pophale) SiO2 
 PCOD9475783
Probable space group: C M C M
;
_chemical_formula_sum "Si O2"
_cell_formula_units_Z 64
_cell_length_a 15.089468
_cell_length_b 11.839896
_cell_length_c 15.538782
_cell_angle_alpha 90.000000
_cell_angle_beta 90.000000
_cell_angle_gamma 90.000000
_cell_volume 2776.123547
_symmetry_space_group_name_H-M "C M C M"
_symmetry_group_IT_number 63
_symmetry_cell_setting 'orthorhombic'
loop_
_space_group_symop_operation_xyz
x,y,z
-x,-y,1/2+z
x,-y,-z
-x,y,1/2-z
-x,-y,-z
x,y,1/2-z
-x,y,z
x,-y,1/2+z
1/2+x,1/2+y,z
1/2-x,1/2-y,1/2+z
1/2+x,1/2-y,-z
1/2-x,1/2+y,1/2-z
1/2-x,1/2-y,-z
1/2+x,1/2+y,1/2-z
1/2-x,1/2+y,z
1/2+x,1/2-y,1/2+z
loop_
_atom_site_type_symbol
_atom_site_label
_atom_site_fract_x
_atom_site_fract_y
_atom_site_fract_z
Si Si1 0.896691 0.697572 0.155606
Si Si2 0.397130 0.269524 0.653144
Si Si3 0.154165 0.465900 0.090103
Si Si4 0.342330 0.619558 0.982982
O O1 0.875577 0.746033 0.250000
O O2 0.842489 0.582851 0.140789
O O3 0.883264 0.789729 0.081610
O O4 0.000000 0.664394 0.154586
O O5 0.369079 0.299671 0.750000
O O6 0.500000 0.303936 0.641575
O O7 0.391850 0.134537 0.640921
O O8 0.339620 0.322449 0.576465
O O9 0.249105 0.416072 0.060151
O O10 0.107965 0.500000 0.000000
O O11 0.390119 0.500000 0.000000
#
# Coordination Sequence:
#
# PCOD9475783 Si02
#       4
#    16  16  16  16
#     4  11  25  45  72 106 141 184 239 297 354 413
#     4  11  24  43  70 103 139 185 238 294 355 417
#     4  11  23  42  70 100 137 177 236 294 352 415
#     4  11  26  45  69 100 144 187 233 284 349 425
#
# _framework density 23.053728
#
# number of rings (size 3 to 8) (size 9 to 14) (size 15 to 20)
#    0.000    1.000    2.500    3.000    3.500    8.000 
#    0.000    6.250    0.000    0.000    0.000    0.000 
#    0.000    0.000    0.000    0.000    0.000    0.000 
#
# Total GULP energy -178887.774957 kJ/mol
# GULP energy per Si atom -5590.242967 kJ/mol
# Density = 2.300126 g / cm^3
# Si number density = 23.053728 Si / 1000 Ang^3
#
#
#
# Elastic Constant Matrix: (Units=GPa)
#
#
# Indices 1 2 3 4 5 6 
#
# 1 99.2029 25.1713 37.8655 0.0000 0.0000 0.0000
# 2 25.1713 148.2485 63.3308 0.0000 0.0000 0.0000
# 3 37.8655 63.3308 182.6534 0.0000 0.0000 0.0000
# 4 0.0000 0.0000 0.0000 -0.6721 0.0000 0.0000
# 5 0.0000 0.0000 0.0000 0.0000 18.9580 0.0000
# 6 0.0000 0.0000 0.0000 0.0000 0.0000 -18.8591
#
#
#
# Elastic Compliance Matrix: (Units=1/GPa)
#
#
# Indices 1 2 3 4 5 6 
#
# 1 0.011086 -0.001057 -0.001932 0.000000 0.000000 0.000000
# 2 -0.001057 0.008019 -0.002561 0.000000 0.000000 0.000000
# 3 -0.001932 -0.002561 0.006763 0.000000 0.000000 0.000000
# 4 0.000000 0.000000 0.000000 -1.487943 0.000000 0.000000
# 5 0.000000 0.000000 0.000000 0.000000 0.052748 0.000000
# 6 0.000000 0.000000 0.000000 0.000000 0.000000 -0.053025
#
#
# Mechanical properties :
#
#
# Convention : Reuss Voigt Hill
#
# Bulk Modulus (GPa) = 67.71286 75.87110 71.79198
# Shear Modulus (GPa) = -3.45703 20.13452 8.33874
#
# Velocity S-wave (km/s) = -1.22589 2.95850 1.90393
# Velocity P-wave (km/s) = 5.23754 6.68223 6.00350
#
# Compressibility (1/GPa) = 0.01476824
#
# Stress axis : x y z
#
# Youngs Moduli (GPa) = 90.20477 124.70263 147.85538
#
# Poissons Ratio (x) = 0.13182 0.28561
# Poissons Ratio (y) = 0.09535 0.37870
# Poissons Ratio (z) = 0.17425 0.31940
#
# Static dielectric constant tensor:
#      x y z
#    x 1.911920 0.000000 0.000000 
#    y 0.000000 1.870600 0.000000 
#    z 0.000000 0.000000 1.865440 
# 
# From -- ./inp_files/33352.got.cif
#   From: 2010.05.17/outbox.cif.g08.bks.cpg/sg63_17_cif.got.tgz:33352.got - 2010.06.03 15:47:04.
