data_PCOD9475613
_publ_section_title
;
Structure prediction by ZEFSAII (Michael W. Deem and Ramdas Pophale) SiO2 
 PCOD9475613
Probable space group: C M C M
;
_chemical_formula_sum "Si O2"
_cell_formula_units_Z 80
_cell_length_a 7.846070
_cell_length_b 19.006797
_cell_length_c 26.468406
_cell_angle_alpha 90.000000
_cell_angle_beta 90.000000
_cell_angle_gamma 90.000000
_cell_volume 3947.197912
_symmetry_space_group_name_H-M "C M C M"
_symmetry_group_IT_number 63
_symmetry_cell_setting 'orthorhombic'
loop_
_space_group_symop_operation_xyz
x,y,z
-x,-y,1/2+z
x,-y,-z
-x,y,1/2-z
-x,-y,-z
x,y,1/2-z
-x,y,z
x,-y,1/2+z
1/2+x,1/2+y,z
1/2-x,1/2-y,1/2+z
1/2+x,1/2-y,-z
1/2-x,1/2+y,1/2-z
1/2-x,1/2-y,-z
1/2+x,1/2+y,1/2-z
1/2-x,1/2+y,z
1/2+x,1/2-y,1/2+z
loop_
_atom_site_type_symbol
_atom_site_label
_atom_site_fract_x
_atom_site_fract_y
_atom_site_fract_z
Si Si1 0.292030 0.918389 0.056394
Si Si2 0.794207 0.419978 0.942425
Si Si3 0.700697 0.331247 0.654600
Si Si4 0.800198 0.574983 0.250000
Si Si5 0.709132 0.828142 0.348385
Si Si6 0.208955 0.416119 0.250000
O O1 0.500000 0.918020 0.056436
O O2 0.234861 0.865661 0.099884
O O3 0.240259 0.999113 0.067236
O O4 0.237834 0.900491 0.999239
O O5 0.735535 0.368492 0.898659
O O6 0.000000 0.419825 0.942192
O O7 0.500000 0.324213 0.661103
O O8 0.759713 0.380480 0.700218
O O9 0.771346 0.251962 0.655976
O O10 0.725272 0.496218 0.250000
O O11 0.000000 0.563723 0.250000
O O12 0.500000 0.827559 0.349097
O O13 0.760944 0.874303 0.300197
O O14 0.000000 0.416330 0.250000
#
# Coordination Sequence:
#
# PCOD9475613 Si02
#       6
#    16  16  16   8  16   8
#     4   8  15  30  53  77 100 134 182 223 248 283
#     4   9  17  32  55  78 100 132 177 223 255 286
#     4  11  22  34  51  77 109 138 161 199 260 319
#     4  11  22  37  59  79  96 127 174 220 252 291
#     4   9  17  30  49  75 105 135 168 205 249 306
#     4   9  17  31  55  79  94 121 172 220 250 289
#
# _framework density 20.267543
#
# number of rings (size 3 to 8) (size 9 to 14) (size 15 to 20)
#    0.000    2.600    0.000    3.900    0.000    5.600 
#    0.000    2.000    0.000   18.000    0.000    0.000 
#    0.000    0.000    0.000    0.000    0.000    0.000 
#
# Total GULP energy -223289.388006 kJ/mol
# GULP energy per Si atom -5582.234700 kJ/mol
# Density = 2.022141 g / cm^3
# Si number density = 20.267543 Si / 1000 Ang^3
#
#
#
# Elastic Constant Matrix: (Units=GPa)
#
#
# Indices 1 2 3 4 5 6 
#
# 1 19.7375 6.3100 0.7077 0.0000 0.0000 0.0000
# 2 6.3100 196.4200 131.2567 0.0000 0.0000 0.0000
# 3 0.7077 131.2567 166.4161 0.0000 0.0000 0.0000
# 4 0.0000 0.0000 0.0000 -26.4287 0.0000 0.0000
# 5 0.0000 0.0000 0.0000 0.0000 -51.3430 0.0000
# 6 0.0000 0.0000 0.0000 0.0000 0.0000 15.6830
#
#
#
# Elastic Compliance Matrix: (Units=1/GPa)
#
#
# Indices 1 2 3 4 5 6 
#
# 1 0.051604 -0.003195 0.002301 0.000000 0.000000 0.000000
# 2 -0.003195 0.010963 -0.008633 0.000000 0.000000 0.000000
# 3 0.002301 -0.008633 0.012808 0.000000 0.000000 0.000000
# 4 0.000000 0.000000 0.000000 -0.037838 0.000000 0.000000
# 5 0.000000 0.000000 0.000000 0.000000 -0.019477 0.000000
# 6 0.000000 0.000000 0.000000 0.000000 0.000000 0.063763
#
#
# Mechanical properties :
#
#
# Convention : Reuss Voigt Hill
#
# Bulk Modulus (GPa) = 17.75568 73.23582 45.49575
# Shear Modulus (GPa) = 41.78781 3.86888 22.82834
#
# Velocity S-wave (km/s) = 4.54564 1.38313 3.35975
# Velocity P-wave (km/s) = 6.02745 6.22605 6.12755
#
# Compressibility (1/GPa) = 0.05632002
#
# Stress axis : x y z
#
# Youngs Moduli (GPa) = 19.37834 91.21805 78.07418
#
# Poissons Ratio (x) = 0.29146 -0.17962
# Poissons Ratio (y) = 0.06192 0.67402
# Poissons Ratio (z) = -0.04458 0.78749
#
# Static dielectric constant tensor:
#      x y z
#    x 1.750540 0.000000 0.000000 
#    y 0.000000 1.721200 0.000000 
#    z 0.000000 0.000000 1.670920 
# 
# From -- ./inp_files/66700.got.cif
#   From: 2010.05.17/outbox.cif.g08.bks.cpg/sg63_34_cif.got.tgz:66700.got - 2010.06.03 15:47:04.
