data_PCOD9475273
_publ_section_title
;
Structure prediction by ZEFSAII (Michael W. Deem and Ramdas Pophale) SiO2 
 PCOD9475273
Probable space group: C M C M
;
_chemical_formula_sum "Si O2"
_cell_formula_units_Z 72
_cell_length_a 13.087588
_cell_length_b 28.309826
_cell_length_c 9.785839
_cell_angle_alpha 90.000000
_cell_angle_beta 90.000000
_cell_angle_gamma 90.000000
_cell_volume 3625.725168
_symmetry_space_group_name_H-M "C M C M"
_symmetry_group_IT_number 63
_symmetry_cell_setting 'orthorhombic'
loop_
_space_group_symop_operation_xyz
x,y,z
-x,-y,1/2+z
x,-y,-z
-x,y,1/2-z
-x,-y,-z
x,y,1/2-z
-x,y,z
x,-y,1/2+z
1/2+x,1/2+y,z
1/2-x,1/2-y,1/2+z
1/2+x,1/2-y,-z
1/2-x,1/2+y,1/2-z
1/2-x,1/2-y,-z
1/2+x,1/2+y,1/2-z
1/2-x,1/2+y,z
1/2+x,1/2-y,1/2+z
loop_
_atom_site_type_symbol
_atom_site_label
_atom_site_fract_x
_atom_site_fract_y
_atom_site_fract_z
Si Si1 0.265644 0.158135 0.750000
Si Si2 0.672626 0.500000 0.000000
Si Si3 0.886119 0.066939 0.750000
Si Si4 0.330626 0.924810 0.603193
Si Si5 0.000000 0.546902 0.589561
Si Si6 0.879079 0.752934 0.250000
Si Si7 0.376099 0.172879 0.034444
O O1 0.205109 0.106888 0.750000
O O2 0.179046 0.198111 0.750000
O O3 0.336825 0.169072 0.880498
O O4 0.620976 0.532622 0.883466
O O5 0.741264 0.461874 0.918719
O O6 0.000000 0.089088 0.750000
O O7 0.380374 0.937079 0.750000
O O8 0.400201 0.928569 0.468832
O O9 0.312452 0.869257 0.606067
O O10 0.000000 0.500000 0.500000
O O11 0.000000 0.542202 0.750000
O O12 0.855188 0.720971 0.383578
O O13 0.000000 0.761035 0.250000
O O14 0.500000 0.164915 0.046862
#
# Coordination Sequence:
#
# PCOD9475273 Si02
#       7
#     8   8   8  16   8   8  16
#     4  12  24  42  68  98 128 166 218 274 324 388
#     4  12  25  43  64  92 126 162 223 268 319 390
#     4  12  27  46  68  91 123 172 220 279 327 383
#     4  12  23  38  61  91 131 172 210 258 323 396
#     4  12  26  34  54  90 138 178 212 254 308 386
#     4  10  23  44  66  95 131 172 214 265 323 393
#     4  11  23  39  66  97 131 167 210 259 327 394
#
# _framework density 19.858097999999998
#
# number of rings (size 3 to 8) (size 9 to 14) (size 15 to 20)
#    0.000    0.444    6.667    2.667    3.111    0.000 
#    0.000    0.000    0.000    0.000    0.000    0.000 
#    0.000    0.000    0.000    0.000    0.000    0.000 
#
# Total GULP energy -200599.216499 kJ/mol
# GULP energy per Si atom -5572.200458 kJ/mol
# Density = 1.981290 g / cm^3
# Si number density = 19.858098 Si / 1000 Ang^3
#
#
#
# Elastic Constant Matrix: (Units=GPa)
#
#
# Indices 1 2 3 4 5 6 
#
# 1 53.9827 26.0713 22.1697 0.0000 0.0000 0.0000
# 2 26.0713 107.5743 28.6435 0.0000 0.0000 0.0000
# 3 22.1697 28.6435 180.4847 0.0000 0.0000 0.0000
# 4 0.0000 0.0000 0.0000 15.2779 0.0000 0.0000
# 5 0.0000 0.0000 0.0000 0.0000 29.4962 0.0000
# 6 0.0000 0.0000 0.0000 0.0000 0.0000 32.7943
#
#
#
# Elastic Compliance Matrix: (Units=1/GPa)
#
#
# Indices 1 2 3 4 5 6 
#
# 1 0.021588 -0.004726 -0.001902 0.000000 0.000000 0.000000
# 2 -0.004726 0.010740 -0.001124 0.000000 0.000000 0.000000
# 3 -0.001902 -0.001124 0.005953 0.000000 0.000000 0.000000
# 4 0.000000 0.000000 0.000000 0.065454 0.000000 0.000000
# 5 0.000000 0.000000 0.000000 0.000000 0.033903 0.000000
# 6 0.000000 0.000000 0.000000 0.000000 0.000000 0.030493
#
#
# Mechanical properties :
#
#
# Convention : Reuss Voigt Hill
#
# Bulk Modulus (GPa) = 43.90193 55.09007 49.49600
# Shear Modulus (GPa) = 26.14707 33.19082 29.66895
#
# Velocity S-wave (km/s) = 3.63257 4.09271 3.86948
# Velocity P-wave (km/s) = 6.30475 7.08066 6.70394
#
# Compressibility (1/GPa) = 0.02277804
#
# Stress axis : x y z
#
# Youngs Moduli (GPa) = 46.32269 93.10576 167.99287
#
# Poissons Ratio (x) = 0.43997 0.31948
# Poissons Ratio (y) = 0.21890 0.18884
# Poissons Ratio (z) = 0.08809 0.10466
#
# Static dielectric constant tensor:
#      x y z
#    x 1.708270 0.000000 0.000000 
#    y 0.000000 1.780190 0.000000 
#    z 0.000000 0.000000 1.776020 
# 
# From -- ./inp_files/4781.got.cif
#   From: 2010.05.17/outbox.cif.g08.bks.cpg/sg63_3_cif.got.tgz:4781.got - 2010.06.03 15:47:04.
