data_PCOD9475325
_publ_section_title
;
Structure prediction by ZEFSAII (Michael W. Deem and Ramdas Pophale) SiO2 
 PCOD9475325
Probable space group: C M C M
;
_chemical_formula_sum "Si O2"
_cell_formula_units_Z 64
_cell_length_a 19.316625
_cell_length_b 10.808716
_cell_length_c 13.540833
_cell_angle_alpha 90.000000
_cell_angle_beta 90.000000
_cell_angle_gamma 90.000000
_cell_volume 2827.162272
_symmetry_space_group_name_H-M "C M C M"
_symmetry_group_IT_number 63
_symmetry_cell_setting 'orthorhombic'
loop_
_space_group_symop_operation_xyz
x,y,z
-x,-y,1/2+z
x,-y,-z
-x,y,1/2-z
-x,-y,-z
x,y,1/2-z
-x,y,z
x,-y,1/2+z
1/2+x,1/2+y,z
1/2-x,1/2-y,1/2+z
1/2+x,1/2-y,-z
1/2-x,1/2+y,1/2-z
1/2-x,1/2-y,-z
1/2+x,1/2+y,1/2-z
1/2-x,1/2+y,z
1/2+x,1/2-y,1/2+z
loop_
_atom_site_type_symbol
_atom_site_label
_atom_site_fract_x
_atom_site_fract_y
_atom_site_fract_z
Si Si1 0.500000 0.673724 0.632886
Si Si2 0.137533 0.825342 0.005218
Si Si3 0.358019 0.099094 0.859101
Si Si4 0.788853 0.979342 0.363843
Si Si5 0.000000 0.466266 0.885980
O O1 0.500000 0.630019 0.750000
O O2 0.433028 0.642417 0.564802
O O3 0.500000 0.822254 0.636695
O O4 0.194606 0.843830 0.090667
O O5 0.133931 0.696879 0.947572
O O6 0.164914 0.921964 0.922409
O O7 0.344113 0.157865 0.750000
O O8 0.293352 0.007875 0.877324
O O9 0.429172 0.026461 0.850667
O O10 0.806390 0.984055 0.250000
O O11 0.000000 0.500000 0.000000
#
# Coordination Sequence:
#
# PCOD9475325 Si02
#       5
#     8  16  16  16   8
#     4  12  26  44  68  98 131 172 224 281 333 390
#     4  11  23  42  68  93 131 177 222 270 333 388
#     4  11  23  42  67  99 134 173 218 267 327 395
#     4  10  24  42  65  99 136 174 223 272 323 391
#     4  12  24  43  69  96 132 165 214 270 333 391
#
# _framework density 22.637540999999999
#
# number of rings (size 3 to 8) (size 9 to 14) (size 15 to 20)
#    0.000    1.000    2.500    3.375    3.500    4.000 
#    0.000    5.625    0.000    3.000    0.000    0.000 
#    0.000    0.000    0.000    0.000    0.000    0.000 
#
# Total GULP energy -178589.233140 kJ/mol
# GULP energy per Si atom -5580.913536 kJ/mol
# Density = 2.258602 g / cm^3
# Si number density = 22.637541 Si / 1000 Ang^3
#
#
#
# Elastic Constant Matrix: (Units=GPa)
#
#
# Indices 1 2 3 4 5 6 
#
# 1 169.1442 52.2681 68.0476 0.0000 0.0000 0.0000
# 2 52.2681 76.7960 37.2144 0.0000 0.0000 0.0000
# 3 68.0476 37.2144 213.5542 0.0000 0.0000 0.0000
# 4 0.0000 0.0000 0.0000 31.2140 0.0000 0.0000
# 5 0.0000 0.0000 0.0000 0.0000 36.2787 0.0000
# 6 0.0000 0.0000 0.0000 0.0000 0.0000 17.1965
#
#
#
# Elastic Compliance Matrix: (Units=1/GPa)
#
#
# Indices 1 2 3 4 5 6 
#
# 1 0.008049 -0.004626 -0.001759 0.000000 0.000000 0.000000
# 2 -0.004626 0.016881 -0.001468 0.000000 0.000000 0.000000
# 3 -0.001759 -0.001468 0.005499 0.000000 0.000000 0.000000
# 4 0.000000 0.000000 0.000000 0.032037 0.000000 0.000000
# 5 0.000000 0.000000 0.000000 0.000000 0.027564 0.000000
# 6 0.000000 0.000000 0.000000 0.000000 0.000000 0.058151
#
#
# Mechanical properties :
#
#
# Convention : Reuss Voigt Hill
#
# Bulk Modulus (GPa) = 67.91468 86.06161 76.98815
# Shear Modulus (GPa) = 29.62173 37.06880 33.34526
#
# Velocity S-wave (km/s) = 3.62127 4.05098 3.84214
# Velocity P-wave (km/s) = 6.89571 7.74470 7.33250
#
# Compressibility (1/GPa) = 0.01472436
#
# Stress axis : x y z
#
# Youngs Moduli (GPa) = 124.23639 59.23707 181.85788
#
# Poissons Ratio (x) = 0.27404 0.31983
# Poissons Ratio (y) = 0.57473 0.26691
# Poissons Ratio (z) = 0.21849 0.08694
#
# Static dielectric constant tensor:
#      x y z
#    x 1.871930 0.000000 0.000000 
#    y 0.000000 1.874270 0.000000 
#    z 0.000000 0.000000 1.910580 
# 
# From -- ./inp_files/33391.got.cif
#   From: 2010.05.17/outbox.cif.g08.bks.cpg/sg63_17_cif.got.tgz:33391.got - 2010.06.03 15:47:04.
