data_PCOD9475860
_publ_section_title
;
Structure prediction by ZEFSAII (Michael W. Deem and Ramdas Pophale) SiO2 
 PCOD9475860
Probable space group: C M C M
;
_chemical_formula_sum "Si O2"
_cell_formula_units_Z 48
_cell_length_a 18.470736
_cell_length_b 7.293473
_cell_length_c 16.254663
_cell_angle_alpha 90.000000
_cell_angle_beta 90.000000
_cell_angle_gamma 90.000000
_cell_volume 2189.760162
_symmetry_space_group_name_H-M "C M C M"
_symmetry_group_IT_number 63
_symmetry_cell_setting 'orthorhombic'
loop_
_space_group_symop_operation_xyz
x,y,z
-x,-y,1/2+z
x,-y,-z
-x,y,1/2-z
-x,-y,-z
x,y,1/2-z
-x,y,z
x,-y,1/2+z
1/2+x,1/2+y,z
1/2-x,1/2-y,1/2+z
1/2+x,1/2-y,-z
1/2-x,1/2+y,1/2-z
1/2-x,1/2-y,-z
1/2+x,1/2+y,1/2-z
1/2-x,1/2+y,z
1/2+x,1/2-y,1/2+z
loop_
_atom_site_type_symbol
_atom_site_label
_atom_site_fract_x
_atom_site_fract_y
_atom_site_fract_z
Si Si1 0.078161 0.000324 0.901814
Si Si2 0.653033 0.146813 0.157509
Si Si3 0.207475 0.720580 0.911905
O O1 0.147441 0.871263 0.889326
O O2 0.000000 0.936999 0.868305
O O3 0.094249 0.206416 0.872201
O O4 0.073251 0.000000 0.000000
O O5 0.637977 0.084741 0.250000
O O6 0.727992 0.260031 0.152923
O O7 0.667735 0.973518 0.098737
O O8 0.250000 0.750000 0.000000
#
# Coordination Sequence:
#
# PCOD9475860 Si02
#       3
#    16  16  16
#     4  11  25  44  69 101 139 181 230 288 350 417
#     4  12  25  41  67 102 136 177 228 289 350 414
#     4  12  23  42  72 101 134 180 237 289 342 420
#
# _framework density 21.920207000000001
#
# number of rings (size 3 to 8) (size 9 to 14) (size 15 to 20)
#    0.000    0.333    6.667    2.000    0.000    3.333 
#    0.000    3.333    0.000    0.000    0.000    0.000 
#    0.000    0.000    0.000    0.000    0.000    0.000 
#
# Total GULP energy -133933.680077 kJ/mol
# GULP energy per Si atom -5580.570003 kJ/mol
# Density = 2.187032 g / cm^3
# Si number density = 21.920207 Si / 1000 Ang^3
#
#
#
# Elastic Constant Matrix: (Units=GPa)
#
#
# Indices 1 2 3 4 5 6 
#
# 1 121.2997 38.9046 10.1174 0.0000 0.0000 0.0000
# 2 38.9046 137.3937 36.0129 0.0000 0.0000 0.0000
# 3 10.1174 36.0129 113.7583 0.0000 0.0000 0.0000
# 4 0.0000 0.0000 0.0000 26.6554 0.0000 0.0000
# 5 0.0000 0.0000 0.0000 0.0000 -180.3565 0.0000
# 6 0.0000 0.0000 0.0000 0.0000 0.0000 132.9377
#
#
#
# Elastic Compliance Matrix: (Units=1/GPa)
#
#
# Indices 1 2 3 4 5 6 
#
# 1 0.009068 -0.002569 0.000007 0.000000 0.000000 0.000000
# 2 -0.002569 0.008665 -0.002515 0.000000 0.000000 0.000000
# 3 0.000007 -0.002515 0.009586 0.000000 0.000000 0.000000
# 4 0.000000 0.000000 0.000000 0.037516 0.000000 0.000000
# 5 0.000000 0.000000 0.000000 0.000000 -0.005545 0.000000
# 6 0.000000 0.000000 0.000000 0.000000 0.000000 0.007522
#
#
# Mechanical properties :
#
#
# Convention : Reuss Voigt Hill
#
# Bulk Modulus (GPa) = 58.25985 60.28018 59.27001
# Shear Modulus (GPa) = 60.46838 15.00841 37.73839
#
# Velocity S-wave (km/s) = 5.25790 2.61948 4.15375
# Velocity P-wave (km/s) = 7.96848 6.05875 7.07831
#
# Compressibility (1/GPa) = 0.01716448
#
# Stress axis : x y z
#
# Youngs Moduli (GPa) = 110.28331 115.40644 104.31872
#
# Poissons Ratio (x) = 0.29653 -0.00073
# Poissons Ratio (y) = 0.28336 0.26232
# Poissons Ratio (z) = -0.00077 0.29020
#
# Static dielectric constant tensor:
#      x y z
#    x 1.852790 0.000000 0.000000 
#    y 0.000000 1.781200 0.000000 
#    z 0.000000 0.000000 2.171650 
# 
# From -- ./inp_files/33060.got.cif
#   From: 2010.05.17/outbox.cif.g08.bks.cpg/sg63_17_cif.got.tgz:33060.got - 2010.06.03 15:47:04.
