data_PCOD9475741
_publ_section_title
;
Structure prediction by ZEFSAII (Michael W. Deem and Ramdas Pophale) SiO2 
 PCOD9475741
Probable space group: C M C M
;
_chemical_formula_sum "Si O2"
_cell_formula_units_Z 68
_cell_length_a 22.144420
_cell_length_b 8.998713
_cell_length_c 16.212673
_cell_angle_alpha 90.000000
_cell_angle_beta 90.000000
_cell_angle_gamma 90.000000
_cell_volume 3230.720103
_symmetry_space_group_name_H-M "C M C M"
_symmetry_group_IT_number 63
_symmetry_cell_setting 'orthorhombic'
loop_
_space_group_symop_operation_xyz
x,y,z
-x,-y,1/2+z
x,-y,-z
-x,y,1/2-z
-x,-y,-z
x,y,1/2-z
-x,y,z
x,-y,1/2+z
1/2+x,1/2+y,z
1/2-x,1/2-y,1/2+z
1/2+x,1/2-y,-z
1/2-x,1/2+y,1/2-z
1/2-x,1/2-y,-z
1/2+x,1/2+y,1/2-z
1/2-x,1/2+y,z
1/2+x,1/2-y,1/2+z
loop_
_atom_site_type_symbol
_atom_site_label
_atom_site_fract_x
_atom_site_fract_y
_atom_site_fract_z
Si Si1 0.222175 0.776684 0.088976
Si Si2 0.885589 0.405478 0.842091
Si Si3 0.431086 0.227156 0.851110
Si Si4 0.820871 0.917360 0.655623
Si Si5 0.500000 0.796880 0.750000
O O1 0.162150 0.680239 0.103364
O O2 0.205700 0.946567 0.104969
O O3 0.273538 0.717487 0.150960
O O4 0.250000 0.750000 0.000000
O O5 0.857356 0.430570 0.750000
O O6 0.905930 0.565648 0.875487
O O7 0.946205 0.313647 0.820595
O O8 0.431976 0.224144 0.750000
O O9 0.500000 0.247752 0.878060
O O10 0.384722 0.354948 0.875950
O O11 0.828963 0.967516 0.750000
#
# Coordination Sequence:
#
# PCOD9475741 Si02
#       5
#    16  16  16  16   4
#     4  12  25  41  60  90 135 173 211 270 339 400
#     4   9  16  35  64  95 129 165 224 274 337 395
#     4   9  16  34  61  96 129 160 205 277 342 387
#     4  11  23  39  63  91 122 168 229 274 322 386
#     4   8  16  32  68  98 132 160 234 290 328 392
#
# _framework density 21.047939
#
# number of rings (size 3 to 8) (size 9 to 14) (size 15 to 20)
#    0.706    1.176    1.176    4.235    0.000    1.882 
#    2.118    0.000    2.588    2.824    0.000    0.000 
#    0.000    0.000    0.000    0.000    0.000    0.000 
#
# Total GULP energy -189300.465716 kJ/mol
# GULP energy per Si atom -5567.660756 kJ/mol
# Density = 2.100003 g / cm^3
# Si number density = 21.047939 Si / 1000 Ang^3
#
#
#
# Elastic Constant Matrix: (Units=GPa)
#
#
# Indices 1 2 3 4 5 6 
#
# 1 164.0968 73.9000 41.1408 0.0000 0.0000 0.0000
# 2 73.9000 83.0418 18.8029 0.0000 0.0000 0.0000
# 3 41.1408 18.8029 55.5150 0.0000 0.0000 0.0000
# 4 0.0000 0.0000 0.0000 19.5788 0.0000 0.0000
# 5 0.0000 0.0000 0.0000 0.0000 17.5955 0.0000
# 6 0.0000 0.0000 0.0000 0.0000 0.0000 26.8463
#
#
#
# Elastic Compliance Matrix: (Units=1/GPa)
#
#
# Indices 1 2 3 4 5 6 
#
# 1 0.011533 -0.009020 -0.005492 0.000000 0.000000 0.000000
# 2 -0.009020 0.020097 -0.000122 0.000000 0.000000 0.000000
# 3 -0.005492 -0.000122 0.022124 0.000000 0.000000 0.000000
# 4 0.000000 0.000000 0.000000 0.051076 0.000000 0.000000
# 5 0.000000 0.000000 0.000000 0.000000 0.056833 0.000000
# 6 0.000000 0.000000 0.000000 0.000000 0.000000 0.037249
#
#
# Mechanical properties :
#
#
# Convention : Reuss Voigt Hill
#
# Bulk Modulus (GPa) = 40.83947 63.37122 52.10534
# Shear Modulus (GPa) = 21.15589 24.05810 22.60700
#
# Velocity S-wave (km/s) = 3.17382 3.38452 3.28086
# Velocity P-wave (km/s) = 5.73376 6.74142 6.25790
#
# Compressibility (1/GPa) = 0.02448612
#
# Stress axis : x y z
#
# Youngs Moduli (GPa) = 86.70967 49.75975 45.19904
#
# Poissons Ratio (x) = 0.44882 0.24822
# Poissons Ratio (y) = 0.78209 0.00553
# Poissons Ratio (z) = 0.47618 0.00609
#
# Static dielectric constant tensor:
#      x y z
#    x 1.742900 0.000000 0.000000 
#    y 0.000000 1.771110 0.000000 
#    z 0.000000 0.000000 1.794330 
# 
# From -- ./inp_files/46617.got.cif
#   From: 2010.05.17/outbox.cif.g08.bks.cpg/sg63_24_cif.got.tgz:46617.got - 2010.06.03 15:47:04.
