data_PCOD9475309
_publ_section_title
;
Structure prediction by ZEFSAII (Michael W. Deem and Ramdas Pophale) SiO2 
 PCOD9475309
Probable space group: C M C M
;
_chemical_formula_sum "Si O2"
_cell_formula_units_Z 88
_cell_length_a 30.540441
_cell_length_b 4.977150
_cell_length_c 29.629744
_cell_angle_alpha 90.000000
_cell_angle_beta 90.000000
_cell_angle_gamma 90.000000
_cell_volume 4503.850153
_symmetry_space_group_name_H-M "C M C M"
_symmetry_group_IT_number 63
_symmetry_cell_setting 'orthorhombic'
loop_
_space_group_symop_operation_xyz
x,y,z
-x,-y,1/2+z
x,-y,-z
-x,y,1/2-z
-x,-y,-z
x,y,1/2-z
-x,y,z
x,-y,1/2+z
1/2+x,1/2+y,z
1/2-x,1/2-y,1/2+z
1/2+x,1/2-y,-z
1/2-x,1/2+y,1/2-z
1/2-x,1/2-y,-z
1/2+x,1/2+y,1/2-z
1/2-x,1/2+y,z
1/2+x,1/2-y,1/2+z
loop_
_atom_site_type_symbol
_atom_site_label
_atom_site_fract_x
_atom_site_fract_y
_atom_site_fract_z
Si Si1 0.670615 0.051285 0.750000
Si Si2 0.924781 0.253768 0.468625
Si Si3 0.415539 0.312231 0.151764
Si Si4 0.500000 0.490997 0.903140
Si Si5 0.279135 0.953439 0.156232
Si Si6 0.132315 0.311532 0.386783
Si Si7 0.108943 0.947360 0.250000
O O1 0.650403 0.754198 0.750000
O O2 0.699463 0.090141 0.705496
O O3 0.629921 0.257307 0.750000
O O4 0.939612 0.500000 0.500000
O O5 0.884020 0.341226 0.437929
O O6 0.914579 0.000000 0.500000
O O7 0.962131 0.160221 0.434041
O O8 0.461088 0.361266 0.126558
O O9 0.379642 0.513652 0.130067
O O10 0.417434 0.384862 0.204479
O O11 0.397502 0.014300 0.143018
O O12 0.238308 0.754038 0.151610
O O13 0.317661 0.882868 0.121654
#
# Coordination Sequence:
#
# PCOD9475309 Si02
#       7
#     8  16  16   8  16  16   8
#     4  12  22  39  58  93 121 162 215 253 300 349
#     4  11  23  41  67  94 122 158 202 261 324 377
#     4  11  22  39  60  87 124 174 204 248 298 357
#     4  10  24  39  64  96 126 152 208 257 300 362
#     4  12  23  38  62  92 124 160 203 258 306 356
#     4  11  23  42  61  88 126 162 202 248 318 378
#     4  12  20  38  62  80 129 174 211 242 288 362
#
# _framework density 19.538837999999998
#
# number of rings (size 3 to 8) (size 9 to 14) (size 15 to 20)
#    0.000    0.727    3.636    5.455    0.000    6.182 
#    0.000    0.000    0.000    8.727    0.000    0.000 
#    0.000    0.000    0.000    0.000    0.000    0.000 
#
# Total GULP energy -245053.502052 kJ/mol
# GULP energy per Si atom -5569.397774 kJ/mol
# Density = 1.949437 g / cm^3
# Si number density = 19.538838 Si / 1000 Ang^3
#
#
#
# Elastic Constant Matrix: (Units=GPa)
#
#
# Indices 1 2 3 4 5 6 
#
# 1 85.1789 -4.5652 36.2138 0.0000 0.0000 0.0000
# 2 -4.5652 49.7883 3.1755 0.0000 0.0000 0.0000
# 3 36.2138 3.1755 57.3445 0.0000 0.0000 0.0000
# 4 0.0000 0.0000 0.0000 25.2942 0.0000 0.0000
# 5 0.0000 0.0000 0.0000 0.0000 -74.7150 0.0000
# 6 0.0000 0.0000 0.0000 0.0000 0.0000 16.7403
#
#
#
# Elastic Compliance Matrix: (Units=1/GPa)
#
#
# Indices 1 2 3 4 5 6 
#
# 1 0.016276 0.002156 -0.010398 0.000000 0.000000 0.000000
# 2 0.002156 0.020442 -0.002493 0.000000 0.000000 0.000000
# 3 -0.010398 -0.002493 0.024143 0.000000 0.000000 0.000000
# 4 0.000000 0.000000 0.000000 0.039535 0.000000 0.000000
# 5 0.000000 0.000000 0.000000 0.000000 -0.013384 0.000000
# 6 0.000000 0.000000 0.000000 0.000000 0.000000 0.059736
#
#
# Mechanical properties :
#
#
# Convention : Reuss Voigt Hill
#
# Bulk Modulus (GPa) = 25.38744 29.10667 27.24705
# Shear Modulus (GPa) = 27.57120 3.96309 15.76714
#
# Velocity S-wave (km/s) = 3.76053 1.42573 2.84379
# Velocity P-wave (km/s) = 5.64597 4.19994 4.97576
#
# Compressibility (1/GPa) = 0.03938956
#
# Stress axis : x y z
#
# Youngs Moduli (GPa) = 61.43929 48.91958 41.41987
#
# Poissons Ratio (x) = -0.10545 0.43068
# Poissons Ratio (y) = -0.13244 0.10327
# Poissons Ratio (z) = 0.63885 0.12197
#
# Static dielectric constant tensor:
#      x y z
#    x 1.639540 0.000000 0.000000 
#    y 0.000000 1.697730 0.000000 
#    z 0.000000 0.000000 1.692770 
# 
# From -- ./inp_files/74405.got.cif
#   From: 2010.05.17/outbox.cif.g08.bks.cpg/sg63_38_cif.got.tgz:74405.got - 2010.06.03 15:47:04.
