data_PCOD9475734
_publ_section_title
;
Structure prediction by ZEFSAII (Michael W. Deem and Ramdas Pophale) SiO2 
 PCOD9475734
Probable space group: C M C M
;
_chemical_formula_sum "Si O2"
_cell_formula_units_Z 64
_cell_length_a 21.434954
_cell_length_b 8.985641
_cell_length_c 15.031065
_cell_angle_alpha 90.000000
_cell_angle_beta 90.000000
_cell_angle_gamma 90.000000
_cell_volume 2895.085353
_symmetry_space_group_name_H-M "C M C M"
_symmetry_group_IT_number 63
_symmetry_cell_setting 'orthorhombic'
loop_
_space_group_symop_operation_xyz
x,y,z
-x,-y,1/2+z
x,-y,-z
-x,y,1/2-z
-x,-y,-z
x,y,1/2-z
-x,y,z
x,-y,1/2+z
1/2+x,1/2+y,z
1/2-x,1/2-y,1/2+z
1/2+x,1/2-y,-z
1/2-x,1/2+y,1/2-z
1/2-x,1/2-y,-z
1/2+x,1/2+y,1/2-z
1/2-x,1/2+y,z
1/2+x,1/2-y,1/2+z
loop_
_atom_site_type_symbol
_atom_site_label
_atom_site_fract_x
_atom_site_fract_y
_atom_site_fract_z
Si Si1 0.315637 0.097757 0.647296
Si Si2 0.931076 0.054108 0.601917
Si Si3 0.304293 0.575485 0.403235
Si Si4 0.070080 0.397637 0.857783
O O1 0.326152 0.142295 0.750000
O O2 0.302699 0.247073 0.593137
O O3 0.256545 0.988635 0.644309
O O4 0.376301 0.010265 0.613645
O O5 0.920814 0.231272 0.605914
O O6 0.000000 0.024487 0.641795
O O7 0.934306 0.000000 0.500000
O O8 0.870014 0.974366 0.640354
O O9 0.303021 0.500000 0.500000
O O10 0.073757 0.386246 0.750000
O O11 0.000000 0.447805 0.881050
#
# Coordination Sequence:
#
# PCOD9475734 Si02
#       4
#    16  16  16  16
#     4  11  23  39  62  89 117 152 197 246 295 350
#     4   9  19  37  59  84 115 152 193 234 282 342
#     4  11  23  39  59  85 120 157 195 240 293 353
#     4   9  19  37  61  88 118 153 193 240 293 345
#
# _framework density 22.106428000000001
#
# number of rings (size 3 to 8) (size 9 to 14) (size 15 to 20)
#    0.000    2.000    0.000    3.000    0.000    7.000 
#    0.000    0.000    0.000   14.250    0.000    0.000 
#    0.000    0.000    0.000    0.000    0.000    0.000 
#
# Total GULP energy -178866.294758 kJ/mol
# GULP energy per Si atom -5589.571711 kJ/mol
# Density = 2.205611 g / cm^3
# Si number density = 22.106428 Si / 1000 Ang^3
#
#
#
# Elastic Constant Matrix: (Units=GPa)
#
#
# Indices 1 2 3 4 5 6 
#
# 1 186.4041 99.9816 8.3231 0.0000 0.0000 0.0000
# 2 99.9816 151.9189 23.9066 0.0000 0.0000 0.0000
# 3 8.3231 23.9066 68.4108 0.0000 0.0000 0.0000
# 4 0.0000 0.0000 0.0000 78.0062 0.0000 0.0000
# 5 0.0000 0.0000 0.0000 0.0000 17.1146 0.0000
# 6 0.0000 0.0000 0.0000 0.0000 0.0000 43.3703
#
#
#
# Elastic Compliance Matrix: (Units=1/GPa)
#
#
# Indices 1 2 3 4 5 6 
#
# 1 0.008350 -0.005646 0.000957 0.000000 0.000000 0.000000
# 2 -0.005646 0.010783 -0.003081 0.000000 0.000000 0.000000
# 3 0.000957 -0.003081 0.015578 0.000000 0.000000 0.000000
# 4 0.000000 0.000000 0.000000 0.012819 0.000000 0.000000
# 5 0.000000 0.000000 0.000000 0.000000 0.058430 0.000000
# 6 0.000000 0.000000 0.000000 0.000000 0.000000 0.023057
#
#
# Mechanical properties :
#
#
# Convention : Reuss Voigt Hill
#
# Bulk Modulus (GPa) = 52.16268 74.57293 63.36780
# Shear Modulus (GPa) = 33.12376 45.99973 39.56174
#
# Velocity S-wave (km/s) = 3.87509 4.56656 4.23496
# Velocity P-wave (km/s) = 6.60826 7.84930 7.25536
#
# Compressibility (1/GPa) = 0.01917079
#
# Stress axis : x y z
#
# Youngs Moduli (GPa) = 119.75433 92.73607 64.19344
#
# Poissons Ratio (x) = 0.52361 -0.06144
# Poissons Ratio (y) = 0.67616 0.19780
# Poissons Ratio (z) = -0.11463 0.28575
#
# Static dielectric constant tensor:
#      x y z
#    x 1.855190 0.000000 0.000000 
#    y 0.000000 1.741070 0.000000 
#    z 0.000000 0.000000 1.755800 
# 
# From -- ./inp_files/46513.got.cif
#   From: 2010.05.17/outbox.cif.g08.bks.cpg/sg63_24_cif.got.tgz:46513.got - 2010.06.03 15:47:04.
