data_PCOD9475284
_publ_section_title
;
Structure prediction by ZEFSAII (Michael W. Deem and Ramdas Pophale) SiO2 
 PCOD9475284
Probable space group: C M C M
;
_chemical_formula_sum "Si O2"
_cell_formula_units_Z 48
_cell_length_a 16.468032
_cell_length_b 9.627663
_cell_length_c 13.556615
_cell_angle_alpha 90.000000
_cell_angle_beta 90.000000
_cell_angle_gamma 90.000000
_cell_volume 2149.383175
_symmetry_space_group_name_H-M "C M C M"
_symmetry_group_IT_number 63
_symmetry_cell_setting 'orthorhombic'
loop_
_space_group_symop_operation_xyz
x,y,z
-x,-y,1/2+z
x,-y,-z
-x,y,1/2-z
-x,-y,-z
x,y,1/2-z
-x,y,z
x,-y,1/2+z
1/2+x,1/2+y,z
1/2-x,1/2-y,1/2+z
1/2+x,1/2-y,-z
1/2-x,1/2+y,1/2-z
1/2-x,1/2-y,-z
1/2+x,1/2+y,1/2-z
1/2-x,1/2+y,z
1/2+x,1/2-y,1/2+z
loop_
_atom_site_type_symbol
_atom_site_label
_atom_site_fract_x
_atom_site_fract_y
_atom_site_fract_z
Si Si1 0.824837 0.156513 0.029836
Si Si2 0.210224 0.213641 0.250000
Si Si3 0.144518 0.512517 0.250000
Si Si4 0.000000 0.168723 0.010795
Si Si5 0.000000 0.559200 0.891255
O O1 0.831880 0.164051 0.148633
O O2 0.908489 0.201213 0.975659
O O3 0.750000 0.250000 0.000000
O O4 0.806849 0.000000 0.000000
O O5 0.205177 0.380588 0.250000
O O6 0.300551 0.148941 0.250000
O O7 0.081788 0.494345 0.160140
O O8 0.000000 0.272434 0.106124
O O9 0.000000 0.000000 0.000000
O O10 0.000000 0.500000 0.000000
#
# Coordination Sequence:
#
# PCOD9475284 Si02
#       5
#    16   8   8   8   8
#     4  11  25  43  69 102 137 182 236 289 351 421
#     4  12  24  44  68 104 138 182 232 292 354 413
#     4  11  26  44  70 103 138 184 234 286 356 423
#     4  10  23  44  71 101 136 187 232 282 354 415
#     4  11  25  48  70  98 140 188 232 289 355 424
#
# _framework density 22.331987999999999
#
# number of rings (size 3 to 8) (size 9 to 14) (size 15 to 20)
#    0.000    1.000    3.333    2.000    4.667    0.667 
#    0.000    0.000    0.000    6.000    0.000    0.000 
#    0.000    0.000    0.000    0.000    0.000    0.000 
#
# Total GULP energy -133804.524635 kJ/mol
# GULP energy per Si atom -5575.188526 kJ/mol
# Density = 2.228116 g / cm^3
# Si number density = 22.331988 Si / 1000 Ang^3
#
#
#
# Elastic Constant Matrix: (Units=GPa)
#
#
# Indices 1 2 3 4 5 6 
#
# 1 227.9288 102.9885 22.5320 0.0000 0.0000 0.0000
# 2 102.9885 101.8445 46.2799 0.0000 0.0000 0.0000
# 3 22.5320 46.2799 120.3991 0.0000 0.0000 0.0000
# 4 0.0000 0.0000 0.0000 29.5648 0.0000 0.0000
# 5 0.0000 0.0000 0.0000 0.0000 -22.7464 0.0000
# 6 0.0000 0.0000 0.0000 0.0000 0.0000 53.5628
#
#
#
# Elastic Compliance Matrix: (Units=1/GPa)
#
#
# Indices 1 2 3 4 5 6 
#
# 1 0.008485 -0.009522 0.002072 0.000000 0.000000 0.000000
# 2 -0.009522 0.022582 -0.006898 0.000000 0.000000 0.000000
# 3 0.002072 -0.006898 0.010570 0.000000 0.000000 0.000000
# 4 0.000000 0.000000 0.000000 0.033824 0.000000 0.000000
# 5 0.000000 0.000000 0.000000 0.000000 -0.043963 0.000000
# 6 0.000000 0.000000 0.000000 0.000000 0.000000 0.018670
#
#
# Mechanical properties :
#
#
# Convention : Reuss Voigt Hill
#
# Bulk Modulus (GPa) = 77.27550 88.19703 82.73627
# Shear Modulus (GPa) = 60.11245 30.63436 45.37340
#
# Velocity S-wave (km/s) = 5.19385 3.70776 4.51240
# Velocity P-wave (km/s) = 8.40513 7.60982 8.01734
#
# Compressibility (1/GPa) = 0.01294071
#
# Stress axis : x y z
#
# Youngs Moduli (GPa) = 117.85688 44.28220 94.61096
#
# Poissons Ratio (x) = 0.42165 -0.19605
# Poissons Ratio (y) = 1.12221 0.65267
# Poissons Ratio (z) = -0.24422 0.30548
#
# Static dielectric constant tensor:
#      x y z
#    x 1.835490 0.000000 0.000000 
#    y 0.000000 1.832110 0.000000 
#    z 0.000000 0.000000 1.886150 
# 
# From -- ./inp_files/30781.got.cif
#   From: 2010.05.17/outbox.cif.g08.bks.cpg/sg63_16_cif.got.tgz:30781.got - 2010.06.03 15:47:04.
