data_PCOD9475248
_publ_section_title
;
Structure prediction by ZEFSAII (Michael W. Deem and Ramdas Pophale) SiO2 
 PCOD9475248
Probable space group: C M C M
;
_chemical_formula_sum "Si O2"
_cell_formula_units_Z 112
_cell_length_a 13.809908
_cell_length_b 13.714518
_cell_length_c 27.652944
_cell_angle_alpha 90.000000
_cell_angle_beta 90.000000
_cell_angle_gamma 90.000000
_cell_volume 5237.363393
_symmetry_space_group_name_H-M "C M C M"
_symmetry_group_IT_number 63
_symmetry_cell_setting 'orthorhombic'
loop_
_space_group_symop_operation_xyz
x,y,z
-x,-y,1/2+z
x,-y,-z
-x,y,1/2-z
-x,-y,-z
x,y,1/2-z
-x,y,z
x,-y,1/2+z
1/2+x,1/2+y,z
1/2-x,1/2-y,1/2+z
1/2+x,1/2-y,-z
1/2-x,1/2+y,1/2-z
1/2-x,1/2-y,-z
1/2+x,1/2+y,1/2-z
1/2-x,1/2+y,z
1/2+x,1/2-y,1/2+z
loop_
_atom_site_type_symbol
_atom_site_label
_atom_site_fract_x
_atom_site_fract_y
_atom_site_fract_z
Si Si1 0.391123 0.645957 0.861085
Si Si2 0.887987 0.206256 0.030527
Si Si3 0.603581 0.935267 0.451815
Si Si4 0.268056 0.507420 0.305926
Si Si5 0.778667 0.198467 0.371164
Si Si6 0.680532 0.570630 0.545522
Si Si7 0.613804 0.848483 0.304445
O O1 0.500000 0.676626 0.850268
O O2 0.345474 0.576242 0.820325
O O3 0.320668 0.738309 0.871312
O O4 0.388775 0.578218 0.909055
O O5 0.824149 0.174681 0.076635
O O6 0.000000 0.168708 0.031287
O O7 0.896013 0.322376 0.033714
O O8 0.833782 0.173299 0.982059
O O9 0.500000 0.954277 0.425645
O O10 0.712476 0.949445 0.432412
O O11 0.602289 0.000000 0.500000
O O12 0.280581 0.535633 0.250000
O O13 0.271637 0.601079 0.339859
O O14 0.166709 0.450898 0.311985
O O15 0.852288 0.272015 0.344305
O O16 0.661307 0.500000 0.500000
O O17 0.641984 0.814715 0.250000
O O18 0.500000 0.859243 0.306214
#
# Coordination Sequence:
#
# PCOD9475248 Si02
#       7
#    16  16  16  16  16  16  16
#     4  11  25  43  62  92 128 165 209 254 306 366
#     4  11  22  37  59  86 120 161 204 250 297 354
#     4   9  19  36  58  84 114 156 205 249 295 349
#     4  10  23  43  65  89 120 157 199 250 310 372
#     4  11  22  39  62  91 123 159 203 254 306 365
#     4  11  22  39  60  85 123 167 207 250 299 357
#     4   9  19  38  63  89 116 148 193 250 307 365
#
# _framework density 21.384805
#
# number of rings (size 3 to 8) (size 9 to 14) (size 15 to 20)
#    0.000    1.714    1.429    2.571    0.000    4.857 
#    0.000    0.000    0.000    0.000    0.000    0.000 
#    0.000    0.000    0.000    0.000    0.000    0.000 
#
# Total GULP energy -312674.150517 kJ/mol
# GULP energy per Si atom -5583.466974 kJ/mol
# Density = 2.133613 g / cm^3
# Si number density = 21.384805 Si / 1000 Ang^3
#
#
#
# Elastic Constant Matrix: (Units=GPa)
#
#
# Indices 1 2 3 4 5 6 
#
# 1 151.1495 23.2264 23.8059 0.0000 0.0000 0.0000
# 2 23.2264 51.2517 31.1929 0.0000 0.0000 0.0000
# 3 23.8059 31.1929 85.8422 0.0000 0.0000 0.0000
# 4 0.0000 0.0000 0.0000 29.8539 0.0000 0.0000
# 5 0.0000 0.0000 0.0000 0.0000 44.2023 0.0000
# 6 0.0000 0.0000 0.0000 0.0000 0.0000 9.5762
#
#
#
# Elastic Compliance Matrix: (Units=1/GPa)
#
#
# Indices 1 2 3 4 5 6 
#
# 1 0.007183 -0.002623 -0.001039 0.000000 0.000000 0.000000
# 2 -0.002623 0.026010 -0.008724 0.000000 0.000000 0.000000
# 3 -0.001039 -0.008724 0.015107 0.000000 0.000000 0.000000
# 4 0.000000 0.000000 0.000000 0.033496 0.000000 0.000000
# 5 0.000000 0.000000 0.000000 0.000000 0.022623 0.000000
# 6 0.000000 0.000000 0.000000 0.000000 0.000000 0.104425
#
#
# Mechanical properties :
#
#
# Convention : Reuss Voigt Hill
#
# Bulk Modulus (GPa) = 42.50133 49.41042 45.95587
# Shear Modulus (GPa) = 20.70746 30.72768 25.71757
#
# Velocity S-wave (km/s) = 3.11517 3.79475 3.47163
# Velocity P-wave (km/s) = 5.73208 6.50813 6.13239
#
# Compressibility (1/GPa) = 0.02352868
#
# Stress axis : x y z
#
# Youngs Moduli (GPa) = 139.22509 38.44715 66.19256
#
# Poissons Ratio (x) = 0.10084 0.06876
# Poissons Ratio (y) = 0.36516 0.57746
# Poissons Ratio (z) = 0.14463 0.33541
#
# Static dielectric constant tensor:
#      x y z
#    x 1.818930 0.000000 0.000000 
#    y 0.000000 1.769160 0.000000 
#    z 0.000000 0.000000 1.594830 
# 
# From -- ./inp_files/69419.got.cif
#   From: 2010.05.17/outbox.cif.g08.bks.cpg/sg63_35_cif.got.tgz:69419.got - 2010.06.03 15:47:04.
