data_PCOD9475282
_publ_section_title
;
Structure prediction by ZEFSAII (Michael W. Deem and Ramdas Pophale) SiO2 
 PCOD9475282
Probable space group: C M C M
;
_chemical_formula_sum "Si O2"
_cell_formula_units_Z 72
_cell_length_a 15.858965
_cell_length_b 8.904649
_cell_length_c 20.728901
_cell_angle_alpha 90.000000
_cell_angle_beta 90.000000
_cell_angle_gamma 90.000000
_cell_volume 2927.304655
_symmetry_space_group_name_H-M "C M C M"
_symmetry_group_IT_number 63
_symmetry_cell_setting 'orthorhombic'
loop_
_space_group_symop_operation_xyz
x,y,z
-x,-y,1/2+z
x,-y,-z
-x,y,1/2-z
-x,-y,-z
x,y,1/2-z
-x,y,z
x,-y,1/2+z
1/2+x,1/2+y,z
1/2-x,1/2-y,1/2+z
1/2+x,1/2-y,-z
1/2-x,1/2+y,1/2-z
1/2-x,1/2-y,-z
1/2+x,1/2+y,1/2-z
1/2-x,1/2+y,z
1/2+x,1/2-y,1/2+z
loop_
_atom_site_type_symbol
_atom_site_label
_atom_site_fract_x
_atom_site_fract_y
_atom_site_fract_z
Si Si1 0.500000 0.363228 0.642984
Si Si2 0.500000 0.017147 0.594512
Si Si3 0.363630 0.583932 0.250000
Si Si4 0.500000 0.671244 0.563943
Si Si5 0.719540 0.112783 0.750000
Si Si6 0.815793 0.473485 0.886573
Si Si7 0.812948 0.820437 0.051587
O O1 0.500000 0.187406 0.624407
O O2 0.580676 0.389935 0.687770
O O3 0.500000 0.507136 0.596290
O O4 0.599357 0.019976 0.574255
O O5 0.500000 0.829469 0.606048
O O6 0.293639 0.711438 0.250000
O O7 0.317375 0.427401 0.250000
O O8 0.590429 0.673640 0.528030
O O9 0.679386 0.041933 0.684956
O O10 0.812598 0.294683 0.888355
O O11 0.731496 0.531444 0.921718
O O12 0.750000 0.750000 0.000000
#
# Coordination Sequence:
#
# PCOD9475282 Si02
#       7
#     8   8   8   8   8  16  16
#     4  11  22  46  66 104 146 197 249 296 383 451
#     4  10  23  44  69 106 143 196 244 307 373 449
#     4  11  24  38  66 103 148 194 242 306 364 457
#     4  10  25  46  76 102 146 196 242 318 380 437
#     4  12  22  40  66 106 144 184 242 298 370 443
#     4  11  24  42  70 103 144 191 244 306 376 444
#     4  11  25  47  71 106 143 190 254 311 374 451
#
# _framework density 24.596005000000002
#
# number of rings (size 3 to 8) (size 9 to 14) (size 15 to 20)
#    0.000    1.111    2.222    3.333    3.111    3.111 
#    0.000   11.111    0.000    0.000    0.000    0.000 
#    0.000    0.000    0.000    0.000    0.000    0.000 
#
# Total GULP energy -200582.973484 kJ/mol
# GULP energy per Si atom -5571.749263 kJ/mol
# Density = 2.454002 g / cm^3
# Si number density = 24.596005 Si / 1000 Ang^3
#
#
#
# Elastic Constant Matrix: (Units=GPa)
#
#
# Indices 1 2 3 4 5 6 
#
# 1 206.1060 63.1736 27.4634 0.0000 0.0000 0.0000
# 2 63.1736 126.1434 25.9142 0.0000 0.0000 0.0000
# 3 27.4634 25.9142 79.5991 0.0000 0.0000 0.0000
# 4 0.0000 0.0000 0.0000 35.9939 0.0000 0.0000
# 5 0.0000 0.0000 0.0000 0.0000 39.4860 0.0000
# 6 0.0000 0.0000 0.0000 0.0000 0.0000 47.5371
#
#
#
# Elastic Compliance Matrix: (Units=1/GPa)
#
#
# Indices 1 2 3 4 5 6 
#
# 1 0.005826 -0.002684 -0.001136 0.000000 0.000000 0.000000
# 2 -0.002684 0.009732 -0.002242 0.000000 0.000000 0.000000
# 3 -0.001136 -0.002242 0.013685 0.000000 0.000000 0.000000
# 4 0.000000 0.000000 0.000000 0.027783 0.000000 0.000000
# 5 0.000000 0.000000 0.000000 0.000000 0.025325 0.000000
# 6 0.000000 0.000000 0.000000 0.000000 0.000000 0.021036
#
#
# Mechanical properties :
#
#
# Convention : Reuss Voigt Hill
#
# Bulk Modulus (GPa) = 58.41884 71.66121 65.04003
# Shear Modulus (GPa) = 41.24756 44.28987 42.76871
#
# Velocity S-wave (km/s) = 4.09956 4.24806 4.17447
# Velocity P-wave (km/s) = 6.79790 7.29794 7.05235
#
# Compressibility (1/GPa) = 0.01711777
#
# Stress axis : x y z
#
# Youngs Moduli (GPa) = 171.64326 102.74897 73.07277
#
# Poissons Ratio (x) = 0.27581 0.08303
# Poissons Ratio (y) = 0.46074 0.16385
# Poissons Ratio (z) = 0.19502 0.23040
#
# Static dielectric constant tensor:
#      x y z
#    x 1.943340 0.000000 0.000000 
#    y 0.000000 1.929020 0.000000 
#    z 0.000000 0.000000 2.032850 
# 
# From -- ./inp_files/69121.got.cif
#   From: 2010.05.17/outbox.cif.g08.bks.cpg/sg63_35_cif.got.tgz:69121.got - 2010.06.03 15:47:04.
