data_PCOD9475203
_publ_section_title
;
Structure prediction by ZEFSAII (Michael W. Deem and Ramdas Pophale) SiO2 
 PCOD9475203
Probable space group: C M C M
;
_chemical_formula_sum "Si O2"
_cell_formula_units_Z 64
_cell_length_a 14.284103
_cell_length_b 13.772876
_cell_length_c 18.265186
_cell_angle_alpha 90.000000
_cell_angle_beta 90.000000
_cell_angle_gamma 90.000000
_cell_volume 3593.368114
_symmetry_space_group_name_H-M "C M C M"
_symmetry_group_IT_number 63
_symmetry_cell_setting 'orthorhombic'
loop_
_space_group_symop_operation_xyz
x,y,z
-x,-y,1/2+z
x,-y,-z
-x,y,1/2-z
-x,-y,-z
x,y,1/2-z
-x,y,z
x,-y,1/2+z
1/2+x,1/2+y,z
1/2-x,1/2-y,1/2+z
1/2+x,1/2-y,-z
1/2-x,1/2+y,1/2-z
1/2-x,1/2-y,-z
1/2+x,1/2+y,1/2-z
1/2-x,1/2+y,z
1/2+x,1/2-y,1/2+z
loop_
_atom_site_type_symbol
_atom_site_label
_atom_site_fract_x
_atom_site_fract_y
_atom_site_fract_z
Si Si1 0.653532 0.549815 0.078310
Si Si2 0.000000 0.283067 0.611427
Si Si3 0.000000 0.784332 0.943557
Si Si4 0.152281 0.564524 0.162432
Si Si5 0.000000 0.932060 0.165477
Si Si6 0.500000 0.100998 0.663348
O O1 0.590704 0.646500 0.067422
O O2 0.750127 0.565487 0.120305
O O3 0.589557 0.477210 0.125480
O O4 0.669990 0.500000 0.000000
O O5 0.000000 0.257852 0.525550
O O6 0.089152 0.346910 0.634094
O O7 0.000000 0.182687 0.654904
O O8 0.000000 0.696407 0.886015
O O9 0.165121 0.572020 0.250000
O O10 0.090665 0.467126 0.148673
O O11 0.000000 0.959452 0.250000
O O12 0.500000 0.124728 0.750000
#
# Coordination Sequence:
#
# PCOD9475203 Si02
#       6
#    16   8   8  16   8   8
#     4  11  23  41  59  90 124 156 198 250 296 357
#     4  11  22  40  64  90 121 157 201 250 296 358
#     4  11  23  40  63  90 124 159 201 244 302 356
#     4  10  23  41  62  89 121 157 203 249 298 354
#     4  11  21  40  64  85 119 162 198 242 303 354
#     4   9  22  42  61  87 123 159 200 250 297 352
#
# _framework density 17.810587999999999
#
# number of rings (size 3 to 8) (size 9 to 14) (size 15 to 20)
#    0.000    1.500    2.500    3.375    3.500    7.000 
#    0.000    2.500    0.000    0.000    0.000    0.000 
#    0.000    0.000    0.000    0.000    0.000    0.000 
#
# Total GULP energy -178795.220292 kJ/mol
# GULP energy per Si atom -5587.350634 kJ/mol
# Density = 1.777005 g / cm^3
# Si number density = 17.810588 Si / 1000 Ang^3
#
#
#
# Elastic Constant Matrix: (Units=GPa)
#
#
# Indices 1 2 3 4 5 6 
#
# 1 193.7390 78.2997 95.9006 0.0000 0.0000 0.0000
# 2 78.2997 131.2099 84.4794 0.0000 0.0000 0.0000
# 3 95.9006 84.4794 128.3008 0.0000 0.0000 0.0000
# 4 0.0000 0.0000 0.0000 36.4193 0.0000 0.0000
# 5 0.0000 0.0000 0.0000 0.0000 35.8262 0.0000
# 6 0.0000 0.0000 0.0000 0.0000 0.0000 -1.7281
#
#
#
# Elastic Compliance Matrix: (Units=1/GPa)
#
#
# Indices 1 2 3 4 5 6 
#
# 1 0.008402 -0.001685 -0.005171 0.000000 0.000000 0.000000
# 2 -0.001685 0.013568 -0.007675 0.000000 0.000000 0.000000
# 3 -0.005171 -0.007675 0.016713 0.000000 0.000000 0.000000
# 4 0.000000 0.000000 0.000000 0.027458 0.000000 0.000000
# 5 0.000000 0.000000 0.000000 0.000000 0.027913 0.000000
# 6 0.000000 0.000000 0.000000 0.000000 0.000000 -0.578662
#
#
# Mechanical properties :
#
#
# Convention : Reuss Voigt Hill
#
# Bulk Modulus (GPa) = 103.92611 107.84543 105.88577
# Shear Modulus (GPa) = -11.05361 27.07482 8.01061
#
# Velocity S-wave (km/s) = -2.49393 3.90314 2.12307
# Velocity P-wave (km/s) = 7.08410 8.99975 8.09876
#
# Compressibility (1/GPa) = 0.00962222
#
# Stress axis : x y z
#
# Youngs Moduli (GPa) = 119.01819 73.70318 59.83456
#
# Poissons Ratio (x) = 0.12416 0.30941
# Poissons Ratio (y) = 0.20049 0.45921
# Poissons Ratio (z) = 0.61545 0.56565
#
# Static dielectric constant tensor:
#      x y z
#    x 1.559370 0.000000 0.000000 
#    y 0.000000 1.586730 0.000000 
#    z 0.000000 0.000000 1.588200 
# 
# From -- ./inp_files/43508.got.cif
#   From: 2010.05.17/outbox.cif.g08.bks.cpg/sg63_22_cif.got.tgz:43508.got - 2010.06.03 15:47:04.
