data_PCOD9475429
_publ_section_title
;
Structure prediction by ZEFSAII (Michael W. Deem and Ramdas Pophale) SiO2 
 PCOD9475429
Probable space group: C M C M
;
_chemical_formula_sum "Si O2"
_cell_formula_units_Z 64
_cell_length_a 17.602379
_cell_length_b 7.960911
_cell_length_c 17.749767
_cell_angle_alpha 90.000000
_cell_angle_beta 90.000000
_cell_angle_gamma 90.000000
_cell_volume 2487.292113
_symmetry_space_group_name_H-M "C M C M"
_symmetry_group_IT_number 63
_symmetry_cell_setting 'orthorhombic'
loop_
_space_group_symop_operation_xyz
x,y,z
-x,-y,1/2+z
x,-y,-z
-x,y,1/2-z
-x,-y,-z
x,y,1/2-z
-x,y,z
x,-y,1/2+z
1/2+x,1/2+y,z
1/2-x,1/2-y,1/2+z
1/2+x,1/2-y,-z
1/2-x,1/2+y,1/2-z
1/2-x,1/2-y,-z
1/2+x,1/2+y,1/2-z
1/2-x,1/2+y,z
1/2+x,1/2-y,1/2+z
loop_
_atom_site_type_symbol
_atom_site_label
_atom_site_fract_x
_atom_site_fract_y
_atom_site_fract_z
Si Si1 0.104611 0.036878 0.334213
Si Si2 0.348084 0.325368 0.452747
Si Si3 0.232596 0.588841 0.662516
Si Si4 0.414601 0.113408 0.915294
O O1 0.078955 0.011154 0.250000
O O2 0.090950 0.881075 0.389400
O O3 0.196720 0.038896 0.332124
O O4 0.079507 0.210467 0.369205
O O5 0.338413 0.500000 0.500000
O O6 0.269344 0.300562 0.406803
O O7 0.118854 0.321423 0.495453
O O8 0.223788 0.646155 0.750000
O O9 0.152032 0.523284 0.632117
O O10 0.500000 0.043823 0.918388
#
# Coordination Sequence:
#
# PCOD9475429 Si02
#       4
#    16  16  16  16
#     4   8  17  31  46  70 102 135 166 199 239 293
#     4   8  16  31  50  70  98 134 168 195 242 295
#     4   9  18  33  49  70 100 136 169 198 240 298
#     4  11  20  30  51  81 104 123 160 214 256 283
#
# _framework density 25.730793999999999
#
# number of rings (size 3 to 8) (size 9 to 14) (size 15 to 20)
#    1.500    1.500    0.000    1.500    0.000    6.500 
#    0.000    0.000    0.000    1.500    0.000    1.750 
#    0.000    8.000    0.000    0.000    0.000    0.000 
#
# Total GULP energy -178321.646279 kJ/mol
# GULP energy per Si atom -5572.551446 kJ/mol
# Density = 2.567223 g / cm^3
# Si number density = 25.730794 Si / 1000 Ang^3
#
#
#
# Elastic Constant Matrix: (Units=GPa)
#
#
# Indices 1 2 3 4 5 6 
#
# 1 225.4002 27.9742 58.7845 0.0000 0.0000 0.0000
# 2 27.9742 61.2103 24.8993 0.0000 0.0000 0.0000
# 3 58.7845 24.8993 199.7839 0.0000 0.0000 0.0000
# 4 0.0000 0.0000 0.0000 33.4331 0.0000 0.0000
# 5 0.0000 0.0000 0.0000 0.0000 -9.6537 0.0000
# 6 0.0000 0.0000 0.0000 0.0000 0.0000 -186.8839
#
#
#
# Elastic Compliance Matrix: (Units=1/GPa)
#
#
# Indices 1 2 3 4 5 6 
#
# 1 0.004981 -0.001770 -0.001245 0.000000 0.000000 0.000000
# 2 -0.001770 0.017839 -0.001702 0.000000 0.000000 0.000000
# 3 -0.001245 -0.001702 0.005584 0.000000 0.000000 0.000000
# 4 0.000000 0.000000 0.000000 0.029910 0.000000 0.000000
# 5 0.000000 0.000000 0.000000 0.000000 -0.103587 0.000000
# 6 0.000000 0.000000 0.000000 0.000000 0.000000 -0.005351
#
#
# Mechanical properties :
#
#
# Convention : Reuss Voigt Hill
#
# Bulk Modulus (GPa) = 52.71869 78.85671 65.78770
# Shear Modulus (GPa) = -143.40543 -7.63848 -75.52195
#
# Velocity S-wave (km/s) = -7.47355 -1.72484 -5.42352
# Velocity P-wave (km/s) = 7.34431 5.17171 3.68730
#
# Compressibility (1/GPa) = 0.01896861
#
# Stress axis : x y z
#
# Youngs Moduli (GPa) = 200.76639 56.05847 179.08581
#
# Poissons Ratio (x) = 0.09922 0.22296
# Poissons Ratio (y) = 0.35534 0.30488
# Poissons Ratio (z) = 0.24995 0.09544
#
# Static dielectric constant tensor:
#      x y z
#    x 2.010850 0.000000 0.000000 
#    y 0.000000 2.105980 0.000000 
#    z 0.000000 0.000000 2.074730 
# 
# From -- ./inp_files/45139.got.cif
#   From: 2010.05.17/outbox.cif.g08.bks.cpg/sg63_23_cif.got.tgz:45139.got - 2010.06.03 15:47:04.
