data_PCOD9475695
_publ_section_title
;
Structure prediction by ZEFSAII (Michael W. Deem and Ramdas Pophale) SiO2 
 PCOD9475695
Probable space group: C M C M
;
_chemical_formula_sum "Si O2"
_cell_formula_units_Z 64
_cell_length_a 14.814377
_cell_length_b 11.826573
_cell_length_c 18.541940
_cell_angle_alpha 90.000000
_cell_angle_beta 90.000000
_cell_angle_gamma 90.000000
_cell_volume 3248.609281
_symmetry_space_group_name_H-M "C M C M"
_symmetry_group_IT_number 63
_symmetry_cell_setting 'orthorhombic'
loop_
_space_group_symop_operation_xyz
x,y,z
-x,-y,1/2+z
x,-y,-z
-x,y,1/2-z
-x,-y,-z
x,y,1/2-z
-x,y,z
x,-y,1/2+z
1/2+x,1/2+y,z
1/2-x,1/2-y,1/2+z
1/2+x,1/2-y,-z
1/2-x,1/2+y,1/2-z
1/2-x,1/2-y,-z
1/2+x,1/2+y,1/2-z
1/2-x,1/2+y,z
1/2+x,1/2-y,1/2+z
loop_
_atom_site_type_symbol
_atom_site_label
_atom_site_fract_x
_atom_site_fract_y
_atom_site_fract_z
Si Si1 0.860884 0.714747 0.164948
Si Si2 0.096554 0.483818 0.085810
Si Si3 0.195212 0.733676 0.576387
Si Si4 0.000000 0.853830 0.934408
Si Si5 0.500000 0.605905 0.605705
O O1 0.871922 0.704080 0.250000
O O2 0.896624 0.603546 0.124406
O O3 0.758122 0.719790 0.139067
O O4 0.914517 0.825972 0.137910
O O5 0.177815 0.397474 0.095307
O O6 0.000000 0.432991 0.108535
O O7 0.093769 0.500000 0.000000
O O8 0.250000 0.750000 0.500000
O O9 0.096097 0.790136 0.575471
O O10 0.000000 0.970032 0.887747
O O11 0.000000 0.877282 0.019964
#
# Coordination Sequence:
#
# PCOD9475695 Si02
#       5
#    16  16  16   8   8
#     4  12  27  45  69 104 143 189 230 283 363 421
#     4  11  22  41  72 102 136 176 234 294 341 407
#     4  12  24  43  71 104 140 178 230 296 345 417
#     4  11  24  43  70 105 133 177 238 289 348 405
#     4  11  23  43  70 101 143 176 229 295 346 424
#
# _framework density 19.700738999999999
#
# number of rings (size 3 to 8) (size 9 to 14) (size 15 to 20)
#    0.000    0.500    7.500    0.375    3.500    1.000 
#    0.000    1.875    0.000    0.000    0.000    0.000 
#    0.000    0.000    0.000    0.000    0.000    0.000 
#
# Total GULP energy -178497.445433 kJ/mol
# GULP energy per Si atom -5578.045170 kJ/mol
# Density = 1.965590 g / cm^3
# Si number density = 19.700739 Si / 1000 Ang^3
#
#
#
# Elastic Constant Matrix: (Units=GPa)
#
#
# Indices 1 2 3 4 5 6 
#
# 1 137.5548 53.4706 29.6811 0.0000 0.0000 0.0000
# 2 53.4706 114.5503 49.6697 0.0000 0.0000 0.0000
# 3 29.6811 49.6697 113.3746 0.0000 0.0000 0.0000
# 4 0.0000 0.0000 0.0000 22.4707 0.0000 0.0000
# 5 0.0000 0.0000 0.0000 0.0000 37.9814 0.0000
# 6 0.0000 0.0000 0.0000 0.0000 0.0000 66.2624
#
#
#
# Elastic Compliance Matrix: (Units=1/GPa)
#
#
# Indices 1 2 3 4 5 6 
#
# 1 0.008918 -0.003889 -0.000631 0.000000 0.000000 0.000000
# 2 -0.003889 0.012473 -0.004446 0.000000 0.000000 0.000000
# 3 -0.000631 -0.004446 0.010933 0.000000 0.000000 0.000000
# 4 0.000000 0.000000 0.000000 0.044502 0.000000 0.000000
# 5 0.000000 0.000000 0.000000 0.000000 0.026329 0.000000
# 6 0.000000 0.000000 0.000000 0.000000 0.000000 0.015092
#
#
# Mechanical properties :
#
#
# Convention : Reuss Voigt Hill
#
# Bulk Modulus (GPa) = 69.48446 70.12474 69.80460
# Shear Modulus (GPa) = 35.46682 40.85346 38.16014
#
# Velocity S-wave (km/s) = 4.24757 4.55873 4.40590
# Velocity P-wave (km/s) = 7.70729 7.96126 7.83530
#
# Compressibility (1/GPa) = 0.01439171
#
# Stress axis : x y z
#
# Youngs Moduli (GPa) = 112.13596 80.17206 91.46282
#
# Poissons Ratio (x) = 0.31180 0.05769
# Poissons Ratio (y) = 0.43612 0.40668
# Poissons Ratio (z) = 0.07073 0.35647
#
# Static dielectric constant tensor:
#      x y z
#    x 1.723600 0.000000 0.000000 
#    y 0.000000 1.779190 0.000000 
#    z 0.000000 0.000000 1.624910 
# 
# From -- ./inp_files/43492.got.cif
#   From: 2010.05.17/outbox.cif.g08.bks.cpg/sg63_22_cif.got.tgz:43492.got - 2010.06.03 15:47:04.
