data_PCOD9475712
_publ_section_title
;
Structure prediction by ZEFSAII (Michael W. Deem and Ramdas Pophale) SiO2 
 PCOD9475712
Probable space group: C M C M
;
_chemical_formula_sum "Si O2"
_cell_formula_units_Z 64
_cell_length_a 14.645116
_cell_length_b 16.102800
_cell_length_c 13.706789
_cell_angle_alpha 90.000000
_cell_angle_beta 90.000000
_cell_angle_gamma 90.000000
_cell_volume 3232.436055
_symmetry_space_group_name_H-M "C M C M"
_symmetry_group_IT_number 63
_symmetry_cell_setting 'orthorhombic'
loop_
_space_group_symop_operation_xyz
x,y,z
-x,-y,1/2+z
x,-y,-z
-x,y,1/2-z
-x,-y,-z
x,y,1/2-z
-x,y,z
x,-y,1/2+z
1/2+x,1/2+y,z
1/2-x,1/2-y,1/2+z
1/2+x,1/2-y,-z
1/2-x,1/2+y,1/2-z
1/2-x,1/2-y,-z
1/2+x,1/2+y,1/2-z
1/2-x,1/2+y,z
1/2+x,1/2-y,1/2+z
loop_
_atom_site_type_symbol
_atom_site_label
_atom_site_fract_x
_atom_site_fract_y
_atom_site_fract_z
Si Si1 0.652931 0.350818 0.863936
Si Si2 0.500000 0.329414 0.131581
Si Si3 0.500000 0.211144 0.857300
Si Si4 0.500000 0.477347 0.869404
Si Si5 0.500000 0.908601 0.540382
Si Si6 0.149069 0.303919 0.867137
O O1 0.671311 0.372058 0.750000
O O2 0.586736 0.271595 0.864072
O O3 0.590909 0.427088 0.901781
O O4 0.750007 0.323014 0.906987
O O5 0.500000 0.327528 0.250000
O O6 0.500000 0.425840 0.103737
O O7 0.589750 0.276844 0.099247
O O8 0.500000 0.171226 0.750000
O O9 0.500000 0.148159 0.944532
O O10 0.500000 0.472633 0.750000
O O11 0.413090 0.882092 0.604099
O O12 0.500000 0.000000 0.500000
O O13 0.154829 0.294994 0.750000
#
# Coordination Sequence:
#
# PCOD9475712 Si02
#       6
#    16   8   8   8   8  16
#     4   8  15  31  55  80 106 140 178 219 276 330
#     4   8  14  26  47  77 107 133 170 218 263 317
#     4   9  19  36  57  79 106 141 180 224 274 328
#     4   8  13  25  49  81 110 134 174 229 270 316
#     4  11  23  37  52  75 110 148 186 226 263 314
#     4   9  18  35  57  79 107 144 180 218 275 330
#
# _framework density 19.799309000000001
#
# number of rings (size 3 to 8) (size 9 to 14) (size 15 to 20)
#    0.000    3.250    0.000    2.625    0.000    2.000 
#    4.500    0.000    0.000    6.000    0.000    0.000 
#    0.000    0.000    0.000    0.000    0.000    0.000 
#
# Total GULP energy -178345.076663 kJ/mol
# GULP energy per Si atom -5573.283646 kJ/mol
# Density = 1.975425 g / cm^3
# Si number density = 19.799309 Si / 1000 Ang^3
#
#
#
# Elastic Constant Matrix: (Units=GPa)
#
#
# Indices 1 2 3 4 5 6 
#
# 1 196.2176 64.6117 3.1037 0.0000 0.0000 0.0000
# 2 64.6117 133.7243 0.5010 0.0000 0.0000 0.0000
# 3 3.1037 0.5010 49.2755 0.0000 0.0000 0.0000
# 4 0.0000 0.0000 0.0000 26.7631 0.0000 0.0000
# 5 0.0000 0.0000 0.0000 0.0000 8.0459 0.0000
# 6 0.0000 0.0000 0.0000 0.0000 0.0000 13.7186
#
#
#
# Elastic Compliance Matrix: (Units=1/GPa)
#
#
# Indices 1 2 3 4 5 6 
#
# 1 0.006067 -0.002930 -0.000352 0.000000 0.000000 0.000000
# 2 -0.002930 0.008893 0.000094 0.000000 0.000000 0.000000
# 3 -0.000352 0.000094 0.020315 0.000000 0.000000 0.000000
# 4 0.000000 0.000000 0.000000 0.037365 0.000000 0.000000
# 5 0.000000 0.000000 0.000000 0.000000 0.124288 0.000000
# 6 0.000000 0.000000 0.000000 0.000000 0.000000 0.072894
#
#
# Mechanical properties :
#
#
# Convention : Reuss Voigt Hill
#
# Bulk Modulus (GPa) = 34.60316 57.29446 45.94881
# Shear Modulus (GPa) = 17.49286 30.43892 23.96589
#
# Velocity S-wave (km/s) = 2.97561 3.92519 3.48291
# Velocity P-wave (km/s) = 5.41485 7.03870 6.27948
#
# Compressibility (1/GPa) = 0.02889910
#
# Stress axis : x y z
#
# Youngs Moduli (GPa) = 164.83286 112.44306 49.22402
#
# Poissons Ratio (x) = 0.32945 0.01734
# Poissons Ratio (y) = 0.48295 -0.00463
# Poissons Ratio (z) = 0.05808 -0.01058
#
# Static dielectric constant tensor:
#      x y z
#    x 1.697440 0.000000 0.000000 
#    y 0.000000 1.671120 0.000000 
#    z 0.000000 0.000000 1.734820 
# 
# From -- ./inp_files/43711.got.cif
#   From: 2010.05.17/outbox.cif.g08.bks.cpg/sg63_22_cif.got.tgz:43711.got - 2010.06.03 15:47:04.
