data_PCOD9475951
_publ_section_title
;
Structure prediction by ZEFSAII (Michael W. Deem and Ramdas Pophale) SiO2 
 PCOD9475951
Probable space group: C M C M
;
_chemical_formula_sum "Si O2"
_cell_formula_units_Z 112
_cell_length_a 7.400308
_cell_length_b 28.587679
_cell_length_c 29.357987
_cell_angle_alpha 90.000000
_cell_angle_beta 90.000000
_cell_angle_gamma 90.000000
_cell_volume 6210.906140
_symmetry_space_group_name_H-M "C M C M"
_symmetry_group_IT_number 63
_symmetry_cell_setting 'orthorhombic'
loop_
_space_group_symop_operation_xyz
x,y,z
-x,-y,1/2+z
x,-y,-z
-x,y,1/2-z
-x,-y,-z
x,y,1/2-z
-x,y,z
x,-y,1/2+z
1/2+x,1/2+y,z
1/2-x,1/2-y,1/2+z
1/2+x,1/2-y,-z
1/2-x,1/2+y,1/2-z
1/2-x,1/2-y,-z
1/2+x,1/2+y,1/2-z
1/2-x,1/2+y,z
1/2+x,1/2-y,1/2+z
loop_
_atom_site_type_symbol
_atom_site_label
_atom_site_fract_x
_atom_site_fract_y
_atom_site_fract_z
Si Si1 0.790468 0.141731 0.461344
Si Si2 0.221564 0.214795 0.106392
Si Si3 0.218234 0.694225 0.948857
Si Si4 0.220243 0.369503 0.199274
Si Si5 0.282920 0.101027 0.895982
Si Si6 0.219872 0.739408 0.699023
Si Si7 0.286120 0.550588 0.513269
O O1 0.715022 0.166490 0.416318
O O2 0.783266 0.181138 0.500931
O O3 0.711463 0.094685 0.484086
O O4 0.000000 0.131692 0.451827
O O5 0.279126 0.228200 0.157358
O O6 0.000000 0.214264 0.106247
O O7 0.277824 0.257685 0.073730
O O8 0.000000 0.694629 0.950141
O O9 0.275526 0.650704 0.917289
O O10 0.279934 0.383395 0.250000
O O11 0.280669 0.400000 0.156160
O O12 0.271360 0.315012 0.191778
O O13 0.000000 0.370179 0.199685
O O14 0.500000 0.101567 0.894817
O O15 0.232735 0.062541 0.933303
O O16 0.277412 0.753118 0.750000
O O17 0.000000 0.739689 0.698615
O O18 0.211428 0.500000 0.500000
O O19 0.500000 0.549536 0.504056
#
# Coordination Sequence:
#
# PCOD9475951 Si02
#       7
#    16  16  16  16  16  16  16
#     4   9  17  26  37  53  72  96 127 158 185 220
#     4   9  14  21  33  51  76 101 123 147 179 217
#     4   9  15  23  35  53  79 103 120 143 178 218
#     4   8  12  19  33  55  82 106 124 143 175 222
#     4   9  15  24  40  61  80  99 124 154 187 222
#     4   8  12  18  30  50  77 105 126 144 174 219
#     4   9  18  31  42  52  71 101 134 164 198 238
#
# _framework density 18.032793999999999
#
# number of rings (size 3 to 8) (size 9 to 14) (size 15 to 20)
#    0.000    3.286    1.429    1.286    0.000    0.286 
#    0.000    0.000    0.000    0.429    0.000    1.000 
#    0.000    5.714    0.000    0.000    0.000    0.000 
#
# Total GULP energy -311982.737680 kJ/mol
# GULP energy per Si atom -5571.120316 kJ/mol
# Density = 1.799175 g / cm^3
# Si number density = 18.032794 Si / 1000 Ang^3
#
#
#
# Elastic Constant Matrix: (Units=GPa)
#
#
# Indices 1 2 3 4 5 6 
#
# 1 58.6352 5.7148 -0.5505 0.0000 0.0000 0.0000
# 2 5.7148 89.4843 90.9191 0.0000 0.0000 0.0000
# 3 -0.5505 90.9191 147.1993 0.0000 0.0000 0.0000
# 4 0.0000 0.0000 0.0000 19.7214 0.0000 0.0000
# 5 0.0000 0.0000 0.0000 0.0000 56.3231 0.0000
# 6 0.0000 0.0000 0.0000 0.0000 0.0000 15.8905
#
#
#
# Elastic Compliance Matrix: (Units=1/GPa)
#
#
# Indices 1 2 3 4 5 6 
#
# 1 0.017381 -0.003158 0.002015 0.000000 0.000000 0.000000
# 2 -0.003158 0.030579 -0.018899 0.000000 0.000000 0.000000
# 3 0.002015 -0.018899 0.018474 0.000000 0.000000 0.000000
# 4 0.000000 0.000000 0.000000 0.050706 0.000000 0.000000
# 5 0.000000 0.000000 0.000000 0.000000 0.017755 0.000000
# 6 0.000000 0.000000 0.000000 0.000000 0.000000 0.062931
#
#
# Mechanical properties :
#
#
# Convention : Reuss Voigt Hill
#
# Bulk Modulus (GPa) = 37.94849 54.16506 46.05678
# Shear Modulus (GPa) = 20.26803 31.66936 25.96870
#
# Velocity S-wave (km/s) = 3.35618 4.19526 3.79896
# Velocity P-wave (km/s) = 6.00903 7.31909 6.69618
#
# Compressibility (1/GPa) = 0.02635151
#
# Stress axis : x y z
#
# Youngs Moduli (GPa) = 57.53315 32.70197 54.12885
#
# Poissons Ratio (x) = 0.10327 -0.10909
# Poissons Ratio (y) = 0.18168 1.02300
# Poissons Ratio (z) = -0.11595 0.61805
#
# Static dielectric constant tensor:
#      x y z
#    x 1.699820 0.000000 0.000000 
#    y 0.000000 1.603970 0.000000 
#    z 0.000000 0.000000 1.650390 
# 
# From -- ./inp_files/62110.got.cif
#   From: 2010.05.17/outbox.cif.g08.bks.cpg/sg63_32_cif.got.tgz:62110.got - 2010.06.03 15:47:04.
