data_PCOD9475598
_publ_section_title
;
Structure prediction by ZEFSAII (Michael W. Deem and Ramdas Pophale) SiO2 
 PCOD9475598
Probable space group: C M C M
;
_chemical_formula_sum "Si O2"
_cell_formula_units_Z 64
_cell_length_a 10.363513
_cell_length_b 19.519911
_cell_length_c 16.507156
_cell_angle_alpha 90.000000
_cell_angle_beta 90.000000
_cell_angle_gamma 90.000000
_cell_volume 3339.312670
_symmetry_space_group_name_H-M "C M C M"
_symmetry_group_IT_number 63
_symmetry_cell_setting 'orthorhombic'
loop_
_space_group_symop_operation_xyz
x,y,z
-x,-y,1/2+z
x,-y,-z
-x,y,1/2-z
-x,-y,-z
x,y,1/2-z
-x,y,z
x,-y,1/2+z
1/2+x,1/2+y,z
1/2-x,1/2-y,1/2+z
1/2+x,1/2-y,-z
1/2-x,1/2+y,1/2-z
1/2-x,1/2-y,-z
1/2+x,1/2+y,1/2-z
1/2-x,1/2+y,z
1/2+x,1/2-y,1/2+z
loop_
_atom_site_type_symbol
_atom_site_label
_atom_site_fract_x
_atom_site_fract_y
_atom_site_fract_z
Si Si1 0.000000 0.815761 0.071425
Si Si2 0.500000 0.248104 0.250000
Si Si3 0.500000 0.789177 0.418106
Si Si4 0.777166 0.636604 0.250000
Si Si5 0.500000 0.704364 0.250000
Si Si6 0.653705 0.035405 0.106735
Si Si7 0.732417 0.895224 0.437529
O O1 0.871846 0.861138 0.061546
O O2 0.000000 0.787225 0.163710
O O3 0.000000 0.758371 0.999421
O O4 0.372286 0.201299 0.250000
O O5 0.500000 0.747386 0.333910
O O6 0.625727 0.837675 0.419662
O O7 0.629996 0.660075 0.250000
O O8 0.810732 0.589723 0.325882
O O9 0.500000 0.024188 0.103650
O O10 0.719210 0.961488 0.120255
O O11 0.697837 0.070908 0.023658
#
# Coordination Sequence:
#
# PCOD9475598 Si02
#       7
#     8   4   8   8   4  16  16
#     4  12  26  40  64  98 132 170 204 262 326 366
#     4  12  24  44  64  92 132 170 216 248 308 408
#     4  12  22  44  64  90 134 174 208 252 312 386
#     4  12  24  42  67  91 127 167 212 263 317 369
#     4  12  28  40  62 102 130 164 212 262 314 382
#     4  11  21  42  68  91 121 167 218 263 308 381
#     4  11  23  41  67  93 125 165 214 261 315 375
#
# _framework density 19.165619
#
# number of rings (size 3 to 8) (size 9 to 14) (size 15 to 20)
#    0.000    0.500    3.750    6.000    0.000    5.000 
#    0.000    0.000    0.000    0.000    0.000    0.000 
#    0.000    0.000    0.000    0.000    0.000    0.000 
#
# Total GULP energy -178867.374637 kJ/mol
# GULP energy per Si atom -5589.605457 kJ/mol
# Density = 1.912200 g / cm^3
# Si number density = 19.165619 Si / 1000 Ang^3
#
#
#
# Elastic Constant Matrix: (Units=GPa)
#
#
# Indices 1 2 3 4 5 6 
#
# 1 163.4907 65.4630 8.7541 0.0000 0.0000 0.0000
# 2 65.4630 115.6785 41.6853 0.0000 0.0000 0.0000
# 3 8.7541 41.6853 94.8334 0.0000 0.0000 0.0000
# 4 0.0000 0.0000 0.0000 94.2836 0.0000 0.0000
# 5 0.0000 0.0000 0.0000 0.0000 16.4378 0.0000
# 6 0.0000 0.0000 0.0000 0.0000 0.0000 24.4305
#
#
#
# Elastic Compliance Matrix: (Units=1/GPa)
#
#
# Indices 1 2 3 4 5 6 
#
# 1 0.008085 -0.005117 0.001503 0.000000 0.000000 0.000000
# 2 -0.005117 0.013510 -0.005466 0.000000 0.000000 0.000000
# 3 0.001503 -0.005466 0.012809 0.000000 0.000000 0.000000
# 4 0.000000 0.000000 0.000000 0.010606 0.000000 0.000000
# 5 0.000000 0.000000 0.000000 0.000000 0.060835 0.000000
# 6 0.000000 0.000000 0.000000 0.000000 0.000000 0.040933
#
#
# Mechanical properties :
#
#
# Convention : Reuss Voigt Hill
#
# Bulk Modulus (GPa) = 61.56338 67.31194 64.43766
# Shear Modulus (GPa) = 29.35088 44.23706 36.79397
#
# Velocity S-wave (km/s) = 3.91760 4.80953 4.38629
# Velocity P-wave (km/s) = 7.25637 8.12647 7.70372
#
# Compressibility (1/GPa) = 0.01624342
#
# Stress axis : x y z
#
# Youngs Moduli (GPa) = 123.68718 74.01885 78.07124
#
# Poissons Ratio (x) = 0.37874 -0.11733
# Poissons Ratio (y) = 0.63289 0.42675
# Poissons Ratio (z) = -0.18588 0.40460
#
# Static dielectric constant tensor:
#      x y z
#    x 1.622870 0.000000 0.000000 
#    y 0.000000 1.659800 0.000000 
#    z 0.000000 0.000000 1.875530 
# 
# From -- ./inp_files/41825.got.cif
#   From: 2010.05.17/outbox.cif.g08.bks.cpg/sg63_21_cif.got.tgz:41825.got - 2010.06.03 15:47:04.
