data_PCOD9475577
_publ_section_title
;
Structure prediction by ZEFSAII (Michael W. Deem and Ramdas Pophale) SiO2 
 PCOD9475577
Probable space group: C M C M
;
_chemical_formula_sum "Si O2"
_cell_formula_units_Z 116
_cell_length_a 16.226018
_cell_length_b 17.944988
_cell_length_c 19.990018
_cell_angle_alpha 90.000000
_cell_angle_beta 90.000000
_cell_angle_gamma 90.000000
_cell_volume 5820.607450
_symmetry_space_group_name_H-M "C M C M"
_symmetry_group_IT_number 63
_symmetry_cell_setting 'orthorhombic'
loop_
_space_group_symop_operation_xyz
x,y,z
-x,-y,1/2+z
x,-y,-z
-x,y,1/2-z
-x,-y,-z
x,y,1/2-z
-x,y,z
x,-y,1/2+z
1/2+x,1/2+y,z
1/2-x,1/2-y,1/2+z
1/2+x,1/2-y,-z
1/2-x,1/2+y,1/2-z
1/2-x,1/2-y,-z
1/2+x,1/2+y,1/2-z
1/2-x,1/2+y,z
1/2+x,1/2-y,1/2+z
loop_
_atom_site_type_symbol
_atom_site_label
_atom_site_fract_x
_atom_site_fract_y
_atom_site_fract_z
Si Si1 0.000000 0.109564 0.750000
Si Si2 0.598661 0.077033 0.963863
Si Si3 0.096201 0.114210 0.365230
Si Si4 0.180998 0.604727 0.823720
Si Si5 0.829150 0.719191 0.040332
Si Si6 0.094866 0.125548 0.979525
Si Si7 0.762505 0.224078 0.324496
Si Si8 0.360623 0.553143 0.847168
O O1 0.926529 0.103934 0.808058
O O2 0.500000 0.083943 0.966095
O O3 0.628469 0.079399 0.887118
O O4 0.637995 0.146246 0.003655
O O5 0.622538 0.000000 0.000000
O O6 0.119506 0.113446 0.443847
O O7 0.158325 0.170834 0.330748
O O8 0.000000 0.136085 0.359262
O O9 0.107413 0.030774 0.338731
O O10 0.141658 0.597445 0.750000
O O11 0.206134 0.691329 0.833753
O O12 0.267761 0.561579 0.822858
O O13 0.892983 0.787516 0.036963
O O14 0.800552 0.705648 0.116234
O O15 0.750000 0.750000 0.000000
O O16 0.141936 0.077606 0.924664
O O17 0.000000 0.102970 0.974243
O O18 0.726576 0.217765 0.250000
#
# Coordination Sequence:
#
# PCOD9475577 Si02
#       8
#     4  16  16  16  16  16  16  16
#     4  12  24  40  58  92 154 192 204 258 330 416
#     4  11  26  47  71  99 133 178 232 289 347 399
#     4  11  24  39  62  94 134 169 212 265 330 396
#     4  11  24  43  68  98 131 176 229 277 335 403
#     4  12  21  43  66  94 127 168 220 280 331 396
#     4  11  21  37  62  93 121 166 215 270 317 381
#     4  11  25  41  62  94 134 173 218 274 332 401
#     4  12  23  39  61  95 139 178 215 258 328 404
#
# _framework density 19.929189999999998
#
# number of rings (size 3 to 8) (size 9 to 14) (size 15 to 20)
#    0.000    0.690    6.207    0.828    2.897    3.310 
#    0.000    1.379    0.000    2.069    0.000    0.000 
#    0.000    0.000    0.000    0.000    0.000    0.000 
#
# Total GULP energy -323785.940025 kJ/mol
# GULP energy per Si atom -5582.516207 kJ/mol
# Density = 1.988383 g / cm^3
# Si number density = 19.929190 Si / 1000 Ang^3
#
#
#
# Elastic Constant Matrix: (Units=GPa)
#
#
# Indices 1 2 3 4 5 6 
#
# 1 38.2952 28.9543 31.9213 0.0000 0.0000 0.0000
# 2 28.9543 63.7460 35.0556 0.0000 0.0000 0.0000
# 3 31.9213 35.0556 153.9889 0.0000 0.0000 0.0000
# 4 0.0000 0.0000 0.0000 229.6980 0.0000 0.0000
# 5 0.0000 0.0000 0.0000 0.0000 24.6026 0.0000
# 6 0.0000 0.0000 0.0000 0.0000 0.0000 23.9236
#
#
#
# Elastic Compliance Matrix: (Units=1/GPa)
#
#
# Indices 1 2 3 4 5 6 
#
# 1 0.043022 -0.016732 -0.005109 0.000000 0.000000 0.000000
# 2 -0.016732 0.024439 -0.002095 0.000000 0.000000 0.000000
# 3 -0.005109 -0.002095 0.008030 0.000000 0.000000 0.000000
# 4 0.000000 0.000000 0.000000 0.004354 0.000000 0.000000
# 5 0.000000 0.000000 0.000000 0.000000 0.040646 0.000000
# 6 0.000000 0.000000 0.000000 0.000000 0.000000 0.041800
#
#
# Mechanical properties :
#
#
# Convention : Reuss Voigt Hill
#
# Bulk Modulus (GPa) = 36.20656 49.76584 42.98620
# Shear Modulus (GPa) = 22.79256 66.31811 44.55533
#
# Velocity S-wave (km/s) = 3.38550 5.77487 4.73343
# Velocity P-wave (km/s) = 5.78698 8.33613 7.17566
#
# Compressibility (1/GPa) = 0.02761930
#
# Stress axis : x y z
#
# Youngs Moduli (GPa) = 23.24369 40.91793 124.53125
#
# Poissons Ratio (x) = 0.68462 0.63629
# Poissons Ratio (y) = 0.38890 0.26092
# Poissons Ratio (z) = 0.11876 0.08573
#
# Static dielectric constant tensor:
#      x y z
#    x 1.683350 0.000000 0.000000 
#    y 0.000000 1.694560 0.000000 
#    z 0.000000 0.000000 1.749580 
# 
# From -- ./inp_files/45902.got.cif
#   From: 2010.05.17/outbox.cif.g08.bks.cpg/sg63_23_cif.got.tgz:45902.got - 2010.06.03 15:47:04.
