data_PCOD9475863
_publ_section_title
;
Structure prediction by ZEFSAII (Michael W. Deem and Ramdas Pophale) SiO2 
 PCOD9475863
Probable space group: C M C M
;
_chemical_formula_sum "Si O2"
_cell_formula_units_Z 48
_cell_length_a 10.147887
_cell_length_b 28.612181
_cell_length_c 8.558534
_cell_angle_alpha 90.000000
_cell_angle_beta 90.000000
_cell_angle_gamma 90.000000
_cell_volume 2484.997560
_symmetry_space_group_name_H-M "C M C M"
_symmetry_group_IT_number 63
_symmetry_cell_setting 'orthorhombic'
loop_
_space_group_symop_operation_xyz
x,y,z
-x,-y,1/2+z
x,-y,-z
-x,y,1/2-z
-x,-y,-z
x,y,1/2-z
-x,y,z
x,-y,1/2+z
1/2+x,1/2+y,z
1/2-x,1/2-y,1/2+z
1/2+x,1/2-y,-z
1/2-x,1/2+y,1/2-z
1/2-x,1/2-y,-z
1/2+x,1/2+y,1/2-z
1/2-x,1/2+y,z
1/2+x,1/2-y,1/2+z
loop_
_atom_site_type_symbol
_atom_site_label
_atom_site_fract_x
_atom_site_fract_y
_atom_site_fract_z
Si Si1 0.344241 0.708839 0.938109
Si Si2 0.500000 0.447836 0.437457
Si Si3 0.500000 0.946584 0.436803
Si Si4 0.247567 0.108815 0.436849
O O1 0.342893 0.708973 0.750000
O O2 0.500000 0.712654 0.986360
O O3 0.250000 0.750000 0.000000
O O4 0.281426 0.660591 0.999242
O O5 0.500000 0.500000 0.500000
O O6 0.500000 0.446307 0.250000
O O7 0.625820 0.421824 0.505346
O O8 0.500000 0.948950 0.250000
O O9 0.375155 0.917106 0.496032
O O10 0.500000 0.000000 0.500000
O O11 0.255318 0.110315 0.250000
#
# Coordination Sequence:
#
# PCOD9475863 Si02
#       4
#    16   8   8  16
#     4  11  25  45  70 100 136 177 224 275 335 401
#     4  12  24  42  67  98 133 174 222 272 332 396
#     4  12  26  46  69  98 137 180 226 278 334 398
#     4  12  25  44  69  99 135 176 223 276 334 398
#
# _framework density 19.315913999999999
#
# number of rings (size 3 to 8) (size 9 to 14) (size 15 to 20)
#    0.000    0.333    1.667    8.000    2.333    2.000 
#    0.000    0.000    0.000    0.000    0.000    0.000 
#    0.000    0.000    0.000    0.000    0.000    0.000 
#
# Total GULP energy -134306.515369 kJ/mol
# GULP energy per Si atom -5596.104807 kJ/mol
# Density = 1.927195 g / cm^3
# Si number density = 19.315914 Si / 1000 Ang^3
#
#
#
# Elastic Constant Matrix: (Units=GPa)
#
#
# Indices 1 2 3 4 5 6 
#
# 1 226.6200 131.6758 82.2719 0.0000 0.0000 0.0000
# 2 131.6758 240.6035 82.3321 0.0000 0.0000 0.0000
# 3 82.2719 82.3321 173.9832 0.0000 0.0000 0.0000
# 4 0.0000 0.0000 0.0000 45.3265 0.0000 0.0000
# 5 0.0000 0.0000 0.0000 0.0000 39.2943 0.0000
# 6 0.0000 0.0000 0.0000 0.0000 0.0000 44.5366
#
#
#
# Elastic Compliance Matrix: (Units=1/GPa)
#
#
# Indices 1 2 3 4 5 6 
#
# 1 0.006894 -0.003171 -0.001759 0.000000 0.000000 0.000000
# 2 -0.003171 0.006418 -0.001538 0.000000 0.000000 0.000000
# 3 -0.001759 -0.001538 0.007307 0.000000 0.000000 0.000000
# 4 0.000000 0.000000 0.000000 0.022062 0.000000 0.000000
# 5 0.000000 0.000000 0.000000 0.000000 0.025449 0.000000
# 6 0.000000 0.000000 0.000000 0.000000 0.000000 0.022453
#
#
# Mechanical properties :
#
#
# Convention : Reuss Voigt Hill
#
# Bulk Modulus (GPa) = 130.15435 137.08517 133.61976
# Shear Modulus (GPa) = 47.13438 48.82659 47.98049
#
# Velocity S-wave (km/s) = 4.94518 5.03317 4.98937
# Velocity P-wave (km/s) = 10.00673 10.24213 10.12511
#
# Compressibility (1/GPa) = 0.00768319
#
# Stress axis : x y z
#
# Youngs Moduli (GPa) = 145.05960 155.82147 136.84977
#
# Poissons Ratio (x) = 0.49406 0.24078
# Poissons Ratio (y) = 0.45994 0.21042
# Poissons Ratio (z) = 0.25522 0.23959
#
# Static dielectric constant tensor:
#      x y z
#    x 1.641740 0.000000 0.000000 
#    y 0.000000 1.664770 0.000000 
#    z 0.000000 0.000000 1.645910 
# 
# From -- ./inp_files/2011.got.cif
#   From: 2010.05.17/outbox.cif.g08.bks.cpg/sg63_2_cif.got.tgz:2011.got - 2010.06.03 15:47:04.
