data_PCOD9475164
_publ_section_title
;
Structure prediction by ZEFSAII (Michael W. Deem and Ramdas Pophale) SiO2 
 PCOD9475164
Probable space group: C M C M
;
_chemical_formula_sum "Si O2"
_cell_formula_units_Z 48
_cell_length_a 11.767463
_cell_length_b 18.731287
_cell_length_c 9.015908
_cell_angle_alpha 90.000000
_cell_angle_beta 90.000000
_cell_angle_gamma 90.000000
_cell_volume 1987.283977
_symmetry_space_group_name_H-M "C M C M"
_symmetry_group_IT_number 63
_symmetry_cell_setting 'orthorhombic'
loop_
_space_group_symop_operation_xyz
x,y,z
-x,-y,1/2+z
x,-y,-z
-x,y,1/2-z
-x,-y,-z
x,y,1/2-z
-x,y,z
x,-y,1/2+z
1/2+x,1/2+y,z
1/2-x,1/2-y,1/2+z
1/2+x,1/2-y,-z
1/2-x,1/2+y,1/2-z
1/2-x,1/2-y,-z
1/2+x,1/2+y,1/2-z
1/2-x,1/2+y,z
1/2+x,1/2-y,1/2+z
loop_
_atom_site_type_symbol
_atom_site_label
_atom_site_fract_x
_atom_site_fract_y
_atom_site_fract_z
Si Si1 0.000000 0.575318 0.250000
Si Si2 0.315387 0.124000 0.482813
Si Si3 0.000000 0.738380 0.567841
Si Si4 0.702518 0.555332 0.750000
Si Si5 0.000000 0.170234 0.750000
Si Si6 0.134878 0.890701 0.750000
O O1 0.901343 0.584244 0.375537
O O2 0.386074 0.190828 0.544681
O O3 0.278536 0.070983 0.609545
O O4 0.200579 0.142239 0.390891
O O5 0.000000 0.753937 0.750000
O O6 0.000000 0.785794 0.409182
O O7 0.606731 0.616764 0.750000
O O8 0.655936 0.475782 0.750000
O O9 0.000000 0.885674 0.750000
#
# Coordination Sequence:
#
# PCOD9475164 Si02
#       6
#     4  16   8   8   4   8
#     4   8  19  42  68 102 136 190 235 306 376 458
#     4  10  22  45  76 104 146 192 251 321 389 453
#     4  11  23  54  78 111 155 199 267 337 387 448
#     4  12  25  44  69 113 153 201 252 307 390 477
#     4  12  29  46  76 114 156 212 269 314 380 470
#     4  11  24  44  74 108 156 201 241 313 397 478
#
# _framework density 24.153568
#
# number of rings (size 3 to 8) (size 9 to 14) (size 15 to 20)
#    0.000    1.333    2.500    4.000    2.333    2.667 
#    6.000   35.000    0.000    0.000    0.000    0.000 
#    0.000    0.000    0.000    0.000    0.000    0.000 
#
# Total GULP energy -133601.986535 kJ/mol
# GULP energy per Si atom -5566.749439 kJ/mol
# Density = 2.409859 g / cm^3
# Si number density = 24.153568 Si / 1000 Ang^3
#
#
#
# Elastic Constant Matrix: (Units=GPa)
#
#
# Indices 1 2 3 4 5 6 
#
# 1 211.0894 68.9443 106.9686 0.0000 0.0000 0.0000
# 2 68.9443 158.9422 77.5785 0.0000 0.0000 0.0000
# 3 106.9686 77.5785 230.8803 0.0000 0.0000 0.0000
# 4 0.0000 0.0000 0.0000 25.0862 0.0000 0.0000
# 5 0.0000 0.0000 0.0000 0.0000 -492.6319 0.0000
# 6 0.0000 0.0000 0.0000 0.0000 0.0000 -39.0732
#
#
#
# Elastic Compliance Matrix: (Units=1/GPa)
#
#
# Indices 1 2 3 4 5 6 
#
# 1 0.006522 -0.001620 -0.002477 0.000000 0.000000 0.000000
# 2 -0.001620 0.007928 -0.001914 0.000000 0.000000 0.000000
# 3 -0.002477 -0.001914 0.006122 0.000000 0.000000 0.000000
# 4 0.000000 0.000000 0.000000 0.039863 0.000000 0.000000
# 5 0.000000 0.000000 0.000000 0.000000 -0.002030 0.000000
# 6 0.000000 0.000000 0.000000 0.000000 0.000000 -0.025593
#
#
# Mechanical properties :
#
#
# Convention : Reuss Voigt Hill
#
# Bulk Modulus (GPa) = 116.94953 123.09941 120.02447
# Shear Modulus (GPa) = 104.85932 -78.16242 13.34845
#
# Velocity S-wave (km/s) = 6.59605 -5.69481 2.35340
# Velocity P-wave (km/s) = 10.32157 2.79907 7.56206
#
# Compressibility (1/GPa) = 0.00855070
#
# Stress axis : x y z
#
# Youngs Moduli (GPa) = 153.33361 126.13249 163.34633
#
# Poissons Ratio (x) = 0.20431 0.40466
# Poissons Ratio (y) = 0.24837 0.31256
# Poissons Ratio (z) = 0.37985 0.24136
#
# Static dielectric constant tensor:
#      x y z
#    x 1.973030 0.000000 0.000000 
#    y 0.000000 1.957190 0.000000 
#    z 0.000000 0.000000 1.912530 
# 
# From -- ./inp_files/2661.got.cif
#   From: 2010.05.17/outbox.cif.g08.bks.cpg/sg63_2_cif.got.tgz:2661.got - 2010.06.03 15:47:04.
