data_PCOD9475998
_publ_section_title
;
Structure prediction by ZEFSAII (Michael W. Deem and Ramdas Pophale) SiO2 
 PCOD9475998
Probable space group: C M C M
;
_chemical_formula_sum "Si O2"
_cell_formula_units_Z 72
_cell_length_a 13.776614
_cell_length_b 31.211369
_cell_length_c 7.356161
_cell_angle_alpha 90.000000
_cell_angle_beta 90.000000
_cell_angle_gamma 90.000000
_cell_volume 3163.053476
_symmetry_space_group_name_H-M "C M C M"
_symmetry_group_IT_number 63
_symmetry_cell_setting 'orthorhombic'
loop_
_space_group_symop_operation_xyz
x,y,z
-x,-y,1/2+z
x,-y,-z
-x,y,1/2-z
-x,-y,-z
x,y,1/2-z
-x,y,z
x,-y,1/2+z
1/2+x,1/2+y,z
1/2-x,1/2-y,1/2+z
1/2+x,1/2-y,-z
1/2-x,1/2+y,1/2-z
1/2-x,1/2-y,-z
1/2+x,1/2+y,1/2-z
1/2-x,1/2+y,z
1/2+x,1/2-y,1/2+z
loop_
_atom_site_type_symbol
_atom_site_label
_atom_site_fract_x
_atom_site_fract_y
_atom_site_fract_z
Si Si1 0.607187 0.788757 0.539721
Si Si2 0.106033 0.102215 0.028240
Si Si3 0.321179 0.305644 0.529398
Si Si4 0.791176 0.550747 0.032668
Si Si5 0.500000 0.051367 0.466917
O O1 0.603744 0.802625 0.750000
O O2 0.500000 0.797920 0.461547
O O3 0.626724 0.737596 0.533960
O O4 0.708781 0.807070 0.464859
O O5 0.106766 0.100863 0.250000
O O6 0.123784 0.151452 0.976988
O O7 0.000000 0.087289 0.968805
O O8 0.196524 0.074496 0.962580
O O9 0.319155 0.303225 0.750000
O O10 0.793025 0.557120 0.250000
O O11 0.895964 0.566906 0.962545
O O12 0.784436 0.500000 0.000000
O O13 0.500000 0.058265 0.250000
O O14 0.500000 0.000000 0.500000
#
# Coordination Sequence:
#
# PCOD9475998 Si02
#       5
#    16  16  16  16   8
#     4   9  17  29  45  67  93 117 145 187 230 262
#     4   9  17  29  45  66  91 117 149 186 220 258
#     4   9  17  30  47  66  88 120 155 182 217 269
#     4   9  17  30  47  67  89 115 146 182 221 262
#     4   8  14  26  44  64  84 108 140 174 214 260
#
# _framework density 22.762816000000001
#
# number of rings (size 3 to 8) (size 9 to 14) (size 15 to 20)
#    0.000    3.111    0.000    0.667    0.000    1.778 
#    2.000    1.111    0.000    1.333    0.000    0.000 
#    0.000    0.000    0.000    0.000    0.000    0.000 
#
# Total GULP energy -200851.196435 kJ/mol
# GULP energy per Si atom -5579.199901 kJ/mol
# Density = 2.271101 g / cm^3
# Si number density = 22.762816 Si / 1000 Ang^3
#
#
#
# Elastic Constant Matrix: (Units=GPa)
#
#
# Indices 1 2 3 4 5 6 
#
# 1 226.8456 38.1735 7.1006 0.0000 0.0000 0.0000
# 2 38.1735 23.1554 -8.2987 0.0000 0.0000 0.0000
# 3 7.1006 -8.2987 88.2098 0.0000 0.0000 0.0000
# 4 0.0000 0.0000 0.0000 10.2801 0.0000 0.0000
# 5 0.0000 0.0000 0.0000 0.0000 7.3774 0.0000
# 6 0.0000 0.0000 0.0000 0.0000 0.0000 21.4711
#
#
#
# Elastic Compliance Matrix: (Units=1/GPa)
#
#
# Indices 1 2 3 4 5 6 
#
# 1 0.006295 -0.010929 -0.001535 0.000000 0.000000 0.000000
# 2 -0.010929 0.063665 0.006869 0.000000 0.000000 0.000000
# 3 -0.001535 0.006869 0.012106 0.000000 0.000000 0.000000
# 4 0.000000 0.000000 0.000000 0.097275 0.000000 0.000000
# 5 0.000000 0.000000 0.000000 0.000000 0.135550 0.000000
# 6 0.000000 0.000000 0.000000 0.000000 0.000000 0.046574
#
#
# Mechanical properties :
#
#
# Convention : Reuss Voigt Hill
#
# Bulk Modulus (GPa) = 14.10869 45.79575 29.95222
# Shear Modulus (GPa) = 12.61733 27.90807 20.26270
#
# Velocity S-wave (km/s) = 2.35690 3.50528 2.98680
# Velocity P-wave (km/s) = 3.69029 6.04525 5.00816
#
# Compressibility (1/GPa) = 0.07087832
#
# Stress axis : x y z
#
# Youngs Moduli (GPa) = 158.84666 15.70725 82.60078
#
# Poissons Ratio (x) = 0.17166 0.12678
# Poissons Ratio (y) = 1.73596 -0.56741
# Poissons Ratio (z) = 0.24381 -0.10790
#
# Static dielectric constant tensor:
#      x y z
#    x 1.887700 0.000000 0.000000 
#    y 0.000000 1.775470 0.000000 
#    z 0.000000 0.000000 1.878780 
# 
# From -- ./inp_files/17568.got.cif
#   From: 2010.05.17/outbox.cif.g08.bks.cpg/sg63_9_cif.got.tgz:17568.got - 2010.06.03 15:47:04.
