data_PCOD9475379
_publ_section_title
;
Structure prediction by ZEFSAII (Michael W. Deem and Ramdas Pophale) SiO2 
 PCOD9475379
Probable space group: C M C M
;
_chemical_formula_sum "Si O2"
_cell_formula_units_Z 68
_cell_length_a 24.931500
_cell_length_b 14.115925
_cell_length_c 9.960068
_cell_angle_alpha 90.000000
_cell_angle_beta 90.000000
_cell_angle_gamma 90.000000
_cell_volume 3505.258525
_symmetry_space_group_name_H-M "C M C M"
_symmetry_group_IT_number 63
_symmetry_cell_setting 'orthorhombic'
loop_
_space_group_symop_operation_xyz
x,y,z
-x,-y,1/2+z
x,-y,-z
-x,y,1/2-z
-x,-y,-z
x,y,1/2-z
-x,y,z
x,-y,1/2+z
1/2+x,1/2+y,z
1/2-x,1/2-y,1/2+z
1/2+x,1/2-y,-z
1/2-x,1/2+y,1/2-z
1/2-x,1/2-y,-z
1/2+x,1/2+y,1/2-z
1/2-x,1/2+y,z
1/2+x,1/2-y,1/2+z
loop_
_atom_site_type_symbol
_atom_site_label
_atom_site_fract_x
_atom_site_fract_y
_atom_site_fract_z
Si Si1 0.761944 0.862015 0.250000
Si Si2 0.000000 0.284337 0.250000
Si Si3 0.250977 0.648542 0.250000
Si Si4 0.150765 0.572394 0.750000
Si Si5 0.828148 0.104895 0.484828
Si Si6 0.621699 0.138607 0.250000
Si Si7 0.100598 0.712138 0.543481
O O1 0.733510 0.759995 0.250000
O O2 0.714864 0.939584 0.250000
O O3 0.799734 0.868198 0.377417
O O4 0.046904 0.285442 0.368603
O O5 0.280020 0.603604 0.377692
O O6 0.186599 0.651533 0.250000
O O7 0.117361 0.475466 0.750000
O O8 0.136422 0.632420 0.617703
O O9 0.870338 0.185966 0.447621
O O10 0.852184 0.000000 0.500000
O O11 0.597653 0.183054 0.386407
#
# Coordination Sequence:
#
# PCOD9475379 Si02
#       7
#     8   4   8   8  16   8  16
#     4  12  21  38  58  95 138 176 208 240 298 367
#     4  10  26  48  72  84 116 168 202 290 344 360
#     4  12  21  38  58  93 140 176 202 244 296 369
#     4  11  22  38  62  92 135 176 201 243 305 379
#     4  12  23  38  63  93 131 172 208 252 305 376
#     4  12  23  37  64  96 130 166 211 258 301 377
#     4  11  23  44  63  90 123 159 219 266 324 371
#
# _framework density 19.399425000000001
#
# number of rings (size 3 to 8) (size 9 to 14) (size 15 to 20)
#    0.000    0.471    4.706    5.647    0.000    0.471 
#    0.000   10.000    0.000    0.000    0.000    0.000 
#    0.000    0.000    0.000    0.000    0.000    0.000 
#
# Total GULP energy -189475.885704 kJ/mol
# GULP energy per Si atom -5572.820168 kJ/mol
# Density = 1.935527 g / cm^3
# Si number density = 19.399425 Si / 1000 Ang^3
#
#
#
# Elastic Constant Matrix: (Units=GPa)
#
#
# Indices 1 2 3 4 5 6 
#
# 1 115.1234 25.8840 57.0729 0.0000 0.0000 0.0000
# 2 25.8840 125.5756 29.3207 0.0000 0.0000 0.0000
# 3 57.0729 29.3207 175.9929 0.0000 0.0000 0.0000
# 4 0.0000 0.0000 0.0000 22.8503 0.0000 0.0000
# 5 0.0000 0.0000 0.0000 0.0000 34.9354 0.0000
# 6 0.0000 0.0000 0.0000 0.0000 0.0000 -1.4068
#
#
#
# Elastic Compliance Matrix: (Units=1/GPa)
#
#
# Indices 1 2 3 4 5 6 
#
# 1 0.010594 -0.001437 -0.003196 0.000000 0.000000 0.000000
# 2 -0.001437 0.008481 -0.000947 0.000000 0.000000 0.000000
# 3 -0.003196 -0.000947 0.006876 0.000000 0.000000 0.000000
# 4 0.000000 0.000000 0.000000 0.043763 0.000000 0.000000
# 5 0.000000 0.000000 0.000000 0.000000 0.028624 0.000000
# 6 0.000000 0.000000 0.000000 0.000000 0.000000 -0.710825
#
#
# Mechanical properties :
#
#
# Convention : Reuss Voigt Hill
#
# Bulk Modulus (GPa) = 67.61127 71.24968 69.43047
# Shear Modulus (GPa) = -8.38369 31.57006 11.59319
#
# Velocity S-wave (km/s) = -2.08110 4.03845 2.44725
# Velocity P-wave (km/s) = 5.39937 7.65198 6.62216
#
# Compressibility (1/GPa) = 0.01479043
#
# Stress axis : x y z
#
# Youngs Moduli (GPa) = 94.39328 117.91522 145.42849
#
# Poissons Ratio (x) = 0.16949 0.46480
# Poissons Ratio (y) = 0.13568 0.13769
# Poissons Ratio (z) = 0.30169 0.11164
#
# Static dielectric constant tensor:
#      x y z
#    x 1.628730 0.000000 0.000000 
#    y 0.000000 1.755560 0.000000 
#    z 0.000000 0.000000 1.678730 
# 
# From -- ./inp_files/11651.got.cif
#   From: 2010.05.17/outbox.cif.g08.bks.cpg/sg63_6_cif.got.tgz:11651.got - 2010.06.03 15:47:04.
