data_PCOD9475553
_publ_section_title
;
Structure prediction by ZEFSAII (Michael W. Deem and Ramdas Pophale) SiO2 
 PCOD9475553
Probable space group: C M C M
;
_chemical_formula_sum "Si O2"
_cell_formula_units_Z 80
_cell_length_a 18.608226
_cell_length_b 8.904952
_cell_length_c 25.753101
_cell_angle_alpha 90.000000
_cell_angle_beta 90.000000
_cell_angle_gamma 90.000000
_cell_volume 4267.426855
_symmetry_space_group_name_H-M "C M C M"
_symmetry_group_IT_number 63
_symmetry_cell_setting 'orthorhombic'
loop_
_space_group_symop_operation_xyz
x,y,z
-x,-y,1/2+z
x,-y,-z
-x,y,1/2-z
-x,-y,-z
x,y,1/2-z
-x,y,z
x,-y,1/2+z
1/2+x,1/2+y,z
1/2-x,1/2-y,1/2+z
1/2+x,1/2-y,-z
1/2-x,1/2+y,1/2-z
1/2-x,1/2-y,-z
1/2+x,1/2+y,1/2-z
1/2-x,1/2+y,z
1/2+x,1/2-y,1/2+z
loop_
_atom_site_type_symbol
_atom_site_label
_atom_site_fract_x
_atom_site_fract_y
_atom_site_fract_z
Si Si1 0.696300 0.853602 0.966916
Si Si2 0.800146 0.369905 0.310650
Si Si3 0.082247 0.369714 0.808426
Si Si4 0.916248 0.842698 0.408016
Si Si5 0.803471 0.931851 0.626236
O O1 0.627901 0.757690 0.948923
O O2 0.741810 0.904049 0.916589
O O3 0.750000 0.750000 0.000000
O O4 0.676521 0.000000 0.000000
O O5 0.791514 0.332848 0.250000
O O6 0.862318 0.494842 0.315918
O O7 0.817036 0.221999 0.343509
O O8 0.729088 0.446495 0.333960
O O9 0.094251 0.308207 0.750000
O O10 0.088984 0.247167 0.853348
O O11 0.000000 0.426151 0.810530
O O12 0.000000 0.861256 0.420834
O O13 0.873269 0.997587 0.400628
#
# Coordination Sequence:
#
# PCOD9475553 Si02
#       5
#    16  16  16  16  16
#     4  12  23  42  68  89 119 164 210 264 319 372
#     4  11  21  35  62  94 126 165 215 256 301 378
#     4   9  19  37  60  89 129 169 203 251 313 371
#     4  11  24  42  65  95 128 162 209 260 316 377
#     4  12  22  40  60  92 126 164 208 258 315 368
#
# _framework density 18.746659999999999
#
# number of rings (size 3 to 8) (size 9 to 14) (size 15 to 20)
#    0.000    1.000    6.000    0.600    0.000    4.400 
#    0.000    2.000    0.000    0.000    0.000    0.000 
#    0.000    0.000    0.000    0.000    0.000    0.000 
#
# Total GULP energy -223541.046495 kJ/mol
# GULP energy per Si atom -5588.526162 kJ/mol
# Density = 1.870399 g / cm^3
# Si number density = 18.746660 Si / 1000 Ang^3
#
#
#
# Elastic Constant Matrix: (Units=GPa)
#
#
# Indices 1 2 3 4 5 6 
#
# 1 114.6232 8.4224 9.7577 0.0000 0.0000 0.0000
# 2 8.4224 35.5245 -6.0996 0.0000 0.0000 0.0000
# 3 9.7577 -6.0996 52.5703 0.0000 0.0000 0.0000
# 4 0.0000 0.0000 0.0000 34.5762 0.0000 0.0000
# 5 0.0000 0.0000 0.0000 0.0000 29.5865 0.0000
# 6 0.0000 0.0000 0.0000 0.0000 0.0000 27.8018
#
#
#
# Elastic Compliance Matrix: (Units=1/GPa)
#
#
# Indices 1 2 3 4 5 6 
#
# 1 0.009075 -0.002490 -0.001973 0.000000 0.000000 0.000000
# 2 -0.002490 0.029405 0.003874 0.000000 0.000000 0.000000
# 3 -0.001973 0.003874 0.019838 0.000000 0.000000 0.000000
# 4 0.000000 0.000000 0.000000 0.028922 0.000000 0.000000
# 5 0.000000 0.000000 0.000000 0.000000 0.033799 0.000000
# 6 0.000000 0.000000 0.000000 0.000000 0.000000 0.035969
#
#
# Mechanical properties :
#
#
# Convention : Reuss Voigt Hill
#
# Bulk Modulus (GPa) = 17.50128 25.20879 21.35503
# Shear Modulus (GPa) = 28.21129 31.10206 29.65668
#
# Velocity S-wave (km/s) = 3.88347 4.07759 3.98172
# Velocity P-wave (km/s) = 5.42812 5.97037 5.70569
#
# Compressibility (1/GPa) = 0.05713868
#
# Stress axis : x y z
#
# Youngs Moduli (GPa) = 110.19003 34.00761 50.40851
#
# Poissons Ratio (x) = 0.08469 0.09948
# Poissons Ratio (y) = 0.27442 -0.19529
# Poissons Ratio (z) = 0.21745 -0.13175
#
# Static dielectric constant tensor:
#      x y z
#    x 1.648600 0.000000 0.000000 
#    y 0.000000 1.627880 0.000000 
#    z 0.000000 0.000000 1.671520 
# 
# From -- ./inp_files/69722.got.cif
#   From: 2010.05.17/outbox.cif.g08.bks.cpg/sg63_35_cif.got.tgz:69722.got - 2010.06.03 15:47:04.
