data_PCOD9475304
_publ_section_title
;
Structure prediction by ZEFSAII (Michael W. Deem and Ramdas Pophale) SiO2 
 PCOD9475304
Probable space group: C M C M
;
_chemical_formula_sum "Si O2"
_cell_formula_units_Z 68
_cell_length_a 20.296377
_cell_length_b 18.447437
_cell_length_c 9.277476
_cell_angle_alpha 90.000000
_cell_angle_beta 90.000000
_cell_angle_gamma 90.000000
_cell_volume 3473.636716
_symmetry_space_group_name_H-M "C M C M"
_symmetry_group_IT_number 63
_symmetry_cell_setting 'orthorhombic'
loop_
_space_group_symop_operation_xyz
x,y,z
-x,-y,1/2+z
x,-y,-z
-x,y,1/2-z
-x,-y,-z
x,y,1/2-z
-x,y,z
x,-y,1/2+z
1/2+x,1/2+y,z
1/2-x,1/2-y,1/2+z
1/2+x,1/2-y,-z
1/2-x,1/2+y,1/2-z
1/2-x,1/2-y,-z
1/2+x,1/2+y,1/2-z
1/2-x,1/2+y,z
1/2+x,1/2-y,1/2+z
loop_
_atom_site_type_symbol
_atom_site_label
_atom_site_fract_x
_atom_site_fract_y
_atom_site_fract_z
Si Si1 0.000000 0.385326 0.963849
Si Si2 0.123641 0.150519 0.078661
Si Si3 0.500000 0.578370 0.575837
Si Si4 0.762663 0.574515 0.080059
Si Si5 0.500000 0.976412 0.250000
Si Si6 0.364266 0.800321 0.581015
O O1 0.935585 0.337419 0.931627
O O2 0.000000 0.457773 0.869806
O O3 0.000000 0.413863 0.125311
O O4 0.107958 0.151808 0.250000
O O5 0.187683 0.100007 0.058472
O O6 0.063817 0.120018 0.984194
O O7 0.139779 0.230217 0.019236
O O8 0.500000 0.500000 0.500000
O O9 0.500000 0.573397 0.750000
O O10 0.773552 0.563021 0.250000
O O11 0.810875 0.639477 0.035703
O O12 0.777029 0.500000 0.000000
O O13 0.352521 0.781384 0.750000
#
# Coordination Sequence:
#
# PCOD9475304 Si02
#       6
#     8  16   8  16   4  16
#     4  11  23  39  61  90 124 161 211 250 312 361
#     4  11  24  43  64  94 127 164 211 259 316 378
#     4  12  25  43  71  96 125 162 206 262 319 375
#     4  10  24  41  63  92 126 164 212 260 311 373
#     4  10  24  38  60  86 130 160 202 264 300 362
#     4  11  23  40  63  92 129 169 209 256 313 370
#
# _framework density 19.576025999999999
#
# number of rings (size 3 to 8) (size 9 to 14) (size 15 to 20)
#    0.000    1.176    1.176    3.882    4.941    4.706 
#    0.000    0.000    0.000    0.000    0.000    0.000 
#    0.000    0.000    0.000    0.000    0.000    0.000 
#
# Total GULP energy -189574.658293 kJ/mol
# GULP energy per Si atom -5575.725244 kJ/mol
# Density = 1.953147 g / cm^3
# Si number density = 19.576026 Si / 1000 Ang^3
#
#
#
# Elastic Constant Matrix: (Units=GPa)
#
#
# Indices 1 2 3 4 5 6 
#
# 1 86.5422 37.4995 40.6203 0.0000 0.0000 0.0000
# 2 37.4995 131.8441 64.0469 0.0000 0.0000 0.0000
# 3 40.6203 64.0469 144.6646 0.0000 0.0000 0.0000
# 4 0.0000 0.0000 0.0000 45.6193 0.0000 0.0000
# 5 0.0000 0.0000 0.0000 0.0000 -46.9925 0.0000
# 6 0.0000 0.0000 0.0000 0.0000 0.0000 127.3293
#
#
#
# Elastic Compliance Matrix: (Units=1/GPa)
#
#
# Indices 1 2 3 4 5 6 
#
# 1 0.013995 -0.002639 -0.002761 0.000000 0.000000 0.000000
# 2 -0.002639 0.010161 -0.003757 0.000000 0.000000 0.000000
# 3 -0.002761 -0.003757 0.009351 0.000000 0.000000 0.000000
# 4 0.000000 0.000000 0.000000 0.021921 0.000000 0.000000
# 5 0.000000 0.000000 0.000000 0.000000 -0.021280 0.000000
# 6 0.000000 0.000000 0.000000 0.000000 0.000000 0.007854
#
#
# Mechanical properties :
#
#
# Convention : Reuss Voigt Hill
#
# Bulk Modulus (GPa) = 65.82692 71.93161 68.87926
# Shear Modulus (GPa) = 76.47651 39.91683 58.19667
#
# Velocity S-wave (km/s) = 6.25709 4.52050 5.45830
# Velocity P-wave (km/s) = 9.26828 8.00444 8.65945
#
# Compressibility (1/GPa) = 0.01519135
#
# Stress axis : x y z
#
# Youngs Moduli (GPa) = 71.45621 98.41981 106.93689
#
# Poissons Ratio (x) = 0.25974 0.29527
# Poissons Ratio (y) = 0.18858 0.40180
# Poissons Ratio (z) = 0.19730 0.36980
#
# Static dielectric constant tensor:
#      x y z
#    x 1.691290 0.000000 0.000000 
#    y 0.000000 1.649110 0.000000 
#    z 0.000000 0.000000 1.666930 
# 
# From -- ./inp_files/7645.got.cif
#   From: 2010.05.17/outbox.cif.g08.bks.cpg/sg63_4_cif.got.tgz:7645.got - 2010.06.03 15:47:04.
