data_PCOD9475422
_publ_section_title
;
Structure prediction by ZEFSAII (Michael W. Deem and Ramdas Pophale) SiO2 
 PCOD9475422
Probable space group: C M C M
;
_chemical_formula_sum "Si O2"
_cell_formula_units_Z 96
_cell_length_a 7.477793
_cell_length_b 24.865418
_cell_length_c 27.129638
_cell_angle_alpha 90.000000
_cell_angle_beta 90.000000
_cell_angle_gamma 90.000000
_cell_volume 5044.442802
_symmetry_space_group_name_H-M "C M C M"
_symmetry_group_IT_number 63
_symmetry_cell_setting 'orthorhombic'
loop_
_space_group_symop_operation_xyz
x,y,z
-x,-y,1/2+z
x,-y,-z
-x,y,1/2-z
-x,-y,-z
x,y,1/2-z
-x,y,z
x,-y,1/2+z
1/2+x,1/2+y,z
1/2-x,1/2-y,1/2+z
1/2+x,1/2-y,-z
1/2-x,1/2+y,1/2-z
1/2-x,1/2-y,-z
1/2+x,1/2+y,1/2-z
1/2-x,1/2+y,z
1/2+x,1/2-y,1/2+z
loop_
_atom_site_type_symbol
_atom_site_label
_atom_site_fract_x
_atom_site_fract_y
_atom_site_fract_z
Si Si1 0.214805 0.669933 0.390958
Si Si2 0.219159 0.394443 0.428337
Si Si3 0.207192 0.724809 0.946318
Si Si4 0.282082 0.996719 0.121908
Si Si5 0.217301 0.422937 0.536628
Si Si6 0.781325 0.409733 0.806234
O O1 0.264577 0.730282 0.404574
O O2 0.273436 0.631908 0.436189
O O3 0.275680 0.640015 0.341198
O O4 0.000000 0.668112 0.390206
O O5 0.286749 0.333117 0.431460
O O6 0.276168 0.435140 0.385007
O O7 0.272661 0.421308 0.480365
O O8 0.000000 0.394154 0.426566
O O9 0.000000 0.713464 0.950471
O O10 0.250000 0.750000 0.000000
O O11 0.500000 0.997009 0.123279
O O12 0.227658 0.029207 0.072583
O O13 0.225272 0.034602 0.167186
O O14 0.000000 0.424211 0.536133
O O15 0.721884 0.405633 0.750000
O O16 0.000000 0.409450 0.806194
#
# Coordination Sequence:
#
# PCOD9475422 Si02
#       6
#    16  16  16  16  16  16
#     4   9  16  28  44  64  89 115 146 182 219 258
#     4   9  15  22  34  55  84 114 143 172 206 253
#     4  11  20  29  42  61  90 124 157 184 212 257
#     4   8  13  20  34  58  85 108 133 171 218 261
#     4   8  12  20  35  56  81 107 137 171 205 247
#     4   8  14  25  44  68  88 106 136 184 233 268
#
# _framework density 19.030843999999998
#
# number of rings (size 3 to 8) (size 9 to 14) (size 15 to 20)
#    0.000    3.167    1.667    3.000    0.000    2.000 
#    0.000    0.000    0.000    1.500    0.000   16.333 
#    0.000    0.000    0.000    0.000    0.000    0.000 
#
# Total GULP energy -267342.695386 kJ/mol
# GULP energy per Si atom -5569.639487 kJ/mol
# Density = 1.898753 g / cm^3
# Si number density = 19.030844 Si / 1000 Ang^3
#
#
#
# Elastic Constant Matrix: (Units=GPa)
#
#
# Indices 1 2 3 4 5 6 
#
# 1 47.7673 -3.4445 -3.7445 0.0000 0.0000 0.0000
# 2 -3.4445 122.5324 52.1858 0.0000 0.0000 0.0000
# 3 -3.7445 52.1858 97.7900 0.0000 0.0000 0.0000
# 4 0.0000 0.0000 0.0000 10.7358 0.0000 0.0000
# 5 0.0000 0.0000 0.0000 0.0000 0.2386 0.0000
# 6 0.0000 0.0000 0.0000 0.0000 0.0000 9.7010
#
#
#
# Elastic Compliance Matrix: (Units=1/GPa)
#
#
# Indices 1 2 3 4 5 6 
#
# 1 0.021008 0.000321 0.000633 0.000000 0.000000 0.000000
# 2 0.000321 0.010566 -0.005627 0.000000 0.000000 0.000000
# 3 0.000633 -0.005627 0.013253 0.000000 0.000000 0.000000
# 4 0.000000 0.000000 0.000000 0.093146 0.000000 0.000000
# 5 0.000000 0.000000 0.000000 0.000000 4.190285 0.000000
# 6 0.000000 0.000000 0.000000 0.000000 0.000000 0.103082
#
#
# Mechanical properties :
#
#
# Convention : Reuss Voigt Hill
#
# Bulk Modulus (GPa) = 28.18332 39.78700 33.98516
# Shear Modulus (GPa) = 1.12296 19.00796 10.06546
#
# Velocity S-wave (km/s) = 0.76900 3.16380 2.30228
# Velocity P-wave (km/s) = 3.95347 5.85647 4.99640
#
# Compressibility (1/GPa) = 0.03548198
#
# Stress axis : x y z
#
# Youngs Moduli (GPa) = 47.60181 94.63938 75.45551
#
# Poissons Ratio (x) = -0.03037 -0.04778
# Poissons Ratio (y) = -0.01527 0.42455
# Poissons Ratio (z) = -0.03014 0.53249
#
# Static dielectric constant tensor:
#      x y z
#    x 1.749980 0.000000 0.000000 
#    y 0.000000 1.721920 0.000000 
#    z 0.000000 0.000000 1.600440 
# 
# From -- ./inp_files/67186.got.cif
#   From: 2010.05.17/outbox.cif.g08.bks.cpg/sg63_34_cif.got.tgz:67186.got - 2010.06.03 15:47:04.
