data_PCOD9475179
_publ_section_title
;
Structure prediction by ZEFSAII (Michael W. Deem and Ramdas Pophale) SiO2 
 PCOD9475179
Probable space group: C M C M
;
_chemical_formula_sum "Si O2"
_cell_formula_units_Z 68
_cell_length_a 12.169655
_cell_length_b 23.133704
_cell_length_c 12.461604
_cell_angle_alpha 90.000000
_cell_angle_beta 90.000000
_cell_angle_gamma 90.000000
_cell_volume 3508.305362
_symmetry_space_group_name_H-M "C M C M"
_symmetry_group_IT_number 63
_symmetry_cell_setting 'orthorhombic'
loop_
_space_group_symop_operation_xyz
x,y,z
-x,-y,1/2+z
x,-y,-z
-x,y,1/2-z
-x,-y,-z
x,y,1/2-z
-x,y,z
x,-y,1/2+z
1/2+x,1/2+y,z
1/2-x,1/2-y,1/2+z
1/2+x,1/2-y,-z
1/2-x,1/2+y,1/2-z
1/2-x,1/2-y,-z
1/2+x,1/2+y,1/2-z
1/2-x,1/2+y,z
1/2+x,1/2-y,1/2+z
loop_
_atom_site_type_symbol
_atom_site_label
_atom_site_fract_x
_atom_site_fract_y
_atom_site_fract_z
Si Si1 0.805354 0.054119 0.923106
Si Si2 0.759473 0.841538 0.556746
Si Si3 0.628804 0.041355 0.750000
Si Si4 0.870718 0.598401 0.250000
Si Si5 0.869094 0.725180 0.629541
Si Si6 0.000000 0.039345 0.750000
O O1 0.694306 0.063555 0.853911
O O2 0.903561 0.040970 0.842647
O O3 0.829221 0.110214 0.994749
O O4 0.786898 0.000000 0.000000
O O5 0.686905 0.874055 0.645876
O O6 0.830797 0.791297 0.611251
O O7 0.685344 0.811077 0.465760
O O8 0.500000 0.056324 0.750000
O O9 0.640269 0.971226 0.750000
O O10 0.000000 0.612067 0.250000
O O11 0.833597 0.707019 0.750000
O O12 0.000000 0.720974 0.623684
#
# Coordination Sequence:
#
# PCOD9475179 Si02
#       6
#    16  16   8   8  16   4
#     4  11  23  43  65  95 132 169 216 262 321 389
#     4  11  23  41  65  94 127 168 213 268 317 381
#     4  10  23  39  60  96 134 170 207 262 322 388
#     4  11  21  39  64  95 133 169 211 258 323 387
#     4  10  23  43  64  90 123 166 216 267 321 378
#     4  10  26  42  60  98 132 178 212 262 318 380
#
# _framework density 19.382577000000001
#
# number of rings (size 3 to 8) (size 9 to 14) (size 15 to 20)
#    0.000    1.412    3.529    1.059    4.941    2.353 
#    0.000    0.000    5.176    0.000    0.000    0.000 
#    0.000    0.000    0.000    0.000    0.000    0.000 
#
# Total GULP energy -189464.582544 kJ/mol
# GULP energy per Si atom -5572.487722 kJ/mol
# Density = 1.933846 g / cm^3
# Si number density = 19.382577 Si / 1000 Ang^3
#
#
#
# Elastic Constant Matrix: (Units=GPa)
#
#
# Indices 1 2 3 4 5 6 
#
# 1 64.0933 -14.5896 24.1185 0.0000 0.0000 0.0000
# 2 -14.5896 46.0262 9.7548 0.0000 0.0000 0.0000
# 3 24.1185 9.7548 123.9951 0.0000 0.0000 0.0000
# 4 0.0000 0.0000 0.0000 -421.3531 0.0000 0.0000
# 5 0.0000 0.0000 0.0000 0.0000 13.0322 0.0000
# 6 0.0000 0.0000 0.0000 0.0000 0.0000 14.5712
#
#
#
# Elastic Compliance Matrix: (Units=1/GPa)
#
#
# Indices 1 2 3 4 5 6 
#
# 1 0.018728 0.006822 -0.004180 0.000000 0.000000 0.000000
# 2 0.006822 0.024580 -0.003261 0.000000 0.000000 0.000000
# 3 -0.004180 -0.003261 0.009134 0.000000 0.000000 0.000000
# 4 0.000000 0.000000 0.000000 -0.002373 0.000000 0.000000
# 5 0.000000 0.000000 0.000000 0.000000 0.076733 0.000000
# 6 0.000000 0.000000 0.000000 0.000000 0.000000 0.068628
#
#
# Mechanical properties :
#
#
# Convention : Reuss Voigt Hill
#
# Bulk Modulus (GPa) = 19.52871 30.29802 24.91336
# Shear Modulus (GPa) = 23.39334 -64.42790 -20.51728
#
# Velocity S-wave (km/s) = 3.47785 -5.77168 -3.25705
# Velocity P-wave (km/s) = 5.12099 5.36198 1.12390
#
# Compressibility (1/GPa) = 0.05120666
#
# Stress axis : x y z
#
# Youngs Moduli (GPa) = 53.39604 40.68282 109.47707
#
# Poissons Ratio (x) = -0.27755 0.45756
# Poissons Ratio (y) = -0.36428 0.35698
# Poissons Ratio (z) = 0.22317 0.13266
#
# Static dielectric constant tensor:
#      x y z
#    x 1.628210 0.000000 0.000000 
#    y 0.000000 1.684650 0.000000 
#    z 0.000000 0.000000 1.728160 
# 
# From -- ./inp_files/17643.got.cif
#   From: 2010.05.17/outbox.cif.g08.bks.cpg/sg63_9_cif.got.tgz:17643.got - 2010.06.03 15:47:04.
