data_PCOD9475715
_publ_section_title
;
Structure prediction by ZEFSAII (Michael W. Deem and Ramdas Pophale) SiO2 
 PCOD9475715
Probable space group: C M C M
;
_chemical_formula_sum "Si O2"
_cell_formula_units_Z 96
_cell_length_a 17.834025
_cell_length_b 30.842543
_cell_length_c 7.569396
_cell_angle_alpha 90.000000
_cell_angle_beta 90.000000
_cell_angle_gamma 90.000000
_cell_volume 4163.521162
_symmetry_space_group_name_H-M "C M C M"
_symmetry_group_IT_number 63
_symmetry_cell_setting 'orthorhombic'
loop_
_space_group_symop_operation_xyz
x,y,z
-x,-y,1/2+z
x,-y,-z
-x,y,1/2-z
-x,-y,-z
x,y,1/2-z
-x,y,z
x,-y,1/2+z
1/2+x,1/2+y,z
1/2-x,1/2-y,1/2+z
1/2+x,1/2-y,-z
1/2-x,1/2+y,1/2-z
1/2-x,1/2-y,-z
1/2+x,1/2+y,1/2-z
1/2-x,1/2+y,z
1/2+x,1/2-y,1/2+z
loop_
_atom_site_type_symbol
_atom_site_label
_atom_site_fract_x
_atom_site_fract_y
_atom_site_fract_z
Si Si1 0.190770 0.287005 0.058969
Si Si2 0.196624 0.952023 0.461501
Si Si3 0.867867 0.548088 0.961582
Si Si4 0.416872 0.857877 0.467054
Si Si5 0.913345 0.877433 0.466100
Si Si6 0.911157 0.783040 0.454857
O O1 0.218402 0.301833 0.250000
O O2 0.154980 0.329662 0.969005
O O3 0.250000 0.250000 0.000000
O O4 0.117314 0.256913 0.064534
O O5 0.200685 0.946700 0.250000
O O6 0.166934 0.000000 0.500000
O O7 0.281893 0.950130 0.529836
O O8 0.141232 0.915078 0.528324
O O9 0.865527 0.550911 0.750000
O O10 0.908601 0.591822 0.020979
O O11 0.898775 0.500000 0.000000
O O12 0.414874 0.855876 0.250000
O O13 0.500000 0.842084 0.521702
O O14 0.914924 0.877044 0.250000
O O15 0.882843 0.829963 0.517021
O O16 0.000000 0.883037 0.522767
O O17 0.889781 0.775557 0.250000
O O18 0.000000 0.786613 0.460276
#
# Coordination Sequence:
#
# PCOD9475715 Si02
#       6
#    16  16  16  16  16  16
#     4  11  23  37  56  82 111 145 183 227 273 324
#     4   9  17  29  47  69  97 133 172 216 264 315
#     4   9  18  33  54  79 105 138 176 220 268 321
#     4   9  19  36  58  82 108 142 183 222 266 327
#     4   8  15  28  48  72  97 133 178 216 256 315
#     4   9  18  34  56  79 106 141 180 223 268 319
#
# _framework density 23.057407999999999
#
# number of rings (size 3 to 8) (size 9 to 14) (size 15 to 20)
#    0.000    2.833    0.000    2.000    2.333    1.667 
#    0.000    2.500    0.000    3.000    0.000    0.000 
#    0.000    0.000    0.000    0.000    0.000    0.000 
#
# Total GULP energy -267570.526815 kJ/mol
# GULP energy per Si atom -5574.385975 kJ/mol
# Density = 2.300493 g / cm^3
# Si number density = 23.057408 Si / 1000 Ang^3
#
#
#
# Elastic Constant Matrix: (Units=GPa)
#
#
# Indices 1 2 3 4 5 6 
#
# 1 54.6131 37.0450 2.6251 0.0000 0.0000 0.0000
# 2 37.0450 128.5502 -0.1962 0.0000 0.0000 0.0000
# 3 2.6251 -0.1962 49.2844 0.0000 0.0000 0.0000
# 4 0.0000 0.0000 0.0000 18.3410 0.0000 0.0000
# 5 0.0000 0.0000 0.0000 0.0000 10.5591 0.0000
# 6 0.0000 0.0000 0.0000 0.0000 0.0000 40.4920
#
#
#
# Elastic Compliance Matrix: (Units=1/GPa)
#
#
# Indices 1 2 3 4 5 6 
#
# 1 0.022835 -0.006582 -0.001243 0.000000 0.000000 0.000000
# 2 -0.006582 0.009677 0.000389 0.000000 0.000000 0.000000
# 3 -0.001243 0.000389 0.020358 0.000000 0.000000 0.000000
# 4 0.000000 0.000000 0.000000 0.054523 0.000000 0.000000
# 5 0.000000 0.000000 0.000000 0.000000 0.094705 0.000000
# 6 0.000000 0.000000 0.000000 0.000000 0.000000 0.024696
#
#
# Mechanical properties :
#
#
# Convention : Reuss Voigt Hill
#
# Bulk Modulus (GPa) = 26.31696 34.59952 30.45824
# Shear Modulus (GPa) = 19.65937 26.74335 23.20136
#
# Velocity S-wave (km/s) = 2.92315 3.40937 3.17557
# Velocity P-wave (km/s) = 4.77823 5.52601 5.16567
#
# Compressibility (1/GPa) = 0.03799830
#
# Stress axis : x y z
#
# Youngs Moduli (GPa) = 43.79170 103.34243 49.12041
#
# Poissons Ratio (x) = 0.68025 0.06103
# Poissons Ratio (y) = 0.28826 -0.01911
# Poissons Ratio (z) = 0.05441 -0.04021
#
# Static dielectric constant tensor:
#      x y z
#    x 1.884740 0.000000 0.000000 
#    y 0.000000 1.866410 0.000000 
#    z 0.000000 0.000000 2.303200 
# 
# From -- ./inp_files/8636.got.cif
#   From: 2010.05.17/outbox.cif.g08.bks.cpg/sg63_5_cif.got.tgz:8636.got - 2010.06.03 15:47:04.
