data_PCOD9475791
_publ_section_title
;
Structure prediction by ZEFSAII (Michael W. Deem and Ramdas Pophale) SiO2 
 PCOD9475791
Probable space group: C M C M
;
_chemical_formula_sum "Si O2"
_cell_formula_units_Z 64
_cell_length_a 10.970298
_cell_length_b 20.135242
_cell_length_c 14.042756
_cell_angle_alpha 90.000000
_cell_angle_beta 90.000000
_cell_angle_gamma 90.000000
_cell_volume 3101.898827
_symmetry_space_group_name_H-M "C M C M"
_symmetry_group_IT_number 63
_symmetry_cell_setting 'orthorhombic'
loop_
_space_group_symop_operation_xyz
x,y,z
-x,-y,1/2+z
x,-y,-z
-x,y,1/2-z
-x,-y,-z
x,y,1/2-z
-x,y,z
x,-y,1/2+z
1/2+x,1/2+y,z
1/2-x,1/2-y,1/2+z
1/2+x,1/2-y,-z
1/2-x,1/2+y,1/2-z
1/2-x,1/2-y,-z
1/2+x,1/2+y,1/2-z
1/2-x,1/2+y,z
1/2+x,1/2-y,1/2+z
loop_
_atom_site_type_symbol
_atom_site_label
_atom_site_fract_x
_atom_site_fract_y
_atom_site_fract_z
Si Si1 0.500000 0.251442 0.858387
Si Si2 0.145121 0.620145 0.250000
Si Si3 0.500000 0.897444 0.364170
Si Si4 0.737978 0.560921 0.930662
Si Si5 0.264708 0.315319 0.933668
Si Si6 0.861178 0.005980 0.250000
O O1 0.500000 0.232091 0.750000
O O2 0.500000 0.178291 0.906519
O O3 0.384802 0.295963 0.877520
O O4 0.171202 0.661222 0.150629
O O5 0.249620 0.560947 0.250000
O O6 0.000000 0.600018 0.250000
O O7 0.500000 0.899711 0.250000
O O8 0.622373 0.932102 0.398095
O O9 0.657584 0.542204 0.840160
O O10 0.724807 0.500000 0.000000
O O11 0.711280 0.626025 0.991790
O O12 0.250000 0.250000 0.000000
O O13 0.000000 0.034078 0.250000
#
# Coordination Sequence:
#
# PCOD9475791 Si02
#       6
#     8   8   8  16  16   8
#     4  11  24  45  72 104 150 204 248 299 377 445
#     4  12  30  51  76 113 153 195 253 315 372 444
#     4  11  23  43  73 106 149 194 247 304 367 438
#     4  12  26  45  74 108 147 196 253 303 374 440
#     4  12  27  47  75 110 153 198 250 307 372 446
#     4  12  30  51  72 111 155 197 251 311 384 450
#
# _framework density 20.632522999999999
#
# number of rings (size 3 to 8) (size 9 to 14) (size 15 to 20)
#    0.000    0.250    7.500    0.375    8.750    1.500 
#    0.000    1.250    0.000    0.000    0.000    0.000 
#    0.000    0.000    0.000    0.000    0.000    0.000 
#
# Total GULP energy -178491.287973 kJ/mol
# GULP energy per Si atom -5577.852749 kJ/mol
# Density = 2.058556 g / cm^3
# Si number density = 20.632523 Si / 1000 Ang^3
#
#
#
# Elastic Constant Matrix: (Units=GPa)
#
#
# Indices 1 2 3 4 5 6 
#
# 1 93.5857 13.4964 24.5341 0.0000 0.0000 0.0000
# 2 13.4964 139.0170 68.1978 0.0000 0.0000 0.0000
# 3 24.5341 68.1978 141.0353 0.0000 0.0000 0.0000
# 4 0.0000 0.0000 0.0000 94.1565 0.0000 0.0000
# 5 0.0000 0.0000 0.0000 0.0000 -38.1523 0.0000
# 6 0.0000 0.0000 0.0000 0.0000 0.0000 39.6213
#
#
#
# Elastic Compliance Matrix: (Units=1/GPa)
#
#
# Indices 1 2 3 4 5 6 
#
# 1 0.011199 -0.000172 -0.001865 0.000000 0.000000 0.000000
# 2 -0.000172 0.009433 -0.004531 0.000000 0.000000 0.000000
# 3 -0.001865 -0.004531 0.009606 0.000000 0.000000 0.000000
# 4 0.000000 0.000000 0.000000 0.010621 0.000000 0.000000
# 5 0.000000 0.000000 0.000000 0.000000 -0.026211 0.000000
# 6 0.000000 0.000000 0.000000 0.000000 0.000000 0.025239
#
#
# Mechanical properties :
#
#
# Convention : Reuss Voigt Hill
#
# Bulk Modulus (GPa) = 58.47628 65.12164 61.79896
# Shear Modulus (GPa) = 85.14328 36.95240 61.04784
#
# Velocity S-wave (km/s) = 6.43087 4.23659 5.44540
# Velocity P-wave (km/s) = 9.14029 7.45404 8.33989
#
# Compressibility (1/GPa) = 0.01710095
#
# Stress axis : x y z
#
# Youngs Moduli (GPa) = 89.29264 106.01008 104.10202
#
# Poissons Ratio (x) = 0.01828 0.19413
# Poissons Ratio (y) = 0.01540 0.47172
# Poissons Ratio (z) = 0.16651 0.48037
#
# Static dielectric constant tensor:
#      x y z
#    x 1.729110 0.000000 0.000000 
#    y 0.000000 1.764850 0.000000 
#    z 0.000000 0.000000 1.579890 
# 
# From -- ./inp_files/29237.got.cif
#   From: 2010.05.17/outbox.cif.g08.bks.cpg/sg63_15_cif.got.tgz:29237.got - 2010.06.03 15:47:04.
