data_PCOD9475209
_publ_section_title
;
Structure prediction by ZEFSAII (Michael W. Deem and Ramdas Pophale) SiO2 
 PCOD9475209
Probable space group: C M C M
;
_chemical_formula_sum "Si O2"
_cell_formula_units_Z 88
_cell_length_a 17.589940
_cell_length_b 7.478905
_cell_length_c 28.718385
_cell_angle_alpha 90.000000
_cell_angle_beta 90.000000
_cell_angle_gamma 90.000000
_cell_volume 3778.003780
_symmetry_space_group_name_H-M "C M C M"
_symmetry_group_IT_number 63
_symmetry_cell_setting 'orthorhombic'
loop_
_space_group_symop_operation_xyz
x,y,z
-x,-y,1/2+z
x,-y,-z
-x,y,1/2-z
-x,-y,-z
x,y,1/2-z
-x,y,z
x,-y,1/2+z
1/2+x,1/2+y,z
1/2-x,1/2-y,1/2+z
1/2+x,1/2-y,-z
1/2-x,1/2+y,1/2-z
1/2-x,1/2-y,-z
1/2+x,1/2+y,1/2-z
1/2-x,1/2+y,z
1/2+x,1/2-y,1/2+z
loop_
_atom_site_type_symbol
_atom_site_label
_atom_site_fract_x
_atom_site_fract_y
_atom_site_fract_z
Si Si1 0.665010 0.491282 0.838092
Si Si2 0.500000 0.023024 0.330147
Si Si3 0.730761 0.689680 0.750000
Si Si4 0.500000 0.750829 0.082299
Si Si5 0.000000 0.049630 0.650971
Si Si6 0.721780 0.207973 0.100959
Si Si7 0.343070 0.892017 0.047758
Si Si8 0.622441 0.032684 0.750000
O O1 0.706495 0.580058 0.795215
O O2 0.576891 0.471469 0.826494
O O3 0.669154 0.634444 0.880612
O O4 0.715109 0.332514 0.859280
O O5 0.500000 0.234309 0.344711
O O6 0.428435 0.985672 0.296080
O O7 0.500000 0.888233 0.373602
O O8 0.680384 0.866473 0.750000
O O9 0.822213 0.703864 0.750000
O O10 0.500000 0.547236 0.100680
O O11 0.422751 0.792814 0.054791
O O12 0.671495 0.036896 0.088955
O O13 0.771661 0.261413 0.056138
O O14 0.342853 0.000000 0.000000
#
# Coordination Sequence:
#
# PCOD9475209 Si02
#       8
#    16   8   8   8   8  16  16   8
#     4  11  23  40  64  98 133 174 229 268 339 396
#     4  11  26  49  65  98 138 189 223 278 338 413
#     4  12  24  38  68 100 132 174 226 286 316 398
#     4  12  26  43  73  99 135 180 226 278 349 415
#     4  12  23  44  68  95 133 183 224 274 329 416
#     4  10  23  41  67  95 132 177 218 280 344 409
#     4  11  23  43  68  98 131 171 225 286 345 412
#     4  11  26  44  66  97 140 176 234 279 338 390
#
# _framework density 23.292725999999998
#
# number of rings (size 3 to 8) (size 9 to 14) (size 15 to 20)
#    0.000    0.909    3.636    3.000    5.091    1.818 
#    0.000    1.818    0.000    2.182    0.000    0.000 
#    0.000    0.000    0.000    0.000    0.000    0.000 
#
# Total GULP energy -246229.567681 kJ/mol
# GULP energy per Si atom -5596.126538 kJ/mol
# Density = 2.323971 g / cm^3
# Si number density = 23.292726 Si / 1000 Ang^3
#
#
#
# Elastic Constant Matrix: (Units=GPa)
#
#
# Indices 1 2 3 4 5 6 
#
# 1 146.0754 17.6762 21.1787 0.0000 0.0000 0.0000
# 2 17.6762 72.1112 3.0185 0.0000 0.0000 0.0000
# 3 21.1787 3.0185 57.3794 0.0000 0.0000 0.0000
# 4 0.0000 0.0000 0.0000 23.0975 0.0000 0.0000
# 5 0.0000 0.0000 0.0000 0.0000 41.0727 0.0000
# 6 0.0000 0.0000 0.0000 0.0000 0.0000 27.9561
#
#
#
# Elastic Compliance Matrix: (Units=1/GPa)
#
#
# Indices 1 2 3 4 5 6 
#
# 1 0.007438 -0.001712 -0.002655 0.000000 0.000000 0.000000
# 2 -0.001712 0.014292 -0.000120 0.000000 0.000000 0.000000
# 3 -0.002655 -0.000120 0.018414 0.000000 0.000000 0.000000
# 4 0.000000 0.000000 0.000000 0.043295 0.000000 0.000000
# 5 0.000000 0.000000 0.000000 0.000000 0.024347 0.000000
# 6 0.000000 0.000000 0.000000 0.000000 0.000000 0.035770
#
#
# Mechanical properties :
#
#
# Convention : Reuss Voigt Hill
#
# Bulk Modulus (GPa) = 32.08237 39.92367 36.00302
# Shear Modulus (GPa) = 30.68972 34.00476 32.34724
#
# Velocity S-wave (km/s) = 3.63377 3.82499 3.73061
# Velocity P-wave (km/s) = 5.60439 6.05678 5.83497
#
# Compressibility (1/GPa) = 0.03116976
#
# Stress axis : x y z
#
# Youngs Moduli (GPa) = 134.44606 69.96842 54.30581
#
# Poissons Ratio (x) = 0.11979 0.14420
# Poissons Ratio (y) = 0.23018 0.00651
# Poissons Ratio (z) = 0.35699 0.00839
#
# Static dielectric constant tensor:
#      x y z
#    x 1.870110 0.000000 0.000000 
#    y 0.000000 1.919640 0.000000 
#    z 0.000000 0.000000 1.851420 
# 
# From -- ./inp_files/73860.got.cif
#   From: 2010.05.17/outbox.cif.g08.bks.cpg/sg63_37_cif.got.tgz:73860.got - 2010.06.03 15:47:04.
