data_PCOD9475487
_publ_section_title
;
Structure prediction by ZEFSAII (Michael W. Deem and Ramdas Pophale) SiO2 
 PCOD9475487
Probable space group: C M C M
;
_chemical_formula_sum "Si O2"
_cell_formula_units_Z 40
_cell_length_a 14.277934
_cell_length_b 5.539818
_cell_length_c 20.318836
_cell_angle_alpha 90.000000
_cell_angle_beta 90.000000
_cell_angle_gamma 90.000000
_cell_volume 1607.162136
_symmetry_space_group_name_H-M "C M C M"
_symmetry_group_IT_number 63
_symmetry_cell_setting 'orthorhombic'
loop_
_space_group_symop_operation_xyz
x,y,z
-x,-y,1/2+z
x,-y,-z
-x,y,1/2-z
-x,-y,-z
x,y,1/2-z
-x,y,z
x,-y,1/2+z
1/2+x,1/2+y,z
1/2-x,1/2-y,1/2+z
1/2+x,1/2-y,-z
1/2-x,1/2+y,1/2-z
1/2-x,1/2-y,-z
1/2+x,1/2+y,1/2-z
1/2-x,1/2+y,z
1/2+x,1/2-y,1/2+z
loop_
_atom_site_type_symbol
_atom_site_label
_atom_site_fract_x
_atom_site_fract_y
_atom_site_fract_z
Si Si1 0.702771 0.837553 0.137716
Si Si2 0.000000 0.805620 0.057808
Si Si3 0.500000 0.669282 0.174192
Si Si4 0.334957 0.000000 0.000000
O O1 0.751860 0.588955 0.161043
O O2 0.594421 0.814475 0.157539
O O3 0.712224 0.841001 0.057525
O O4 0.906882 0.656467 0.044380
O O5 0.000000 0.938002 0.126894
O O6 0.000000 0.000000 0.000000
O O7 0.500000 0.601486 0.250000
#
# Coordination Sequence:
#
# PCOD9475487 Si02
#       4
#    16   8   8   8
#     4  12  27  47  78 116 152 201 259 321 389 470
#     4  11  20  43  78 113 155 203 269 319 392 479
#     4  12  28  52  77 110 159 214 259 323 398 472
#     4  11  22  42  76 119 160 196 260 337 406 453
#
# _framework density 24.888590000000001
#
# number of rings (size 3 to 8) (size 9 to 14) (size 15 to 20)
#    0.000    0.400    4.000    4.800    0.000    3.200 
#    0.000   14.000    0.000    0.000    0.000    0.000 
#    0.000    0.000    0.000    0.000    0.000    0.000 
#
# Total GULP energy -112108.741221 kJ/mol
# GULP energy per Si atom -5605.437061 kJ/mol
# Density = 2.483194 g / cm^3
# Si number density = 24.888590 Si / 1000 Ang^3
#
#
#
# Elastic Constant Matrix: (Units=GPa)
#
#
# Indices 1 2 3 4 5 6 
#
# 1 201.4285 88.4245 19.9992 0.0000 0.0000 0.0000
# 2 88.4245 182.5071 50.4041 0.0000 0.0000 0.0000
# 3 19.9992 50.4041 159.1929 0.0000 0.0000 0.0000
# 4 0.0000 0.0000 0.0000 21.4603 0.0000 0.0000
# 5 0.0000 0.0000 0.0000 0.0000 -26.0182 0.0000
# 6 0.0000 0.0000 0.0000 0.0000 0.0000 15.7720
#
#
#
# Elastic Compliance Matrix: (Units=1/GPa)
#
#
# Indices 1 2 3 4 5 6 
#
# 1 0.006311 -0.003111 0.000192 0.000000 0.000000 0.000000
# 2 -0.003111 0.007538 -0.001996 0.000000 0.000000 0.000000
# 3 0.000192 -0.001996 0.006889 0.000000 0.000000 0.000000
# 4 0.000000 0.000000 0.000000 0.046598 0.000000 0.000000
# 5 0.000000 0.000000 0.000000 0.000000 -0.038435 0.000000
# 6 0.000000 0.000000 0.000000 0.000000 0.000000 0.063404
#
#
# Mechanical properties :
#
#
# Convention : Reuss Voigt Hill
#
# Bulk Modulus (GPa) = 91.66558 95.64270 93.65414
# Shear Modulus (GPa) = 47.27247 27.86287 37.56767
#
# Velocity S-wave (km/s) = 4.36290 3.34953 3.88936
# Velocity P-wave (km/s) = 7.89241 7.31238 7.60792
#
# Compressibility (1/GPa) = 0.01090922
#
# Stress axis : x y z
#
# Youngs Moduli (GPa) = 158.45239 132.66867 145.14923
#
# Poissons Ratio (x) = 0.41270 -0.02788
# Poissons Ratio (y) = 0.49290 0.28968
# Poissons Ratio (z) = -0.03044 0.26478
#
# Static dielectric constant tensor:
#      x y z
#    x 2.001770 0.000000 0.000000 
#    y 0.000000 2.068800 0.000000 
#    z 0.000000 0.000000 1.906320 
# 
# From -- ./inp_files/54883.got.cif
#   From: 2010.05.17/outbox.cif.g08.bks.cpg/sg63_28_cif.got.tgz:54883.got - 2010.06.03 15:47:04.
