data_PCOD9475913
_publ_section_title
;
Structure prediction by ZEFSAII (Michael W. Deem and Ramdas Pophale) SiO2 
 PCOD9475913
Probable space group: C M C M
;
_chemical_formula_sum "Si O2"
_cell_formula_units_Z 72
_cell_length_a 24.654944
_cell_length_b 9.758865
_cell_length_c 14.903457
_cell_angle_alpha 90.000000
_cell_angle_beta 90.000000
_cell_angle_gamma 90.000000
_cell_volume 3585.835393
_symmetry_space_group_name_H-M "C M C M"
_symmetry_group_IT_number 63
_symmetry_cell_setting 'orthorhombic'
loop_
_space_group_symop_operation_xyz
x,y,z
-x,-y,1/2+z
x,-y,-z
-x,y,1/2-z
-x,-y,-z
x,y,1/2-z
-x,y,z
x,-y,1/2+z
1/2+x,1/2+y,z
1/2-x,1/2-y,1/2+z
1/2+x,1/2-y,-z
1/2-x,1/2+y,1/2-z
1/2-x,1/2-y,-z
1/2+x,1/2+y,1/2-z
1/2-x,1/2+y,z
1/2+x,1/2-y,1/2+z
loop_
_atom_site_type_symbol
_atom_site_label
_atom_site_fract_x
_atom_site_fract_y
_atom_site_fract_z
Si Si1 0.500000 0.610764 0.750000
Si Si2 0.617685 0.620050 0.106576
Si Si3 0.000000 0.874385 0.900161
Si Si4 0.382830 0.625030 0.750000
Si Si5 0.298688 0.122315 0.250000
Si Si6 0.381000 0.134117 0.750000
Si Si7 0.500000 0.139812 0.750000
Si Si8 0.238661 0.879696 0.558800
O O1 0.500000 0.506837 0.834933
O O2 0.443272 0.689111 0.750000
O O3 0.559592 0.627563 0.055838
O O4 0.618994 0.482500 0.167514
O O5 0.621797 0.758339 0.167224
O O6 0.673846 0.612970 0.056977
O O7 0.000000 0.742976 0.834731
O O8 0.336864 0.741344 0.750000
O O9 0.261802 0.123298 0.339997
O O10 0.335737 0.984161 0.250000
O O11 0.441568 0.068513 0.750000
O O12 0.250000 0.750000 0.500000
O O13 0.264145 0.000000 0.500000
#
# Coordination Sequence:
#
# PCOD9475913 Si02
#       8
#     4  16   8   8   8   8   4  16
#     4   7  12  25  48  86 116 138 186 240 284 336
#     4   9  17  34  57  82 112 149 192 236 283 340
#     4   7  12  26  53  81 107 142 186 234 282 336
#     4   9  17  31  57  86 116 151 189 237 292 340
#     4  12  24  39  58  85 120 158 194 234 288 346
#     4   9  17  31  57  84 112 151 193 233 280 342
#     4   7  12  25  48  84 112 140 190 232 272 338
#     4  12  26  41  60  87 119 154 195 241 288 342
#
# _framework density 20.079003
#
# number of rings (size 3 to 8) (size 9 to 14) (size 15 to 20)
#    0.000    2.444    0.000    6.667    0.000    3.111 
#    0.000    0.556    0.000    2.667    0.000    8.556 
#    0.000    0.000    0.000    0.000    0.000    0.000 
#
# Total GULP energy -200428.025369 kJ/mol
# GULP energy per Si atom -5567.445149 kJ/mol
# Density = 2.003330 g / cm^3
# Si number density = 20.079003 Si / 1000 Ang^3
#
#
#
# Elastic Constant Matrix: (Units=GPa)
#
#
# Indices 1 2 3 4 5 6 
#
# 1 179.0259 48.8808 55.8653 0.0000 0.0000 0.0000
# 2 48.8808 111.5496 39.8904 0.0000 0.0000 0.0000
# 3 55.8653 39.8904 86.1993 0.0000 0.0000 0.0000
# 4 0.0000 0.0000 0.0000 -14.7831 0.0000 0.0000
# 5 0.0000 0.0000 0.0000 0.0000 9.6515 0.0000
# 6 0.0000 0.0000 0.0000 0.0000 0.0000 23.5357
#
#
#
# Elastic Compliance Matrix: (Units=1/GPa)
#
#
# Indices 1 2 3 4 5 6 
#
# 1 0.007293 -0.001804 -0.003892 0.000000 0.000000 0.000000
# 2 -0.001804 0.011189 -0.004009 0.000000 0.000000 0.000000
# 3 -0.003892 -0.004009 0.015978 0.000000 0.000000 0.000000
# 4 0.000000 0.000000 0.000000 -0.067645 0.000000 0.000000
# 5 0.000000 0.000000 0.000000 0.000000 0.103611 0.000000
# 6 0.000000 0.000000 0.000000 0.000000 0.000000 0.042489
#
#
# Mechanical properties :
#
#
# Convention : Reuss Voigt Hill
#
# Bulk Modulus (GPa) = 66.43974 74.00531 70.22253
# Shear Modulus (GPa) = 36.40626 19.15671 27.78149
#
# Velocity S-wave (km/s) = 4.26273 3.09215 3.72372
# Velocity P-wave (km/s) = 7.57554 7.04880 7.31691
#
# Compressibility (1/GPa) = 0.01505123
#
# Stress axis : x y z
#
# Youngs Moduli (GPa) = 137.12332 89.37655 62.58557
#
# Poissons Ratio (x) = 0.16124 0.24355
# Poissons Ratio (y) = 0.24738 0.25088
# Poissons Ratio (z) = 0.53362 0.35827
#
# Static dielectric constant tensor:
#      x y z
#    x 3.557490 0.000000 0.000000 
#    y 0.000000 1.727390 0.000000 
#    z 0.000000 0.000000 1.721980 
# 
# From -- ./inp_files/37641.got.cif
#   From: 2010.05.17/outbox.cif.g08.bks.cpg/sg63_19_cif.got.tgz:37641.got - 2010.06.03 15:47:04.
