data_PCOD9475071
_publ_section_title
;
Structure prediction by ZEFSAII (Michael W. Deem and Ramdas Pophale) SiO2 
 PCOD9475071
Probable space group: C M C M
;
_chemical_formula_sum "Si O2"
_cell_formula_units_Z 68
_cell_length_a 7.596586
_cell_length_b 14.819402
_cell_length_c 23.669957
_cell_angle_alpha 90.000000
_cell_angle_beta 90.000000
_cell_angle_gamma 90.000000
_cell_volume 2664.689477
_symmetry_space_group_name_H-M "C M C M"
_symmetry_group_IT_number 63
_symmetry_cell_setting 'orthorhombic'
loop_
_space_group_symop_operation_xyz
x,y,z
-x,-y,1/2+z
x,-y,-z
-x,y,1/2-z
-x,-y,-z
x,y,1/2-z
-x,y,z
x,-y,1/2+z
1/2+x,1/2+y,z
1/2-x,1/2-y,1/2+z
1/2+x,1/2-y,-z
1/2-x,1/2+y,1/2-z
1/2-x,1/2-y,-z
1/2+x,1/2+y,1/2-z
1/2-x,1/2+y,z
1/2+x,1/2-y,1/2+z
loop_
_atom_site_type_symbol
_atom_site_label
_atom_site_fract_x
_atom_site_fract_y
_atom_site_fract_z
Si Si1 0.303668 0.558489 0.569520
Si Si2 0.500000 0.411877 0.750000
Si Si3 0.694389 0.134514 0.041019
Si Si4 0.791154 0.661181 0.164913
Si Si5 0.712010 0.864552 0.309950
O O1 0.500000 0.523040 0.563708
O O2 0.278296 0.633978 0.521074
O O3 0.186000 0.472224 0.556543
O O4 0.275493 0.591757 0.632488
O O5 0.343162 0.399652 0.700421
O O6 0.500000 0.172887 0.034727
O O7 0.769828 0.171685 0.099467
O O8 0.500000 0.866809 0.833650
O O9 0.775403 0.761606 0.189322
O O10 0.774044 0.905900 0.250000
O O11 0.500000 0.865447 0.310409
#
# Coordination Sequence:
#
# PCOD9475071 Si02
#       5
#    16   4  16  16  16
#     4  11  23  38  64  90 124 161 204 258 312 372
#     4  12  22  40  64  92 128 170 196 262 304 370
#     4  10  22  42  64  89 120 162 207 259 307 366
#     4  11  23  40  66  93 124 165 210 251 310 367
#     4  11  22  41  63  89 124 166 205 256 309 364
#
# _framework density 25.518920000000001
#
# number of rings (size 3 to 8) (size 9 to 14) (size 15 to 20)
#    0.000    1.176    2.353    5.294    3.294    2.353 
#    2.118    0.000    0.000    0.000    0.000    0.000 
#    0.000    0.000    0.000    0.000    0.000    0.000 
#
# Total GULP energy -189628.501429 kJ/mol
# GULP energy per Si atom -5577.308866 kJ/mol
# Density = 2.546084 g / cm^3
# Si number density = 25.518920 Si / 1000 Ang^3
#
#
#
# Elastic Constant Matrix: (Units=GPa)
#
#
# Indices 1 2 3 4 5 6 
#
# 1 137.3986 -9.6686 37.8907 0.0000 0.0000 0.0000
# 2 -9.6686 47.3159 48.5248 0.0000 0.0000 0.0000
# 3 37.8907 48.5248 269.1756 0.0000 0.0000 0.0000
# 4 0.0000 0.0000 0.0000 60.1983 0.0000 0.0000
# 5 0.0000 0.0000 0.0000 0.0000 67.0689 0.0000
# 6 0.0000 0.0000 0.0000 0.0000 0.0000 -2.1748
#
#
#
# Elastic Compliance Matrix: (Units=1/GPa)
#
#
# Indices 1 2 3 4 5 6 
#
# 1 0.008000 0.003422 -0.001743 0.000000 0.000000 0.000000
# 2 0.003422 0.027392 -0.005420 0.000000 0.000000 0.000000
# 3 -0.001743 -0.005420 0.004937 0.000000 0.000000 0.000000
# 4 0.000000 0.000000 0.000000 0.016612 0.000000 0.000000
# 5 0.000000 0.000000 0.000000 0.000000 0.014910 0.000000
# 6 0.000000 0.000000 0.000000 0.000000 0.000000 -0.459822
#
#
# Mechanical properties :
#
#
# Convention : Reuss Voigt Hill
#
# Bulk Modulus (GPa) = 30.44331 67.48710 48.96521
# Shear Modulus (GPa) = -13.53031 50.16138 18.31554
#
# Velocity S-wave (km/s) = -2.30512 4.43838 2.68194
# Velocity P-wave (km/s) = 2.20699 7.26422 5.36842
#
# Compressibility (1/GPa) = 0.03284794
#
# Stress axis : x y z
#
# Youngs Moduli (GPa) = 125.00661 36.50694 202.53470
#
# Poissons Ratio (x) = -0.12493 0.35302
# Poissons Ratio (y) = -0.42779 1.09769
# Poissons Ratio (z) = 0.21788 0.19786
#
# Static dielectric constant tensor:
#      x y z
#    x 1.958280 0.000000 0.000000 
#    y 0.000000 2.045130 0.000000 
#    z 0.000000 0.000000 2.075890 
# 
# From -- ./inp_files/50475.got.cif
#   From: 2010.05.17/outbox.cif.g08.bks.cpg/sg63_26_cif.got.tgz:50475.got - 2010.06.03 15:47:04.
