data_PCOD9475004
_publ_section_title
;
Structure prediction by ZEFSAII (Michael W. Deem and Ramdas Pophale) SiO2 
 PCOD9475004
Probable space group: C M C M
;
_chemical_formula_sum "Si O2"
_cell_formula_units_Z 96
_cell_length_a 22.396862
_cell_length_b 21.303476
_cell_length_c 9.680937
_cell_angle_alpha 90.000000
_cell_angle_beta 90.000000
_cell_angle_gamma 90.000000
_cell_volume 4619.075269
_symmetry_space_group_name_H-M "C M C M"
_symmetry_group_IT_number 63
_symmetry_cell_setting 'orthorhombic'
loop_
_space_group_symop_operation_xyz
x,y,z
-x,-y,1/2+z
x,-y,-z
-x,y,1/2-z
-x,-y,-z
x,y,1/2-z
-x,y,z
x,-y,1/2+z
1/2+x,1/2+y,z
1/2-x,1/2-y,1/2+z
1/2+x,1/2-y,-z
1/2-x,1/2+y,1/2-z
1/2-x,1/2-y,-z
1/2+x,1/2+y,1/2-z
1/2-x,1/2+y,z
1/2+x,1/2-y,1/2+z
loop_
_atom_site_type_symbol
_atom_site_label
_atom_site_fract_x
_atom_site_fract_y
_atom_site_fract_z
Si Si1 0.931943 0.841366 0.909504
Si Si2 0.235727 0.411077 0.097064
Si Si3 0.097934 0.697989 0.586911
Si Si4 0.215600 0.301053 0.587759
Si Si5 0.904493 0.442788 0.093686
Si Si6 0.130238 0.057585 0.591495
O O1 0.913022 0.853142 0.750000
O O2 0.933041 0.765555 0.926663
O O3 0.000000 0.863928 0.926827
O O4 0.889648 0.878135 0.015608
O O5 0.236114 0.378419 0.250000
O O6 0.169012 0.439698 0.087920
O O7 0.297476 0.448527 0.097802
O O8 0.240825 0.367086 0.964226
O O9 0.117131 0.695797 0.750000
O O10 0.149556 0.700879 0.473726
O O11 0.072090 0.627882 0.563171
O O12 0.219319 0.292099 0.750000
O O13 0.250000 0.250000 0.500000
O O14 0.920863 0.457038 0.250000
O O15 0.924402 0.500000 0.000000
O O16 0.108931 0.056691 0.750000
O O17 0.106783 0.000000 0.500000
#
# Coordination Sequence:
#
# PCOD9475004 Si02
#       6
#    16  16  16  16  16  16
#     4  10  22  41  63  82 101 133 181 235 288 336
#     4   9  19  34  50  74 109 146 183 218 255 305
#     4   9  19  36  55  77 106 139 177 222 270 321
#     4  11  20  29  46  73 106 143 179 215 259 313
#     4   9  17  30  50  78 113 148 179 211 249 303
#     4  11  23  38  58  83 112 145 181 224 273 326
#
# _framework density 20.783380999999999
#
# number of rings (size 3 to 8) (size 9 to 14) (size 15 to 20)
#    0.000    2.167    0.000    4.500    0.000    8.000 
#    0.000    0.000    0.000    0.500    0.000    0.000 
#    0.000    0.000    0.000    0.000    0.000    0.333 
#
# Total GULP energy -267304.431635 kJ/mol
# GULP energy per Si atom -5568.842326 kJ/mol
# Density = 2.073608 g / cm^3
# Si number density = 20.783381 Si / 1000 Ang^3
#
#
#
# Elastic Constant Matrix: (Units=GPa)
#
#
# Indices 1 2 3 4 5 6 
#
# 1 44.9038 23.4137 40.2012 0.0000 0.0000 0.0000
# 2 23.4137 106.8641 68.6873 0.0000 0.0000 0.0000
# 3 40.2012 68.6873 160.5342 0.0000 0.0000 0.0000
# 4 0.0000 0.0000 0.0000 39.6673 0.0000 0.0000
# 5 0.0000 0.0000 0.0000 0.0000 -2.8955 0.0000
# 6 0.0000 0.0000 0.0000 0.0000 0.0000 20.3853
#
#
#
# Elastic Compliance Matrix: (Units=1/GPa)
#
#
# Indices 1 2 3 4 5 6 
#
# 1 0.029122 -0.002335 -0.006294 0.000000 0.000000 0.000000
# 2 -0.002335 0.013095 -0.005018 0.000000 0.000000 0.000000
# 3 -0.006294 -0.005018 0.009952 0.000000 0.000000 0.000000
# 4 0.000000 0.000000 0.000000 0.025210 0.000000 0.000000
# 5 0.000000 0.000000 0.000000 0.000000 -0.345363 0.000000
# 6 0.000000 0.000000 0.000000 0.000000 0.000000 0.049055
#
#
# Mechanical properties :
#
#
# Convention : Reuss Voigt Hill
#
# Bulk Modulus (GPa) = 40.20069 64.10073 52.15071
# Shear Modulus (GPa) = -27.27108 23.43142 -1.91983
#
# Velocity S-wave (km/s) = -3.62630 3.36134 -0.96215
# Velocity P-wave (km/s) = 1.36062 6.78042 4.89006
#
# Compressibility (1/GPa) = 0.02487519
#
# Stress axis : x y z
#
# Youngs Moduli (GPa) = 34.33830 76.36696 100.47966
#
# Poissons Ratio (x) = 0.17834 0.63237
# Poissons Ratio (y) = 0.08019 0.50420
# Poissons Ratio (z) = 0.21611 0.38321
#
# Static dielectric constant tensor:
#      x y z
#    x 1.790100 0.000000 0.000000 
#    y 0.000000 1.795420 0.000000 
#    z 0.000000 0.000000 1.562510 
# 
# From -- ./inp_files/10468.got.cif
#   From: 2010.05.17/outbox.cif.g08.bks.cpg/sg63_6_cif.got.tgz:10468.got - 2010.06.03 15:47:04.
