data_PCOD9475657
_publ_section_title
;
Structure prediction by ZEFSAII (Michael W. Deem and Ramdas Pophale) SiO2 
 PCOD9475657
Probable space group: C M C M
;
_chemical_formula_sum "Si O2"
_cell_formula_units_Z 80
_cell_length_a 14.117782
_cell_length_b 12.521620
_cell_length_c 21.229840
_cell_angle_alpha 90.000000
_cell_angle_beta 90.000000
_cell_angle_gamma 90.000000
_cell_volume 3752.958071
_symmetry_space_group_name_H-M "C M C M"
_symmetry_group_IT_number 63
_symmetry_cell_setting 'orthorhombic'
loop_
_space_group_symop_operation_xyz
x,y,z
-x,-y,1/2+z
x,-y,-z
-x,y,1/2-z
-x,-y,-z
x,y,1/2-z
-x,y,z
x,-y,1/2+z
1/2+x,1/2+y,z
1/2-x,1/2-y,1/2+z
1/2+x,1/2-y,-z
1/2-x,1/2+y,1/2-z
1/2-x,1/2-y,-z
1/2+x,1/2+y,1/2-z
1/2-x,1/2+y,z
1/2+x,1/2-y,1/2+z
loop_
_atom_site_type_symbol
_atom_site_label
_atom_site_fract_x
_atom_site_fract_y
_atom_site_fract_z
Si Si1 0.107905 0.104280 0.398781
Si Si2 0.104259 0.118222 0.674245
Si Si3 0.308665 0.806776 0.175334
Si Si4 0.887636 0.483099 0.093939
Si Si5 0.279526 0.132908 0.479421
O O1 0.112777 0.000001 0.354810
O O2 0.141570 0.209739 0.361178
O O3 0.179621 0.086845 0.455756
O O4 0.000000 0.119459 0.419636
O O5 0.105789 0.110005 0.750000
O O6 0.000000 0.161014 0.655561
O O7 0.198058 0.183213 0.656500
O O8 0.315850 0.789600 0.250000
O O9 0.356011 0.920284 0.156317
O O10 0.847676 0.601375 0.079537
O O11 0.000000 0.480164 0.087111
O O12 0.834769 0.415139 0.039240
O O13 0.250000 0.250000 0.500000
#
# Coordination Sequence:
#
# PCOD9475657 Si02
#       5
#    16  16  16  16  16
#     4  11  22  38  62  93 123 158 207 256 305 367
#     4   9  19  38  61  85 120 161 197 245 308 364
#     4  11  22  38  65  96 126 161 210 260 304 368
#     4  11  24  43  65  91 125 167 208 257 318 373
#     4  11  22  39  62  88 124 159 204 252 308 368
#
# _framework density 21.316519
#
# number of rings (size 3 to 8) (size 9 to 14) (size 15 to 20)
#    0.000    1.400    4.000    2.400    0.000    3.200 
#    0.000    5.000    0.000    0.000    0.000    0.000 
#    0.000    0.000    0.000    0.000    0.000    0.000 
#
# Total GULP energy -223188.277021 kJ/mol
# GULP energy per Si atom -5579.706926 kJ/mol
# Density = 2.126800 g / cm^3
# Si number density = 21.316519 Si / 1000 Ang^3
#
#
#
# Elastic Constant Matrix: (Units=GPa)
#
#
# Indices 1 2 3 4 5 6 
#
# 1 221.1672 46.1232 46.4987 0.0000 0.0000 0.0000
# 2 46.1232 68.9869 31.2308 0.0000 0.0000 0.0000
# 3 46.4987 31.2308 51.5909 0.0000 0.0000 0.0000
# 4 0.0000 0.0000 0.0000 27.5744 0.0000 0.0000
# 5 0.0000 0.0000 0.0000 0.0000 32.6453 0.0000
# 6 0.0000 0.0000 0.0000 0.0000 0.0000 37.8334
#
#
#
# Elastic Compliance Matrix: (Units=1/GPa)
#
#
# Indices 1 2 3 4 5 6 
#
# 1 0.005787 -0.002077 -0.003958 0.000000 0.000000 0.000000
# 2 -0.002077 0.020713 -0.010667 0.000000 0.000000 0.000000
# 3 -0.003958 -0.010667 0.029408 0.000000 0.000000 0.000000
# 4 0.000000 0.000000 0.000000 0.036266 0.000000 0.000000
# 5 0.000000 0.000000 0.000000 0.000000 0.030632 0.000000
# 6 0.000000 0.000000 0.000000 0.000000 0.000000 0.026432
#
#
# Mechanical properties :
#
#
# Convention : Reuss Voigt Hill
#
# Bulk Modulus (GPa) = 44.43696 65.49449 54.96572
# Shear Modulus (GPa) = 26.29600 34.13676 30.21638
#
# Velocity S-wave (km/s) = 3.51607 4.00612 3.76907
# Velocity P-wave (km/s) = 6.11352 7.22427 6.69198
#
# Compressibility (1/GPa) = 0.02250379
#
# Stress axis : x y z
#
# Youngs Moduli (GPa) = 172.80646 48.27869 34.00422
#
# Poissons Ratio (x) = 0.10027 0.13460
# Poissons Ratio (y) = 0.35892 0.36272
# Poissons Ratio (z) = 0.68403 0.51498
#
# Static dielectric constant tensor:
#      x y z
#    x 1.775010 0.000000 0.000000 
#    y 0.000000 1.867390 0.000000 
#    z 0.000000 0.000000 1.779420 
# 
# From -- ./inp_files/61075.got.cif
#   From: 2010.05.17/outbox.cif.g08.bks.cpg/sg63_31_cif.got.tgz:61075.got - 2010.06.03 15:47:04.
