data_PCOD9475604
_publ_section_title
;
Structure prediction by ZEFSAII (Michael W. Deem and Ramdas Pophale) SiO2 
 PCOD9475604
Probable space group: C M C M
;
_chemical_formula_sum "Si O2"
_cell_formula_units_Z 96
_cell_length_a 29.840082
_cell_length_b 27.011546
_cell_length_c 8.902811
_cell_angle_alpha 90.000000
_cell_angle_beta 90.000000
_cell_angle_gamma 90.000000
_cell_volume 7175.903795
_symmetry_space_group_name_H-M "C M C M"
_symmetry_group_IT_number 63
_symmetry_cell_setting 'orthorhombic'
loop_
_space_group_symop_operation_xyz
x,y,z
-x,-y,1/2+z
x,-y,-z
-x,y,1/2-z
-x,-y,-z
x,y,1/2-z
-x,y,z
x,-y,1/2+z
1/2+x,1/2+y,z
1/2-x,1/2-y,1/2+z
1/2+x,1/2-y,-z
1/2-x,1/2+y,1/2-z
1/2-x,1/2-y,-z
1/2+x,1/2+y,1/2-z
1/2-x,1/2+y,z
1/2+x,1/2-y,1/2+z
loop_
_atom_site_type_symbol
_atom_site_label
_atom_site_fract_x
_atom_site_fract_y
_atom_site_fract_z
Si Si1 0.857246 0.947785 0.570275
Si Si2 0.143444 0.247224 0.570206
Si Si3 0.805843 0.143479 0.929563
Si Si4 0.449872 0.708393 0.569104
Si Si5 0.223058 0.703921 0.929422
Si Si6 0.049927 0.900835 0.931061
O O1 0.856185 0.950648 0.750000
O O2 0.826076 0.903040 0.514633
O O3 0.908238 0.934183 0.521475
O O4 0.844016 0.000000 0.500000
O O5 0.146637 0.253559 0.750000
O O6 0.165429 0.193257 0.535781
O O7 0.091593 0.242960 0.524459
O O8 0.173228 0.289284 0.492292
O O9 0.809411 0.135663 0.750000
O O10 0.754146 0.156765 0.966629
O O11 0.447496 0.702840 0.750000
O O12 0.500000 0.726104 0.530270
O O13 0.444175 0.654124 0.497703
O O14 0.222917 0.708772 0.750000
O O15 0.250000 0.750000 0.000000
O O16 0.050966 0.897409 0.750000
O O17 0.000000 0.918485 0.975699
#
# Coordination Sequence:
#
# PCOD9475604 Si02
#       6
#    16  16  16  16  16  16
#     4  11  22  32  44  58  73  98 128 163 206 247
#     4   9  16  26  41  61  82 102 126 159 193 231
#     4   9  17  30  43  57  77  97 123 161 197 234
#     4   9  16  26  41  59  79 105 133 160 195 234
#     4   9  17  27  41  60  79 100 123 153 193 234
#     4   9  18  31  43  56  73  94 126 167 207 243
#
# _framework density 13.378106000000001
#
# number of rings (size 3 to 8) (size 9 to 14) (size 15 to 20)
#    0.000    2.667    1.667    2.000    0.000    5.000 
#    0.000    0.000    0.000    0.000    0.000    0.000 
#    0.000    0.000    0.000    0.000    0.000    0.833 
#
# Total GULP energy -267274.487564 kJ/mol
# GULP energy per Si atom -5568.218491 kJ/mol
# Density = 1.334766 g / cm^3
# Si number density = 13.378106 Si / 1000 Ang^3
#
#
#
# Elastic Constant Matrix: (Units=GPa)
#
#
# Indices 1 2 3 4 5 6 
#
# 1 93.4706 46.9243 30.8469 0.0000 0.0000 0.0000
# 2 46.9243 49.5914 25.2730 0.0000 0.0000 0.0000
# 3 30.8469 25.2730 22.4405 0.0000 0.0000 0.0000
# 4 0.0000 0.0000 0.0000 16.5738 0.0000 0.0000
# 5 0.0000 0.0000 0.0000 0.0000 18.5304 0.0000
# 6 0.0000 0.0000 0.0000 0.0000 0.0000 16.0686
#
#
#
# Elastic Compliance Matrix: (Units=1/GPa)
#
#
# Indices 1 2 3 4 5 6 
#
# 1 0.022705 -0.013093 -0.016465 0.000000 0.000000 0.000000
# 2 -0.013093 0.054880 -0.043809 0.000000 0.000000 0.000000
# 3 -0.016465 -0.043809 0.116534 0.000000 0.000000 0.000000
# 4 0.000000 0.000000 0.000000 0.060336 0.000000 0.000000
# 5 0.000000 0.000000 0.000000 0.000000 0.053966 0.000000
# 6 0.000000 0.000000 0.000000 0.000000 0.000000 0.062233
#
#
# Mechanical properties :
#
#
# Convention : Reuss Voigt Hill
#
# Bulk Modulus (GPa) = 21.10388 41.28786 31.19587
# Shear Modulus (GPa) = 9.37765 14.39844 11.88805
#
# Velocity S-wave (km/s) = 2.65046 3.28421 2.98421
# Velocity P-wave (km/s) = 5.01754 6.73132 5.93660
#
# Compressibility (1/GPa) = 0.04738466
#
# Stress axis : x y z
#
# Youngs Moduli (GPa) = 44.04224 18.22162 8.58122
#
# Poissons Ratio (x) = 0.23858 0.14129
# Poissons Ratio (y) = 0.57666 0.37593
# Poissons Ratio (z) = 0.72516 0.79826
#
# Static dielectric constant tensor:
#      x y z
#    x 1.487720 0.000000 0.000000 
#    y 0.000000 1.398410 0.000000 
#    z 0.000000 0.000000 1.444410 
# 
# From -- ./inp_files/13003.got.cif
#   From: 2010.05.17/outbox.cif.g08.bks.cpg/sg63_7_cif.got.tgz:13003.got - 2010.06.03 15:47:04.
