data_PCOD9475778
_publ_section_title
;
Structure prediction by ZEFSAII (Michael W. Deem and Ramdas Pophale) SiO2 
 PCOD9475778
Probable space group: C M C M
;
_chemical_formula_sum "Si O2"
_cell_formula_units_Z 68
_cell_length_a 9.671169
_cell_length_b 15.758865
_cell_length_c 19.162897
_cell_angle_alpha 90.000000
_cell_angle_beta 90.000000
_cell_angle_gamma 90.000000
_cell_volume 2920.552872
_symmetry_space_group_name_H-M "C M C M"
_symmetry_group_IT_number 63
_symmetry_cell_setting 'orthorhombic'
loop_
_space_group_symop_operation_xyz
x,y,z
-x,-y,1/2+z
x,-y,-z
-x,y,1/2-z
-x,-y,-z
x,y,1/2-z
-x,y,z
x,-y,1/2+z
1/2+x,1/2+y,z
1/2-x,1/2-y,1/2+z
1/2+x,1/2-y,-z
1/2-x,1/2+y,1/2-z
1/2-x,1/2-y,-z
1/2+x,1/2+y,1/2-z
1/2-x,1/2+y,z
1/2+x,1/2-y,1/2+z
loop_
_atom_site_type_symbol
_atom_site_label
_atom_site_fract_x
_atom_site_fract_y
_atom_site_fract_z
Si Si1 0.335086 0.047458 0.750000
Si Si2 0.213051 0.139626 0.250000
Si Si3 0.000000 0.641614 0.970777
Si Si4 0.500000 0.277546 0.409085
Si Si5 0.000000 0.798580 0.864945
Si Si6 0.260732 0.593811 0.897832
Si Si7 0.000000 0.028322 0.077723
Si Si8 0.000000 0.730870 0.250000
O O1 0.500000 0.026903 0.750000
O O2 0.301517 0.100668 0.680161
O O3 0.239497 0.962075 0.750000
O O4 0.130099 0.178352 0.184225
O O5 0.364661 0.175199 0.250000
O O6 0.862805 0.588273 0.953452
O O7 0.000000 0.712773 0.908461
O O8 0.000000 0.691397 0.044844
O O9 0.640364 0.329849 0.422964
O O10 0.500000 0.276339 0.324482
O O11 0.000000 0.872191 0.921342
O O12 0.362226 0.513250 0.891541
O O13 0.000000 0.000000 0.000000
#
# Coordination Sequence:
#
# PCOD9475778 Si02
#       8
#     8   8   8   8   8  16   8   4
#     4  12  22  43  69 102 142 176 239 294 345 410
#     4  11  24  39  68  95 137 174 224 292 337 407
#     4  12  25  46  69 103 143 181 230 293 351 410
#     4  11  25  43  68  97 139 176 229 286 345 425
#     4  11  23  42  68  99 135 179 226 283 346 403
#     4  11  24  43  71  99 134 190 228 287 347 416
#     4  11  24  43  68  99 136 185 239 279 342 427
#     4  12  24  42  62  98 130 176 222 278 362 408
#
# _framework density 23.283262000000001
#
# number of rings (size 3 to 8) (size 9 to 14) (size 15 to 20)
#    0.000    0.706    4.118    4.235    0.000    5.176 
#    0.000    0.588    0.000    0.000    0.000    0.000 
#    0.000    0.000    0.000    0.000    0.000    0.000 
#
# Total GULP energy -190002.339821 kJ/mol
# GULP energy per Si atom -5588.304112 kJ/mol
# Density = 2.323027 g / cm^3
# Si number density = 23.283262 Si / 1000 Ang^3
#
#
#
# Elastic Constant Matrix: (Units=GPa)
#
#
# Indices 1 2 3 4 5 6 
#
# 1 152.7299 20.4530 27.5461 0.0000 0.0000 0.0000
# 2 20.4530 62.1786 4.0316 0.0000 0.0000 0.0000
# 3 27.5461 4.0316 108.2681 0.0000 0.0000 0.0000
# 4 0.0000 0.0000 0.0000 34.3721 0.0000 0.0000
# 5 0.0000 0.0000 0.0000 0.0000 27.4949 0.0000
# 6 0.0000 0.0000 0.0000 0.0000 0.0000 -6.5136
#
#
#
# Elastic Compliance Matrix: (Units=1/GPa)
#
#
# Indices 1 2 3 4 5 6 
#
# 1 0.007161 -0.002243 -0.001739 0.000000 0.000000 0.000000
# 2 -0.002243 0.016824 -0.000056 0.000000 0.000000 0.000000
# 3 -0.001739 -0.000056 0.009681 0.000000 0.000000 0.000000
# 4 0.000000 0.000000 0.000000 0.029093 0.000000 0.000000
# 5 0.000000 0.000000 0.000000 0.000000 0.036370 0.000000
# 6 0.000000 0.000000 0.000000 0.000000 0.000000 -0.153525
#
#
# Mechanical properties :
#
#
# Convention : Reuss Voigt Hill
#
# Bulk Modulus (GPa) = 39.07517 47.47087 43.27302
# Shear Modulus (GPa) = -132.31157 29.14708 -51.58224
#
# Velocity S-wave (km/s) = -7.54654 3.54198 -4.71193
# Velocity P-wave (km/s) = 7.68861 6.09592 3.31320
#
# Compressibility (1/GPa) = 0.02559170
#
# Stress axis : x y z
#
# Youngs Moduli (GPa) = 139.63690 59.43844 103.29795
#
# Poissons Ratio (x) = 0.13332 0.17959
# Poissons Ratio (y) = 0.31320 0.00577
# Poissons Ratio (z) = 0.24276 0.00332
#
# Static dielectric constant tensor:
#      x y z
#    x 2.955120 0.000000 0.000000 
#    y 0.000000 1.889840 0.000000 
#    z 0.000000 0.000000 1.865850 
# 
# From -- ./inp_files/50557.got.cif
#   From: 2010.05.17/outbox.cif.g08.bks.cpg/sg63_26_cif.got.tgz:50557.got - 2010.06.03 15:47:04.
