data_PCOD9475530
_publ_section_title
;
Structure prediction by ZEFSAII (Michael W. Deem and Ramdas Pophale) SiO2 
 PCOD9475530
Probable space group: C M C M
;
_chemical_formula_sum "Si O2"
_cell_formula_units_Z 96
_cell_length_a 20.537970
_cell_length_b 9.784287
_cell_length_c 23.393314
_cell_angle_alpha 90.000000
_cell_angle_beta 90.000000
_cell_angle_gamma 90.000000
_cell_volume 4700.872246
_symmetry_space_group_name_H-M "C M C M"
_symmetry_group_IT_number 63
_symmetry_cell_setting 'orthorhombic'
loop_
_space_group_symop_operation_xyz
x,y,z
-x,-y,1/2+z
x,-y,-z
-x,y,1/2-z
-x,-y,-z
x,y,1/2-z
-x,y,z
x,-y,1/2+z
1/2+x,1/2+y,z
1/2-x,1/2-y,1/2+z
1/2+x,1/2-y,-z
1/2-x,1/2+y,1/2-z
1/2-x,1/2-y,-z
1/2+x,1/2+y,1/2-z
1/2-x,1/2+y,z
1/2+x,1/2-y,1/2+z
loop_
_atom_site_type_symbol
_atom_site_label
_atom_site_fract_x
_atom_site_fract_y
_atom_site_fract_z
Si Si1 0.572511 0.661038 0.016477
Si Si2 0.071007 0.462649 0.681089
Si Si3 0.709609 0.936247 0.652703
Si Si4 0.070312 0.817788 0.111398
Si Si5 0.214429 0.135985 0.462161
Si Si6 0.178414 0.869129 0.311625
O O1 0.500000 0.698970 0.038689
O O2 0.581298 0.729259 0.953579
O O3 0.569538 0.500000 0.000000
O O4 0.639563 0.682120 0.050690
O O5 0.077836 0.458117 0.750000
O O6 0.139168 0.510904 0.654118
O O7 0.066976 0.311121 0.653712
O O8 0.000000 0.528049 0.668576
O O9 0.740475 0.900092 0.591550
O O10 0.700284 0.788356 0.682010
O O11 0.760257 0.033203 0.683857
O O12 0.129974 0.902385 0.136147
O O13 0.000000 0.888703 0.112812
O O14 0.250000 0.250000 0.500000
O O15 0.208840 0.000000 0.500000
O O16 0.145625 0.886568 0.250000
#
# Coordination Sequence:
#
# PCOD9475530 Si02
#       6
#    16  16  16  16  16  16
#     4   9  17  30  48  71  99 135 177 212 249 305
#     4   9  17  31  52  76  99 127 169 217 259 301
#     4  11  21  35  54  79 107 136 175 217 261 313
#     4   9  16  28  48  74 101 128 167 219 261 293
#     4  11  21  35  55  79 107 140 176 218 264 310
#     4  11  21  34  53  78 108 139 171 212 263 314
#
# _framework density 20.421742999999999
#
# number of rings (size 3 to 8) (size 9 to 14) (size 15 to 20)
#    0.000    2.000    0.000    8.000    0.000    1.000 
#    0.000    0.000    0.000    6.000    0.000    0.000 
#    0.000    0.000    0.000    0.000    0.000    0.000 
#
# Total GULP energy -267361.340308 kJ/mol
# GULP energy per Si atom -5570.027923 kJ/mol
# Density = 2.037526 g / cm^3
# Si number density = 20.421743 Si / 1000 Ang^3
#
#
#
# Elastic Constant Matrix: (Units=GPa)
#
#
# Indices 1 2 3 4 5 6 
#
# 1 160.9589 5.5037 24.2280 0.0000 0.0000 0.0000
# 2 5.5037 32.1575 -10.0715 0.0000 0.0000 0.0000
# 3 24.2280 -10.0715 62.0605 0.0000 0.0000 0.0000
# 4 0.0000 0.0000 0.0000 16.1806 0.0000 0.0000
# 5 0.0000 0.0000 0.0000 0.0000 31.3971 0.0000
# 6 0.0000 0.0000 0.0000 0.0000 0.0000 18.8598
#
#
#
# Elastic Compliance Matrix: (Units=1/GPa)
#
#
# Indices 1 2 3 4 5 6 
#
# 1 0.006730 -0.002081 -0.002965 0.000000 0.000000 0.000000
# 2 -0.002081 0.033405 0.006233 0.000000 0.000000 0.000000
# 3 -0.002965 0.006233 0.018282 0.000000 0.000000 0.000000
# 4 0.000000 0.000000 0.000000 0.061802 0.000000 0.000000
# 5 0.000000 0.000000 0.000000 0.000000 0.031850 0.000000
# 6 0.000000 0.000000 0.000000 0.000000 0.000000 0.053023
#
#
# Mechanical properties :
#
#
# Convention : Reuss Voigt Hill
#
# Bulk Modulus (GPa) = 16.44909 32.72192 24.58550
# Shear Modulus (GPa) = 22.42333 28.98861 25.70597
#
# Velocity S-wave (km/s) = 3.31722 3.77171 3.55174
# Velocity P-wave (km/s) = 4.76908 5.91824 5.37446
#
# Compressibility (1/GPa) = 0.06079363
#
# Stress axis : x y z
#
# Youngs Moduli (GPa) = 148.58362 29.93537 54.69728
#
# Poissons Ratio (x) = 0.06228 0.16218
# Poissons Ratio (y) = 0.30913 -0.34095
# Poissons Ratio (z) = 0.44056 -0.18660
#
# Static dielectric constant tensor:
#      x y z
#    x 1.847570 0.000000 0.000000 
#    y 0.000000 1.714450 0.000000 
#    z 0.000000 0.000000 1.775240 
# 
# From -- ./inp_files/64564.got.cif
#   From: 2010.05.17/outbox.cif.g08.bks.cpg/sg63_33_cif.got.tgz:64564.got - 2010.06.03 15:47:04.
