data_PCOD9475391
_publ_section_title
;
Structure prediction by ZEFSAII (Michael W. Deem and Ramdas Pophale) SiO2 
 PCOD9475391
Probable space group: C M C M
;
_chemical_formula_sum "Si O2"
_cell_formula_units_Z 80
_cell_length_a 11.426356
_cell_length_b 20.331631
_cell_length_c 18.442168
_cell_angle_alpha 90.000000
_cell_angle_beta 90.000000
_cell_angle_gamma 90.000000
_cell_volume 4284.419071
_symmetry_space_group_name_H-M "C M C M"
_symmetry_group_IT_number 63
_symmetry_cell_setting 'orthorhombic'
loop_
_space_group_symop_operation_xyz
x,y,z
-x,-y,1/2+z
x,-y,-z
-x,y,1/2-z
-x,-y,-z
x,y,1/2-z
-x,y,z
x,-y,1/2+z
1/2+x,1/2+y,z
1/2-x,1/2-y,1/2+z
1/2+x,1/2-y,-z
1/2-x,1/2+y,1/2-z
1/2-x,1/2-y,-z
1/2+x,1/2+y,1/2-z
1/2-x,1/2+y,z
1/2+x,1/2-y,1/2+z
loop_
_atom_site_type_symbol
_atom_site_label
_atom_site_fract_x
_atom_site_fract_y
_atom_site_fract_z
Si Si1 0.000000 0.875139 0.834521
Si Si2 0.136700 0.657556 0.165314
Si Si3 0.000000 0.278728 0.339855
Si Si4 0.281646 0.552651 0.097627
Si Si5 0.756009 0.277934 0.416835
Si Si6 0.640927 0.583923 0.565647
O O1 0.000000 0.799304 0.854750
O O2 0.886508 0.911033 0.862461
O O3 0.000000 0.877993 0.750000
O O4 0.166341 0.651239 0.250000
O O5 0.166772 0.589239 0.125384
O O6 0.209245 0.717415 0.131140
O O7 0.000000 0.672524 0.158022
O O8 0.118218 0.299945 0.382805
O O9 0.000000 0.289502 0.250000
O O10 0.298413 0.475090 0.110382
O O11 0.306526 0.570844 0.014168
O O12 0.750000 0.250000 0.500000
O O13 0.674166 0.342363 0.412533
O O14 0.500000 0.574686 0.564579
#
# Coordination Sequence:
#
# PCOD9475391 Si02
#       6
#     8  16   8  16  16  16
#     4  11  18  33  63  89 114 155 211 253 298 374
#     4  11  24  42  63  89 127 170 210 257 314 376
#     4  11  24  42  63  90 129 174 215 266 318 377
#     4  11  20  39  63  91 121 158 205 258 319 376
#     4  12  24  38  67  96 127 163 216 263 316 377
#     4  11  22  39  63  94 127 156 199 267 324 369
#
# _framework density 18.67231
#
# number of rings (size 3 to 8) (size 9 to 14) (size 15 to 20)
#    0.000    0.800    6.000    2.400    2.800    0.000 
#    1.800    5.000    0.000    0.000    0.000    0.000 
#    0.000    0.000    0.000    0.000    0.000    0.000 
#
# Total GULP energy -223081.726700 kJ/mol
# GULP energy per Si atom -5577.043167 kJ/mol
# Density = 1.862981 g / cm^3
# Si number density = 18.672310 Si / 1000 Ang^3
#
#
#
# Elastic Constant Matrix: (Units=GPa)
#
#
# Indices 1 2 3 4 5 6 
#
# 1 79.2158 24.0364 33.4513 0.0000 0.0000 0.0000
# 2 24.0364 114.4545 8.5178 0.0000 0.0000 0.0000
# 3 33.4513 8.5178 75.8203 0.0000 0.0000 0.0000
# 4 0.0000 0.0000 0.0000 19.7801 0.0000 0.0000
# 5 0.0000 0.0000 0.0000 0.0000 31.2364 0.0000
# 6 0.0000 0.0000 0.0000 0.0000 0.0000 33.6345
#
#
#
# Elastic Compliance Matrix: (Units=1/GPa)
#
#
# Indices 1 2 3 4 5 6 
#
# 1 0.016438 -0.002937 -0.006922 0.000000 0.000000 0.000000
# 2 -0.002937 0.009335 0.000247 0.000000 0.000000 0.000000
# 3 -0.006922 0.000247 0.016215 0.000000 0.000000 0.000000
# 4 0.000000 0.000000 0.000000 0.050556 0.000000 0.000000
# 5 0.000000 0.000000 0.000000 0.000000 0.032014 0.000000
# 6 0.000000 0.000000 0.000000 0.000000 0.000000 0.029731
#
#
# Mechanical properties :
#
#
# Convention : Reuss Voigt Hill
#
# Bulk Modulus (GPa) = 43.92845 44.61127 44.26986
# Shear Modulus (GPa) = 27.60859 30.49587 29.05223
#
# Velocity S-wave (km/s) = 3.84941 4.04569 3.94877
# Velocity P-wave (km/s) = 6.58288 6.76513 6.67463
#
# Compressibility (1/GPa) = 0.02276429
#
# Stress axis : x y z
#
# Youngs Moduli (GPa) = 60.83431 107.11801 61.66963
#
# Poissons Ratio (x) = 0.31460 0.42690
# Poissons Ratio (y) = 0.17867 -0.01523
# Poissons Ratio (z) = 0.42112 -0.02646
#
# Static dielectric constant tensor:
#      x y z
#    x 1.573740 0.000000 0.000000 
#    y 0.000000 1.638140 0.000000 
#    z 0.000000 0.000000 1.570910 
# 
# From -- ./inp_files/42159.got.cif
#   From: 2010.05.17/outbox.cif.g08.bks.cpg/sg63_22_cif.got.tgz:42159.got - 2010.06.03 15:47:04.
