data_PCOD9475104
_publ_section_title
;
Structure prediction by ZEFSAII (Michael W. Deem and Ramdas Pophale) SiO2 
 PCOD9475104
Probable space group: C M C M
;
_chemical_formula_sum "Si O2"
_cell_formula_units_Z 72
_cell_length_a 25.359339
_cell_length_b 10.673460
_cell_length_c 14.290192
_cell_angle_alpha 90.000000
_cell_angle_beta 90.000000
_cell_angle_gamma 90.000000
_cell_volume 3867.953283
_symmetry_space_group_name_H-M "C M C M"
_symmetry_group_IT_number 63
_symmetry_cell_setting 'orthorhombic'
loop_
_space_group_symop_operation_xyz
x,y,z
-x,-y,1/2+z
x,-y,-z
-x,y,1/2-z
-x,-y,-z
x,y,1/2-z
-x,y,z
x,-y,1/2+z
1/2+x,1/2+y,z
1/2-x,1/2-y,1/2+z
1/2+x,1/2-y,-z
1/2-x,1/2+y,1/2-z
1/2-x,1/2-y,-z
1/2+x,1/2+y,1/2-z
1/2-x,1/2+y,z
1/2+x,1/2-y,1/2+z
loop_
_atom_site_type_symbol
_atom_site_label
_atom_site_fract_x
_atom_site_fract_y
_atom_site_fract_z
Si Si1 0.737022 0.322003 0.250000
Si Si2 0.689124 0.581601 0.250000
Si Si3 0.804718 0.261666 0.945620
Si Si4 0.384632 0.396645 0.570712
Si Si5 0.634910 0.000000 0.000000
Si Si6 0.938503 0.344837 0.140280
O O1 0.735796 0.475510 0.250000
O O2 0.787677 0.225581 0.250000
O O3 0.705351 0.284198 0.341930
O O4 0.652298 0.562503 0.158368
O O5 0.750000 0.250000 0.000000
O O6 0.845713 0.177859 0.001825
O O7 0.827513 0.400801 0.949307
O O8 0.407879 0.500000 0.500000
O O9 0.426370 0.298513 0.611868
O O10 0.598365 0.069784 0.924531
O O11 0.926027 0.361312 0.250000
O O12 0.000000 0.373816 0.125739
#
# Coordination Sequence:
#
# PCOD9475104 Si02
#       6
#     8   8  16  16   8  16
#     4  12  26  36  62  85 128 172 214 259 304 373
#     4  12  24  38  59  89 126 172 211 261 314 379
#     4  11  24  38  56  89 122 168 206 249 305 375
#     4  11  22  40  60  86 124 159 207 260 318 380
#     4  10  25  40  64  88 132 162 203 260 316 382
#     4  10  22  42  68  94 119 159 213 268 325 385
#
# _framework density 18.614495999999999
#
# number of rings (size 3 to 8) (size 9 to 14) (size 15 to 20)
#    0.000    1.111    5.556    0.333    6.222    0.444 
#    0.000    0.000    0.000    0.000    0.000    0.000 
#    0.000    0.000    0.000    0.000    0.000    0.000 
#
# Total GULP energy -200874.795894 kJ/mol
# GULP energy per Si atom -5579.855441 kJ/mol
# Density = 1.857213 g / cm^3
# Si number density = 18.614496 Si / 1000 Ang^3
#
#
#
# Elastic Constant Matrix: (Units=GPa)
#
#
# Indices 1 2 3 4 5 6 
#
# 1 60.2640 26.9775 19.9143 0.0000 0.0000 0.0000
# 2 26.9775 91.3700 26.5266 0.0000 0.0000 0.0000
# 3 19.9143 26.5266 116.6287 0.0000 0.0000 0.0000
# 4 0.0000 0.0000 0.0000 27.8082 0.0000 0.0000
# 5 0.0000 0.0000 0.0000 0.0000 25.1732 0.0000
# 6 0.0000 0.0000 0.0000 0.0000 0.0000 22.3155
#
#
#
# Elastic Compliance Matrix: (Units=1/GPa)
#
#
# Indices 1 2 3 4 5 6 
#
# 1 0.019624 -0.005162 -0.002177 0.000000 0.000000 0.000000
# 2 -0.005162 0.013076 -0.002093 0.000000 0.000000 0.000000
# 3 -0.002177 -0.002093 0.009422 0.000000 0.000000 0.000000
# 4 0.000000 0.000000 0.000000 0.035961 0.000000 0.000000
# 5 0.000000 0.000000 0.000000 0.000000 0.039725 0.000000
# 6 0.000000 0.000000 0.000000 0.000000 0.000000 0.044812
#
#
# Mechanical properties :
#
#
# Convention : Reuss Voigt Hill
#
# Bulk Modulus (GPa) = 42.99422 46.12215 44.55818
# Shear Modulus (GPa) = 26.42218 28.04901 27.23560
#
# Velocity S-wave (km/s) = 3.77163 3.88601 3.82925
# Velocity P-wave (km/s) = 6.48955 6.70568 6.59850
#
# Compressibility (1/GPa) = 0.02325894
#
# Stress axis : x y z
#
# Youngs Moduli (GPa) = 50.95856 76.47475 106.13621
#
# Poissons Ratio (x) = 0.39477 0.23102
# Poissons Ratio (y) = 0.26305 0.22211
# Poissons Ratio (z) = 0.11092 0.16004
#
# Static dielectric constant tensor:
#      x y z
#    x 1.625650 0.000000 0.000000 
#    y 0.000000 1.710150 0.000000 
#    z 0.000000 0.000000 1.609100 
# 
# From -- ./inp_files/24762.got.cif
#   From: 2010.05.17/outbox.cif.g08.bks.cpg/sg63_13_cif.got.tgz:24762.got - 2010.06.03 15:47:04.
