data_PCOD9475976
_publ_section_title
;
Structure prediction by ZEFSAII (Michael W. Deem and Ramdas Pophale) SiO2 
 PCOD9475976
Probable space group: C M C M
;
_chemical_formula_sum "Si O2"
_cell_formula_units_Z 80
_cell_length_a 14.167824
_cell_length_b 9.966664
_cell_length_c 21.525753
_cell_angle_alpha 90.000000
_cell_angle_beta 90.000000
_cell_angle_gamma 90.000000
_cell_volume 3039.564217
_symmetry_space_group_name_H-M "C M C M"
_symmetry_group_IT_number 63
_symmetry_cell_setting 'orthorhombic'
loop_
_space_group_symop_operation_xyz
x,y,z
-x,-y,1/2+z
x,-y,-z
-x,y,1/2-z
-x,-y,-z
x,y,1/2-z
-x,y,z
x,-y,1/2+z
1/2+x,1/2+y,z
1/2-x,1/2-y,1/2+z
1/2+x,1/2-y,-z
1/2-x,1/2+y,1/2-z
1/2-x,1/2-y,-z
1/2+x,1/2+y,1/2-z
1/2-x,1/2+y,z
1/2+x,1/2-y,1/2+z
loop_
_atom_site_type_symbol
_atom_site_label
_atom_site_fract_x
_atom_site_fract_y
_atom_site_fract_z
Si Si1 0.366909 0.558668 0.416208
Si Si2 0.863287 0.274596 0.504400
Si Si3 0.177272 0.711873 0.679572
Si Si4 0.398513 0.328337 0.320903
Si Si5 0.647812 0.006896 0.089851
O O1 0.400929 0.633413 0.479028
O O2 0.366827 0.679923 0.366273
O O3 0.404865 0.434607 0.377034
O O4 0.258428 0.517313 0.426109
O O5 0.750000 0.250000 0.500000
O O6 0.888730 0.346647 0.569338
O O7 0.889963 0.391344 0.455767
O O8 0.149995 0.733945 0.750000
O O9 0.291637 0.729748 0.673984
O O10 0.146976 0.562412 0.656981
O O11 0.394331 0.389618 0.250000
O O12 0.500000 0.252623 0.320349
#
# Coordination Sequence:
#
# PCOD9475976 Si02
#       5
#    16  16  16  16  16
#     4   9  15  24  40  62  84 112 146 184 220 260
#     4   8  13  22  37  59  82 107 141 181 218 255
#     4   9  16  25  39  61  87 114 146 183 221 263
#     4   9  17  28  41  61  91 121 147 181 228 275
#     4   8  14  23  36  59  84 108 138 182 219 252
#
# _framework density 26.319562999999999
#
# number of rings (size 3 to 8) (size 9 to 14) (size 15 to 20)
#    0.000    3.400    0.000    0.600    0.000    0.800 
#    0.000    0.000    0.000    0.000    0.000  303.800 
#    0.000   30.400    0.000    0.000    0.000    0.000 
#
# Total GULP energy -222908.392350 kJ/mol
# GULP energy per Si atom -5572.709809 kJ/mol
# Density = 2.625966 g / cm^3
# Si number density = 26.319563 Si / 1000 Ang^3
#
#
#
# Elastic Constant Matrix: (Units=GPa)
#
#
# Indices 1 2 3 4 5 6 
#
# 1 88.9023 -1.9158 -5.5769 0.0000 0.0000 0.0000
# 2 -1.9158 131.3738 29.7896 0.0000 0.0000 0.0000
# 3 -5.5769 29.7896 105.4905 0.0000 0.0000 0.0000
# 4 0.0000 0.0000 0.0000 33.9380 0.0000 0.0000
# 5 0.0000 0.0000 0.0000 0.0000 -14.1465 0.0000
# 6 0.0000 0.0000 0.0000 0.0000 0.0000 -15.3456
#
#
#
# Elastic Compliance Matrix: (Units=1/GPa)
#
#
# Indices 1 2 3 4 5 6 
#
# 1 0.011286 0.000031 0.000588 0.000000 0.000000 0.000000
# 2 0.000031 0.008133 -0.002295 0.000000 0.000000 0.000000
# 3 0.000588 -0.002295 0.010159 0.000000 0.000000 0.000000
# 4 0.000000 0.000000 0.000000 0.029465 0.000000 0.000000
# 5 0.000000 0.000000 0.000000 0.000000 -0.070689 0.000000
# 6 0.000000 0.000000 0.000000 0.000000 0.000000 -0.065165
#
#
# Mechanical properties :
#
#
# Convention : Reuss Voigt Hill
#
# Bulk Modulus (GPa) = 38.13077 41.15113 39.64095
# Shear Modulus (GPa) = -77.25810 21.12051 -28.06880
#
# Velocity S-wave (km/s) = -5.42380 2.83585 -3.26921
# Velocity P-wave (km/s) = 4.97035 5.13730 0.91856
#
# Compressibility (1/GPa) = 0.02622554
#
# Stress axis : x y z
#
# Youngs Moduli (GPa) = 88.60654 122.96013 98.43800
#
# Poissons Ratio (x) = -0.00385 -0.05786
# Poissons Ratio (y) = -0.00277 0.22591
# Poissons Ratio (z) = -0.05208 0.28219
#
# Static dielectric constant tensor:
#      x y z
#    x 2.163350 0.000000 0.000000 
#    y 0.000000 2.109410 0.000000 
#    z 0.000000 0.000000 2.082870 
# 
# From -- ./inp_files/55509.got.cif
#   From: 2010.05.17/outbox.cif.g08.bks.cpg/sg63_28_cif.got.tgz:55509.got - 2010.06.03 15:47:04.
