data_PCOD9475993
_publ_section_title
;
Structure prediction by ZEFSAII (Michael W. Deem and Ramdas Pophale) SiO2 
 PCOD9475993
Probable space group: C M C M
;
_chemical_formula_sum "Si O2"
_cell_formula_units_Z 112
_cell_length_a 25.662445
_cell_length_b 17.796892
_cell_length_c 11.224752
_cell_angle_alpha 90.000000
_cell_angle_beta 90.000000
_cell_angle_gamma 90.000000
_cell_volume 5126.476265
_symmetry_space_group_name_H-M "C M C M"
_symmetry_group_IT_number 63
_symmetry_cell_setting 'orthorhombic'
loop_
_space_group_symop_operation_xyz
x,y,z
-x,-y,1/2+z
x,-y,-z
-x,y,1/2-z
-x,-y,-z
x,y,1/2-z
-x,y,z
x,-y,1/2+z
1/2+x,1/2+y,z
1/2-x,1/2-y,1/2+z
1/2+x,1/2-y,-z
1/2-x,1/2+y,1/2-z
1/2-x,1/2-y,-z
1/2+x,1/2+y,1/2-z
1/2-x,1/2+y,z
1/2+x,1/2-y,1/2+z
loop_
_atom_site_type_symbol
_atom_site_label
_atom_site_fract_x
_atom_site_fract_y
_atom_site_fract_z
Si Si1 0.262477 0.651774 0.377684
Si Si2 0.560921 0.290738 0.117667
Si Si3 0.682145 0.493891 0.375720
Si Si4 0.121349 0.784053 0.881560
Si Si5 0.383098 0.101810 0.880357
Si Si6 0.270737 0.872341 0.121102
Si Si7 0.939353 0.391797 0.620330
O O1 0.237055 0.669093 0.250000
O O2 0.276705 0.562994 0.377434
O O3 0.319023 0.689675 0.385084
O O4 0.230108 0.669899 0.495370
O O5 0.580177 0.315002 0.250000
O O6 0.500000 0.311877 0.107557
O O7 0.562320 0.199390 0.117981
O O8 0.592393 0.313791 0.999593
O O9 0.652004 0.500000 0.500000
O O10 0.653123 0.498847 0.250000
O O11 0.717594 0.419656 0.376372
O O12 0.100541 0.807528 0.750000
O O13 0.119069 0.693354 0.882999
O O14 0.405967 0.082157 0.750000
O O15 0.322753 0.077444 0.882873
O O16 0.411731 0.080624 0.001119
O O17 0.273484 0.832178 0.250000
O O18 0.917190 0.414109 0.750000
O O19 0.000000 0.413610 0.616606
#
# Coordination Sequence:
#
# PCOD9475993 Si02
#       7
#    16  16  16  16  16  16  16
#     4   9  17  28  41  57  78 105 137 171 205 241
#     4   8  14  25  40  57  78 106 140 173 201 234
#     4   8  14  26  42  56  72  96 128 166 202 234
#     4   9  17  27  38  56  83 111 138 168 203 244
#     4   9  17  27  38  56  83 111 138 168 203 244
#     4   9  17  28  41  57  78 105 137 171 205 241
#     4   8  14  25  40  57  78 106 140 173 201 234
#
# _framework density 21.847366999999998
#
# number of rings (size 3 to 8) (size 9 to 14) (size 15 to 20)
#    0.000    3.429    0.000    0.857    0.000    2.286 
#    0.000    2.857    0.000    0.000    0.000    0.000 
#    0.000   10.286    0.000   34.571    0.000   37.714 
#
# Total GULP energy -311849.493419 kJ/mol
# GULP energy per Si atom -5568.740954 kJ/mol
# Density = 2.179764 g / cm^3
# Si number density = 21.847367 Si / 1000 Ang^3
#
#
#
# Elastic Constant Matrix: (Units=GPa)
#
#
# Indices 1 2 3 4 5 6 
#
# 1 30.1264 -7.9963 64.7989 0.0000 0.0000 0.0000
# 2 -7.9963 23.9483 1.8033 0.0000 0.0000 0.0000
# 3 64.7989 1.8033 313.1780 0.0000 0.0000 0.0000
# 4 0.0000 0.0000 0.0000 -54.9476 0.0000 0.0000
# 5 0.0000 0.0000 0.0000 0.0000 17.2529 0.0000
# 6 0.0000 0.0000 0.0000 0.0000 0.0000 0.8037
#
#
#
# Elastic Compliance Matrix: (Units=1/GPa)
#
#
# Indices 1 2 3 4 5 6 
#
# 1 0.072501 0.025349 -0.015147 0.000000 0.000000 0.000000
# 2 0.025349 0.050637 -0.005536 0.000000 0.000000 0.000000
# 3 -0.015147 -0.005536 0.006359 0.000000 0.000000 0.000000
# 4 0.000000 0.000000 0.000000 -0.018199 0.000000 0.000000
# 5 0.000000 0.000000 0.000000 0.000000 0.057961 0.000000
# 6 0.000000 0.000000 0.000000 0.000000 0.000000 1.244192
#
#
# Mechanical properties :
#
#
# Convention : Reuss Voigt Hill
#
# Bulk Modulus (GPa) = 7.20317 53.82941 30.51629
# Shear Modulus (GPa) = 3.44733 13.19825 8.32279
#
# Velocity S-wave (km/s) = 1.25751 2.46054 1.95392
# Velocity P-wave (km/s) = 2.32651 5.72404 4.36906
#
# Compressibility (1/GPa) = 0.13882783
#
# Stress axis : x y z
#
# Youngs Moduli (GPa) = 13.79284 19.74831 157.25776
#
# Poissons Ratio (x) = -0.50059 2.38199
# Poissons Ratio (y) = -0.34963 0.87064
# Poissons Ratio (z) = 0.20892 0.10933
#
# Static dielectric constant tensor:
#      x y z
#    x 1.745080 0.000000 0.000000 
#    y 0.000000 1.824760 0.000000 
#    z 0.000000 0.000000 1.924440 
# 
# From -- ./inp_files/24203.got.cif
#   From: 2010.05.17/outbox.cif.g08.bks.cpg/sg63_13_cif.got.tgz:24203.got - 2010.06.03 15:47:04.
