data_PCOD9475930
_publ_section_title
;
Structure prediction by ZEFSAII (Michael W. Deem and Ramdas Pophale) SiO2 
 PCOD9475930
Probable space group: C M C M
;
_chemical_formula_sum "Si O2"
_cell_formula_units_Z 48
_cell_length_a 9.529099
_cell_length_b 24.777632
_cell_length_c 9.980722
_cell_angle_alpha 90.000000
_cell_angle_beta 90.000000
_cell_angle_gamma 90.000000
_cell_volume 2356.533383
_symmetry_space_group_name_H-M "C M C M"
_symmetry_group_IT_number 63
_symmetry_cell_setting 'orthorhombic'
loop_
_space_group_symop_operation_xyz
x,y,z
-x,-y,1/2+z
x,-y,-z
-x,y,1/2-z
-x,-y,-z
x,y,1/2-z
-x,y,z
x,-y,1/2+z
1/2+x,1/2+y,z
1/2-x,1/2-y,1/2+z
1/2+x,1/2-y,-z
1/2-x,1/2+y,1/2-z
1/2-x,1/2-y,-z
1/2+x,1/2+y,1/2-z
1/2-x,1/2+y,z
1/2+x,1/2-y,1/2+z
loop_
_atom_site_type_symbol
_atom_site_label
_atom_site_fract_x
_atom_site_fract_y
_atom_site_fract_z
Si Si1 0.735353 0.126992 0.009251
Si Si2 0.827180 0.297561 0.750000
Si Si3 0.000000 0.943749 0.086302
Si Si4 0.500000 0.952741 0.602957
Si Si5 0.845554 0.692104 0.750000
O O1 0.742950 0.173974 0.120650
O O2 0.633462 0.084320 0.078980
O O3 0.668201 0.154744 0.879757
O O4 0.868552 0.093180 0.958720
O O5 0.779272 0.235579 0.750000
O O6 0.000000 0.303373 0.750000
O O7 0.000000 0.952608 0.250000
O O8 0.000000 0.000000 0.000000
O O9 0.500000 0.976190 0.750000
O O10 0.500000 0.000000 0.500000
O O11 0.000000 0.718588 0.750000
#
# Coordination Sequence:
#
# PCOD9475930 Si02
#       5
#    16   8   8   8   8
#     4  12  25  48  71 104 150 183 236 301 355 426
#     4  12  26  48  75 108 146 190 241 296 357 426
#     4  12  30  48  73 108 146 190 241 296 359 428
#     4  12  26  46  75 106 140 186 237 298 359 430
#     4  12  26  44  75 110 142 192 243 290 363 428
#
# _framework density 20.368903
#
# number of rings (size 3 to 8) (size 9 to 14) (size 15 to 20)
#    0.000    0.000    6.667    2.000    9.333    2.667 
#    0.000    0.000    0.000    0.000    0.000    0.000 
#    0.000    0.000    0.000    0.000    0.000    0.000 
#
# Total GULP energy -134089.769838 kJ/mol
# GULP energy per Si atom -5587.073743 kJ/mol
# Density = 2.032254 g / cm^3
# Si number density = 20.368903 Si / 1000 Ang^3
#
#
#
# Elastic Constant Matrix: (Units=GPa)
#
#
# Indices 1 2 3 4 5 6 
#
# 1 114.5199 25.5796 29.2640 0.0000 0.0000 0.0000
# 2 25.5796 73.9084 32.6929 0.0000 0.0000 0.0000
# 3 29.2640 32.6929 185.4026 0.0000 0.0000 0.0000
# 4 0.0000 0.0000 0.0000 -33.6510 0.0000 0.0000
# 5 0.0000 0.0000 0.0000 0.0000 59.4276 0.0000
# 6 0.0000 0.0000 0.0000 0.0000 0.0000 37.7154
#
#
#
# Elastic Compliance Matrix: (Units=1/GPa)
#
#
# Indices 1 2 3 4 5 6 
#
# 1 0.009636 -0.002887 -0.001012 0.000000 0.000000 0.000000
# 2 -0.002887 0.015540 -0.002285 0.000000 0.000000 0.000000
# 3 -0.001012 -0.002285 0.005956 0.000000 0.000000 0.000000
# 4 0.000000 0.000000 0.000000 -0.029717 0.000000 0.000000
# 5 0.000000 0.000000 0.000000 0.000000 0.016827 0.000000
# 6 0.000000 0.000000 0.000000 0.000000 0.000000 0.026514
#
#
# Mechanical properties :
#
#
# Convention : Reuss Voigt Hill
#
# Bulk Modulus (GPa) = 53.29157 60.98933 57.14045
# Shear Modulus (GPa) = 78.89092 31.78470 55.33781
#
# Velocity S-wave (km/s) = 6.23018 3.95454 5.21793
# Velocity P-wave (km/s) = 8.83026 7.13152 8.02596
#
# Compressibility (1/GPa) = 0.01876469
#
# Stress axis : x y z
#
# Youngs Moduli (GPa) = 103.78219 64.34970 167.89223
#
# Poissons Ratio (x) = 0.18580 0.16986
# Poissons Ratio (y) = 0.29965 0.38355
# Poissons Ratio (z) = 0.10500 0.14701
#
# Static dielectric constant tensor:
#      x y z
#    x 1.775740 0.000000 0.000000 
#    y 0.000000 1.735030 0.000000 
#    z 0.000000 0.000000 1.715150 
# 
# From -- ./inp_files/2027.got.cif
#   From: 2010.05.17/outbox.cif.g08.bks.cpg/sg63_2_cif.got.tgz:2027.got - 2010.06.03 15:47:04.
