data_PCOD9475690
_publ_section_title
;
Structure prediction by ZEFSAII (Michael W. Deem and Ramdas Pophale) SiO2 
 PCOD9475690
Probable space group: C M C M
;
_chemical_formula_sum "Si O2"
_cell_formula_units_Z 64
_cell_length_a 12.890864
_cell_length_b 13.748263
_cell_length_c 17.848342
_cell_angle_alpha 90.000000
_cell_angle_beta 90.000000
_cell_angle_gamma 90.000000
_cell_volume 3163.207904
_symmetry_space_group_name_H-M "C M C M"
_symmetry_group_IT_number 63
_symmetry_cell_setting 'orthorhombic'
loop_
_space_group_symop_operation_xyz
x,y,z
-x,-y,1/2+z
x,-y,-z
-x,y,1/2-z
-x,-y,-z
x,y,1/2-z
-x,y,z
x,-y,1/2+z
1/2+x,1/2+y,z
1/2-x,1/2-y,1/2+z
1/2+x,1/2-y,-z
1/2-x,1/2+y,1/2-z
1/2-x,1/2-y,-z
1/2+x,1/2+y,1/2-z
1/2-x,1/2+y,z
1/2+x,1/2-y,1/2+z
loop_
_atom_site_type_symbol
_atom_site_label
_atom_site_fract_x
_atom_site_fract_y
_atom_site_fract_z
Si Si1 0.000000 0.404619 0.586003
Si Si2 0.000000 0.443373 0.750000
Si Si3 0.500000 0.297493 0.459321
Si Si4 0.323434 0.591196 0.607896
Si Si5 0.500000 0.276177 0.750000
Si Si6 0.823165 0.500000 0.000000
Si Si7 0.500000 0.425194 0.889182
Si Si8 0.825269 0.390334 0.250000
O O1 0.897888 0.464990 0.565989
O O2 0.000000 0.382145 0.673634
O O3 0.000000 0.316352 0.527092
O O4 0.098891 0.515986 0.750000
O O5 0.400581 0.321272 0.409015
O O6 0.500000 0.367315 0.531722
O O7 0.251455 0.579854 0.535139
O O8 0.399168 0.496341 0.615123
O O9 0.250049 0.606053 0.678456
O O10 0.500000 0.346784 0.822449
O O11 0.600018 0.204470 0.750000
#
# Coordination Sequence:
#
# PCOD9475690 Si02
#       8
#     8   4   8  16   4   8   8   8
#     4  11  26  38  64  95 137 164 218 277 320 381
#     4  11  22  44  59  88 130 180 207 258 334 391
#     4  11  25  41  68 101 126 161 220 281 309 380
#     4  11  22  45  68  93 126 174 214 258 326 390
#     4  11  28  42  63 102 132 166 215 270 314 381
#     4  11  22  41  66  96 124 177 214 257 332 382
#     4  11  23  45  67  95 133 167 211 269 329 376
#     4  11  25  42  67  91 129 170 217 262 313 393
#
# _framework density 20.232624999999999
#
# number of rings (size 3 to 8) (size 9 to 14) (size 15 to 20)
#    0.000    1.000    5.000    1.500    3.500    5.500 
#    4.500    0.000    0.000    0.000    0.000    0.000 
#    0.000    0.000    0.000    0.000    0.000    0.000 
#
# Total GULP energy -178690.074136 kJ/mol
# GULP energy per Si atom -5584.064817 kJ/mol
# Density = 2.018657 g / cm^3
# Si number density = 20.232625 Si / 1000 Ang^3
#
#
#
# Elastic Constant Matrix: (Units=GPa)
#
#
# Indices 1 2 3 4 5 6 
#
# 1 127.3034 15.1627 33.5420 0.0000 0.0000 0.0000
# 2 15.1627 57.8913 -3.5378 0.0000 0.0000 0.0000
# 3 33.5420 -3.5378 104.1583 0.0000 0.0000 0.0000
# 4 0.0000 0.0000 0.0000 25.5707 0.0000 0.0000
# 5 0.0000 0.0000 0.0000 0.0000 737.3707 0.0000
# 6 0.0000 0.0000 0.0000 0.0000 0.0000 -6.9955
#
#
#
# Elastic Compliance Matrix: (Units=1/GPa)
#
#
# Indices 1 2 3 4 5 6 
#
# 1 0.008936 -0.002522 -0.002963 0.000000 0.000000 0.000000
# 2 -0.002522 0.018021 0.001424 0.000000 0.000000 0.000000
# 3 -0.002963 0.001424 0.010603 0.000000 0.000000 0.000000
# 4 0.000000 0.000000 0.000000 0.039107 0.000000 0.000000
# 5 0.000000 0.000000 0.000000 0.000000 0.001356 0.000000
# 6 0.000000 0.000000 0.000000 0.000000 0.000000 -0.142950
#
#
# Mechanical properties :
#
#
# Convention : Reuss Voigt Hill
#
# Bulk Modulus (GPa) = 33.96833 42.18742 38.07787
# Shear Modulus (GPa) = -106.40498 167.46827 30.53164
#
# Velocity S-wave (km/s) = -7.25982 9.10775 3.88884
# Velocity P-wave (km/s) = 7.31081 11.46725 6.24700
#
# Compressibility (1/GPa) = 0.02943919
#
# Stress axis : x y z
#
# Youngs Moduli (GPa) = 111.90178 55.49003 94.30889
#
# Poissons Ratio (x) = 0.13993 0.27948
# Poissons Ratio (y) = 0.28218 -0.13431
# Poissons Ratio (z) = 0.33161 -0.07903
#
# Static dielectric constant tensor:
#      x y z
#    x 1.692750 0.000000 0.000000 
#    y 0.000000 1.685520 0.000000 
#    z 0.000000 0.000000 1.698100 
# 
# From -- ./inp_files/41624.got.cif
#   From: 2010.05.17/outbox.cif.g08.bks.cpg/sg63_21_cif.got.tgz:41624.got - 2010.06.03 15:47:04.
