data_PCOD9475322
_publ_section_title
;
Structure prediction by ZEFSAII (Michael W. Deem and Ramdas Pophale) SiO2 
 PCOD9475322
Probable space group: C M C M
;
_chemical_formula_sum "Si O2"
_cell_formula_units_Z 88
_cell_length_a 11.061689
_cell_length_b 29.836114
_cell_length_c 15.275736
_cell_angle_alpha 90.000000
_cell_angle_beta 90.000000
_cell_angle_gamma 90.000000
_cell_volume 5041.570517
_symmetry_space_group_name_H-M "C M C M"
_symmetry_group_IT_number 63
_symmetry_cell_setting 'orthorhombic'
loop_
_space_group_symop_operation_xyz
x,y,z
-x,-y,1/2+z
x,-y,-z
-x,y,1/2-z
-x,-y,-z
x,y,1/2-z
-x,y,z
x,-y,1/2+z
1/2+x,1/2+y,z
1/2-x,1/2-y,1/2+z
1/2+x,1/2-y,-z
1/2-x,1/2+y,1/2-z
1/2-x,1/2-y,-z
1/2+x,1/2+y,1/2-z
1/2-x,1/2+y,z
1/2+x,1/2-y,1/2+z
loop_
_atom_site_type_symbol
_atom_site_label
_atom_site_fract_x
_atom_site_fract_y
_atom_site_fract_z
Si Si1 0.858050 0.635466 0.936245
Si Si2 0.643631 0.816114 0.250000
Si Si3 0.142655 0.741786 0.250000
Si Si4 0.746749 0.791585 0.568058
Si Si5 0.500000 0.679839 0.148484
Si Si6 0.000000 0.923365 0.898442
Si Si7 0.000000 0.978104 0.343727
Si Si8 0.788669 0.951415 0.028523
O O1 0.838292 0.655713 0.839152
O O2 0.000000 0.635501 0.951996
O O3 0.798304 0.666889 0.009868
O O4 0.806147 0.585643 0.944069
O O5 0.500000 0.801242 0.250000
O O6 0.749563 0.778929 0.250000
O O7 0.168060 0.716576 0.343167
O O8 0.000000 0.756014 0.250000
O O9 0.750000 0.750000 0.500000
O O10 0.881570 0.801099 0.601945
O O11 0.500000 0.692537 0.250000
O O12 0.500000 0.625695 0.142063
O O13 0.121385 0.929992 0.956049
O O14 0.000000 0.968049 0.840650
O O15 0.881776 0.963162 0.394737
O O16 0.000000 0.956836 0.250000
O O17 0.738180 0.000000 0.000000
#
# Coordination Sequence:
#
# PCOD9475322 Si02
#       8
#    16   8   8  16   8   8   8  16
#     4  11  23  41  63  88 124 166 204 255 310 367
#     4  10  24  42  64  91 126 163 211 254 313 377
#     4  12  26  44  62  93 124 159 213 264 307 369
#     4  12  26  41  63  88 123 164 204 254 312 366
#     4  12  24  39  66  91 117 160 211 253 299 378
#     4   9  17  37  58  86 119 149 197 249 305 358
#     4   9  18  32  57  86 123 152 185 253 318 356
#     4   9  19  36  58  87 119 154 199 248 300 373
#
# _framework density 17.454877
#
# number of rings (size 3 to 8) (size 9 to 14) (size 15 to 20)
#    0.000    1.455    4.545    1.909    5.091    0.364 
#    3.273    0.000    0.000    0.000    0.000    0.000 
#    0.000    0.000    0.000    0.000    0.000    0.000 
#
# Total GULP energy -245312.780514 kJ/mol
# GULP energy per Si atom -5575.290466 kJ/mol
# Density = 1.741515 g / cm^3
# Si number density = 17.454877 Si / 1000 Ang^3
#
#
#
# Elastic Constant Matrix: (Units=GPa)
#
#
# Indices 1 2 3 4 5 6 
#
# 1 123.9715 60.0381 61.3948 0.0000 0.0000 0.0000
# 2 60.0381 123.2437 61.8368 0.0000 0.0000 0.0000
# 3 61.3948 61.8368 142.0813 0.0000 0.0000 0.0000
# 4 0.0000 0.0000 0.0000 7.7779 0.0000 0.0000
# 5 0.0000 0.0000 0.0000 0.0000 21.9900 0.0000
# 6 0.0000 0.0000 0.0000 0.0000 0.0000 40.6012
#
#
#
# Elastic Compliance Matrix: (Units=1/GPa)
#
#
# Indices 1 2 3 4 5 6 
#
# 1 0.011639 -0.004026 -0.003277 0.000000 0.000000 0.000000
# 2 -0.004026 0.011773 -0.003384 0.000000 0.000000 0.000000
# 3 -0.003277 -0.003384 0.009927 0.000000 0.000000 0.000000
# 4 0.000000 0.000000 0.000000 0.128569 0.000000 0.000000
# 5 0.000000 0.000000 0.000000 0.000000 0.045475 0.000000
# 6 0.000000 0.000000 0.000000 0.000000 0.000000 0.024630
#
#
# Mechanical properties :
#
#
# Convention : Reuss Voigt Hill
#
# Bulk Modulus (GPa) = 83.57797 83.98179 83.77988
# Shear Modulus (GPa) = 19.42683 27.80894 23.61788
#
# Velocity S-wave (km/s) = 3.33975 3.99581 3.68242
# Velocity P-wave (km/s) = 7.92831 8.33707 8.13526
#
# Compressibility (1/GPa) = 0.01196487
#
# Stress axis : x y z
#
# Youngs Moduli (GPa) = 85.91865 84.93883 100.73161
#
# Poissons Ratio (x) = 0.34192 0.33013
# Poissons Ratio (y) = 0.34587 0.34092
# Poissons Ratio (z) = 0.28158 0.28747
#
# Static dielectric constant tensor:
#      x y z
#    x 1.564270 0.000000 0.000000 
#    y 0.000000 1.594020 0.000000 
#    z 0.000000 0.000000 1.601150 
# 
# From -- ./inp_files/30199.got.cif
#   From: 2010.05.17/outbox.cif.g08.bks.cpg/sg63_16_cif.got.tgz:30199.got - 2010.06.03 15:47:04.
