data_PCOD9475149
_publ_section_title
;
Structure prediction by ZEFSAII (Michael W. Deem and Ramdas Pophale) SiO2 
 PCOD9475149
Probable space group: C M C M
;
_chemical_formula_sum "Si O2"
_cell_formula_units_Z 100
_cell_length_a 14.538786
_cell_length_b 24.812888
_cell_length_c 14.420051
_cell_angle_alpha 90.000000
_cell_angle_beta 90.000000
_cell_angle_gamma 90.000000
_cell_volume 5202.022852
_symmetry_space_group_name_H-M "C M C M"
_symmetry_group_IT_number 63
_symmetry_cell_setting 'orthorhombic'
loop_
_space_group_symop_operation_xyz
x,y,z
-x,-y,1/2+z
x,-y,-z
-x,y,1/2-z
-x,-y,-z
x,y,1/2-z
-x,y,z
x,-y,1/2+z
1/2+x,1/2+y,z
1/2-x,1/2-y,1/2+z
1/2+x,1/2-y,-z
1/2-x,1/2+y,1/2-z
1/2-x,1/2-y,-z
1/2+x,1/2+y,1/2-z
1/2-x,1/2+y,z
1/2+x,1/2-y,1/2+z
loop_
_atom_site_type_symbol
_atom_site_label
_atom_site_fract_x
_atom_site_fract_y
_atom_site_fract_z
Si Si1 0.263555 0.862239 0.639342
Si Si2 0.220338 0.593929 0.647623
Si Si3 0.000000 0.532825 0.250000
Si Si4 0.892063 0.788205 0.554200
Si Si5 0.332713 0.978717 0.602148
Si Si6 0.890642 0.329767 0.017229
Si Si7 0.105572 0.167231 0.647128
O O1 0.272226 0.860199 0.750000
O O2 0.172324 0.830981 0.605453
O O3 0.271819 0.924427 0.605929
O O4 0.346242 0.832909 0.584431
O O5 0.184742 0.607839 0.750000
O O6 0.222998 0.530115 0.639253
O O7 0.152256 0.621272 0.574681
O O8 0.320242 0.620147 0.637132
O O9 0.919286 0.531610 0.331317
O O10 0.865064 0.725957 0.569064
O O11 0.882473 0.796066 0.443047
O O12 0.000000 0.795228 0.577611
O O13 0.360946 0.000000 0.500000
O O14 0.000000 0.332798 0.011631
O O15 0.119690 0.192207 0.750000
O O16 0.000000 0.147901 0.644361
#
# Coordination Sequence:
#
# PCOD9475149 Si02
#       7
#    16  16   4  16  16  16  16
#     4  12  25  42  64  91 131 172 217 264 321 382
#     4  11  22  39  62  92 126 161 214 260 317 381
#     4  12  26  40  64  94 126 176 222 264 324 378
#     4  10  22  44  65  92 126 165 214 266 321 385
#     4  12  24  41  64  91 128 175 213 267 321 381
#     4  11  25  40  63  92 126 169 214 259 319 380
#     4   9  18  35  64  92 121 160 207 269 326 376
#
# _framework density 19.223291
#
# number of rings (size 3 to 8) (size 9 to 14) (size 15 to 20)
#    0.000    1.120    4.800    0.720    2.240    2.240 
#    0.000    4.000    0.000    4.800    0.000    0.000 
#    0.000    0.000    0.000    0.000    0.000    0.000 
#
# Total GULP energy -278463.551238 kJ/mol
# GULP energy per Si atom -5569.271025 kJ/mol
# Density = 1.917954 g / cm^3
# Si number density = 19.223291 Si / 1000 Ang^3
#
#
#
# Elastic Constant Matrix: (Units=GPa)
#
#
# Indices 1 2 3 4 5 6 
#
# 1 65.3650 49.7428 36.9861 0.0000 0.0000 0.0000
# 2 49.7428 131.0920 32.1318 0.0000 0.0000 0.0000
# 3 36.9861 32.1318 118.1911 0.0000 0.0000 0.0000
# 4 0.0000 0.0000 0.0000 15.9771 0.0000 0.0000
# 5 0.0000 0.0000 0.0000 0.0000 15.0029 0.0000
# 6 0.0000 0.0000 0.0000 0.0000 0.0000 -349.6240
#
#
#
# Elastic Compliance Matrix: (Units=1/GPa)
#
#
# Indices 1 2 3 4 5 6 
#
# 1 0.024439 -0.007927 -0.005493 0.000000 0.000000 0.000000
# 2 -0.007927 0.010744 -0.000440 0.000000 0.000000 0.000000
# 3 -0.005493 -0.000440 0.010299 0.000000 0.000000 0.000000
# 4 0.000000 0.000000 0.000000 0.062590 0.000000 0.000000
# 5 0.000000 0.000000 0.000000 0.000000 0.066654 0.000000
# 6 0.000000 0.000000 0.000000 0.000000 0.000000 -0.002860
#
#
# Mechanical properties :
#
#
# Convention : Reuss Voigt Hill
#
# Bulk Modulus (GPa) = 56.29852 61.37436 58.83644
# Shear Modulus (GPa) = 24.33005 -50.67630 -13.17313
#
# Velocity S-wave (km/s) = 3.56146 -5.13996 -2.62060
# Velocity P-wave (km/s) = 6.80163 1.79698 4.63859
#
# Compressibility (1/GPa) = 0.01776246
#
# Stress axis : x y z
#
# Youngs Moduli (GPa) = 40.91769 93.07437 97.09257
#
# Poissons Ratio (x) = 0.73782 0.53331
# Poissons Ratio (y) = 0.32436 0.04274
# Poissons Ratio (z) = 0.22475 0.04098
#
# Static dielectric constant tensor:
#      x y z
#    x 1.638340 0.000000 0.000000 
#    y 0.000000 1.673150 0.000000 
#    z 0.000000 0.000000 1.727140 
# 
# From -- ./inp_files/32218.got.cif
#   From: 2010.05.17/outbox.cif.g08.bks.cpg/sg63_17_cif.got.tgz:32218.got - 2010.06.03 15:47:04.
