data_PCOD9475981
_publ_section_title
;
Structure prediction by ZEFSAII (Michael W. Deem and Ramdas Pophale) SiO2 
 PCOD9475981
Probable space group: C M C M
;
_chemical_formula_sum "Si O2"
_cell_formula_units_Z 80
_cell_length_a 14.484654
_cell_length_b 10.001842
_cell_length_c 25.914957
_cell_angle_alpha 90.000000
_cell_angle_beta 90.000000
_cell_angle_gamma 90.000000
_cell_volume 3754.383286
_symmetry_space_group_name_H-M "C M C M"
_symmetry_group_IT_number 63
_symmetry_cell_setting 'orthorhombic'
loop_
_space_group_symop_operation_xyz
x,y,z
-x,-y,1/2+z
x,-y,-z
-x,y,1/2-z
-x,-y,-z
x,y,1/2-z
-x,y,z
x,-y,1/2+z
1/2+x,1/2+y,z
1/2-x,1/2-y,1/2+z
1/2+x,1/2-y,-z
1/2-x,1/2+y,1/2-z
1/2-x,1/2-y,-z
1/2+x,1/2+y,1/2-z
1/2-x,1/2+y,z
1/2+x,1/2-y,1/2+z
loop_
_atom_site_type_symbol
_atom_site_label
_atom_site_fract_x
_atom_site_fract_y
_atom_site_fract_z
Si Si1 0.891077 0.797792 0.691350
Si Si2 0.855681 0.608541 0.460757
Si Si3 0.102004 0.037521 0.890997
Si Si4 0.689531 0.109944 0.887361
Si Si5 0.857556 0.828656 0.527716
O O1 0.862093 0.825599 0.750000
O O2 0.880180 0.926354 0.654170
O O3 0.839993 0.670130 0.667022
O O4 0.000000 0.767873 0.690939
O O5 0.896996 0.500000 0.500000
O O6 0.847818 0.536417 0.405269
O O7 0.894569 0.753671 0.476699
O O8 0.748771 0.627180 0.477549
O O9 0.097184 0.954013 0.944443
O O10 0.000000 0.097796 0.881039
O O11 0.199258 0.115585 0.891823
O O12 0.645375 0.212604 0.928647
#
# Coordination Sequence:
#
# PCOD9475981 Si02
#       5
#    16  16  16  16  16
#     4   9  18  32  48  66  87 111 144 186 228 272
#     4   8  13  23  42  63  86 121 157 183 216 261
#     4   9  17  29  46  68  92 118 149 184 224 271
#     4   9  16  27  46  68  89 117 150 187 228 267
#     4   8  14  25  42  63  91 121 150 184 222 258
#
# _framework density 21.308425
#
# number of rings (size 3 to 8) (size 9 to 14) (size 15 to 20)
#    0.000    3.400    0.000    0.000    0.000    0.800 
#    0.000    1.000    0.000   76.800    0.000    0.000 
#    0.000    0.000    0.000    0.000    0.000    0.000 
#
# Total GULP energy -222690.847617 kJ/mol
# GULP energy per Si atom -5567.271190 kJ/mol
# Density = 2.125993 g / cm^3
# Si number density = 21.308425 Si / 1000 Ang^3
#
#
#
# Elastic Constant Matrix: (Units=GPa)
#
#
# Indices 1 2 3 4 5 6 
#
# 1 65.5407 -3.1255 2.4065 0.0000 0.0000 0.0000
# 2 -3.1255 63.3956 12.5237 0.0000 0.0000 0.0000
# 3 2.4065 12.5237 102.0449 0.0000 0.0000 0.0000
# 4 0.0000 0.0000 0.0000 27.0249 0.0000 0.0000
# 5 0.0000 0.0000 0.0000 0.0000 -91.0716 0.0000
# 6 0.0000 0.0000 0.0000 0.0000 0.0000 -5.3321
#
#
#
# Elastic Compliance Matrix: (Units=1/GPa)
#
#
# Indices 1 2 3 4 5 6 
#
# 1 0.015315 0.000847 -0.000465 0.000000 0.000000 0.000000
# 2 0.000847 0.016213 -0.002010 0.000000 0.000000 0.000000
# 3 -0.000465 -0.002010 0.010057 0.000000 0.000000 0.000000
# 4 0.000000 0.000000 0.000000 0.037003 0.000000 0.000000
# 5 0.000000 0.000000 0.000000 0.000000 -0.010980 0.000000
# 6 0.000000 0.000000 0.000000 0.000000 0.000000 -0.187545
#
#
# Mechanical properties :
#
#
# Convention : Reuss Voigt Hill
#
# Bulk Modulus (GPa) = 26.08967 28.28785 27.18876
# Shear Modulus (GPa) = -48.12096 0.73601 -23.69248
#
# Velocity S-wave (km/s) = -4.75732 0.58835 -3.33811
# Velocity P-wave (km/s) = 4.23151 3.71023 1.43874
#
# Compressibility (1/GPa) = 0.03832934
#
# Stress axis : x y z
#
# Youngs Moduli (GPa) = 65.29480 61.67985 99.43098
#
# Poissons Ratio (x) = -0.05224 0.04625
# Poissons Ratio (y) = -0.05530 0.19983
# Poissons Ratio (z) = 0.03037 0.12396
#
# Static dielectric constant tensor:
#      x y z
#    x 1.870710 0.000000 0.000000 
#    y 0.000000 1.892590 0.000000 
#    z 0.000000 0.000000 1.816750 
# 
# From -- ./inp_files/69158.got.cif
#   From: 2010.05.17/outbox.cif.g08.bks.cpg/sg63_35_cif.got.tgz:69158.got - 2010.06.03 15:47:04.
