data_PCOD9475159
_publ_section_title
;
Structure prediction by ZEFSAII (Michael W. Deem and Ramdas Pophale) SiO2 
 PCOD9475159
Probable space group: C M C M
;
_chemical_formula_sum "Si O2"
_cell_formula_units_Z 36
_cell_length_a 12.718149
_cell_length_b 8.047805
_cell_length_c 14.806662
_cell_angle_alpha 90.000000
_cell_angle_beta 90.000000
_cell_angle_gamma 90.000000
_cell_volume 1515.508987
_symmetry_space_group_name_H-M "C M C M"
_symmetry_group_IT_number 63
_symmetry_cell_setting 'orthorhombic'
loop_
_space_group_symop_operation_xyz
x,y,z
-x,-y,1/2+z
x,-y,-z
-x,y,1/2-z
-x,-y,-z
x,y,1/2-z
-x,y,z
x,-y,1/2+z
1/2+x,1/2+y,z
1/2-x,1/2-y,1/2+z
1/2+x,1/2-y,-z
1/2-x,1/2+y,1/2-z
1/2-x,1/2-y,-z
1/2+x,1/2+y,1/2-z
1/2-x,1/2+y,z
1/2+x,1/2-y,1/2+z
loop_
_atom_site_type_symbol
_atom_site_label
_atom_site_fract_x
_atom_site_fract_y
_atom_site_fract_z
Si Si1 0.828592 0.352361 0.934848
Si Si2 0.126657 0.501612 0.250000
Si Si3 0.000000 0.184192 0.250000
Si Si4 0.500000 0.583787 0.596262
O O1 0.809763 0.446488 0.839601
O O2 0.902866 0.206548 0.900106
O O3 0.872160 0.500000 0.000000
O O4 0.750000 0.250000 0.000000
O O5 0.000000 0.563810 0.250000
O O6 0.100879 0.305568 0.250000
O O7 0.000000 0.064166 0.165692
O O8 0.500000 0.500000 0.500000
#
# Coordination Sequence:
#
# PCOD9475159 Si02
#       4
#    16   8   4   8
#     4  12  26  46  74 114 158 202 257 329 390 468
#     4  10  23  48  76 104 151 207 266 311 393 461
#     4  10  22  44  80 112 136 210 274 316 376 470
#     4  12  22  42  74 108 144 198 256 310 388 459
#
# _framework density 23.754394999999999
#
# number of rings (size 3 to 8) (size 9 to 14) (size 15 to 20)
#    0.667    0.000    2.222    6.000    0.000    1.778 
#    0.000    6.667    0.000    0.000    0.000    0.000 
#    0.000    0.000    0.000    0.000    0.000    0.000 
#
# Total GULP energy -100377.139718 kJ/mol
# GULP energy per Si atom -5576.507762 kJ/mol
# Density = 2.370033 g / cm^3
# Si number density = 23.754395 Si / 1000 Ang^3
#
#
#
# Elastic Constant Matrix: (Units=GPa)
#
#
# Indices 1 2 3 4 5 6 
#
# 1 72.6475 49.4196 30.5257 0.0000 0.0000 0.0000
# 2 49.4196 211.0831 106.0402 0.0000 0.0000 0.0000
# 3 30.5257 106.0402 249.9182 0.0000 0.0000 0.0000
# 4 0.0000 0.0000 0.0000 80.1233 0.0000 0.0000
# 5 0.0000 0.0000 0.0000 0.0000 21.0607 0.0000
# 6 0.0000 0.0000 0.0000 0.0000 0.0000 16.1161
#
#
#
# Elastic Compliance Matrix: (Units=1/GPa)
#
#
# Indices 1 2 3 4 5 6 
#
# 1 0.016417 -0.003605 -0.000476 0.000000 0.000000 0.000000
# 2 -0.003605 0.006812 -0.002450 0.000000 0.000000 0.000000
# 3 -0.000476 -0.002450 0.005099 0.000000 0.000000 0.000000
# 4 0.000000 0.000000 0.000000 0.012481 0.000000 0.000000
# 5 0.000000 0.000000 0.000000 0.000000 0.047482 0.000000
# 6 0.000000 0.000000 0.000000 0.000000 0.000000 0.062050
#
#
# Mechanical properties :
#
#
# Convention : Reuss Voigt Hill
#
# Bulk Modulus (GPa) = 65.49964 100.62442 83.06203
# Shear Modulus (GPa) = 29.67522 46.63758 38.15640
#
# Velocity S-wave (km/s) = 3.53831 4.43575 4.01220
# Velocity P-wave (km/s) = 6.65781 8.28775 7.51709
#
# Compressibility (1/GPa) = 0.01526726
#
# Stress axis : x y z
#
# Youngs Moduli (GPa) = 60.91202 146.79401 196.11580
#
# Poissons Ratio (x) = 0.52914 0.09331
# Poissons Ratio (y) = 0.21956 0.48052
# Poissons Ratio (z) = 0.02898 0.35967
#
# Static dielectric constant tensor:
#      x y z
#    x 2.066870 0.000000 0.000000 
#    y 0.000000 2.218200 0.000000 
#    z 0.000000 0.000000 1.902490 
# 
# From -- ./inp_files/30521.got.cif
#   From: 2010.05.17/outbox.cif.g08.bks.cpg/sg63_16_cif.got.tgz:30521.got - 2010.06.03 15:47:04.
