data_PCOD9475719
_publ_section_title
;
Structure prediction by ZEFSAII (Michael W. Deem and Ramdas Pophale) SiO2 
 PCOD9475719
Probable space group: C M C M
;
_chemical_formula_sum "Si O2"
_cell_formula_units_Z 80
_cell_length_a 7.459231
_cell_length_b 14.602162
_cell_length_c 31.956669
_cell_angle_alpha 90.000000
_cell_angle_beta 90.000000
_cell_angle_gamma 90.000000
_cell_volume 3480.749131
_symmetry_space_group_name_H-M "C M C M"
_symmetry_group_IT_number 63
_symmetry_cell_setting 'orthorhombic'
loop_
_space_group_symop_operation_xyz
x,y,z
-x,-y,1/2+z
x,-y,-z
-x,y,1/2-z
-x,-y,-z
x,y,1/2-z
-x,y,z
x,-y,1/2+z
1/2+x,1/2+y,z
1/2-x,1/2-y,1/2+z
1/2+x,1/2-y,-z
1/2-x,1/2+y,1/2-z
1/2-x,1/2-y,-z
1/2+x,1/2+y,1/2-z
1/2-x,1/2+y,z
1/2+x,1/2-y,1/2+z
loop_
_atom_site_type_symbol
_atom_site_label
_atom_site_fract_x
_atom_site_fract_y
_atom_site_fract_z
Si Si1 0.720192 0.088760 0.114342
Si Si2 0.786308 0.372328 0.294766
Si Si3 0.286459 0.094069 0.294798
Si Si4 0.201818 0.273256 0.952748
Si Si5 0.282707 0.123973 0.614418
O O1 0.500000 0.091811 0.116068
O O2 0.783400 0.124408 0.159975
O O3 0.790843 0.148263 0.075761
O O4 0.768129 0.982306 0.109918
O O5 0.711925 0.339717 0.250000
O O6 0.766626 0.483162 0.295255
O O7 0.717122 0.341352 0.339939
O O8 0.000000 0.354654 0.294341
O O9 0.211668 0.126572 0.250000
O O10 0.500000 0.112121 0.294102
O O11 0.215208 0.184054 0.923694
O O12 0.000000 0.305844 0.956275
O O13 0.250000 0.250000 0.000000
O O14 0.500000 0.127948 0.614472
#
# Coordination Sequence:
#
# PCOD9475719 Si02
#       5
#    16  16  16  16  16
#     4   8  16  31  51  73  99 132 165 198 241 295
#     4   7  10  19  41  73 102 126 156 193 230 276
#     4   7   9  17  38  68  97 124 157 194 229 273
#     4  11  23  38  53  72  99 129 166 213 263 308
#     4   9  17  33  56  78 100 130 167 203 242 290
#
# _framework density 22.983557999999999
#
# number of rings (size 3 to 8) (size 9 to 14) (size 15 to 20)
#    0.000    3.600    0.000    4.200    0.000    0.800 
#    0.000    7.000    0.000    1.800    0.000    0.000 
#    0.000    3.200    0.000    0.000    0.000    0.000 
#
# Total GULP energy -222958.111651 kJ/mol
# GULP energy per Si atom -5573.952791 kJ/mol
# Density = 2.293125 g / cm^3
# Si number density = 22.983558 Si / 1000 Ang^3
#
#
#
# Elastic Constant Matrix: (Units=GPa)
#
#
# Indices 1 2 3 4 5 6 
#
# 1 57.1540 -19.0181 -5.0664 0.0000 0.0000 0.0000
# 2 -19.0181 66.5872 37.1961 0.0000 0.0000 0.0000
# 3 -5.0664 37.1961 247.3383 0.0000 0.0000 0.0000
# 4 0.0000 0.0000 0.0000 31.0890 0.0000 0.0000
# 5 0.0000 0.0000 0.0000 0.0000 -0.2716 0.0000
# 6 0.0000 0.0000 0.0000 0.0000 0.0000 6.2796
#
#
#
# Elastic Compliance Matrix: (Units=1/GPa)
#
#
# Indices 1 2 3 4 5 6 
#
# 1 0.019385 0.005802 -0.000475 0.000000 0.000000 0.000000
# 2 0.005802 0.018132 -0.002608 0.000000 0.000000 0.000000
# 3 -0.000475 -0.002608 0.004425 0.000000 0.000000 0.000000
# 4 0.000000 0.000000 0.000000 0.032166 0.000000 0.000000
# 5 0.000000 0.000000 0.000000 0.000000 -3.681761 0.000000
# 6 0.000000 0.000000 0.000000 0.000000 0.000000 0.159246
#
#
# Mechanical properties :
#
#
# Convention : Reuss Voigt Hill
#
# Bulk Modulus (GPa) = 21.10585 44.14472 32.62529
# Shear Modulus (GPa) = -1.45431 31.28391 14.91480
#
# Velocity S-wave (km/s) = -0.79633 3.69337 2.55018
# Velocity P-wave (km/s) = 2.89092 6.11856 4.78509
#
# Compressibility (1/GPa) = 0.04738022
#
# Stress axis : x y z
#
# Youngs Moduli (GPa) = 51.58587 55.15141 225.96318
#
# Poissons Ratio (x) = -0.32000 0.10744
# Poissons Ratio (y) = -0.29931 0.58929
# Poissons Ratio (z) = 0.02453 0.14383
#
# Static dielectric constant tensor:
#      x y z
#    x 1.941840 0.000000 0.000000 
#    y 0.000000 1.878810 0.000000 
#    z 0.000000 0.000000 1.930530 
# 
# From -- ./inp_files/71581.got.cif
#   From: 2010.05.17/outbox.cif.g08.bks.cpg/sg63_36_cif.got.tgz:71581.got - 2010.06.03 15:47:04.
