data_PCOD9475896
_publ_section_title
;
Structure prediction by ZEFSAII (Michael W. Deem and Ramdas Pophale) SiO2 
 PCOD9475896
Probable space group: C M C M
;
_chemical_formula_sum "Si O2"
_cell_formula_units_Z 56
_cell_length_a 16.188329
_cell_length_b 8.823838
_cell_length_c 19.510421
_cell_angle_alpha 90.000000
_cell_angle_beta 90.000000
_cell_angle_gamma 90.000000
_cell_volume 2786.930824
_symmetry_space_group_name_H-M "C M C M"
_symmetry_group_IT_number 63
_symmetry_cell_setting 'orthorhombic'
loop_
_space_group_symop_operation_xyz
x,y,z
-x,-y,1/2+z
x,-y,-z
-x,y,1/2-z
-x,-y,-z
x,y,1/2-z
-x,y,z
x,-y,1/2+z
1/2+x,1/2+y,z
1/2-x,1/2-y,1/2+z
1/2+x,1/2-y,-z
1/2-x,1/2+y,1/2-z
1/2-x,1/2-y,-z
1/2+x,1/2+y,1/2-z
1/2-x,1/2+y,z
1/2+x,1/2-y,1/2+z
loop_
_atom_site_type_symbol
_atom_site_label
_atom_site_fract_x
_atom_site_fract_y
_atom_site_fract_z
Si Si1 0.000000 0.474383 0.671835
Si Si2 0.833805 0.825362 0.024007
Si Si3 0.363815 0.285730 0.176558
Si Si4 0.000000 0.724780 0.947996
Si Si5 0.000000 0.044582 0.176858
O O1 0.920974 0.363036 0.670159
O O2 0.000000 0.581215 0.604514
O O3 0.000000 0.540559 0.750000
O O4 0.820714 0.808861 0.105268
O O5 0.750000 0.750000 0.000000
O O6 0.917603 0.743502 0.995079
O O7 0.840209 0.000000 0.000000
O O8 0.318608 0.277781 0.250000
O O9 0.422994 0.431748 0.178195
O O10 0.000000 0.860498 0.892205
O O11 0.000000 0.129252 0.250000
#
# Coordination Sequence:
#
# PCOD9475896 Si02
#       5
#     8  16  16   8   8
#     4   9  20  36  64 104 131 167 221 266 320 389
#     4  12  27  44  66 100 130 168 225 272 324 392
#     4   9  19  40  64  89 130 174 213 261 326 386
#     4  12  22  40  69  93 134 170 214 268 329 377
#     4   9  16  33  64  95 119 165 219 258 308 385
#
# _framework density 20.093789999999998
#
# number of rings (size 3 to 8) (size 9 to 14) (size 15 to 20)
#    0.000    1.714    2.857    4.286    4.000    1.143 
#    0.000    4.286    0.000    0.000    0.000    0.000 
#    0.000    0.000    0.000    0.000    0.000    0.000 
#
# Total GULP energy -155928.633465 kJ/mol
# GULP energy per Si atom -5568.879767 kJ/mol
# Density = 2.004806 g / cm^3
# Si number density = 20.093790 Si / 1000 Ang^3
#
#
#
# Elastic Constant Matrix: (Units=GPa)
#
#
# Indices 1 2 3 4 5 6 
#
# 1 80.6509 13.3244 52.6547 0.0000 0.0000 0.0000
# 2 13.3244 89.3340 39.1696 0.0000 0.0000 0.0000
# 3 52.6547 39.1696 210.6499 0.0000 0.0000 0.0000
# 4 0.0000 0.0000 0.0000 35.1332 0.0000 0.0000
# 5 0.0000 0.0000 0.0000 0.0000 42.5767 0.0000
# 6 0.0000 0.0000 0.0000 0.0000 0.0000 -12.7856
#
#
#
# Elastic Compliance Matrix: (Units=1/GPa)
#
#
# Indices 1 2 3 4 5 6 
#
# 1 0.014851 -0.000640 -0.003593 0.000000 0.000000 0.000000
# 2 -0.000640 0.012215 -0.002112 0.000000 0.000000 0.000000
# 3 -0.003593 -0.002112 0.006038 0.000000 0.000000 0.000000
# 4 0.000000 0.000000 0.000000 0.028463 0.000000 0.000000
# 5 0.000000 0.000000 0.000000 0.000000 0.023487 0.000000
# 6 0.000000 0.000000 0.000000 0.000000 0.000000 -0.078213
#
#
# Mechanical properties :
#
#
# Convention : Reuss Voigt Hill
#
# Bulk Modulus (GPa) = 48.98276 65.65916 57.32096
# Shear Modulus (GPa) = 189.86436 31.35059 110.60747
#
# Velocity S-wave (km/s) = 9.73109 3.95424 7.42732
# Velocity P-wave (km/s) = 12.27554 7.32088 10.10654
#
# Compressibility (1/GPa) = 0.02041535
#
# Stress axis : x y z
#
# Youngs Moduli (GPa) = 67.33698 81.86555 165.61754
#
# Poissons Ratio (x) = 0.05236 0.59510
# Poissons Ratio (y) = 0.04306 0.34970
# Poissons Ratio (z) = 0.24196 0.17286
#
# Static dielectric constant tensor:
#      x y z
#    x 1.769620 0.000000 0.000000 
#    y 0.000000 1.728550 0.000000 
#    z 0.000000 0.000000 1.689630 
# 
# From -- ./inp_files/45016.got.cif
#   From: 2010.05.17/outbox.cif.g08.bks.cpg/sg63_23_cif.got.tgz:45016.got - 2010.06.03 15:47:04.
