data_PCOD9475711
_publ_section_title
;
Structure prediction by ZEFSAII (Michael W. Deem and Ramdas Pophale) SiO2 
 PCOD9475711
Probable space group: C M C M
;
_chemical_formula_sum "Si O2"
_cell_formula_units_Z 64
_cell_length_a 7.707506
_cell_length_b 15.146341
_cell_length_c 25.863983
_cell_angle_alpha 90.000000
_cell_angle_beta 90.000000
_cell_angle_gamma 90.000000
_cell_volume 3019.374673
_symmetry_space_group_name_H-M "C M C M"
_symmetry_group_IT_number 63
_symmetry_cell_setting 'orthorhombic'
loop_
_space_group_symop_operation_xyz
x,y,z
-x,-y,1/2+z
x,-y,-z
-x,y,1/2-z
-x,-y,-z
x,y,1/2-z
-x,y,z
x,-y,1/2+z
1/2+x,1/2+y,z
1/2-x,1/2-y,1/2+z
1/2+x,1/2-y,-z
1/2-x,1/2+y,1/2-z
1/2-x,1/2-y,-z
1/2+x,1/2+y,1/2-z
1/2-x,1/2+y,z
1/2+x,1/2-y,1/2+z
loop_
_atom_site_type_symbol
_atom_site_label
_atom_site_fract_x
_atom_site_fract_y
_atom_site_fract_z
Si Si1 0.292193 0.600601 0.138790
Si Si2 0.786294 0.898978 0.137400
Si Si3 0.700932 0.396018 0.250000
Si Si4 0.299199 0.388168 0.750000
Si Si5 0.705252 0.748739 0.939952
O O1 0.500000 0.595048 0.145319
O O2 0.231337 0.500412 0.129789
O O3 0.221397 0.635972 0.194172
O O4 0.256778 0.663955 0.091222
O O5 0.724979 0.868918 0.194569
O O6 0.724163 0.834558 0.092455
O O7 0.000000 0.898769 0.138512
O O8 0.500000 0.367875 0.250000
O O9 0.701435 0.503834 0.250000
O O10 0.500000 0.358104 0.750000
O O11 0.500000 0.742033 0.936865
O O12 0.750000 0.750000 0.000000
#
# Coordination Sequence:
#
# PCOD9475711 Si02
#       5
#    16  16   8   8  16
#     4   9  17  34  57  79 102 132 166 204 249 305
#     4   8  16  31  53  76 101 132 166 202 249 305
#     4   7  10  23  48  77 100 123 160 203 241 296
#     4   7  12  25  51  81 104 125 156 197 249 306
#     4  11  23  37  51  73 102 136 177 220 258 298
#
# _framework density 21.196441
#
# number of rings (size 3 to 8) (size 9 to 14) (size 15 to 20)
#    0.000    3.250    0.000    3.750    0.000    2.000 
#    0.000    9.375    0.000    0.000    0.000    3.500 
#    0.000    0.000    0.000    0.000    0.000    0.000 
#
# Total GULP energy -178410.165922 kJ/mol
# GULP energy per Si atom -5575.317685 kJ/mol
# Density = 2.114820 g / cm^3
# Si number density = 21.196441 Si / 1000 Ang^3
#
#
#
# Elastic Constant Matrix: (Units=GPa)
#
#
# Indices 1 2 3 4 5 6 
#
# 1 34.3296 4.1203 4.6570 0.0000 0.0000 0.0000
# 2 4.1203 110.2335 109.0431 0.0000 0.0000 0.0000
# 3 4.6570 109.0431 239.4420 0.0000 0.0000 0.0000
# 4 0.0000 0.0000 0.0000 37.6705 0.0000 0.0000
# 5 0.0000 0.0000 0.0000 0.0000 13.0192 0.0000
# 6 0.0000 0.0000 0.0000 0.0000 0.0000 14.5351
#
#
#
# Elastic Compliance Matrix: (Units=1/GPa)
#
#
# Indices 1 2 3 4 5 6 
#
# 1 0.029263 -0.000966 -0.000129 0.000000 0.000000 0.000000
# 2 -0.000966 0.016540 -0.007514 0.000000 0.000000 0.000000
# 3 -0.000129 -0.007514 0.007601 0.000000 0.000000 0.000000
# 4 0.000000 0.000000 0.000000 0.026546 0.000000 0.000000
# 5 0.000000 0.000000 0.000000 0.000000 0.076810 0.000000
# 6 0.000000 0.000000 0.000000 0.000000 0.000000 0.068799
#
#
# Mechanical properties :
#
#
# Convention : Reuss Voigt Hill
#
# Bulk Modulus (GPa) = 27.63500 68.84952 48.24226
# Shear Modulus (GPa) = 19.62024 30.79059 25.20541
#
# Velocity S-wave (km/s) = 3.04573 3.81547 3.45212
# Velocity P-wave (km/s) = 5.04326 7.20851 6.22082
#
# Compressibility (1/GPa) = 0.03618599
#
# Stress axis : x y z
#
# Youngs Moduli (GPa) = 34.17307 60.45796 131.56658
#
# Poissons Ratio (x) = 0.05840 0.01701
# Poissons Ratio (y) = 0.03301 0.98857
# Poissons Ratio (z) = 0.00442 0.45427
#
# Static dielectric constant tensor:
#      x y z
#    x 1.821770 0.000000 0.000000 
#    y 0.000000 1.755480 0.000000 
#    z 0.000000 0.000000 1.658810 
# 
# From -- ./inp_files/59082.got.cif
#   From: 2010.05.17/outbox.cif.g08.bks.cpg/sg63_30_cif.got.tgz:59082.got - 2010.06.03 15:47:04.
