data_PCOD9475307
_publ_section_title
;
Structure prediction by ZEFSAII (Michael W. Deem and Ramdas Pophale) SiO2 
 PCOD9475307
Probable space group: C M C M
;
_chemical_formula_sum "Si O2"
_cell_formula_units_Z 92
_cell_length_a 10.090814
_cell_length_b 20.537836
_cell_length_c 23.877900
_cell_angle_alpha 90.000000
_cell_angle_beta 90.000000
_cell_angle_gamma 90.000000
_cell_volume 4948.539164
_symmetry_space_group_name_H-M "C M C M"
_symmetry_group_IT_number 63
_symmetry_cell_setting 'orthorhombic'
loop_
_space_group_symop_operation_xyz
x,y,z
-x,-y,1/2+z
x,-y,-z
-x,y,1/2-z
-x,-y,-z
x,y,1/2-z
-x,y,z
x,-y,1/2+z
1/2+x,1/2+y,z
1/2-x,1/2-y,1/2+z
1/2+x,1/2-y,-z
1/2-x,1/2+y,1/2-z
1/2-x,1/2-y,-z
1/2+x,1/2+y,1/2-z
1/2-x,1/2+y,z
1/2+x,1/2-y,1/2+z
loop_
_atom_site_type_symbol
_atom_site_label
_atom_site_fract_x
_atom_site_fract_y
_atom_site_fract_z
Si Si1 0.000000 0.688940 0.250000
Si Si2 0.000000 0.778562 0.361603
Si Si3 0.500000 0.577103 0.684577
Si Si4 0.734273 0.497978 0.629897
Si Si5 0.765120 0.257059 0.432504
Si Si6 0.847134 0.603329 0.955711
Si Si7 0.000000 0.551607 0.189057
Si Si8 0.644970 0.619186 0.056976
O O1 0.000000 0.743234 0.301141
O O2 0.000000 0.628830 0.202062
O O3 0.000000 0.856149 0.350723
O O4 0.872077 0.760368 0.398967
O O5 0.500000 0.592452 0.750000
O O6 0.630832 0.535664 0.669169
O O7 0.783243 0.548347 0.582762
O O8 0.659505 0.437515 0.601765
O O9 0.866539 0.470124 0.658493
O O10 0.750000 0.250000 0.500000
O O11 0.836892 0.326238 0.425436
O O12 0.838443 0.190605 0.416167
O O13 0.000000 0.588974 0.968223
O O14 0.760300 0.608465 0.011797
O O15 0.000000 0.518512 0.250000
O O16 0.500000 0.616186 0.029181
#
# Coordination Sequence:
#
# PCOD9475307 Si02
#       8
#     4   8   8  16  16  16   8  16
#     4  10  24  44  72  96 132 172 240 282 326 402
#     4  12  22  44  68 104 125 182 229 280 334 407
#     4  12  26  44  70  96 128 172 225 284 338 399
#     4  12  23  43  67  94 131 170 218 281 333 400
#     4  10  24  38  66  92 139 172 222 274 339 398
#     4  11  24  39  64  97 134 175 222 265 329 407
#     4  10  24  44  68  88 127 168 218 271 336 384
#     4  11  25  39  63  95 135 178 220 265 336 402
#
# _framework density 18.591346000000001
#
# number of rings (size 3 to 8) (size 9 to 14) (size 15 to 20)
#    0.261    0.696    3.913    2.609   12.174    1.391 
#    0.000    0.000    0.000    0.000    0.000    1.217 
#    0.000    0.000    0.000    0.000    0.000    0.000 
#
# Total GULP energy -256260.522679 kJ/mol
# GULP energy per Si atom -5570.880928 kJ/mol
# Density = 1.854903 g / cm^3
# Si number density = 18.591346 Si / 1000 Ang^3
#
#
#
# Elastic Constant Matrix: (Units=GPa)
#
#
# Indices 1 2 3 4 5 6 
#
# 1 125.1570 20.5158 32.7525 0.0000 0.0000 0.0000
# 2 20.5158 128.3690 27.0016 0.0000 0.0000 0.0000
# 3 32.7525 27.0016 73.7189 0.0000 0.0000 0.0000
# 4 0.0000 0.0000 0.0000 25.9909 0.0000 0.0000
# 5 0.0000 0.0000 0.0000 0.0000 23.2357 0.0000
# 6 0.0000 0.0000 0.0000 0.0000 0.0000 32.3269
#
#
#
# Elastic Compliance Matrix: (Units=1/GPa)
#
#
# Indices 1 2 3 4 5 6 
#
# 1 0.009091 -0.000654 -0.003800 0.000000 0.000000 0.000000
# 2 -0.000654 0.008487 -0.002818 0.000000 0.000000 0.000000
# 3 -0.003800 -0.002818 0.016286 0.000000 0.000000 0.000000
# 4 0.000000 0.000000 0.000000 0.038475 0.000000 0.000000
# 5 0.000000 0.000000 0.000000 0.000000 0.043037 0.000000
# 6 0.000000 0.000000 0.000000 0.000000 0.000000 0.030934
#
#
# Mechanical properties :
#
#
# Convention : Reuss Voigt Hill
#
# Bulk Modulus (GPa) = 51.75788 54.19830 52.97809
# Shear Modulus (GPa) = 29.88745 32.77572 31.33158
#
# Velocity S-wave (km/s) = 4.01384 4.20331 4.10967
# Velocity P-wave (km/s) = 7.02719 7.26449 7.14683
#
# Compressibility (1/GPa) = 0.01932073
#
# Stress axis : x y z
#
# Youngs Moduli (GPa) = 109.99288 117.82277 61.40429
#
# Poissons Ratio (x) = 0.07702 0.23332
# Poissons Ratio (y) = 0.07191 0.17305
# Poissons Ratio (z) = 0.41795 0.33206
#
# Static dielectric constant tensor:
#      x y z
#    x 1.662660 0.000000 0.000000 
#    y 0.000000 1.671500 0.000000 
#    z 0.000000 0.000000 1.641210 
# 
# From -- ./inp_files/59735.got.cif
#   From: 2010.05.17/outbox.cif.g08.bks.cpg/sg63_30_cif.got.tgz:59735.got - 2010.06.03 15:47:04.
