data_PCOD9475493
_publ_section_title
;
Structure prediction by ZEFSAII (Michael W. Deem and Ramdas Pophale) SiO2 
 PCOD9475493
Probable space group: C M C M
;
_chemical_formula_sum "Si O2"
_cell_formula_units_Z 96
_cell_length_a 15.186075
_cell_length_b 23.693145
_cell_length_c 13.891993
_cell_angle_alpha 90.000000
_cell_angle_beta 90.000000
_cell_angle_gamma 90.000000
_cell_volume 4998.420724
_symmetry_space_group_name_H-M "C M C M"
_symmetry_group_IT_number 63
_symmetry_cell_setting 'orthorhombic'
loop_
_space_group_symop_operation_xyz
x,y,z
-x,-y,1/2+z
x,-y,-z
-x,y,1/2-z
-x,-y,-z
x,y,1/2-z
-x,y,z
x,-y,1/2+z
1/2+x,1/2+y,z
1/2-x,1/2-y,1/2+z
1/2+x,1/2-y,-z
1/2-x,1/2+y,1/2-z
1/2-x,1/2-y,-z
1/2+x,1/2+y,1/2-z
1/2-x,1/2+y,z
1/2+x,1/2-y,1/2+z
loop_
_atom_site_type_symbol
_atom_site_label
_atom_site_fract_x
_atom_site_fract_y
_atom_site_fract_z
Si Si1 0.102323 0.418296 0.133876
Si Si2 0.288292 0.973568 0.867315
Si Si3 0.357567 0.853678 0.641822
Si Si4 0.156638 0.811756 0.859548
Si Si5 0.099228 0.300408 0.449645
Si Si6 0.403498 0.566638 0.367326
O O1 0.101059 0.419395 0.250000
O O2 0.165471 0.468889 0.100832
O O3 0.135533 0.357036 0.100270
O O4 0.000000 0.425133 0.101392
O O5 0.285088 0.974384 0.750000
O O6 0.348886 0.919087 0.889396
O O7 0.187036 0.963652 0.899250
O O8 0.393771 0.850690 0.750000
O O9 0.257031 0.832274 0.645194
O O10 0.402607 0.815868 0.561814
O O11 0.127988 0.797944 0.750000
O O12 0.148481 0.756788 0.924450
O O13 0.104653 0.867172 0.894187
O O14 0.000000 0.292714 0.412746
O O15 0.401575 0.565572 0.250000
O O16 0.500000 0.544773 0.397478
#
# Coordination Sequence:
#
# PCOD9475493 Si02
#       6
#    16  16  16  16  16  16
#     4   9  18  31  46  68  99 131 162 196 234 280
#     4   8  15  29  46  64  91 127 163 199 239 279
#     4   9  19  34  49  66  91 127 167 200 233 279
#     4   9  17  31  50  71  97 125 155 196 244 290
#     4  11  21  30  46  73 101 128 157 192 239 291
#     4   8  13  23  44  73  98 119 149 194 244 288
#
# _framework density 19.206066
#
# number of rings (size 3 to 8) (size 9 to 14) (size 15 to 20)
#    0.000    3.000    0.000    3.500    0.000    3.333 
#    0.000    3.333    0.000    0.000    0.000   14.000 
#    0.000   10.667    0.000    0.833    0.000    0.333 
#
# Total GULP energy -267567.437725 kJ/mol
# GULP energy per Si atom -5574.321619 kJ/mol
# Density = 1.916235 g / cm^3
# Si number density = 19.206066 Si / 1000 Ang^3
#
#
#
# Elastic Constant Matrix: (Units=GPa)
#
#
# Indices 1 2 3 4 5 6 
#
# 1 62.6157 27.7729 3.4110 0.0000 0.0000 0.0000
# 2 27.7729 103.6488 28.8835 0.0000 0.0000 0.0000
# 3 3.4110 28.8835 51.6748 0.0000 0.0000 0.0000
# 4 0.0000 0.0000 0.0000 25.8690 0.0000 0.0000
# 5 0.0000 0.0000 0.0000 0.0000 0.0087 0.0000
# 6 0.0000 0.0000 0.0000 0.0000 0.0000 15.4953
#
#
#
# Elastic Compliance Matrix: (Units=1/GPa)
#
#
# Indices 1 2 3 4 5 6 
#
# 1 0.018267 -0.005400 0.001812 0.000000 0.000000 0.000000
# 2 -0.005400 0.013024 -0.006923 0.000000 0.000000 0.000000
# 3 0.001812 -0.006923 0.023102 0.000000 0.000000 0.000000
# 4 0.000000 0.000000 0.000000 0.038656 0.000000 0.000000
# 5 0.000000 0.000000 0.000000 0.000000115.050181 0.000000
# 6 0.000000 0.000000 0.000000 0.000000 0.000000 0.064536
#
#
# Mechanical properties :
#
#
# Convention : Reuss Voigt Hill
#
# Bulk Modulus (GPa) = 29.96572 37.56377 33.76474
# Shear Modulus (GPa) = 0.04339 18.79940 9.42139
#
# Velocity S-wave (km/s) = 0.15046 3.13201 2.21722
# Velocity P-wave (km/s) = 3.95806 5.71665 4.91662
#
# Compressibility (1/GPa) = 0.03337147
#
# Stress axis : x y z
#
# Youngs Moduli (GPa) = 54.74450 76.78064 43.28635
#
# Poissons Ratio (x) = 0.41459 -0.07845
# Poissons Ratio (y) = 0.29560 0.29969
# Poissons Ratio (z) = -0.09922 0.53158
#
# Static dielectric constant tensor:
#      x y z
#    x 1.686810 0.000000 0.000000 
#    y 0.000000 1.657940 0.000000 
#    z 0.000000 0.000000 1.700510 
# 
# From -- ./inp_files/31946.got.cif
#   From: 2010.05.17/outbox.cif.g08.bks.cpg/sg63_16_cif.got.tgz:31946.got - 2010.06.03 15:47:04.
