data_PCOD9475937
_publ_section_title
;
Structure prediction by ZEFSAII (Michael W. Deem and Ramdas Pophale) SiO2 
 PCOD9475937
Probable space group: C M C M
;
_chemical_formula_sum "Si O2"
_cell_formula_units_Z 112
_cell_length_a 7.325251
_cell_length_b 33.874267
_cell_length_c 25.709554
_cell_angle_alpha 90.000000
_cell_angle_beta 90.000000
_cell_angle_gamma 90.000000
_cell_volume 6379.504667
_symmetry_space_group_name_H-M "C M C M"
_symmetry_group_IT_number 63
_symmetry_cell_setting 'orthorhombic'
loop_
_space_group_symop_operation_xyz
x,y,z
-x,-y,1/2+z
x,-y,-z
-x,y,1/2-z
-x,-y,-z
x,y,1/2-z
-x,y,z
x,-y,1/2+z
1/2+x,1/2+y,z
1/2-x,1/2-y,1/2+z
1/2+x,1/2-y,-z
1/2-x,1/2+y,1/2-z
1/2-x,1/2-y,-z
1/2+x,1/2+y,1/2-z
1/2-x,1/2+y,z
1/2+x,1/2-y,1/2+z
loop_
_atom_site_type_symbol
_atom_site_label
_atom_site_fract_x
_atom_site_fract_y
_atom_site_fract_z
Si Si1 0.716380 0.018948 0.442318
Si Si2 0.777678 0.292483 0.191440
Si Si3 0.223010 0.402243 0.987508
Si Si4 0.777013 0.438974 0.098729
Si Si5 0.281131 0.759312 0.416705
Si Si6 0.777955 0.383675 0.191624
Si Si7 0.716553 0.186567 0.488990
O O1 0.500000 0.022170 0.432153
O O2 0.786592 0.063552 0.447775
O O3 0.736057 0.000000 0.500000
O O4 0.786333 0.984450 0.404737
O O5 0.718558 0.281165 0.250000
O O6 0.715796 0.267329 0.141772
O O7 0.725020 0.338200 0.182170
O O8 0.000000 0.291395 0.192245
O O9 0.286100 0.357540 0.979482
O O10 0.000000 0.402684 0.985497
O O11 0.273402 0.416638 0.045453
O O12 0.715457 0.413819 0.147845
O O13 0.000000 0.439766 0.099282
O O14 0.500000 0.763435 0.415373
O O15 0.212211 0.791447 0.459030
O O16 0.242966 0.716674 0.441415
O O17 0.721741 0.394481 0.250000
O O18 0.000000 0.383874 0.190544
O O19 0.500000 0.182468 0.497025
#
# Coordination Sequence:
#
# PCOD9475937 Si02
#       7
#    16  16  16  16  16  16  16
#     4   7  10  15  23  37  56  77 101 128 156 185
#     4   8  13  21  33  48  65  86 113 143 172 203
#     4   8  12  18  28  42  60  82 107 132 159 191
#     4   8  11  15  24  38  59  83 102 126 160 192
#     4   9  16  25  36  51  70  90 114 143 174 206
#     4   8  12  16  23  38  59  81 104 128 157 196
#     4   9  16  24  35  51  71  94 116 139 169 206
#
# _framework density 17.556222999999999
#
# number of rings (size 3 to 8) (size 9 to 14) (size 15 to 20)
#    0.000    3.857    0.000    3.429    0.000    3.429 
#    0.000    0.000    0.000    0.429    0.000    1.000 
#    0.000    8.571    0.000    0.286    0.000    0.714 
#
# Total GULP energy -311796.045801 kJ/mol
# GULP energy per Si atom -5567.786532 kJ/mol
# Density = 1.751626 g / cm^3
# Si number density = 17.556223 Si / 1000 Ang^3
#
#
#
# Elastic Constant Matrix: (Units=GPa)
#
#
# Indices 1 2 3 4 5 6 
#
# 1 64.4505 3.5356 -3.9958 0.0000 0.0000 0.0000
# 2 3.5356 165.0634 84.2086 0.0000 0.0000 0.0000
# 3 -3.9958 84.2086 98.7539 0.0000 0.0000 0.0000
# 4 0.0000 0.0000 0.0000 26.0238 0.0000 0.0000
# 5 0.0000 0.0000 0.0000 0.0000 -10.0761 0.0000
# 6 0.0000 0.0000 0.0000 0.0000 0.0000 3.5693
#
#
#
# Elastic Compliance Matrix: (Units=1/GPa)
#
#
# Indices 1 2 3 4 5 6 
#
# 1 0.015681 -0.001167 0.001630 0.000000 0.000000 0.000000
# 2 -0.001167 0.010810 -0.009265 0.000000 0.000000 0.000000
# 3 0.001630 -0.009265 0.018092 0.000000 0.000000 0.000000
# 4 0.000000 0.000000 0.000000 0.038426 0.000000 0.000000
# 5 0.000000 0.000000 0.000000 0.000000 -0.099245 0.000000
# 6 0.000000 0.000000 0.000000 0.000000 0.000000 0.280167
#
#
# Mechanical properties :
#
#
# Convention : Reuss Voigt Hill
#
# Bulk Modulus (GPa) = 37.06670 55.08498 46.07584
# Shear Modulus (GPa) = 17.20996 20.20469 18.70732
#
# Velocity S-wave (km/s) = 3.13433 3.39611 3.26784
# Velocity P-wave (km/s) = 5.85301 6.84270 6.36711
#
# Compressibility (1/GPa) = 0.02697839
#
# Stress axis : x y z
#
# Youngs Moduli (GPa) = 63.77195 92.50793 55.27160
#
# Poissons Ratio (x) = 0.10800 -0.09009
# Poissons Ratio (y) = 0.07445 0.51209
# Poissons Ratio (z) = -0.10395 0.85708
#
# Static dielectric constant tensor:
#      x y z
#    x 1.771330 0.000000 0.000000 
#    y 0.000000 1.611150 0.000000 
#    z 0.000000 0.000000 1.581060 
# 
# From -- ./inp_files/62080.got.cif
#   From: 2010.05.17/outbox.cif.g08.bks.cpg/sg63_32_cif.got.tgz:62080.got - 2010.06.03 15:47:04.
