data_PCOD9475174
_publ_section_title
;
Structure prediction by ZEFSAII (Michael W. Deem and Ramdas Pophale) SiO2 
 PCOD9475174
Probable space group: C M C M
;
_chemical_formula_sum "Si O2"
_cell_formula_units_Z 64
_cell_length_a 15.601942
_cell_length_b 11.669042
_cell_length_c 17.736174
_cell_angle_alpha 90.000000
_cell_angle_beta 90.000000
_cell_angle_gamma 90.000000
_cell_volume 3229.042810
_symmetry_space_group_name_H-M "C M C M"
_symmetry_group_IT_number 63
_symmetry_cell_setting 'orthorhombic'
loop_
_space_group_symop_operation_xyz
x,y,z
-x,-y,1/2+z
x,-y,-z
-x,y,1/2-z
-x,-y,-z
x,y,1/2-z
-x,y,z
x,-y,1/2+z
1/2+x,1/2+y,z
1/2-x,1/2-y,1/2+z
1/2+x,1/2-y,-z
1/2-x,1/2+y,1/2-z
1/2-x,1/2-y,-z
1/2+x,1/2+y,1/2-z
1/2-x,1/2+y,z
1/2+x,1/2-y,1/2+z
loop_
_atom_site_type_symbol
_atom_site_label
_atom_site_fract_x
_atom_site_fract_y
_atom_site_fract_z
Si Si1 0.653021 0.367334 0.521005
Si Si2 0.000000 0.029537 0.750000
Si Si3 0.000000 0.826367 0.868763
Si Si4 0.000000 0.375098 0.250000
Si Si5 0.803312 0.889069 0.250000
Si Si6 0.811328 0.278522 0.617391
Si Si7 0.152173 0.556750 0.250000
O O1 0.648339 0.500000 0.500000
O O2 0.582189 0.331034 0.579641
O O3 0.741446 0.341937 0.565349
O O4 0.638559 0.294366 0.444989
O O5 0.907526 0.094990 0.750000
O O6 0.000000 0.942398 0.680091
O O7 0.000000 0.712075 0.819687
O O8 0.916443 0.455471 0.250000
O O9 0.776113 0.816298 0.323533
O O10 0.749376 0.006321 0.250000
O O11 0.857201 0.366737 0.674341
#
# Coordination Sequence:
#
# PCOD9475174 Si02
#       7
#    16   4   8   4   8  16   8
#     4  11  22  39  61  91 123 157 200 254 305 356
#     4  11  22  37  64  94 112 153 208 253 302 358
#     4  11  23  39  61  88 120 154 202 255 305 354
#     4  11  26  43  62  88 122 165 208 241 296 374
#     4  11  22  41  64  88 124 159 200 257 302 348
#     4  10  23  38  61  89 119 159 204 241 301 370
#     4  11  22  41  62  86 122 165 202 249 298 356
#
# _framework density 19.820115000000001
#
# number of rings (size 3 to 8) (size 9 to 14) (size 15 to 20)
#    0.000    1.250    0.000    6.375    0.000   10.000 
#    0.000    1.250    0.000    0.000    0.000    0.000 
#    0.000    0.000    0.000    0.000    0.000    0.000 
#
# Total GULP energy -178625.242339 kJ/mol
# GULP energy per Si atom -5582.038823 kJ/mol
# Density = 1.977500 g / cm^3
# Si number density = 19.820115 Si / 1000 Ang^3
#
#
#
# Elastic Constant Matrix: (Units=GPa)
#
#
# Indices 1 2 3 4 5 6 
#
# 1 61.4496 49.2107 25.8697 0.0000 0.0000 0.0000
# 2 49.2107 143.2875 76.1353 0.0000 0.0000 0.0000
# 3 25.8697 76.1353 160.4270 0.0000 0.0000 0.0000
# 4 0.0000 0.0000 0.0000 201.9923 0.0000 0.0000
# 5 0.0000 0.0000 0.0000 0.0000 5.0584 0.0000
# 6 0.0000 0.0000 0.0000 0.0000 0.0000 37.1477
#
#
#
# Elastic Compliance Matrix: (Units=1/GPa)
#
#
# Indices 1 2 3 4 5 6 
#
# 1 0.022448 -0.007737 0.000052 0.000000 0.000000 0.000000
# 2 -0.007737 0.011999 -0.004447 0.000000 0.000000 0.000000
# 3 0.000052 -0.004447 0.008335 0.000000 0.000000 0.000000
# 4 0.000000 0.000000 0.000000 0.004951 0.000000 0.000000
# 5 0.000000 0.000000 0.000000 0.000000 0.197690 0.000000
# 6 0.000000 0.000000 0.000000 0.000000 0.000000 0.026920
#
#
# Mechanical properties :
#
#
# Convention : Reuss Voigt Hill
#
# Bulk Modulus (GPa) = 54.00065 74.17729 64.08897
# Shear Modulus (GPa) = 16.51368 63.10291 39.80829
#
# Velocity S-wave (km/s) = 2.88961 5.64862 4.48647
# Velocity P-wave (km/s) = 6.19981 8.94701 7.69697
#
# Compressibility (1/GPa) = 0.01851830
#
# Stress axis : x y z
#
# Youngs Moduli (GPa) = 44.54798 83.34008 119.97100
#
# Poissons Ratio (x) = 0.64481 -0.00625
# Poissons Ratio (y) = 0.34467 0.53349
# Poissons Ratio (z) = -0.00232 0.37060
#
# Static dielectric constant tensor:
#      x y z
#    x 1.503170 0.000000 0.000000 
#    y 0.000000 1.694180 0.000000 
#    z 0.000000 0.000000 1.671390 
# 
# From -- ./inp_files/43521.got.cif
#   From: 2010.05.17/outbox.cif.g08.bks.cpg/sg63_22_cif.got.tgz:43521.got - 2010.06.03 15:47:04.
