data_PCOD9475515
_publ_section_title
;
Structure prediction by ZEFSAII (Michael W. Deem and Ramdas Pophale) SiO2 
 PCOD9475515
Probable space group: C M C M
;
_chemical_formula_sum "Si O2"
_cell_formula_units_Z 80
_cell_length_a 14.526283
_cell_length_b 13.852507
_cell_length_c 16.549053
_cell_angle_alpha 90.000000
_cell_angle_beta 90.000000
_cell_angle_gamma 90.000000
_cell_volume 3330.090421
_symmetry_space_group_name_H-M "C M C M"
_symmetry_group_IT_number 63
_symmetry_cell_setting 'orthorhombic'
loop_
_space_group_symop_operation_xyz
x,y,z
-x,-y,1/2+z
x,-y,-z
-x,y,1/2-z
-x,-y,-z
x,y,1/2-z
-x,y,z
x,-y,1/2+z
1/2+x,1/2+y,z
1/2-x,1/2-y,1/2+z
1/2+x,1/2-y,-z
1/2-x,1/2+y,1/2-z
1/2-x,1/2-y,-z
1/2+x,1/2+y,1/2-z
1/2-x,1/2+y,z
1/2+x,1/2-y,1/2+z
loop_
_atom_site_type_symbol
_atom_site_label
_atom_site_fract_x
_atom_site_fract_y
_atom_site_fract_z
Si Si1 0.602903 0.183968 0.617865
Si Si2 0.662603 0.779174 0.946370
Si Si3 0.889859 0.522002 0.095246
Si Si4 0.111596 0.905716 0.342815
Si Si5 0.105132 0.110740 0.345559
O O1 0.500000 0.182468 0.653304
O O2 0.750000 0.250000 0.500000
O O3 0.595180 0.195711 0.521053
O O4 0.643912 0.078326 0.636007
O O5 0.637115 0.685515 0.895995
O O6 0.660007 0.875973 0.891939
O O7 0.850680 0.783802 0.855024
O O8 0.000000 0.531922 0.112355
O O9 0.879120 0.500000 0.000000
O O10 0.142221 0.891980 0.250000
O O11 0.144869 0.009791 0.377702
O O12 0.000000 0.912623 0.341901
O O13 0.098684 0.093968 0.250000
O O14 0.000000 0.119974 0.378617
#
# Coordination Sequence:
#
# PCOD9475515 Si02
#       5
#    16  16  16  16  16
#     4   9  17  33  55  77 103 142 188 234 279 330
#     4  11  21  33  49  81 111 144 184 235 287 346
#     4   8  15  31  53  72 103 144 182 226 275 327
#     4   9  18  35  58  81 110 148 189 235 287 347
#     4   8  15  30  53  81 109 137 177 230 286 341
#
# _framework density 24.023371000000001
#
# number of rings (size 3 to 8) (size 9 to 14) (size 15 to 20)
#    0.000    3.000    0.000    4.200    0.000    0.800 
#   10.800    5.000    0.000    3.600    0.000    0.000 
#    0.000    0.000    0.000    0.000    0.000    0.000 
#
# Total GULP energy -222867.603514 kJ/mol
# GULP energy per Si atom -5571.690088 kJ/mol
# Density = 2.396869 g / cm^3
# Si number density = 24.023371 Si / 1000 Ang^3
#
#
#
# Elastic Constant Matrix: (Units=GPa)
#
#
# Indices 1 2 3 4 5 6 
#
# 1 55.4404 41.5729 -1.1823 0.0000 0.0000 0.0000
# 2 41.5729 330.3616 41.0872 0.0000 0.0000 0.0000
# 3 -1.1823 41.0872 37.9845 0.0000 0.0000 0.0000
# 4 0.0000 0.0000 0.0000 14.9260 0.0000 0.0000
# 5 0.0000 0.0000 0.0000 0.0000 15.2726 0.0000
# 6 0.0000 0.0000 0.0000 0.0000 0.0000 25.8841
#
#
#
# Elastic Compliance Matrix: (Units=1/GPa)
#
#
# Indices 1 2 3 4 5 6 
#
# 1 0.020416 -0.003060 0.003945 0.000000 0.000000 0.000000
# 2 -0.003060 0.003956 -0.004374 0.000000 0.000000 0.000000
# 3 0.003945 -0.004374 0.031181 0.000000 0.000000 0.000000
# 4 0.000000 0.000000 0.000000 0.066997 0.000000 0.000000
# 5 0.000000 0.000000 0.000000 0.000000 0.065477 0.000000
# 6 0.000000 0.000000 0.000000 0.000000 0.000000 0.038634
#
#
# Mechanical properties :
#
#
# Convention : Reuss Voigt Hill
#
# Bulk Modulus (GPa) = 20.58674 65.19357 42.89016
# Shear Modulus (GPa) = 20.01354 34.03710 27.02532
#
# Velocity S-wave (km/s) = 2.88945 3.76817 3.35768
# Velocity P-wave (km/s) = 4.44072 6.79180 5.73797
#
# Compressibility (1/GPa) = 0.04857495
#
# Stress axis : x y z
#
# Youngs Moduli (GPa) = 48.98125 252.77487 32.07074
#
# Poissons Ratio (x) = 0.77345 -0.12653
# Poissons Ratio (y) = 0.14987 0.14029
# Poissons Ratio (z) = -0.19324 1.10575
#
# Static dielectric constant tensor:
#      x y z
#    x 2.159350 0.000000 0.000000 
#    y 0.000000 2.026270 0.000000 
#    z 0.000000 0.000000 1.926210 
# 
# From -- ./inp_files/61142.got.cif
#   From: 2010.05.17/outbox.cif.g08.bks.cpg/sg63_31_cif.got.tgz:61142.got - 2010.06.03 15:47:04.
