data_PCOD9475103
_publ_section_title
;
Structure prediction by ZEFSAII (Michael W. Deem and Ramdas Pophale) SiO2 
 PCOD9475103
Probable space group: C M C M
;
_chemical_formula_sum "Si O2"
_cell_formula_units_Z 64
_cell_length_a 15.170147
_cell_length_b 10.143147
_cell_length_c 21.574510
_cell_angle_alpha 90.000000
_cell_angle_beta 90.000000
_cell_angle_gamma 90.000000
_cell_volume 3319.735247
_symmetry_space_group_name_H-M "C M C M"
_symmetry_group_IT_number 63
_symmetry_cell_setting 'orthorhombic'
loop_
_space_group_symop_operation_xyz
x,y,z
-x,-y,1/2+z
x,-y,-z
-x,y,1/2-z
-x,-y,-z
x,y,1/2-z
-x,y,z
x,-y,1/2+z
1/2+x,1/2+y,z
1/2-x,1/2-y,1/2+z
1/2+x,1/2-y,-z
1/2-x,1/2+y,1/2-z
1/2-x,1/2-y,-z
1/2+x,1/2+y,1/2-z
1/2-x,1/2+y,z
1/2+x,1/2-y,1/2+z
loop_
_atom_site_type_symbol
_atom_site_label
_atom_site_fract_x
_atom_site_fract_y
_atom_site_fract_z
Si Si1 0.175456 0.548814 0.817497
Si Si2 0.689669 0.344711 0.858369
Si Si3 0.000000 0.202686 0.959483
Si Si4 0.500000 0.579431 0.096343
Si Si5 0.344923 0.092033 0.439901
O O1 0.132252 0.533367 0.750000
O O2 0.263321 0.458976 0.819032
O O3 0.198048 0.700867 0.829028
O O4 0.126996 0.493508 0.878986
O O5 0.588564 0.376276 0.869907
O O6 0.748422 0.351716 0.921517
O O7 0.085780 0.292197 0.949539
O O8 0.000000 0.077326 0.914353
O O9 0.000000 0.147102 0.028948
O O10 0.341030 0.000000 0.500000
#
# Coordination Sequence:
#
# PCOD9475103 Si02
#       5
#    16  16   8   8  16
#     4  10  22  42  68  93 131 174 223 270 331 397
#     4  10  23  41  67  93 133 172 222 267 334 390
#     4  11  23  40  62  99 140 167 221 271 336 399
#     4  11  24  38  64  99 133 176 215 277 329 402
#     4  10  23  39  68  94 131 171 218 274 331 389
#
# _framework density 19.278645999999998
#
# number of rings (size 3 to 8) (size 9 to 14) (size 15 to 20)
#    1.500    0.250    0.000    4.125    3.500    3.000 
#    0.000    4.375    0.000    3.000    0.000    0.000 
#    0.000    0.000    0.000    0.000    0.000    0.000 
#
# Total GULP energy -178370.756803 kJ/mol
# GULP energy per Si atom -5574.086150 kJ/mol
# Density = 1.923477 g / cm^3
# Si number density = 19.278646 Si / 1000 Ang^3
#
#
#
# Elastic Constant Matrix: (Units=GPa)
#
#
# Indices 1 2 3 4 5 6 
#
# 1 83.8442 36.4879 16.6126 0.0000 0.0000 0.0000
# 2 36.4879 132.6641 40.6688 0.0000 0.0000 0.0000
# 3 16.6126 40.6688 121.1968 0.0000 0.0000 0.0000
# 4 0.0000 0.0000 0.0000 -6.3709 0.0000 0.0000
# 5 0.0000 0.0000 0.0000 0.0000 5.5481 0.0000
# 6 0.0000 0.0000 0.0000 0.0000 0.0000 13.4782
#
#
#
# Elastic Compliance Matrix: (Units=1/GPa)
#
#
# Indices 1 2 3 4 5 6 
#
# 1 0.013598 -0.003532 -0.000679 0.000000 0.000000 0.000000
# 2 -0.003532 0.009320 -0.002643 0.000000 0.000000 0.000000
# 3 -0.000679 -0.002643 0.009231 0.000000 0.000000 0.000000
# 4 0.000000 0.000000 0.000000 -0.156963 0.000000 0.000000
# 5 0.000000 0.000000 0.000000 0.000000 0.180243 0.000000
# 6 0.000000 0.000000 0.000000 0.000000 0.000000 0.074194
#
#
# Mechanical properties :
#
#
# Convention : Reuss Voigt Hill
#
# Bulk Modulus (GPa) = 54.22642 58.36040 56.29341
# Shear Modulus (GPa) = 33.44971 18.79345 26.12158
#
# Velocity S-wave (km/s) = 4.16993 3.12562 3.68496
# Velocity P-wave (km/s) = 7.16751 6.58512 6.88248
#
# Compressibility (1/GPa) = 0.01844119
#
# Stress axis : x y z
#
# Youngs Moduli (GPa) = 73.53766 107.30137 108.33060
#
# Poissons Ratio (x) = 0.37899 0.07353
# Poissons Ratio (y) = 0.25974 0.28633
# Poissons Ratio (z) = 0.04991 0.28361
#
# Static dielectric constant tensor:
#      x y z
#    x 1.639430 0.000000 0.000000 
#    y 0.000000 1.646050 0.000000 
#    z 0.000000 0.000000 1.711400 
# 
# From -- ./inp_files/68966.got.cif
#   From: 2010.05.17/outbox.cif.g08.bks.cpg/sg63_35_cif.got.tgz:68966.got - 2010.06.03 15:47:04.
