data_PCOD9475281
_publ_section_title
;
Structure prediction by ZEFSAII (Michael W. Deem and Ramdas Pophale) SiO2 
 PCOD9475281
Probable space group: C M C M
;
_chemical_formula_sum "Si O2"
_cell_formula_units_Z 68
_cell_length_a 17.283222
_cell_length_b 22.492542
_cell_length_c 8.410841
_cell_angle_alpha 90.000000
_cell_angle_beta 90.000000
_cell_angle_gamma 90.000000
_cell_volume 3269.660582
_symmetry_space_group_name_H-M "C M C M"
_symmetry_group_IT_number 63
_symmetry_cell_setting 'orthorhombic'
loop_
_space_group_symop_operation_xyz
x,y,z
-x,-y,1/2+z
x,-y,-z
-x,y,1/2-z
-x,-y,-z
x,y,1/2-z
-x,y,z
x,-y,1/2+z
1/2+x,1/2+y,z
1/2-x,1/2-y,1/2+z
1/2+x,1/2-y,-z
1/2-x,1/2+y,1/2-z
1/2-x,1/2-y,-z
1/2+x,1/2+y,1/2-z
1/2-x,1/2+y,z
1/2+x,1/2-y,1/2+z
loop_
_atom_site_type_symbol
_atom_site_label
_atom_site_fract_x
_atom_site_fract_y
_atom_site_fract_z
Si Si1 0.633732 0.090870 0.063194
Si Si2 0.411985 0.669804 0.561497
Si Si3 0.698558 0.439189 0.439993
Si Si4 0.170278 0.720653 0.934792
Si Si5 0.500000 0.000000 0.000000
O O1 0.616078 0.084891 0.250000
O O2 0.718495 0.066213 0.022912
O O3 0.641708 0.160269 0.017792
O O4 0.568129 0.051639 0.978947
O O5 0.401494 0.683189 0.750000
O O6 0.500000 0.650487 0.538094
O O7 0.352782 0.617763 0.518716
O O8 0.392678 0.728428 0.463531
O O9 0.660920 0.500000 0.500000
O O10 0.708578 0.440456 0.250000
O O11 0.182409 0.706992 0.750000
O O12 0.250000 0.750000 0.000000
#
# Coordination Sequence:
#
# PCOD9475281 Si02
#       5
#    16  16  16  16   4
#     4  12  26  45  70 100 138 182 231 288 350 419
#     4  10  23  44  68  97 136 180 229 284 347 411
#     4  11  23  41  68  98 133 178 225 279 339 411
#     4  12  25  43  70 102 137 181 234 289 351 418
#     4  12  30  48  72 102 144 192 244 284 366 440
#
# _framework density 20.797267000000002
#
# number of rings (size 3 to 8) (size 9 to 14) (size 15 to 20)
#    0.000    0.706    3.529    3.882    1.647    4.706 
#    0.000    0.000    0.000    0.000    0.000    0.000 
#    0.000    0.000    0.000    0.000    0.000    0.000 
#
# Total GULP energy -189624.103055 kJ/mol
# GULP energy per Si atom -5577.179502 kJ/mol
# Density = 2.074993 g / cm^3
# Si number density = 20.797267 Si / 1000 Ang^3
#
#
#
# Elastic Constant Matrix: (Units=GPa)
#
#
# Indices 1 2 3 4 5 6 
#
# 1 106.7867 26.0192 1.6184 0.0000 0.0000 0.0000
# 2 26.0192 140.9424 2.2057 0.0000 0.0000 0.0000
# 3 1.6184 2.2057 25.3049 0.0000 0.0000 0.0000
# 4 0.0000 0.0000 0.0000 26.0716 0.0000 0.0000
# 5 0.0000 0.0000 0.0000 0.0000 6.6120 0.0000
# 6 0.0000 0.0000 0.0000 0.0000 0.0000 37.3513
#
#
#
# Elastic Compliance Matrix: (Units=1/GPa)
#
#
# Indices 1 2 3 4 5 6 
#
# 1 0.009811 -0.001804 -0.000470 0.000000 0.000000 0.000000
# 2 -0.001804 0.007436 -0.000533 0.000000 0.000000 0.000000
# 3 -0.000470 -0.000533 0.039595 0.000000 0.000000 0.000000
# 4 0.000000 0.000000 0.000000 0.038356 0.000000 0.000000
# 5 0.000000 0.000000 0.000000 0.000000 0.151240 0.000000
# 6 0.000000 0.000000 0.000000 0.000000 0.000000 0.026773
#
#
# Mechanical properties :
#
#
# Convention : Reuss Voigt Hill
#
# Bulk Modulus (GPa) = 19.52047 36.96893 28.24470
# Shear Modulus (GPa) = 16.89754 30.21970 23.55862
#
# Velocity S-wave (km/s) = 2.85351 3.81604 3.36932
# Velocity P-wave (km/s) = 4.50146 6.10169 5.36161
#
# Compressibility (1/GPa) = 0.05122829
#
# Stress axis : x y z
#
# Youngs Moduli (GPa) = 101.92527 134.47295 25.25599
#
# Poissons Ratio (x) = 0.24257 0.01188
# Poissons Ratio (y) = 0.18386 0.01346
# Poissons Ratio (z) = 0.04793 0.07165
#
# Static dielectric constant tensor:
#      x y z
#    x 1.665560 0.000000 0.000000 
#    y 0.000000 1.785920 0.000000 
#    z 0.000000 0.000000 1.748950 
# 
# From -- ./inp_files/5898.got.cif
#   From: 2010.05.17/outbox.cif.g08.bks.cpg/sg63_3_cif.got.tgz:5898.got - 2010.06.03 15:47:04.
