data_PCOD9475786
_publ_section_title
;
Structure prediction by ZEFSAII (Michael W. Deem and Ramdas Pophale) SiO2 
 PCOD9475786
Probable space group: C M C M
;
_chemical_formula_sum "Si O2"
_cell_formula_units_Z 48
_cell_length_a 17.904205
_cell_length_b 7.762743
_cell_length_c 15.940864
_cell_angle_alpha 90.000000
_cell_angle_beta 90.000000
_cell_angle_gamma 90.000000
_cell_volume 2215.552812
_symmetry_space_group_name_H-M "C M C M"
_symmetry_group_IT_number 63
_symmetry_cell_setting 'orthorhombic'
loop_
_space_group_symop_operation_xyz
x,y,z
-x,-y,1/2+z
x,-y,-z
-x,y,1/2-z
-x,-y,-z
x,y,1/2-z
-x,y,z
x,-y,1/2+z
1/2+x,1/2+y,z
1/2-x,1/2-y,1/2+z
1/2+x,1/2-y,-z
1/2-x,1/2+y,1/2-z
1/2-x,1/2-y,-z
1/2+x,1/2+y,1/2-z
1/2-x,1/2+y,z
1/2+x,1/2-y,1/2+z
loop_
_atom_site_type_symbol
_atom_site_label
_atom_site_fract_x
_atom_site_fract_y
_atom_site_fract_z
Si Si1 0.305006 0.467151 0.344241
Si Si2 0.845408 0.334720 0.087498
Si Si3 0.912375 0.678905 0.400187
O O1 0.273759 0.477734 0.250000
O O2 0.237981 0.413792 0.406231
O O3 0.339679 0.650018 0.369132
O O4 0.367043 0.319442 0.348586
O O5 0.896280 0.483354 0.128502
O O6 0.877451 0.310676 0.994102
O O7 0.000000 0.712969 0.402347
#
# Coordination Sequence:
#
# PCOD9475786 Si02
#       3
#    16  16  16
#     4  12  25  41  68 102 136 177 223 276 337 398
#     4  11  23  42  71  98 130 176 229 275 323 400
#     4  11  26  45  69 101 135 173 224 284 334 388
#
# _framework density 21.665023000000001
#
# number of rings (size 3 to 8) (size 9 to 14) (size 15 to 20)
#    0.000    0.667    3.333    5.000    4.667    6.000 
#    0.000    0.000    0.000    9.000    0.000    0.000 
#    0.000    0.000    0.000    0.000    0.000    0.000 
#
# Total GULP energy -134253.024923 kJ/mol
# GULP energy per Si atom -5593.876038 kJ/mol
# Density = 2.161571 g / cm^3
# Si number density = 21.665023 Si / 1000 Ang^3
#
#
#
# Elastic Constant Matrix: (Units=GPa)
#
#
# Indices 1 2 3 4 5 6 
#
# 1 119.5003 -12.0161 18.0851 0.0000 0.0000 0.0000
# 2 -12.0161 91.0548 7.2588 0.0000 0.0000 0.0000
# 3 18.0851 7.2588 43.5017 0.0000 0.0000 0.0000
# 4 0.0000 0.0000 0.0000 321.0104 0.0000 0.0000
# 5 0.0000 0.0000 0.0000 0.0000 2.2097 0.0000
# 6 0.0000 0.0000 0.0000 0.0000 0.0000 27.8057
#
#
#
# Elastic Compliance Matrix: (Units=1/GPa)
#
#
# Indices 1 2 3 4 5 6 
#
# 1 0.009135 0.001529 -0.004053 0.000000 0.000000 0.000000
# 2 0.001529 0.011386 -0.002535 0.000000 0.000000 0.000000
# 3 -0.004053 -0.002535 0.025096 0.000000 0.000000 0.000000
# 4 0.000000 0.000000 0.000000 0.003115 0.000000 0.000000
# 5 0.000000 0.000000 0.000000 0.000000 0.452559 0.000000
# 6 0.000000 0.000000 0.000000 0.000000 0.000000 0.035964
#
#
# Mechanical properties :
#
#
# Convention : Reuss Voigt Hill
#
# Bulk Modulus (GPa) = 28.17085 31.19026 29.68055
# Shear Modulus (GPa) = 8.94122 86.25373 47.59748
#
# Velocity S-wave (km/s) = 2.03371 6.31655 4.69227
# Velocity P-wave (km/s) = 4.30648 8.22352 6.56400
#
# Compressibility (1/GPa) = 0.03549769
#
# Stress axis : x y z
#
# Youngs Moduli (GPa) = 109.46598 87.82519 39.84760
#
# Poissons Ratio (x) = -0.13425 0.16150
# Poissons Ratio (y) = -0.16733 0.10103
# Poissons Ratio (z) = 0.44366 0.22268
#
# Static dielectric constant tensor:
#      x y z
#    x 1.738340 0.000000 0.000000 
#    y 0.000000 1.799110 0.000000 
#    z 0.000000 0.000000 1.808460 
# 
# From -- ./inp_files/33006.got.cif
#   From: 2010.05.17/outbox.cif.g08.bks.cpg/sg63_17_cif.got.tgz:33006.got - 2010.06.03 15:47:04.
