data_PCOD9475963
_publ_section_title
;
Structure prediction by ZEFSAII (Michael W. Deem and Ramdas Pophale) SiO2 
 PCOD9475963
Probable space group: C M C M
;
_chemical_formula_sum "Si O2"
_cell_formula_units_Z 80
_cell_length_a 7.450040
_cell_length_b 26.603550
_cell_length_c 20.835357
_cell_angle_alpha 90.000000
_cell_angle_beta 90.000000
_cell_angle_gamma 90.000000
_cell_volume 4129.515912
_symmetry_space_group_name_H-M "C M C M"
_symmetry_group_IT_number 63
_symmetry_cell_setting 'orthorhombic'
loop_
_space_group_symop_operation_xyz
x,y,z
-x,-y,1/2+z
x,-y,-z
-x,y,1/2-z
-x,-y,-z
x,y,1/2-z
-x,y,z
x,-y,1/2+z
1/2+x,1/2+y,z
1/2-x,1/2-y,1/2+z
1/2+x,1/2-y,-z
1/2-x,1/2+y,1/2-z
1/2-x,1/2-y,-z
1/2+x,1/2+y,1/2-z
1/2-x,1/2+y,z
1/2+x,1/2-y,1/2+z
loop_
_atom_site_type_symbol
_atom_site_label
_atom_site_fract_x
_atom_site_fract_y
_atom_site_fract_z
Si Si1 0.790411 0.149331 0.095858
Si Si2 0.219715 0.943144 0.822711
Si Si3 0.220142 0.865883 0.050174
Si Si4 0.218787 0.021861 0.930767
Si Si5 0.788089 0.241170 0.924312
O O1 0.720107 0.110471 0.148156
O O2 0.777934 0.208573 0.110363
O O3 0.000000 0.137303 0.090057
O O4 0.717804 0.139230 0.024083
O O5 0.280387 0.950707 0.750000
O O6 0.000000 0.943756 0.821210
O O7 0.275983 0.985979 0.872941
O O8 0.274976 0.920178 0.075622
O O9 0.279593 0.815483 0.087447
O O10 0.000000 0.864728 0.049850
O O11 0.000000 0.021352 0.931356
O O12 0.275024 0.000000 0.000000
O O13 0.000000 0.240774 0.914827
O O14 0.750000 0.250000 0.000000
#
# Coordination Sequence:
#
# PCOD9475963 Si02
#       5
#    16  16  16  16  16
#     4   9  15  25  40  59  85 111 138 173 215 256
#     4   9  16  24  37  60  86 109 138 179 222 261
#     4   8  13  21  35  57  80 104 133 168 207 250
#     4   9  13  20  36  56  80 108 136 169 214 263
#     4   9  16  25  39  61  87 111 139 172 210 254
#
# _framework density 19.372731999999999
#
# number of rings (size 3 to 8) (size 9 to 14) (size 15 to 20)
#    0.000    3.200    2.000    1.800    0.000    0.000 
#    0.000    0.000    0.000    1.800    0.000   15.400 
#    0.000    0.000    0.000    0.000    0.000    0.000 
#
# Total GULP energy -222778.837141 kJ/mol
# GULP energy per Si atom -5569.470929 kJ/mol
# Density = 1.932864 g / cm^3
# Si number density = 19.372732 Si / 1000 Ang^3
#
#
#
# Elastic Constant Matrix: (Units=GPa)
#
#
# Indices 1 2 3 4 5 6 
#
# 1 51.4895 -6.0571 3.6415 0.0000 0.0000 0.0000
# 2 -6.0571 214.9461 89.3344 0.0000 0.0000 0.0000
# 3 3.6415 89.3344 108.8845 0.0000 0.0000 0.0000
# 4 0.0000 0.0000 0.0000 20.7564 0.0000 0.0000
# 5 0.0000 0.0000 0.0000 0.0000 -1.5648 0.0000
# 6 0.0000 0.0000 0.0000 0.0000 0.0000 12.5177
#
#
#
# Elastic Compliance Matrix: (Units=1/GPa)
#
#
# Indices 1 2 3 4 5 6 
#
# 1 0.019689 0.001257 -0.001690 0.000000 0.000000 0.000000
# 2 0.001257 0.007140 -0.005900 0.000000 0.000000 0.000000
# 3 -0.001690 -0.005900 0.014081 0.000000 0.000000 0.000000
# 4 0.000000 0.000000 0.000000 0.048178 0.000000 0.000000
# 5 0.000000 0.000000 0.000000 0.000000 -0.639063 0.000000
# 6 0.000000 0.000000 0.000000 0.000000 0.000000 0.079887
#
#
# Mechanical properties :
#
#
# Convention : Reuss Voigt Hill
#
# Bulk Modulus (GPa) = 35.40515 61.01752 48.21133
# Shear Modulus (GPa) = -11.16052 25.56861 7.20405
#
# Velocity S-wave (km/s) = -2.40280 3.63688 1.93047
# Velocity P-wave (km/s) = 3.25845 7.01433 5.46893
#
# Compressibility (1/GPa) = 0.02824448
#
# Stress axis : x y z
#
# Youngs Moduli (GPa) = 50.79021 140.05905 71.01681
#
# Poissons Ratio (x) = -0.17608 0.12001
# Poissons Ratio (y) = -0.06385 0.41899
# Poissons Ratio (z) = 0.08583 0.82634
#
# Static dielectric constant tensor:
#      x y z
#    x 1.768280 0.000000 0.000000 
#    y 0.000000 1.722580 0.000000 
#    z 0.000000 0.000000 1.627540 
# 
# From -- ./inp_files/40733.got.cif
#   From: 2010.05.17/outbox.cif.g08.bks.cpg/sg63_21_cif.got.tgz:40733.got - 2010.06.03 15:47:04.
