data_PCOD9475733
_publ_section_title
;
Structure prediction by ZEFSAII (Michael W. Deem and Ramdas Pophale) SiO2 
 PCOD9475733
Probable space group: C M C M
;
_chemical_formula_sum "Si O2"
_cell_formula_units_Z 80
_cell_length_a 7.605666
_cell_length_b 30.623408
_cell_length_c 16.286713
_cell_angle_alpha 90.000000
_cell_angle_beta 90.000000
_cell_angle_gamma 90.000000
_cell_volume 3793.361338
_symmetry_space_group_name_H-M "C M C M"
_symmetry_group_IT_number 63
_symmetry_cell_setting 'orthorhombic'
loop_
_space_group_symop_operation_xyz
x,y,z
-x,-y,1/2+z
x,-y,-z
-x,y,1/2-z
-x,-y,-z
x,y,1/2-z
-x,y,z
x,-y,1/2+z
1/2+x,1/2+y,z
1/2-x,1/2-y,1/2+z
1/2+x,1/2-y,-z
1/2-x,1/2+y,1/2-z
1/2-x,1/2-y,-z
1/2+x,1/2+y,1/2-z
1/2-x,1/2+y,z
1/2+x,1/2-y,1/2+z
loop_
_atom_site_type_symbol
_atom_site_label
_atom_site_fract_x
_atom_site_fract_y
_atom_site_fract_z
Si Si1 0.206907 0.707859 0.250000
Si Si2 0.714626 0.052117 0.916147
Si Si3 0.214828 0.643305 0.655915
Si Si4 0.785895 0.543988 0.106033
Si Si5 0.283901 0.108283 0.250000
Si Si6 0.207582 0.266469 0.090740
O O1 0.280129 0.658325 0.250000
O O2 0.248047 0.734777 0.332957
O O3 0.000000 0.702370 0.250000
O O4 0.500000 0.051938 0.914072
O O5 0.776599 0.096092 0.873444
O O6 0.769810 0.006000 0.876672
O O7 0.765391 0.052972 0.011996
O O8 0.261652 0.650924 0.750000
O O9 0.280864 0.684874 0.605339
O O10 0.000000 0.642028 0.651188
O O11 0.727745 0.580367 0.170419
O O12 0.000000 0.544342 0.108115
O O13 0.500000 0.108746 0.250000
O O14 0.000000 0.270843 0.094521
O O15 0.250000 0.250000 0.000000
#
# Coordination Sequence:
#
# PCOD9475733 Si02
#       6
#     8  16  16  16   8  16
#     4  11  23  39  58  83 115 153 191 233 280 333
#     4   8  14  23  39  61  94 135 172 207 262 327
#     4   9  17  29  47  71 100 137 176 219 274 329
#     4   8  14  24  36  60  96 135 171 210 257 321
#     4   9  18  27  42  67 101 139 177 215 264 323
#     4  11  23  40  60  83 113 149 190 238 286 337
#
# _framework density 21.089475
#
# number of rings (size 3 to 8) (size 9 to 14) (size 15 to 20)
#    0.000    2.800    1.000    2.100    4.200    0.000 
#    0.000    0.000    0.000    0.000    0.000    0.000 
#    0.000   11.200    0.000    0.000    0.000    0.000 
#
# Total GULP energy -223153.013556 kJ/mol
# GULP energy per Si atom -5578.825339 kJ/mol
# Density = 2.104147 g / cm^3
# Si number density = 21.089475 Si / 1000 Ang^3
#
#
#
# Elastic Constant Matrix: (Units=GPa)
#
#
# Indices 1 2 3 4 5 6 
#
# 1 44.9710 7.2816 1.7692 0.0000 0.0000 0.0000
# 2 7.2816 175.2449 71.7132 0.0000 0.0000 0.0000
# 3 1.7692 71.7132 97.8421 0.0000 0.0000 0.0000
# 4 0.0000 0.0000 0.0000 44.9249 0.0000 0.0000
# 5 0.0000 0.0000 0.0000 0.0000 14.6649 0.0000
# 6 0.0000 0.0000 0.0000 0.0000 0.0000 9.3138
#
#
#
# Elastic Compliance Matrix: (Units=1/GPa)
#
#
# Indices 1 2 3 4 5 6 
#
# 1 0.022398 -0.001093 0.000396 0.000000 0.000000 0.000000
# 2 -0.001093 0.008204 -0.005994 0.000000 0.000000 0.000000
# 3 0.000396 -0.005994 0.014606 0.000000 0.000000 0.000000
# 4 0.000000 0.000000 0.000000 0.022259 0.000000 0.000000
# 5 0.000000 0.000000 0.000000 0.000000 0.068190 0.000000
# 6 0.000000 0.000000 0.000000 0.000000 0.000000 0.107368
#
#
# Mechanical properties :
#
#
# Convention : Reuss Voigt Hill
#
# Bulk Modulus (GPa) = 31.41900 53.28733 42.35317
# Shear Modulus (GPa) = 18.72548 29.60032 24.16290
#
# Velocity S-wave (km/s) = 2.98301 3.75047 3.38854
# Velocity P-wave (km/s) = 5.17636 6.63904 5.95280
#
# Compressibility (1/GPa) = 0.03182787
#
# Stress axis : x y z
#
# Youngs Moduli (GPa) = 44.64701 121.88579 68.46304
#
# Poissons Ratio (x) = 0.13318 -0.02710
# Poissons Ratio (y) = 0.04878 0.41034
# Poissons Ratio (z) = -0.01767 0.73054
#
# Static dielectric constant tensor:
#      x y z
#    x 1.855520 0.000000 0.000000 
#    y 0.000000 1.778570 0.000000 
#    z 0.000000 0.000000 1.708440 
# 
# From -- ./inp_files/40550.got.cif
#   From: 2010.05.17/outbox.cif.g08.bks.cpg/sg63_21_cif.got.tgz:40550.got - 2010.06.03 15:47:04.
