data_PCOD9475596
_publ_section_title
;
Structure prediction by ZEFSAII (Michael W. Deem and Ramdas Pophale) SiO2 
 PCOD9475596
Probable space group: C M C M
;
_chemical_formula_sum "Si O2"
_cell_formula_units_Z 64
_cell_length_a 11.760603
_cell_length_b 14.090784
_cell_length_c 18.160199
_cell_angle_alpha 90.000000
_cell_angle_beta 90.000000
_cell_angle_gamma 90.000000
_cell_volume 3009.437655
_symmetry_space_group_name_H-M "C M C M"
_symmetry_group_IT_number 63
_symmetry_cell_setting 'orthorhombic'
loop_
_space_group_symop_operation_xyz
x,y,z
-x,-y,1/2+z
x,-y,-z
-x,y,1/2-z
-x,-y,-z
x,y,1/2-z
-x,y,z
x,-y,1/2+z
1/2+x,1/2+y,z
1/2-x,1/2-y,1/2+z
1/2+x,1/2-y,-z
1/2-x,1/2+y,1/2-z
1/2-x,1/2-y,-z
1/2+x,1/2+y,1/2-z
1/2-x,1/2+y,z
1/2+x,1/2-y,1/2+z
loop_
_atom_site_type_symbol
_atom_site_label
_atom_site_fract_x
_atom_site_fract_y
_atom_site_fract_z
Si Si1 0.328697 0.500000 0.500000
Si Si2 0.000000 0.702852 0.250000
Si Si3 0.500000 0.788101 0.466961
Si Si4 0.315320 0.902405 0.103171
Si Si5 0.246846 0.813222 0.250000
Si Si6 0.500000 0.704274 0.250000
Si Si7 0.500000 0.929859 0.607176
Si Si8 0.500000 0.402448 0.594156
O O1 0.256667 0.586468 0.529694
O O2 0.394344 0.467407 0.572649
O O3 0.875374 0.757121 0.250000
O O4 0.000000 0.636224 0.321842
O O5 0.605062 0.814359 0.415355
O O6 0.500000 0.859503 0.536361
O O7 0.500000 0.675853 0.472388
O O8 0.250678 0.878269 0.177359
O O9 0.392905 0.997507 0.107961
O O10 0.374595 0.759849 0.250000
O O11 0.500000 0.641701 0.174859
#
# Coordination Sequence:
#
# PCOD9475596 Si02
#       8
#     8   4   8  16   8   4   8   8
#     4  11  26  43  66 108 138 183 230 305 372 409
#     4  12  32  43  67 116 144 186 250 304 361 415
#     4  11  21  41  75 106 129 181 252 299 334 433
#     4  11  22  44  71 101 139 186 239 294 362 429
#     4  12  27  45  73 105 147 191 243 300 362 428
#     4  12  24  49  75 104 136 202 238 278 371 445
#     4  11  23  44  72 105 141 190 249 300 351 427
#     4  11  27  43  70 102 144 181 242 295 361 437
#
# _framework density 21.26643
#
# number of rings (size 3 to 8) (size 9 to 14) (size 15 to 20)
#    0.000    0.750    5.000    2.250    7.000    3.000 
#    0.000    0.000    0.000    0.000    0.000    0.000 
#    0.000    0.000    0.000    0.000    0.000    0.000 
#
# Total GULP energy -178220.395172 kJ/mol
# GULP energy per Si atom -5569.387349 kJ/mol
# Density = 2.121803 g / cm^3
# Si number density = 21.266430 Si / 1000 Ang^3
#
#
#
# Elastic Constant Matrix: (Units=GPa)
#
#
# Indices 1 2 3 4 5 6 
#
# 1 95.0689 13.6652 28.4287 0.0000 0.0000 0.0000
# 2 13.6652 48.6906 11.7926 0.0000 0.0000 0.0000
# 3 28.4287 11.7926 133.4320 0.0000 0.0000 0.0000
# 4 0.0000 0.0000 0.0000 52.9756 0.0000 0.0000
# 5 0.0000 0.0000 0.0000 0.0000 64.0359 0.0000
# 6 0.0000 0.0000 0.0000 0.0000 0.0000 -90.2514
#
#
#
# Elastic Compliance Matrix: (Units=1/GPa)
#
#
# Indices 1 2 3 4 5 6 
#
# 1 0.011574 -0.002709 -0.002226 0.000000 0.000000 0.000000
# 2 -0.002709 0.021621 -0.001334 0.000000 0.000000 0.000000
# 3 -0.002226 -0.001334 0.008087 0.000000 0.000000 0.000000
# 4 0.000000 0.000000 0.000000 0.018877 0.000000 0.000000
# 5 0.000000 0.000000 0.000000 0.000000 0.015616 0.000000
# 6 0.000000 0.000000 0.000000 0.000000 0.000000 -0.011080
#
#
# Mechanical properties :
#
#
# Convention : Reuss Voigt Hill
#
# Bulk Modulus (GPa) = 34.79066 42.77384 38.78225
# Shear Modulus (GPa) = 57.59450 20.23902 38.91676
#
# Velocity S-wave (km/s) = 5.20972 3.08829 4.28245
# Velocity P-wave (km/s) = 7.25142 5.73356 6.53670
#
# Compressibility (1/GPa) = 0.02874335
#
# Stress axis : x y z
#
# Youngs Moduli (GPa) = 86.40152 46.25106 123.65992
#
# Poissons Ratio (x) = 0.12529 0.27533
# Poissons Ratio (y) = 0.23406 0.16492
# Poissons Ratio (z) = 0.19237 0.06168
#
# Static dielectric constant tensor:
#      x y z
#    x 1.928210 0.000000 0.000000 
#    y 0.000000 1.709650 0.000000 
#    z 0.000000 0.000000 1.729620 
# 
# From -- ./inp_files/41623.got.cif
#   From: 2010.05.17/outbox.cif.g08.bks.cpg/sg63_21_cif.got.tgz:41623.got - 2010.06.03 15:47:04.
