data_PCOD9475021
_publ_section_title
;
Structure prediction by ZEFSAII (Michael W. Deem and Ramdas Pophale) SiO2 
 PCOD9475021
Probable space group: C M C M
;
_chemical_formula_sum "Si O2"
_cell_formula_units_Z 64
_cell_length_a 10.059039
_cell_length_b 8.981444
_cell_length_c 32.566379
_cell_angle_alpha 90.000000
_cell_angle_beta 90.000000
_cell_angle_gamma 90.000000
_cell_volume 2942.199593
_symmetry_space_group_name_H-M "C M C M"
_symmetry_group_IT_number 63
_symmetry_cell_setting 'orthorhombic'
loop_
_space_group_symop_operation_xyz
x,y,z
-x,-y,1/2+z
x,-y,-z
-x,y,1/2-z
-x,-y,-z
x,y,1/2-z
-x,y,z
x,-y,1/2+z
1/2+x,1/2+y,z
1/2-x,1/2-y,1/2+z
1/2+x,1/2-y,-z
1/2-x,1/2+y,1/2-z
1/2-x,1/2-y,-z
1/2+x,1/2+y,1/2-z
1/2-x,1/2+y,z
1/2+x,1/2-y,1/2+z
loop_
_atom_site_type_symbol
_atom_site_label
_atom_site_fract_x
_atom_site_fract_y
_atom_site_fract_z
Si Si1 0.347921 0.473651 0.654878
Si Si2 0.849449 0.677214 0.702200
Si Si3 0.710881 0.617482 0.969544
Si Si4 0.353423 0.115184 0.414645
O O1 0.500000 0.512649 0.644434
O O2 0.259174 0.604967 0.672828
O O3 0.351957 0.350168 0.690605
O O4 0.268068 0.404181 0.616660
O O5 0.818396 0.654474 0.750000
O O6 0.000000 0.619129 0.694592
O O7 0.648388 0.717920 0.933480
O O8 0.639522 0.500000 0.000000
O O9 0.750000 0.750000 0.000000
O O10 0.824153 0.486370 0.051237
O O11 0.500000 0.088551 0.396788
#
# Coordination Sequence:
#
# PCOD9475021 Si02
#       4
#    16  16  16  16
#     4  11  24  41  62  91 126 163 205 252 302 361
#     4  10  22  41  64  91 124 161 203 253 306 361
#     4   9  21  40  61  90 122 155 199 255 309 359
#     4  11  23  40  63  91 124 163 205 251 306 366
#
# _framework density 21.752434000000001
#
# number of rings (size 3 to 8) (size 9 to 14) (size 15 to 20)
#    0.000    1.750    0.000    3.000    0.000   14.500 
#    0.000    7.500    0.000    0.000    0.000    0.000 
#    0.000    0.000    0.000    0.000    0.000    0.000 
#
# Total GULP energy -178384.325667 kJ/mol
# GULP energy per Si atom -5574.510177 kJ/mol
# Density = 2.170292 g / cm^3
# Si number density = 21.752434 Si / 1000 Ang^3
#
#
#
# Elastic Constant Matrix: (Units=GPa)
#
#
# Indices 1 2 3 4 5 6 
#
# 1 140.2357 32.8282 34.4965 0.0000 0.0000 0.0000
# 2 32.8282 117.5824 20.9564 0.0000 0.0000 0.0000
# 3 34.4965 20.9564 74.1264 0.0000 0.0000 0.0000
# 4 0.0000 0.0000 0.0000 43.8322 0.0000 0.0000
# 5 0.0000 0.0000 0.0000 0.0000 150.0668 0.0000
# 6 0.0000 0.0000 0.0000 0.0000 0.0000 23.3072
#
#
#
# Elastic Compliance Matrix: (Units=1/GPa)
#
#
# Indices 1 2 3 4 5 6 
#
# 1 0.008374 -0.001731 -0.003408 0.000000 0.000000 0.000000
# 2 -0.001731 0.009314 -0.001828 0.000000 0.000000 0.000000
# 3 -0.003408 -0.001828 0.015593 0.000000 0.000000 0.000000
# 4 0.000000 0.000000 0.000000 0.022814 0.000000 0.000000
# 5 0.000000 0.000000 0.000000 0.000000 0.006664 0.000000
# 6 0.000000 0.000000 0.000000 0.000000 0.000000 0.042905
#
#
# Mechanical properties :
#
#
# Convention : Reuss Voigt Hill
#
# Bulk Modulus (GPa) = 51.68341 56.50075 54.09208
# Shear Modulus (GPa) = 39.66803 59.68548 49.67676
#
# Velocity S-wave (km/s) = 4.27501 5.24386 4.78403
# Velocity P-wave (km/s) = 6.94111 7.91802 7.44560
#
# Compressibility (1/GPa) = 0.01934857
#
# Stress axis : x y z
#
# Youngs Moduli (GPa) = 119.41301 107.36983 64.13083
#
# Poissons Ratio (x) = 0.18582 0.21855
# Poissons Ratio (y) = 0.20666 0.11721
# Poissons Ratio (z) = 0.40695 0.19624
#
# Static dielectric constant tensor:
#      x y z
#    x 1.771320 0.000000 0.000000 
#    y 0.000000 1.787450 0.000000 
#    z 0.000000 0.000000 1.833000 
# 
# From -- ./inp_files/71354.got.cif
#   From: 2010.05.17/outbox.cif.g08.bks.cpg/sg63_36_cif.got.tgz:71354.got - 2010.06.03 15:47:04.
