data_PCOD9475646
_publ_section_title
;
Structure prediction by ZEFSAII (Michael W. Deem and Ramdas Pophale) SiO2 
 PCOD9475646
Probable space group: C M C M
;
_chemical_formula_sum "Si O2"
_cell_formula_units_Z 56
_cell_length_a 10.511314
_cell_length_b 25.798982
_cell_length_c 9.945677
_cell_angle_alpha 90.000000
_cell_angle_beta 90.000000
_cell_angle_gamma 90.000000
_cell_volume 2697.080630
_symmetry_space_group_name_H-M "C M C M"
_symmetry_group_IT_number 63
_symmetry_cell_setting 'orthorhombic'
loop_
_space_group_symop_operation_xyz
x,y,z
-x,-y,1/2+z
x,-y,-z
-x,y,1/2-z
-x,-y,-z
x,y,1/2-z
-x,y,z
x,-y,1/2+z
1/2+x,1/2+y,z
1/2-x,1/2-y,1/2+z
1/2+x,1/2-y,-z
1/2-x,1/2+y,1/2-z
1/2-x,1/2-y,-z
1/2+x,1/2+y,1/2-z
1/2-x,1/2+y,z
1/2+x,1/2-y,1/2+z
loop_
_atom_site_type_symbol
_atom_site_label
_atom_site_fract_x
_atom_site_fract_y
_atom_site_fract_z
Si Si1 0.653198 0.281041 0.096596
Si Si2 0.144105 0.918475 0.750000
Si Si3 0.254779 0.392023 0.478470
Si Si4 0.347788 0.467167 0.250000
Si Si5 0.000000 0.555000 0.416082
O O1 0.658731 0.260650 0.250000
O O2 0.500000 0.281539 0.060153
O O3 0.750000 0.250000 0.000000
O O4 0.713675 0.338741 0.095662
O O5 0.169078 0.887701 0.883461
O O6 0.000000 0.934030 0.750000
O O7 0.209695 0.974958 0.750000
O O8 0.301927 0.437845 0.382486
O O9 0.118147 0.410394 0.531735
O O10 0.500000 0.463958 0.250000
O O11 0.000000 0.500000 0.500000
O O12 0.000000 0.549532 0.250000
#
# Coordination Sequence:
#
# PCOD9475646 Si02
#       5
#    16   8  16   8   8
#     4  11  27  51  78 106 142 184 241 307 370 436
#     4  11  22  37  66 103 137 181 230 285 350 425
#     4  12  25  44  70  98 144 187 239 291 360 424
#     4  11  22  41  68 101 141 181 232 287 350 431
#     4  12  28  46  70 106 152 200 248 296 351 428
#
# _framework density 20.763190999999999
#
# number of rings (size 3 to 8) (size 9 to 14) (size 15 to 20)
#    0.000    0.571    2.857    5.143    6.000    2.857 
#    0.000    0.000    0.000    0.000    0.000    0.000 
#    0.000    0.000    0.000    0.000    0.000    0.000 
#
# Total GULP energy -156110.333710 kJ/mol
# GULP energy per Si atom -5575.369061 kJ/mol
# Density = 2.071593 g / cm^3
# Si number density = 20.763191 Si / 1000 Ang^3
#
#
#
# Elastic Constant Matrix: (Units=GPa)
#
#
# Indices 1 2 3 4 5 6 
#
# 1 160.6641 35.2010 59.8360 0.0000 0.0000 0.0000
# 2 35.2010 58.9933 17.7399 0.0000 0.0000 0.0000
# 3 59.8360 17.7399 151.5929 0.0000 0.0000 0.0000
# 4 0.0000 0.0000 0.0000 41.6699 0.0000 0.0000
# 5 0.0000 0.0000 0.0000 0.0000 38.4705 0.0000
# 6 0.0000 0.0000 0.0000 0.0000 0.0000 29.1887
#
#
#
# Elastic Compliance Matrix: (Units=1/GPa)
#
#
# Indices 1 2 3 4 5 6 
#
# 1 0.008125 -0.004025 -0.002736 0.000000 0.000000 0.000000
# 2 -0.004025 0.019564 -0.000700 0.000000 0.000000 0.000000
# 3 -0.002736 -0.000700 0.007759 0.000000 0.000000 0.000000
# 4 0.000000 0.000000 0.000000 0.023998 0.000000 0.000000
# 5 0.000000 0.000000 0.000000 0.000000 0.025994 0.000000
# 6 0.000000 0.000000 0.000000 0.000000 0.000000 0.034260
#
#
# Mechanical properties :
#
#
# Convention : Reuss Voigt Hill
#
# Bulk Modulus (GPa) = 48.72493 66.31154 57.51824
# Shear Modulus (GPa) = 35.34459 39.09737 37.22098
#
# Velocity S-wave (km/s) = 4.13034 4.34408 4.23855
# Velocity P-wave (km/s) = 6.80178 7.56094 7.19138
#
# Compressibility (1/GPa) = 0.02052337
#
# Stress axis : x y z
#
# Youngs Moduli (GPa) = 123.07530 51.11513 128.89019
#
# Poissons Ratio (x) = 0.20576 0.35265
# Poissons Ratio (y) = 0.49543 0.09029
# Poissons Ratio (z) = 0.33674 0.03581
#
# Static dielectric constant tensor:
#      x y z
#    x 1.796860 0.000000 0.000000 
#    y 0.000000 1.796960 0.000000 
#    z 0.000000 0.000000 2.061670 
# 
# From -- ./inp_files/2885.got.cif
#   From: 2010.05.17/outbox.cif.g08.bks.cpg/sg63_2_cif.got.tgz:2885.got - 2010.06.03 15:47:04.
