data_PCOD9475370
_publ_section_title
;
Structure prediction by ZEFSAII (Michael W. Deem and Ramdas Pophale) SiO2 
 PCOD9475370
Probable space group: C M C M
;
_chemical_formula_sum "Si O2"
_cell_formula_units_Z 64
_cell_length_a 14.977899
_cell_length_b 24.913984
_cell_length_c 8.782682
_cell_angle_alpha 90.000000
_cell_angle_beta 90.000000
_cell_angle_gamma 90.000000
_cell_volume 3277.338027
_symmetry_space_group_name_H-M "C M C M"
_symmetry_group_IT_number 63
_symmetry_cell_setting 'orthorhombic'
loop_
_space_group_symop_operation_xyz
x,y,z
-x,-y,1/2+z
x,-y,-z
-x,y,1/2-z
-x,-y,-z
x,y,1/2-z
-x,y,z
x,-y,1/2+z
1/2+x,1/2+y,z
1/2-x,1/2-y,1/2+z
1/2+x,1/2-y,-z
1/2-x,1/2+y,1/2-z
1/2-x,1/2-y,-z
1/2+x,1/2+y,1/2-z
1/2-x,1/2+y,z
1/2+x,1/2-y,1/2+z
loop_
_atom_site_type_symbol
_atom_site_label
_atom_site_fract_x
_atom_site_fract_y
_atom_site_fract_z
Si Si1 0.000000 0.663835 0.491150
Si Si2 0.211150 0.000000 0.500000
Si Si3 0.655425 0.655910 0.750000
Si Si4 0.633143 0.146636 0.750000
Si Si5 0.000000 0.433532 0.750000
Si Si6 0.000000 0.757040 0.250000
Si Si7 0.150642 0.526395 0.750000
Si Si8 0.393179 0.396484 0.919377
O O1 0.913855 0.667340 0.598442
O O2 0.000000 0.716263 0.389279
O O3 0.000000 0.608079 0.392865
O O4 0.280716 0.972594 0.388026
O O5 0.150213 0.955403 0.576888
O O6 0.762592 0.659810 0.750000
O O7 0.588875 0.706678 0.750000
O O8 0.634049 0.628438 0.584244
O O9 0.605267 0.083706 0.750000
O O10 0.915048 0.474759 0.750000
O O11 0.367757 0.372593 0.750000
O O12 0.500000 0.398939 0.921333
#
# Coordination Sequence:
#
# PCOD9475370 Si02
#       8
#     8   8   8   8   4   4   8  16
#     4  10  25  47  69  98 134 180 248 299 344 419
#     4  12  21  37  58  96 142 184 232 269 333 426
#     4  12  24  47  74 101 142 180 232 306 358 415
#     4  11  23  44  70 103 139 180 227 287 359 425
#     4  11  24  40  64  98 142 190 236 287 340 414
#     4  11  26  52  76  98 130 180 236 311 372 402
#     4  12  23  36  66  97 142 190 220 279 348 419
#     4  11  23  40  63 102 139 188 234 276 341 425
#
# _framework density 19.528043
#
# number of rings (size 3 to 8) (size 9 to 14) (size 15 to 20)
#    0.000    0.750    5.000    2.625    0.000    2.500 
#    6.750    0.000    0.000    0.000    0.000    0.000 
#    0.000    0.000    0.000    0.000    0.000    0.000 
#
# Total GULP energy -178222.570302 kJ/mol
# GULP energy per Si atom -5569.455322 kJ/mol
# Density = 1.948360 g / cm^3
# Si number density = 19.528043 Si / 1000 Ang^3
#
#
#
# Elastic Constant Matrix: (Units=GPa)
#
#
# Indices 1 2 3 4 5 6 
#
# 1 155.1101 51.3494 67.8735 0.0000 0.0000 0.0000
# 2 51.3494 105.8103 56.4495 0.0000 0.0000 0.0000
# 3 67.8735 56.4495 176.3161 0.0000 0.0000 0.0000
# 4 0.0000 0.0000 0.0000 223.2006 0.0000 0.0000
# 5 0.0000 0.0000 0.0000 0.0000 0.9663 0.0000
# 6 0.0000 0.0000 0.0000 0.0000 0.0000 16.3370
#
#
#
# Elastic Compliance Matrix: (Units=1/GPa)
#
#
# Indices 1 2 3 4 5 6 
#
# 1 0.008405 -0.002837 -0.002327 0.000000 0.000000 0.000000
# 2 -0.002837 0.012355 -0.002864 0.000000 0.000000 0.000000
# 3 -0.002327 -0.002864 0.007484 0.000000 0.000000 0.000000
# 4 0.000000 0.000000 0.000000 0.004480 0.000000 0.000000
# 5 0.000000 0.000000 0.000000 0.000000 1.034882 0.000000
# 6 0.000000 0.000000 0.000000 0.000000 0.000000 0.061211
#
#
# Mechanical properties :
#
#
# Convention : Reuss Voigt Hill
#
# Bulk Modulus (GPa) = 82.04328 87.62014 84.83171
# Shear Modulus (GPa) = 4.35185 65.53838 34.94512
#
# Velocity S-wave (km/s) = 1.49444 5.79948 4.23482
# Velocity P-wave (km/s) = 6.71432 9.47690 8.21260
#
# Compressibility (1/GPa) = 0.01218869
#
# Stress axis : x y z
#
# Youngs Moduli (GPa) = 118.98297 80.93580 133.61481
#
# Poissons Ratio (x) = 0.22964 0.31092
# Poissons Ratio (y) = 0.33759 0.38261
# Poissons Ratio (z) = 0.27687 0.23176
#
# Static dielectric constant tensor:
#      x y z
#    x 1.637000 0.000000 0.000000 
#    y 0.000000 1.664430 0.000000 
#    z 0.000000 0.000000 1.619890 
# 
# From -- ./inp_files/4582.got.cif
#   From: 2010.05.17/outbox.cif.g08.bks.cpg/sg63_3_cif.got.tgz:4582.got - 2010.06.03 15:47:04.
