data_PCOD9475283
_publ_section_title
;
Structure prediction by ZEFSAII (Michael W. Deem and Ramdas Pophale) SiO2 
 PCOD9475283
Probable space group: C M C M
;
_chemical_formula_sum "Si O2"
_cell_formula_units_Z 64
_cell_length_a 17.772737
_cell_length_b 5.044695
_cell_length_c 30.878602
_cell_angle_alpha 90.000000
_cell_angle_beta 90.000000
_cell_angle_gamma 90.000000
_cell_volume 2768.514855
_symmetry_space_group_name_H-M "C M C M"
_symmetry_group_IT_number 63
_symmetry_cell_setting 'orthorhombic'
loop_
_space_group_symop_operation_xyz
x,y,z
-x,-y,1/2+z
x,-y,-z
-x,y,1/2-z
-x,-y,-z
x,y,1/2-z
-x,y,z
x,-y,1/2+z
1/2+x,1/2+y,z
1/2-x,1/2-y,1/2+z
1/2+x,1/2-y,-z
1/2-x,1/2+y,1/2-z
1/2-x,1/2-y,-z
1/2+x,1/2+y,1/2-z
1/2-x,1/2+y,z
1/2+x,1/2-y,1/2+z
loop_
_atom_site_type_symbol
_atom_site_label
_atom_site_fract_x
_atom_site_fract_y
_atom_site_fract_z
Si Si1 0.302580 0.094799 0.299991
Si Si2 0.694629 0.500126 0.411010
Si Si3 0.413379 0.190562 0.459997
Si Si4 0.086993 0.362732 0.130523
O O1 0.327799 0.075157 0.250000
O O2 0.236692 0.877414 0.306379
O O3 0.368280 0.022426 0.332948
O O4 0.751091 0.747358 0.408233
O O5 0.644311 0.430175 0.452905
O O6 0.630083 0.585500 0.377120
O O7 0.500000 0.280635 0.464324
O O8 0.395014 0.000000 0.500000
O O9 0.409072 0.018670 0.415464
O O10 0.000000 0.323462 0.141272
#
# Coordination Sequence:
#
# PCOD9475283 Si02
#       4
#    16  16  16  16
#     4  10  23  44  70 100 135 175 219 271 340 410
#     4  12  24  43  66  94 130 171 223 277 329 393
#     4  10  24  46  68  96 138 185 231 284 347 409
#     4  11  24  43  69 100 137 178 227 279 339 406
#
# _framework density 23.117089
#
# number of rings (size 3 to 8) (size 9 to 14) (size 15 to 20)
#    0.000    1.250    2.500    2.250    3.500    2.500 
#    0.000    3.750    0.000    4.500    0.000    0.000 
#    0.000    0.000    0.000    0.000    0.000    0.000 
#
# Total GULP energy -179093.020581 kJ/mol
# GULP energy per Si atom -5596.656893 kJ/mol
# Density = 2.306447 g / cm^3
# Si number density = 23.117089 Si / 1000 Ang^3
#
#
#
# Elastic Constant Matrix: (Units=GPa)
#
#
# Indices 1 2 3 4 5 6 
#
# 1 131.5517 53.7354 53.2874 0.0000 0.0000 0.0000
# 2 53.7354 131.8506 34.4854 0.0000 0.0000 0.0000
# 3 53.2874 34.4854 149.2527 0.0000 0.0000 0.0000
# 4 0.0000 0.0000 0.0000 32.9929 0.0000 0.0000
# 5 0.0000 0.0000 0.0000 0.0000 34.1598 0.0000
# 6 0.0000 0.0000 0.0000 0.0000 0.0000 -2.0282
#
#
#
# Elastic Compliance Matrix: (Units=1/GPa)
#
#
# Indices 1 2 3 4 5 6 
#
# 1 0.010134 -0.003389 -0.002835 0.000000 0.000000 0.000000
# 2 -0.003389 0.009205 -0.000917 0.000000 0.000000 0.000000
# 3 -0.002835 -0.000917 0.007924 0.000000 0.000000 0.000000
# 4 0.000000 0.000000 0.000000 0.030310 0.000000 0.000000
# 5 0.000000 0.000000 0.000000 0.000000 0.029274 0.000000
# 6 0.000000 0.000000 0.000000 0.000000 0.000000 -0.493045
#
#
# Mechanical properties :
#
#
# Convention : Reuss Voigt Hill
#
# Bulk Modulus (GPa) = 77.03110 77.29681 77.16395
# Shear Modulus (GPa) = -12.90028 31.10136 9.10054
#
# Velocity S-wave (km/s) = -2.36485 3.67193 1.98627
# Velocity P-wave (km/s) = 5.09292 7.17545 6.22193
#
# Compressibility (1/GPa) = 0.01298177
#
# Stress axis : x y z
#
# Youngs Moduli (GPa) = 98.67581 108.63407 126.19574
#
# Poissons Ratio (x) = 0.36812 0.35780
# Poissons Ratio (y) = 0.33437 0.11573
# Poissons Ratio (z) = 0.27977 0.09962
#
# Static dielectric constant tensor:
#      x y z
#    x 1.845370 0.000000 0.000000 
#    y 0.000000 1.924260 0.000000 
#    z 0.000000 0.000000 1.910810 
# 
# From -- ./inp_files/73668.got.cif
#   From: 2010.05.17/outbox.cif.g08.bks.cpg/sg63_37_cif.got.tgz:73668.got - 2010.06.03 15:47:04.
