data_PCOD9475259
_publ_section_title
;
Structure prediction by ZEFSAII (Michael W. Deem and Ramdas Pophale) SiO2 
 PCOD9475259
Probable space group: C M C M
;
_chemical_formula_sum "Si O2"
_cell_formula_units_Z 52
_cell_length_a 7.672246
_cell_length_b 10.304470
_cell_length_c 28.392027
_cell_angle_alpha 90.000000
_cell_angle_beta 90.000000
_cell_angle_gamma 90.000000
_cell_volume 2244.629043
_symmetry_space_group_name_H-M "C M C M"
_symmetry_group_IT_number 63
_symmetry_cell_setting 'orthorhombic'
loop_
_space_group_symop_operation_xyz
x,y,z
-x,-y,1/2+z
x,-y,-z
-x,y,1/2-z
-x,-y,-z
x,y,1/2-z
-x,y,z
x,-y,1/2+z
1/2+x,1/2+y,z
1/2-x,1/2-y,1/2+z
1/2+x,1/2-y,-z
1/2-x,1/2+y,1/2-z
1/2-x,1/2-y,-z
1/2+x,1/2+y,1/2-z
1/2-x,1/2+y,z
1/2+x,1/2-y,1/2+z
loop_
_atom_site_type_symbol
_atom_site_label
_atom_site_fract_x
_atom_site_fract_y
_atom_site_fract_z
Si Si1 0.698985 0.848201 0.957877
Si Si2 0.706793 0.232047 0.859824
Si Si3 0.209671 0.021106 0.197219
Si Si4 0.000000 0.000000 0.500000
O O1 0.500000 0.892717 0.963360
O O2 0.710628 0.768779 0.909549
O O3 0.750000 0.750000 0.000000
O O4 0.845085 0.958147 0.962139
O O5 0.500000 0.246049 0.866163
O O6 0.741033 0.090392 0.839409
O O7 0.768012 0.339360 0.822021
O O8 0.276070 0.994521 0.250000
O O9 0.000000 0.023985 0.199443
#
# Coordination Sequence:
#
# PCOD9475259 Si02
#       4
#    16  16  16   4
#     4  12  26  46  71 103 142 188 236 295 352 423
#     4  11  24  43  68 101 137 182 234 289 353 423
#     4  10  23  43  67  97 136 179 230 290 352 418
#     4  12  26  48  72 100 142 184 238 288 358 414
#
# _framework density 23.166412000000001
#
# number of rings (size 3 to 8) (size 9 to 14) (size 15 to 20)
#    0.000    0.923    3.077    2.308    4.308    4.308 
#    0.000    0.000    0.000    0.000    0.000    0.000 
#    0.000    0.000    0.000    0.000    0.000    0.000 
#
# Total GULP energy -145038.626741 kJ/mol
# GULP energy per Si atom -5578.408721 kJ/mol
# Density = 2.311368 g / cm^3
# Si number density = 23.166412 Si / 1000 Ang^3
#
#
#
# Elastic Constant Matrix: (Units=GPa)
#
#
# Indices 1 2 3 4 5 6 
#
# 1 164.9576 5.9620 17.2898 0.0000 0.0000 0.0000
# 2 5.9620 50.4574 -18.5802 0.0000 0.0000 0.0000
# 3 17.2898 -18.5802 92.1606 0.0000 0.0000 0.0000
# 4 0.0000 0.0000 0.0000 43.6324 0.0000 0.0000
# 5 0.0000 0.0000 0.0000 0.0000 24.1383 0.0000
# 6 0.0000 0.0000 0.0000 0.0000 0.0000 18.9555
#
#
#
# Elastic Compliance Matrix: (Units=1/GPa)
#
#
# Indices 1 2 3 4 5 6 
#
# 1 0.006258 -0.001266 -0.001429 0.000000 0.000000 0.000000
# 2 -0.001266 0.021664 0.004605 0.000000 0.000000 0.000000
# 3 -0.001429 0.004605 0.012047 0.000000 0.000000 0.000000
# 4 0.000000 0.000000 0.000000 0.022919 0.000000 0.000000
# 5 0.000000 0.000000 0.000000 0.000000 0.041428 0.000000
# 6 0.000000 0.000000 0.000000 0.000000 0.000000 0.052755
#
#
# Mechanical properties :
#
#
# Convention : Reuss Voigt Hill
#
# Bulk Modulus (GPa) = 22.83659 35.21319 29.02489
# Shear Modulus (GPa) = 29.78907 37.53881 33.66394
#
# Velocity S-wave (km/s) = 3.58980 4.02978 3.81614
# Velocity P-wave (km/s) = 5.20204 6.07333 5.65449
#
# Compressibility (1/GPa) = 0.04378938
#
# Stress axis : x y z
#
# Youngs Moduli (GPa) = 159.80301 46.15949 83.00713
#
# Poissons Ratio (x) = 0.05842 0.11863
# Poissons Ratio (y) = 0.20226 -0.38225
# Poissons Ratio (z) = 0.22838 -0.21257
#
# Static dielectric constant tensor:
#      x y z
#    x 1.856150 0.000000 0.000000 
#    y 0.000000 1.925060 0.000000 
#    z 0.000000 0.000000 1.886930 
# 
# From -- ./inp_files/66036.got.cif
#   From: 2010.05.17/outbox.cif.g08.bks.cpg/sg63_34_cif.got.tgz:66036.got - 2010.06.03 15:47:04.
