data_PCOD9475133
_publ_section_title
;
Structure prediction by ZEFSAII (Michael W. Deem and Ramdas Pophale) SiO2 
 PCOD9475133
Probable space group: C M C M
;
_chemical_formula_sum "Si O2"
_cell_formula_units_Z 96
_cell_length_a 15.263186
_cell_length_b 21.808626
_cell_length_c 14.171002
_cell_angle_alpha 90.000000
_cell_angle_beta 90.000000
_cell_angle_gamma 90.000000
_cell_volume 4717.088895
_symmetry_space_group_name_H-M "C M C M"
_symmetry_group_IT_number 63
_symmetry_cell_setting 'orthorhombic'
loop_
_space_group_symop_operation_xyz
x,y,z
-x,-y,1/2+z
x,-y,-z
-x,y,1/2-z
-x,-y,-z
x,y,1/2-z
-x,y,z
x,-y,1/2+z
1/2+x,1/2+y,z
1/2-x,1/2-y,1/2+z
1/2+x,1/2-y,-z
1/2-x,1/2+y,1/2-z
1/2-x,1/2-y,-z
1/2+x,1/2+y,1/2-z
1/2-x,1/2+y,z
1/2+x,1/2-y,1/2+z
loop_
_atom_site_type_symbol
_atom_site_label
_atom_site_fract_x
_atom_site_fract_y
_atom_site_fract_z
Si Si1 0.103259 0.836374 0.355308
Si Si2 0.603673 0.149100 0.855691
Si Si3 0.601437 0.013681 0.864193
Si Si4 0.772436 0.403381 0.636922
Si Si5 0.896750 0.072465 0.019759
Si Si6 0.662506 0.781695 0.964265
O O1 0.142314 0.839763 0.250000
O O2 0.133784 0.888153 0.428617
O O3 0.115524 0.769667 0.401529
O O4 0.000000 0.847335 0.346711
O O5 0.636757 0.165543 0.750000
O O6 0.500000 0.140161 0.846619
O O7 0.636514 0.081783 0.886393
O O8 0.617423 0.197062 0.938769
O O9 0.599020 0.011926 0.750000
O O10 0.500000 0.004810 0.895160
O O11 0.666618 0.960331 0.895294
O O12 0.772960 0.401626 0.750000
O O13 0.673340 0.411302 0.599986
O O14 0.814558 0.341476 0.596199
O O15 0.000000 0.087558 0.040153
O O16 0.893103 0.000000 0.000000
O O17 0.750000 0.750000 0.000000
#
# Coordination Sequence:
#
# PCOD9475133 Si02
#       6
#    16  16  16  16  16  16
#     4  10  22  43  67  89 120 163 209 259 318 382
#     4   9  20  40  65  93 126 167 212 258 315 379
#     4   8  17  36  62  95 132 166 204 251 309 381
#     4  11  24  40  62  95 131 169 212 261 321 377
#     4  10  23  44  68  94 122 159 216 273 322 379
#     4  12  24  39  58  90 129 168 210 256 306 378
#
# _framework density 20.351534999999998
#
# number of rings (size 3 to 8) (size 9 to 14) (size 15 to 20)
#    0.000    2.000    1.667    2.000    2.333    3.667 
#    0.000    5.000    0.000    0.000    0.000    0.000 
#    0.000    0.000    0.000    0.000    0.000    0.000 
#
# Total GULP energy -267941.851502 kJ/mol
# GULP energy per Si atom -5582.121906 kJ/mol
# Density = 2.030521 g / cm^3
# Si number density = 20.351535 Si / 1000 Ang^3
#
#
#
# Elastic Constant Matrix: (Units=GPa)
#
#
# Indices 1 2 3 4 5 6 
#
# 1 53.5252 13.1936 22.9767 0.0000 0.0000 0.0000
# 2 13.1936 104.1446 45.5659 0.0000 0.0000 0.0000
# 3 22.9767 45.5659 131.4456 0.0000 0.0000 0.0000
# 4 0.0000 0.0000 0.0000 27.3658 0.0000 0.0000
# 5 0.0000 0.0000 0.0000 0.0000 17.5615 0.0000
# 6 0.0000 0.0000 0.0000 0.0000 0.0000 23.5489
#
#
#
# Elastic Compliance Matrix: (Units=1/GPa)
#
#
# Indices 1 2 3 4 5 6 
#
# 1 0.020325 -0.001203 -0.003136 0.000000 0.000000 0.000000
# 2 -0.001203 0.011390 -0.003738 0.000000 0.000000 0.000000
# 3 -0.003136 -0.003738 0.009452 0.000000 0.000000 0.000000
# 4 0.000000 0.000000 0.000000 0.036542 0.000000 0.000000
# 5 0.000000 0.000000 0.000000 0.000000 0.056943 0.000000
# 6 0.000000 0.000000 0.000000 0.000000 0.000000 0.042465
#
#
# Mechanical properties :
#
#
# Convention : Reuss Voigt Hill
#
# Bulk Modulus (GPa) = 39.97875 50.28753 45.13314
# Shear Modulus (GPa) = 24.80059 27.52052 26.16056
#
# Velocity S-wave (km/s) = 3.49465 3.68130 3.58918
# Velocity P-wave (km/s) = 5.99751 6.54464 6.27704
#
# Compressibility (1/GPa) = 0.02501329
#
# Stress axis : x y z
#
# Youngs Moduli (GPa) = 49.19947 87.79686 105.80138
#
# Poissons Ratio (x) = 0.10561 0.33178
# Poissons Ratio (y) = 0.05918 0.39549
# Poissons Ratio (z) = 0.15428 0.32819
#
# Static dielectric constant tensor:
#      x y z
#    x 1.740090 0.000000 0.000000 
#    y 0.000000 1.937040 0.000000 
#    z 0.000000 0.000000 1.729890 
# 
# From -- ./inp_files/31853.got.cif
#   From: 2010.05.17/outbox.cif.g08.bks.cpg/sg63_16_cif.got.tgz:31853.got - 2010.06.03 15:47:04.
