data_PCOD9475468
_publ_section_title
;
Structure prediction by ZEFSAII (Michael W. Deem and Ramdas Pophale) SiO2 
 PCOD9475468
Probable space group: C M C M
;
_chemical_formula_sum "Si O2"
_cell_formula_units_Z 80
_cell_length_a 11.800299
_cell_length_b 23.389034
_cell_length_c 15.647128
_cell_angle_alpha 90.000000
_cell_angle_beta 90.000000
_cell_angle_gamma 90.000000
_cell_volume 4318.569689
_symmetry_space_group_name_H-M "C M C M"
_symmetry_group_IT_number 63
_symmetry_cell_setting 'orthorhombic'
loop_
_space_group_symop_operation_xyz
x,y,z
-x,-y,1/2+z
x,-y,-z
-x,y,1/2-z
-x,-y,-z
x,y,1/2-z
-x,y,z
x,-y,1/2+z
1/2+x,1/2+y,z
1/2-x,1/2-y,1/2+z
1/2+x,1/2-y,-z
1/2-x,1/2+y,1/2-z
1/2-x,1/2-y,-z
1/2+x,1/2+y,1/2-z
1/2-x,1/2+y,z
1/2+x,1/2-y,1/2+z
loop_
_atom_site_type_symbol
_atom_site_label
_atom_site_fract_x
_atom_site_fract_y
_atom_site_fract_z
Si Si1 0.715202 0.354958 0.903316
Si Si2 0.748682 0.634974 0.594626
Si Si3 0.500000 0.284064 0.648025
Si Si4 0.367046 0.247349 0.147006
Si Si5 0.862550 0.933311 0.750000
Si Si6 0.000000 0.648352 0.648719
Si Si7 0.365560 0.431614 0.250000
O O1 0.609518 0.312103 0.893197
O O2 0.822768 0.313868 0.885993
O O3 0.692799 0.402668 0.831927
O O4 0.718789 0.380060 0.997818
O O5 0.707646 0.700663 0.609840
O O6 0.882613 0.627930 0.608913
O O7 0.685879 0.598083 0.666314
O O8 0.500000 0.295567 0.750000
O O9 0.500000 0.216657 0.638060
O O10 0.352835 0.248389 0.250000
O O11 0.500000 0.255904 0.127210
O O12 0.000000 0.924863 0.750000
O O13 0.842510 0.000877 0.750000
O O14 0.000000 0.635643 0.750000
O O15 0.500000 0.422198 0.250000
#
# Coordination Sequence:
#
# PCOD9475468 Si02
#       7
#    16  16   8  16   8   8   8
#     4  12  23  38  64  95 130 160 206 256 310 374
#     4  12  25  39  65  94 128 166 206 260 307 375
#     4  11  20  36  62  94 130 168 206 247 310 376
#     4  11  22  37  60  94 134 168 195 245 320 378
#     4  11  24  45  70  90 119 165 213 262 312 368
#     4  11  22  40  64  90 126 174 214 243 306 374
#     4  11  26  46  65  91 122 159 210 265 319 365
#
# _framework density 18.524650999999999
#
# number of rings (size 3 to 8) (size 9 to 14) (size 15 to 20)
#    0.000    0.600    7.000    1.200    4.200    0.800 
#    0.000    2.000    4.400    1.200    0.000    0.000 
#    0.000    0.000    0.000    0.000    0.000    0.000 
#
# Total GULP energy -223662.622411 kJ/mol
# GULP energy per Si atom -5591.565560 kJ/mol
# Density = 1.848249 g / cm^3
# Si number density = 18.524651 Si / 1000 Ang^3
#
#
#
# Elastic Constant Matrix: (Units=GPa)
#
#
# Indices 1 2 3 4 5 6 
#
# 1 106.9438 31.9155 55.9105 0.0000 0.0000 0.0000
# 2 31.9155 99.5372 58.6537 0.0000 0.0000 0.0000
# 3 55.9105 58.6537 169.0902 0.0000 0.0000 0.0000
# 4 0.0000 0.0000 0.0000 -11.3963 0.0000 0.0000
# 5 0.0000 0.0000 0.0000 0.0000 15.2360 0.0000
# 6 0.0000 0.0000 0.0000 0.0000 0.0000 24.5122
#
#
#
# Elastic Compliance Matrix: (Units=1/GPa)
#
#
# Indices 1 2 3 4 5 6 
#
# 1 0.011564 -0.001828 -0.003189 0.000000 0.000000 0.000000
# 2 -0.001828 0.012917 -0.003876 0.000000 0.000000 0.000000
# 3 -0.003189 -0.003876 0.008313 0.000000 0.000000 0.000000
# 4 0.000000 0.000000 0.000000 -0.087748 0.000000 0.000000
# 5 0.000000 0.000000 0.000000 0.000000 0.065634 0.000000
# 6 0.000000 0.000000 0.000000 0.000000 0.000000 0.040796
#
#
# Mechanical properties :
#
#
# Convention : Reuss Voigt Hill
#
# Bulk Modulus (GPa) = 66.63967 74.28117 70.46042
# Shear Modulus (GPa) = 67.32637 20.94316 44.13477
#
# Velocity S-wave (km/s) = 6.03516 3.36602 4.88637
# Velocity P-wave (km/s) = 9.19868 7.43589 8.36386
#
# Compressibility (1/GPa) = 0.01500608
#
# Stress axis : x y z
#
# Youngs Moduli (GPa) = 86.47696 77.41906 120.29245
#
# Poissons Ratio (x) = 0.14155 0.38366
# Poissons Ratio (y) = 0.15811 0.46625
# Poissons Ratio (z) = 0.27581 0.30007
#
# Static dielectric constant tensor:
#      x y z
#    x 1.642250 0.000000 0.000000 
#    y 0.000000 1.609220 0.000000 
#    z 0.000000 0.000000 1.633640 
# 
# From -- ./inp_files/29807.got.cif
#   From: 2010.05.17/outbox.cif.g08.bks.cpg/sg63_15_cif.got.tgz:29807.got - 2010.06.03 15:47:04.
