data_PCOD9475770
_publ_section_title
;
Structure prediction by ZEFSAII (Michael W. Deem and Ramdas Pophale) SiO2 
 PCOD9475770
Probable space group: C M C M
;
_chemical_formula_sum "Si O2"
_cell_formula_units_Z 64
_cell_length_a 7.882028
_cell_length_b 35.814986
_cell_length_c 11.754224
_cell_angle_alpha 90.000000
_cell_angle_beta 90.000000
_cell_angle_gamma 90.000000
_cell_volume 3318.155402
_symmetry_space_group_name_H-M "C M C M"
_symmetry_group_IT_number 63
_symmetry_cell_setting 'orthorhombic'
loop_
_space_group_symop_operation_xyz
x,y,z
-x,-y,1/2+z
x,-y,-z
-x,y,1/2-z
-x,-y,-z
x,y,1/2-z
-x,y,z
x,-y,1/2+z
1/2+x,1/2+y,z
1/2-x,1/2-y,1/2+z
1/2+x,1/2-y,-z
1/2-x,1/2+y,1/2-z
1/2-x,1/2-y,-z
1/2+x,1/2+y,1/2-z
1/2-x,1/2+y,z
1/2+x,1/2-y,1/2+z
loop_
_atom_site_type_symbol
_atom_site_label
_atom_site_fract_x
_atom_site_fract_y
_atom_site_fract_z
Si Si1 0.809798 0.044696 0.011376
Si Si2 0.500000 0.081287 0.614827
Si Si3 0.794566 0.330639 0.750000
Si Si4 0.802173 0.793278 0.511223
Si Si5 0.295029 0.919079 0.750000
Si Si6 0.500000 0.165970 0.885660
O O1 0.773080 0.059930 0.138155
O O2 0.000000 0.056319 0.978646
O O3 0.666506 0.061516 0.931680
O O4 0.800102 0.000000 0.000000
O O5 0.500000 0.081309 0.750000
O O6 0.500000 0.123600 0.571149
O O7 0.726505 0.309746 0.862111
O O8 0.749080 0.374875 0.750000
O O9 0.000000 0.328312 0.750000
O O10 0.750000 0.750000 0.500000
O O11 0.669319 0.814813 0.431983
O O12 0.000000 0.797705 0.480586
O O13 0.500000 0.921277 0.750000
O O14 0.500000 0.166685 0.750000
#
# Coordination Sequence:
#
# PCOD9475770 Si02
#       6
#    16   8   8  16   8   8
#     4  11  25  42  67 100 136 174 222 278 333 396
#     4  11  25  44  68  94 132 181 222 272 331 400
#     4  11  23  43  69 102 135 170 222 276 337 399
#     4  12  25  43  69  99 132 175 219 275 335 401
#     4  11  23  41  71 100 133 174 220 278 335 397
#     4  11  26  46  66  96 136 173 224 276 330 397
#
# _framework density 19.287822999999999
#
# number of rings (size 3 to 8) (size 9 to 14) (size 15 to 20)
#    0.000    0.750    3.750    2.625    3.500    6.000 
#    0.000    2.500    0.000    0.000    0.000    0.000 
#    0.000    0.000    0.000    0.000    0.000    0.000 
#
# Total GULP energy -178982.974971 kJ/mol
# GULP energy per Si atom -5593.217968 kJ/mol
# Density = 1.924392 g / cm^3
# Si number density = 19.287823 Si / 1000 Ang^3
#
#
#
# Elastic Constant Matrix: (Units=GPa)
#
#
# Indices 1 2 3 4 5 6 
#
# 1 202.5781 78.4972 45.0160 0.0000 0.0000 0.0000
# 2 78.4972 140.3250 49.7267 0.0000 0.0000 0.0000
# 3 45.0160 49.7267 76.7328 0.0000 0.0000 0.0000
# 4 0.0000 0.0000 0.0000 -8.2422 0.0000 0.0000
# 5 0.0000 0.0000 0.0000 0.0000 147.1750 0.0000
# 6 0.0000 0.0000 0.0000 0.0000 0.0000 46.4898
#
#
#
# Elastic Compliance Matrix: (Units=1/GPa)
#
#
# Indices 1 2 3 4 5 6 
#
# 1 0.006508 -0.002969 -0.001894 0.000000 0.000000 0.000000
# 2 -0.002969 0.010606 -0.005131 0.000000 0.000000 0.000000
# 3 -0.001894 -0.005131 0.017468 0.000000 0.000000 0.000000
# 4 0.000000 0.000000 0.000000 -0.121327 0.000000 0.000000
# 5 0.000000 0.000000 0.000000 0.000000 0.006795 0.000000
# 6 0.000000 0.000000 0.000000 0.000000 0.000000 0.021510
#
#
# Mechanical properties :
#
#
# Convention : Reuss Voigt Hill
#
# Bulk Modulus (GPa) = 68.52204 85.12397 76.82301
# Shear Modulus (GPa) = -148.86136 53.51093 -47.67522
#
# Velocity S-wave (km/s) = -8.79468 5.27291 -4.97709
# Velocity P-wave (km/s) = 8.21739 9.01670 2.62444
#
# Compressibility (1/GPa) = 0.01459384
#
# Stress axis : x y z
#
# Youngs Moduli (GPa) = 153.66279 94.28947 57.24692
#
# Poissons Ratio (x) = 0.27998 0.10840
# Poissons Ratio (y) = 0.45629 0.29373
# Poissons Ratio (z) = 0.29096 0.48379
#
# Static dielectric constant tensor:
#      x y z
#    x 1.696280 0.000000 0.000000 
#    y 0.000000 1.586300 0.000000 
#    z 0.000000 0.000000 1.648410 
# 
# From -- ./inp_files/16301.got.cif
#   From: 2010.05.17/outbox.cif.g08.bks.cpg/sg63_9_cif.got.tgz:16301.got - 2010.06.03 15:47:04.
