data_PCOD9475151
_publ_section_title
;
Structure prediction by ZEFSAII (Michael W. Deem and Ramdas Pophale) SiO2 
 PCOD9475151
Probable space group: C M C M
;
_chemical_formula_sum "Si O2"
_cell_formula_units_Z 88
_cell_length_a 21.307770
_cell_length_b 22.381960
_cell_length_c 9.790528
_cell_angle_alpha 90.000000
_cell_angle_beta 90.000000
_cell_angle_gamma 90.000000
_cell_volume 4669.197339
_symmetry_space_group_name_H-M "C M C M"
_symmetry_group_IT_number 63
_symmetry_cell_setting 'orthorhombic'
loop_
_space_group_symop_operation_xyz
x,y,z
-x,-y,1/2+z
x,-y,-z
-x,y,1/2-z
-x,-y,-z
x,y,1/2-z
-x,y,z
x,-y,1/2+z
1/2+x,1/2+y,z
1/2-x,1/2-y,1/2+z
1/2+x,1/2-y,-z
1/2-x,1/2+y,1/2-z
1/2-x,1/2-y,-z
1/2+x,1/2+y,1/2-z
1/2-x,1/2+y,z
1/2+x,1/2-y,1/2+z
loop_
_atom_site_type_symbol
_atom_site_label
_atom_site_fract_x
_atom_site_fract_y
_atom_site_fract_z
Si Si1 0.135745 0.111364 0.909911
Si Si2 0.742681 0.557328 0.414848
Si Si3 0.574464 0.050542 0.250000
Si Si4 0.312126 0.256141 0.408396
Si Si5 0.361721 0.131926 0.475104
Si Si6 0.500000 0.441025 0.408741
Si Si7 0.423715 0.910299 0.250000
O O1 0.151372 0.095843 0.750000
O O2 0.154146 0.180407 0.929591
O O3 0.062841 0.097247 0.931067
O O4 0.176126 0.073590 0.017951
O O5 0.766110 0.500000 0.500000
O O6 0.741621 0.549479 0.250000
O O7 0.790188 0.610143 0.455186
O O8 0.500000 0.051187 0.250000
O O9 0.600271 0.087548 0.122990
O O10 0.593488 0.981049 0.250000
O O11 0.292839 0.252645 0.250000
O O12 0.250000 0.250000 0.500000
O O13 0.359388 0.201382 0.437170
O O14 0.391877 0.120578 0.620817
O O15 0.500000 0.500000 0.500000
O O16 0.500000 0.459544 0.250000
O O17 0.500000 0.905757 0.250000
#
# Coordination Sequence:
#
# PCOD9475151 Si02
#       7
#    16  16   8  16  16   8   8
#     4  10  23  42  66  95 127 172 215 267 331 387
#     4  12  24  38  62  97 130 162 215 273 329 393
#     4  11  22  44  67  94 130 171 218 269 323 391
#     4  11  23  42  65  93 131 171 215 266 324 387
#     4  12  24  41  64  96 128 170 221 266 326 386
#     4  10  22  44  68  96 130 168 215 265 326 392
#     4  11  26  44  65  94 134 175 216 267 331 385
#
# _framework density 18.846923
#
# number of rings (size 3 to 8) (size 9 to 14) (size 15 to 20)
#    0.000    0.909    3.636    3.273    3.818    3.636 
#    3.273    0.000    0.000    0.000    0.000    0.000 
#    0.000    0.000    0.000    0.000    0.000    0.000 
#
# Total GULP energy -245794.774137 kJ/mol
# GULP energy per Si atom -5586.244867 kJ/mol
# Density = 1.880403 g / cm^3
# Si number density = 18.846923 Si / 1000 Ang^3
#
#
#
# Elastic Constant Matrix: (Units=GPa)
#
#
# Indices 1 2 3 4 5 6 
#
# 1 95.1806 28.4223 55.5402 0.0000 0.0000 0.0000
# 2 28.4223 105.6493 50.7161 0.0000 0.0000 0.0000
# 3 55.5402 50.7161 144.9685 0.0000 0.0000 0.0000
# 4 0.0000 0.0000 0.0000 27.2501 0.0000 0.0000
# 5 0.0000 0.0000 0.0000 0.0000 35.2657 0.0000
# 6 0.0000 0.0000 0.0000 0.0000 0.0000 21.5983
#
#
#
# Elastic Compliance Matrix: (Units=1/GPa)
#
#
# Indices 1 2 3 4 5 6 
#
# 1 0.013702 -0.001402 -0.004759 0.000000 0.000000 0.000000
# 2 -0.001402 0.011519 -0.003493 0.000000 0.000000 0.000000
# 3 -0.004759 -0.003493 0.009943 0.000000 0.000000 0.000000
# 4 0.000000 0.000000 0.000000 0.036697 0.000000 0.000000
# 5 0.000000 0.000000 0.000000 0.000000 0.028356 0.000000
# 6 0.000000 0.000000 0.000000 0.000000 0.000000 0.046300
#
#
# Mechanical properties :
#
#
# Convention : Reuss Voigt Hill
#
# Bulk Modulus (GPa) = 63.06314 68.35063 65.70688
# Shear Modulus (GPa) = 29.22092 30.89750 30.05921
#
# Velocity S-wave (km/s) = 3.94183 4.05333 3.99797
# Velocity P-wave (km/s) = 7.36551 7.63223 7.50005
#
# Compressibility (1/GPa) = 0.01585712
#
# Stress axis : x y z
#
# Youngs Moduli (GPa) = 72.98233 86.81260 100.57000
#
# Poissons Ratio (x) = 0.12168 0.47863
# Poissons Ratio (y) = 0.10229 0.35128
# Poissons Ratio (z) = 0.34733 0.30323
#
# Static dielectric constant tensor:
#      x y z
#    x 1.693330 0.000000 0.000000 
#    y 0.000000 1.650830 0.000000 
#    z 0.000000 0.000000 1.569670 
# 
# From -- ./inp_files/8315.got.cif
#   From: 2010.05.17/outbox.cif.g08.bks.cpg/sg63_5_cif.got.tgz:8315.got - 2010.06.03 15:47:04.
