data_PCOD9475810
_publ_section_title
;
Structure prediction by ZEFSAII (Michael W. Deem and Ramdas Pophale) SiO2 
 PCOD9475810
Probable space group: C M C M
;
_chemical_formula_sum "Si O2"
_cell_formula_units_Z 64
_cell_length_a 8.945533
_cell_length_b 20.807095
_cell_length_c 19.561992
_cell_angle_alpha 90.000000
_cell_angle_beta 90.000000
_cell_angle_gamma 90.000000
_cell_volume 3641.084427
_symmetry_space_group_name_H-M "C M C M"
_symmetry_group_IT_number 63
_symmetry_cell_setting 'orthorhombic'
loop_
_space_group_symop_operation_xyz
x,y,z
-x,-y,1/2+z
x,-y,-z
-x,y,1/2-z
-x,-y,-z
x,y,1/2-z
-x,y,z
x,-y,1/2+z
1/2+x,1/2+y,z
1/2-x,1/2-y,1/2+z
1/2+x,1/2-y,-z
1/2-x,1/2+y,1/2-z
1/2-x,1/2-y,-z
1/2+x,1/2+y,1/2-z
1/2-x,1/2+y,z
1/2+x,1/2-y,1/2+z
loop_
_atom_site_type_symbol
_atom_site_label
_atom_site_fract_x
_atom_site_fract_y
_atom_site_fract_z
Si Si1 0.821043 0.389823 0.171728
Si Si2 0.822053 0.067900 0.964336
Si Si3 0.677653 0.189314 0.461302
Si Si4 0.677474 0.737218 0.170781
O O1 0.780067 0.406063 0.250000
O O2 0.736468 0.428490 0.113340
O O3 0.791092 0.313471 0.161803
O O4 0.000000 0.398112 0.164762
O O5 0.000000 0.078558 0.965503
O O6 0.741312 0.124882 0.005231
O O7 0.789850 0.000000 0.000000
O O8 0.500000 0.191536 0.468557
O O9 0.750000 0.250000 0.500000
O O10 0.727925 0.197005 0.382866
O O11 0.706662 0.721464 0.250000
O O12 0.500000 0.728340 0.157938
#
# Coordination Sequence:
#
# PCOD9475810 Si02
#       4
#    16  16  16  16
#     4   9  18  34  58  86 114 147 188 235 287 341
#     4  11  24  40  58  84 117 154 196 238 285 341
#     4  12  23  36  58  86 116 149 190 236 284 337
#     4   9  18  34  57  86 118 149 185 235 290 339
#
# _framework density 17.577181
#
# number of rings (size 3 to 8) (size 9 to 14) (size 15 to 20)
#    0.000    1.750    2.500    4.500    0.000    3.000 
#    0.000    3.750    0.000    1.500    0.000    0.000 
#    0.000    0.000    0.000    0.000    0.000    0.000 
#
# Total GULP energy -178740.390060 kJ/mol
# GULP energy per Si atom -5585.637189 kJ/mol
# Density = 1.753717 g / cm^3
# Si number density = 17.577181 Si / 1000 Ang^3
#
#
#
# Elastic Constant Matrix: (Units=GPa)
#
#
# Indices 1 2 3 4 5 6 
#
# 1 98.2052 76.7057 83.7632 0.0000 0.0000 0.0000
# 2 76.7057 94.6913 74.3088 0.0000 0.0000 0.0000
# 3 83.7632 74.3088 147.6114 0.0000 0.0000 0.0000
# 4 0.0000 0.0000 0.0000 27.7079 0.0000 0.0000
# 5 0.0000 0.0000 0.0000 0.0000 36.0457 0.0000
# 6 0.0000 0.0000 0.0000 0.0000 0.0000 24.8778
#
#
#
# Elastic Compliance Matrix: (Units=1/GPa)
#
#
# Indices 1 2 3 4 5 6 
#
# 1 0.033503 -0.020200 -0.008842 0.000000 0.000000 0.000000
# 2 -0.020200 0.029637 -0.003457 0.000000 0.000000 0.000000
# 3 -0.008842 -0.003457 0.013532 0.000000 0.000000 0.000000
# 4 0.000000 0.000000 0.000000 0.036091 0.000000 0.000000
# 5 0.000000 0.000000 0.000000 0.000000 0.027743 0.000000
# 6 0.000000 0.000000 0.000000 0.000000 0.000000 0.040197
#
#
# Mechanical properties :
#
#
# Convention : Reuss Voigt Hill
#
# Bulk Modulus (GPa) = 85.66588 90.00703 87.83645
# Shear Modulus (GPa) = 20.03279 24.77494 22.40387
#
# Velocity S-wave (km/s) = 3.37961 3.75840 3.57403
# Velocity P-wave (km/s) = 8.00449 8.37568 8.19219
#
# Compressibility (1/GPa) = 0.01167326
#
# Stress axis : x y z
#
# Youngs Moduli (GPa) = 29.84834 33.74217 73.89730
#
# Poissons Ratio (x) = 0.68160 0.65343
# Poissons Ratio (y) = 0.60294 0.25543
# Poissons Ratio (z) = 0.26393 0.11663
#
# Static dielectric constant tensor:
#      x y z
#    x 1.582490 0.000000 0.000000 
#    y 0.000000 1.565430 0.000000 
#    z 0.000000 0.000000 1.618720 
# 
# From -- ./inp_files/39823.got.cif
#   From: 2010.05.17/outbox.cif.g08.bks.cpg/sg63_20_cif.got.tgz:39823.got - 2010.06.03 15:47:04.
