data_PCOD9475681
_publ_section_title
;
Structure prediction by ZEFSAII (Michael W. Deem and Ramdas Pophale) SiO2 
 PCOD9475681
Probable space group: C M C M
;
_chemical_formula_sum "Si O2"
_cell_formula_units_Z 64
_cell_length_a 12.871085
_cell_length_b 9.776237
_cell_length_c 25.986082
_cell_angle_alpha 90.000000
_cell_angle_beta 90.000000
_cell_angle_gamma 90.000000
_cell_volume 3269.848900
_symmetry_space_group_name_H-M "C M C M"
_symmetry_group_IT_number 63
_symmetry_cell_setting 'orthorhombic'
loop_
_space_group_symop_operation_xyz
x,y,z
-x,-y,1/2+z
x,-y,-z
-x,y,1/2-z
-x,-y,-z
x,y,1/2-z
-x,y,z
x,-y,1/2+z
1/2+x,1/2+y,z
1/2-x,1/2-y,1/2+z
1/2+x,1/2-y,-z
1/2-x,1/2+y,1/2-z
1/2-x,1/2-y,-z
1/2+x,1/2+y,1/2-z
1/2-x,1/2+y,z
1/2+x,1/2-y,1/2+z
loop_
_atom_site_type_symbol
_atom_site_label
_atom_site_fract_x
_atom_site_fract_y
_atom_site_fract_z
Si Si1 0.376123 0.357282 0.311672
Si Si2 0.710828 0.075465 0.140929
Si Si3 0.500000 0.760109 0.004544
Si Si4 0.793691 0.874106 0.530098
Si Si5 0.000000 0.512312 0.415532
O O1 0.377588 0.366590 0.250000
O O2 0.500000 0.369726 0.328727
O O3 0.328855 0.209149 0.327968
O O4 0.293884 0.472294 0.332365
O O5 0.769131 0.124751 0.089491
O O6 0.603803 0.008025 0.119485
O O7 0.590157 0.653424 0.015451
O O8 0.500000 0.882982 0.046283
O O9 0.500000 0.845666 0.950168
O O10 0.750000 0.750000 0.500000
O O11 0.745235 0.000000 0.500000
#
# Coordination Sequence:
#
# PCOD9475681 Si02
#       5
#    16  16   8  16   8
#     4  11  26  49  72  99 132 172 227 292 350 408
#     4  12  24  44  72  99 136 182 228 280 346 406
#     4  11  23  38  58  95 143 187 221 273 321 399
#     4  12  24  39  62  96 138 180 228 272 330 408
#     4  11  22  40  67  97 139 183 228 269 334 407
#
# _framework density 19.572769999999998
#
# number of rings (size 3 to 8) (size 9 to 14) (size 15 to 20)
#    0.000    0.500    3.750    5.625    1.750    0.000 
#    2.250    0.000    0.000    0.000    0.000    0.000 
#    0.000    0.000    0.000    0.000    0.000    0.000 
#
# Total GULP energy -178170.525179 kJ/mol
# GULP energy per Si atom -5567.828912 kJ/mol
# Density = 1.952822 g / cm^3
# Si number density = 19.572770 Si / 1000 Ang^3
#
#
#
# Elastic Constant Matrix: (Units=GPa)
#
#
# Indices 1 2 3 4 5 6 
#
# 1 147.2475 50.6241 37.0182 0.0000 0.0000 0.0000
# 2 50.6241 131.3435 53.0310 0.0000 0.0000 0.0000
# 3 37.0182 53.0310 99.8165 0.0000 0.0000 0.0000
# 4 0.0000 0.0000 0.0000 32.8486 0.0000 0.0000
# 5 0.0000 0.0000 0.0000 0.0000 54.5608 0.0000
# 6 0.0000 0.0000 0.0000 0.0000 0.0000 55.6342
#
#
#
# Elastic Compliance Matrix: (Units=1/GPa)
#
#
# Indices 1 2 3 4 5 6 
#
# 1 0.008050 -0.002415 -0.001702 0.000000 0.000000 0.000000
# 2 -0.002415 0.010418 -0.004639 0.000000 0.000000 0.000000
# 3 -0.001702 -0.004639 0.013114 0.000000 0.000000 0.000000
# 4 0.000000 0.000000 0.000000 0.030443 0.000000 0.000000
# 5 0.000000 0.000000 0.000000 0.000000 0.018328 0.000000
# 6 0.000000 0.000000 0.000000 0.000000 0.000000 0.017975
#
#
# Mechanical properties :
#
#
# Convention : Reuss Voigt Hill
#
# Bulk Modulus (GPa) = 71.07981 73.30601 72.19291
# Shear Modulus (GPa) = 41.48377 44.45766 42.97071
#
# Velocity S-wave (km/s) = 4.60876 4.77109 4.69063
# Velocity P-wave (km/s) = 8.04459 8.23927 8.14251
#
# Compressibility (1/GPa) = 0.01406869
#
# Stress axis : x y z
#
# Youngs Moduli (GPa) = 124.22987 95.99151 76.25316
#
# Poissons Ratio (x) = 0.23185 0.12979
# Poissons Ratio (y) = 0.30006 0.35373
# Poissons Ratio (z) = 0.21145 0.44530
#
# Static dielectric constant tensor:
#      x y z
#    x 1.729680 0.000000 0.000000 
#    y 0.000000 1.666740 0.000000 
#    z 0.000000 0.000000 1.647500 
# 
# From -- ./inp_files/72395.got.cif
#   From: 2010.05.17/outbox.cif.g08.bks.cpg/sg63_37_cif.got.tgz:72395.got - 2010.06.03 15:47:04.
