data_PCOD9475901
_publ_section_title
;
Structure prediction by ZEFSAII (Michael W. Deem and Ramdas Pophale) SiO2 
 PCOD9475901
Probable space group: C M C M
;
_chemical_formula_sum "Si O2"
_cell_formula_units_Z 36
_cell_length_a 22.519646
_cell_length_b 10.912130
_cell_length_c 5.586692
_cell_angle_alpha 90.000000
_cell_angle_beta 90.000000
_cell_angle_gamma 90.000000
_cell_volume 1372.858634
_symmetry_space_group_name_H-M "C M C M"
_symmetry_group_IT_number 63
_symmetry_cell_setting 'orthorhombic'
loop_
_space_group_symop_operation_xyz
x,y,z
-x,-y,1/2+z
x,-y,-z
-x,y,1/2-z
-x,-y,-z
x,y,1/2-z
-x,y,z
x,-y,1/2+z
1/2+x,1/2+y,z
1/2-x,1/2-y,1/2+z
1/2+x,1/2-y,-z
1/2-x,1/2+y,1/2-z
1/2-x,1/2-y,-z
1/2+x,1/2+y,1/2-z
1/2-x,1/2+y,z
1/2+x,1/2-y,1/2+z
loop_
_atom_site_type_symbol
_atom_site_label
_atom_site_fract_x
_atom_site_fract_y
_atom_site_fract_z
Si Si1 0.347150 0.437264 0.750000
Si Si2 0.590270 0.189765 0.250000
Si Si3 0.434289 0.206573 0.750000
Si Si4 0.231975 0.687018 0.250000
Si Si5 0.000000 0.080827 0.750000
O O1 0.363309 0.500000 0.500000
O O2 0.381557 0.307388 0.750000
O O3 0.275433 0.429454 0.750000
O O4 0.571440 0.135791 0.502983
O O5 0.661315 0.185536 0.250000
O O6 0.556174 0.323414 0.250000
O O7 0.500000 0.263057 0.750000
O O8 0.250000 0.750000 0.500000
O O9 0.000000 0.000000 0.500000
#
# Coordination Sequence:
#
# PCOD9475901 Si02
#       5
#     8   8   8   8   4
#     4  12  26  41  63  92 126 169 218 266 319 363
#     4  12  23  42  59  85 126 174 207 244 307 365
#     4  12  23  40  58  90 129 163 207 243 312 385
#     4  12  23  45  62  85 121 173 223 261 302 382
#     4  12  26  40  60  96 138 164 200 244 304 390
#
# _framework density 26.222659
#
# number of rings (size 3 to 8) (size 9 to 14) (size 15 to 20)
#    0.000    0.000    6.667    4.000    0.000    6.222 
#    0.000    0.000    0.000    0.000    0.000    1.556 
#    0.000    0.000    0.000    0.000    0.000    0.000 
#
# Total GULP energy -100642.680130 kJ/mol
# GULP energy per Si atom -5591.260007 kJ/mol
# Density = 2.616297 g / cm^3
# Si number density = 26.222659 Si / 1000 Ang^3
#
#
#
# Elastic Constant Matrix: (Units=GPa)
#
#
# Indices 1 2 3 4 5 6 
#
# 1 220.4386 30.3961 34.7683 0.0000 0.0000 0.0000
# 2 30.3961 107.4999 55.7150 0.0000 0.0000 0.0000
# 3 34.7683 55.7150 321.6621 0.0000 0.0000 0.0000
# 4 0.0000 0.0000 0.0000 -14.5264 0.0000 0.0000
# 5 0.0000 0.0000 0.0000 0.0000 57.3215 0.0000
# 6 0.0000 0.0000 0.0000 0.0000 0.0000 34.1288
#
#
#
# Elastic Compliance Matrix: (Units=1/GPa)
#
#
# Indices 1 2 3 4 5 6 
#
# 1 0.004748 -0.001183 -0.000308 0.000000 0.000000 0.000000
# 2 -0.001183 0.010514 -0.001693 0.000000 0.000000 0.000000
# 3 -0.000308 -0.001693 0.003435 0.000000 0.000000 0.000000
# 4 0.000000 0.000000 0.000000 -0.068840 0.000000 0.000000
# 5 0.000000 0.000000 0.000000 0.000000 0.017445 0.000000
# 6 0.000000 0.000000 0.000000 0.000000 0.000000 0.029301
#
#
# Mechanical properties :
#
#
# Convention : Reuss Voigt Hill
#
# Bulk Modulus (GPa) = 81.10892 99.03995 90.07443
# Shear Modulus (GPa) = 705.97070 50.63288 378.30179
#
# Velocity S-wave (km/s) = 16.42578 4.39895 12.02408
# Velocity P-wave (km/s) = 19.76713 7.97821 15.07301
#
# Compressibility (1/GPa) = 0.01232910
#
# Stress axis : x y z
#
# Youngs Moduli (GPa) = 210.60908 95.10775 291.07946
#
# Poissons Ratio (x) = 0.11249 0.08976
# Poissons Ratio (y) = 0.24910 0.49290
# Poissons Ratio (z) = 0.06494 0.16105
#
# Static dielectric constant tensor:
#      x y z
#    x 2.067830 0.000000 0.000000 
#    y 0.000000 2.129900 0.000000 
#    z 0.000000 0.000000 2.490150 
# 
# From -- ./inp_files/901.got.cif
#   From: 2010.05.17/outbox.cif.g08.bks.cpg/sg63_1_cif.got.tgz:901.got - 2010.06.03 15:47:04.
