data_PCOD9475685
_publ_section_title
;
Structure prediction by ZEFSAII (Michael W. Deem and Ramdas Pophale) SiO2 
 PCOD9475685
Probable space group: C M C M
;
_chemical_formula_sum "Si O2"
_cell_formula_units_Z 52
_cell_length_a 7.801137
_cell_length_b 9.694957
_cell_length_c 27.579680
_cell_angle_alpha 90.000000
_cell_angle_beta 90.000000
_cell_angle_gamma 90.000000
_cell_volume 2085.897746
_symmetry_space_group_name_H-M "C M C M"
_symmetry_group_IT_number 63
_symmetry_cell_setting 'orthorhombic'
loop_
_space_group_symop_operation_xyz
x,y,z
-x,-y,1/2+z
x,-y,-z
-x,y,1/2-z
-x,-y,-z
x,y,1/2-z
-x,y,z
x,-y,1/2+z
1/2+x,1/2+y,z
1/2-x,1/2-y,1/2+z
1/2+x,1/2-y,-z
1/2-x,1/2+y,1/2-z
1/2-x,1/2-y,-z
1/2+x,1/2+y,1/2-z
1/2-x,1/2+y,z
1/2+x,1/2-y,1/2+z
loop_
_atom_site_type_symbol
_atom_site_label
_atom_site_fract_x
_atom_site_fract_y
_atom_site_fract_z
Si Si1 0.000000 0.756198 0.750000
Si Si2 0.801029 0.061827 0.610183
Si Si3 0.188502 0.380970 0.698336
Si Si4 0.794963 0.315982 0.948736
O O1 0.846782 0.779761 0.708146
O O2 0.783103 0.963404 0.563229
O O3 0.000000 0.072721 0.622690
O O4 0.710904 0.983185 0.653909
O O5 0.736334 0.210554 0.593489
O O6 0.185049 0.464236 0.750000
O O7 0.000000 0.314053 0.694573
O O8 0.000000 0.328498 0.945834
O O9 0.750000 0.250000 0.000000
#
# Coordination Sequence:
#
# PCOD9475685 Si02
#       4
#     4  16  16  16
#     4   8  14  32  56  86 130 154 206 256 300 360
#     4  11  22  41  63  89 125 164 203 259 314 364
#     4   9  17  32  59  89 123 163 205 249 310 368
#     4  11  25  41  62  90 122 161 210 260 312 373
#
# _framework density 24.929314999999999
#
# number of rings (size 3 to 8) (size 9 to 14) (size 15 to 20)
#    0.923    0.923    1.538    2.769    0.000    8.615 
#    0.000    1.538    0.000    1.846    0.000    0.000 
#    0.000    0.000    0.000    0.000    0.000    0.000 
#
# Total GULP energy -144877.478181 kJ/mol
# GULP energy per Si atom -5572.210699 kJ/mol
# Density = 2.487257 g / cm^3
# Si number density = 24.929315 Si / 1000 Ang^3
#
#
#
# Elastic Constant Matrix: (Units=GPa)
#
#
# Indices 1 2 3 4 5 6 
#
# 1 146.4120 13.9041 18.7410 0.0000 0.0000 0.0000
# 2 13.9041 92.7962 14.0767 0.0000 0.0000 0.0000
# 3 18.7410 14.0767 111.2358 0.0000 0.0000 0.0000
# 4 0.0000 0.0000 0.0000 36.4481 0.0000 0.0000
# 5 0.0000 0.0000 0.0000 0.0000 40.4983 0.0000
# 6 0.0000 0.0000 0.0000 0.0000 0.0000 -0.9580
#
#
#
# Elastic Compliance Matrix: (Units=1/GPa)
#
#
# Indices 1 2 3 4 5 6 
#
# 1 0.007053 -0.000894 -0.001075 0.000000 0.000000 0.000000
# 2 -0.000894 0.011100 -0.001254 0.000000 0.000000 0.000000
# 3 -0.001075 -0.001254 0.009330 0.000000 0.000000 0.000000
# 4 0.000000 0.000000 0.000000 0.027436 0.000000 0.000000
# 5 0.000000 0.000000 0.000000 0.000000 0.024692 0.000000
# 6 0.000000 0.000000 0.000000 0.000000 0.000000 -1.043867
#
#
# Mechanical properties :
#
#
# Convention : Reuss Voigt Hill
#
# Bulk Modulus (GPa) = 47.53557 49.32084 48.42821
# Shear Modulus (GPa) = -5.25874 35.44584 15.09355
#
# Velocity S-wave (km/s) = -1.45397 3.77484 2.46327
# Velocity P-wave (km/s) = 4.03619 6.23109 5.24963
#
# Compressibility (1/GPa) = 0.02103688
#
# Stress axis : x y z
#
# Youngs Moduli (GPa) = 141.79319 90.08643 107.18389
#
# Poissons Ratio (x) = 0.08050 0.11524
# Poissons Ratio (y) = 0.12671 0.13443
# Poissons Ratio (z) = 0.15245 0.11298
#
# Static dielectric constant tensor:
#      x y z
#    x 1.923110 0.000000 0.000000 
#    y 0.000000 1.973860 0.000000 
#    z 0.000000 0.000000 2.039120 
# 
# From -- ./inp_files/66041.got.cif
#   From: 2010.05.17/outbox.cif.g08.bks.cpg/sg63_34_cif.got.tgz:66041.got - 2010.06.03 15:47:04.
