data_PCOD9475743
_publ_section_title
;
Structure prediction by ZEFSAII (Michael W. Deem and Ramdas Pophale) SiO2 
 PCOD9475743
Probable space group: C M C M
;
_chemical_formula_sum "Si O2"
_cell_formula_units_Z 56
_cell_length_a 14.458262
_cell_length_b 8.146605
_cell_length_c 22.280279
_cell_angle_alpha 90.000000
_cell_angle_beta 90.000000
_cell_angle_gamma 90.000000
_cell_volume 2624.299361
_symmetry_space_group_name_H-M "C M C M"
_symmetry_group_IT_number 63
_symmetry_cell_setting 'orthorhombic'
loop_
_space_group_symop_operation_xyz
x,y,z
-x,-y,1/2+z
x,-y,-z
-x,y,1/2-z
-x,-y,-z
x,y,1/2-z
-x,y,z
x,-y,1/2+z
1/2+x,1/2+y,z
1/2-x,1/2-y,1/2+z
1/2+x,1/2-y,-z
1/2-x,1/2+y,1/2-z
1/2-x,1/2-y,-z
1/2+x,1/2+y,1/2-z
1/2-x,1/2+y,z
1/2+x,1/2-y,1/2+z
loop_
_atom_site_type_symbol
_atom_site_label
_atom_site_fract_x
_atom_site_fract_y
_atom_site_fract_z
Si Si1 0.843075 0.000000 0.000000
Si Si2 0.898735 0.663874 0.540758
Si Si3 0.390878 0.735909 0.821603
Si Si4 0.762584 0.520197 0.622408
O O1 0.783878 0.023373 0.059220
O O2 0.892412 0.176167 0.998052
O O3 0.889487 0.500000 0.500000
O O4 0.829781 0.663246 0.597140
O O5 0.000000 0.661505 0.567643
O O6 0.393232 0.755828 0.750000
O O7 0.500000 0.723410 0.841714
O O8 0.323081 0.582529 0.837468
O O9 0.332773 0.887207 0.850163
#
# Coordination Sequence:
#
# PCOD9475743 Si02
#       4
#     8  16  16  16
#     4  12  23  40  65 102 146 176 219 278 355 420
#     4  11  23  39  64  99 140 183 223 272 342 421
#     4  11  26  47  71  98 132 182 238 291 346 402
#     4  12  22  45  69  98 138 178 226 288 342 420
#
# _framework density 21.339029
#
# number of rings (size 3 to 8) (size 9 to 14) (size 15 to 20)
#    0.000    0.571    4.286    4.714    0.000    4.571 
#    0.000    0.000    0.000    5.143    0.000    0.000 
#    0.000    0.000    0.000    0.000    0.000    0.000 
#
# Total GULP energy -155918.647277 kJ/mol
# GULP energy per Si atom -5568.523117 kJ/mol
# Density = 2.129046 g / cm^3
# Si number density = 21.339029 Si / 1000 Ang^3
#
#
#
# Elastic Constant Matrix: (Units=GPa)
#
#
# Indices 1 2 3 4 5 6 
#
# 1 186.0382 52.2559 51.8548 0.0000 0.0000 0.0000
# 2 52.2559 93.9111 12.6139 0.0000 0.0000 0.0000
# 3 51.8548 12.6139 87.1628 0.0000 0.0000 0.0000
# 4 0.0000 0.0000 0.0000 14.9004 0.0000 0.0000
# 5 0.0000 0.0000 0.0000 0.0000 36.7718 0.0000
# 6 0.0000 0.0000 0.0000 0.0000 0.0000 3.9729
#
#
#
# Elastic Compliance Matrix: (Units=1/GPa)
#
#
# Indices 1 2 3 4 5 6 
#
# 1 0.007494 -0.003642 -0.003931 0.000000 0.000000 0.000000
# 2 -0.003642 0.012629 0.000339 0.000000 0.000000 0.000000
# 3 -0.003931 0.000339 0.013763 0.000000 0.000000 0.000000
# 4 0.000000 0.000000 0.000000 0.067112 0.000000 0.000000
# 5 0.000000 0.000000 0.000000 0.000000 0.027195 0.000000
# 6 0.000000 0.000000 0.000000 0.000000 0.000000 0.251708
#
#
# Mechanical properties :
#
#
# Convention : Reuss Voigt Hill
#
# Bulk Modulus (GPa) = 51.50019 66.72905 59.11462
# Shear Modulus (GPa) = 12.47375 27.82152 20.14763
#
# Velocity S-wave (km/s) = 2.42037 3.61471 3.07607
# Velocity P-wave (km/s) = 5.65664 6.98286 6.35444
#
# Compressibility (1/GPa) = 0.01941740
#
# Stress axis : x y z
#
# Youngs Moduli (GPa) = 133.44055 79.18070 72.66120
#
# Poissons Ratio (x) = 0.28837 0.28565
# Poissons Ratio (y) = 0.48598 -0.02463
# Poissons Ratio (z) = 0.52459 -0.02684
#
# Static dielectric constant tensor:
#      x y z
#    x 1.870260 0.000000 0.000000 
#    y 0.000000 1.927840 0.000000 
#    z 0.000000 0.000000 1.737310 
# 
# From -- ./inp_files/53666.got.cif
#   From: 2010.05.17/outbox.cif.g08.bks.cpg/sg63_27_cif.got.tgz:53666.got - 2010.06.03 15:47:04.
