data_PCOD9475339
_publ_section_title
;
Structure prediction by ZEFSAII (Michael W. Deem and Ramdas Pophale) SiO2 
 PCOD9475339
Probable space group: C M C M
;
_chemical_formula_sum "Si O2"
_cell_formula_units_Z 72
_cell_length_a 27.416851
_cell_length_b 15.034405
_cell_length_c 8.677810
_cell_angle_alpha 90.000000
_cell_angle_beta 90.000000
_cell_angle_gamma 90.000000
_cell_volume 3576.958933
_symmetry_space_group_name_H-M "C M C M"
_symmetry_group_IT_number 63
_symmetry_cell_setting 'orthorhombic'
loop_
_space_group_symop_operation_xyz
x,y,z
-x,-y,1/2+z
x,-y,-z
-x,y,1/2-z
-x,-y,-z
x,y,1/2-z
-x,y,z
x,-y,1/2+z
1/2+x,1/2+y,z
1/2-x,1/2-y,1/2+z
1/2+x,1/2-y,-z
1/2-x,1/2+y,1/2-z
1/2-x,1/2-y,-z
1/2+x,1/2+y,1/2-z
1/2-x,1/2+y,z
1/2+x,1/2-y,1/2+z
loop_
_atom_site_type_symbol
_atom_site_label
_atom_site_fract_x
_atom_site_fract_y
_atom_site_fract_z
Si Si1 0.875033 0.597472 0.935009
Si Si2 0.500000 0.600310 0.935610
Si Si3 0.091867 0.776849 0.435013
Si Si4 0.235158 0.346073 0.435150
Si Si5 0.167628 0.910608 0.566810
O O1 0.877654 0.596833 0.750000
O O2 0.818992 0.622428 0.979964
O O3 0.886642 0.500000 0.000000
O O4 0.908486 0.676822 0.000618
O O5 0.500000 0.593284 0.750000
O O6 0.453165 0.659714 0.980695
O O7 0.500000 0.500000 0.000000
O O8 0.094478 0.774119 0.250000
O O9 0.139245 0.825469 0.503337
O O10 0.237501 0.344859 0.250000
O O11 0.250000 0.250000 0.500000
O O12 0.277609 0.406552 0.503861
O O13 0.166965 0.911216 0.750000
O O14 0.143638 0.000000 0.500000
#
# Coordination Sequence:
#
# PCOD9475339 Si02
#       5
#    16   8  16  16  16
#     4  11  24  41  63  92 125 167 214 258 310 368
#     4  10  24  44  69 100 127 160 199 250 316 382
#     4  11  23  42  66  92 125 160 204 258 315 376
#     4  11  22  37  59  88 125 166 211 257 307 363
#     4  12  24  38  58  88 124 164 211 255 308 369
#
# _framework density 20.128830000000001
#
# number of rings (size 3 to 8) (size 9 to 14) (size 15 to 20)
#    0.000    0.889    2.222    5.333    0.000    8.000 
#    0.000    0.556    0.000    0.000    0.000    0.000 
#    0.000    0.000    0.000    0.000    0.000    0.000 
#
# Total GULP energy -201313.095136 kJ/mol
# GULP energy per Si atom -5592.030420 kJ/mol
# Density = 2.008302 g / cm^3
# Si number density = 20.128830 Si / 1000 Ang^3
#
#
#
# Elastic Constant Matrix: (Units=GPa)
#
#
# Indices 1 2 3 4 5 6 
#
# 1 86.9939 52.2504 31.2202 0.0000 0.0000 0.0000
# 2 52.2504 204.3343 49.4327 0.0000 0.0000 0.0000
# 3 31.2202 49.4327 79.3709 0.0000 0.0000 0.0000
# 4 0.0000 0.0000 0.0000 37.2603 0.0000 0.0000
# 5 0.0000 0.0000 0.0000 0.0000 14.3305 0.0000
# 6 0.0000 0.0000 0.0000 0.0000 0.0000 31.3597
#
#
#
# Elastic Compliance Matrix: (Units=1/GPa)
#
#
# Indices 1 2 3 4 5 6 
#
# 1 0.014596 -0.002759 -0.004023 0.000000 0.000000 0.000000
# 2 -0.002759 0.006284 -0.002828 0.000000 0.000000 0.000000
# 3 -0.004023 -0.002828 0.015943 0.000000 0.000000 0.000000
# 4 0.000000 0.000000 0.000000 0.026838 0.000000 0.000000
# 5 0.000000 0.000000 0.000000 0.000000 0.069781 0.000000
# 6 0.000000 0.000000 0.000000 0.000000 0.000000 0.031888
#
#
# Mechanical properties :
#
#
# Convention : Reuss Voigt Hill
#
# Bulk Modulus (GPa) = 56.81138 70.72287 63.76712
# Shear Modulus (GPa) = 26.25803 32.44314 29.35058
#
# Velocity S-wave (km/s) = 3.61570 4.01905 3.82270
# Velocity P-wave (km/s) = 6.76138 7.53315 7.15767
#
# Compressibility (1/GPa) = 0.01760211
#
# Stress axis : x y z
#
# Youngs Moduli (GPa) = 68.51206 159.14223 62.72386
#
# Poissons Ratio (x) = 0.43909 0.25233
# Poissons Ratio (y) = 0.18903 0.17740
# Poissons Ratio (z) = 0.27561 0.45009
#
# Static dielectric constant tensor:
#      x y z
#    x 1.717420 0.000000 0.000000 
#    y 0.000000 2.054180 0.000000 
#    z 0.000000 0.000000 1.662400 
# 
# From -- ./inp_files/11758.got.cif
#   From: 2010.05.17/outbox.cif.g08.bks.cpg/sg63_6_cif.got.tgz:11758.got - 2010.06.03 15:47:04.
