data_PCOD9475631
_publ_section_title
;
Structure prediction by ZEFSAII (Michael W. Deem and Ramdas Pophale) SiO2 
 PCOD9475631
Probable space group: C M C M
;
_chemical_formula_sum "Si O2"
_cell_formula_units_Z 80
_cell_length_a 7.711606
_cell_length_b 15.721624
_cell_length_c 29.378475
_cell_angle_alpha 90.000000
_cell_angle_beta 90.000000
_cell_angle_gamma 90.000000
_cell_volume 3561.816048
_symmetry_space_group_name_H-M "C M C M"
_symmetry_group_IT_number 63
_symmetry_cell_setting 'orthorhombic'
loop_
_space_group_symop_operation_xyz
x,y,z
-x,-y,1/2+z
x,-y,-z
-x,y,1/2-z
-x,-y,-z
x,y,1/2-z
-x,y,z
x,-y,1/2+z
1/2+x,1/2+y,z
1/2-x,1/2-y,1/2+z
1/2+x,1/2-y,-z
1/2-x,1/2+y,1/2-z
1/2-x,1/2-y,-z
1/2+x,1/2+y,1/2-z
1/2-x,1/2+y,z
1/2+x,1/2-y,1/2+z
loop_
_atom_site_type_symbol
_atom_site_label
_atom_site_fract_x
_atom_site_fract_y
_atom_site_fract_z
Si Si1 0.801044 0.135344 0.102949
Si Si2 0.209130 0.316201 0.699852
Si Si3 0.210445 0.115118 0.700078
Si Si4 0.286050 0.449610 0.397574
Si Si5 0.694587 0.291795 0.452933
O O1 0.791582 0.136405 0.157539
O O2 0.702016 0.216685 0.084122
O O3 0.000000 0.145637 0.088104
O O4 0.734203 0.043808 0.087247
O O5 0.262863 0.346249 0.750000
O O6 0.252278 0.215686 0.696494
O O7 0.000000 0.322972 0.696658
O O8 0.271641 0.084748 0.750000
O O9 0.271522 0.069598 0.654250
O O10 0.000000 0.109958 0.700408
O O11 0.500000 0.449310 0.396360
O O12 0.220067 0.374848 0.430538
O O13 0.500000 0.319803 0.461269
O O14 0.750000 0.250000 0.500000
#
# Coordination Sequence:
#
# PCOD9475631 Si02
#       5
#    16  16  16  16  16
#     4  11  22  36  58  90 119 147 188 239 287 335
#     4   9  17  32  56  83 115 158 199 232 276 335
#     4   8  13  26  52  81 107 145 194 228 260 322
#     4   9  19  35  57  84 115 151 190 229 276 341
#     4  11  23  43  65  84 111 148 190 237 291 350
#
# _framework density 22.460452
#
# number of rings (size 3 to 8) (size 9 to 14) (size 15 to 20)
#    0.000    2.400    2.000    2.400    0.000    2.000 
#    0.000   10.000    0.000    0.000    0.000    0.000 
#    0.000    0.000    0.000    0.000    0.000    0.000 
#
# Total GULP energy -223290.495722 kJ/mol
# GULP energy per Si atom -5582.262393 kJ/mol
# Density = 2.240933 g / cm^3
# Si number density = 22.460452 Si / 1000 Ang^3
#
#
#
# Elastic Constant Matrix: (Units=GPa)
#
#
# Indices 1 2 3 4 5 6 
#
# 1 30.1315 -11.1133 -9.0333 0.0000 0.0000 0.0000
# 2 -11.1133 53.9388 -17.5925 0.0000 0.0000 0.0000
# 3 -9.0333 -17.5925 48.6824 0.0000 0.0000 0.0000
# 4 0.0000 0.0000 0.0000 -5.8225 0.0000 0.0000
# 5 0.0000 0.0000 0.0000 0.0000 25.0815 0.0000
# 6 0.0000 0.0000 0.0000 0.0000 0.0000 8.3113
#
#
#
# Elastic Compliance Matrix: (Units=1/GPa)
#
#
# Indices 1 2 3 4 5 6 
#
# 1 0.041475 0.012533 0.012225 0.000000 0.000000 0.000000
# 2 0.012533 0.024804 0.011289 0.000000 0.000000 0.000000
# 3 0.012225 0.011289 0.026889 0.000000 0.000000 0.000000
# 4 0.000000 0.000000 0.000000 -0.171748 0.000000 0.000000
# 5 0.000000 0.000000 0.000000 0.000000 0.039870 0.000000
# 6 0.000000 0.000000 0.000000 0.000000 0.000000 0.120317
#
#
# Mechanical properties :
#
#
# Convention : Reuss Voigt Hill
#
# Bulk Modulus (GPa) = 6.05104 6.36383 6.20744
# Shear Modulus (GPa) = 77.39702 16.88018 47.13860
#
# Velocity S-wave (km/s) = 5.87657 2.74442 4.58617
# Velocity P-wave (km/s) = 6.98179 3.58914 5.55100
#
# Compressibility (1/GPa) = 0.16526072
#
# Stress axis : x y z
#
# Youngs Moduli (GPa) = 24.11080 40.31666 37.18966
#
# Poissons Ratio (x) = -0.50527 -0.45464
# Poissons Ratio (y) = -0.30217 -0.41983
# Poissons Ratio (z) = -0.29475 -0.45513
#
# Static dielectric constant tensor:
#      x y z
#    x 1.853210 0.000000 0.000000 
#    y 0.000000 1.845630 0.000000 
#    z 0.000000 0.000000 1.859380 
# 
# From -- ./inp_files/71577.got.cif
#   From: 2010.05.17/outbox.cif.g08.bks.cpg/sg63_36_cif.got.tgz:71577.got - 2010.06.03 15:47:04.
