data_PCOD9475840
_publ_section_title
;
Structure prediction by ZEFSAII (Michael W. Deem and Ramdas Pophale) SiO2 
 PCOD9475840
Probable space group: C M C M
;
_chemical_formula_sum "Si O2"
_cell_formula_units_Z 60
_cell_length_a 13.929598
_cell_length_b 11.754448
_cell_length_c 18.092697
_cell_angle_alpha 90.000000
_cell_angle_beta 90.000000
_cell_angle_gamma 90.000000
_cell_volume 2962.402955
_symmetry_space_group_name_H-M "C M C M"
_symmetry_group_IT_number 63
_symmetry_cell_setting 'orthorhombic'
loop_
_space_group_symop_operation_xyz
x,y,z
-x,-y,1/2+z
x,-y,-z
-x,y,1/2-z
-x,-y,-z
x,y,1/2-z
-x,y,z
x,-y,1/2+z
1/2+x,1/2+y,z
1/2-x,1/2-y,1/2+z
1/2+x,1/2-y,-z
1/2-x,1/2+y,1/2-z
1/2-x,1/2-y,-z
1/2+x,1/2+y,1/2-z
1/2-x,1/2+y,z
1/2+x,1/2-y,1/2+z
loop_
_atom_site_type_symbol
_atom_site_label
_atom_site_fract_x
_atom_site_fract_y
_atom_site_fract_z
Si Si1 0.163610 0.642471 0.250000
Si Si2 0.335410 0.000000 0.500000
Si Si3 0.698499 0.442115 0.631375
Si Si4 0.500000 0.606047 0.441272
Si Si5 0.112230 0.897314 0.250000
Si Si6 0.000000 0.640502 0.919660
Si Si7 0.500000 0.946094 0.250000
O O1 0.236879 0.636566 0.182376
O O2 0.110217 0.761694 0.250000
O O3 0.091863 0.533303 0.250000
O O4 0.262408 0.949490 0.558963
O O5 0.405910 0.921980 0.451332
O O6 0.594688 0.400845 0.607800
O O7 0.671620 0.554238 0.679646
O O8 0.500000 0.500000 0.500000
O O9 0.500000 0.738344 0.462628
O O10 0.000000 0.937365 0.250000
O O11 0.000000 0.625287 0.828601
#
# Coordination Sequence:
#
# PCOD9475840 Si02
#       7
#     8   8  16   8   8   8   4
#     4  11  25  41  75 102 140 183 242 292 353 425
#     4  11  24  49  68 104 138 187 240 287 366 418
#     4  11  25  44  68 101 141 180 237 284 357 428
#     4  12  27  46  67 106 141 185 233 290 354 429
#     4  11  24  44  69 104 141 187 229 302 349 426
#     4  11  28  45  75 101 144 185 238 310 350 432
#     4  12  22  48  70 112 132 182 246 300 350 426
#
# _framework density 20.253829
#
# number of rings (size 3 to 8) (size 9 to 14) (size 15 to 20)
#    0.000    0.800    6.000    0.000    3.733    5.333 
#    0.000    0.000    0.000    0.000    0.000    0.000 
#    0.000    0.000    0.000    0.000    0.000    0.000 
#
# Total GULP energy -167063.588137 kJ/mol
# GULP energy per Si atom -5568.786271 kJ/mol
# Density = 2.020773 g / cm^3
# Si number density = 20.253829 Si / 1000 Ang^3
#
#
#
# Elastic Constant Matrix: (Units=GPa)
#
#
# Indices 1 2 3 4 5 6 
#
# 1 147.3221 -0.5911 26.3154 0.0000 0.0000 0.0000
# 2 -0.5911 40.6935 -13.7362 0.0000 0.0000 0.0000
# 3 26.3154 -13.7362 101.2176 0.0000 0.0000 0.0000
# 4 0.0000 0.0000 0.0000 11.7898 0.0000 0.0000
# 5 0.0000 0.0000 0.0000 0.0000 71.5282 0.0000
# 6 0.0000 0.0000 0.0000 0.0000 0.0000 33.1516
#
#
#
# Elastic Compliance Matrix: (Units=1/GPa)
#
#
# Indices 1 2 3 4 5 6 
#
# 1 0.007130 -0.000547 -0.001928 0.000000 0.000000 0.000000
# 2 -0.000547 0.025796 0.003643 0.000000 0.000000 0.000000
# 3 -0.001928 0.003643 0.010875 0.000000 0.000000 0.000000
# 4 0.000000 0.000000 0.000000 0.084819 0.000000 0.000000
# 5 0.000000 0.000000 0.000000 0.000000 0.013981 0.000000
# 6 0.000000 0.000000 0.000000 0.000000 0.000000 0.030164
#
#
# Mechanical properties :
#
#
# Convention : Reuss Voigt Hill
#
# Bulk Modulus (GPa) = 21.67473 34.80104 28.23789
# Shear Modulus (GPa) = 26.90943 41.77692 34.34318
#
# Velocity S-wave (km/s) = 3.64896 4.54659 4.12228
# Velocity P-wave (km/s) = 5.33648 6.69191 6.05226
#
# Compressibility (1/GPa) = 0.04613667
#
# Stress axis : x y z
#
# Youngs Moduli (GPa) = 140.25166 38.76612 91.95107
#
# Poissons Ratio (x) = 0.02121 0.17728
# Poissons Ratio (y) = 0.07675 -0.33498
# Poissons Ratio (z) = 0.27040 -0.14122
#
# Static dielectric constant tensor:
#      x y z
#    x 1.704360 0.000000 0.000000 
#    y 0.000000 1.753240 0.000000 
#    z 0.000000 0.000000 1.670230 
# 
# From -- ./inp_files/43434.got.cif
#   From: 2010.05.17/outbox.cif.g08.bks.cpg/sg63_22_cif.got.tgz:43434.got - 2010.06.03 15:47:04.
