data_PCOD9475288
_publ_section_title
;
Structure prediction by ZEFSAII (Michael W. Deem and Ramdas Pophale) SiO2 
 PCOD9475288
Probable space group: C M C M
;
_chemical_formula_sum "Si O2"
_cell_formula_units_Z 68
_cell_length_a 16.287985
_cell_length_b 10.187822
_cell_length_c 18.421175
_cell_angle_alpha 90.000000
_cell_angle_beta 90.000000
_cell_angle_gamma 90.000000
_cell_volume 3056.793052
_symmetry_space_group_name_H-M "C M C M"
_symmetry_group_IT_number 63
_symmetry_cell_setting 'orthorhombic'
loop_
_space_group_symop_operation_xyz
x,y,z
-x,-y,1/2+z
x,-y,-z
-x,y,1/2-z
-x,-y,-z
x,y,1/2-z
-x,y,z
x,-y,1/2+z
1/2+x,1/2+y,z
1/2-x,1/2-y,1/2+z
1/2+x,1/2-y,-z
1/2-x,1/2+y,1/2-z
1/2-x,1/2-y,-z
1/2+x,1/2+y,1/2-z
1/2-x,1/2+y,z
1/2+x,1/2-y,1/2+z
loop_
_atom_site_type_symbol
_atom_site_label
_atom_site_fract_x
_atom_site_fract_y
_atom_site_fract_z
Si Si1 0.096821 0.216971 0.168408
Si Si2 0.902101 0.641250 0.977550
Si Si3 0.500000 0.250517 0.250000
Si Si4 0.734384 0.497769 0.833883
Si Si5 0.852573 0.260296 0.626593
O O1 0.109247 0.271284 0.250000
O O2 0.120371 0.311968 0.102700
O O3 0.150444 0.087155 0.161654
O O4 0.000000 0.186907 0.161951
O O5 0.000000 0.628880 0.975073
O O6 0.867309 0.500000 0.000000
O O7 0.881664 0.738534 0.043095
O O8 0.573317 0.248914 0.185315
O O9 0.753442 0.519964 0.750000
O O10 0.803887 0.397250 0.861297
O O11 0.709265 0.638614 0.864784
#
# Coordination Sequence:
#
# PCOD9475288 Si02
#       5
#    16  16   4  16  16
#     4   9  21  42  70 101 142 194 243 302 372 435
#     4  10  23  45  68 106 148 191 254 308 359 441
#     4  12  24  48  78 116 140 204 240 290 378 438
#     4  11  24  44  70 110 151 186 245 307 357 438
#     4  12  26  46  77 106 153 194 245 300 373 427
#
# _framework density 22.245536000000001
#
# number of rings (size 3 to 8) (size 9 to 14) (size 15 to 20)
#    0.000    1.412    3.529    0.000    4.941    1.882 
#    2.118    2.353    0.000    1.412    0.000    0.000 
#    0.000    0.000    0.000    0.000    0.000    0.000 
#
# Total GULP energy -189381.028816 kJ/mol
# GULP energy per Si atom -5570.030259 kJ/mol
# Density = 2.219490 g / cm^3
# Si number density = 22.245536 Si / 1000 Ang^3
#
#
#
# Elastic Constant Matrix: (Units=GPa)
#
#
# Indices 1 2 3 4 5 6 
#
# 1 147.5484 47.7580 40.9640 0.0000 0.0000 0.0000
# 2 47.7580 89.7435 39.0385 0.0000 0.0000 0.0000
# 3 40.9640 39.0385 166.3627 0.0000 0.0000 0.0000
# 4 0.0000 0.0000 0.0000 13.1317 0.0000 0.0000
# 5 0.0000 0.0000 0.0000 0.0000 35.6056 0.0000
# 6 0.0000 0.0000 0.0000 0.0000 0.0000 39.4717
#
#
#
# Elastic Compliance Matrix: (Units=1/GPa)
#
#
# Indices 1 2 3 4 5 6 
#
# 1 0.008375 -0.003964 -0.001132 0.000000 0.000000 0.000000
# 2 -0.003964 0.014286 -0.002376 0.000000 0.000000 0.000000
# 3 -0.001132 -0.002376 0.006847 0.000000 0.000000 0.000000
# 4 0.000000 0.000000 0.000000 0.076152 0.000000 0.000000
# 5 0.000000 0.000000 0.000000 0.000000 0.028085 0.000000
# 6 0.000000 0.000000 0.000000 0.000000 0.000000 0.025335
#
#
# Mechanical properties :
#
#
# Convention : Reuss Voigt Hill
#
# Bulk Modulus (GPa) = 68.66554 73.24171 70.95363
# Shear Modulus (GPa) = 27.95177 36.03473 31.99325
#
# Velocity S-wave (km/s) = 3.54858 4.02912 3.79646
# Velocity P-wave (km/s) = 6.90825 7.39194 7.15419
#
# Compressibility (1/GPa) = 0.01456334
#
# Stress axis : x y z
#
# Youngs Moduli (GPa) = 119.40477 69.99743 146.04351
#
# Poissons Ratio (x) = 0.27750 0.16530
# Poissons Ratio (y) = 0.47337 0.34703
# Poissons Ratio (z) = 0.13515 0.16633
#
# Static dielectric constant tensor:
#      x y z
#    x 1.839130 0.000000 0.000000 
#    y 0.000000 1.821520 0.000000 
#    z 0.000000 0.000000 1.859670 
# 
# From -- ./inp_files/55124.got.cif
#   From: 2010.05.17/outbox.cif.g08.bks.cpg/sg63_28_cif.got.tgz:55124.got - 2010.06.03 15:47:04.
