data_PCOD9475857
_publ_section_title
;
Structure prediction by ZEFSAII (Michael W. Deem and Ramdas Pophale) SiO2 
 PCOD9475857
Probable space group: C M C M
;
_chemical_formula_sum "Si O2"
_cell_formula_units_Z 64
_cell_length_a 21.553985
_cell_length_b 9.124932
_cell_length_c 13.358513
_cell_angle_alpha 90.000000
_cell_angle_beta 90.000000
_cell_angle_gamma 90.000000
_cell_volume 2627.334269
_symmetry_space_group_name_H-M "C M C M"
_symmetry_group_IT_number 63
_symmetry_cell_setting 'orthorhombic'
loop_
_space_group_symop_operation_xyz
x,y,z
-x,-y,1/2+z
x,-y,-z
-x,y,1/2-z
-x,-y,-z
x,y,1/2-z
-x,y,z
x,-y,1/2+z
1/2+x,1/2+y,z
1/2-x,1/2-y,1/2+z
1/2+x,1/2-y,-z
1/2-x,1/2+y,1/2-z
1/2-x,1/2-y,-z
1/2+x,1/2+y,1/2-z
1/2-x,1/2+y,z
1/2+x,1/2-y,1/2+z
loop_
_atom_site_type_symbol
_atom_site_label
_atom_site_fract_x
_atom_site_fract_y
_atom_site_fract_z
Si Si1 0.193085 0.937407 0.360150
Si Si2 0.199875 0.365186 0.922029
Si Si3 0.432836 0.158277 0.450281
Si Si4 0.570854 0.619069 0.135058
O O1 0.197770 0.870630 0.250000
O O2 0.210667 0.809902 0.437497
O O3 0.241948 0.070282 0.362299
O O4 0.124392 0.999092 0.376695
O O5 0.128405 0.349414 0.882258
O O6 0.191245 0.500000 0.000000
O O7 0.500000 0.196604 0.404155
O O8 0.421259 0.264976 0.545782
O O9 0.439154 0.000000 0.500000
O O10 0.577801 0.677976 0.250000
O O11 0.500000 0.563246 0.127372
#
# Coordination Sequence:
#
# PCOD9475857 Si02
#       4
#    16  16  16  16
#     4  11  25  43  66  95 128 170 220 271 328 390
#     4  11  25  42  65  94 131 170 214 268 327 388
#     4   9  20  39  63  95 131 169 215 265 322 385
#     4   9  20  40  66  95 129 173 222 271 324 383
#
# _framework density 24.359290999999999
#
# number of rings (size 3 to 8) (size 9 to 14) (size 15 to 20)
#    0.000    2.000    0.000    1.500   10.500    1.000 
#    0.000    7.500    0.000    3.750    0.000    0.000 
#    0.000    0.000    0.000    0.000    0.000    0.000 
#
# Total GULP energy -178323.196318 kJ/mol
# GULP energy per Si atom -5572.599885 kJ/mol
# Density = 2.430385 g / cm^3
# Si number density = 24.359291 Si / 1000 Ang^3
#
#
#
# Elastic Constant Matrix: (Units=GPa)
#
#
# Indices 1 2 3 4 5 6 
#
# 1 193.9980 83.7640 46.9728 0.0000 0.0000 0.0000
# 2 83.7640 131.4785 21.1824 0.0000 0.0000 0.0000
# 3 46.9728 21.1824 83.6487 0.0000 0.0000 0.0000
# 4 0.0000 0.0000 0.0000 24.9823 0.0000 0.0000
# 5 0.0000 0.0000 0.0000 0.0000 14.5604 0.0000
# 6 0.0000 0.0000 0.0000 0.0000 0.0000 29.7019
#
#
#
# Elastic Compliance Matrix: (Units=1/GPa)
#
#
# Indices 1 2 3 4 5 6 
#
# 1 0.007895 -0.004499 -0.003294 0.000000 0.000000 0.000000
# 2 -0.004499 0.010493 -0.000131 0.000000 0.000000 0.000000
# 3 -0.003294 -0.000131 0.013838 0.000000 0.000000 0.000000
# 4 0.000000 0.000000 0.000000 0.040028 0.000000 0.000000
# 5 0.000000 0.000000 0.000000 0.000000 0.068680 0.000000
# 6 0.000000 0.000000 0.000000 0.000000 0.000000 0.033668
#
#
# Mechanical properties :
#
#
# Convention : Reuss Voigt Hill
#
# Bulk Modulus (GPa) = 61.05766 79.21816 70.13791
# Shear Modulus (GPa) = 25.52211 30.99598 28.25905
#
# Velocity S-wave (km/s) = 3.24039 3.57101 3.40971
# Velocity P-wave (km/s) = 6.25460 7.04231 6.66011
#
# Compressibility (1/GPa) = 0.01637796
#
# Stress axis : x y z
#
# Youngs Moduli (GPa) = 126.66441 95.29987 72.26667
#
# Poissons Ratio (x) = 0.42876 0.23805
# Poissons Ratio (y) = 0.56987 0.00945
# Poissons Ratio (z) = 0.41724 0.01246
#
# Static dielectric constant tensor:
#      x y z
#    x 2.030190 0.000000 0.000000 
#    y 0.000000 1.897390 0.000000 
#    z 0.000000 0.000000 2.097530 
# 
# From -- ./inp_files/36207.got.cif
#   From: 2010.05.17/outbox.cif.g08.bks.cpg/sg63_19_cif.got.tgz:36207.got - 2010.06.03 15:47:04.
