data_PCOD9475867
_publ_section_title
;
Structure prediction by ZEFSAII (Michael W. Deem and Ramdas Pophale) SiO2 
 PCOD9475867
Probable space group: C M C M
;
_chemical_formula_sum "Si O2"
_cell_formula_units_Z 64
_cell_length_a 13.443083
_cell_length_b 8.242738
_cell_length_c 24.014659
_cell_angle_alpha 90.000000
_cell_angle_beta 90.000000
_cell_angle_gamma 90.000000
_cell_volume 2661.011798
_symmetry_space_group_name_H-M "C M C M"
_symmetry_group_IT_number 63
_symmetry_cell_setting 'orthorhombic'
loop_
_space_group_symop_operation_xyz
x,y,z
-x,-y,1/2+z
x,-y,-z
-x,y,1/2-z
-x,-y,-z
x,y,1/2-z
-x,y,z
x,-y,1/2+z
1/2+x,1/2+y,z
1/2-x,1/2-y,1/2+z
1/2+x,1/2-y,-z
1/2-x,1/2+y,1/2-z
1/2-x,1/2-y,-z
1/2+x,1/2+y,1/2-z
1/2-x,1/2+y,z
1/2+x,1/2-y,1/2+z
loop_
_atom_site_type_symbol
_atom_site_label
_atom_site_fract_x
_atom_site_fract_y
_atom_site_fract_z
Si Si1 0.618628 0.119838 0.146227
Si Si2 0.119402 0.115451 0.419405
Si Si3 0.379887 0.742453 0.533042
Si Si4 0.704992 0.781658 0.313198
O O1 0.500000 0.131907 0.151073
O O2 0.646062 0.127228 0.080264
O O3 0.676868 0.265706 0.176354
O O4 0.658752 0.956100 0.173680
O O5 0.155910 0.235151 0.469281
O O6 0.160879 0.163465 0.359986
O O7 0.000000 0.129176 0.416411
O O8 0.140872 0.933399 0.439722
O O9 0.500000 0.754218 0.528255
O O10 0.682526 0.735400 0.250000
#
# Coordination Sequence:
#
# PCOD9475867 Si02
#       4
#    16  16  16  16
#     4  11  25  46  70  98 136 176 221 283 339 391
#     4   9  18  37  67 102 138 173 221 282 334 398
#     4   8  17  37  66  99 133 173 220 275 344 402
#     4  12  26  42  65  97 132 180 232 269 327 408
#
# _framework density 24.051003000000001
#
# number of rings (size 3 to 8) (size 9 to 14) (size 15 to 20)
#    0.000    2.000    0.000    4.500    0.000    5.500 
#    0.000    6.250    0.000   15.000    0.000    0.000 
#    0.000    0.000    0.000    0.000    0.000    0.000 
#
# Total GULP energy -179054.716117 kJ/mol
# GULP energy per Si atom -5595.459879 kJ/mol
# Density = 2.399626 g / cm^3
# Si number density = 24.051003 Si / 1000 Ang^3
#
#
#
# Elastic Constant Matrix: (Units=GPa)
#
#
# Indices 1 2 3 4 5 6 
#
# 1 123.3380 37.5003 58.9086 0.0000 0.0000 0.0000
# 2 37.5003 43.1620 59.0474 0.0000 0.0000 0.0000
# 3 58.9086 59.0474 234.9634 0.0000 0.0000 0.0000
# 4 0.0000 0.0000 0.0000 36.8873 0.0000 0.0000
# 5 0.0000 0.0000 0.0000 0.0000 23.9398 0.0000
# 6 0.0000 0.0000 0.0000 0.0000 0.0000 27.9016
#
#
#
# Elastic Compliance Matrix: (Units=1/GPa)
#
#
# Indices 1 2 3 4 5 6 
#
# 1 0.011064 -0.008866 -0.000546 0.000000 0.000000 0.000000
# 2 -0.008866 0.042412 -0.008435 0.000000 0.000000 0.000000
# 3 -0.000546 -0.008435 0.006513 0.000000 0.000000 0.000000
# 4 0.000000 0.000000 0.000000 0.027110 0.000000 0.000000
# 5 0.000000 0.000000 0.000000 0.000000 0.041771 0.000000
# 6 0.000000 0.000000 0.000000 0.000000 0.000000 0.035840
#
#
# Mechanical properties :
#
#
# Convention : Reuss Voigt Hill
#
# Bulk Modulus (GPa) = 41.16285 79.15289 60.15787
# Shear Modulus (GPa) = 23.98054 34.14621 29.06338
#
# Velocity S-wave (km/s) = 3.16107 3.77203 3.47998
# Velocity P-wave (km/s) = 5.52043 7.20783 6.41981
#
# Compressibility (1/GPa) = 0.02429375
#
# Stress axis : x y z
#
# Youngs Moduli (GPa) = 90.38146 23.57849 153.54673
#
# Poissons Ratio (x) = 0.20905 0.08381
# Poissons Ratio (y) = 0.80134 1.29522
# Poissons Ratio (z) = 0.04933 0.19889
#
# Static dielectric constant tensor:
#      x y z
#    x 1.983190 0.000000 0.000000 
#    y 0.000000 1.924630 0.000000 
#    z 0.000000 0.000000 1.902390 
# 
# From -- ./inp_files/62353.got.cif
#   From: 2010.05.17/outbox.cif.g08.bks.cpg/sg63_32_cif.got.tgz:62353.got - 2010.06.03 15:47:04.
