data_PCOD9475688
_publ_section_title
;
Structure prediction by ZEFSAII (Michael W. Deem and Ramdas Pophale) SiO2 
 PCOD9475688
Probable space group: C M C M
;
_chemical_formula_sum "Si O2"
_cell_formula_units_Z 80
_cell_length_a 28.647723
_cell_length_b 9.081788
_cell_length_c 15.115640
_cell_angle_alpha 90.000000
_cell_angle_beta 90.000000
_cell_angle_gamma 90.000000
_cell_volume 3932.674558
_symmetry_space_group_name_H-M "C M C M"
_symmetry_group_IT_number 63
_symmetry_cell_setting 'orthorhombic'
loop_
_space_group_symop_operation_xyz
x,y,z
-x,-y,1/2+z
x,-y,-z
-x,y,1/2-z
-x,-y,-z
x,y,1/2-z
-x,y,z
x,-y,1/2+z
1/2+x,1/2+y,z
1/2-x,1/2-y,1/2+z
1/2+x,1/2-y,-z
1/2-x,1/2+y,1/2-z
1/2-x,1/2-y,-z
1/2+x,1/2+y,1/2-z
1/2-x,1/2+y,z
1/2+x,1/2-y,1/2+z
loop_
_atom_site_type_symbol
_atom_site_label
_atom_site_fract_x
_atom_site_fract_y
_atom_site_fract_z
Si Si1 0.780526 0.984002 0.894131
Si Si2 0.311417 0.846931 0.349760
Si Si3 0.602439 0.844683 0.021628
Si Si4 0.052210 0.928329 0.902096
Si Si5 0.627297 0.660400 0.653360
O O1 0.791258 0.816664 0.867686
O O2 0.730841 0.038932 0.859958
O O3 0.821955 0.087575 0.858507
O O4 0.781098 0.000000 0.000000
O O5 0.330091 0.852434 0.250000
O O6 0.351003 0.874951 0.421975
O O7 0.616293 0.764214 0.929924
O O8 0.571355 0.734548 0.079875
O O9 0.579091 0.000000 0.000000
O O10 0.000000 0.931027 0.864584
O O11 0.089931 0.026873 0.851501
O O12 0.050164 0.000000 0.000000
O O13 0.624261 0.732716 0.750000
#
# Coordination Sequence:
#
# PCOD9475688 Si02
#       5
#    16  16  16  16  16
#     4  12  23  42  61  86 125 166 215 267 316 376
#     4  12  25  40  60  89 125 170 216 263 319 378
#     4  11  24  41  60  93 134 170 210 262 316 383
#     4   9  19  40  68  93 120 160 209 261 318 375
#     4  11  22  41  65  92 126 166 215 267 317 374
#
# _framework density 20.342390000000002
#
# number of rings (size 3 to 8) (size 9 to 14) (size 15 to 20)
#    0.000    1.000    4.000    3.600    2.800    1.600 
#    0.000    0.000    0.000    0.000    0.000    2.800 
#    0.000    0.000    0.000    0.000    0.000    0.000 
#
# Total GULP energy -223717.923618 kJ/mol
# GULP energy per Si atom -5592.948090 kJ/mol
# Density = 2.029609 g / cm^3
# Si number density = 20.342390 Si / 1000 Ang^3
#
#
#
# Elastic Constant Matrix: (Units=GPa)
#
#
# Indices 1 2 3 4 5 6 
#
# 1 85.0130 6.6233 13.9980 0.0000 0.0000 0.0000
# 2 6.6233 68.8442 5.3855 0.0000 0.0000 0.0000
# 3 13.9980 5.3855 137.4410 0.0000 0.0000 0.0000
# 4 0.0000 0.0000 0.0000 3.9225 0.0000 0.0000
# 5 0.0000 0.0000 0.0000 0.0000 -33.1499 0.0000
# 6 0.0000 0.0000 0.0000 0.0000 0.0000 19.7291
#
#
#
# Elastic Compliance Matrix: (Units=1/GPa)
#
#
# Indices 1 2 3 4 5 6 
#
# 1 0.012041 -0.001066 -0.001185 0.000000 0.000000 0.000000
# 2 -0.001066 0.014665 -0.000466 0.000000 0.000000 0.000000
# 3 -0.001185 -0.000466 0.007415 0.000000 0.000000 0.000000
# 4 0.000000 0.000000 0.000000 0.254941 0.000000 0.000000
# 5 0.000000 0.000000 0.000000 0.000000 -0.030166 0.000000
# 6 0.000000 0.000000 0.000000 0.000000 0.000000 0.050686
#
#
# Mechanical properties :
#
#
# Convention : Reuss Voigt Hill
#
# Bulk Modulus (GPa) = 34.85843 38.14575 36.50209
# Shear Modulus (GPa) = 15.40465 15.78643 15.59554
#
# Velocity S-wave (km/s) = 2.75484 2.78876 2.77185
# Velocity P-wave (km/s) = 5.22416 5.40020 5.31291
#
# Compressibility (1/GPa) = 0.02868747
#
# Stress axis : x y z
#
# Youngs Moduli (GPa) = 83.04962 68.19167 134.86621
#
# Poissons Ratio (x) = 0.07268 0.15976
# Poissons Ratio (y) = 0.08851 0.06286
# Poissons Ratio (z) = 0.09838 0.03178
#
# Static dielectric constant tensor:
#      x y z
#    x 1.697630 0.000000 0.000000 
#    y 0.000000 1.714880 0.000000 
#    z 0.000000 0.000000 1.756540 
# 
# From -- ./inp_files/49414.got.cif
#   From: 2010.05.17/outbox.cif.g08.bks.cpg/sg63_25_cif.got.tgz:49414.got - 2010.06.03 15:47:04.
