data_PCOD9475023
_publ_section_title
;
Structure prediction by ZEFSAII (Michael W. Deem and Ramdas Pophale) SiO2 
 PCOD9475023
Probable space group: C M C M
;
_chemical_formula_sum "Si O2"
_cell_formula_units_Z 64
_cell_length_a 17.452760
_cell_length_b 8.956622
_cell_length_c 18.610899
_cell_angle_alpha 90.000000
_cell_angle_beta 90.000000
_cell_angle_gamma 90.000000
_cell_volume 2909.214307
_symmetry_space_group_name_H-M "C M C M"
_symmetry_group_IT_number 63
_symmetry_cell_setting 'orthorhombic'
loop_
_space_group_symop_operation_xyz
x,y,z
-x,-y,1/2+z
x,-y,-z
-x,y,1/2-z
-x,-y,-z
x,y,1/2-z
-x,y,z
x,-y,1/2+z
1/2+x,1/2+y,z
1/2-x,1/2-y,1/2+z
1/2+x,1/2-y,-z
1/2-x,1/2+y,1/2-z
1/2-x,1/2-y,-z
1/2+x,1/2+y,1/2-z
1/2-x,1/2+y,z
1/2+x,1/2-y,1/2+z
loop_
_atom_site_type_symbol
_atom_site_label
_atom_site_fract_x
_atom_site_fract_y
_atom_site_fract_z
Si Si1 0.088425 0.869153 0.559269
Si Si2 0.200270 0.402190 0.067893
Si Si3 0.654065 0.406175 0.166478
Si Si4 0.586693 0.087168 0.333288
O O1 0.149593 0.260673 0.456002
O O2 0.000000 0.815944 0.562303
O O3 0.091542 0.000000 0.500000
O O4 0.227711 0.133925 0.618158
O O5 0.385665 0.551933 0.133272
O O6 0.225285 0.500000 0.000000
O O7 0.674887 0.427164 0.250000
O O8 0.597923 0.264871 0.160934
O O9 0.855367 0.503889 0.115600
O O10 0.601324 0.047492 0.250000
O O11 0.500000 0.047243 0.351648
#
# Coordination Sequence:
#
# PCOD9475023 Si02
#       4
#    16  16  16  16
#     4  11  25  44  66  94 128 166 211 262 314 371
#     4  12  25  41  64  94 128 167 211 259 312 371
#     4  11  24  43  66  93 127 166 208 257 314 374
#     4  10  22  41  64  91 125 164 206 256 316 378
#
# _framework density 21.999065999999999
#
# number of rings (size 3 to 8) (size 9 to 14) (size 15 to 20)
#    0.000    1.000    0.000    6.000    0.000   12.500 
#    0.000    0.000    0.000    0.000    0.000    0.000 
#    0.000    0.000    0.000    0.000    0.000    0.000 
#
# Total GULP energy -179269.485530 kJ/mol
# GULP energy per Si atom -5602.171423 kJ/mol
# Density = 2.194900 g / cm^3
# Si number density = 21.999066 Si / 1000 Ang^3
#
#
#
# Elastic Constant Matrix: (Units=GPa)
#
#
# Indices 1 2 3 4 5 6 
#
# 1 91.0654 18.1283 66.9642 0.0000 0.0000 0.0000
# 2 18.1283 68.1486 19.5217 0.0000 0.0000 0.0000
# 3 66.9642 19.5217 79.5651 0.0000 0.0000 0.0000
# 4 0.0000 0.0000 0.0000 37.7617 0.0000 0.0000
# 5 0.0000 0.0000 0.0000 0.0000 33.1589 0.0000
# 6 0.0000 0.0000 0.0000 0.0000 0.0000 -239.0486
#
#
#
# Elastic Compliance Matrix: (Units=1/GPa)
#
#
# Indices 1 2 3 4 5 6 
#
# 1 0.028851 -0.000773 -0.024092 0.000000 0.000000 0.000000
# 2 -0.000773 0.015804 -0.003227 0.000000 0.000000 0.000000
# 3 -0.024092 -0.003227 0.033637 0.000000 0.000000 0.000000
# 4 0.000000 0.000000 0.000000 0.026482 0.000000 0.000000
# 5 0.000000 0.000000 0.000000 0.000000 0.030158 0.000000
# 6 0.000000 0.000000 0.000000 0.000000 0.000000 -0.004183
#
#
# Mechanical properties :
#
#
# Convention : Reuss Voigt Hill
#
# Bulk Modulus (GPa) = 45.23409 49.77861 47.50635
# Shear Modulus (GPa) = 25.73326 -24.68128 0.52599
#
# Velocity S-wave (km/s) = 3.42386 -3.35315 0.48951
# Velocity P-wave (km/s) = 6.01971 2.77223 4.68627
#
# Compressibility (1/GPa) = 0.02210722
#
# Stress axis : x y z
#
# Youngs Moduli (GPa) = 34.66086 63.27574 29.72952
#
# Poissons Ratio (x) = 0.04893 0.71625
# Poissons Ratio (y) = 0.02680 0.09593
# Poissons Ratio (z) = 0.83505 0.20417
#
# Static dielectric constant tensor:
#      x y z
#    x 1.772380 0.000000 0.000000 
#    y 0.000000 1.794390 0.000000 
#    z 0.000000 0.000000 1.793880 
# 
# From -- ./inp_files/62345.got.cif
#   From: 2010.05.17/outbox.cif.g08.bks.cpg/sg63_32_cif.got.tgz:62345.got - 2010.06.03 15:47:04.
