data_PCOD9475929
_publ_section_title
;
Structure prediction by ZEFSAII (Michael W. Deem and Ramdas Pophale) SiO2 
 PCOD9475929
Probable space group: C M C M
;
_chemical_formula_sum "Si O2"
_cell_formula_units_Z 48
_cell_length_a 9.927357
_cell_length_b 24.152669
_cell_length_c 9.861376
_cell_angle_alpha 90.000000
_cell_angle_beta 90.000000
_cell_angle_gamma 90.000000
_cell_volume 2364.483500
_symmetry_space_group_name_H-M "C M C M"
_symmetry_group_IT_number 63
_symmetry_cell_setting 'orthorhombic'
loop_
_space_group_symop_operation_xyz
x,y,z
-x,-y,1/2+z
x,-y,-z
-x,y,1/2-z
-x,-y,-z
x,y,1/2-z
-x,y,z
x,-y,1/2+z
1/2+x,1/2+y,z
1/2-x,1/2-y,1/2+z
1/2+x,1/2-y,-z
1/2-x,1/2+y,1/2-z
1/2-x,1/2-y,-z
1/2+x,1/2+y,1/2-z
1/2-x,1/2+y,z
1/2+x,1/2-y,1/2+z
loop_
_atom_site_type_symbol
_atom_site_label
_atom_site_fract_x
_atom_site_fract_y
_atom_site_fract_z
Si Si1 0.238364 0.375061 0.029899
Si Si2 0.155613 0.464211 0.250000
Si Si3 0.000000 0.707570 0.914291
Si Si4 0.336366 0.572759 0.250000
Si Si5 0.000000 0.810498 0.104774
O O1 0.180351 0.425339 0.119410
O O2 0.128412 0.326636 0.033654
O O3 0.370778 0.349376 0.096531
O O4 0.282419 0.395860 0.882714
O O5 0.264619 0.512935 0.250000
O O6 0.000000 0.484040 0.250000
O O7 0.000000 0.708936 0.750000
O O8 0.000000 0.767882 0.980626
O O9 0.500000 0.569542 0.250000
O O10 0.000000 0.780092 0.250000
#
# Coordination Sequence:
#
# PCOD9475929 Si02
#       5
#    16   8   8   8   8
#     4  12  25  48  71 104 150 183 232 299 355 417
#     4  12  26  50  75 104 144 188 239 292 359 420
#     4  12  26  48  75 105 144 188 239 295 353 420
#     4  12  30  44  73 110 142 188 239 294 347 432
#     4  12  26  44  75 107 140 194 235 289 359 420
#
# _framework density 20.300416999999999
#
# number of rings (size 3 to 8) (size 9 to 14) (size 15 to 20)
#    0.000    0.000    6.667    2.000    9.333    2.667 
#    0.000    0.000    0.000    0.000    0.000    0.000 
#    0.000    0.000    0.000    0.000    0.000    0.000 
#
# Total GULP energy -134310.775574 kJ/mol
# GULP energy per Si atom -5596.282316 kJ/mol
# Density = 2.025421 g / cm^3
# Si number density = 20.300417 Si / 1000 Ang^3
#
#
#
# Elastic Constant Matrix: (Units=GPa)
#
#
# Indices 1 2 3 4 5 6 
#
# 1 135.1300 9.5289 32.9669 0.0000 0.0000 0.0000
# 2 9.5289 57.1803 38.6614 0.0000 0.0000 0.0000
# 3 32.9669 38.6614 150.8225 0.0000 0.0000 0.0000
# 4 0.0000 0.0000 0.0000 18.1829 0.0000 0.0000
# 5 0.0000 0.0000 0.0000 0.0000 10.5495 0.0000
# 6 0.0000 0.0000 0.0000 0.0000 0.0000 38.7887
#
#
#
# Elastic Compliance Matrix: (Units=1/GPa)
#
#
# Indices 1 2 3 4 5 6 
#
# 1 0.007819 -0.000178 -0.001663 0.000000 0.000000 0.000000
# 2 -0.000178 0.021159 -0.005385 0.000000 0.000000 0.000000
# 3 -0.001663 -0.005385 0.008374 0.000000 0.000000 0.000000
# 4 0.000000 0.000000 0.000000 0.054997 0.000000 0.000000
# 5 0.000000 0.000000 0.000000 0.000000 0.094791 0.000000
# 6 0.000000 0.000000 0.000000 0.000000 0.000000 0.025781
#
#
# Mechanical properties :
#
#
# Convention : Reuss Voigt Hill
#
# Bulk Modulus (GPa) = 43.67011 56.16082 49.91547
# Shear Modulus (GPa) = 21.27603 30.96927 26.12265
#
# Velocity S-wave (km/s) = 3.24089 3.91006 3.59110
# Velocity P-wave (km/s) = 5.96348 6.93612 6.46811
#
# Compressibility (1/GPa) = 0.02289896
#
# Stress axis : x y z
#
# Youngs Moduli (GPa) = 127.89951 47.26083 119.41411
#
# Poissons Ratio (x) = 0.00843 0.19862
# Poissons Ratio (y) = 0.02281 0.64303
# Poissons Ratio (z) = 0.21273 0.25449
#
# Static dielectric constant tensor:
#      x y z
#    x 1.651390 0.000000 0.000000 
#    y 0.000000 1.681200 0.000000 
#    z 0.000000 0.000000 1.735710 
# 
# From -- ./inp_files/2020.got.cif
#   From: 2010.05.17/outbox.cif.g08.bks.cpg/sg63_2_cif.got.tgz:2020.got - 2010.06.03 15:47:04.
