data_PCOD9475622
_publ_section_title
;
Structure prediction by ZEFSAII (Michael W. Deem and Ramdas Pophale) SiO2 
 PCOD9475622
Probable space group: C M C M
;
_chemical_formula_sum "Si O2"
_cell_formula_units_Z 84
_cell_length_a 7.288995
_cell_length_b 25.159179
_cell_length_c 20.808596
_cell_angle_alpha 90.000000
_cell_angle_beta 90.000000
_cell_angle_gamma 90.000000
_cell_volume 3815.987081
_symmetry_space_group_name_H-M "C M C M"
_symmetry_group_IT_number 63
_symmetry_cell_setting 'orthorhombic'
loop_
_space_group_symop_operation_xyz
x,y,z
-x,-y,1/2+z
x,-y,-z
-x,y,1/2-z
-x,-y,-z
x,y,1/2-z
-x,y,z
x,-y,1/2+z
1/2+x,1/2+y,z
1/2-x,1/2-y,1/2+z
1/2+x,1/2-y,-z
1/2-x,1/2+y,1/2-z
1/2-x,1/2-y,-z
1/2+x,1/2+y,1/2-z
1/2-x,1/2+y,z
1/2+x,1/2-y,1/2+z
loop_
_atom_site_type_symbol
_atom_site_label
_atom_site_fract_x
_atom_site_fract_y
_atom_site_fract_z
Si Si1 0.709756 0.319291 0.647993
Si Si2 0.278012 0.334423 0.997233
Si Si3 0.278289 0.702927 0.866783
Si Si4 0.776780 0.914244 0.179162
Si Si5 0.723112 0.451620 0.043726
Si Si6 0.500000 0.856500 0.750000
O O1 0.500000 0.338522 0.649644
O O2 0.779428 0.320321 0.574279
O O3 0.713631 0.256755 0.665977
O O4 0.840340 0.351518 0.694165
O O5 0.500000 0.331531 0.998034
O O6 0.216278 0.300024 0.058506
O O7 0.226467 0.395024 0.013276
O O8 0.500000 0.704216 0.865178
O O9 0.223670 0.647099 0.834680
O O10 0.716081 0.930868 0.250000
O O11 0.718036 0.949293 0.118221
O O12 0.000000 0.914692 0.178956
O O13 0.500000 0.453502 0.044265
O O14 0.787253 0.500000 0.000000
#
# Coordination Sequence:
#
# PCOD9475622 Si02
#       6
#    16  16  16  16  16   4
#     4  11  22  36  54  76 110 146 189 227 265 323
#     4   8  16  30  49  76 106 142 181 229 272 317
#     4   9  16  29  50  75 107 142 176 221 277 328
#     4   8  14  22  39  67 101 136 175 222 276 331
#     4   8  13  24  44  70 103 142 181 227 280 325
#     4  12  26  40  52  74 106 156 190 224 276 318
#
# _framework density 22.012651999999999
#
# number of rings (size 3 to 8) (size 9 to 14) (size 15 to 20)
#    0.000    3.048    0.952    3.143    1.333    0.000 
#    1.714    0.000    2.095    0.000    0.000    0.667 
#    0.000    0.000    0.000    1.524    0.000    1.714 
#
# Total GULP energy -233992.524979 kJ/mol
# GULP energy per Si atom -5571.250595 kJ/mol
# Density = 2.196255 g / cm^3
# Si number density = 22.012652 Si / 1000 Ang^3
#
#
#
# Elastic Constant Matrix: (Units=GPa)
#
#
# Indices 1 2 3 4 5 6 
#
# 1 111.9841 -7.9694 12.2224 0.0000 0.0000 0.0000
# 2 -7.9694 36.2600 33.4203 0.0000 0.0000 0.0000
# 3 12.2224 33.4203 149.0588 0.0000 0.0000 0.0000
# 4 0.0000 0.0000 0.0000 6.7038 0.0000 0.0000
# 5 0.0000 0.0000 0.0000 0.0000 -3.5384 0.0000
# 6 0.0000 0.0000 0.0000 0.0000 0.0000 -9.8410
#
#
#
# Elastic Compliance Matrix: (Units=1/GPa)
#
#
# Indices 1 2 3 4 5 6 
#
# 1 0.009346 0.003480 -0.001547 0.000000 0.000000 0.000000
# 2 0.003480 0.036058 -0.008370 0.000000 0.000000 0.000000
# 3 -0.001547 -0.008370 0.008712 0.000000 0.000000 0.000000
# 4 0.000000 0.000000 0.000000 0.149169 0.000000 0.000000
# 5 0.000000 0.000000 0.000000 0.000000 -0.282614 0.000000
# 6 0.000000 0.000000 0.000000 0.000000 0.000000 -0.101616
#
#
# Mechanical properties :
#
#
# Convention : Reuss Voigt Hill
#
# Bulk Modulus (GPa) = 24.24677 41.40552 32.82614
# Shear Modulus (GPa) = -32.39944 15.97352 -8.21296
#
# Velocity S-wave (km/s) = -3.84064 2.69671 -1.93368
# Velocity P-wave (km/s) = 2.93743 5.34295 3.15583
#
# Compressibility (1/GPa) = 0.04124260
#
# Stress axis : x y z
#
# Youngs Moduli (GPa) = 106.99476 27.73338 114.78228
#
# Poissons Ratio (x) = -0.09650 0.17751
# Poissons Ratio (y) = -0.37229 0.96070
# Poissons Ratio (z) = 0.16547 0.23212
#
# Static dielectric constant tensor:
#      x y z
#    x 1.979160 0.000000 0.000000 
#    y 0.000000 1.777360 0.000000 
#    z 0.000000 0.000000 1.827420 
# 
# From -- ./inp_files/51200.got.cif
#   From: 2010.05.17/outbox.cif.g08.bks.cpg/sg63_26_cif.got.tgz:51200.got - 2010.06.03 15:47:04.
