data_PCOD9475191
_publ_section_title
;
Structure prediction by ZEFSAII (Michael W. Deem and Ramdas Pophale) SiO2 
 PCOD9475191
Probable space group: C M C M
;
_chemical_formula_sum "Si O2"
_cell_formula_units_Z 72
_cell_length_a 15.657187
_cell_length_b 27.104817
_cell_length_c 8.570867
_cell_angle_alpha 90.000000
_cell_angle_beta 90.000000
_cell_angle_gamma 90.000000
_cell_volume 3637.349006
_symmetry_space_group_name_H-M "C M C M"
_symmetry_group_IT_number 63
_symmetry_cell_setting 'orthorhombic'
loop_
_space_group_symop_operation_xyz
x,y,z
-x,-y,1/2+z
x,-y,-z
-x,y,1/2-z
-x,-y,-z
x,y,1/2-z
-x,y,z
x,-y,1/2+z
1/2+x,1/2+y,z
1/2-x,1/2-y,1/2+z
1/2+x,1/2-y,-z
1/2-x,1/2+y,1/2-z
1/2-x,1/2-y,-z
1/2+x,1/2+y,1/2-z
1/2-x,1/2+y,z
1/2+x,1/2-y,1/2+z
loop_
_atom_site_type_symbol
_atom_site_label
_atom_site_fract_x
_atom_site_fract_y
_atom_site_fract_z
Si Si1 0.660593 0.270449 0.563651
Si Si2 0.000000 0.290552 0.937801
Si Si3 0.500000 0.444814 0.062256
Si Si4 0.500000 0.905131 0.939602
Si Si5 0.817015 0.554177 0.437720
Si Si6 0.336067 0.380832 0.437781
O O1 0.660585 0.269143 0.750000
O O2 0.750000 0.250000 0.500000
O O3 0.583463 0.237297 0.499658
O O4 0.651266 0.326428 0.505192
O O5 0.000000 0.347843 0.987475
O O6 0.000000 0.289031 0.750000
O O7 0.500000 0.446473 0.250000
O O8 0.584549 0.415238 0.013474
O O9 0.500000 0.500000 0.000000
O O10 0.500000 0.905752 0.750000
O O11 0.586991 0.931726 0.990173
O O12 0.794336 0.500000 0.500000
O O13 0.814237 0.554207 0.250000
O O14 0.750451 0.594236 0.501003
O O15 0.333941 0.378190 0.250000
#
# Coordination Sequence:
#
# PCOD9475191 Si02
#       6
#    16   8   8   8  16  16
#     4  12  25  42  64  93 126 165 209 258 313 374
#     4  11  22  41  66  93 125 164 209 261 312 368
#     4  10  23  40  61  87 120 158 199 246 301 360
#     4   9  21  39  61  86 118 158 201 247 301 358
#     4  11  22  39  61  89 122 160 203 251 305 366
#     4  11  23  41  63  90 121 159 204 255 310 368
#
# _framework density 19.794637000000002
#
# number of rings (size 3 to 8) (size 9 to 14) (size 15 to 20)
#    0.000    1.111    0.000    6.667    0.000    6.222 
#    0.000    5.000    0.000    0.000    0.000    0.000 
#    0.000    0.000    0.000    0.000    0.000    0.000 
#
# Total GULP energy -201488.558802 kJ/mol
# GULP energy per Si atom -5596.904411 kJ/mol
# Density = 1.974958 g / cm^3
# Si number density = 19.794637 Si / 1000 Ang^3
#
#
#
# Elastic Constant Matrix: (Units=GPa)
#
#
# Indices 1 2 3 4 5 6 
#
# 1 79.6286 -11.2125 14.9626 0.0000 0.0000 0.0000
# 2 -11.2125 86.2657 16.0984 0.0000 0.0000 0.0000
# 3 14.9626 16.0984 86.3256 0.0000 0.0000 0.0000
# 4 0.0000 0.0000 0.0000 32.3547 0.0000 0.0000
# 5 0.0000 0.0000 0.0000 0.0000 34.6199 0.0000
# 6 0.0000 0.0000 0.0000 0.0000 0.0000 46.4195
#
#
#
# Elastic Compliance Matrix: (Units=1/GPa)
#
#
# Indices 1 2 3 4 5 6 
#
# 1 0.013390 0.002252 -0.002741 0.000000 0.000000 0.000000
# 2 0.002252 0.012389 -0.002701 0.000000 0.000000 0.000000
# 3 -0.002741 -0.002701 0.012563 0.000000 0.000000 0.000000
# 4 0.000000 0.000000 0.000000 0.030907 0.000000 0.000000
# 5 0.000000 0.000000 0.000000 0.000000 0.028885 0.000000
# 6 0.000000 0.000000 0.000000 0.000000 0.000000 0.021543
#
#
# Mechanical properties :
#
#
# Convention : Reuss Voigt Hill
#
# Bulk Modulus (GPa) = 31.28638 32.43518 31.86078
# Shear Modulus (GPa) = 36.57364 38.17027 37.37196
#
# Velocity S-wave (km/s) = 4.30310 4.39602 4.34981
# Velocity P-wave (km/s) = 6.36621 6.49524 6.43105
#
# Compressibility (1/GPa) = 0.03196279
#
# Stress axis : x y z
#
# Youngs Moduli (GPa) = 74.68025 80.71826 79.60051
#
# Poissons Ratio (x) = -0.18177 0.21817
# Poissons Ratio (y) = -0.16817 0.21497
# Poissons Ratio (z) = 0.20469 0.21799
#
# Static dielectric constant tensor:
#      x y z
#    x 1.668020 0.000000 0.000000 
#    y 0.000000 1.660710 0.000000 
#    z 0.000000 0.000000 1.669260 
# 
# From -- ./inp_files/4744.got.cif
#   From: 2010.05.17/outbox.cif.g08.bks.cpg/sg63_3_cif.got.tgz:4744.got - 2010.06.03 15:47:04.
