data_PCOD9475243
_publ_section_title
;
Structure prediction by ZEFSAII (Michael W. Deem and Ramdas Pophale) SiO2 
 PCOD9475243
Probable space group: C M C M
;
_chemical_formula_sum "Si O2"
_cell_formula_units_Z 96
_cell_length_a 7.759344
_cell_length_b 26.246427
_cell_length_c 19.203208
_cell_angle_alpha 90.000000
_cell_angle_beta 90.000000
_cell_angle_gamma 90.000000
_cell_volume 3910.830398
_symmetry_space_group_name_H-M "C M C M"
_symmetry_group_IT_number 63
_symmetry_cell_setting 'orthorhombic'
loop_
_space_group_symop_operation_xyz
x,y,z
-x,-y,1/2+z
x,-y,-z
-x,y,1/2-z
-x,-y,-z
x,y,1/2-z
-x,y,z
x,-y,1/2+z
1/2+x,1/2+y,z
1/2-x,1/2-y,1/2+z
1/2+x,1/2-y,-z
1/2-x,1/2+y,1/2-z
1/2-x,1/2-y,-z
1/2+x,1/2+y,1/2-z
1/2-x,1/2+y,z
1/2+x,1/2-y,1/2+z
loop_
_atom_site_type_symbol
_atom_site_label
_atom_site_fract_x
_atom_site_fract_y
_atom_site_fract_z
Si Si1 0.696150 0.157063 0.833310
Si Si2 0.799629 0.059888 0.172611
Si Si3 0.793601 0.304675 0.532093
Si Si4 0.798696 0.451409 0.123098
Si Si5 0.798088 0.730196 0.326722
Si Si6 0.201396 0.085125 0.020529
O O1 0.686013 0.155983 0.750000
O O2 0.500000 0.159811 0.861899
O O3 0.775096 0.103251 0.854118
O O4 0.784956 0.210575 0.848994
O O5 0.726217 0.072185 0.250000
O O6 0.723524 0.080266 0.099093
O O7 0.000000 0.075536 0.174360
O O8 0.788989 0.999095 0.159628
O O9 0.750000 0.250000 0.500000
O O10 0.722517 0.302523 0.611161
O O11 0.721921 0.355796 0.498380
O O12 0.000000 0.309077 0.532550
O O13 0.000000 0.453002 0.143105
O O14 0.783447 0.449460 0.039457
O O15 0.720286 0.723942 0.250000
O O16 0.000000 0.717961 0.322034
O O17 0.000000 0.071580 0.023673
#
# Coordination Sequence:
#
# PCOD9475243 Si02
#       6
#    16  16  16  16  16  16
#     4   9  18  32  51  79 114 149 187 234 287 342
#     4  10  23  43  64  87 118 157 199 242 292 351
#     4  11  23  39  60  86 117 154 196 243 295 352
#     4  11  22  37  60  89 120 154 195 244 298 355
#     4   9  19  35  54  78 109 146 189 236 287 344
#     4  11  24  41  61  86 118 155 196 244 296 352
#
# _framework density 24.547215999999999
#
# number of rings (size 3 to 8) (size 9 to 14) (size 15 to 20)
#    0.000    1.833    0.000    3.500    0.000   10.333 
#    0.000    1.667    0.000    0.000    0.000    0.000 
#    0.000    0.000    0.000    0.000    0.000    0.000 
#
# Total GULP energy -268234.514238 kJ/mol
# GULP energy per Si atom -5588.219047 kJ/mol
# Density = 2.449135 g / cm^3
# Si number density = 24.547216 Si / 1000 Ang^3
#
#
#
# Elastic Constant Matrix: (Units=GPa)
#
#
# Indices 1 2 3 4 5 6 
#
# 1 49.8609 -19.1815 -8.0218 0.0000 0.0000 0.0000
# 2 -19.1815 46.7837 0.5087 0.0000 0.0000 0.0000
# 3 -8.0218 0.5087 92.4496 0.0000 0.0000 0.0000
# 4 0.0000 0.0000 0.0000 41.8398 0.0000 0.0000
# 5 0.0000 0.0000 0.0000 0.0000 17.3259 0.0000
# 6 0.0000 0.0000 0.0000 0.0000 0.0000 6.1856
#
#
#
# Elastic Compliance Matrix: (Units=1/GPa)
#
#
# Indices 1 2 3 4 5 6 
#
# 1 0.024192 0.009897 0.002045 0.000000 0.000000 0.000000
# 2 0.009897 0.025425 0.000719 0.000000 0.000000 0.000000
# 3 0.002045 0.000719 0.010990 0.000000 0.000000 0.000000
# 4 0.000000 0.000000 0.000000 0.023901 0.000000 0.000000
# 5 0.000000 0.000000 0.000000 0.000000 0.057717 0.000000
# 6 0.000000 0.000000 0.000000 0.000000 0.000000 0.161666
#
#
# Mechanical properties :
#
#
# Convention : Reuss Voigt Hill
#
# Bulk Modulus (GPa) = 11.63779 15.07834 13.35807
# Shear Modulus (GPa) = 16.27539 27.45620 21.86579
#
# Velocity S-wave (km/s) = 2.57772 3.34803 2.98781
# Velocity P-wave (km/s) = 3.68928 4.59366 4.16608
#
# Compressibility (1/GPa) = 0.08592695
#
# Stress axis : x y z
#
# Youngs Moduli (GPa) = 41.33609 39.33169 90.99050
#
# Poissons Ratio (x) = -0.38925 -0.18604
# Poissons Ratio (y) = -0.40909 -0.06541
# Poissons Ratio (z) = -0.08452 -0.02827
#
# Static dielectric constant tensor:
#      x y z
#    x 1.898030 0.000000 0.000000 
#    y 0.000000 1.916150 0.000000 
#    z 0.000000 0.000000 2.039080 
# 
# From -- ./inp_files/51403.got.cif
#   From: 2010.05.17/outbox.cif.g08.bks.cpg/sg63_26_cif.got.tgz:51403.got - 2010.06.03 15:47:04.
