data_PCOD9475599
_publ_section_title
;
Structure prediction by ZEFSAII (Michael W. Deem and Ramdas Pophale) SiO2 
 PCOD9475599
Probable space group: C M C M
;
_chemical_formula_sum "Si O2"
_cell_formula_units_Z 68
_cell_length_a 9.716089
_cell_length_b 18.454160
_cell_length_c 18.409839
_cell_angle_alpha 90.000000
_cell_angle_beta 90.000000
_cell_angle_gamma 90.000000
_cell_volume 3300.925757
_symmetry_space_group_name_H-M "C M C M"
_symmetry_group_IT_number 63
_symmetry_cell_setting 'orthorhombic'
loop_
_space_group_symop_operation_xyz
x,y,z
-x,-y,1/2+z
x,-y,-z
-x,y,1/2-z
-x,-y,-z
x,y,1/2-z
-x,y,z
x,-y,1/2+z
1/2+x,1/2+y,z
1/2-x,1/2-y,1/2+z
1/2+x,1/2-y,-z
1/2-x,1/2+y,1/2-z
1/2-x,1/2-y,-z
1/2+x,1/2+y,1/2-z
1/2-x,1/2+y,z
1/2+x,1/2-y,1/2+z
loop_
_atom_site_type_symbol
_atom_site_label
_atom_site_fract_x
_atom_site_fract_y
_atom_site_fract_z
Si Si1 0.500000 0.083652 0.990051
Si Si2 0.500000 0.187302 0.378804
Si Si3 0.500000 0.330770 0.033048
Si Si4 0.500000 0.558187 0.094883
Si Si5 0.711924 0.781553 0.750000
Si Si6 0.331469 0.391060 0.250000
Si Si7 0.000000 0.866942 0.750000
Si Si8 0.722794 0.566823 0.905286
O O1 0.361979 0.091513 0.943845
O O2 0.500000 0.117227 0.070491
O O3 0.500000 0.000000 0.000000
O O4 0.500000 0.247742 0.443425
O O5 0.371467 0.194652 0.323145
O O6 0.626400 0.366852 0.073345
O O7 0.500000 0.368179 0.953454
O O8 0.500000 0.582806 0.178259
O O9 0.634914 0.507405 0.078311
O O10 0.707325 0.694011 0.750000
O O11 0.862577 0.817226 0.750000
O O12 0.500000 0.395659 0.250000
O O13 0.269112 0.430576 0.319248
#
# Coordination Sequence:
#
# PCOD9475599 Si02
#       8
#     8   8   8   8   8   8   4  16
#     4  12  29  45  63 106 147 181 232 293 358 415
#     4  11  25  49  74  95 144 196 224 281 362 429
#     4  11  21  42  74  99 131 195 233 275 342 418
#     4  11  24  45  70 105 137 186 239 292 340 413
#     4  11  24  48  71 102 138 180 237 286 344 414
#     4  12  19  46  75 102 139 193 233 275 355 422
#     4  12  30  42  72 108 132 176 246 304 334 408
#     4  11  23  43  71 101 144 182 233 285 342 418
#
# _framework density 20.600280999999999
#
# number of rings (size 3 to 8) (size 9 to 14) (size 15 to 20)
#    0.000    0.706    5.882    3.529    6.588    4.235 
#    0.000    0.000    0.000    0.000    0.000    0.000 
#    0.000    0.000    0.000    0.000    0.000    0.000 
#
# Total GULP energy -189523.910500 kJ/mol
# GULP energy per Si atom -5574.232662 kJ/mol
# Density = 2.055339 g / cm^3
# Si number density = 20.600281 Si / 1000 Ang^3
#
#
#
# Elastic Constant Matrix: (Units=GPa)
#
#
# Indices 1 2 3 4 5 6 
#
# 1 116.3852 3.7446 11.3763 0.0000 0.0000 0.0000
# 2 3.7446 85.2648 30.1582 0.0000 0.0000 0.0000
# 3 11.3763 30.1582 161.9338 0.0000 0.0000 0.0000
# 4 0.0000 0.0000 0.0000-2055.1046 0.0000 0.0000
# 5 0.0000 0.0000 0.0000 0.0000 -66.8447 0.0000
# 6 0.0000 0.0000 0.0000 0.0000 0.0000 -771.4614
#
#
#
# Elastic Compliance Matrix: (Units=1/GPa)
#
#
# Indices 1 2 3 4 5 6 
#
# 1 0.008654 -0.000177 -0.000575 0.000000 0.000000 0.000000
# 2 -0.000177 0.012559 -0.002327 0.000000 0.000000 0.000000
# 3 -0.000575 -0.002327 0.006649 0.000000 0.000000 0.000000
# 4 0.000000 0.000000 0.000000 -0.000487 0.000000 0.000000
# 5 0.000000 0.000000 0.000000 0.000000 -0.014960 0.000000
# 6 0.000000 0.000000 0.000000 0.000000 0.000000 -0.001296
#
#
# Mechanical properties :
#
#
# Convention : Reuss Voigt Hill
#
# Bulk Modulus (GPa) = 46.07143 50.46023 48.26583
# Shear Modulus (GPa) = 203.99280 -557.46183 -176.73452
#
# Velocity S-wave (km/s) = 9.96189 -16.46804 -9.27246
# Velocity P-wave (km/s) = 12.43913 18.35884 9.54764
#
# Compressibility (1/GPa) = 0.02170542
#
# Stress axis : x y z
#
# Youngs Moduli (GPa) = 115.55284 79.62529 150.39750
#
# Poissons Ratio (x) = 0.01407 0.08649
# Poissons Ratio (y) = 0.02041 0.34990
# Poissons Ratio (z) = 0.06645 0.18525
#
# Static dielectric constant tensor:
#      x y z
#    x 1.688000 0.000000 0.000000 
#    y 0.000000 1.831340 0.000000 
#    z 0.000000 0.000000 -6.045710 
# 
# From -- ./inp_files/40052.got.cif
#   From: 2010.05.17/outbox.cif.g08.bks.cpg/sg63_21_cif.got.tgz:40052.got - 2010.06.03 15:47:04.
