data_PCOD9475331
_publ_section_title
;
Structure prediction by ZEFSAII (Michael W. Deem and Ramdas Pophale) SiO2 
 PCOD9475331
Probable space group: C M C M
;
_chemical_formula_sum "Si O2"
_cell_formula_units_Z 64
_cell_length_a 34.224179
_cell_length_b 8.540153
_cell_length_c 10.738133
_cell_angle_alpha 90.000000
_cell_angle_beta 90.000000
_cell_angle_gamma 90.000000
_cell_volume 3138.538560
_symmetry_space_group_name_H-M "C M C M"
_symmetry_group_IT_number 63
_symmetry_cell_setting 'orthorhombic'
loop_
_space_group_symop_operation_xyz
x,y,z
-x,-y,1/2+z
x,-y,-z
-x,y,1/2-z
-x,-y,-z
x,y,1/2-z
-x,y,z
x,-y,1/2+z
1/2+x,1/2+y,z
1/2-x,1/2-y,1/2+z
1/2+x,1/2-y,-z
1/2-x,1/2+y,1/2-z
1/2-x,1/2-y,-z
1/2+x,1/2+y,1/2-z
1/2-x,1/2+y,z
1/2+x,1/2-y,1/2+z
loop_
_atom_site_type_symbol
_atom_site_label
_atom_site_fract_x
_atom_site_fract_y
_atom_site_fract_z
Si Si1 0.542613 0.870448 0.109115
Si Si2 0.176632 0.116021 0.888033
Si Si3 0.690882 0.190873 0.750000
Si Si4 0.625789 0.182004 0.537974
Si Si5 0.271974 0.155461 0.250000
O O1 0.544899 0.938468 0.250000
O O2 0.500000 0.789217 0.101189
O O3 0.583011 0.778199 0.090387
O O4 0.542349 0.000000 0.000000
O O5 0.171039 0.045872 0.750000
O O6 0.209317 0.249989 0.866438
O O7 0.137263 0.206483 0.924863
O O8 0.186764 0.000000 0.000000
O O9 0.661490 0.200114 0.633919
O O10 0.726190 0.314426 0.750000
O O11 0.713149 0.021824 0.750000
O O12 0.625398 0.000000 0.500000
#
# Coordination Sequence:
#
# PCOD9475331 Si02
#       5
#    16  16   8  16   8
#     4   9  18  32  56  92 126 159 200 252 309 371
#     4  10  24  44  61  88 121 165 208 261 310 369
#     4  12  24  40  61  94 123 173 206 261 310 360
#     4  11  21  38  64  87 127 165 209 248 312 373
#     4  10  26  42  58  92 123 167 217 263 302 370
#
# _framework density 20.391656999999999
#
# number of rings (size 3 to 8) (size 9 to 14) (size 15 to 20)
#    0.750    1.000    3.750    0.000    5.250    3.000 
#    0.000    0.000    0.000    0.750    0.000    0.000 
#    0.000    0.000    0.000    0.000    0.000    0.000 
#
# Total GULP energy -178325.906559 kJ/mol
# GULP energy per Si atom -5572.684580 kJ/mol
# Density = 2.034524 g / cm^3
# Si number density = 20.391657 Si / 1000 Ang^3
#
#
#
# Elastic Constant Matrix: (Units=GPa)
#
#
# Indices 1 2 3 4 5 6 
#
# 1 207.3502 40.2586 58.2268 0.0000 0.0000 0.0000
# 2 40.2586 67.3192 37.0714 0.0000 0.0000 0.0000
# 3 58.2268 37.0714 131.2656 0.0000 0.0000 0.0000
# 4 0.0000 0.0000 0.0000 29.5410 0.0000 0.0000
# 5 0.0000 0.0000 0.0000 0.0000 29.7114 0.0000
# 6 0.0000 0.0000 0.0000 0.0000 0.0000 10.9840
#
#
#
# Elastic Compliance Matrix: (Units=1/GPa)
#
#
# Indices 1 2 3 4 5 6 
#
# 1 0.005829 -0.002442 -0.001896 0.000000 0.000000 0.000000
# 2 -0.002442 0.018613 -0.004173 0.000000 0.000000 0.000000
# 3 -0.001896 -0.004173 0.009638 0.000000 0.000000 0.000000
# 4 0.000000 0.000000 0.000000 0.033851 0.000000 0.000000
# 5 0.000000 0.000000 0.000000 0.000000 0.033657 0.000000
# 6 0.000000 0.000000 0.000000 0.000000 0.000000 0.091041
#
#
# Mechanical properties :
#
#
# Convention : Reuss Voigt Hill
#
# Bulk Modulus (GPa) = 58.62576 75.22762 66.92669
# Shear Modulus (GPa) = 23.21923 32.07250 27.64587
#
# Velocity S-wave (km/s) = 3.37807 3.97019 3.68604
# Velocity P-wave (km/s) = 6.63532 7.61498 7.14197
#
# Compressibility (1/GPa) = 0.01705735
#
# Stress axis : x y z
#
# Youngs Moduli (GPa) = 171.54602 53.72539 103.75722
#
# Poissons Ratio (x) = 0.13119 0.19674
# Poissons Ratio (y) = 0.41890 0.43303
# Poissons Ratio (z) = 0.32528 0.22422
#
# Static dielectric constant tensor:
#      x y z
#    x 1.758610 0.000000 0.000000 
#    y 0.000000 1.733680 0.000000 
#    z 0.000000 0.000000 1.792490 
# 
# From -- ./inp_files/25511.got.cif
#   From: 2010.05.17/outbox.cif.g08.bks.cpg/sg63_13_cif.got.tgz:25511.got - 2010.06.03 15:47:04.
