data_PCOD9475767
_publ_section_title
;
Structure prediction by ZEFSAII (Michael W. Deem and Ramdas Pophale) SiO2 
 PCOD9475767
Probable space group: C M C M
;
_chemical_formula_sum "Si O2"
_cell_formula_units_Z 64
_cell_length_a 8.783486
_cell_length_b 31.064422
_cell_length_c 12.318307
_cell_angle_alpha 90.000000
_cell_angle_beta 90.000000
_cell_angle_gamma 90.000000
_cell_volume 3361.098300
_symmetry_space_group_name_H-M "C M C M"
_symmetry_group_IT_number 63
_symmetry_cell_setting 'orthorhombic'
loop_
_space_group_symop_operation_xyz
x,y,z
-x,-y,1/2+z
x,-y,-z
-x,y,1/2-z
-x,-y,-z
x,y,1/2-z
-x,y,z
x,-y,1/2+z
1/2+x,1/2+y,z
1/2-x,1/2-y,1/2+z
1/2+x,1/2-y,-z
1/2-x,1/2+y,1/2-z
1/2-x,1/2-y,-z
1/2+x,1/2+y,1/2-z
1/2-x,1/2+y,z
1/2+x,1/2-y,1/2+z
loop_
_atom_site_type_symbol
_atom_site_label
_atom_site_fract_x
_atom_site_fract_y
_atom_site_fract_z
Si Si1 0.318266 0.049874 0.978363
Si Si2 0.817341 0.126130 0.378129
Si Si3 0.325647 0.323199 0.250000
Si Si4 0.673541 0.426138 0.250000
Si Si5 0.182013 0.703053 0.977658
O O1 0.500000 0.055624 0.984871
O O2 0.259724 0.060096 0.858166
O O3 0.241630 0.083107 0.062115
O O4 0.282002 0.000000 0.000000
O O5 0.779734 0.125800 0.250000
O O6 0.745481 0.167272 0.438902
O O7 0.000000 0.128385 0.389486
O O8 0.500000 0.306466 0.250000
O O9 0.333277 0.374647 0.250000
O O10 0.238256 0.309385 0.142277
O O11 0.500000 0.442846 0.250000
O O12 0.000000 0.703794 0.983368
O O13 0.250000 0.750000 0.000000
#
# Coordination Sequence:
#
# PCOD9475767 Si02
#       5
#    16  16   8   8  16
#     4  11  25  43  66  97 132 171 217 268 324 386
#     4  11  25  45  67  95 132 172 218 269 323 386
#     4  11  23  43  69  98 130 167 218 272 324 384
#     4  11  23  41  69  96 128 169 216 270 322 382
#     4  12  26  44  69  98 132 173 217 267 325 386
#
# _framework density 19.041395999999999
#
# number of rings (size 3 to 8) (size 9 to 14) (size 15 to 20)
#    0.000    0.750    2.500    4.500    3.500    5.000 
#    0.000    0.000    0.000    0.000    0.000    0.000 
#    0.000    0.000    0.000    0.000    0.000    0.000 
#
# Total GULP energy -179035.002182 kJ/mol
# GULP energy per Si atom -5594.843818 kJ/mol
# Density = 1.899806 g / cm^3
# Si number density = 19.041396 Si / 1000 Ang^3
#
#
#
# Elastic Constant Matrix: (Units=GPa)
#
#
# Indices 1 2 3 4 5 6 
#
# 1 137.5306 93.4107 95.3472 0.0000 0.0000 0.0000
# 2 93.4107 164.4803 109.1476 0.0000 0.0000 0.0000
# 3 95.3472 109.1476 208.5187 0.0000 0.0000 0.0000
# 4 0.0000 0.0000 0.0000 10.6110 0.0000 0.0000
# 5 0.0000 0.0000 0.0000 0.0000 76.7395 0.0000
# 6 0.0000 0.0000 0.0000 0.0000 0.0000 37.3119
#
#
#
# Elastic Compliance Matrix: (Units=1/GPa)
#
#
# Indices 1 2 3 4 5 6 
#
# 1 0.013106 -0.005311 -0.003213 0.000000 0.000000 0.000000
# 2 -0.005311 0.011468 -0.003574 0.000000 0.000000 0.000000
# 3 -0.003213 -0.003574 0.008136 0.000000 0.000000 0.000000
# 4 0.000000 0.000000 0.000000 0.094241 0.000000 0.000000
# 5 0.000000 0.000000 0.000000 0.000000 0.013031 0.000000
# 6 0.000000 0.000000 0.000000 0.000000 0.000000 0.026801
#
#
# Mechanical properties :
#
#
# Convention : Reuss Voigt Hill
#
# Bulk Modulus (GPa) = 117.46341 122.92675 120.19508
# Shear Modulus (GPa) = 25.79764 39.10741 32.45252
#
# Velocity S-wave (km/s) = 3.68478 4.53681 4.13281
# Velocity P-wave (km/s) = 8.94012 9.59903 9.27543
#
# Compressibility (1/GPa) = 0.00851329
#
# Stress axis : x y z
#
# Youngs Moduli (GPa) = 76.30327 87.20108 122.91553
#
# Poissons Ratio (x) = 0.46312 0.39489
# Poissons Ratio (y) = 0.40524 0.43933
# Poissons Ratio (z) = 0.24514 0.31168
#
# Static dielectric constant tensor:
#      x y z
#    x 1.649950 0.000000 0.000000 
#    y 0.000000 0.742150 0.000000 
#    z 0.000000 0.000000 1.638510 
# 
# From -- ./inp_files/16234.got.cif
#   From: 2010.05.17/outbox.cif.g08.bks.cpg/sg63_9_cif.got.tgz:16234.got - 2010.06.03 15:47:04.
