data_PCOD9475358
_publ_section_title
;
Structure prediction by ZEFSAII (Michael W. Deem and Ramdas Pophale) SiO2 
 PCOD9475358
Probable space group: C M C M
;
_chemical_formula_sum "Si O2"
_cell_formula_units_Z 112
_cell_length_a 23.730248
_cell_length_b 14.297511
_cell_length_c 15.842597
_cell_angle_alpha 90.000000
_cell_angle_beta 90.000000
_cell_angle_gamma 90.000000
_cell_volume 5375.131471
_symmetry_space_group_name_H-M "C M C M"
_symmetry_group_IT_number 63
_symmetry_cell_setting 'orthorhombic'
loop_
_space_group_symop_operation_xyz
x,y,z
-x,-y,1/2+z
x,-y,-z
-x,y,1/2-z
-x,-y,-z
x,y,1/2-z
-x,y,z
x,-y,1/2+z
1/2+x,1/2+y,z
1/2-x,1/2-y,1/2+z
1/2+x,1/2-y,-z
1/2-x,1/2+y,1/2-z
1/2-x,1/2-y,-z
1/2+x,1/2+y,1/2-z
1/2-x,1/2+y,z
1/2+x,1/2-y,1/2+z
loop_
_atom_site_type_symbol
_atom_site_label
_atom_site_fract_x
_atom_site_fract_y
_atom_site_fract_z
Si Si1 0.257996 0.124972 0.081072
Si Si2 0.433518 0.784376 0.519572
Si Si3 0.936237 0.073407 0.923400
Si Si4 0.234885 0.663515 0.884229
Si Si5 0.393144 0.136334 0.843412
Si Si6 0.625433 0.077626 0.152009
Si Si7 0.175653 0.008014 0.657118
O O1 0.252463 0.228393 0.118671
O O2 0.308408 0.071990 0.128505
O O3 0.200537 0.067568 0.092281
O O4 0.271796 0.135865 0.982791
O O5 0.500000 0.800420 0.529558
O O6 0.421820 0.676414 0.541606
O O7 0.416819 0.808458 0.423562
O O8 0.400845 0.850091 0.585692
O O9 0.887390 0.039859 0.861589
O O10 0.000000 0.076675 0.887846
O O11 0.936621 0.000000 0.000000
O O12 0.174166 0.650958 0.843275
O O13 0.283445 0.597582 0.848424
O O14 0.415339 0.161629 0.750000
O O15 0.401457 0.025125 0.857336
O O16 0.619220 0.106339 0.250000
O O17 0.180269 0.965641 0.750000
#
# Coordination Sequence:
#
# PCOD9475358 Si02
#       7
#    16  16  16  16  16  16  16
#     4  11  23  39  63  93 130 173 221 266 321 392
#     4  11  25  45  70  96 125 176 230 272 332 401
#     4  10  24  47  69  91 126 171 225 279 328 390
#     4  11  23  39  63  93 129 175 217 265 326 391
#     4  11  24  41  64  97 136 172 214 273 341 403
#     4  11  23  41  65  98 137 172 213 274 335 395
#     4  12  25  39  63 100 134 170 216 269 331 395
#
# _framework density 20.836698999999999
#
# number of rings (size 3 to 8) (size 9 to 14) (size 15 to 20)
#    0.000    1.000    2.857    3.429    4.000    6.000 
#    0.000    2.857    0.000    2.571    0.000    0.000 
#    0.000    0.000    0.000    0.000    0.000    0.000 
#
# Total GULP energy -313290.572867 kJ/mol
# GULP energy per Si atom -5594.474515 kJ/mol
# Density = 2.078927 g / cm^3
# Si number density = 20.836699 Si / 1000 Ang^3
#
#
#
# Elastic Constant Matrix: (Units=GPa)
#
#
# Indices 1 2 3 4 5 6 
#
# 1 66.8334 7.5750 16.2684 0.0000 0.0000 0.0000
# 2 7.5750 42.0395 20.7348 0.0000 0.0000 0.0000
# 3 16.2684 20.7348 72.6157 0.0000 0.0000 0.0000
# 4 0.0000 0.0000 0.0000 4.2111 0.0000 0.0000
# 5 0.0000 0.0000 0.0000 0.0000 -10.7828 0.0000
# 6 0.0000 0.0000 0.0000 0.0000 0.0000 32.1147
#
#
#
# Elastic Compliance Matrix: (Units=1/GPa)
#
#
# Indices 1 2 3 4 5 6 
#
# 1 0.015885 -0.001288 -0.003191 0.000000 0.000000 0.000000
# 2 -0.001288 0.027791 -0.007647 0.000000 0.000000 0.000000
# 3 -0.003191 -0.007647 0.016670 0.000000 0.000000 0.000000
# 4 0.000000 0.000000 0.000000 0.237467 0.000000 0.000000
# 5 0.000000 0.000000 0.000000 0.000000 -0.092740 0.000000
# 6 0.000000 0.000000 0.000000 0.000000 0.000000 0.031138
#
#
# Mechanical properties :
#
#
# Convention : Reuss Voigt Hill
#
# Bulk Modulus (GPa) = 27.70600 30.07166 28.88883
# Shear Modulus (GPa) = 18.34899 14.23596 16.29247
#
# Velocity S-wave (km/s) = 2.97073 2.61668 2.79930
# Velocity P-wave (km/s) = 5.00925 4.85723 4.93382
#
# Compressibility (1/GPa) = 0.03609327
#
# Stress axis : x y z
#
# Youngs Moduli (GPa) = 62.95105 35.98302 59.98980
#
# Poissons Ratio (x) = 0.04636 0.19142
# Poissons Ratio (y) = 0.08111 0.45873
# Poissons Ratio (z) = 0.20087 0.27516
#
# Static dielectric constant tensor:
#      x y z
#    x 1.735250 0.000000 0.000000 
#    y 0.000000 1.737490 0.000000 
#    z 0.000000 0.000000 1.733880 
# 
# From -- ./inp_files/36918.got.cif
#   From: 2010.05.17/outbox.cif.g08.bks.cpg/sg63_19_cif.got.tgz:36918.got - 2010.06.03 15:47:04.
