data_PCOD9475488
_publ_section_title
;
Structure prediction by ZEFSAII (Michael W. Deem and Ramdas Pophale) SiO2 
 PCOD9475488
Probable space group: C M C M
;
_chemical_formula_sum "Si O2"
_cell_formula_units_Z 96
_cell_length_a 14.866110
_cell_length_b 18.447152
_cell_length_c 15.455319
_cell_angle_alpha 90.000000
_cell_angle_beta 90.000000
_cell_angle_gamma 90.000000
_cell_volume 4238.426357
_symmetry_space_group_name_H-M "C M C M"
_symmetry_group_IT_number 63
_symmetry_cell_setting 'orthorhombic'
loop_
_space_group_symop_operation_xyz
x,y,z
-x,-y,1/2+z
x,-y,-z
-x,y,1/2-z
-x,-y,-z
x,y,1/2-z
-x,y,z
x,-y,1/2+z
1/2+x,1/2+y,z
1/2-x,1/2-y,1/2+z
1/2+x,1/2-y,-z
1/2-x,1/2+y,1/2-z
1/2-x,1/2-y,-z
1/2+x,1/2+y,1/2-z
1/2-x,1/2+y,z
1/2+x,1/2-y,1/2+z
loop_
_atom_site_type_symbol
_atom_site_label
_atom_site_fract_x
_atom_site_fract_y
_atom_site_fract_z
Si Si1 0.096769 0.083795 0.855524
Si Si2 0.292628 0.882297 0.649777
Si Si3 0.705838 0.033027 0.593696
Si Si4 0.641591 0.261907 0.151275
Si Si5 0.650600 0.185664 0.848898
Si Si6 0.903616 0.158307 0.356321
O O1 0.102659 0.085005 0.750000
O O2 0.096869 0.167143 0.888581
O O3 0.000000 0.050342 0.877773
O O4 0.189128 0.048139 0.885746
O O5 0.284471 0.860243 0.750000
O O6 0.325557 0.964216 0.649263
O O7 0.354453 0.818306 0.610449
O O8 0.190158 0.877504 0.613476
O O9 0.697224 0.000000 0.500000
O O10 0.653324 0.108195 0.605255
O O11 0.606214 0.256925 0.250000
O O12 0.746027 0.286605 0.154207
O O13 0.621250 0.172885 0.750000
O O14 0.600556 0.256884 0.882325
O O15 0.902827 0.155545 0.250000
O O16 0.000000 0.127277 0.384062
#
# Coordination Sequence:
#
# PCOD9475488 Si02
#       6
#    16  16  16  16  16  16
#     4   9  17  31  50  67  86 117 151 180 220 275
#     4   9  16  28  47  68  89 112 141 181 227 267
#     4  11  21  30  42  64  95 125 154 185 215 255
#     4   7  12  25  45  66  83 105 143 184 216 254
#     4   8  14  28  47  64  86 116 149 181 219 270
#     4   8  14  26  48  74  90 104 138 190 236 268
#
# _framework density 22.649915
#
# number of rings (size 3 to 8) (size 9 to 14) (size 15 to 20)
#    0.000    3.333    0.000    4.500    0.000    1.000 
#    0.000    9.167    0.000    1.500    0.000    4.667 
#    0.000    0.000    0.000    0.000    0.000    0.000 
#
# Total GULP energy -267250.700109 kJ/mol
# GULP energy per Si atom -5567.722919 kJ/mol
# Density = 2.259836 g / cm^3
# Si number density = 22.649915 Si / 1000 Ang^3
#
#
#
# Elastic Constant Matrix: (Units=GPa)
#
#
# Indices 1 2 3 4 5 6 
#
# 1 26.4940 -1.9545 -1.8310 0.0000 0.0000 0.0000
# 2 -1.9545 136.9521 5.3166 0.0000 0.0000 0.0000
# 3 -1.8310 5.3166 21.9958 0.0000 0.0000 0.0000
# 4 0.0000 0.0000 0.0000 13.8037 0.0000 0.0000
# 5 0.0000 0.0000 0.0000 0.0000 7.5773 0.0000
# 6 0.0000 0.0000 0.0000 0.0000 0.0000 -75.6289
#
#
#
# Elastic Compliance Matrix: (Units=1/GPa)
#
#
# Indices 1 2 3 4 5 6 
#
# 1 0.037987 0.000423 0.003060 0.000000 0.000000 0.000000
# 2 0.000423 0.007376 -0.001748 0.000000 0.000000 0.000000
# 3 0.003060 -0.001748 0.046140 0.000000 0.000000 0.000000
# 4 0.000000 0.000000 0.000000 0.072444 0.000000 0.000000
# 5 0.000000 0.000000 0.000000 0.000000 0.131973 0.000000
# 6 0.000000 0.000000 0.000000 0.000000 0.000000 -0.013222
#
#
# Mechanical properties :
#
#
# Convention : Reuss Voigt Hill
#
# Bulk Modulus (GPa) = 10.52918 20.94490 15.73704
# Shear Modulus (GPa) = 16.08311 1.41115 8.74713
#
# Velocity S-wave (km/s) = 2.66761 0.79018 1.96730
# Velocity P-wave (km/s) = 3.76124 3.17802 3.48186
#
# Compressibility (1/GPa) = 0.09497419
#
# Stress axis : x y z
#
# Youngs Moduli (GPa) = 26.32478 135.58023 21.67303
#
# Poissons Ratio (x) = -0.05740 -0.06631
# Poissons Ratio (y) = -0.01114 0.03787
# Poissons Ratio (z) = -0.08055 0.23693
#
# Static dielectric constant tensor:
#      x y z
#    x 1.846460 0.000000 0.000000 
#    y 0.000000 1.918750 0.000000 
#    z 0.000000 0.000000 1.788050 
# 
# From -- ./inp_files/45741.got.cif
#   From: 2010.05.17/outbox.cif.g08.bks.cpg/sg63_23_cif.got.tgz:45741.got - 2010.06.03 15:47:04.
