data_PCOD9475574
_publ_section_title
;
Structure prediction by ZEFSAII (Michael W. Deem and Ramdas Pophale) SiO2 
 PCOD9475574
Probable space group: C M C M
;
_chemical_formula_sum "Si O2"
_cell_formula_units_Z 116
_cell_length_a 15.770992
_cell_length_b 11.902048
_cell_length_c 26.511047
_cell_angle_alpha 90.000000
_cell_angle_beta 90.000000
_cell_angle_gamma 90.000000
_cell_volume 4976.311851
_symmetry_space_group_name_H-M "C M C M"
_symmetry_group_IT_number 63
_symmetry_cell_setting 'orthorhombic'
loop_
_space_group_symop_operation_xyz
x,y,z
-x,-y,1/2+z
x,-y,-z
-x,y,1/2-z
-x,-y,-z
x,y,1/2-z
-x,y,z
x,-y,1/2+z
1/2+x,1/2+y,z
1/2-x,1/2-y,1/2+z
1/2+x,1/2-y,-z
1/2-x,1/2+y,1/2-z
1/2-x,1/2-y,-z
1/2+x,1/2+y,1/2-z
1/2-x,1/2+y,z
1/2+x,1/2-y,1/2+z
loop_
_atom_site_type_symbol
_atom_site_label
_atom_site_fract_x
_atom_site_fract_y
_atom_site_fract_z
Si Si1 0.906605 0.553325 0.054620
Si Si2 0.354940 0.890356 0.130101
Si Si3 0.838129 0.209402 0.525610
Si Si4 0.500000 0.379861 0.750000
Si Si5 0.406419 0.662835 0.079992
Si Si6 0.848554 0.054723 0.324495
Si Si7 0.329328 0.320744 0.359608
Si Si8 0.349758 0.090588 0.306375
O O1 0.839233 0.487177 0.088179
O O2 0.888662 0.680855 0.042753
O O3 0.000000 0.537682 0.077908
O O4 0.906771 0.500000 0.000000
O O5 0.403196 0.793163 0.099190
O O6 0.271378 0.829995 0.151117
O O7 0.388940 0.972250 0.174105
O O8 0.750000 0.250000 0.500000
O O9 0.883420 0.151793 0.478515
O O10 0.831441 0.152622 0.580278
O O11 0.576590 0.385269 0.793635
O O12 0.500000 0.617735 0.087814
O O13 0.346262 0.599482 0.118363
O O14 0.752603 0.070551 0.305259
O O15 0.869796 0.922109 0.328068
O O16 0.363084 0.198858 0.342645
O O17 0.378540 0.117162 0.250000
#
# Coordination Sequence:
#
# PCOD9475574 Si02
#       8
#    16  16  16   4  16  16  16  16
#     4  11  21  37  61  93 130 174 216 258 328 397
#     4  11  22  40  66  96 128 167 218 280 327 395
#     4  12  22  40  65 100 135 179 221 272 335 401
#     4  12  24  52  68  90 130 194 228 272 350 410
#     4  12  24  44  68 100 139 172 225 277 335 405
#     4  11  25  45  68  97 129 179 227 275 336 407
#     4  11  24  42  67  98 134 172 226 277 330 402
#     4  11  23  43  70  99 127 165 227 289 336 385
#
# _framework density 23.310435999999999
#
# number of rings (size 3 to 8) (size 9 to 14) (size 15 to 20)
#    0.000    0.690    6.897    0.828    2.897    1.103 
#    3.724    0.690    0.000    1.241    0.000    0.000 
#    0.000    0.000    0.000    0.000    0.000    0.000 
#
# Total GULP energy -323070.995307 kJ/mol
# GULP energy per Si atom -5570.189574 kJ/mol
# Density = 2.325738 g / cm^3
# Si number density = 23.310436 Si / 1000 Ang^3
#
#
#
# Elastic Constant Matrix: (Units=GPa)
#
#
# Indices 1 2 3 4 5 6 
#
# 1 40.5343 -14.3968 0.1059 0.0000 0.0000 0.0000
# 2 -14.3968 72.1730 17.2275 0.0000 0.0000 0.0000
# 3 0.1059 17.2275 132.7173 0.0000 0.0000 0.0000
# 4 0.0000 0.0000 0.0000 11.1695 0.0000 0.0000
# 5 0.0000 0.0000 0.0000 0.0000 45.3132 0.0000
# 6 0.0000 0.0000 0.0000 0.0000 0.0000 -5.8487
#
#
#
# Elastic Compliance Matrix: (Units=1/GPa)
#
#
# Indices 1 2 3 4 5 6 
#
# 1 0.026621 0.005485 -0.000733 0.000000 0.000000 0.000000
# 2 0.005485 0.015429 -0.002007 0.000000 0.000000 0.000000
# 3 -0.000733 -0.002007 0.007796 0.000000 0.000000 0.000000
# 4 0.000000 0.000000 0.000000 0.089530 0.000000 0.000000
# 5 0.000000 0.000000 0.000000 0.000000 0.022069 0.000000
# 6 0.000000 0.000000 0.000000 0.000000 0.000000 -0.170977
#
#
# Mechanical properties :
#
#
# Convention : Reuss Voigt Hill
#
# Bulk Modulus (GPa) = 18.07171 27.92197 22.99684
# Shear Modulus (GPa) = 1461.11715 26.29266 743.70491
#
# Velocity S-wave (km/s) = 25.06330 3.36212 17.88117
# Velocity P-wave (km/s) = 29.07453 5.20347 20.88545
#
# Compressibility (1/GPa) = 0.05533511
#
# Stress axis : x y z
#
# Youngs Moduli (GPa) = 37.56484 64.81356 128.27193
#
# Poissons Ratio (x) = -0.35552 0.09406
# Poissons Ratio (y) = -0.20605 0.25746
# Poissons Ratio (z) = 0.02754 0.13009
#
# Static dielectric constant tensor:
#      x y z
#    x 1.873570 0.000000 0.000000 
#    y 0.000000 1.928580 0.000000 
#    z 0.000000 0.000000 1.963090 
# 
# From -- ./inp_files/70032.got.cif
#   From: 2010.05.17/outbox.cif.g08.bks.cpg/sg63_36_cif.got.tgz:70032.got - 2010.06.03 15:47:04.
