data_PCOD9475059
_publ_section_title
;
Structure prediction by ZEFSAII (Michael W. Deem and Ramdas Pophale) SiO2 
 PCOD9475059
Probable space group: C M C M
;
_chemical_formula_sum "Si O2"
_cell_formula_units_Z 80
_cell_length_a 10.297412
_cell_length_b 24.880850
_cell_length_c 16.280186
_cell_angle_alpha 90.000000
_cell_angle_beta 90.000000
_cell_angle_gamma 90.000000
_cell_volume 4171.119810
_symmetry_space_group_name_H-M "C M C M"
_symmetry_group_IT_number 63
_symmetry_cell_setting 'orthorhombic'
loop_
_space_group_symop_operation_xyz
x,y,z
-x,-y,1/2+z
x,-y,-z
-x,y,1/2-z
-x,-y,-z
x,y,1/2-z
-x,y,z
x,-y,1/2+z
1/2+x,1/2+y,z
1/2-x,1/2-y,1/2+z
1/2+x,1/2-y,-z
1/2-x,1/2+y,1/2-z
1/2-x,1/2-y,-z
1/2+x,1/2+y,1/2-z
1/2-x,1/2+y,z
1/2+x,1/2-y,1/2+z
loop_
_atom_site_type_symbol
_atom_site_label
_atom_site_fract_x
_atom_site_fract_y
_atom_site_fract_z
Si Si1 0.500000 0.032026 0.250000
Si Si2 0.657488 0.829545 0.595524
Si Si3 0.000000 0.464400 0.083688
Si Si4 0.751146 0.106129 0.250000
Si Si5 0.500000 0.460305 0.421422
Si Si6 0.756064 0.613071 0.570886
Si Si7 0.500000 0.471594 0.750000
Si Si8 0.348524 0.713181 0.654836
O O1 0.627356 0.067720 0.250000
O O2 0.500000 0.999428 0.165573
O O3 0.500000 0.838037 0.602990
O O4 0.733526 0.856814 0.670487
O O5 0.711892 0.857273 0.514414
O O6 0.679624 0.765598 0.600495
O O7 0.125655 0.426812 0.086311
O O8 0.000000 0.500000 0.000000
O O9 0.876111 0.068019 0.250000
O O10 0.500000 0.500000 0.500000
O O11 0.626563 0.422738 0.428384
O O12 0.500000 0.492185 0.333661
O O13 0.736927 0.661507 0.634909
O O14 0.335683 0.729134 0.750000
O O15 0.500000 0.698539 0.641124
#
# Coordination Sequence:
#
# PCOD9475059 Si02
#       8
#     4  16   8   8   8  16   4  16
#     4  12  24  40  68  92 126 178 230 268 344 390
#     4  11  21  42  70 102 129 177 224 277 333 406
#     4  12  26  44  62  98 131 176 227 286 320 388
#     4  12  22  44  70  99 127 177 229 282 336 398
#     4  12  26  46  66 100 133 186 229 280 336 404
#     4  12  24  42  68  95 139 172 221 275 339 394
#     4  12  28  44  68  98 144 176 228 292 344 398
#     4  10  22  41  69 102 134 172 223 269 335 419
#
# _framework density 19.179500999999998
#
# number of rings (size 3 to 8) (size 9 to 14) (size 15 to 20)
#    0.000    0.600    4.000    4.800    2.800    0.000 
#    0.000    1.000    0.000    0.000    0.000    0.000 
#    0.000    0.000    0.000    0.000    0.000    0.000 
#
# Total GULP energy -223579.157896 kJ/mol
# GULP energy per Si atom -5589.478947 kJ/mol
# Density = 1.913585 g / cm^3
# Si number density = 19.179501 Si / 1000 Ang^3
#
#
#
# Elastic Constant Matrix: (Units=GPa)
#
#
# Indices 1 2 3 4 5 6 
#
# 1 121.1799 52.0910 -2.6962 0.0000 0.0000 0.0000
# 2 52.0910 110.5969 21.9610 0.0000 0.0000 0.0000
# 3 -2.6962 21.9610 67.6957 0.0000 0.0000 0.0000
# 4 0.0000 0.0000 0.0000 55.4395 0.0000 0.0000
# 5 0.0000 0.0000 0.0000 0.0000 17.8627 0.0000
# 6 0.0000 0.0000 0.0000 0.0000 0.0000 37.6896
#
#
#
# Elastic Compliance Matrix: (Units=1/GPa)
#
#
# Indices 1 2 3 4 5 6 
#
# 1 0.010643 -0.005448 0.002191 0.000000 0.000000 0.000000
# 2 -0.005448 0.012453 -0.004257 0.000000 0.000000 0.000000
# 3 0.002191 -0.004257 0.016240 0.000000 0.000000 0.000000
# 4 0.000000 0.000000 0.000000 0.018038 0.000000 0.000000
# 5 0.000000 0.000000 0.000000 0.000000 0.055983 0.000000
# 6 0.000000 0.000000 0.000000 0.000000 0.000000 0.026532
#
#
# Mechanical properties :
#
#
# Convention : Reuss Voigt Hill
#
# Bulk Modulus (GPa) = 41.13686 49.13155 45.13421
# Shear Modulus (GPa) = 30.67130 37.40615 34.03872
#
# Velocity S-wave (km/s) = 4.00330 4.42103 4.21734
# Velocity P-wave (km/s) = 6.54702 7.19257 6.87737
#
# Compressibility (1/GPa) = 0.02430910
#
# Stress axis : x y z
#
# Youngs Moduli (GPa) = 93.96041 80.30165 61.57550
#
# Poissons Ratio (x) = 0.43747 -0.13493
# Poissons Ratio (y) = 0.51188 0.26212
# Poissons Ratio (z) = -0.20589 0.34183
#
# Static dielectric constant tensor:
#      x y z
#    x 1.645290 0.000000 0.000000 
#    y 0.000000 1.657100 0.000000 
#    z 0.000000 0.000000 1.770870 
# 
# From -- ./inp_files/42240.got.cif
#   From: 2010.05.17/outbox.cif.g08.bks.cpg/sg63_22_cif.got.tgz:42240.got - 2010.06.03 15:47:04.
