data_PCOD9475485
_publ_section_title
;
Structure prediction by ZEFSAII (Michael W. Deem and Ramdas Pophale) SiO2 
 PCOD9475485
Probable space group: C M C M
;
_chemical_formula_sum "Si O2"
_cell_formula_units_Z 96
_cell_length_a 10.963235
_cell_length_b 18.633460
_cell_length_c 24.902535
_cell_angle_alpha 90.000000
_cell_angle_beta 90.000000
_cell_angle_gamma 90.000000
_cell_volume 5087.164578
_symmetry_space_group_name_H-M "C M C M"
_symmetry_group_IT_number 63
_symmetry_cell_setting 'orthorhombic'
loop_
_space_group_symop_operation_xyz
x,y,z
-x,-y,1/2+z
x,-y,-z
-x,y,1/2-z
-x,-y,-z
x,y,1/2-z
-x,y,z
x,-y,1/2+z
1/2+x,1/2+y,z
1/2-x,1/2-y,1/2+z
1/2+x,1/2-y,-z
1/2-x,1/2+y,1/2-z
1/2-x,1/2-y,-z
1/2+x,1/2+y,1/2-z
1/2-x,1/2+y,z
1/2+x,1/2-y,1/2+z
loop_
_atom_site_type_symbol
_atom_site_label
_atom_site_fract_x
_atom_site_fract_y
_atom_site_fract_z
Si Si1 0.642602 0.816633 0.933624
Si Si2 0.257581 0.173075 0.550499
Si Si3 0.355021 0.085584 0.648885
Si Si4 0.000000 0.028058 0.088337
Si Si5 0.500000 0.384868 0.482505
Si Si6 0.753832 0.067776 0.353212
Si Si7 0.852221 0.678914 0.750000
Si Si8 0.649070 0.347601 0.750000
O O1 0.500000 0.801065 0.921516
O O2 0.738249 0.751422 0.923124
O O3 0.686203 0.883927 0.898080
O O4 0.657225 0.828602 0.997931
O O5 0.297176 0.114704 0.593831
O O6 0.122495 0.157294 0.528921
O O7 0.500000 0.093951 0.644285
O O8 0.309902 0.136241 0.697313
O O9 0.324242 0.002856 0.660195
O O10 0.120705 0.037203 0.122657
O O11 0.000000 0.953741 0.056275
O O12 0.000000 0.089437 0.043371
O O13 0.791584 0.115215 0.302087
O O14 0.821692 0.762776 0.750000
O O15 0.000000 0.675152 0.750000
O O16 0.500000 0.355795 0.750000
#
# Coordination Sequence:
#
# PCOD9475485 Si02
#       8
#    16  16  16   8   8  16   8   8
#     4  11  24  39  59  92 129 165 207 253 315 369
#     4  11  22  39  63  88 126 166 206 255 301 376
#     4  11  23  41  64  90 122 163 207 250 311 367
#     4  11  22  37  62  90 126 161 204 255 309 364
#     4  11  20  40  60  90 128 163 203 249 313 372
#     4  12  23  40  62  93 124 161 206 262 306 370
#     4   9  21  42  62  86 116 157 200 252 303 363
#     4  11  23  40  67  93 121 154 208 261 306 362
#
# _framework density 18.871023000000001
#
# number of rings (size 3 to 8) (size 9 to 14) (size 15 to 20)
#    0.000    1.000    5.000    2.500    0.000    0.667 
#    1.500    2.917    0.000    0.000    0.000    0.000 
#    0.000    0.000    0.000    0.000    0.000    0.000 
#
# Total GULP energy -268037.934493 kJ/mol
# GULP energy per Si atom -5584.123635 kJ/mol
# Density = 1.882807 g / cm^3
# Si number density = 18.871023 Si / 1000 Ang^3
#
#
#
# Elastic Constant Matrix: (Units=GPa)
#
#
# Indices 1 2 3 4 5 6 
#
# 1 62.4643 4.4330 10.9794 0.0000 0.0000 0.0000
# 2 4.4330 98.6237 31.5883 0.0000 0.0000 0.0000
# 3 10.9794 31.5883 69.1051 0.0000 0.0000 0.0000
# 4 0.0000 0.0000 0.0000 19.2062 0.0000 0.0000
# 5 0.0000 0.0000 0.0000 0.0000 20.0711 0.0000
# 6 0.0000 0.0000 0.0000 0.0000 0.0000 -138.4914
#
#
#
# Elastic Compliance Matrix: (Units=1/GPa)
#
#
# Indices 1 2 3 4 5 6 
#
# 1 0.016470 0.000115 -0.002669 0.000000 0.000000 0.000000
# 2 0.000115 0.011879 -0.005448 0.000000 0.000000 0.000000
# 3 -0.002669 -0.005448 0.017385 0.000000 0.000000 0.000000
# 4 0.000000 0.000000 0.000000 0.052067 0.000000 0.000000
# 5 0.000000 0.000000 0.000000 0.000000 0.049823 0.000000
# 6 0.000000 0.000000 0.000000 0.000000 0.000000 -0.007221
#
#
# Mechanical properties :
#
#
# Convention : Reuss Voigt Hill
#
# Bulk Modulus (GPa) = 33.63715 36.02161 34.82938
# Shear Modulus (GPa) = 30.06269 -7.62999 11.21635
#
# Velocity S-wave (km/s) = 3.99565 -2.01296 2.44061
# Velocity P-wave (km/s) = 6.25703 3.70501 5.14186
#
# Compressibility (1/GPa) = 0.02972904
#
# Stress axis : x y z
#
# Youngs Moduli (GPa) = 60.71580 84.17892 57.52000
#
# Poissons Ratio (x) = -0.00965 0.15353
# Poissons Ratio (y) = -0.00696 0.31339
# Poissons Ratio (z) = 0.16206 0.45864
#
# Static dielectric constant tensor:
#      x y z
#    x 1.622410 0.000000 0.000000 
#    y 0.000000 1.680120 0.000000 
#    z 0.000000 0.000000 1.633850 
# 
# From -- ./inp_files/52974.got.cif
#   From: 2010.05.17/outbox.cif.g08.bks.cpg/sg63_27_cif.got.tgz:52974.got - 2010.06.03 15:47:04.
