data_PCOD9475435
_publ_section_title
;
Structure prediction by ZEFSAII (Michael W. Deem and Ramdas Pophale) SiO2 
 PCOD9475435
Probable space group: C M C M
;
_chemical_formula_sum "Si O2"
_cell_formula_units_Z 80
_cell_length_a 24.765266
_cell_length_b 27.359923
_cell_length_c 7.890657
_cell_angle_alpha 90.000000
_cell_angle_beta 90.000000
_cell_angle_gamma 90.000000
_cell_volume 5346.517999
_symmetry_space_group_name_H-M "C M C M"
_symmetry_group_IT_number 63
_symmetry_cell_setting 'orthorhombic'
loop_
_space_group_symop_operation_xyz
x,y,z
-x,-y,1/2+z
x,-y,-z
-x,y,1/2-z
-x,-y,-z
x,y,1/2-z
-x,y,z
x,-y,1/2+z
1/2+x,1/2+y,z
1/2-x,1/2-y,1/2+z
1/2+x,1/2-y,-z
1/2-x,1/2+y,1/2-z
1/2-x,1/2-y,-z
1/2+x,1/2+y,1/2-z
1/2-x,1/2+y,z
1/2+x,1/2-y,1/2+z
loop_
_atom_site_type_symbol
_atom_site_label
_atom_site_fract_x
_atom_site_fract_y
_atom_site_fract_z
Si Si1 0.684709 0.144596 0.545011
Si Si2 0.614358 0.944184 0.450796
Si Si3 0.882938 0.258445 0.954575
Si Si4 0.000000 0.398763 0.548449
Si Si5 0.000000 0.286106 0.541990
Si Si6 0.783930 0.201519 0.954069
O O1 0.686881 0.142426 0.750000
O O2 0.657143 0.095265 0.478387
O O3 0.646097 0.190331 0.499933
O O4 0.745348 0.157753 0.483904
O O5 0.618410 0.941556 0.250000
O O6 0.554138 0.926753 0.496795
O O7 0.623612 0.000000 0.500000
O O8 0.884125 0.255888 0.750000
O O9 0.844111 0.214475 0.016529
O O10 0.944518 0.260838 0.014603
O O11 0.000000 0.342787 0.484391
O O12 0.000000 0.395817 0.750000
O O13 0.000000 0.286391 0.750000
O O14 0.786808 0.197555 0.750000
O O15 0.750000 0.250000 0.000000
#
# Coordination Sequence:
#
# PCOD9475435 Si02
#       6
#    16  16  16   8   8  16
#     4   9  17  28  40  55  73  93 121 157 191 223
#     4  11  22  33  43  55  73  97 130 166 201 231
#     4   9  15  25  40  57  76  98 123 148 179 220
#     4  11  20  32  45  55  74 100 132 165 195 226
#     4   9  16  24  38  59  79 100 125 153 179 214
#     4   8  14  24  39  56  73  93 117 147 183 221
#
# _framework density 14.963009
#
# number of rings (size 3 to 8) (size 9 to 14) (size 15 to 20)
#    0.000    2.600    2.000    1.200    0.000    0.800 
#    0.000    0.500    0.000    0.000    0.000    0.000 
#    0.000    0.000    0.000    0.900    0.000    4.400 
#
# Total GULP energy -222703.324170 kJ/mol
# GULP energy per Si atom -5567.583104 kJ/mol
# Density = 1.492895 g / cm^3
# Si number density = 14.963009 Si / 1000 Ang^3
#
#
#
# Elastic Constant Matrix: (Units=GPa)
#
#
# Indices 1 2 3 4 5 6 
#
# 1 144.6078 81.4250 5.9209 0.0000 0.0000 0.0000
# 2 81.4250 84.7706 6.3002 0.0000 0.0000 0.0000
# 3 5.9209 6.3002 18.1228 0.0000 0.0000 0.0000
# 4 0.0000 0.0000 0.0000 7.1747 0.0000 0.0000
# 5 0.0000 0.0000 0.0000 0.0000 3.3544 0.0000
# 6 0.0000 0.0000 0.0000 0.0000 0.0000 14.0165
#
#
#
# Elastic Compliance Matrix: (Units=1/GPa)
#
#
# Indices 1 2 3 4 5 6 
#
# 1 0.015061 -0.014475 0.000111 0.000000 0.000000 0.000000
# 2 -0.014475 0.026021 -0.004317 0.000000 0.000000 0.000000
# 3 0.000111 -0.004317 0.056643 0.000000 0.000000 0.000000
# 4 0.000000 0.000000 0.000000 0.139379 0.000000 0.000000
# 5 0.000000 0.000000 0.000000 0.000000 0.298118 0.000000
# 6 0.000000 0.000000 0.000000 0.000000 0.000000 0.071344
#
#
# Mechanical properties :
#
#
# Convention : Reuss Voigt Hill
#
# Bulk Modulus (GPa) = 16.56595 48.31037 32.43816
# Shear Modulus (GPa) = 7.52956 15.16613 11.34785
#
# Velocity S-wave (km/s) = 2.24567 3.18712 2.75688
# Velocity P-wave (km/s) = 4.22130 6.77498 5.64445
#
# Compressibility (1/GPa) = 0.06036477
#
# Stress axis : x y z
#
# Youngs Moduli (GPa) = 66.39553 38.43022 17.65435
#
# Poissons Ratio (x) = 0.55628 -0.00197
# Poissons Ratio (y) = 0.96108 0.07621
# Poissons Ratio (z) = -0.00740 0.16590
#
# Static dielectric constant tensor:
#      x y z
#    x 1.492450 0.000000 0.000000 
#    y 0.000000 1.519180 0.000000 
#    z 0.000000 0.000000 1.523270 
# 
# From -- ./inp_files/8903.got.cif
#   From: 2010.05.17/outbox.cif.g08.bks.cpg/sg63_5_cif.got.tgz:8903.got - 2010.06.03 15:47:04.
