data_PCOD9475928
_publ_section_title
;
Structure prediction by ZEFSAII (Michael W. Deem and Ramdas Pophale) SiO2 
 PCOD9475928
Probable space group: C M C M
;
_chemical_formula_sum "Si O2"
_cell_formula_units_Z 52
_cell_length_a 7.453171
_cell_length_b 19.382064
_cell_length_c 13.811639
_cell_angle_alpha 90.000000
_cell_angle_beta 90.000000
_cell_angle_gamma 90.000000
_cell_volume 1995.199500
_symmetry_space_group_name_H-M "C M C M"
_symmetry_group_IT_number 63
_symmetry_cell_setting 'orthorhombic'
loop_
_space_group_symop_operation_xyz
x,y,z
-x,-y,1/2+z
x,-y,-z
-x,y,1/2-z
-x,-y,-z
x,y,1/2-z
-x,y,z
x,-y,1/2+z
1/2+x,1/2+y,z
1/2-x,1/2-y,1/2+z
1/2+x,1/2-y,-z
1/2-x,1/2+y,1/2-z
1/2-x,1/2-y,-z
1/2+x,1/2+y,1/2-z
1/2-x,1/2+y,z
1/2+x,1/2-y,1/2+z
loop_
_atom_site_type_symbol
_atom_site_label
_atom_site_fract_x
_atom_site_fract_y
_atom_site_fract_z
Si Si1 0.282215 0.443299 0.857786
Si Si2 0.500000 0.799289 0.750000
Si Si3 0.783143 0.096024 0.573482
Si Si4 0.800070 0.255164 0.111290
O O1 0.211739 0.423060 0.750000
O O2 0.500000 0.438687 0.854680
O O3 0.226848 0.408249 0.959800
O O4 0.236758 0.523874 0.875930
O O5 0.344238 0.787095 0.668339
O O6 0.712076 0.162683 0.628815
O O7 0.000000 0.101189 0.573611
O O8 0.000000 0.229788 0.129871
O O9 0.750000 0.250000 0.000000
#
# Coordination Sequence:
#
# PCOD9475928 Si02
#       4
#    16   4  16  16
#     4   8  15  28  53  87 126 174 221 264 331 393
#     4  12  26  48  76  98 132 182 230 278 350 394
#     4   9  17  33  58  89 128 172 215 276 329 390
#     4  12  25  46  71 101 137 176 226 283 338 408
#
# _framework density 26.062555
#
# number of rings (size 3 to 8) (size 9 to 14) (size 15 to 20)
#    0.000    2.154    3.077    2.308    2.154    0.000 
#    2.769    3.077    0.000    1.846    0.000    0.000 
#    0.000    0.000    0.000    0.000    0.000    0.000 
#
# Total GULP energy -145149.909098 kJ/mol
# GULP energy per Si atom -5582.688811 kJ/mol
# Density = 2.600324 g / cm^3
# Si number density = 26.062555 Si / 1000 Ang^3
#
#
#
# Elastic Constant Matrix: (Units=GPa)
#
#
# Indices 1 2 3 4 5 6 
#
# 1 159.4866 -9.4931 19.3621 0.0000 0.0000 0.0000
# 2 -9.4931 135.7054 18.1692 0.0000 0.0000 0.0000
# 3 19.3621 18.1692 179.2754 0.0000 0.0000 0.0000
# 4 0.0000 0.0000 0.0000 26.7141 0.0000 0.0000
# 5 0.0000 0.0000 0.0000 0.0000 24.5627 0.0000
# 6 0.0000 0.0000 0.0000 0.0000 0.0000 -15.2881
#
#
#
# Elastic Compliance Matrix: (Units=1/GPa)
#
#
# Indices 1 2 3 4 5 6 
#
# 1 0.006393 0.000547 -0.000746 0.000000 0.000000 0.000000
# 2 0.000547 0.007517 -0.000821 0.000000 0.000000 0.000000
# 3 -0.000746 -0.000821 0.005742 0.000000 0.000000 0.000000
# 4 0.000000 0.000000 0.000000 0.037433 0.000000 0.000000
# 5 0.000000 0.000000 0.000000 0.000000 0.040712 0.000000
# 6 0.000000 0.000000 0.000000 0.000000 0.000000 -0.065411
#
#
# Mechanical properties :
#
#
# Convention : Reuss Voigt Hill
#
# Bulk Modulus (GPa) = 56.77759 58.94932 57.86345
# Shear Modulus (GPa) = 124.07726 36.95969 80.51847
#
# Velocity S-wave (km/s) = 6.90730 3.76987 5.56430
# Velocity P-wave (km/s) = 9.24375 6.45110 7.97068
#
# Compressibility (1/GPa) = 0.01761258
#
# Stress axis : x y z
#
# Youngs Moduli (GPa) = 156.41510 133.03026 174.16226
#
# Poissons Ratio (x) = -0.07278 0.12991
# Poissons Ratio (y) = -0.08558 0.14298
# Poissons Ratio (z) = 0.11668 0.10921
#
# Static dielectric constant tensor:
#      x y z
#    x 1.995550 0.000000 0.000000 
#    y 0.000000 2.174350 0.000000 
#    z 0.000000 0.000000 2.001360 
# 
# From -- ./inp_files/27093.got.cif
#   From: 2010.05.17/outbox.cif.g08.bks.cpg/sg63_14_cif.got.tgz:27093.got - 2010.06.03 15:47:04.
