data_PCOD9475154
_publ_section_title
;
Structure prediction by ZEFSAII (Michael W. Deem and Ramdas Pophale) SiO2 
 PCOD9475154
Probable space group: C M C M
;
_chemical_formula_sum "Si O2"
_cell_formula_units_Z 104
_cell_length_a 19.297599
_cell_length_b 17.418606
_cell_length_c 15.147543
_cell_angle_alpha 90.000000
_cell_angle_beta 90.000000
_cell_angle_gamma 90.000000
_cell_volume 5091.653808
_symmetry_space_group_name_H-M "C M C M"
_symmetry_group_IT_number 63
_symmetry_cell_setting 'orthorhombic'
loop_
_space_group_symop_operation_xyz
x,y,z
-x,-y,1/2+z
x,-y,-z
-x,y,1/2-z
-x,-y,-z
x,y,1/2-z
-x,y,z
x,-y,1/2+z
1/2+x,1/2+y,z
1/2-x,1/2-y,1/2+z
1/2+x,1/2-y,-z
1/2-x,1/2+y,1/2-z
1/2-x,1/2-y,-z
1/2+x,1/2+y,1/2-z
1/2-x,1/2+y,z
1/2+x,1/2-y,1/2+z
loop_
_atom_site_type_symbol
_atom_site_label
_atom_site_fract_x
_atom_site_fract_y
_atom_site_fract_z
Si Si1 0.423952 0.210130 0.750000
Si Si2 0.923271 0.108624 0.250000
Si Si3 0.835008 0.336832 0.884522
Si Si4 0.155769 0.358045 0.412820
Si Si5 0.188816 0.085017 0.397002
Si Si6 0.808246 0.905208 0.399345
Si Si7 0.581979 0.993403 0.853224
Si Si8 0.360135 0.695608 0.750000
O O1 0.500000 0.173263 0.750000
O O2 0.430470 0.300410 0.750000
O O3 0.385050 0.187371 0.838765
O O4 0.877228 0.091098 0.164874
O O5 0.000000 0.073311 0.250000
O O6 0.755109 0.363685 0.869708
O O7 0.883310 0.410107 0.862693
O O8 0.853905 0.263604 0.826684
O O9 0.844894 0.323801 0.989293
O O10 0.235327 0.362800 0.383224
O O11 0.121782 0.443168 0.411338
O O12 0.171874 0.105102 0.498414
O O13 0.208911 0.995414 0.390592
O O14 0.859793 0.871362 0.327816
O O15 0.590220 0.016512 0.750000
O O16 0.500000 0.991022 0.873693
#
# Coordination Sequence:
#
# PCOD9475154 Si02
#       8
#     8   8  16  16  16  16  16   8
#     4  11  25  40  58  94 134 178 220 275 333 386
#     4  11  26  43  67  96 123 161 215 278 351 404
#     4  11  24  39  64  98 134 179 220 270 332 389
#     4  11  22  38  63  95 135 173 227 268 318 391
#     4  10  22  44  69  94 130 167 222 282 327 390
#     4  10  23  40  67 101 127 168 220 275 331 396
#     4  11  22  39  63  94 136 187 232 264 309 384
#     4  12  25  37  60  96 135 167 215 271 341 390
#
# _framework density 20.425583
#
# number of rings (size 3 to 8) (size 9 to 14) (size 15 to 20)
#    0.000    1.231    3.077    2.308    6.462    3.077 
#    0.000    1.538    0.000    4.615    0.000    0.000 
#    0.000    0.000    0.000    0.000    0.000    0.000 
#
# Total GULP energy -289613.348736 kJ/mol
# GULP energy per Si atom -5569.487476 kJ/mol
# Density = 2.037909 g / cm^3
# Si number density = 20.425583 Si / 1000 Ang^3
#
#
#
# Elastic Constant Matrix: (Units=GPa)
#
#
# Indices 1 2 3 4 5 6 
#
# 1 86.6418 -14.9571 39.4679 0.0000 0.0000 0.0000
# 2 -14.9571 33.7537 14.8910 0.0000 0.0000 0.0000
# 3 39.4679 14.8910 101.8298 0.0000 0.0000 0.0000
# 4 0.0000 0.0000 0.0000 39.9615 0.0000 0.0000
# 5 0.0000 0.0000 0.0000 0.0000 90.0572 0.0000
# 6 0.0000 0.0000 0.0000 0.0000 0.0000 7.1609
#
#
#
# Elastic Compliance Matrix: (Units=1/GPa)
#
#
# Indices 1 2 3 4 5 6 
#
# 1 0.017320 0.011370 -0.008376 0.000000 0.000000 0.000000
# 2 0.011370 0.039134 -0.010130 0.000000 0.000000 0.000000
# 3 -0.008376 -0.010130 0.014548 0.000000 0.000000 0.000000
# 4 0.000000 0.000000 0.000000 0.025024 0.000000 0.000000
# 5 0.000000 0.000000 0.000000 0.000000 0.011104 0.000000
# 6 0.000000 0.000000 0.000000 0.000000 0.000000 0.139647
#
#
# Mechanical properties :
#
#
# Convention : Reuss Voigt Hill
#
# Bulk Modulus (GPa) = 17.62708 33.44766 25.53737
# Shear Modulus (GPa) = 17.85984 39.62415 28.74200
#
# Velocity S-wave (km/s) = 2.96021 4.40924 3.75528
# Velocity P-wave (km/s) = 4.50915 6.50636 5.59755
#
# Compressibility (1/GPa) = 0.05673091
#
# Stress axis : x y z
#
# Youngs Moduli (GPa) = 57.73693 25.55354 68.73848
#
# Poissons Ratio (x) = -0.29054 0.57573
# Poissons Ratio (y) = -0.65647 0.69629
# Poissons Ratio (z) = 0.48359 0.25884
#
# Static dielectric constant tensor:
#      x y z
#    x 1.742580 0.000000 0.000000 
#    y 0.000000 1.753880 0.000000 
#    z 0.000000 0.000000 1.732530 
# 
# From -- ./inp_files/35683.got.cif
#   From: 2010.05.17/outbox.cif.g08.bks.cpg/sg63_18_cif.got.tgz:35683.got - 2010.06.03 15:47:04.
