data_PCOD9475486
_publ_section_title
;
Structure prediction by ZEFSAII (Michael W. Deem and Ramdas Pophale) SiO2 
 PCOD9475486
Probable space group: C M C M
;
_chemical_formula_sum "Si O2"
_cell_formula_units_Z 100
_cell_length_a 16.646974
_cell_length_b 14.878630
_cell_length_c 20.515633
_cell_angle_alpha 90.000000
_cell_angle_beta 90.000000
_cell_angle_gamma 90.000000
_cell_volume 5081.397465
_symmetry_space_group_name_H-M "C M C M"
_symmetry_group_IT_number 63
_symmetry_cell_setting 'orthorhombic'
loop_
_space_group_symop_operation_xyz
x,y,z
-x,-y,1/2+z
x,-y,-z
-x,y,1/2-z
-x,-y,-z
x,y,1/2-z
-x,y,z
x,-y,1/2+z
1/2+x,1/2+y,z
1/2-x,1/2-y,1/2+z
1/2+x,1/2-y,-z
1/2-x,1/2+y,1/2-z
1/2-x,1/2-y,-z
1/2+x,1/2+y,1/2-z
1/2-x,1/2+y,z
1/2+x,1/2-y,1/2+z
loop_
_atom_site_type_symbol
_atom_site_label
_atom_site_fract_x
_atom_site_fract_y
_atom_site_fract_z
Si Si1 0.257807 0.434175 0.175804
Si Si2 0.000000 0.614380 0.250000
Si Si3 0.303849 0.733566 0.321611
Si Si4 0.134941 0.601740 0.497725
Si Si5 0.347712 0.113053 0.346931
Si Si6 0.409467 0.717172 0.053828
Si Si7 0.178339 0.087657 0.960350
O O1 0.289200 0.443810 0.250000
O O2 0.208925 0.340636 0.173460
O O3 0.199100 0.517956 0.161469
O O4 0.322252 0.427612 0.117244
O O5 0.071473 0.613765 0.194063
O O6 0.338672 0.712951 0.250000
O O7 0.216444 0.688080 0.325472
O O8 0.355927 0.699550 0.382250
O O9 0.103765 0.500000 0.500000
O O10 0.134553 0.628251 0.422496
O O11 0.091562 0.676237 0.540388
O O12 0.227545 0.600466 0.521922
O O13 0.500000 0.685327 0.062712
O O14 0.369316 0.670360 0.991038
O O15 0.150766 0.000000 0.000000
#
# Coordination Sequence:
#
# PCOD9475486 Si02
#       7
#    16   4  16  16  16  16  16
#     4  11  21  38  63  95 123 169 223 254 312 387
#     4  12  28  40  62 104 138 162 200 268 326 392
#     4  11  22  40  65  89 125 179 215 254 322 398
#     4  11  21  40  65  92 122 171 219 254 324 392
#     4  12  22  43  65  96 133 168 210 259 323 385
#     4  12  25  40  61  97 130 163 220 281 316 368
#     4  11  20  40  69  89 118 170 225 261 314 385
#
# _framework density 19.679625999999999
#
# number of rings (size 3 to 8) (size 9 to 14) (size 15 to 20)
#    0.000    0.640    8.000    1.440    1.120    0.960 
#    4.320    0.000    0.000    0.480    0.000    0.000 
#    0.000    0.000    0.000    0.000    0.000    0.000 
#
# Total GULP energy -278793.385013 kJ/mol
# GULP energy per Si atom -5575.867700 kJ/mol
# Density = 1.963483 g / cm^3
# Si number density = 19.679626 Si / 1000 Ang^3
#
#
#
# Elastic Constant Matrix: (Units=GPa)
#
#
# Indices 1 2 3 4 5 6 
#
# 1 73.7750 35.7897 39.0782 0.0000 0.0000 0.0000
# 2 35.7897 66.1339 10.4541 0.0000 0.0000 0.0000
# 3 39.0782 10.4541 180.5484 0.0000 0.0000 0.0000
# 4 0.0000 0.0000 0.0000 292.2992 0.0000 0.0000
# 5 0.0000 0.0000 0.0000 0.0000 -26.9109 0.0000
# 6 0.0000 0.0000 0.0000 0.0000 0.0000 0.4333
#
#
#
# Elastic Compliance Matrix: (Units=1/GPa)
#
#
# Indices 1 2 3 4 5 6 
#
# 1 0.020763 -0.010623 -0.003879 0.000000 0.000000 0.000000
# 2 -0.010623 0.020696 0.001101 0.000000 0.000000 0.000000
# 3 -0.003879 0.001101 0.006314 0.000000 0.000000 0.000000
# 4 0.000000 0.000000 0.000000 0.003421 0.000000 0.000000
# 5 0.000000 0.000000 0.000000 0.000000 -0.037160 0.000000
# 6 0.000000 0.000000 0.000000 0.000000 0.000000 2.307660
#
#
# Mechanical properties :
#
#
# Convention : Reuss Voigt Hill
#
# Bulk Modulus (GPa) = 47.68474 54.56680 51.12577
# Shear Modulus (GPa) = 2.12270 68.84002 35.48136
#
# Velocity S-wave (km/s) = 1.03970 5.92084 4.25072
# Velocity P-wave (km/s) = 5.07192 8.63305 7.08004
#
# Compressibility (1/GPa) = 0.02097107
#
# Stress axis : x y z
#
# Youngs Moduli (GPa) = 48.16316 48.31931 158.36632
#
# Poissons Ratio (x) = 0.51330 0.61428
# Poissons Ratio (y) = 0.51164 -0.17435
# Poissons Ratio (z) = 0.18682 -0.05320
#
# Static dielectric constant tensor:
#      x y z
#    x 1.640080 0.000000 0.000000 
#    y 0.000000 1.728060 0.000000 
#    z 0.000000 0.000000 1.712460 
# 
# From -- ./inp_files/55648.got.cif
#   From: 2010.05.17/outbox.cif.g08.bks.cpg/sg63_28_cif.got.tgz:55648.got - 2010.06.03 15:47:04.
