data_PCOD9475768
_publ_section_title
;
Structure prediction by ZEFSAII (Michael W. Deem and Ramdas Pophale) SiO2 
 PCOD9475768
Probable space group: C M C M
;
_chemical_formula_sum "Si O2"
_cell_formula_units_Z 116
_cell_length_a 17.030665
_cell_length_b 12.366877
_cell_length_c 26.606826
_cell_angle_alpha 90.000000
_cell_angle_beta 90.000000
_cell_angle_gamma 90.000000
_cell_volume 5603.826971
_symmetry_space_group_name_H-M "C M C M"
_symmetry_group_IT_number 63
_symmetry_cell_setting 'orthorhombic'
loop_
_space_group_symop_operation_xyz
x,y,z
-x,-y,1/2+z
x,-y,-z
-x,y,1/2-z
-x,-y,-z
x,y,1/2-z
-x,y,z
x,-y,1/2+z
1/2+x,1/2+y,z
1/2-x,1/2-y,1/2+z
1/2+x,1/2-y,-z
1/2-x,1/2+y,1/2-z
1/2-x,1/2-y,-z
1/2+x,1/2+y,1/2-z
1/2-x,1/2+y,z
1/2+x,1/2-y,1/2+z
loop_
_atom_site_type_symbol
_atom_site_label
_atom_site_fract_x
_atom_site_fract_y
_atom_site_fract_z
Si Si1 0.090637 0.597539 0.918465
Si Si2 0.591264 0.592103 0.039390
Si Si3 0.639649 0.772686 0.175108
Si Si4 0.500000 0.829968 0.250000
Si Si5 0.152856 0.617654 0.120779
Si Si6 0.328265 0.546438 0.355184
Si Si7 0.835673 0.700094 0.007128
Si Si8 0.175150 0.186237 0.691467
O O1 0.123700 0.690387 0.881908
O O2 0.097649 0.485551 0.887796
O O3 0.000000 0.615226 0.931591
O O4 0.144093 0.603614 0.968342
O O5 0.500000 0.583928 0.052198
O O6 0.639040 0.568123 0.089468
O O7 0.613007 0.500000 0.000000
O O8 0.607039 0.705093 0.011827
O O9 0.570193 0.824417 0.207039
O O10 0.636818 0.642657 0.178934
O O11 0.729224 0.804158 0.188310
O O12 0.235235 0.566902 0.139439
O O13 0.157418 0.669230 0.065202
O O14 0.137774 0.714220 0.160183
O O15 0.345341 0.428265 0.333910
O O16 0.750000 0.750000 0.000000
O O17 0.153089 0.189652 0.750000
#
# Coordination Sequence:
#
# PCOD9475768 Si02
#       8
#    16  16  16   4  16  16  16  16
#     4  12  25  45  70 102 144 184 232 292 351 423
#     4  11  24  39  62  96 135 179 222 276 346 412
#     4  11  23  42  67 102 133 176 229 293 353 413
#     4  12  24  40  68 100 138 176 230 296 370 414
#     4  11  25  42  67 101 137 183 232 280 352 420
#     4  11  23  41  69  96 136 178 228 297 345 417
#     4  12  23  40  69  98 139 182 226 279 339 420
#     4  11  24  46  70 102 135 181 240 294 352 417
#
# _framework density 20.700140999999999
#
# number of rings (size 3 to 8) (size 9 to 14) (size 15 to 20)
#    0.000    0.690    5.517    2.483    3.862    2.207 
#    1.241    0.690    0.000    0.828    0.000    0.000 
#    0.000    0.000    0.000    0.000    0.000    0.000 
#
# Total GULP energy -323547.235994 kJ/mol
# GULP energy per Si atom -5578.400621 kJ/mol
# Density = 2.065303 g / cm^3
# Si number density = 20.700141 Si / 1000 Ang^3
#
#
#
# Elastic Constant Matrix: (Units=GPa)
#
#
# Indices 1 2 3 4 5 6 
#
# 1 42.7072 9.0629 -6.8654 0.0000 0.0000 0.0000
# 2 9.0629 142.4316 44.7412 0.0000 0.0000 0.0000
# 3 -6.8654 44.7412 133.9619 0.0000 0.0000 0.0000
# 4 0.0000 0.0000 0.0000 8.4668 0.0000 0.0000
# 5 0.0000 0.0000 0.0000 0.0000 28.4873 0.0000
# 6 0.0000 0.0000 0.0000 0.0000 0.0000 20.5707
#
#
#
# Elastic Compliance Matrix: (Units=1/GPa)
#
#
# Indices 1 2 3 4 5 6 
#
# 1 0.024187 -0.002154 0.001959 0.000000 0.000000 0.000000
# 2 -0.002154 0.008036 -0.002794 0.000000 0.000000 0.000000
# 3 0.001959 -0.002794 0.008498 0.000000 0.000000 0.000000
# 4 0.000000 0.000000 0.000000 0.118109 0.000000 0.000000
# 5 0.000000 0.000000 0.000000 0.000000 0.035103 0.000000
# 6 0.000000 0.000000 0.000000 0.000000 0.000000 0.048613
#
#
# Mechanical properties :
#
#
# Convention : Reuss Voigt Hill
#
# Bulk Modulus (GPa) = 28.78318 45.88645 37.33481
# Shear Modulus (GPa) = 19.22289 29.64908 24.43598
#
# Velocity S-wave (km/s) = 3.05066 3.78870 3.43953
# Velocity P-wave (km/s) = 5.13261 6.43073 5.81799
#
# Compressibility (1/GPa) = 0.03474251
#
# Stress axis : x y z
#
# Youngs Moduli (GPa) = 41.34380 124.44413 117.66865
#
# Poissons Ratio (x) = 0.26811 -0.23053
# Poissons Ratio (y) = 0.08907 0.32879
# Poissons Ratio (z) = -0.08100 0.34772
#
# Static dielectric constant tensor:
#      x y z
#    x 1.737260 0.000000 0.000000 
#    y 0.000000 1.826870 0.000000 
#    z 0.000000 0.000000 1.772280 
# 
# From -- ./inp_files/70012.got.cif
#   From: 2010.05.17/outbox.cif.g08.bks.cpg/sg63_36_cif.got.tgz:70012.got - 2010.06.03 15:47:04.
