data_PCOD9475441
_publ_section_title
;
Structure prediction by ZEFSAII (Michael W. Deem and Ramdas Pophale) SiO2 
 PCOD9475441
Probable space group: C M C M
;
_chemical_formula_sum "Si O2"
_cell_formula_units_Z 48
_cell_length_a 28.609186
_cell_length_b 9.335330
_cell_length_c 8.465574
_cell_angle_alpha 90.000000
_cell_angle_beta 90.000000
_cell_angle_gamma 90.000000
_cell_volume 2260.953270
_symmetry_space_group_name_H-M "C M C M"
_symmetry_group_IT_number 63
_symmetry_cell_setting 'orthorhombic'
loop_
_space_group_symop_operation_xyz
x,y,z
-x,-y,1/2+z
x,-y,-z
-x,y,1/2-z
-x,-y,-z
x,y,1/2-z
-x,y,z
x,-y,1/2+z
1/2+x,1/2+y,z
1/2-x,1/2-y,1/2+z
1/2+x,1/2-y,-z
1/2-x,1/2+y,1/2-z
1/2-x,1/2-y,-z
1/2+x,1/2+y,1/2-z
1/2-x,1/2+y,z
1/2+x,1/2-y,1/2+z
loop_
_atom_site_type_symbol
_atom_site_label
_atom_site_fract_x
_atom_site_fract_y
_atom_site_fract_z
Si Si1 0.793301 0.160676 0.063804
Si Si2 0.944205 0.461353 0.250000
Si Si3 0.399138 0.715901 0.070895
Si Si4 0.055528 0.199022 0.750000
O O1 0.788194 0.154438 0.250000
O O2 0.844348 0.227299 0.031308
O O3 0.750000 0.250000 0.000000
O O4 0.793253 0.000000 0.000000
O O5 0.922977 0.369583 0.105089
O O6 0.934091 0.629135 0.250000
O O7 0.000000 0.444358 0.250000
O O8 0.402845 0.647886 0.250000
O O9 0.423337 0.647761 0.917423
O O10 0.000000 0.176250 0.750000
#
# Coordination Sequence:
#
# PCOD9475441 Si02
#       4
#    16   8  16   8
#     4  11  25  46  70  98 131 172 219 276 334 399
#     4   9  18  36  56  87 130 167 214 271 320 379
#     4   9  22  37  56  89 126 166 207 264 326 384
#     4  11  20  32  60  93 128 173 218 269 326 383
#
# _framework density 21.229982
#
# number of rings (size 3 to 8) (size 9 to 14) (size 15 to 20)
#    1.000    1.000    0.000    3.000    4.667    5.333 
#    0.000    0.000    0.000    6.000    0.000    0.000 
#    0.000    0.000    0.000    0.000    0.000    0.000 
#
# Total GULP energy -133857.688179 kJ/mol
# GULP energy per Si atom -5577.403674 kJ/mol
# Density = 2.118166 g / cm^3
# Si number density = 21.229982 Si / 1000 Ang^3
#
#
#
# Elastic Constant Matrix: (Units=GPa)
#
#
# Indices 1 2 3 4 5 6 
#
# 1 147.9015 56.8077 90.8341 0.0000 0.0000 0.0000
# 2 56.8077 84.8134 18.9674 0.0000 0.0000 0.0000
# 3 90.8341 18.9674 157.9325 0.0000 0.0000 0.0000
# 4 0.0000 0.0000 0.0000 37.7317 0.0000 0.0000
# 5 0.0000 0.0000 0.0000 0.0000 30.1142 0.0000
# 6 0.0000 0.0000 0.0000 0.0000 0.0000 -127.5786
#
#
#
# Elastic Compliance Matrix: (Units=1/GPa)
#
#
# Indices 1 2 3 4 5 6 
#
# 1 0.014258 -0.007929 -0.007248 0.000000 0.000000 0.000000
# 2 -0.007929 0.016526 0.002576 0.000000 0.000000 0.000000
# 3 -0.007248 0.002576 0.010191 0.000000 0.000000 0.000000
# 4 0.000000 0.000000 0.000000 0.026503 0.000000 0.000000
# 5 0.000000 0.000000 0.000000 0.000000 0.033207 0.000000
# 6 0.000000 0.000000 0.000000 0.000000 0.000000 -0.007838
#
#
# Mechanical properties :
#
#
# Convention : Reuss Voigt Hill
#
# Bulk Modulus (GPa) = 63.40502 80.42953 71.91727
# Shear Modulus (GPa) = 40.54896 2.98933 21.76914
#
# Velocity S-wave (km/s) = 4.37508 1.18791 3.20565
# Velocity P-wave (km/s) = 7.44664 6.31258 6.90293
#
# Compressibility (1/GPa) = 0.01577162
#
# Stress axis : x y z
#
# Youngs Moduli (GPa) = 70.13397 60.51245 98.12250
#
# Poissons Ratio (x) = 0.47982 0.71123
# Poissons Ratio (y) = 0.55611 -0.25274
# Poissons Ratio (z) = 0.50836 -0.15587
#
# Static dielectric constant tensor:
#      x y z
#    x 1.727630 0.000000 0.000000 
#    y 0.000000 1.747850 0.000000 
#    z 0.000000 0.000000 1.818040 
# 
# From -- ./inp_files/11316.got.cif
#   From: 2010.05.17/outbox.cif.g08.bks.cpg/sg63_6_cif.got.tgz:11316.got - 2010.06.03 15:47:04.
