data_PCOD9475423
_publ_section_title
;
Structure prediction by ZEFSAII (Michael W. Deem and Ramdas Pophale) SiO2 
 PCOD9475423
Probable space group: C M C M
;
_chemical_formula_sum "Si O2"
_cell_formula_units_Z 96
_cell_length_a 8.397363
_cell_length_b 24.887423
_cell_length_c 26.736060
_cell_angle_alpha 90.000000
_cell_angle_beta 90.000000
_cell_angle_gamma 90.000000
_cell_volume 5587.535093
_symmetry_space_group_name_H-M "C M C M"
_symmetry_group_IT_number 63
_symmetry_cell_setting 'orthorhombic'
loop_
_space_group_symop_operation_xyz
x,y,z
-x,-y,1/2+z
x,-y,-z
-x,y,1/2-z
-x,-y,-z
x,y,1/2-z
-x,y,z
x,-y,1/2+z
1/2+x,1/2+y,z
1/2-x,1/2-y,1/2+z
1/2+x,1/2-y,-z
1/2-x,1/2+y,1/2-z
1/2-x,1/2-y,-z
1/2+x,1/2+y,1/2-z
1/2-x,1/2+y,z
1/2+x,1/2-y,1/2+z
loop_
_atom_site_type_symbol
_atom_site_label
_atom_site_fract_x
_atom_site_fract_y
_atom_site_fract_z
Si Si1 0.313270 0.923861 0.031228
Si Si2 0.306815 0.663484 0.608592
Si Si3 0.306437 0.416887 0.193267
Si Si4 0.811056 0.268603 0.554612
Si Si5 0.693431 0.504995 0.112781
Si Si6 0.186067 0.887105 0.572649
O O1 0.500000 0.926350 0.019195
O O2 0.274570 0.873136 0.066516
O O3 0.261781 0.974687 0.064194
O O4 0.214244 0.914582 0.981223
O O5 0.500000 0.658261 0.603583
O O6 0.262923 0.636207 0.661345
O O7 0.261616 0.724431 0.596020
O O8 0.247170 0.417217 0.250000
O O9 0.500000 0.417967 0.195039
O O10 0.258103 0.468782 0.160316
O O11 0.750000 0.250000 0.500000
O O12 0.762808 0.328625 0.569493
O O13 0.000000 0.266945 0.551204
O O14 0.500000 0.503279 0.109714
O O15 0.744071 0.567253 0.111482
O O16 0.000000 0.878807 0.581150
#
# Coordination Sequence:
#
# PCOD9475423 Si02
#       6
#    16  16  16  16  16  16
#     4  11  20  29  46  70  97 129 164 201 238 286
#     4   9  18  32  49  71  99 128 160 201 246 289
#     4   8  14  29  55  79  93 113 156 209 252 294
#     4  11  21  32  48  69  98 135 171 202 237 285
#     4   9  19  33  48  69  97 128 160 199 248 294
#     4  11  21  32  46  65  97 136 168 198 237 286
#
# _framework density 17.181100000000001
#
# number of rings (size 3 to 8) (size 9 to 14) (size 15 to 20)
#    0.000    2.167    1.667    4.000    0.000    4.000 
#    0.000    0.000    0.000    9.000    0.000    0.000 
#    0.000    0.000    0.000    0.000    0.000    0.333 
#
# Total GULP energy -267588.974209 kJ/mol
# GULP energy per Si atom -5574.770296 kJ/mol
# Density = 1.714200 g / cm^3
# Si number density = 17.181100 Si / 1000 Ang^3
#
#
#
# Elastic Constant Matrix: (Units=GPa)
#
#
# Indices 1 2 3 4 5 6 
#
# 1 11.7857 19.5671 0.2098 0.0000 0.0000 0.0000
# 2 19.5671 167.2652 63.9100 0.0000 0.0000 0.0000
# 3 0.2098 63.9100 87.7480 0.0000 0.0000 0.0000
# 4 0.0000 0.0000 0.0000 7.6078 0.0000 0.0000
# 5 0.0000 0.0000 0.0000 0.0000 5.9486 0.0000
# 6 0.0000 0.0000 0.0000 0.0000 0.0000 23.7486
#
#
#
# Elastic Compliance Matrix: (Units=1/GPa)
#
#
# Indices 1 2 3 4 5 6 
#
# 1 0.115435 -0.018565 0.013245 0.000000 0.000000 0.000000
# 2 -0.018565 0.011269 -0.008164 0.000000 0.000000 0.000000
# 3 0.013245 -0.008164 0.017310 0.000000 0.000000 0.000000
# 4 0.000000 0.000000 0.000000 0.131445 0.000000 0.000000
# 5 0.000000 0.000000 0.000000 0.000000 0.168108 0.000000
# 6 0.000000 0.000000 0.000000 0.000000 0.000000 0.042108
#
#
# Mechanical properties :
#
#
# Convention : Reuss Voigt Hill
#
# Bulk Modulus (GPa) = 8.54345 48.24142 28.39243
# Shear Modulus (GPa) = 9.06360 19.66845 14.36603
#
# Velocity S-wave (km/s) = 2.29930 3.38712 2.89477
# Velocity P-wave (km/s) = 3.46878 6.59059 5.26632
#
# Compressibility (1/GPa) = 0.11704874
#
# Stress axis : x y z
#
# Youngs Moduli (GPa) = 8.66290 88.73522 57.76870
#
# Poissons Ratio (x) = 1.64734 -0.76516
# Poissons Ratio (y) = 0.16082 0.47160
# Poissons Ratio (z) = -0.11474 0.72440
#
# Static dielectric constant tensor:
#      x y z
#    x 1.585940 0.000000 0.000000 
#    y 0.000000 1.631580 0.000000 
#    z 0.000000 0.000000 1.576260 
# 
# From -- ./inp_files/67195.got.cif
#   From: 2010.05.17/outbox.cif.g08.bks.cpg/sg63_34_cif.got.tgz:67195.got - 2010.06.03 15:47:04.
