data_PCOD9475784
_publ_section_title
;
Structure prediction by ZEFSAII (Michael W. Deem and Ramdas Pophale) SiO2 
 PCOD9475784
Probable space group: C M C M
;
_chemical_formula_sum "Si O2"
_cell_formula_units_Z 68
_cell_length_a 9.932121
_cell_length_b 15.097505
_cell_length_c 19.318736
_cell_angle_alpha 90.000000
_cell_angle_beta 90.000000
_cell_angle_gamma 90.000000
_cell_volume 2896.849224
_symmetry_space_group_name_H-M "C M C M"
_symmetry_group_IT_number 63
_symmetry_cell_setting 'orthorhombic'
loop_
_space_group_symop_operation_xyz
x,y,z
-x,-y,1/2+z
x,-y,-z
-x,y,1/2-z
-x,-y,-z
x,y,1/2-z
-x,y,z
x,-y,1/2+z
1/2+x,1/2+y,z
1/2-x,1/2-y,1/2+z
1/2+x,1/2-y,-z
1/2-x,1/2+y,1/2-z
1/2-x,1/2-y,-z
1/2+x,1/2+y,1/2-z
1/2-x,1/2+y,z
1/2+x,1/2-y,1/2+z
loop_
_atom_site_type_symbol
_atom_site_label
_atom_site_fract_x
_atom_site_fract_y
_atom_site_fract_z
Si Si1 0.000000 0.040884 0.573662
Si Si2 0.500000 0.350182 0.862315
Si Si3 0.716773 0.930219 0.104449
Si Si4 0.830805 0.093225 0.750000
Si Si5 0.280384 0.293908 0.750000
Si Si6 0.500000 0.894299 0.750000
Si Si7 0.000000 0.304161 0.042514
Si Si8 0.500000 0.071059 0.087521
O O1 0.000000 0.955529 0.625085
O O2 0.000000 0.000000 0.500000
O O3 0.135842 0.094056 0.578562
O O4 0.371844 0.320320 0.816128
O O5 0.500000 0.298229 0.935579
O O6 0.756682 0.948614 0.183867
O O7 0.623880 0.848798 0.083723
O O8 0.636561 0.014456 0.073781
O O9 0.770595 0.192700 0.750000
O O10 0.000000 0.091509 0.750000
O O11 0.140710 0.343690 0.750000
O O12 0.500000 0.930192 0.671078
O O13 0.000000 0.343211 0.963506
#
# Coordination Sequence:
#
# PCOD9475784 Si02
#       8
#     8   8  16   8   8   4   8   8
#     4  12  25  45  64 101 142 181 231 295 352 415
#     4  11  25  45  72 101 135 187 230 284 353 413
#     4  11  23  42  70  99 137 182 230 289 347 413
#     4  12  22  41  69 104 140 182 233 294 355 414
#     4  11  24  43  70  97 139 172 232 290 343 421
#     4  12  24  44  62  94 136 176 224 290 346 404
#     4  11  23  46  72 101 137 185 235 285 344 425
#     4  11  24  43  69 101 133 176 240 286 345 418
#
# _framework density 23.473780000000001
#
# number of rings (size 3 to 8) (size 9 to 14) (size 15 to 20)
#    0.000    0.706    4.118    4.941    0.000    3.294 
#    4.235    3.529    0.000    0.000    0.000    0.000 
#    0.000    0.000    0.000    0.000    0.000    0.000 
#
# Total GULP energy -189527.319431 kJ/mol
# GULP energy per Si atom -5574.332924 kJ/mol
# Density = 2.342035 g / cm^3
# Si number density = 23.473780 Si / 1000 Ang^3
#
#
#
# Elastic Constant Matrix: (Units=GPa)
#
#
# Indices 1 2 3 4 5 6 
#
# 1 218.0964 39.6584 33.8044 0.0000 0.0000 0.0000
# 2 39.6584 67.8279 1.7314 0.0000 0.0000 0.0000
# 3 33.8044 1.7314 134.6148 0.0000 0.0000 0.0000
# 4 0.0000 0.0000 0.0000 34.0399 0.0000 0.0000
# 5 0.0000 0.0000 0.0000 0.0000 -37.6243 0.0000
# 6 0.0000 0.0000 0.0000 0.0000 0.0000 9.6616
#
#
#
# Elastic Compliance Matrix: (Units=1/GPa)
#
#
# Indices 1 2 3 4 5 6 
#
# 1 0.005350 -0.003095 -0.001304 0.000000 0.000000 0.000000
# 2 -0.003095 0.016538 0.000564 0.000000 0.000000 0.000000
# 3 -0.001304 0.000564 0.007749 0.000000 0.000000 0.000000
# 4 0.000000 0.000000 0.000000 0.029377 0.000000 0.000000
# 5 0.000000 0.000000 0.000000 0.000000 -0.026579 0.000000
# 6 0.000000 0.000000 0.000000 0.000000 0.000000 0.103502
#
#
# Mechanical properties :
#
#
# Convention : Reuss Voigt Hill
#
# Bulk Modulus (GPa) = 45.51885 63.43639 54.47762
# Shear Modulus (GPa) = 33.12819 24.23845 28.68332
#
# Velocity S-wave (km/s) = 3.76078 3.21686 3.49940
# Velocity P-wave (km/s) = 6.18801 6.39379 6.29174
#
# Compressibility (1/GPa) = 0.02196892
#
# Stress axis : x y z
#
# Youngs Moduli (GPa) = 186.91780 60.46581 129.05351
#
# Poissons Ratio (x) = 0.18713 0.16824
# Poissons Ratio (y) = 0.57847 -0.07284
# Poissons Ratio (z) = 0.24368 -0.03413
#
# Static dielectric constant tensor:
#      x y z
#    x 1.813610 0.000000 0.000000 
#    y 0.000000 1.880400 0.000000 
#    z 0.000000 0.000000 1.949520 
# 
# From -- ./inp_files/50564.got.cif
#   From: 2010.05.17/outbox.cif.g08.bks.cpg/sg63_26_cif.got.tgz:50564.got - 2010.06.03 15:47:04.
