data_PCOD9475192
_publ_section_title
;
Structure prediction by ZEFSAII (Michael W. Deem and Ramdas Pophale) SiO2 
 PCOD9475192
Probable space group: C M C M
;
_chemical_formula_sum "Si O2"
_cell_formula_units_Z 100
_cell_length_a 17.812539
_cell_length_b 22.234618
_cell_length_c 14.278629
_cell_angle_alpha 90.000000
_cell_angle_beta 90.000000
_cell_angle_gamma 90.000000
_cell_volume 5655.122413
_symmetry_space_group_name_H-M "C M C M"
_symmetry_group_IT_number 63
_symmetry_cell_setting 'orthorhombic'
loop_
_space_group_symop_operation_xyz
x,y,z
-x,-y,1/2+z
x,-y,-z
-x,y,1/2-z
-x,-y,-z
x,y,1/2-z
-x,y,z
x,-y,1/2+z
1/2+x,1/2+y,z
1/2-x,1/2-y,1/2+z
1/2+x,1/2-y,-z
1/2-x,1/2+y,1/2-z
1/2-x,1/2-y,-z
1/2+x,1/2+y,1/2-z
1/2-x,1/2+y,z
1/2+x,1/2-y,1/2+z
loop_
_atom_site_type_symbol
_atom_site_label
_atom_site_fract_x
_atom_site_fract_y
_atom_site_fract_z
Si Si1 0.200666 0.656086 0.860078
Si Si2 0.410943 0.268354 0.858193
Si Si3 0.215150 0.950527 0.850496
Si Si4 0.164142 0.142346 0.993223
Si Si5 0.500000 0.982829 0.250000
Si Si6 0.917102 0.036123 0.902245
Si Si7 0.136631 0.524290 0.897001
O O1 0.222279 0.650319 0.750000
O O2 0.137576 0.707589 0.865974
O O3 0.271829 0.670036 0.926474
O O4 0.165474 0.593030 0.893502
O O5 0.401251 0.290755 0.750000
O O6 0.500000 0.257930 0.870773
O O7 0.380130 0.313027 0.937883
O O8 0.212811 0.918606 0.750000
O O9 0.149328 0.000460 0.851835
O O10 0.293266 0.984541 0.862072
O O11 0.202581 0.905894 0.936674
O O12 0.108774 0.103257 0.927789
O O13 0.434177 0.981627 0.330629
O O14 0.000000 0.034445 0.859133
O O15 0.922503 0.000000 0.000000
O O16 0.119030 0.500000 0.000000
#
# Coordination Sequence:
#
# PCOD9475192 Si02
#       7
#    16  16  16  16   4  16  16
#     4  11  22  38  63  86 118 158 203 246 297 356
#     4  10  23  40  61  88 118 150 198 256 306 352
#     4  11  20  35  58  83 124 162 196 242 298 361
#     4  11  20  37  60  88 115 160 197 250 297 362
#     4  12  26  36  64  86 126 156 206 252 302 352
#     4   9  18  31  50  80 117 155 194 236 287 348
#     4  12  22  40  59  90 120 161 201 245 303 360
#
# _framework density 17.683083
#
# number of rings (size 3 to 8) (size 9 to 14) (size 15 to 20)
#    0.000    1.280    4.800    2.160    1.120    0.960 
#    0.000    0.000    0.000    1.440    0.000    0.000 
#    0.000    0.000    0.000    0.000    0.000    0.000 
#
# Total GULP energy -278431.651568 kJ/mol
# GULP energy per Si atom -5568.633031 kJ/mol
# Density = 1.764284 g / cm^3
# Si number density = 17.683083 Si / 1000 Ang^3
#
#
#
# Elastic Constant Matrix: (Units=GPa)
#
#
# Indices 1 2 3 4 5 6 
#
# 1 135.0164 14.0361 55.3283 0.0000 0.0000 0.0000
# 2 14.0361 45.8794 23.2134 0.0000 0.0000 0.0000
# 3 55.3283 23.2134 124.7362 0.0000 0.0000 0.0000
# 4 0.0000 0.0000 0.0000 16.9001 0.0000 0.0000
# 5 0.0000 0.0000 0.0000 0.0000 48.3358 0.0000
# 6 0.0000 0.0000 0.0000 0.0000 0.0000 8.8634
#
#
#
# Elastic Compliance Matrix: (Units=1/GPa)
#
#
# Indices 1 2 3 4 5 6 
#
# 1 0.009079 -0.000817 -0.003875 0.000000 0.000000 0.000000
# 2 -0.000817 0.024135 -0.004129 0.000000 0.000000 0.000000
# 3 -0.003875 -0.004129 0.010504 0.000000 0.000000 0.000000
# 4 0.000000 0.000000 0.000000 0.059171 0.000000 0.000000
# 5 0.000000 0.000000 0.000000 0.000000 0.020689 0.000000
# 6 0.000000 0.000000 0.000000 0.000000 0.000000 0.112823
#
#
# Mechanical properties :
#
#
# Convention : Reuss Voigt Hill
#
# Bulk Modulus (GPa) = 38.34901 54.53195 46.44048
# Shear Modulus (GPa) = 19.03040 29.02348 24.02694
#
# Velocity S-wave (km/s) = 3.28410 4.05571 3.69013
# Velocity P-wave (km/s) = 6.00952 7.26891 6.66901
#
# Compressibility (1/GPa) = 0.02607630
#
# Stress axis : x y z
#
# Youngs Moduli (GPa) = 110.13837 41.43275 95.19909
#
# Poissons Ratio (x) = 0.03385 0.36892
# Poissons Ratio (y) = 0.08998 0.39310
# Poissons Ratio (z) = 0.42682 0.17109
#
# Static dielectric constant tensor:
#      x y z
#    x 1.591650 0.000000 0.000000 
#    y 0.000000 1.588930 0.000000 
#    z 0.000000 0.000000 1.619760 
# 
# From -- ./inp_files/34203.got.cif
#   From: 2010.05.17/outbox.cif.g08.bks.cpg/sg63_18_cif.got.tgz:34203.got - 2010.06.03 15:47:04.
