data_PCOD9475667
_publ_section_title
;
Structure prediction by ZEFSAII (Michael W. Deem and Ramdas Pophale) SiO2 
 PCOD9475667
Probable space group: C M C M
;
_chemical_formula_sum "Si O2"
_cell_formula_units_Z 64
_cell_length_a 15.533432
_cell_length_b 12.325140
_cell_length_c 16.421339
_cell_angle_alpha 90.000000
_cell_angle_beta 90.000000
_cell_angle_gamma 90.000000
_cell_volume 3143.893663
_symmetry_space_group_name_H-M "C M C M"
_symmetry_group_IT_number 63
_symmetry_cell_setting 'orthorhombic'
loop_
_space_group_symop_operation_xyz
x,y,z
-x,-y,1/2+z
x,-y,-z
-x,y,1/2-z
-x,-y,-z
x,y,1/2-z
-x,y,z
x,-y,1/2+z
1/2+x,1/2+y,z
1/2-x,1/2-y,1/2+z
1/2+x,1/2-y,-z
1/2-x,1/2+y,1/2-z
1/2-x,1/2-y,-z
1/2+x,1/2+y,1/2-z
1/2-x,1/2+y,z
1/2+x,1/2-y,1/2+z
loop_
_atom_site_type_symbol
_atom_site_label
_atom_site_fract_x
_atom_site_fract_y
_atom_site_fract_z
Si Si1 0.845247 0.638889 0.913550
Si Si2 0.602409 0.904143 0.599357
Si Si3 0.500000 0.463238 0.349333
Si Si4 0.500000 0.714772 0.347957
Si Si5 0.161579 0.179605 0.843448
O O1 0.860538 0.520038 0.874466
O O2 0.915558 0.723082 0.880031
O O3 0.748541 0.673296 0.894647
O O4 0.862622 0.623382 0.009254
O O5 0.500000 0.915730 0.593950
O O6 0.626538 0.802002 0.653819
O O7 0.500000 0.459143 0.250000
O O8 0.500000 0.588723 0.374174
O O9 0.414275 0.398885 0.375464
O O10 0.500000 0.717637 0.250000
O O11 0.180887 0.149248 0.750000
#
# Coordination Sequence:
#
# PCOD9475667 Si02
#       5
#    16  16   8   8  16
#     4  11  23  42  64  95 129 163 210 263 318 379
#     4  11  22  45  68  90 127 169 213 261 313 378
#     4   9  22  42  59  86 128 165 204 257 310 371
#     4  11  22  39  63  93 131 166 203 262 324 375
#     4  11  24  42  65  93 125 166 214 262 315 375
#
# _framework density 20.356922000000001
#
# number of rings (size 3 to 8) (size 9 to 14) (size 15 to 20)
#    0.000    1.250    3.750    2.250    3.500    2.000 
#    0.000    1.250    0.000    0.000    0.000    0.000 
#    0.000    0.000    0.000    0.000    0.000    0.000 
#
# Total GULP energy -178922.254870 kJ/mol
# GULP energy per Si atom -5591.320465 kJ/mol
# Density = 2.031059 g / cm^3
# Si number density = 20.356922 Si / 1000 Ang^3
#
#
#
# Elastic Constant Matrix: (Units=GPa)
#
#
# Indices 1 2 3 4 5 6 
#
# 1 127.8515 52.7510 11.6126 0.0000 0.0000 0.0000
# 2 52.7510 158.1736 5.8186 0.0000 0.0000 0.0000
# 3 11.6126 5.8186 21.9565 0.0000 0.0000 0.0000
# 4 0.0000 0.0000 0.0000 26.9079 0.0000 0.0000
# 5 0.0000 0.0000 0.0000 0.0000 8.0680 0.0000
# 6 0.0000 0.0000 0.0000 0.0000 0.0000 32.1784
#
#
#
# Elastic Compliance Matrix: (Units=1/GPa)
#
#
# Indices 1 2 3 4 5 6 
#
# 1 0.009438 -0.002993 -0.004198 0.000000 0.000000 0.000000
# 2 -0.002993 0.007334 -0.000360 0.000000 0.000000 0.000000
# 3 -0.004198 -0.000360 0.047861 0.000000 0.000000 0.000000
# 4 0.000000 0.000000 0.000000 0.037164 0.000000 0.000000
# 5 0.000000 0.000000 0.000000 0.000000 0.123947 0.000000
# 6 0.000000 0.000000 0.000000 0.000000 0.000000 0.031077
#
#
# Mechanical properties :
#
#
# Convention : Reuss Voigt Hill
#
# Bulk Modulus (GPa) = 20.19050 49.81622 35.00336
# Shear Modulus (GPa) = 17.33506 29.28415 23.30961
#
# Velocity S-wave (km/s) = 2.92131 3.79692 3.38752
# Velocity P-wave (km/s) = 4.61720 6.61412 5.70373
#
# Compressibility (1/GPa) = 0.04952824
#
# Stress axis : x y z
#
# Youngs Moduli (GPa) = 105.95638 136.35831 20.89400
#
# Poissons Ratio (x) = 0.40813 0.08772
# Poissons Ratio (y) = 0.31714 0.00753
# Poissons Ratio (z) = 0.44485 0.04915
#
# Static dielectric constant tensor:
#      x y z
#    x 1.674620 0.000000 0.000000 
#    y 0.000000 1.735350 0.000000 
#    z 0.000000 0.000000 1.738440 
# 
# From -- ./inp_files/43473.got.cif
#   From: 2010.05.17/outbox.cif.g08.bks.cpg/sg63_22_cif.got.tgz:43473.got - 2010.06.03 15:47:04.
