data_PCOD9475858
_publ_section_title
;
Structure prediction by ZEFSAII (Michael W. Deem and Ramdas Pophale) SiO2 
 PCOD9475858
Probable space group: C M C M
;
_chemical_formula_sum "Si O2"
_cell_formula_units_Z 100
_cell_length_a 22.655104
_cell_length_b 9.073087
_cell_length_c 21.143264
_cell_angle_alpha 90.000000
_cell_angle_beta 90.000000
_cell_angle_gamma 90.000000
_cell_volume 4346.034484
_symmetry_space_group_name_H-M "C M C M"
_symmetry_group_IT_number 63
_symmetry_cell_setting 'orthorhombic'
loop_
_space_group_symop_operation_xyz
x,y,z
-x,-y,1/2+z
x,-y,-z
-x,y,1/2-z
-x,-y,-z
x,y,1/2-z
-x,y,z
x,-y,1/2+z
1/2+x,1/2+y,z
1/2-x,1/2-y,1/2+z
1/2+x,1/2-y,-z
1/2-x,1/2+y,1/2-z
1/2-x,1/2-y,-z
1/2+x,1/2+y,1/2-z
1/2-x,1/2+y,z
1/2+x,1/2-y,1/2+z
loop_
_atom_site_type_symbol
_atom_site_label
_atom_site_fract_x
_atom_site_fract_y
_atom_site_fract_z
Si Si1 0.213056 0.641939 0.455827
Si Si2 0.563383 0.151884 0.963063
Si Si3 0.500000 0.117575 0.750000
Si Si4 0.130666 0.020145 0.818091
Si Si5 0.381720 0.172798 0.834675
Si Si6 0.612340 0.374421 0.452232
Si Si7 0.737158 0.017306 0.319762
O O1 0.204592 0.500000 0.500000
O O2 0.250000 0.750000 0.500000
O O3 0.155239 0.736450 0.442233
O O4 0.238370 0.603115 0.386603
O O5 0.500000 0.144408 0.931301
O O6 0.612242 0.167815 0.910105
O O7 0.562717 0.294308 0.007564
O O8 0.570486 0.000000 0.000000
O O9 0.444429 0.123207 0.803490
O O10 0.106539 0.073388 0.750000
O O11 0.128890 0.842770 0.817092
O O12 0.199618 0.066378 0.821986
O O13 0.098718 0.066125 0.882649
O O14 0.323253 0.077579 0.819620
O O15 0.637358 0.500000 0.500000
O O16 0.738193 0.094240 0.250000
#
# Coordination Sequence:
#
# PCOD9475858 Si02
#       7
#    16  16   4  16  16  16  16
#     4  12  26  44  67 101 146 199 246 305 381 459
#     4  11  25  46  74 104 143 194 255 321 378 447
#     4  12  24  44  82 106 150 196 266 306 386 452
#     4  11  25  43  67 103 154 195 243 310 384 458
#     4  12  23  48  73 113 144 199 258 312 378 460
#     4  12  24  42  67 101 142 189 249 303 382 455
#     4  11  25  43  71 101 150 196 251 308 374 450
#
# _framework density 23.009481999999998
#
# number of rings (size 3 to 8) (size 9 to 14) (size 15 to 20)
#    0.000    0.480    4.000    4.800    4.480    0.960 
#    1.440    0.000    0.000    0.000    0.000    1.120 
#    0.000    0.000    0.000    0.000    0.000    0.000 
#
# Total GULP energy -278511.148082 kJ/mol
# GULP energy per Si atom -5570.222962 kJ/mol
# Density = 2.295711 g / cm^3
# Si number density = 23.009482 Si / 1000 Ang^3
#
#
#
# Elastic Constant Matrix: (Units=GPa)
#
#
# Indices 1 2 3 4 5 6 
#
# 1 59.9878 -9.9774 16.6580 0.0000 0.0000 0.0000
# 2 -9.9774 65.5597 49.2686 0.0000 0.0000 0.0000
# 3 16.6580 49.2686 240.4900 0.0000 0.0000 0.0000
# 4 0.0000 0.0000 0.0000 20.9260 0.0000 0.0000
# 5 0.0000 0.0000 0.0000 0.0000 71.1076 0.0000
# 6 0.0000 0.0000 0.0000 0.0000 0.0000 55.0642
#
#
#
# Elastic Compliance Matrix: (Units=1/GPa)
#
#
# Indices 1 2 3 4 5 6 
#
# 1 0.017985 0.004342 -0.002135 0.000000 0.000000 0.000000
# 2 0.004342 0.019077 -0.004209 0.000000 0.000000 0.000000
# 3 -0.002135 -0.004209 0.005168 0.000000 0.000000 0.000000
# 4 0.000000 0.000000 0.000000 0.047787 0.000000 0.000000
# 5 0.000000 0.000000 0.000000 0.000000 0.014063 0.000000
# 6 0.000000 0.000000 0.000000 0.000000 0.000000 0.018161
#
#
# Mechanical properties :
#
#
# Convention : Reuss Voigt Hill
#
# Bulk Modulus (GPa) = 26.16041 53.10396 39.63218
# Shear Modulus (GPa) = 35.97410 50.09211 43.03310
#
# Velocity S-wave (km/s) = 3.95833 4.67092 4.32931
# Velocity P-wave (km/s) = 5.68202 7.22629 6.50017
#
# Compressibility (1/GPa) = 0.03822571
#
# Stress axis : x y z
#
# Youngs Moduli (GPa) = 55.60143 52.41867 193.48440
#
# Poissons Ratio (x) = -0.22759 0.41314
# Poissons Ratio (y) = -0.24141 0.81438
# Poissons Ratio (z) = 0.11872 0.22063
#
# Static dielectric constant tensor:
#      x y z
#    x 1.928280 0.000000 0.000000 
#    y 0.000000 1.894000 0.000000 
#    z 0.000000 0.000000 1.874820 
# 
# From -- ./inp_files/58172.got.cif
#   From: 2010.05.17/outbox.cif.g08.bks.cpg/sg63_30_cif.got.tgz:58172.got - 2010.06.03 15:47:04.
