data_PCOD9475213
_publ_section_title
;
Structure prediction by ZEFSAII (Michael W. Deem and Ramdas Pophale) SiO2 
 PCOD9475213
Probable space group: C M C M
;
_chemical_formula_sum "Si O2"
_cell_formula_units_Z 84
_cell_length_a 20.186638
_cell_length_b 11.841577
_cell_length_c 17.849280
_cell_angle_alpha 90.000000
_cell_angle_beta 90.000000
_cell_angle_gamma 90.000000
_cell_volume 4266.720954
_symmetry_space_group_name_H-M "C M C M"
_symmetry_group_IT_number 63
_symmetry_cell_setting 'orthorhombic'
loop_
_space_group_symop_operation_xyz
x,y,z
-x,-y,1/2+z
x,-y,-z
-x,y,1/2-z
-x,-y,-z
x,y,1/2-z
-x,y,z
x,-y,1/2+z
1/2+x,1/2+y,z
1/2-x,1/2-y,1/2+z
1/2+x,1/2-y,-z
1/2-x,1/2+y,1/2-z
1/2-x,1/2-y,-z
1/2+x,1/2+y,1/2-z
1/2-x,1/2+y,z
1/2+x,1/2-y,1/2+z
loop_
_atom_site_type_symbol
_atom_site_label
_atom_site_fract_x
_atom_site_fract_y
_atom_site_fract_z
Si Si1 0.173366 0.869995 0.014773
Si Si2 0.787348 0.711645 0.879925
Si Si3 0.888262 0.641193 0.750000
Si Si4 0.500000 0.662009 0.250000
Si Si5 0.253693 0.866093 0.750000
Si Si6 0.577702 0.701460 0.865878
Si Si7 0.899423 0.398327 0.750000
Si Si8 0.121265 0.982873 0.250000
O O1 0.238961 0.864248 0.068355
O O2 0.115109 0.801917 0.055989
O O3 0.184585 0.804131 0.937544
O O4 0.156262 0.000000 0.000000
O O5 0.842420 0.655731 0.825507
O O6 0.744986 0.784322 0.821295
O O7 0.941248 0.741279 0.750000
O O8 0.926973 0.523089 0.750000
O O9 0.558496 0.564398 0.250000
O O10 0.321873 0.930331 0.750000
O O11 0.189153 0.945571 0.750000
O O12 0.500000 0.675478 0.871675
O O13 0.584347 0.818343 0.820404
O O14 0.613834 0.601700 0.819797
#
# Coordination Sequence:
#
# PCOD9475213 Si02
#       8
#    16  16   8   4   8  16   8   8
#     4  11  24  39  65  94 134 166 212 271 323 387
#     4  10  23  42  57  98 125 168 213 269 323 377
#     4  11  27  40  68  90 129 179 216 268 322 389
#     4  12  22  42  60  96 134 164 222 268 324 378
#     4  11  20  40  69  91 123 161 223 267 326 364
#     4  11  24  42  66  97 133 173 215 260 328 390
#     4  11  24  41  70  96 123 172 221 275 307 384
#     4  11  21  37  67  95 131 166 214 286 313 377
#
# _framework density 19.687249000000001
#
# number of rings (size 3 to 8) (size 9 to 14) (size 15 to 20)
#    0.000    1.143    4.762    2.000    6.667    0.381 
#    1.714    0.000    0.000    1.143    0.000    0.000 
#    0.000    0.000    0.000    0.000    0.000    0.000 
#
# Total GULP energy -233918.255605 kJ/mol
# GULP energy per Si atom -5569.482276 kJ/mol
# Density = 1.964244 g / cm^3
# Si number density = 19.687249 Si / 1000 Ang^3
#
#
#
# Elastic Constant Matrix: (Units=GPa)
#
#
# Indices 1 2 3 4 5 6 
#
# 1 94.5315 14.8139 17.9347 0.0000 0.0000 0.0000
# 2 14.8139 119.6338 31.3405 0.0000 0.0000 0.0000
# 3 17.9347 31.3405 119.7089 0.0000 0.0000 0.0000
# 4 0.0000 0.0000 0.0000 10.3359 0.0000 0.0000
# 5 0.0000 0.0000 0.0000 0.0000 -6.1580 0.0000
# 6 0.0000 0.0000 0.0000 0.0000 0.0000 11.3952
#
#
#
# Elastic Compliance Matrix: (Units=1/GPa)
#
#
# Indices 1 2 3 4 5 6 
#
# 1 0.010998 -0.000999 -0.001386 0.000000 0.000000 0.000000
# 2 -0.000999 0.009065 -0.002224 0.000000 0.000000 0.000000
# 3 -0.001386 -0.002224 0.009143 0.000000 0.000000 0.000000
# 4 0.000000 0.000000 0.000000 0.096750 0.000000 0.000000
# 5 0.000000 0.000000 0.000000 0.000000 -0.162391 0.000000
# 6 0.000000 0.000000 0.000000 0.000000 0.000000 0.087756
#
#
# Mechanical properties :
#
#
# Convention : Reuss Voigt Hill
#
# Bulk Modulus (GPa) = 50.02680 51.33915 50.68298
# Shear Modulus (GPa) = 74.40197 21.10029 47.75113
#
# Velocity S-wave (km/s) = 6.15419 3.27735 4.93026
# Velocity P-wave (km/s) = 8.71577 6.36045 7.62955
#
# Compressibility (1/GPa) = 0.01998928
#
# Stress axis : x y z
#
# Youngs Moduli (GPa) = 90.92575 110.31391 109.36791
#
# Poissons Ratio (x) = 0.11017 0.15161
# Poissons Ratio (y) = 0.09081 0.24320
# Poissons Ratio (z) = 0.12605 0.24530
#
# Static dielectric constant tensor:
#      x y z
#    x 1.712070 0.000000 0.000000 
#    y 0.000000 1.678520 0.000000 
#    z 0.000000 0.000000 1.729410 
# 
# From -- ./inp_files/46900.got.cif
#   From: 2010.05.17/outbox.cif.g08.bks.cpg/sg63_24_cif.got.tgz:46900.got - 2010.06.03 15:47:04.
