data_PCOD9475085
_publ_section_title
;
Structure prediction by ZEFSAII (Michael W. Deem and Ramdas Pophale) SiO2 
 PCOD9475085
Probable space group: C M C M
;
_chemical_formula_sum "Si O2"
_cell_formula_units_Z 116
_cell_length_a 18.881577
_cell_length_b 17.173574
_cell_length_c 17.368698
_cell_angle_alpha 90.000000
_cell_angle_beta 90.000000
_cell_angle_gamma 90.000000
_cell_volume 5632.046265
_symmetry_space_group_name_H-M "C M C M"
_symmetry_group_IT_number 63
_symmetry_cell_setting 'orthorhombic'
loop_
_space_group_symop_operation_xyz
x,y,z
-x,-y,1/2+z
x,-y,-z
-x,y,1/2-z
-x,-y,-z
x,y,1/2-z
-x,y,z
x,-y,1/2+z
1/2+x,1/2+y,z
1/2-x,1/2-y,1/2+z
1/2+x,1/2-y,-z
1/2-x,1/2+y,1/2-z
1/2-x,1/2-y,-z
1/2+x,1/2+y,1/2-z
1/2-x,1/2+y,z
1/2+x,1/2-y,1/2+z
loop_
_atom_site_type_symbol
_atom_site_label
_atom_site_fract_x
_atom_site_fract_y
_atom_site_fract_z
Si Si1 0.258961 0.175476 0.836769
Si Si2 0.608273 0.395481 0.340839
Si Si3 0.693392 0.675879 0.067409
Si Si4 0.000000 0.545197 0.750000
Si Si5 0.578590 0.742068 0.551990
Si Si6 0.655909 0.893861 0.548272
Si Si7 0.580185 0.427634 0.656947
Si Si8 0.875947 0.446101 0.379189
O O1 0.250169 0.205066 0.750000
O O2 0.190631 0.123366 0.854428
O O3 0.273238 0.249953 0.889235
O O4 0.323471 0.116534 0.842875
O O5 0.593329 0.392715 0.250000
O O6 0.572699 0.324676 0.384537
O O7 0.588253 0.481982 0.367518
O O8 0.761884 0.630066 0.034568
O O9 0.644177 0.621822 0.121366
O O10 0.636963 0.710235 0.007408
O O11 0.939311 0.546603 0.680787
O O12 0.500000 0.755597 0.518810
O O13 0.612116 0.821955 0.583221
O O14 0.616475 0.913789 0.467428
O O15 0.654821 0.968065 0.603863
O O16 0.584732 0.424459 0.750000
O O17 0.500000 0.401088 0.635275
#
# Coordination Sequence:
#
# PCOD9475085 Si02
#       8
#    16  16  16   4  16  16  16  16
#     4  11  21  41  67 100 135 175 233 287 345 411
#     4  10  22  42  66  90 131 179 226 281 339 407
#     4  12  23  43  69 104 139 181 232 290 348 434
#     4  12  28  50  72 104 140 178 246 298 360 438
#     4  12  25  41  66 101 135 179 225 286 347 422
#     4  11  25  45  73  97 142 181 238 286 362 419
#     4  10  22  42  67 100 142 186 230 288 357 425
#     4  11  25  46  70 101 132 187 226 295 351 428
#
# _framework density 20.596422
#
# number of rings (size 3 to 8) (size 9 to 14) (size 15 to 20)
#    0.000    0.966    3.448    3.310    1.931    3.034 
#    4.966    1.379    0.000    0.000    0.000    0.000 
#    0.000    0.000    0.000    0.000    0.000    0.000 
#
# Total GULP energy -323260.947133 kJ/mol
# GULP energy per Si atom -5573.464606 kJ/mol
# Density = 2.054954 g / cm^3
# Si number density = 20.596422 Si / 1000 Ang^3
#
#
#
# Elastic Constant Matrix: (Units=GPa)
#
#
# Indices 1 2 3 4 5 6 
#
# 1 120.0959 35.4979 36.8341 0.0000 0.0000 0.0000
# 2 35.4979 103.8343 23.7502 0.0000 0.0000 0.0000
# 3 36.8341 23.7502 46.2398 0.0000 0.0000 0.0000
# 4 0.0000 0.0000 0.0000 23.5878 0.0000 0.0000
# 5 0.0000 0.0000 0.0000 0.0000 34.7755 0.0000
# 6 0.0000 0.0000 0.0000 0.0000 0.0000 -37.4132
#
#
#
# Elastic Compliance Matrix: (Units=1/GPa)
#
#
# Indices 1 2 3 4 5 6 
#
# 1 0.011395 -0.002062 -0.008018 0.000000 0.000000 0.000000
# 2 -0.002062 0.011286 -0.004154 0.000000 0.000000 0.000000
# 3 -0.008018 -0.004154 0.030148 0.000000 0.000000 0.000000
# 4 0.000000 0.000000 0.000000 0.042395 0.000000 0.000000
# 5 0.000000 0.000000 0.000000 0.000000 0.028756 0.000000
# 6 0.000000 0.000000 0.000000 0.000000 0.000000 -0.026729
#
#
# Mechanical properties :
#
#
# Convention : Reuss Voigt Hill
#
# Bulk Modulus (GPa) = 41.05145 51.37048 46.21096
# Shear Modulus (GPa) = 37.35800 15.79586 26.57693
#
# Velocity S-wave (km/s) = 4.26351 2.77234 3.59606
# Velocity P-wave (km/s) = 6.64915 5.93662 6.30296
#
# Compressibility (1/GPa) = 0.02435968
#
# Stress axis : x y z
#
# Youngs Moduli (GPa) = 87.75488 88.60687 33.17006
#
# Poissons Ratio (x) = 0.18268 0.26597
# Poissons Ratio (y) = 0.18092 0.13780
# Poissons Ratio (z) = 0.70366 0.36811
#
# Static dielectric constant tensor:
#      x y z
#    x 1.747920 0.000000 0.000000 
#    y 0.000000 1.724980 0.000000 
#    z 0.000000 0.000000 1.778030 
# 
# From -- ./inp_files/45932.got.cif
#   From: 2010.05.17/outbox.cif.g08.bks.cpg/sg63_23_cif.got.tgz:45932.got - 2010.06.03 15:47:04.
