data_PCOD9475258
_publ_section_title
;
Structure prediction by ZEFSAII (Michael W. Deem and Ramdas Pophale) SiO2 
 PCOD9475258
Probable space group: C M C M
;
_chemical_formula_sum "Si O2"
_cell_formula_units_Z 96
_cell_length_a 21.855252
_cell_length_b 9.657824
_cell_length_c 23.208984
_cell_angle_alpha 90.000000
_cell_angle_beta 90.000000
_cell_angle_gamma 90.000000
_cell_volume 4898.817204
_symmetry_space_group_name_H-M "C M C M"
_symmetry_group_IT_number 63
_symmetry_cell_setting 'orthorhombic'
loop_
_space_group_symop_operation_xyz
x,y,z
-x,-y,1/2+z
x,-y,-z
-x,y,1/2-z
-x,-y,-z
x,y,1/2-z
-x,y,z
x,-y,1/2+z
1/2+x,1/2+y,z
1/2-x,1/2-y,1/2+z
1/2+x,1/2-y,-z
1/2-x,1/2+y,1/2-z
1/2-x,1/2-y,-z
1/2+x,1/2+y,1/2-z
1/2-x,1/2+y,z
1/2+x,1/2-y,1/2+z
loop_
_atom_site_type_symbol
_atom_site_label
_atom_site_fract_x
_atom_site_fract_y
_atom_site_fract_z
Si Si1 0.375953 0.518778 0.066120
Si Si2 0.341386 0.259985 0.140021
Si Si3 0.429772 0.024160 0.317210
Si Si4 0.728158 0.611486 0.750000
Si Si5 0.929150 0.221950 0.151894
Si Si6 0.239417 0.620317 0.458357
Si Si7 0.167679 0.821721 0.750000
O O1 0.375854 0.378615 0.103462
O O2 0.417398 0.635203 0.094931
O O3 0.304780 0.566454 0.064473
O O4 0.393860 0.500000 0.000000
O O5 0.303443 0.330698 0.191781
O O6 0.299739 0.173880 0.095228
O O7 0.386896 0.150569 0.168162
O O8 0.423704 0.983724 0.250000
O O9 0.500000 0.064866 0.326605
O O10 0.417248 0.885746 0.353498
O O11 0.795991 0.676331 0.750000
O O12 0.717283 0.446090 0.750000
O O13 0.878041 0.167278 0.196151
O O14 0.000000 0.207213 0.171622
O O15 0.212795 0.500000 0.500000
O O16 0.250000 0.750000 0.500000
#
# Coordination Sequence:
#
# PCOD9475258 Si02
#       7
#    16  16  16   8  16  16   8
#     4  11  24  44  65  98 133 176 231 277 336 402
#     4  12  24  42  65  98 138 169 220 277 345 396
#     4  10  23  43  67  97 131 175 223 274 340 406
#     4  12  28  40  63 109 137 173 206 285 345 399
#     4  11  24  45  71  96 134 183 228 278 332 401
#     4  11  23  42  67  95 130 182 225 270 334 410
#     4  12  25  44  67 101 140 177 222 267 345 415
#
# _framework density 19.596567
#
# number of rings (size 3 to 8) (size 9 to 14) (size 15 to 20)
#    0.000    0.833    6.667    1.250    4.667    1.000 
#    0.000    0.000    0.000    2.500    0.000    0.000 
#    0.000    0.000    0.000    0.000    0.000    0.000 
#
# Total GULP energy -268252.504457 kJ/mol
# GULP energy per Si atom -5588.593843 kJ/mol
# Density = 1.955196 g / cm^3
# Si number density = 19.596567 Si / 1000 Ang^3
#
#
#
# Elastic Constant Matrix: (Units=GPa)
#
#
# Indices 1 2 3 4 5 6 
#
# 1 53.2344 21.4534 8.3311 0.0000 0.0000 0.0000
# 2 21.4534 68.4907 3.6663 0.0000 0.0000 0.0000
# 3 8.3311 3.6663 71.0231 0.0000 0.0000 0.0000
# 4 0.0000 0.0000 0.0000 37.7501 0.0000 0.0000
# 5 0.0000 0.0000 0.0000 0.0000 18.3218 0.0000
# 6 0.0000 0.0000 0.0000 0.0000 0.0000 26.0386
#
#
#
# Elastic Compliance Matrix: (Units=1/GPa)
#
#
# Indices 1 2 3 4 5 6 
#
# 1 0.021841 -0.006723 -0.002215 0.000000 0.000000 0.000000
# 2 -0.006723 0.016710 -0.000074 0.000000 0.000000 0.000000
# 3 -0.002215 -0.000074 0.014344 0.000000 0.000000 0.000000
# 4 0.000000 0.000000 0.000000 0.026490 0.000000 0.000000
# 5 0.000000 0.000000 0.000000 0.000000 0.054580 0.000000
# 6 0.000000 0.000000 0.000000 0.000000 0.000000 0.038404
#
#
# Mechanical properties :
#
#
# Convention : Reuss Voigt Hill
#
# Bulk Modulus (GPa) = 28.67684 28.84998 28.76341
# Shear Modulus (GPa) = 24.75054 27.04192 25.89623
#
# Velocity S-wave (km/s) = 3.55773 3.71877 3.63914
# Velocity P-wave (km/s) = 5.61622 5.76133 5.68924
#
# Compressibility (1/GPa) = 0.03487135
#
# Stress axis : x y z
#
# Youngs Moduli (GPa) = 45.78607 59.84363 69.71772
#
# Poissons Ratio (x) = 0.40231 0.15442
# Poissons Ratio (y) = 0.30780 0.00516
# Poissons Ratio (z) = 0.10141 0.00443
#
# Static dielectric constant tensor:
#      x y z
#    x 1.677530 0.000000 0.000000 
#    y 0.000000 1.690870 0.000000 
#    z 0.000000 0.000000 1.695660 
# 
# From -- ./inp_files/65015.got.cif
#   From: 2010.05.17/outbox.cif.g08.bks.cpg/sg63_33_cif.got.tgz:65015.got - 2010.06.03 15:47:04.
