data_PCOD9475904
_publ_section_title
;
Structure prediction by ZEFSAII (Michael W. Deem and Ramdas Pophale) SiO2 
 PCOD9475904
Probable space group: C M C M
;
_chemical_formula_sum "Si O2"
_cell_formula_units_Z 96
_cell_length_a 13.969660
_cell_length_b 21.795780
_cell_length_c 15.686593
_cell_angle_alpha 90.000000
_cell_angle_beta 90.000000
_cell_angle_gamma 90.000000
_cell_volume 4776.248127
_symmetry_space_group_name_H-M "C M C M"
_symmetry_group_IT_number 63
_symmetry_cell_setting 'orthorhombic'
loop_
_space_group_symop_operation_xyz
x,y,z
-x,-y,1/2+z
x,-y,-z
-x,y,1/2-z
-x,-y,-z
x,y,1/2-z
-x,y,z
x,-y,1/2+z
1/2+x,1/2+y,z
1/2-x,1/2-y,1/2+z
1/2+x,1/2-y,-z
1/2-x,1/2+y,1/2-z
1/2-x,1/2-y,-z
1/2+x,1/2+y,1/2-z
1/2-x,1/2+y,z
1/2+x,1/2-y,1/2+z
loop_
_atom_site_type_symbol
_atom_site_label
_atom_site_fract_x
_atom_site_fract_y
_atom_site_fract_z
Si Si1 0.794256 0.500189 0.398539
Si Si2 0.213232 0.682984 0.014065
Si Si3 0.000000 0.831992 0.110065
Si Si4 0.500000 0.182177 0.419513
Si Si5 0.500000 0.040414 0.148567
Si Si6 0.500000 0.568453 0.043098
Si Si7 0.789787 0.124684 0.657264
Si Si8 0.322028 0.390148 0.653567
O O1 0.770767 0.500000 0.500000
O O2 0.734032 0.446836 0.353356
O O3 0.761791 0.560606 0.349637
O O4 0.908163 0.504430 0.389095
O O5 0.277014 0.661318 0.093746
O O6 0.100962 0.678543 0.032158
O O7 0.250000 0.750000 0.000000
O O8 0.238169 0.649209 0.926762
O O9 0.099064 0.855470 0.151487
O O10 0.000000 0.756164 0.110644
O O11 0.000000 0.872874 0.021968
O O12 0.500000 0.115243 0.369344
O O13 0.500000 0.033313 0.250000
O O14 0.591227 0.577948 0.103457
O O15 0.500000 0.500000 0.000000
O O16 0.753574 0.145682 0.750000
O O17 0.346325 0.372203 0.750000
#
# Coordination Sequence:
#
# PCOD9475904 Si02
#       8
#    16  16   8   8   8   8  16  16
#     4  12  23  44  67  98 142 187 234 294 364 427
#     4  12  25  47  70 103 143 187 237 295 365 430
#     4  12  23  46  73 104 141 192 247 298 357 424
#     4  12  24  45  77 101 139 192 244 296 354 425
#     4  12  25  41  68 106 139 185 246 299 354 429
#     4  12  23  42  72 103 147 198 244 296 371 439
#     4  12  25  43  70 104 144 187 236 298 360 425
#     4  12  24  42  69 102 141 188 243 300 360 430
#
# _framework density 20.099459
#
# number of rings (size 3 to 8) (size 9 to 14) (size 15 to 20)
#    0.000    0.000    6.667    3.750    0.000    2.000 
#    0.000    3.750    0.000    0.000    0.000    0.000 
#    0.000    0.000    0.000    0.000    0.000    0.000 
#
# Total GULP energy -267502.937545 kJ/mol
# GULP energy per Si atom -5572.977866 kJ/mol
# Density = 2.005371 g / cm^3
# Si number density = 20.099459 Si / 1000 Ang^3
#
#
#
# Elastic Constant Matrix: (Units=GPa)
#
#
# Indices 1 2 3 4 5 6 
#
# 1 136.5443 12.4726 36.0448 0.0000 0.0000 0.0000
# 2 12.4726 99.3357 35.4503 0.0000 0.0000 0.0000
# 3 36.0448 35.4503 160.5232 0.0000 0.0000 0.0000
# 4 0.0000 0.0000 0.0000 -25.8802 0.0000 0.0000
# 5 0.0000 0.0000 0.0000 0.0000 20.8766 0.0000
# 6 0.0000 0.0000 0.0000 0.0000 0.0000 36.9432
#
#
#
# Elastic Compliance Matrix: (Units=1/GPa)
#
#
# Indices 1 2 3 4 5 6 
#
# 1 0.007799 -0.000385 -0.001666 0.000000 0.000000 0.000000
# 2 -0.000385 0.010947 -0.002331 0.000000 0.000000 0.000000
# 3 -0.001666 -0.002331 0.007119 0.000000 0.000000 0.000000
# 4 0.000000 0.000000 0.000000 -0.038640 0.000000 0.000000
# 5 0.000000 0.000000 0.000000 0.000000 0.047901 0.000000
# 6 0.000000 0.000000 0.000000 0.000000 0.000000 0.027069
#
#
# Mechanical properties :
#
#
# Convention : Reuss Voigt Hill
#
# Bulk Modulus (GPa) = 58.47850 62.70428 60.59139
# Shear Modulus (GPa) = 65.22474 27.21695 46.22085
#
# Velocity S-wave (km/s) = 5.70276 3.68382 4.80062
# Velocity P-wave (km/s) = 8.51585 7.02558 7.80636
#
# Compressibility (1/GPa) = 0.01710030
#
# Stress axis : x y z
#
# Youngs Moduli (GPa) = 128.22806 91.34823 140.47700
#
# Poissons Ratio (x) = 0.03513 0.23406
# Poissons Ratio (y) = 0.04931 0.32748
# Poissons Ratio (z) = 0.21366 0.21295
#
# Static dielectric constant tensor:
#      x y z
#    x 1.716630 0.000000 0.000000 
#    y 0.000000 1.702660 0.000000 
#    z 0.000000 0.000000 1.575020 
# 
# From -- ./inp_files/32037.got.cif
#   From: 2010.05.17/outbox.cif.g08.bks.cpg/sg63_17_cif.got.tgz:32037.got - 2010.06.03 15:47:04.
