data_PCOD9475997
_publ_section_title
;
Structure prediction by ZEFSAII (Michael W. Deem and Ramdas Pophale) SiO2 
 PCOD9475997
Probable space group: C M C M
;
_chemical_formula_sum "Si O2"
_cell_formula_units_Z 96
_cell_length_a 9.806468
_cell_length_b 32.168679
_cell_length_c 14.966280
_cell_angle_alpha 90.000000
_cell_angle_beta 90.000000
_cell_angle_gamma 90.000000
_cell_volume 4721.279469
_symmetry_space_group_name_H-M "C M C M"
_symmetry_group_IT_number 63
_symmetry_cell_setting 'orthorhombic'
loop_
_space_group_symop_operation_xyz
x,y,z
-x,-y,1/2+z
x,-y,-z
-x,y,1/2-z
-x,-y,-z
x,y,1/2-z
-x,y,z
x,-y,1/2+z
1/2+x,1/2+y,z
1/2-x,1/2-y,1/2+z
1/2+x,1/2-y,-z
1/2-x,1/2+y,1/2-z
1/2-x,1/2-y,-z
1/2+x,1/2+y,1/2-z
1/2-x,1/2+y,z
1/2+x,1/2-y,1/2+z
loop_
_atom_site_type_symbol
_atom_site_label
_atom_site_fract_x
_atom_site_fract_y
_atom_site_fract_z
Si Si1 0.345021 0.921120 0.595583
Si Si2 0.656622 0.495906 0.890705
Si Si3 0.347239 0.165185 0.643990
Si Si4 0.334809 0.170080 0.146306
Si Si5 0.657419 0.739322 0.640219
Si Si6 0.344917 0.929115 0.384576
O O1 0.500000 0.923844 0.633307
O O2 0.240127 0.954433 0.634371
O O3 0.296667 0.873356 0.601555
O O4 0.354886 0.932080 0.491459
O O5 0.500000 0.494955 0.861603
O O6 0.740905 0.535492 0.855755
O O7 0.654277 0.500000 0.000000
O O8 0.358826 0.172623 0.750000
O O9 0.500000 0.167201 0.603730
O O10 0.248852 0.200951 0.609132
O O11 0.298348 0.117860 0.634619
O O12 0.294783 0.166514 0.250000
O O13 0.500000 0.172344 0.143090
O O14 0.288321 0.215159 0.112081
O O15 0.656953 0.740017 0.750000
O O16 0.500000 0.734234 0.612777
O O17 0.500000 0.934182 0.350003
#
# Coordination Sequence:
#
# PCOD9475997 Si02
#       6
#    16  16  16  16  16  16
#     4   9  16  28  47  66  84 109 141 175 208 245
#     4   9  17  29  45  64  86 112 141 172 208 252
#     4   9  17  29  44  62  85 112 142 176 211 246
#     4   8  14  26  45  67  87 109 140 174 206 245
#     4   8  14  26  44  63  83 110 143 173 203 247
#     4   9  17  29  45  64  84 109 143 177 208 246
#
# _framework density 20.333469999999998
#
# number of rings (size 3 to 8) (size 9 to 14) (size 15 to 20)
#    0.000    3.333    0.000    1.500    0.000    2.667 
#    0.000    2.500    0.000    6.500    0.000    0.000 
#    0.000    0.000    0.000    0.000    0.000    0.000 
#
# Total GULP energy -267504.077651 kJ/mol
# GULP energy per Si atom -5573.001618 kJ/mol
# Density = 2.028719 g / cm^3
# Si number density = 20.333470 Si / 1000 Ang^3
#
#
#
# Elastic Constant Matrix: (Units=GPa)
#
#
# Indices 1 2 3 4 5 6 
#
# 1 98.4411 115.6036 7.8486 0.0000 0.0000 0.0000
# 2 115.6036 210.6292 -1.0455 0.0000 0.0000 0.0000
# 3 7.8486 -1.0455 40.4186 0.0000 0.0000 0.0000
# 4 0.0000 0.0000 0.0000 21.4114 0.0000 0.0000
# 5 0.0000 0.0000 0.0000 0.0000 1.9232 0.0000
# 6 0.0000 0.0000 0.0000 0.0000 0.0000 34.8703
#
#
#
# Elastic Compliance Matrix: (Units=1/GPa)
#
#
# Indices 1 2 3 4 5 6 
#
# 1 0.030087 -0.016544 -0.006270 0.000000 0.000000 0.000000
# 2 -0.016544 0.013846 0.003571 0.000000 0.000000 0.000000
# 3 -0.006270 0.003571 0.026051 0.000000 0.000000 0.000000
# 4 0.000000 0.000000 0.000000 0.046704 0.000000 0.000000
# 5 0.000000 0.000000 0.000000 0.000000 0.519972 0.000000
# 6 0.000000 0.000000 0.000000 0.000000 0.000000 0.028678
#
#
# Mechanical properties :
#
#
# Convention : Reuss Voigt Hill
#
# Bulk Modulus (GPa) = 31.75010 66.03360 48.89185
# Shear Modulus (GPa) = 6.99963 26.77979 16.88971
#
# Velocity S-wave (km/s) = 1.85739 3.63303 2.88520
# Velocity P-wave (km/s) = 4.49983 7.08127 5.93266
#
# Compressibility (1/GPa) = 0.03149596
#
# Stress axis : x y z
#
# Youngs Moduli (GPa) = 33.23691 72.22430 38.38623
#
# Poissons Ratio (x) = 1.19490 0.24069
# Poissons Ratio (y) = 0.54988 -0.13707
# Poissons Ratio (z) = 0.20841 -0.25790
#
# Static dielectric constant tensor:
#      x y z
#    x 1.704300 0.000000 0.000000 
#    y 0.000000 1.722710 0.000000 
#    z 0.000000 0.000000 1.781360 
# 
# From -- ./inp_files/60261.got.cif
#   From: 2010.05.17/outbox.cif.g08.bks.cpg/sg63_31_cif.got.tgz:60261.got - 2010.06.03 15:47:04.
