data_PCOD9475475
_publ_section_title
;
Structure prediction by ZEFSAII (Michael W. Deem and Ramdas Pophale) SiO2 
 PCOD9475475
Probable space group: C M C M
;
_chemical_formula_sum "Si O2"
_cell_formula_units_Z 68
_cell_length_a 13.488334
_cell_length_b 18.999735
_cell_length_c 13.483738
_cell_angle_alpha 90.000000
_cell_angle_beta 90.000000
_cell_angle_gamma 90.000000
_cell_volume 3455.541876
_symmetry_space_group_name_H-M "C M C M"
_symmetry_group_IT_number 63
_symmetry_cell_setting 'orthorhombic'
loop_
_space_group_symop_operation_xyz
x,y,z
-x,-y,1/2+z
x,-y,-z
-x,y,1/2-z
-x,-y,-z
x,y,1/2-z
-x,y,z
x,-y,1/2+z
1/2+x,1/2+y,z
1/2-x,1/2-y,1/2+z
1/2+x,1/2-y,-z
1/2-x,1/2+y,1/2-z
1/2-x,1/2-y,-z
1/2+x,1/2+y,1/2-z
1/2-x,1/2+y,z
1/2+x,1/2-y,1/2+z
loop_
_atom_site_type_symbol
_atom_site_label
_atom_site_fract_x
_atom_site_fract_y
_atom_site_fract_z
Si Si1 0.621754 0.725623 0.250000
Si Si2 0.000000 0.952242 0.250000
Si Si3 0.346306 0.890200 0.250000
Si Si4 0.391137 0.917897 0.027524
Si Si5 0.794422 0.015272 0.250000
Si Si6 0.201521 0.125392 0.079841
Si Si7 0.500000 0.582178 0.529074
O O1 0.500000 0.719595 0.250000
O O2 0.653672 0.806461 0.250000
O O3 0.669557 0.687496 0.154260
O O4 0.089864 0.005780 0.250000
O O5 0.000000 0.909888 0.147719
O O6 0.394012 0.912516 0.146230
O O7 0.246780 0.936588 0.250000
O O8 0.500000 0.896248 0.988158
O O9 0.299726 0.870803 0.987882
O O10 0.376256 0.000000 0.000000
O O11 0.771056 0.059976 0.347440
O O12 0.102635 0.111042 0.015982
O O13 0.500000 0.500000 0.500000
#
# Coordination Sequence:
#
# PCOD9475475 Si02
#       7
#     8   4   8  16   8  16   8
#     4  11  25  45  68  96 136 180 223 269 331 416
#     4  12  22  30  60 102 132 156 210 278 336 380
#     4  12  24  43  67  96 130 175 226 275 326 406
#     4  11  23  41  66  97 131 172 224 281 330 386
#     4  11  20  37  64  98 131 163 223 279 321 391
#     4  11  22  41  66  99 130 177 221 271 339 385
#     4  12  20  34  64 100 134 166 207 279 333 390
#
# _framework density 19.678535
#
# number of rings (size 3 to 8) (size 9 to 14) (size 15 to 20)
#    0.000    0.706    5.882    3.176    1.647    0.941 
#    0.000    2.353    2.588    0.000    0.000    0.000 
#    0.000    0.000    0.000    0.000    0.000    0.000 
#
# Total GULP energy -189671.067937 kJ/mol
# GULP energy per Si atom -5578.560822 kJ/mol
# Density = 1.963375 g / cm^3
# Si number density = 19.678535 Si / 1000 Ang^3
#
#
#
# Elastic Constant Matrix: (Units=GPa)
#
#
# Indices 1 2 3 4 5 6 
#
# 1 135.7685 37.5656 46.6511 0.0000 0.0000 0.0000
# 2 37.5656 108.6938 50.7353 0.0000 0.0000 0.0000
# 3 46.6511 50.7353 155.9965 0.0000 0.0000 0.0000
# 4 0.0000 0.0000 0.0000 30.6237 0.0000 0.0000
# 5 0.0000 0.0000 0.0000 0.0000 11.1969 0.0000
# 6 0.0000 0.0000 0.0000 0.0000 0.0000 115.1406
#
#
#
# Elastic Compliance Matrix: (Units=1/GPa)
#
#
# Indices 1 2 3 4 5 6 
#
# 1 0.008593 -0.002087 -0.001891 0.000000 0.000000 0.000000
# 2 -0.002087 0.011354 -0.003068 0.000000 0.000000 0.000000
# 3 -0.001891 -0.003068 0.007974 0.000000 0.000000 0.000000
# 4 0.000000 0.000000 0.000000 0.032654 0.000000 0.000000
# 5 0.000000 0.000000 0.000000 0.000000 0.089310 0.000000
# 6 0.000000 0.000000 0.000000 0.000000 0.000000 0.008685
#
#
# Mechanical properties :
#
#
# Convention : Reuss Voigt Hill
#
# Bulk Modulus (GPa) = 72.32022 74.48477 73.40250
# Shear Modulus (GPa) = 28.20525 49.09270 38.64897
#
# Velocity S-wave (km/s) = 3.79000 5.00015 4.43653
# Velocity P-wave (km/s) = 7.48216 8.44205 7.97656
#
# Compressibility (1/GPa) = 0.01382739
#
# Stress axis : x y z
#
# Youngs Moduli (GPa) = 116.37825 88.07660 125.41013
#
# Poissons Ratio (x) = 0.18382 0.23713
# Poissons Ratio (y) = 0.24289 0.38482
# Poissons Ratio (z) = 0.22006 0.27026
#
# Static dielectric constant tensor:
#      x y z
#    x 1.713230 0.000000 0.000000 
#    y 0.000000 1.690020 0.000000 
#    z 0.000000 0.000000 1.646800 
# 
# From -- ./inp_files/19211.got.cif
#   From: 2010.05.17/outbox.cif.g08.bks.cpg/sg63_10_cif.got.tgz:19211.got - 2010.06.03 15:47:04.
