data_PCOD9475718
_publ_section_title
;
Structure prediction by ZEFSAII (Michael W. Deem and Ramdas Pophale) SiO2 
 PCOD9475718
Probable space group: C M C M
;
_chemical_formula_sum "Si O2"
_cell_formula_units_Z 112
_cell_length_a 25.883632
_cell_length_b 14.663317
_cell_length_c 15.123409
_cell_angle_alpha 90.000000
_cell_angle_beta 90.000000
_cell_angle_gamma 90.000000
_cell_volume 5739.937157
_symmetry_space_group_name_H-M "C M C M"
_symmetry_group_IT_number 63
_symmetry_cell_setting 'orthorhombic'
loop_
_space_group_symop_operation_xyz
x,y,z
-x,-y,1/2+z
x,-y,-z
-x,y,1/2-z
-x,-y,-z
x,y,1/2-z
-x,y,z
x,-y,1/2+z
1/2+x,1/2+y,z
1/2-x,1/2-y,1/2+z
1/2+x,1/2-y,-z
1/2-x,1/2+y,1/2-z
1/2-x,1/2-y,-z
1/2+x,1/2+y,1/2-z
1/2-x,1/2+y,z
1/2+x,1/2-y,1/2+z
loop_
_atom_site_type_symbol
_atom_site_label
_atom_site_fract_x
_atom_site_fract_y
_atom_site_fract_z
Si Si1 0.791603 0.340814 0.851923
Si Si2 0.791306 0.010250 0.394348
Si Si3 0.061761 0.761976 0.980420
Si Si4 0.061687 0.873449 0.150371
Si Si5 0.232459 0.341333 0.351351
Si Si6 0.141432 0.392333 0.012782
Si Si7 0.596139 0.575761 0.352468
O O1 0.807200 0.328678 0.750000
O O2 0.757146 0.430987 0.862756
O O3 0.754154 0.257227 0.877322
O O4 0.837562 0.352908 0.920173
O O5 0.781108 0.909863 0.357053
O O6 0.792383 0.000000 0.500000
O O7 0.842653 0.060409 0.362777
O O8 0.076471 0.841124 0.910993
O O9 0.000000 0.748755 0.980485
O O10 0.078860 0.803241 0.075600
O O11 0.092524 0.669197 0.961143
O O12 0.083080 0.860575 0.250000
O O13 0.000000 0.864480 0.155581
O O14 0.073241 0.977159 0.121327
O O15 0.213854 0.337777 0.250000
O O16 0.187681 0.375848 0.416635
O O17 0.131511 0.500000 0.000000
O O18 0.582888 0.591208 0.250000
#
# Coordination Sequence:
#
# PCOD9475718 Si02
#       7
#    16  16  16  16  16  16  16
#     4  11  23  39  61  89 124 166 207 251 310 375
#     4  12  22  37  60  92 132 168 199 247 299 370
#     4  11  25  43  65  90 122 164 216 272 321 372
#     4   9  19  38  63  92 126 161 203 259 321 382
#     4  11  23  39  62  92 127 165 206 251 305 372
#     4  12  25  43  64  88 120 166 216 267 319 363
#     4  11  23  37  61  97 134 169 204 247 310 387
#
# _framework density 19.512408000000001
#
# number of rings (size 3 to 8) (size 9 to 14) (size 15 to 20)
#    0.000    1.000    2.857    4.286    4.000    4.571 
#    0.000    0.000    0.000    0.000    0.000    4.000 
#    0.000    0.000    0.000    0.000    0.000    0.000 
#
# Total GULP energy -313033.297840 kJ/mol
# GULP energy per Si atom -5589.880319 kJ/mol
# Density = 1.946800 g / cm^3
# Si number density = 19.512408 Si / 1000 Ang^3
#
#
#
# Elastic Constant Matrix: (Units=GPa)
#
#
# Indices 1 2 3 4 5 6 
#
# 1 56.8178 43.9589 30.1860 0.0000 0.0000 0.0000
# 2 43.9589 113.7780 48.1663 0.0000 0.0000 0.0000
# 3 30.1860 48.1663 75.6458 0.0000 0.0000 0.0000
# 4 0.0000 0.0000 0.0000 154.1134 0.0000 0.0000
# 5 0.0000 0.0000 0.0000 0.0000 1.0807 0.0000
# 6 0.0000 0.0000 0.0000 0.0000 0.0000 41.2957
#
#
#
# Elastic Compliance Matrix: (Units=1/GPa)
#
#
# Indices 1 2 3 4 5 6 
#
# 1 0.026732 -0.007957 -0.005601 0.000000 0.000000 0.000000
# 2 -0.007957 0.014401 -0.005994 0.000000 0.000000 0.000000
# 3 -0.005601 -0.005994 0.019271 0.000000 0.000000 0.000000
# 4 0.000000 0.000000 0.000000 0.006489 0.000000 0.000000
# 5 0.000000 0.000000 0.000000 0.000000 0.925354 0.000000
# 6 0.000000 0.000000 0.000000 0.000000 0.000000 0.024216
#
#
# Mechanical properties :
#
#
# Convention : Reuss Voigt Hill
#
# Bulk Modulus (GPa) = 46.94863 54.54045 50.74454
# Shear Modulus (GPa) = 4.70515 47.55997 26.13256
#
# Velocity S-wave (km/s) = 1.55454 4.94238 3.66359
# Velocity P-wave (km/s) = 5.22831 7.78344 6.63013
#
# Compressibility (1/GPa) = 0.02129988
#
# Stress axis : x y z
#
# Youngs Moduli (GPa) = 37.40859 69.43988 51.89089
#
# Poissons Ratio (x) = 0.55254 0.29062
# Poissons Ratio (y) = 0.29766 0.31105
# Poissons Ratio (z) = 0.20951 0.41625
#
# Static dielectric constant tensor:
#      x y z
#    x 1.686270 0.000000 0.000000 
#    y 0.000000 1.663090 0.000000 
#    z 0.000000 0.000000 1.733670 
# 
# From -- ./inp_files/36862.got.cif
#   From: 2010.05.17/outbox.cif.g08.bks.cpg/sg63_19_cif.got.tgz:36862.got - 2010.06.03 15:47:04.
