data_PCOD9475517
_publ_section_title
;
Structure prediction by ZEFSAII (Michael W. Deem and Ramdas Pophale) SiO2 
 PCOD9475517
Probable space group: C M C M
;
_chemical_formula_sum "Si O2"
_cell_formula_units_Z 104
_cell_length_a 26.523624
_cell_length_b 22.178801
_cell_length_c 8.027414
_cell_angle_alpha 90.000000
_cell_angle_beta 90.000000
_cell_angle_gamma 90.000000
_cell_volume 4722.224047
_symmetry_space_group_name_H-M "C M C M"
_symmetry_group_IT_number 63
_symmetry_cell_setting 'orthorhombic'
loop_
_space_group_symop_operation_xyz
x,y,z
-x,-y,1/2+z
x,-y,-z
-x,y,1/2-z
-x,-y,-z
x,y,1/2-z
-x,y,z
x,-y,1/2+z
1/2+x,1/2+y,z
1/2-x,1/2-y,1/2+z
1/2+x,1/2-y,-z
1/2-x,1/2+y,1/2-z
1/2-x,1/2-y,-z
1/2+x,1/2+y,1/2-z
1/2-x,1/2+y,z
1/2+x,1/2-y,1/2+z
loop_
_atom_site_type_symbol
_atom_site_label
_atom_site_fract_x
_atom_site_fract_y
_atom_site_fract_z
Si Si1 0.220741 0.163635 0.058166
Si Si2 0.707407 0.934511 0.555202
Si Si3 0.360925 0.249222 0.953626
Si Si4 0.057712 0.849894 0.548376
Si Si5 0.108112 0.383102 0.448266
Si Si6 0.358655 0.568226 0.944041
Si Si7 0.500000 0.069848 0.447474
O O1 0.233173 0.178110 0.250000
O O2 0.266332 0.125426 0.977605
O O3 0.192289 0.222395 0.985630
O O4 0.176558 0.112946 0.050213
O O5 0.717466 0.931126 0.750000
O O6 0.648109 0.929645 0.522657
O O7 0.726538 0.000000 0.500000
O O8 0.358790 0.249051 0.750000
O O9 0.406397 0.294086 0.001071
O O10 0.375028 0.182767 0.011164
O O11 0.058805 0.853655 0.750000
O O12 0.084652 0.908654 0.474728
O O13 0.000000 0.842314 0.496233
O O14 0.114011 0.384275 0.250000
O O15 0.050802 0.398746 0.488692
O O16 0.345412 0.575036 0.750000
O O17 0.352540 0.500000 0.000000
O O18 0.500000 0.072769 0.250000
O O19 0.500000 0.000000 0.500000
#
# Coordination Sequence:
#
# PCOD9475517 Si02
#       7
#    16  16  16  16  16  16   8
#     4   9  19  38  61  85 116 156 198 242 290 348
#     4  11  23  39  61  89 123 159 201 249 300 352
#     4   8  17  35  60  88 117 153 196 237 288 355
#     4   9  18  34  56  78 105 145 190 239 291 351
#     4  11  23  40  65  94 124 159 200 243 297 364
#     4  11  21  33  51  76 109 147 191 243 296 353
#     4  12  26  46  68  92 124 160 203 254 307 358
#
# _framework density 22.023520999999999
#
# number of rings (size 3 to 8) (size 9 to 14) (size 15 to 20)
#    0.000    2.000    0.000    4.846    1.077    3.692 
#    0.000    6.154    0.000    0.000    0.000    0.000 
#    0.000    0.000    0.000    0.000    0.000    0.000 
#
# Total GULP energy -290475.433224 kJ/mol
# GULP energy per Si atom -5586.066024 kJ/mol
# Density = 2.197339 g / cm^3
# Si number density = 22.023521 Si / 1000 Ang^3
#
#
#
# Elastic Constant Matrix: (Units=GPa)
#
#
# Indices 1 2 3 4 5 6 
#
# 1 127.7754 34.2230 -6.6357 0.0000 0.0000 0.0000
# 2 34.2230 121.4280 -0.5121 0.0000 0.0000 0.0000
# 3 -6.6357 -0.5121 43.3288 0.0000 0.0000 0.0000
# 4 0.0000 0.0000 0.0000 17.4750 0.0000 0.0000
# 5 0.0000 0.0000 0.0000 0.0000 20.2840 0.0000
# 6 0.0000 0.0000 0.0000 0.0000 0.0000 26.1652
#
#
#
# Elastic Compliance Matrix: (Units=1/GPa)
#
#
# Indices 1 2 3 4 5 6 
#
# 1 0.008536 -0.002400 0.001279 0.000000 0.000000 0.000000
# 2 -0.002400 0.008911 -0.000262 0.000000 0.000000 0.000000
# 3 0.001279 -0.000262 0.023272 0.000000 0.000000 0.000000
# 4 0.000000 0.000000 0.000000 0.057225 0.000000 0.000000
# 5 0.000000 0.000000 0.000000 0.000000 0.049300 0.000000
# 6 0.000000 0.000000 0.000000 0.000000 0.000000 0.038219
#
#
# Mechanical properties :
#
#
# Convention : Reuss Voigt Hill
#
# Bulk Modulus (GPa) = 26.34981 38.52027 32.43504
# Shear Modulus (GPa) = 24.89056 30.48197 27.68627
#
# Velocity S-wave (km/s) = 3.36546 3.72434 3.54944
# Velocity P-wave (km/s) = 5.20501 6.00189 5.61760
#
# Compressibility (1/GPa) = 0.03795094
#
# Stress axis : x y z
#
# Youngs Moduli (GPa) = 117.15748 112.22458 42.96996
#
# Poissons Ratio (x) = 0.26937 -0.05495
# Poissons Ratio (y) = 0.28121 0.01127
# Poissons Ratio (z) = -0.14982 0.02943
#
# Static dielectric constant tensor:
#      x y z
#    x 1.795890 0.000000 0.000000 
#    y 0.000000 1.820370 0.000000 
#    z 0.000000 0.000000 1.789450 
# 
# From -- ./inp_files/12523.got.cif
#   From: 2010.05.17/outbox.cif.g08.bks.cpg/sg63_7_cif.got.tgz:12523.got - 2010.06.03 15:47:04.
