data_PCOD9475068
_publ_section_title
;
Structure prediction by ZEFSAII (Michael W. Deem and Ramdas Pophale) SiO2 
 PCOD9475068
Probable space group: C M C M
;
_chemical_formula_sum "Si O2"
_cell_formula_units_Z 64
_cell_length_a 13.857590
_cell_length_b 26.999924
_cell_length_c 8.122223
_cell_angle_alpha 90.000000
_cell_angle_beta 90.000000
_cell_angle_gamma 90.000000
_cell_volume 3038.961224
_symmetry_space_group_name_H-M "C M C M"
_symmetry_group_IT_number 63
_symmetry_cell_setting 'orthorhombic'
loop_
_space_group_symop_operation_xyz
x,y,z
-x,-y,1/2+z
x,-y,-z
-x,y,1/2-z
-x,-y,-z
x,y,1/2-z
-x,y,z
x,-y,1/2+z
1/2+x,1/2+y,z
1/2-x,1/2-y,1/2+z
1/2+x,1/2-y,-z
1/2-x,1/2+y,1/2-z
1/2-x,1/2-y,-z
1/2+x,1/2+y,1/2-z
1/2-x,1/2+y,z
1/2+x,1/2-y,1/2+z
loop_
_atom_site_type_symbol
_atom_site_label
_atom_site_fract_x
_atom_site_fract_y
_atom_site_fract_z
Si Si1 0.500000 0.575976 0.438157
Si Si2 0.000000 0.819052 0.434497
Si Si3 0.107190 0.375365 0.448451
Si Si4 0.215935 0.054702 0.446595
Si Si5 0.643316 0.238249 0.947072
O O1 0.500000 0.557001 0.250000
O O2 0.500000 0.635324 0.442787
O O3 0.605157 0.561804 0.512388
O O4 0.913338 0.782012 0.465678
O O5 0.000000 0.839477 0.250000
O O6 0.107092 0.376365 0.250000
O O7 0.201623 0.406156 0.501479
O O8 0.116228 0.317600 0.498263
O O9 0.000000 0.393459 0.503852
O O10 0.209339 0.058012 0.250000
O O11 0.247605 0.000000 0.500000
O O12 0.628328 0.241452 0.750000
O O13 0.750000 0.250000 0.000000
#
# Coordination Sequence:
#
# PCOD9475068 Si02
#       5
#     8   8  16  16  16
#     4  10  23  43  65  92 128 165 209 264 321 378
#     4  12  24  37  59  92 126 167 208 246 305 376
#     4  10  22  42  64  88 124 168 210 258 314 371
#     4  11  24  42  66  94 123 162 208 263 323 382
#     4  11  22  39  61  89 125 166 208 258 312 368
#
# _framework density 21.059826000000001
#
# number of rings (size 3 to 8) (size 9 to 14) (size 15 to 20)
#    0.000    1.250    1.250    4.500    0.000    9.000 
#    0.000    0.000    0.000    0.000    0.000    0.000 
#    0.000    0.000    0.000    0.000    0.000    0.000 
#
# Total GULP energy -178604.808319 kJ/mol
# GULP energy per Si atom -5581.400260 kJ/mol
# Density = 2.101189 g / cm^3
# Si number density = 21.059826 Si / 1000 Ang^3
#
#
#
# Elastic Constant Matrix: (Units=GPa)
#
#
# Indices 1 2 3 4 5 6 
#
# 1 140.7546 22.9047 7.4901 0.0000 0.0000 0.0000
# 2 22.9047 87.5417 -0.9582 0.0000 0.0000 0.0000
# 3 7.4901 -0.9582 40.0964 0.0000 0.0000 0.0000
# 4 0.0000 0.0000 0.0000 22.5140 0.0000 0.0000
# 5 0.0000 0.0000 0.0000 0.0000 32.4756 0.0000
# 6 0.0000 0.0000 0.0000 0.0000 0.0000 22.7641
#
#
#
# Elastic Compliance Matrix: (Units=1/GPa)
#
#
# Indices 1 2 3 4 5 6 
#
# 1 0.007504 -0.001979 -0.001449 0.000000 0.000000 0.000000
# 2 -0.001979 0.011948 0.000655 0.000000 0.000000 0.000000
# 3 -0.001449 0.000655 0.025226 0.000000 0.000000 0.000000
# 4 0.000000 0.000000 0.000000 0.044417 0.000000 0.000000
# 5 0.000000 0.000000 0.000000 0.000000 0.030792 0.000000
# 6 0.000000 0.000000 0.000000 0.000000 0.000000 0.043929
#
#
# Mechanical properties :
#
#
# Convention : Reuss Voigt Hill
#
# Bulk Modulus (GPa) = 25.55439 36.36288 30.95864
# Shear Modulus (GPa) = 27.41138 31.48114 29.44626
#
# Velocity S-wave (km/s) = 3.61168 3.87051 3.74333
# Velocity P-wave (km/s) = 5.43625 6.10561 5.78063
#
# Compressibility (1/GPa) = 0.03913221
#
# Stress axis : x y z
#
# Youngs Moduli (GPa) = 133.26689 83.69505 39.64131
#
# Poissons Ratio (x) = 0.16565 0.05744
# Poissons Ratio (y) = 0.26376 -0.02597
# Poissons Ratio (z) = 0.19310 -0.05484
#
# Static dielectric constant tensor:
#      x y z
#    x 1.751680 0.000000 0.000000 
#    y 0.000000 1.712830 0.000000 
#    z 0.000000 0.000000 1.807330 
# 
# From -- ./inp_files/3169.got.cif
#   From: 2010.05.17/outbox.cif.g08.bks.cpg/sg63_2_cif.got.tgz:3169.got - 2010.06.03 15:47:04.
