data_PCOD9475961
_publ_section_title
;
Structure prediction by ZEFSAII (Michael W. Deem and Ramdas Pophale) SiO2 
 PCOD9475961
Probable space group: C M C M
;
_chemical_formula_sum "Si O2"
_cell_formula_units_Z 80
_cell_length_a 15.236503
_cell_length_b 40.372550
_cell_length_c 7.441994
_cell_angle_alpha 90.000000
_cell_angle_beta 90.000000
_cell_angle_gamma 90.000000
_cell_volume 4577.841987
_symmetry_space_group_name_H-M "C M C M"
_symmetry_group_IT_number 63
_symmetry_cell_setting 'orthorhombic'
loop_
_space_group_symop_operation_xyz
x,y,z
-x,-y,1/2+z
x,-y,-z
-x,y,1/2-z
-x,-y,-z
x,y,1/2-z
-x,y,z
x,-y,1/2+z
1/2+x,1/2+y,z
1/2-x,1/2-y,1/2+z
1/2+x,1/2-y,-z
1/2-x,1/2+y,1/2-z
1/2-x,1/2-y,-z
1/2+x,1/2+y,1/2-z
1/2-x,1/2+y,z
1/2+x,1/2-y,1/2+z
loop_
_atom_site_type_symbol
_atom_site_label
_atom_site_fract_x
_atom_site_fract_y
_atom_site_fract_z
Si Si1 0.597881 0.307852 0.960783
Si Si2 0.281702 0.170180 0.029414
Si Si3 0.399666 0.035642 0.464423
Si Si4 0.602374 0.891796 0.969095
Si Si5 0.599866 0.768648 0.533252
O O1 0.592174 0.315816 0.750000
O O2 0.500000 0.312638 0.038512
O O3 0.681214 0.327676 0.033210
O O4 0.619498 0.268710 0.974332
O O5 0.281203 0.170280 0.250000
O O6 0.335963 0.138045 0.971062
O O7 0.333111 0.203336 0.972270
O O8 0.404568 0.037960 0.250000
O O9 0.500000 0.033743 0.535206
O O10 0.365747 0.071467 0.526061
O O11 0.356337 0.000000 0.500000
O O12 0.602452 0.890879 0.750000
O O13 0.500000 0.887669 0.022276
O O14 0.600973 0.768588 0.750000
O O15 0.500000 0.776545 0.476332
#
# Coordination Sequence:
#
# PCOD9475961 Si02
#       5
#    16  16  16  16  16
#     4   9  17  27  37  50  69  92 116 143 177 213
#     4   9  15  23  36  52  70  91 115 145 177 204
#     4   8  13  21  34  51  70  92 114 134 159 194
#     4   8  13  21  34  53  73  91 115 145 171 196
#     4   9  16  25  38  54  68  86 116 149 176 204
#
# _framework density 17.475482
#
# number of rings (size 3 to 8) (size 9 to 14) (size 15 to 20)
#    0.000    3.400    0.000    2.400    0.000    2.400 
#    0.000    0.000    0.000    2.400    0.000    5.600 
#    0.000    0.800    0.000    0.600    0.000    1.200 
#
# Total GULP energy -222784.106960 kJ/mol
# GULP energy per Si atom -5569.602674 kJ/mol
# Density = 1.743571 g / cm^3
# Si number density = 17.475482 Si / 1000 Ang^3
#
#
#
# Elastic Constant Matrix: (Units=GPa)
#
#
# Indices 1 2 3 4 5 6 
#
# 1 105.4094 88.9193 5.4583 0.0000 0.0000 0.0000
# 2 88.9193 108.9718 -0.2263 0.0000 0.0000 0.0000
# 3 5.4583 -0.2263 52.1654 0.0000 0.0000 0.0000
# 4 0.0000 0.0000 0.0000 13.0411 0.0000 0.0000
# 5 0.0000 0.0000 0.0000 0.0000 -0.8423 0.0000
# 6 0.0000 0.0000 0.0000 0.0000 0.0000 8.9401
#
#
#
# Elastic Compliance Matrix: (Units=1/GPa)
#
#
# Indices 1 2 3 4 5 6 
#
# 1 0.031015 -0.025315 -0.003355 0.000000 0.000000 0.000000
# 2 -0.025315 0.029839 0.002778 0.000000 0.000000 0.000000
# 3 -0.003355 0.002778 0.019533 0.000000 0.000000 0.000000
# 4 0.000000 0.000000 0.000000 0.076681 0.000000 0.000000
# 5 0.000000 0.000000 0.000000 0.000000 -1.187224 0.000000
# 6 0.000000 0.000000 0.000000 0.000000 0.000000 0.111856
#
#
# Mechanical properties :
#
#
# Convention : Reuss Voigt Hill
#
# Bulk Modulus (GPa) = 34.96053 50.53879 42.74966
# Shear Modulus (GPa) = -5.83443 15.72079 4.94318
#
# Velocity S-wave (km/s) = -1.82918 3.00257 1.68368
# Velocity P-wave (km/s) = 3.94813 6.40337 5.31935
#
# Compressibility (1/GPa) = 0.02860368
#
# Stress axis : x y z
#
# Youngs Moduli (GPa) = 32.24218 33.51311 51.19568
#
# Poissons Ratio (x) = 0.84838 0.17177
# Poissons Ratio (y) = 0.81621 -0.14224
# Poissons Ratio (z) = 0.10818 -0.09311
#
# Static dielectric constant tensor:
#      x y z
#    x 1.593190 0.000000 0.000000 
#    y 0.000000 1.613770 0.000000 
#    z 0.000000 0.000000 1.672080 
# 
# From -- ./inp_files/19663.got.cif
#   From: 2010.05.17/outbox.cif.g08.bks.cpg/sg63_10_cif.got.tgz:19663.got - 2010.06.03 15:47:04.
