data_PCOD9475684
_publ_section_title
;
Structure prediction by ZEFSAII (Michael W. Deem and Ramdas Pophale) SiO2 
 PCOD9475684
Probable space group: C M C M
;
_chemical_formula_sum "Si O2"
_cell_formula_units_Z 80
_cell_length_a 12.379252
_cell_length_b 17.228044
_cell_length_c 17.313198
_cell_angle_alpha 90.000000
_cell_angle_beta 90.000000
_cell_angle_gamma 90.000000
_cell_volume 3692.390899
_symmetry_space_group_name_H-M "C M C M"
_symmetry_group_IT_number 63
_symmetry_cell_setting 'orthorhombic'
loop_
_space_group_symop_operation_xyz
x,y,z
-x,-y,1/2+z
x,-y,-z
-x,y,1/2-z
-x,-y,-z
x,y,1/2-z
-x,y,z
x,-y,1/2+z
1/2+x,1/2+y,z
1/2-x,1/2-y,1/2+z
1/2+x,1/2-y,-z
1/2-x,1/2+y,1/2-z
1/2-x,1/2-y,-z
1/2+x,1/2+y,1/2-z
1/2-x,1/2+y,z
1/2+x,1/2-y,1/2+z
loop_
_atom_site_type_symbol
_atom_site_label
_atom_site_fract_x
_atom_site_fract_y
_atom_site_fract_z
Si Si1 0.500000 0.697713 0.660911
Si Si2 0.186855 0.065812 0.057337
Si Si3 0.876603 0.609186 0.839771
Si Si4 0.305861 0.309577 0.442908
Si Si5 0.621855 0.920750 0.660703
Si Si6 0.000000 0.009038 0.659935
O O1 0.500000 0.721419 0.750000
O O2 0.393332 0.723586 0.616060
O O3 0.500000 0.602710 0.658645
O O4 0.282933 0.104910 0.105104
O O5 0.103180 0.025745 0.115429
O O6 0.136250 0.128391 0.999614
O O7 0.232145 0.000000 0.000000
O O8 0.857729 0.631067 0.750000
O O9 0.786942 0.646993 0.893696
O O10 0.871787 0.515378 0.842370
O O11 0.000000 0.631486 0.860634
O O12 0.250000 0.250000 0.500000
O O13 0.638640 0.898488 0.750000
O O14 0.500000 0.899052 0.637756
O O15 0.000000 0.985866 0.750000
#
# Coordination Sequence:
#
# PCOD9475684 Si02
#       6
#     8  16  16  16  16   8
#     4  11  23  45  71  93 123 170 218 260 318 396
#     4  12  21  37  61  93 123 154 201 264 324 363
#     4   9  18  36  61  87 116 157 204 245 297 368
#     4  12  26  40  61  92 128 163 210 260 318 381
#     4   9  18  34  58  88 120 156 198 243 296 365
#     4  11  22  40  70  98 120 156 211 268 325 379
#
# _framework density 21.666177999999999
#
# number of rings (size 3 to 8) (size 9 to 14) (size 15 to 20)
#    0.000    1.400    4.000    3.300    1.400    4.400 
#    0.000    4.000    0.000    0.000    0.000    0.000 
#    0.000    0.000    0.000    0.000    0.000    0.000 
#
# Total GULP energy -223707.034507 kJ/mol
# GULP energy per Si atom -5592.675863 kJ/mol
# Density = 2.161686 g / cm^3
# Si number density = 21.666178 Si / 1000 Ang^3
#
#
#
# Elastic Constant Matrix: (Units=GPa)
#
#
# Indices 1 2 3 4 5 6 
#
# 1 124.6174 16.8060 84.5751 0.0000 0.0000 0.0000
# 2 16.8060 48.0811 28.8969 0.0000 0.0000 0.0000
# 3 84.5751 28.8969 143.5151 0.0000 0.0000 0.0000
# 4 0.0000 0.0000 0.0000 29.5264 0.0000 0.0000
# 5 0.0000 0.0000 0.0000 0.0000 38.4185 0.0000
# 6 0.0000 0.0000 0.0000 0.0000 0.0000 16.8231
#
#
#
# Elastic Compliance Matrix: (Units=1/GPa)
#
#
# Indices 1 2 3 4 5 6 
#
# 1 0.013373 0.000071 -0.007895 0.000000 0.000000 0.000000
# 2 0.000071 0.023662 -0.004806 0.000000 0.000000 0.000000
# 3 -0.007895 -0.004806 0.012588 0.000000 0.000000 0.000000
# 4 0.000000 0.000000 0.000000 0.033868 0.000000 0.000000
# 5 0.000000 0.000000 0.000000 0.000000 0.026029 0.000000
# 6 0.000000 0.000000 0.000000 0.000000 0.000000 0.059442
#
#
# Mechanical properties :
#
#
# Convention : Reuss Voigt Hill
#
# Bulk Modulus (GPa) = 41.04688 64.08553 52.56621
# Shear Modulus (GPa) = 24.71027 29.34931 27.02979
#
# Velocity S-wave (km/s) = 3.38079 3.68450 3.53591
# Velocity P-wave (km/s) = 5.85029 6.90967 6.40193
#
# Compressibility (1/GPa) = 0.02436239
#
# Stress axis : x y z
#
# Youngs Moduli (GPa) = 74.77510 42.26204 79.43807
#
# Poissons Ratio (x) = -0.00299 0.62719
# Poissons Ratio (y) = -0.00528 0.38178
# Poissons Ratio (z) = 0.59038 0.20311
#
# Static dielectric constant tensor:
#      x y z
#    x 1.763780 0.000000 0.000000 
#    y 0.000000 1.817850 0.000000 
#    z 0.000000 0.000000 1.755300 
# 
# From -- ./inp_files/42148.got.cif
#   From: 2010.05.17/outbox.cif.g08.bks.cpg/sg63_22_cif.got.tgz:42148.got - 2010.06.03 15:47:04.
