data_PCOD9475606
_publ_section_title
;
Structure prediction by ZEFSAII (Michael W. Deem and Ramdas Pophale) SiO2 
 PCOD9475606
Probable space group: C M C M
;
_chemical_formula_sum "Si O2"
_cell_formula_units_Z 96
_cell_length_a 11.859971
_cell_length_b 28.257046
_cell_length_c 17.381679
_cell_angle_alpha 90.000000
_cell_angle_beta 90.000000
_cell_angle_gamma 90.000000
_cell_volume 5825.082907
_symmetry_space_group_name_H-M "C M C M"
_symmetry_group_IT_number 63
_symmetry_cell_setting 'orthorhombic'
loop_
_space_group_symop_operation_xyz
x,y,z
-x,-y,1/2+z
x,-y,-z
-x,y,1/2-z
-x,-y,-z
x,y,1/2-z
-x,y,z
x,-y,1/2+z
1/2+x,1/2+y,z
1/2-x,1/2-y,1/2+z
1/2+x,1/2-y,-z
1/2-x,1/2+y,1/2-z
1/2-x,1/2-y,-z
1/2+x,1/2+y,1/2-z
1/2-x,1/2+y,z
1/2+x,1/2-y,1/2+z
loop_
_atom_site_type_symbol
_atom_site_label
_atom_site_fract_x
_atom_site_fract_y
_atom_site_fract_z
Si Si1 0.633646 0.287725 0.341117
Si Si2 0.000000 0.209486 0.339586
Si Si3 0.133243 0.393958 0.666095
Si Si4 0.720293 0.853351 0.432484
Si Si5 0.364767 0.944909 0.991595
Si Si6 0.000000 0.323099 0.338554
Si Si7 0.245643 0.194016 0.098083
O O1 0.660447 0.287641 0.250000
O O2 0.500000 0.280977 0.350347
O O3 0.675433 0.336006 0.380962
O O4 0.700547 0.244660 0.381412
O O5 0.113021 0.194567 0.383839
O O6 0.000000 0.193140 0.250000
O O7 0.000000 0.266354 0.337393
O O8 0.159759 0.413921 0.750000
O O9 0.156964 0.428831 0.595960
O O10 0.197758 0.345204 0.652498
O O11 0.000000 0.383369 0.663011
O O12 0.705046 0.908091 0.456288
O O13 0.609738 0.839742 0.384233
O O14 0.726826 0.823234 0.511794
O O15 0.500000 0.938545 0.006791
O O16 0.338208 0.000000 0.000000
O O17 0.000000 0.339787 0.250000
#
# Coordination Sequence:
#
# PCOD9475606 Si02
#       7
#    16   8  16  16  16   8  16
#     4  11  23  36  52  76 110 146 182 221 257 310
#     4  11  22  34  50  75 112 148 180 225 268 310
#     4   9  17  31  51  75 105 137 172 212 264 321
#     4  11  22  35  56  78 107 142 181 220 271 327
#     4   9  18  34  55  79 106 132 167 221 273 321
#     4  11  22  36  53  77 113 148 181 219 272 324
#     4  11  22  32  53  77 108 145 183 220 265 316
#
# _framework density 16.480452
#
# number of rings (size 3 to 8) (size 9 to 14) (size 15 to 20)
#    0.000    1.667    2.500    3.000    3.500    1.333 
#    0.000    1.667    0.000    0.500    0.000    0.000 
#    0.000    0.000    0.000    0.000    0.000    0.000 
#
# Total GULP energy -267809.045442 kJ/mol
# GULP energy per Si atom -5579.355113 kJ/mol
# Density = 1.644294 g / cm^3
# Si number density = 16.480452 Si / 1000 Ang^3
#
#
#
# Elastic Constant Matrix: (Units=GPa)
#
#
# Indices 1 2 3 4 5 6 
#
# 1 61.3523 33.7287 48.2686 0.0000 0.0000 0.0000
# 2 33.7287 112.8502 44.8025 0.0000 0.0000 0.0000
# 3 48.2686 44.8025 95.9650 0.0000 0.0000 0.0000
# 4 0.0000 0.0000 0.0000 4.0491 0.0000 0.0000
# 5 0.0000 0.0000 0.0000 0.0000 27.2528 0.0000
# 6 0.0000 0.0000 0.0000 0.0000 0.0000 18.9859
#
#
#
# Elastic Compliance Matrix: (Units=1/GPa)
#
#
# Indices 1 2 3 4 5 6 
#
# 1 0.028002 -0.003410 -0.012493 0.000000 0.000000 0.000000
# 2 -0.003410 0.011293 -0.003557 0.000000 0.000000 0.000000
# 3 -0.012493 -0.003557 0.018365 0.000000 0.000000 0.000000
# 4 0.000000 0.000000 0.000000 0.246968 0.000000 0.000000
# 5 0.000000 0.000000 0.000000 0.000000 0.036694 0.000000
# 6 0.000000 0.000000 0.000000 0.000000 0.000000 0.052671
#
#
# Mechanical properties :
#
#
# Convention : Reuss Voigt Hill
#
# Bulk Modulus (GPa) = 53.35994 58.19634 55.77814
# Shear Modulus (GPa) = 11.38541 19.61541 15.50041
#
# Velocity S-wave (km/s) = 2.63124 3.45370 3.07014
# Velocity P-wave (km/s) = 6.45595 7.16192 6.81808
#
# Compressibility (1/GPa) = 0.01874065
#
# Stress axis : x y z
#
# Youngs Moduli (GPa) = 35.71115 88.55384 54.45186
#
# Poissons Ratio (x) = 0.30193 0.68026
# Poissons Ratio (y) = 0.12176 0.19369
# Poissons Ratio (z) = 0.44614 0.31500
#
# Static dielectric constant tensor:
#      x y z
#    x 1.556190 0.000000 0.000000 
#    y 0.000000 1.528470 0.000000 
#    z 0.000000 0.000000 1.581860 
# 
# From -- ./inp_files/42741.got.cif
#   From: 2010.05.17/outbox.cif.g08.bks.cpg/sg63_22_cif.got.tgz:42741.got - 2010.06.03 15:47:04.
