data_PCOD9475655
_publ_section_title
;
Structure prediction by ZEFSAII (Michael W. Deem and Ramdas Pophale) SiO2 
 PCOD9475655
Probable space group: C M C M
;
_chemical_formula_sum "Si O2"
_cell_formula_units_Z 64
_cell_length_a 7.479294
_cell_length_b 14.338800
_cell_length_c 32.769190
_cell_angle_alpha 90.000000
_cell_angle_beta 90.000000
_cell_angle_gamma 90.000000
_cell_volume 3514.302316
_symmetry_space_group_name_H-M "C M C M"
_symmetry_group_IT_number 63
_symmetry_cell_setting 'orthorhombic'
loop_
_space_group_symop_operation_xyz
x,y,z
-x,-y,1/2+z
x,-y,-z
-x,y,1/2-z
-x,-y,-z
x,y,1/2-z
-x,y,z
x,-y,1/2+z
1/2+x,1/2+y,z
1/2-x,1/2-y,1/2+z
1/2+x,1/2-y,-z
1/2-x,1/2+y,1/2-z
1/2-x,1/2-y,-z
1/2+x,1/2+y,1/2-z
1/2-x,1/2+y,z
1/2+x,1/2-y,1/2+z
loop_
_atom_site_type_symbol
_atom_site_label
_atom_site_fract_x
_atom_site_fract_y
_atom_site_fract_z
Si Si1 0.500000 0.878194 0.201127
Si Si2 0.718291 0.001881 0.067586
Si Si3 0.500000 0.659931 0.201003
Si Si4 0.286985 0.858275 0.002106
Si Si5 0.296704 0.965304 0.840605
O O1 0.500000 0.885117 0.250000
O O2 0.500000 0.769577 0.189368
O O3 0.332499 0.936752 0.182848
O O4 0.500000 0.000040 0.069349
O O5 0.776400 0.085983 0.037877
O O6 0.775103 0.014458 0.114041
O O7 0.777675 0.909406 0.043235
O O8 0.500000 0.655226 0.250000
O O9 0.670487 0.605019 0.183272
O O10 0.500000 0.870837 0.002089
O O11 0.250000 0.750000 0.000000
O O12 0.500000 0.925855 0.843985
#
# Coordination Sequence:
#
# PCOD9475655 Si02
#       5
#     8  16   8  16  16
#     4   9  20  38  59  84 113 147 190 234 291 349
#     4   8  16  34  52  71 106 144 180 220 274 332
#     4  11  22  38  61  90 115 147 196 238 285 359
#     4   9  17  31  51  74 104 143 178 219 273 325
#     4   9  20  39  60  82 118 154 187 242 290 335
#
# _framework density 18.211296999999998
#
# number of rings (size 3 to 8) (size 9 to 14) (size 15 to 20)
#    0.750    2.250    0.000    2.250    0.000    2.000 
#    6.750    1.250    0.000    0.000    0.000    0.000 
#    0.000    0.000    0.000    0.000    0.000    0.000 
#
# Total GULP energy -178149.974030 kJ/mol
# GULP energy per Si atom -5567.186688 kJ/mol
# Density = 1.816985 g / cm^3
# Si number density = 18.211297 Si / 1000 Ang^3
#
#
#
# Elastic Constant Matrix: (Units=GPa)
#
#
# Indices 1 2 3 4 5 6 
#
# 1 64.3780 25.6189 22.8233 0.0000 0.0000 0.0000
# 2 25.6189 161.7430 70.0370 0.0000 0.0000 0.0000
# 3 22.8233 70.0370 127.5850 0.0000 0.0000 0.0000
# 4 0.0000 0.0000 0.0000 6.1203 0.0000 0.0000
# 5 0.0000 0.0000 0.0000 0.0000 11.3767 0.0000
# 6 0.0000 0.0000 0.0000 0.0000 0.0000 29.7736
#
#
#
# Elastic Compliance Matrix: (Units=1/GPa)
#
#
# Indices 1 2 3 4 5 6 
#
# 1 0.016976 -0.001802 -0.002047 0.000000 0.000000 0.000000
# 2 -0.001802 0.008302 -0.004235 0.000000 0.000000 0.000000
# 3 -0.002047 -0.004235 0.010529 0.000000 0.000000 0.000000
# 4 0.000000 0.000000 0.000000 0.163389 0.000000 0.000000
# 5 0.000000 0.000000 0.000000 0.000000 0.087899 0.000000
# 6 0.000000 0.000000 0.000000 0.000000 0.000000 0.033587
#
#
# Mechanical properties :
#
#
# Convention : Reuss Voigt Hill
#
# Bulk Modulus (GPa) = 50.92220 65.62937 58.27579
# Shear Modulus (GPa) = 14.56038 25.13592 19.84815
#
# Velocity S-wave (km/s) = 2.83065 3.71919 3.30492
# Velocity P-wave (km/s) = 6.22142 7.38641 6.82880
#
# Compressibility (1/GPa) = 0.01963780
#
# Stress axis : x y z
#
# Youngs Moduli (GPa) = 58.90542 120.45476 94.97696
#
# Poissons Ratio (x) = 0.21710 0.19446
# Poissons Ratio (y) = 0.10617 0.40221
# Poissons Ratio (z) = 0.12061 0.51011
#
# Static dielectric constant tensor:
#      x y z
#    x 1.676210 0.000000 0.000000 
#    y 0.000000 1.619840 0.000000 
#    z 0.000000 0.000000 1.621090 
# 
# From -- ./inp_files/71433.got.cif
#   From: 2010.05.17/outbox.cif.g08.bks.cpg/sg63_36_cif.got.tgz:71433.got - 2010.06.03 15:47:04.
