data_PCOD9475118
_publ_section_title
;
Structure prediction by ZEFSAII (Michael W. Deem and Ramdas Pophale) SiO2 
 PCOD9475118
Probable space group: C M C M
;
_chemical_formula_sum "Si O2"
_cell_formula_units_Z 104
_cell_length_a 23.868399
_cell_length_b 7.787958
_cell_length_c 22.809781
_cell_angle_alpha 90.000000
_cell_angle_beta 90.000000
_cell_angle_gamma 90.000000
_cell_volume 4240.020980
_symmetry_space_group_name_H-M "C M C M"
_symmetry_group_IT_number 63
_symmetry_cell_setting 'orthorhombic'
loop_
_space_group_symop_operation_xyz
x,y,z
-x,-y,1/2+z
x,-y,-z
-x,y,1/2-z
-x,-y,-z
x,y,1/2-z
-x,y,z
x,-y,1/2+z
1/2+x,1/2+y,z
1/2-x,1/2-y,1/2+z
1/2+x,1/2-y,-z
1/2-x,1/2+y,1/2-z
1/2-x,1/2-y,-z
1/2+x,1/2+y,1/2-z
1/2-x,1/2+y,z
1/2+x,1/2-y,1/2+z
loop_
_atom_site_type_symbol
_atom_site_label
_atom_site_fract_x
_atom_site_fract_y
_atom_site_fract_z
Si Si1 0.822747 0.451741 0.375319
Si Si2 0.936866 0.102345 0.167808
Si Si3 0.561952 0.676776 0.930860
Si Si4 0.560235 0.056454 0.607540
Si Si5 0.851189 0.000000 0.500000
Si Si6 0.166332 0.995311 0.750000
Si Si7 0.201972 0.604637 0.250000
Si Si8 0.259916 0.322611 0.935279
O O1 0.877744 0.396524 0.411279
O O2 0.823125 0.512108 0.308212
O O3 0.797335 0.601647 0.413721
O O4 0.779191 0.300181 0.383615
O O5 0.940599 0.309399 0.161852
O O6 0.877838 0.054390 0.198195
O O7 0.000000 0.051150 0.190050
O O8 0.934471 0.996595 0.107259
O O9 0.500000 0.683990 0.957735
O O10 0.565523 0.848205 0.890051
O O11 0.608920 0.654814 0.979631
O O12 0.500000 0.086894 0.577637
O O13 0.810108 0.044263 0.446322
O O14 0.228988 0.909413 0.750000
O O15 0.181219 0.197971 0.750000
O O16 0.250000 0.250000 0.000000
#
# Coordination Sequence:
#
# PCOD9475118 Si02
#       8
#    16  16  16  16   8   8   8  16
#     4  12  26  47  71 106 152 194 254 312 386 470
#     4  10  23  46  73 103 141 190 249 315 376 449
#     4  10  22  42  70 105 147 192 247 314 385 452
#     4  10  23  44  73 103 142 197 250 311 379 451
#     4  12  23  40  72 108 149 202 256 318 394 458
#     4  12  27  46  71 109 144 192 253 299 382 464
#     4  12  30  46  73 111 157 198 243 313 392 466
#     4  12  25  44  72 106 147 201 255 317 385 461
#
# _framework density 24.528179999999999
#
# number of rings (size 3 to 8) (size 9 to 14) (size 15 to 20)
#    0.000    0.923    1.538    4.154    6.462    0.000 
#    0.000    5.000    0.000   14.769    0.000    0.000 
#    0.000    0.000    0.000    0.000    0.000    0.000 
#
# Total GULP energy -289593.563034 kJ/mol
# GULP energy per Si atom -5569.106981 kJ/mol
# Density = 2.447235 g / cm^3
# Si number density = 24.528180 Si / 1000 Ang^3
#
#
#
# Elastic Constant Matrix: (Units=GPa)
#
#
# Indices 1 2 3 4 5 6 
#
# 1 177.7398 45.9724 39.1998 0.0000 0.0000 0.0000
# 2 45.9724 104.0788 53.5713 0.0000 0.0000 0.0000
# 3 39.1998 53.5713 114.4772 0.0000 0.0000 0.0000
# 4 0.0000 0.0000 0.0000 28.7409 0.0000 0.0000
# 5 0.0000 0.0000 0.0000 0.0000 -53.4940 0.0000
# 6 0.0000 0.0000 0.0000 0.0000 0.0000 39.5225
#
#
#
# Elastic Compliance Matrix: (Units=1/GPa)
#
#
# Indices 1 2 3 4 5 6 
#
# 1 0.006466 -0.002261 -0.001156 0.000000 0.000000 0.000000
# 2 -0.002261 0.013447 -0.005519 0.000000 0.000000 0.000000
# 3 -0.001156 -0.005519 0.011714 0.000000 0.000000 0.000000
# 4 0.000000 0.000000 0.000000 0.034794 0.000000 0.000000
# 5 0.000000 0.000000 0.000000 0.000000 -0.018694 0.000000
# 6 0.000000 0.000000 0.000000 0.000000 0.000000 0.025302
#
#
# Mechanical properties :
#
#
# Convention : Reuss Voigt Hill
#
# Bulk Modulus (GPa) = 72.69736 74.86475 73.78105
# Shear Modulus (GPa) = 52.36388 20.12406 36.24397
#
# Velocity S-wave (km/s) = 4.62545 2.86745 3.84819
# Velocity P-wave (km/s) = 7.63080 6.44602 7.06330
#
# Compressibility (1/GPa) = 0.01375566
#
# Stress axis : x y z
#
# Youngs Moduli (GPa) = 154.65573 74.36398 85.36975
#
# Poissons Ratio (x) = 0.16814 0.09869
# Poissons Ratio (y) = 0.34968 0.47113
# Poissons Ratio (z) = 0.17879 0.41039
#
# Static dielectric constant tensor:
#      x y z
#    x 2.005300 0.000000 0.000000 
#    y 0.000000 2.096220 0.000000 
#    z 0.000000 0.000000 1.988590 
# 
# From -- ./inp_files/70402.got.cif
#   From: 2010.05.17/outbox.cif.g08.bks.cpg/sg63_36_cif.got.tgz:70402.got - 2010.06.03 15:47:04.
