data_PCOD9475678
_publ_section_title
;
Structure prediction by ZEFSAII (Michael W. Deem and Ramdas Pophale) SiO2 
 PCOD9475678
Probable space group: C M C M
;
_chemical_formula_sum "Si O2"
_cell_formula_units_Z 80
_cell_length_a 11.685405
_cell_length_b 14.693171
_cell_length_c 22.881946
_cell_angle_alpha 90.000000
_cell_angle_beta 90.000000
_cell_angle_gamma 90.000000
_cell_volume 3928.730680
_symmetry_space_group_name_H-M "C M C M"
_symmetry_group_IT_number 63
_symmetry_cell_setting 'orthorhombic'
loop_
_space_group_symop_operation_xyz
x,y,z
-x,-y,1/2+z
x,-y,-z
-x,y,1/2-z
-x,-y,-z
x,y,1/2-z
-x,y,z
x,-y,1/2+z
1/2+x,1/2+y,z
1/2-x,1/2-y,1/2+z
1/2+x,1/2-y,-z
1/2-x,1/2+y,1/2-z
1/2-x,1/2-y,-z
1/2+x,1/2+y,1/2-z
1/2-x,1/2+y,z
1/2+x,1/2-y,1/2+z
loop_
_atom_site_type_symbol
_atom_site_label
_atom_site_fract_x
_atom_site_fract_y
_atom_site_fract_z
Si Si1 0.500000 0.784297 0.185385
Si Si2 0.865018 0.736522 0.184120
Si Si3 0.367811 0.892191 0.513996
Si Si4 0.500000 0.568595 0.183504
Si Si5 0.209236 0.359574 0.386912
Si Si6 0.746590 0.432081 0.869278
O O1 0.500000 0.825653 0.250000
O O2 0.500000 0.676730 0.190637
O O3 0.390249 0.812416 0.149345
O O4 0.840565 0.770425 0.250000
O O5 0.822256 0.810233 0.137050
O O6 0.800287 0.640341 0.175530
O O7 0.000000 0.721123 0.178324
O O8 0.500000 0.862035 0.525857
O O9 0.315817 0.848161 0.455611
O O10 0.282112 0.886352 0.568781
O O11 0.375112 0.000000 0.500000
O O12 0.500000 0.528439 0.250000
O O13 0.614795 0.550184 0.146980
O O14 0.202472 0.466580 0.371759
#
# Coordination Sequence:
#
# PCOD9475678 Si02
#       6
#     8  16  16   8  16  16
#     4  11  22  40  65  91 125 167 220 266 304 373
#     4  11  25  43  61  91 133 168 209 267 320 376
#     4   9  19  39  66  94 128 161 208 268 316 369
#     4  11  24  44  63  89 133 171 210 268 316 365
#     4  11  23  42  66  96 125 169 213 260 320 379
#     4  11  24  42  66  94 124 170 212 259 318 381
#
# _framework density 20.362811000000001
#
# number of rings (size 3 to 8) (size 9 to 14) (size 15 to 20)
#    0.000    1.400    3.000    1.800    4.200    4.000 
#    1.800    1.500    0.000    0.000    0.000    0.000 
#    0.000    0.000    0.000    0.000    0.000    0.000 
#
# Total GULP energy -223247.185879 kJ/mol
# GULP energy per Si atom -5581.179647 kJ/mol
# Density = 2.031646 g / cm^3
# Si number density = 20.362811 Si / 1000 Ang^3
#
#
#
# Elastic Constant Matrix: (Units=GPa)
#
#
# Indices 1 2 3 4 5 6 
#
# 1 78.7689 -24.7637 35.5199 0.0000 0.0000 0.0000
# 2 -24.7637 42.6325 -11.2236 0.0000 0.0000 0.0000
# 3 35.5199 -11.2236 109.8655 0.0000 0.0000 0.0000
# 4 0.0000 0.0000 0.0000 37.1014 0.0000 0.0000
# 5 0.0000 0.0000 0.0000 0.0000 39.2814 0.0000
# 6 0.0000 0.0000 0.0000 0.0000 0.0000 14.9319
#
#
#
# Elastic Compliance Matrix: (Units=1/GPa)
#
#
# Indices 1 2 3 4 5 6 
#
# 1 0.017693 0.009014 -0.004800 0.000000 0.000000 0.000000
# 2 0.009014 0.028697 0.000017 0.000000 0.000000 0.000000
# 3 -0.004800 0.000017 0.010656 0.000000 0.000000 0.000000
# 4 0.000000 0.000000 0.000000 0.026953 0.000000 0.000000
# 5 0.000000 0.000000 0.000000 0.000000 0.025457 0.000000
# 6 0.000000 0.000000 0.000000 0.000000 0.000000 0.066971
#
#
# Mechanical properties :
#
#
# Convention : Reuss Voigt Hill
#
# Bulk Modulus (GPa) = 15.26501 25.59245 20.42873
# Shear Modulus (GPa) = 26.34352 33.71188 30.02770
#
# Velocity S-wave (km/s) = 3.60072 4.07327 3.84426
# Velocity P-wave (km/s) = 4.97993 5.89216 5.45515
#
# Compressibility (1/GPa) = 0.06550930
#
# Stress axis : x y z
#
# Youngs Moduli (GPa) = 56.51796 34.84719 93.84814
#
# Poissons Ratio (x) = -0.31411 0.45043
# Poissons Ratio (y) = -0.50945 -0.00163
# Poissons Ratio (z) = 0.27126 -0.00060
#
# Static dielectric constant tensor:
#      x y z
#    x 1.765350 0.000000 0.000000 
#    y 0.000000 1.709230 0.000000 
#    z 0.000000 0.000000 1.765200 
# 
# From -- ./inp_files/61166.got.cif
#   From: 2010.05.17/outbox.cif.g08.bks.cpg/sg63_31_cif.got.tgz:61166.got - 2010.06.03 15:47:04.
