data_PCOD9475373
_publ_section_title
;
Structure prediction by ZEFSAII (Michael W. Deem and Ramdas Pophale) SiO2 
 PCOD9475373
Probable space group: C M C M
;
_chemical_formula_sum "Si O2"
_cell_formula_units_Z 64
_cell_length_a 9.598517
_cell_length_b 23.313954
_cell_length_c 15.304879
_cell_angle_alpha 90.000000
_cell_angle_beta 90.000000
_cell_angle_gamma 90.000000
_cell_volume 3424.916392
_symmetry_space_group_name_H-M "C M C M"
_symmetry_group_IT_number 63
_symmetry_cell_setting 'orthorhombic'
loop_
_space_group_symop_operation_xyz
x,y,z
-x,-y,1/2+z
x,-y,-z
-x,y,1/2-z
-x,-y,-z
x,y,1/2-z
-x,y,z
x,-y,1/2+z
1/2+x,1/2+y,z
1/2-x,1/2-y,1/2+z
1/2+x,1/2-y,-z
1/2-x,1/2+y,1/2-z
1/2-x,1/2-y,-z
1/2+x,1/2+y,1/2-z
1/2-x,1/2+y,z
1/2+x,1/2-y,1/2+z
loop_
_atom_site_type_symbol
_atom_site_label
_atom_site_fract_x
_atom_site_fract_y
_atom_site_fract_z
Si Si1 0.500000 0.260042 0.250000
Si Si2 0.500000 0.075523 0.250000
Si Si3 0.786142 0.928159 0.350041
Si Si4 0.751527 0.330896 0.750000
Si Si5 0.000000 0.019380 0.399485
Si Si6 0.500000 0.340121 0.420599
Si Si7 0.500000 0.656157 0.383516
Si Si8 0.000000 0.479717 0.400659
O O1 0.639961 0.221599 0.250000
O O2 0.500000 0.296779 0.339409
O O3 0.641149 0.114576 0.250000
O O4 0.500000 0.033578 0.334104
O O5 0.790242 0.908523 0.250000
O O6 0.867797 0.882106 0.407537
O O7 0.867866 0.988494 0.356512
O O8 0.633362 0.941080 0.381672
O O9 0.642137 0.329616 0.830937
O O10 0.000000 0.086967 0.391499
O O11 0.000000 0.000000 0.500000
O O12 0.500000 0.317520 0.519253
O O13 0.000000 0.500000 0.500000
#
# Coordination Sequence:
#
# PCOD9475373 Si02
#       8
#     4   4  16   8   8   8   8   8
#     4  11  24  52  66  86 112 162 212 283 330 356
#     4  11  22  42  58  88 128 188 194 247 304 360
#     4  11  21  37  55  96 123 176 203 243 297 370
#     4  10  26  42  66  88 124 158 218 260 318 364
#     4  11  19  32  60  93 134 163 203 229 295 380
#     4  11  23  41  72  86 123 159 212 261 313 369
#     4  11  23  41  64 101 123 159 202 259 304 385
#     4  12  25  35  56  88 143 165 204 242 300 366
#
# _framework density 18.686586999999999
#
# number of rings (size 3 to 8) (size 9 to 14) (size 15 to 20)
#    0.000    1.000    5.000    3.375    7.000    1.000 
#    0.000    2.500    0.000    0.000    0.000    0.000 
#    0.000    0.000    0.000    0.000    0.000    0.000 
#
# Total GULP energy -178701.171797 kJ/mol
# GULP energy per Si atom -5584.411619 kJ/mol
# Density = 1.864406 g / cm^3
# Si number density = 18.686587 Si / 1000 Ang^3
#
#
#
# Elastic Constant Matrix: (Units=GPa)
#
#
# Indices 1 2 3 4 5 6 
#
# 1 179.7114 47.0054 55.4188 0.0000 0.0000 0.0000
# 2 47.0054 81.1225 33.9027 0.0000 0.0000 0.0000
# 3 55.4188 33.9027 162.2029 0.0000 0.0000 0.0000
# 4 0.0000 0.0000 0.0000 24.3883 0.0000 0.0000
# 5 0.0000 0.0000 0.0000 0.0000 23.8996 0.0000
# 6 0.0000 0.0000 0.0000 0.0000 0.0000 13.1577
#
#
#
# Elastic Compliance Matrix: (Units=1/GPa)
#
#
# Indices 1 2 3 4 5 6 
#
# 1 0.006953 -0.003326 -0.001680 0.000000 0.000000 0.000000
# 2 -0.003326 0.015098 -0.002019 0.000000 0.000000 0.000000
# 3 -0.001680 -0.002019 0.007161 0.000000 0.000000 0.000000
# 4 0.000000 0.000000 0.000000 0.041003 0.000000 0.000000
# 5 0.000000 0.000000 0.000000 0.000000 0.041842 0.000000
# 6 0.000000 0.000000 0.000000 0.000000 0.000000 0.076001
#
#
# Mechanical properties :
#
#
# Convention : Reuss Voigt Hill
#
# Bulk Modulus (GPa) = 65.96092 77.29897 71.62994
# Shear Modulus (GPa) = 24.13554 31.40313 27.76933
#
# Velocity S-wave (km/s) = 3.59778 4.10386 3.85912
# Velocity P-wave (km/s) = 7.25492 7.99446 7.63365
#
# Compressibility (1/GPa) = 0.01516049
#
# Stress axis : x y z
#
# Youngs Moduli (GPa) = 143.82944 66.23225 139.64076
#
# Poissons Ratio (x) = 0.22032 0.23462
# Poissons Ratio (y) = 0.47844 0.28197
# Poissons Ratio (z) = 0.24166 0.13374
#
# Static dielectric constant tensor:
#      x y z
#    x 1.653340 0.000000 0.000000 
#    y 0.000000 1.614940 0.000000 
#    z 0.000000 0.000000 1.674430 
# 
# From -- ./inp_files/27855.got.cif
#   From: 2010.05.17/outbox.cif.g08.bks.cpg/sg63_14_cif.got.tgz:27855.got - 2010.06.03 15:47:04.
