data_PCOD9475324
_publ_section_title
;
Structure prediction by ZEFSAII (Michael W. Deem and Ramdas Pophale) SiO2 
 PCOD9475324
Probable space group: C M C M
;
_chemical_formula_sum "Si O2"
_cell_formula_units_Z 60
_cell_length_a 26.497552
_cell_length_b 9.219527
_cell_length_c 11.213056
_cell_angle_alpha 90.000000
_cell_angle_beta 90.000000
_cell_angle_gamma 90.000000
_cell_volume 2739.292350
_symmetry_space_group_name_H-M "C M C M"
_symmetry_group_IT_number 63
_symmetry_cell_setting 'orthorhombic'
loop_
_space_group_symop_operation_xyz
x,y,z
-x,-y,1/2+z
x,-y,-z
-x,y,1/2-z
-x,-y,-z
x,y,1/2-z
-x,y,z
x,-y,1/2+z
1/2+x,1/2+y,z
1/2-x,1/2-y,1/2+z
1/2+x,1/2-y,-z
1/2-x,1/2+y,1/2-z
1/2-x,1/2-y,-z
1/2+x,1/2+y,1/2-z
1/2-x,1/2+y,z
1/2+x,1/2-y,1/2+z
loop_
_atom_site_type_symbol
_atom_site_label
_atom_site_fract_x
_atom_site_fract_y
_atom_site_fract_z
Si Si1 0.000000 0.272312 0.750000
Si Si2 0.573346 0.166038 0.025528
Si Si3 0.238483 0.000000 0.000000
Si Si4 0.684423 0.774110 0.889354
Si Si5 0.441289 0.568499 0.379858
O O1 0.043755 0.281639 0.856761
O O2 0.632874 0.187211 0.043815
O O3 0.558423 0.262673 0.911513
O O4 0.561457 0.000000 0.000000
O O5 0.274297 0.897724 0.919527
O O6 0.205214 0.116960 0.928721
O O7 0.674338 0.774035 0.750000
O O8 0.418510 0.500000 0.500000
O O9 0.418489 0.538798 0.250000
O O10 0.500000 0.518694 0.372731
#
# Coordination Sequence:
#
# PCOD9475324 Si02
#       5
#     4  16   8  16  16
#     4  12  26  44  72  98 156 190 240 300 362 416
#     4  12  26  43  69 104 141 194 245 291 355 435
#     4  10  24  46  72 104 140 178 232 306 364 428
#     4  11  23  45  72 104 140 182 237 296 366 429
#     4  10  24  42  65  95 137 184 240 294 349 416
#
# _framework density 21.903466000000002
#
# number of rings (size 3 to 8) (size 9 to 14) (size 15 to 20)
#    0.000    1.067    4.000    1.200    5.600    0.000 
#    0.000    1.333    0.000    0.000    0.000    0.000 
#    0.000    0.000    0.000    0.000    0.000    0.000 
#
# Total GULP energy -167268.580394 kJ/mol
# GULP energy per Si atom -5575.619346 kJ/mol
# Density = 2.185361 g / cm^3
# Si number density = 21.903466 Si / 1000 Ang^3
#
#
#
# Elastic Constant Matrix: (Units=GPa)
#
#
# Indices 1 2 3 4 5 6 
#
# 1 95.3794 17.0881 12.3525 0.0000 0.0000 0.0000
# 2 17.0881 150.5914 35.1261 0.0000 0.0000 0.0000
# 3 12.3525 35.1261 149.7035 0.0000 0.0000 0.0000
# 4 0.0000 0.0000 0.0000 5.6382 0.0000 0.0000
# 5 0.0000 0.0000 0.0000 0.0000 23.1726 0.0000
# 6 0.0000 0.0000 0.0000 0.0000 0.0000 -27.8748
#
#
#
# Elastic Compliance Matrix: (Units=1/GPa)
#
#
# Indices 1 2 3 4 5 6 
#
# 1 0.010759 -0.001072 -0.000636 0.000000 0.000000 0.000000
# 2 -0.001072 0.007132 -0.001585 0.000000 0.000000 0.000000
# 3 -0.000636 -0.001585 0.007104 0.000000 0.000000 0.000000
# 4 0.000000 0.000000 0.000000 0.177360 0.000000 0.000000
# 5 0.000000 0.000000 0.000000 0.000000 0.043154 0.000000
# 6 0.000000 0.000000 0.000000 0.000000 0.000000 -0.035875
#
#
# Mechanical properties :
#
#
# Convention : Reuss Voigt Hill
#
# Bulk Modulus (GPa) = 54.32403 58.31199 56.31801
# Shear Modulus (GPa) = 22.48625 22.26104 22.37364
#
# Velocity S-wave (km/s) = 3.20755 3.19144 3.19951
# Velocity P-wave (km/s) = 6.21073 6.34511 6.27828
#
# Compressibility (1/GPa) = 0.01840806
#
# Stress axis : x y z
#
# Youngs Moduli (GPa) = 92.94572 140.21560 140.76097
#
# Poissons Ratio (x) = 0.15038 0.08954
# Poissons Ratio (y) = 0.09968 0.22309
# Poissons Ratio (z) = 0.05912 0.22223
#
# Static dielectric constant tensor:
#      x y z
#    x 1.788940 0.000000 0.000000 
#    y 0.000000 1.879210 0.000000 
#    z 0.000000 0.000000 1.744890 
# 
# From -- ./inp_files/24585.got.cif
#   From: 2010.05.17/outbox.cif.g08.bks.cpg/sg63_13_cif.got.tgz:24585.got - 2010.06.03 15:47:04.
