data_PCOD9475411
_publ_section_title
;
Structure prediction by ZEFSAII (Michael W. Deem and Ramdas Pophale) SiO2 
 PCOD9475411
Probable space group: C M C M
;
_chemical_formula_sum "Si O2"
_cell_formula_units_Z 80
_cell_length_a 7.632043
_cell_length_b 23.509796
_cell_length_c 22.802730
_cell_angle_alpha 90.000000
_cell_angle_beta 90.000000
_cell_angle_gamma 90.000000
_cell_volume 4091.443085
_symmetry_space_group_name_H-M "C M C M"
_symmetry_group_IT_number 63
_symmetry_cell_setting 'orthorhombic'
loop_
_space_group_symop_operation_xyz
x,y,z
-x,-y,1/2+z
x,-y,-z
-x,y,1/2-z
-x,-y,-z
x,y,1/2-z
-x,y,z
x,-y,1/2+z
1/2+x,1/2+y,z
1/2-x,1/2-y,1/2+z
1/2+x,1/2-y,-z
1/2-x,1/2+y,1/2-z
1/2-x,1/2-y,-z
1/2+x,1/2+y,1/2-z
1/2-x,1/2+y,z
1/2+x,1/2-y,1/2+z
loop_
_atom_site_type_symbol
_atom_site_label
_atom_site_fract_x
_atom_site_fract_y
_atom_site_fract_z
Si Si1 0.288854 0.326265 0.250000
Si Si2 0.000000 0.079087 0.556151
Si Si3 0.500000 0.445330 0.580133
Si Si4 0.801476 0.625679 0.134775
Si Si5 0.296134 0.150145 0.620850
Si Si6 0.712844 0.805156 0.750000
Si Si7 0.292607 0.731415 0.434415
O O1 0.500000 0.325861 0.250000
O O2 0.226718 0.356160 0.190499
O O3 0.225459 0.260198 0.250000
O O4 0.168995 0.110002 0.583804
O O5 0.000000 0.081361 0.485504
O O6 0.000000 0.012925 0.573360
O O7 0.330251 0.422834 0.614545
O O8 0.736289 0.659597 0.192370
O O9 0.800966 0.674151 0.084808
O O10 0.000000 0.605536 0.144783
O O11 0.500000 0.143130 0.604462
O O12 0.243264 0.215369 0.606484
O O13 0.500000 0.802526 0.750000
O O14 0.500000 0.721562 0.428493
O O15 0.250000 0.750000 0.500000
#
# Coordination Sequence:
#
# PCOD9475411 Si02
#       7
#     8   8   8  16  16   8  16
#     4  11  19  37  65  93 133 175 207 252 326 395
#     4  11  26  47  69  87 131 174 228 273 322 381
#     4  11  26  47  67  95 121 178 228 273 320 385
#     4  11  22  40  63  94 131 167 212 267 327 389
#     4  11  24  40  62  96 130 169 215 266 325 388
#     4   9  20  36  62  95 132 174 205 251 329 397
#     4  11  22  34  56  92 131 167 208 263 330 393
#
# _framework density 19.553001999999999
#
# number of rings (size 3 to 8) (size 9 to 14) (size 15 to 20)
#    0.000    1.200    4.000    2.100    2.800    3.600 
#    1.800    4.000    0.000    2.400    0.000    0.000 
#    0.000    0.000    0.000    0.000    0.000    0.000 
#
# Total GULP energy -223680.007129 kJ/mol
# GULP energy per Si atom -5592.000178 kJ/mol
# Density = 1.950850 g / cm^3
# Si number density = 19.553002 Si / 1000 Ang^3
#
#
#
# Elastic Constant Matrix: (Units=GPa)
#
#
# Indices 1 2 3 4 5 6 
#
# 1 101.5116 35.2111 3.6639 0.0000 0.0000 0.0000
# 2 35.2111 60.5616 -3.8629 0.0000 0.0000 0.0000
# 3 3.6639 -3.8629 49.3514 0.0000 0.0000 0.0000
# 4 0.0000 0.0000 0.0000 25.7514 0.0000 0.0000
# 5 0.0000 0.0000 0.0000 0.0000 20.1028 0.0000
# 6 0.0000 0.0000 0.0000 0.0000 0.0000 27.5326
#
#
#
# Elastic Compliance Matrix: (Units=1/GPa)
#
#
# Indices 1 2 3 4 5 6 
#
# 1 0.012449 -0.007333 -0.001498 0.000000 0.000000 0.000000
# 2 -0.007333 0.020915 0.002182 0.000000 0.000000 0.000000
# 3 -0.001498 0.002182 0.020545 0.000000 0.000000 0.000000
# 4 0.000000 0.000000 0.000000 0.038833 0.000000 0.000000
# 5 0.000000 0.000000 0.000000 0.000000 0.049744 0.000000
# 6 0.000000 0.000000 0.000000 0.000000 0.000000 0.036321
#
#
# Mechanical properties :
#
#
# Convention : Reuss Voigt Hill
#
# Bulk Modulus (GPa) = 24.62543 31.27208 27.94876
# Shear Modulus (GPa) = 24.31397 26.43818 25.37608
#
# Velocity S-wave (km/s) = 3.53014 3.68112 3.60642
# Velocity P-wave (km/s) = 5.40716 5.83916 5.62731
#
# Compressibility (1/GPa) = 0.04060843
#
# Stress axis : x y z
#
# Youngs Moduli (GPa) = 80.32824 47.81250 48.67398
#
# Poissons Ratio (x) = 0.35063 0.07293
# Poissons Ratio (y) = 0.58909 -0.10618
# Poissons Ratio (z) = 0.12035 -0.10430
#
# Static dielectric constant tensor:
#      x y z
#    x 1.709530 0.000000 0.000000 
#    y 0.000000 1.648530 0.000000 
#    z 0.000000 0.000000 1.701940 
# 
# From -- ./inp_files/51007.got.cif
#   From: 2010.05.17/outbox.cif.g08.bks.cpg/sg63_26_cif.got.tgz:51007.got - 2010.06.03 15:47:04.
