data_PCOD9475990
_publ_section_title
;
Structure prediction by ZEFSAII (Michael W. Deem and Ramdas Pophale) SiO2 
 PCOD9475990
Probable space group: C M C M
;
_chemical_formula_sum "Si O2"
_cell_formula_units_Z 72
_cell_length_a 16.415422
_cell_length_b 29.112908
_cell_length_c 7.398972
_cell_angle_alpha 90.000000
_cell_angle_beta 90.000000
_cell_angle_gamma 90.000000
_cell_volume 3535.973680
_symmetry_space_group_name_H-M "C M C M"
_symmetry_group_IT_number 63
_symmetry_cell_setting 'orthorhombic'
loop_
_space_group_symop_operation_xyz
x,y,z
-x,-y,1/2+z
x,-y,-z
-x,y,1/2-z
-x,-y,-z
x,y,1/2-z
-x,y,z
x,-y,1/2+z
1/2+x,1/2+y,z
1/2-x,1/2-y,1/2+z
1/2+x,1/2-y,-z
1/2-x,1/2+y,1/2-z
1/2-x,1/2-y,-z
1/2+x,1/2+y,1/2-z
1/2-x,1/2+y,z
1/2+x,1/2-y,1/2+z
loop_
_atom_site_type_symbol
_atom_site_label
_atom_site_fract_x
_atom_site_fract_y
_atom_site_fract_z
Si Si1 0.909642 0.798618 0.968538
Si Si2 0.678259 0.053816 0.034077
Si Si3 0.500000 0.945268 0.534846
Si Si4 0.244419 0.143196 0.028818
Si Si5 0.090064 0.690628 0.461600
O O1 0.908528 0.798933 0.750000
O O2 0.835601 0.830069 0.033246
O O3 0.000000 0.813881 0.026685
O O4 0.900228 0.745582 0.024472
O O5 0.673443 0.057852 0.250000
O O6 0.588499 0.069195 0.964189
O O7 0.745706 0.090086 0.973508
O O8 0.692083 0.000000 0.000000
O O9 0.500000 0.936412 0.750000
O O10 0.500000 0.000000 0.500000
O O11 0.242482 0.145204 0.250000
O O12 0.327776 0.167829 0.967058
O O13 0.086939 0.677970 0.250000
O O14 0.000000 0.678828 0.537277
#
# Coordination Sequence:
#
# PCOD9475990 Si02
#       5
#    16  16   8  16  16
#     4   9  17  30  46  63  86 115 145 177 213 251
#     4   9  17  29  44  62  85 111 141 175 211 251
#     4   8  14  24  40  58  78 106 134 164 202 244
#     4   9  17  28  45  66  86 113 147 177 208 254
#     4   9  17  28  44  66  90 114 141 174 211 253
#
# _framework density 20.362141000000001
#
# number of rings (size 3 to 8) (size 9 to 14) (size 15 to 20)
#    0.000    3.111    0.000    0.667    1.556    0.000 
#    0.000    2.222    0.000    0.667    0.000    0.000 
#    0.000    0.000    0.000    0.000    0.000    0.000 
#
# Total GULP energy -200734.607431 kJ/mol
# GULP energy per Si atom -5575.961318 kJ/mol
# Density = 2.031580 g / cm^3
# Si number density = 20.362141 Si / 1000 Ang^3
#
#
#
# Elastic Constant Matrix: (Units=GPa)
#
#
# Indices 1 2 3 4 5 6 
#
# 1 153.2659 90.8804 6.1032 0.0000 0.0000 0.0000
# 2 90.8804 102.8934 -3.8516 0.0000 0.0000 0.0000
# 3 6.1032 -3.8516 70.1936 0.0000 0.0000 0.0000
# 4 0.0000 0.0000 0.0000 11.0383 0.0000 0.0000
# 5 0.0000 0.0000 0.0000 0.0000 -1.5241 0.0000
# 6 0.0000 0.0000 0.0000 0.0000 0.0000 28.7046
#
#
#
# Elastic Compliance Matrix: (Units=1/GPa)
#
#
# Indices 1 2 3 4 5 6 
#
# 1 0.013946 -0.012388 -0.001892 0.000000 0.000000 0.000000
# 2 -0.012388 0.020744 0.002215 0.000000 0.000000 0.000000
# 3 -0.001892 0.002215 0.014532 0.000000 0.000000 0.000000
# 4 0.000000 0.000000 0.000000 0.090594 0.000000 0.000000
# 5 0.000000 0.000000 0.000000 0.000000 -0.656119 0.000000
# 6 0.000000 0.000000 0.000000 0.000000 0.000000 0.034838
#
#
# Mechanical properties :
#
#
# Convention : Reuss Voigt Hill
#
# Bulk Modulus (GPa) = 39.85452 56.95742 48.40597
# Shear Modulus (GPa) = -11.13658 23.19181 6.02761
#
# Velocity S-wave (km/s) = -2.34118 3.37852 1.72239
# Velocity P-wave (km/s) = 3.50816 6.57664 5.27064
#
# Compressibility (1/GPa) = 0.02509125
#
# Stress axis : x y z
#
# Youngs Moduli (GPa) = 71.70620 48.20721 68.81167
#
# Poissons Ratio (x) = 0.59721 0.13021
# Poissons Ratio (y) = 0.88833 -0.15245
# Poissons Ratio (z) = 0.13569 -0.10680
#
# Static dielectric constant tensor:
#      x y z
#    x 1.732580 0.000000 0.000000 
#    y 0.000000 1.717910 0.000000 
#    z 0.000000 0.000000 1.771980 
# 
# From -- ./inp_files/4900.got.cif
#   From: 2010.05.17/outbox.cif.g08.bks.cpg/sg63_3_cif.got.tgz:4900.got - 2010.06.03 15:47:04.
