data_PCOD9475123
_publ_section_title
;
Structure prediction by ZEFSAII (Michael W. Deem and Ramdas Pophale) SiO2 
 PCOD9475123
Probable space group: C M C M
;
_chemical_formula_sum "Si O2"
_cell_formula_units_Z 80
_cell_length_a 18.903395
_cell_length_b 10.582505
_cell_length_c 16.801883
_cell_angle_alpha 90.000000
_cell_angle_beta 90.000000
_cell_angle_gamma 90.000000
_cell_volume 3361.137257
_symmetry_space_group_name_H-M "C M C M"
_symmetry_group_IT_number 63
_symmetry_cell_setting 'orthorhombic'
loop_
_space_group_symop_operation_xyz
x,y,z
-x,-y,1/2+z
x,-y,-z
-x,y,1/2-z
-x,-y,-z
x,y,1/2-z
-x,y,z
x,-y,1/2+z
1/2+x,1/2+y,z
1/2-x,1/2-y,1/2+z
1/2+x,1/2-y,-z
1/2-x,1/2+y,1/2-z
1/2-x,1/2-y,-z
1/2+x,1/2+y,1/2-z
1/2-x,1/2+y,z
1/2+x,1/2-y,1/2+z
loop_
_atom_site_type_symbol
_atom_site_label
_atom_site_fract_x
_atom_site_fract_y
_atom_site_fract_z
Si Si1 0.583278 0.281700 0.658308
Si Si2 0.918809 0.687617 0.345348
Si Si3 0.216740 0.453151 0.658298
Si Si4 0.585375 0.454664 0.085857
Si Si5 0.220750 0.290788 0.084718
O O1 0.596409 0.243535 0.750000
O O2 0.500000 0.261439 0.641011
O O3 0.597511 0.432092 0.647799
O O4 0.635923 0.214502 0.597045
O O5 0.916653 0.709511 0.250000
O O6 0.864982 0.575469 0.362423
O O7 0.892689 0.815973 0.387027
O O8 0.000000 0.661209 0.367172
O O9 0.222388 0.490575 0.750000
O O10 0.244559 0.568141 0.606128
O O11 0.253503 0.318637 0.644641
O O12 0.500000 0.444370 0.079487
O O13 0.612326 0.500000 0.000000
O O14 0.250000 0.250000 0.000000
#
# Coordination Sequence:
#
# PCOD9475123 Si02
#       5
#    16  16  16  16  16
#     4  10  22  42  71 103 137 184 245 307 363 427
#     4   9  19  37  65 101 141 186 242 306 367 432
#     4  11  25  46  72 101 137 191 246 296 362 443
#     4   9  18  32  58  99 143 185 230 291 368 438
#     4  12  28  48  70 103 147 189 238 300 369 442
#
# _framework density 23.801466999999999
#
# number of rings (size 3 to 8) (size 9 to 14) (size 15 to 20)
#    0.000    1.800    0.000    3.000    5.600    3.200 
#    0.000    2.000    0.000    2.400    0.000    0.000 
#    0.000    0.000    0.000    0.000    0.000    0.000 
#
# Total GULP energy -223920.528768 kJ/mol
# GULP energy per Si atom -5598.013219 kJ/mol
# Density = 2.374729 g / cm^3
# Si number density = 23.801467 Si / 1000 Ang^3
#
#
#
# Elastic Constant Matrix: (Units=GPa)
#
#
# Indices 1 2 3 4 5 6 
#
# 1 106.5856 24.0976 41.7680 0.0000 0.0000 0.0000
# 2 24.0976 113.6524 32.5069 0.0000 0.0000 0.0000
# 3 41.7680 32.5069 65.6144 0.0000 0.0000 0.0000
# 4 0.0000 0.0000 0.0000 36.2026 0.0000 0.0000
# 5 0.0000 0.0000 0.0000 0.0000 33.1129 0.0000
# 6 0.0000 0.0000 0.0000 0.0000 0.0000 32.8657
#
#
#
# Elastic Compliance Matrix: (Units=1/GPa)
#
#
# Indices 1 2 3 4 5 6 
#
# 1 0.012519 -0.000437 -0.007753 0.000000 0.000000 0.000000
# 2 -0.000437 0.010267 -0.004808 0.000000 0.000000 0.000000
# 3 -0.007753 -0.004808 0.022558 0.000000 0.000000 0.000000
# 4 0.000000 0.000000 0.000000 0.027622 0.000000 0.000000
# 5 0.000000 0.000000 0.000000 0.000000 0.030200 0.000000
# 6 0.000000 0.000000 0.000000 0.000000 0.000000 0.030427
#
#
# Mechanical properties :
#
#
# Convention : Reuss Voigt Hill
#
# Bulk Modulus (GPa) = 51.68571 53.62195 52.65383
# Shear Modulus (GPa) = 30.11371 32.93489 31.52430
#
# Velocity S-wave (km/s) = 3.56083 3.72389 3.64327
# Velocity P-wave (km/s) = 6.21840 6.40840 6.31411
#
# Compressibility (1/GPa) = 0.01934771
#
# Stress axis : x y z
#
# Youngs Moduli (GPa) = 79.87859 97.40279 44.33057
#
# Poissons Ratio (x) = 0.04256 0.34368
# Poissons Ratio (y) = 0.03490 0.21315
# Poissons Ratio (z) = 0.61928 0.46833
#
# Static dielectric constant tensor:
#      x y z
#    x 2.018880 0.000000 0.000000 
#    y 0.000000 1.879280 0.000000 
#    z 0.000000 0.000000 1.865900 
# 
# From -- ./inp_files/34050.got.cif
#   From: 2010.05.17/outbox.cif.g08.bks.cpg/sg63_18_cif.got.tgz:34050.got - 2010.06.03 15:47:04.
