data_PCOD9475751
_publ_section_title
;
Structure prediction by ZEFSAII (Michael W. Deem and Ramdas Pophale) SiO2 
 PCOD9475751
Probable space group: C M C M
;
_chemical_formula_sum "Si O2"
_cell_formula_units_Z 64
_cell_length_a 23.496461
_cell_length_b 5.027722
_cell_length_c 23.153612
_cell_angle_alpha 90.000000
_cell_angle_beta 90.000000
_cell_angle_gamma 90.000000
_cell_volume 2735.221249
_symmetry_space_group_name_H-M "C M C M"
_symmetry_group_IT_number 63
_symmetry_cell_setting 'orthorhombic'
loop_
_space_group_symop_operation_xyz
x,y,z
-x,-y,1/2+z
x,-y,-z
-x,y,1/2-z
-x,-y,-z
x,y,1/2-z
-x,y,z
x,-y,1/2+z
1/2+x,1/2+y,z
1/2-x,1/2-y,1/2+z
1/2+x,1/2-y,-z
1/2-x,1/2+y,1/2-z
1/2-x,1/2-y,-z
1/2+x,1/2+y,1/2-z
1/2-x,1/2+y,z
1/2+x,1/2-y,1/2+z
loop_
_atom_site_type_symbol
_atom_site_label
_atom_site_fract_x
_atom_site_fract_y
_atom_site_fract_z
Si Si1 0.092235 0.021497 0.814890
Si Si2 0.282954 0.324587 0.662622
Si Si3 0.670691 0.760852 0.462042
Si Si4 0.936471 0.466604 0.390645
O O1 0.073186 0.083999 0.750000
O O2 0.158519 0.939407 0.813742
O O3 0.062815 0.764730 0.842555
O O4 0.082549 0.265398 0.858253
O O5 0.232778 0.525618 0.679237
O O6 0.292144 0.315610 0.593534
O O7 0.660380 0.500000 0.500000
O O8 0.611430 0.876433 0.436065
O O9 0.696258 0.000000 0.500000
O O10 0.000000 0.499324 0.414944
#
# Coordination Sequence:
#
# PCOD9475751 Si02
#       4
#    16  16  16  16
#     4  11  24  42  64  92 125 160 204 256 307 367
#     4  11  23  40  62  90 123 160 204 251 301 361
#     4  11  23  40  62  91 127 164 207 255 305 365
#     4  11  24  42  64  92 125 161 205 255 307 368
#
# _framework density 23.398472999999999
#
# number of rings (size 3 to 8) (size 9 to 14) (size 15 to 20)
#    0.000    1.000    0.000    9.000    0.000    8.000 
#    0.000    0.000    0.000    0.000    0.000    0.000 
#    0.000    0.000    0.000    0.000    0.000    0.000 
#
# Total GULP energy -179262.806978 kJ/mol
# GULP energy per Si atom -5601.962718 kJ/mol
# Density = 2.334522 g / cm^3
# Si number density = 23.398473 Si / 1000 Ang^3
#
#
#
# Elastic Constant Matrix: (Units=GPa)
#
#
# Indices 1 2 3 4 5 6 
#
# 1 98.1160 25.0437 4.4240 0.0000 0.0000 0.0000
# 2 25.0437 150.4002 33.1548 0.0000 0.0000 0.0000
# 3 4.4240 33.1548 98.7843 0.0000 0.0000 0.0000
# 4 0.0000 0.0000 0.0000 8.8767 0.0000 0.0000
# 5 0.0000 0.0000 0.0000 0.0000 -14.7625 0.0000
# 6 0.0000 0.0000 0.0000 0.0000 0.0000 57.2283
#
#
#
# Elastic Compliance Matrix: (Units=1/GPa)
#
#
# Indices 1 2 3 4 5 6 
#
# 1 0.010646 -0.001801 0.000128 0.000000 0.000000 0.000000
# 2 -0.001801 0.007485 -0.002431 0.000000 0.000000 0.000000
# 3 0.000128 -0.002431 0.010933 0.000000 0.000000 0.000000
# 4 0.000000 0.000000 0.000000 0.112655 0.000000 0.000000
# 5 0.000000 0.000000 0.000000 0.000000 -0.067739 0.000000
# 6 0.000000 0.000000 0.000000 0.000000 0.000000 0.017474
#
#
# Mechanical properties :
#
#
# Convention : Reuss Voigt Hill
#
# Bulk Modulus (GPa) = 47.95053 52.50505 50.22779
# Shear Modulus (GPa) = 46.89799 29.24703 38.07251
#
# Velocity S-wave (km/s) = 4.48182 3.53931 4.03815
# Velocity P-wave (km/s) = 6.87894 6.26023 6.57686
#
# Compressibility (1/GPa) = 0.02085483
#
# Stress axis : x y z
#
# Youngs Moduli (GPa) = 93.93270 133.60429 91.46270
#
# Poissons Ratio (x) = 0.24060 -0.01167
# Poissons Ratio (y) = 0.16916 0.22239
# Poissons Ratio (z) = -0.01199 0.32485
#
# Static dielectric constant tensor:
#      x y z
#    x 1.863170 0.000000 0.000000 
#    y 0.000000 1.815230 0.000000 
#    z 0.000000 0.000000 1.882220 
# 
# From -- ./inp_files/64840.got.cif
#   From: 2010.05.17/outbox.cif.g08.bks.cpg/sg63_33_cif.got.tgz:64840.got - 2010.06.03 15:47:04.
