data_PCOD9475781
_publ_section_title
;
Structure prediction by ZEFSAII (Michael W. Deem and Ramdas Pophale) SiO2 
 PCOD9475781
Probable space group: C M C M
;
_chemical_formula_sum "Si O2"
_cell_formula_units_Z 68
_cell_length_a 17.032761
_cell_length_b 22.452583
_cell_length_c 8.753171
_cell_angle_alpha 90.000000
_cell_angle_beta 90.000000
_cell_angle_gamma 90.000000
_cell_volume 3347.470635
_symmetry_space_group_name_H-M "C M C M"
_symmetry_group_IT_number 63
_symmetry_cell_setting 'orthorhombic'
loop_
_space_group_symop_operation_xyz
x,y,z
-x,-y,1/2+z
x,-y,-z
-x,y,1/2-z
-x,-y,-z
x,y,1/2-z
-x,y,z
x,-y,1/2+z
1/2+x,1/2+y,z
1/2-x,1/2-y,1/2+z
1/2+x,1/2-y,-z
1/2-x,1/2+y,1/2-z
1/2-x,1/2-y,-z
1/2+x,1/2+y,1/2-z
1/2-x,1/2+y,z
1/2+x,1/2-y,1/2+z
loop_
_atom_site_type_symbol
_atom_site_label
_atom_site_fract_x
_atom_site_fract_y
_atom_site_fract_z
Si Si1 0.831031 0.776719 0.069402
Si Si2 0.410186 0.168567 0.572339
Si Si3 0.633114 0.594499 0.070026
Si Si4 0.685751 0.937807 0.928727
Si Si5 0.500000 0.500000 0.500000
O O1 0.821214 0.783814 0.250000
O O2 0.750000 0.750000 0.000000
O O3 0.894517 0.726688 0.028062
O O4 0.857393 0.839193 0.996545
O O5 0.395115 0.183158 0.750000
O O6 0.500000 0.148717 0.557452
O O7 0.352805 0.116816 0.517315
O O8 0.611722 0.597156 0.250000
O O9 0.720215 0.567177 0.057860
O O10 0.568967 0.552195 0.992531
O O11 0.665527 0.934024 0.750000
O O12 0.659419 0.000000 0.000000
#
# Coordination Sequence:
#
# PCOD9475781 Si02
#       5
#    16  16  16  16   4
#     4  12  25  43  71 102 137 182 233 289 354 422
#     4  11  25  45  69  99 136 177 229 290 351 415
#     4  11  25  44  68 101 139 184 235 287 347 417
#     4  11  23  42  69  98 133 177 227 282 343 414
#     4  12  26  48  72 102 148 192 238 294 358 432
#
# _framework density 20.313845000000001
#
# number of rings (size 3 to 8) (size 9 to 14) (size 15 to 20)
#    0.000    0.706    3.529    3.882    1.647    5.176 
#    0.000    0.000    0.000    0.000    0.000    0.000 
#    0.000    0.000    0.000    0.000    0.000    0.000 
#
# Total GULP energy -189644.319354 kJ/mol
# GULP energy per Si atom -5577.774099 kJ/mol
# Density = 2.026761 g / cm^3
# Si number density = 20.313845 Si / 1000 Ang^3
#
#
#
# Elastic Constant Matrix: (Units=GPa)
#
#
# Indices 1 2 3 4 5 6 
#
# 1 80.4498 17.4049 17.8774 0.0000 0.0000 0.0000
# 2 17.4049 139.8187 6.6663 0.0000 0.0000 0.0000
# 3 17.8774 6.6663 31.3598 0.0000 0.0000 0.0000
# 4 0.0000 0.0000 0.0000 19.6503 0.0000 0.0000
# 5 0.0000 0.0000 0.0000 0.0000 10.8835 0.0000
# 6 0.0000 0.0000 0.0000 0.0000 0.0000 33.5183
#
#
#
# Elastic Compliance Matrix: (Units=1/GPa)
#
#
# Indices 1 2 3 4 5 6 
#
# 1 0.014509 -0.001426 -0.007968 0.000000 0.000000 0.000000
# 2 -0.001426 0.007366 -0.000753 0.000000 0.000000 0.000000
# 3 -0.007968 -0.000753 0.036590 0.000000 0.000000 0.000000
# 4 0.000000 0.000000 0.000000 0.050890 0.000000 0.000000
# 5 0.000000 0.000000 0.000000 0.000000 0.091882 0.000000
# 6 0.000000 0.000000 0.000000 0.000000 0.000000 0.029834
#
#
# Mechanical properties :
#
#
# Convention : Reuss Voigt Hill
#
# Bulk Modulus (GPa) = 26.19784 37.28061 31.73922
# Shear Modulus (GPa) = 18.93297 26.78906 22.86101
#
# Velocity S-wave (km/s) = 3.05622 3.63541 3.35832
# Velocity P-wave (km/s) = 5.03771 6.00115 5.54041
#
# Compressibility (1/GPa) = 0.03817109
#
# Stress axis : x y z
#
# Youngs Moduli (GPa) = 68.92110 135.76721 27.32956
#
# Poissons Ratio (x) = 0.19364 0.21777
# Poissons Ratio (y) = 0.09830 0.02057
# Poissons Ratio (z) = 0.54918 0.10219
#
# Static dielectric constant tensor:
#      x y z
#    x 1.723770 0.000000 0.000000 
#    y 0.000000 1.685030 0.000000 
#    z 0.000000 0.000000 1.714520 
# 
# From -- ./inp_files/5886.got.cif
#   From: 2010.05.17/outbox.cif.g08.bks.cpg/sg63_3_cif.got.tgz:5886.got - 2010.06.03 15:47:04.
