data_PCOD9475195
_publ_section_title
;
Structure prediction by ZEFSAII (Michael W. Deem and Ramdas Pophale) SiO2 
 PCOD9475195
Probable space group: C M C M
;
_chemical_formula_sum "Si O2"
_cell_formula_units_Z 84
_cell_length_a 12.773561
_cell_length_b 13.949492
_cell_length_c 26.462658
_cell_angle_alpha 90.000000
_cell_angle_beta 90.000000
_cell_angle_gamma 90.000000
_cell_volume 4715.240432
_symmetry_space_group_name_H-M "C M C M"
_symmetry_group_IT_number 63
_symmetry_cell_setting 'orthorhombic'
loop_
_space_group_symop_operation_xyz
x,y,z
-x,-y,1/2+z
x,-y,-z
-x,y,1/2-z
-x,-y,-z
x,y,1/2-z
-x,y,z
x,-y,1/2+z
1/2+x,1/2+y,z
1/2-x,1/2-y,1/2+z
1/2+x,1/2-y,-z
1/2-x,1/2+y,1/2-z
1/2-x,1/2-y,-z
1/2+x,1/2+y,1/2-z
1/2-x,1/2+y,z
1/2+x,1/2-y,1/2+z
loop_
_atom_site_type_symbol
_atom_site_label
_atom_site_fract_x
_atom_site_fract_y
_atom_site_fract_z
Si Si1 0.380725 0.757084 0.309260
Si Si2 0.876783 0.066721 0.123541
Si Si3 0.172405 0.860631 0.163691
Si Si4 0.120956 0.214842 0.947476
Si Si5 0.500000 0.320932 0.250000
Si Si6 0.264631 0.097181 0.025060
O O1 0.373403 0.731385 0.250000
O O2 0.500000 0.791678 0.318507
O O3 0.364372 0.662939 0.343486
O O4 0.290777 0.832838 0.321990
O O5 0.807020 0.073048 0.073460
O O6 0.000000 0.056738 0.110710
O O7 0.843708 0.973995 0.155631
O O8 0.146206 0.811506 0.110151
O O9 0.091838 0.825265 0.205904
O O10 0.149724 0.325102 0.958495
O O11 0.000000 0.195767 0.957868
O O12 0.192018 0.149687 0.983670
O O13 0.306432 0.000000 0.000000
#
# Coordination Sequence:
#
# PCOD9475195 Si02
#       6
#    16  16  16  16   4  16
#     4  10  23  40  62  86 121 161 202 250 304 365
#     4  11  22  37  62  91 119 156 203 252 303 359
#     4  12  22  39  63  94 122 157 204 255 307 356
#     4  11  23  40  61  88 124 159 204 252 304 363
#     4  12  24  36  66  98 122 158 200 266 304 352
#     4  11  23  39  60  89 122 160 199 251 304 368
#
# _framework density 17.814574
#
# number of rings (size 3 to 8) (size 9 to 14) (size 15 to 20)
#    0.000    0.952    6.667    0.571    1.333    1.143 
#    0.000    0.952    2.095    0.000    0.000    0.000 
#    0.000    0.000    0.000    0.000    0.000    0.000 
#
# Total GULP energy -234068.819931 kJ/mol
# GULP energy per Si atom -5573.067141 kJ/mol
# Density = 1.777403 g / cm^3
# Si number density = 17.814574 Si / 1000 Ang^3
#
#
#
# Elastic Constant Matrix: (Units=GPa)
#
#
# Indices 1 2 3 4 5 6 
#
# 1 62.2311 6.1324 14.9757 0.0000 0.0000 0.0000
# 2 6.1324 37.5473 -17.3153 0.0000 0.0000 0.0000
# 3 14.9757 -17.3153 65.5044 0.0000 0.0000 0.0000
# 4 0.0000 0.0000 0.0000 5.3235 0.0000 0.0000
# 5 0.0000 0.0000 0.0000 0.0000 -9.5059 0.0000
# 6 0.0000 0.0000 0.0000 0.0000 0.0000 9.5399
#
#
#
# Elastic Compliance Matrix: (Units=1/GPa)
#
#
# Indices 1 2 3 4 5 6 
#
# 1 0.017947 -0.005493 -0.005555 0.000000 0.000000 0.000000
# 2 -0.005493 0.032012 0.009718 0.000000 0.000000 0.000000
# 3 -0.005555 0.009718 0.019105 0.000000 0.000000 0.000000
# 4 0.000000 0.000000 0.000000 0.187845 0.000000 0.000000
# 5 0.000000 0.000000 0.000000 0.000000 -0.105198 0.000000
# 6 0.000000 0.000000 0.000000 0.000000 0.000000 0.104823
#
#
# Mechanical properties :
#
#
# Convention : Reuss Voigt Hill
#
# Bulk Modulus (GPa) = 15.05958 19.20761 17.13359
# Shear Modulus (GPa) = 17.77274 11.83750 14.80512
#
# Velocity S-wave (km/s) = 3.16199 2.58056 2.88595
# Velocity P-wave (km/s) = 4.66934 4.43671 4.55451
#
# Compressibility (1/GPa) = 0.06640291
#
# Stress axis : x y z
#
# Youngs Moduli (GPa) = 55.71877 31.23862 52.34244
#
# Poissons Ratio (x) = 0.17160 0.29077
# Poissons Ratio (y) = 0.30607 -0.50865
# Poissons Ratio (z) = 0.30953 -0.30357
#
# Static dielectric constant tensor:
#      x y z
#    x 1.587250 0.000000 0.000000 
#    y 0.000000 1.602850 0.000000 
#    z 0.000000 0.000000 1.590710 
# 
# From -- ./inp_files/61245.got.cif
#   From: 2010.05.17/outbox.cif.g08.bks.cpg/sg63_31_cif.got.tgz:61245.got - 2010.06.03 15:47:04.
