data_PCOD9475887
_publ_section_title
;
Structure prediction by ZEFSAII (Michael W. Deem and Ramdas Pophale) SiO2 
 PCOD9475887
Probable space group: C M C M
;
_chemical_formula_sum "Si O2"
_cell_formula_units_Z 96
_cell_length_a 14.442028
_cell_length_b 24.515581
_cell_length_c 16.084553
_cell_angle_alpha 90.000000
_cell_angle_beta 90.000000
_cell_angle_gamma 90.000000
_cell_volume 5694.811703
_symmetry_space_group_name_H-M "C M C M"
_symmetry_group_IT_number 63
_symmetry_cell_setting 'orthorhombic'
loop_
_space_group_symop_operation_xyz
x,y,z
-x,-y,1/2+z
x,-y,-z
-x,y,1/2-z
-x,-y,-z
x,y,1/2-z
-x,y,z
x,-y,1/2+z
1/2+x,1/2+y,z
1/2-x,1/2-y,1/2+z
1/2+x,1/2-y,-z
1/2-x,1/2+y,1/2-z
1/2-x,1/2-y,-z
1/2+x,1/2+y,1/2-z
1/2-x,1/2+y,z
1/2+x,1/2-y,1/2+z
loop_
_atom_site_type_symbol
_atom_site_label
_atom_site_fract_x
_atom_site_fract_y
_atom_site_fract_z
Si Si1 0.391113 0.565611 0.844467
Si Si2 0.890085 0.780800 0.066552
Si Si3 0.609297 0.565733 0.156293
Si Si4 0.206628 0.120823 0.000031
Si Si5 0.109818 0.218856 0.750000
Si Si6 0.109692 0.349672 0.750000
Si Si7 0.390871 0.850489 0.565346
O O1 0.366323 0.582973 0.750000
O O2 0.500000 0.579076 0.856552
O O3 0.383078 0.499953 0.847667
O O4 0.332653 0.590843 0.918791
O O5 0.856395 0.798170 0.159380
O O6 0.881905 0.715496 0.059029
O O7 0.000000 0.792883 0.059681
O O8 0.832799 0.817363 0.003330
O O9 0.637712 0.582809 0.250000
O O10 0.500000 0.578757 0.146650
O O11 0.665555 0.592250 0.081744
O O12 0.317511 0.122837 0.003862
O O13 0.120464 0.284337 0.750000
O O14 0.000000 0.207413 0.750000
O O15 0.140715 0.367945 0.841091
O O16 0.000000 0.360157 0.750000
O O17 0.500000 0.863046 0.554225
#
# Coordination Sequence:
#
# PCOD9475887 Si02
#       7
#    16  16  16  16   8   8  16
#     4   9  19  35  53  75 102 128 159 204 253 299
#     4   9  17  29  45  71 103 132 162 203 248 286
#     4   9  19  35  51  72 105 134 155 192 252 312
#     4  12  20  27  52  79  98 126 172 204 243 295
#     4   7  12  24  42  62  90 123 155 197 240 272
#     4   7  12  28  48  60  80 125 169 201 240 272
#     4   9  19  33  47  67 102 137 168 208 246 280
#
# _framework density 16.85745
#
# number of rings (size 3 to 8) (size 9 to 14) (size 15 to 20)
#    0.000    2.833    0.000    5.500    2.333    1.333 
#    0.000    0.000    0.000    2.500    0.000    4.667 
#    0.000    0.000    0.000    0.000    0.000    0.000 
#
# Total GULP energy -267311.187982 kJ/mol
# GULP energy per Si atom -5568.983083 kJ/mol
# Density = 1.681908 g / cm^3
# Si number density = 16.857450 Si / 1000 Ang^3
#
#
#
# Elastic Constant Matrix: (Units=GPa)
#
#
# Indices 1 2 3 4 5 6 
#
# 1 90.6182 27.2749 68.1562 0.0000 0.0000 0.0000
# 2 27.2749 28.6663 41.6256 0.0000 0.0000 0.0000
# 3 68.1562 41.6256 113.0074 0.0000 0.0000 0.0000
# 4 0.0000 0.0000 0.0000 28.3464 0.0000 0.0000
# 5 0.0000 0.0000 0.0000 0.0000 21.2784 0.0000
# 6 0.0000 0.0000 0.0000 0.0000 0.0000 4.6809
#
#
#
# Elastic Compliance Matrix: (Units=1/GPa)
#
#
# Indices 1 2 3 4 5 6 
#
# 1 0.020342 -0.003311 -0.011049 0.000000 0.000000 0.000000
# 2 -0.003311 0.075537 -0.025827 0.000000 0.000000 0.000000
# 3 -0.011049 -0.025827 0.025026 0.000000 0.000000 0.000000
# 4 0.000000 0.000000 0.000000 0.035278 0.000000 0.000000
# 5 0.000000 0.000000 0.000000 0.000000 0.046996 0.000000
# 6 0.000000 0.000000 0.000000 0.000000 0.000000 0.213633
#
#
# Mechanical properties :
#
#
# Convention : Reuss Voigt Hill
#
# Bulk Modulus (GPa) = 24.67207 56.26728 40.46968
# Shear Modulus (GPa) = 9.79057 17.21015 13.50036
#
# Velocity S-wave (km/s) = 2.41257 3.19865 2.83301
# Velocity P-wave (km/s) = 4.73583 6.86241 5.89579
#
# Compressibility (1/GPa) = 0.04053166
#
# Stress axis : x y z
#
# Youngs Moduli (GPa) = 49.15917 13.23860 39.95840
#
# Poissons Ratio (x) = 0.04383 0.44151
# Poissons Ratio (y) = 0.16275 1.03200
# Poissons Ratio (z) = 0.54317 0.34191
#
# Static dielectric constant tensor:
#      x y z
#    x 1.548130 0.000000 0.000000 
#    y 0.000000 1.587290 0.000000 
#    z 0.000000 0.000000 1.601540 
# 
# From -- ./inp_files/32464.got.cif
#   From: 2010.05.17/outbox.cif.g08.bks.cpg/sg63_17_cif.got.tgz:32464.got - 2010.06.03 15:47:04.
