data_PCOD9475710
_publ_section_title
;
Structure prediction by ZEFSAII (Michael W. Deem and Ramdas Pophale) SiO2 
 PCOD9475710
Probable space group: C M C M
;
_chemical_formula_sum "Si O2"
_cell_formula_units_Z 96
_cell_length_a 25.109081
_cell_length_b 16.065381
_cell_length_c 11.926630
_cell_angle_alpha 90.000000
_cell_angle_beta 90.000000
_cell_angle_gamma 90.000000
_cell_volume 4811.046933
_symmetry_space_group_name_H-M "C M C M"
_symmetry_group_IT_number 63
_symmetry_cell_setting 'orthorhombic'
loop_
_space_group_symop_operation_xyz
x,y,z
-x,-y,1/2+z
x,-y,-z
-x,y,1/2-z
-x,-y,-z
x,y,1/2-z
-x,y,z
x,-y,1/2+z
1/2+x,1/2+y,z
1/2-x,1/2-y,1/2+z
1/2+x,1/2-y,-z
1/2-x,1/2+y,1/2-z
1/2-x,1/2-y,-z
1/2+x,1/2+y,1/2-z
1/2-x,1/2+y,z
1/2+x,1/2-y,1/2+z
loop_
_atom_site_type_symbol
_atom_site_label
_atom_site_fract_x
_atom_site_fract_y
_atom_site_fract_z
Si Si1 0.500000 0.683996 0.615387
Si Si2 0.219413 0.384627 0.023579
Si Si3 0.384425 0.314988 0.067693
Si Si4 0.000000 0.376745 0.614145
Si Si5 0.813224 0.035087 0.875893
Si Si6 0.882468 0.618622 0.120111
Si Si7 0.192987 0.205791 0.120678
O O1 0.500000 0.682818 0.750000
O O2 0.556355 0.648968 0.576414
O O3 0.500000 0.780397 0.576762
O O4 0.250334 0.449018 0.102757
O O5 0.209534 0.300012 0.092512
O O6 0.164826 0.407638 0.962116
O O7 0.262494 0.355582 0.930124
O O8 0.342706 0.375478 0.127588
O O9 0.383318 0.220751 0.115940
O O10 0.362391 0.308976 0.942300
O O11 0.941703 0.410744 0.582965
O O12 0.000000 0.376402 0.750000
O O13 0.821695 0.997678 0.750000
O O14 0.831895 0.000000 0.000000
O O15 0.873457 0.594599 0.250000
O O16 0.188718 0.194148 0.250000
#
# Coordination Sequence:
#
# PCOD9475710 Si02
#       7
#     8  16  16   8  16  16  16
#     4   9  14  26  48  68  90 119 154 191 227 277
#     4   9  18  28  45  68  89 121 157 190 233 287
#     4   9  18  30  48  71  93 124 160 193 235 282
#     4   7  12  20  36  68 103 127 144 175 224 275
#     4  11  23  37  50  66  92 126 165 207 246 281
#     4   9  14  24  45  73 102 125 150 186 228 279
#     4   9  16  27  44  68  97 121 147 190 239 288
#
# _framework density 19.954077000000002
#
# number of rings (size 3 to 8) (size 9 to 14) (size 15 to 20)
#    0.000    2.833    0.000    4.500    0.000    3.333 
#    0.000    0.833    0.000    0.000    0.000    2.333 
#    0.000    0.000    0.000    0.000    0.000    0.000 
#
# Total GULP energy -267343.323476 kJ/mol
# GULP energy per Si atom -5569.652572 kJ/mol
# Density = 1.990866 g / cm^3
# Si number density = 19.954077 Si / 1000 Ang^3
#
#
#
# Elastic Constant Matrix: (Units=GPa)
#
#
# Indices 1 2 3 4 5 6 
#
# 1 136.5468 10.8598 27.0785 0.0000 0.0000 0.0000
# 2 10.8598 49.5645 19.4918 0.0000 0.0000 0.0000
# 3 27.0785 19.4918 133.9078 0.0000 0.0000 0.0000
# 4 0.0000 0.0000 0.0000 6.4155 0.0000 0.0000
# 5 0.0000 0.0000 0.0000 0.0000 16.5176 0.0000
# 6 0.0000 0.0000 0.0000 0.0000 0.0000 7.6408
#
#
#
# Elastic Compliance Matrix: (Units=1/GPa)
#
#
# Indices 1 2 3 4 5 6 
#
# 1 0.007690 -0.001138 -0.001389 0.000000 0.000000 0.000000
# 2 -0.001138 0.021569 -0.002909 0.000000 0.000000 0.000000
# 3 -0.001389 -0.002909 0.008172 0.000000 0.000000 0.000000
# 4 0.000000 0.000000 0.000000 0.155873 0.000000 0.000000
# 5 0.000000 0.000000 0.000000 0.000000 0.060542 0.000000
# 6 0.000000 0.000000 0.000000 0.000000 0.000000 0.130877
#
#
# Mechanical properties :
#
#
# Convention : Reuss Voigt Hill
#
# Bulk Modulus (GPa) = 37.65514 48.31995 42.98755
# Shear Modulus (GPa) = 12.36249 23.62070 17.99159
#
# Velocity S-wave (km/s) = 2.49177 3.44430 3.00601
# Velocity P-wave (km/s) = 5.21444 6.33133 5.79984
#
# Compressibility (1/GPa) = 0.02655680
#
# Stress axis : x y z
#
# Youngs Moduli (GPa) = 130.04678 46.36212 122.36522
#
# Poissons Ratio (x) = 0.05278 0.17000
# Poissons Ratio (y) = 0.14806 0.35602
# Poissons Ratio (z) = 0.18067 0.13489
#
# Static dielectric constant tensor:
#      x y z
#    x 1.728930 0.000000 0.000000 
#    y 0.000000 1.772900 0.000000 
#    z 0.000000 0.000000 1.709950 
# 
# From -- ./inp_files/24024.got.cif
#   From: 2010.05.17/outbox.cif.g08.bks.cpg/sg63_13_cif.got.tgz:24024.got - 2010.06.03 15:47:04.
