data_PCOD9475220
_publ_section_title
;
Structure prediction by ZEFSAII (Michael W. Deem and Ramdas Pophale) SiO2 
 PCOD9475220
Probable space group: C M C M
;
_chemical_formula_sum "Si O2"
_cell_formula_units_Z 96
_cell_length_a 11.548549
_cell_length_b 25.220921
_cell_length_c 17.835378
_cell_angle_alpha 90.000000
_cell_angle_beta 90.000000
_cell_angle_gamma 90.000000
_cell_volume 5194.822122
_symmetry_space_group_name_H-M "C M C M"
_symmetry_group_IT_number 63
_symmetry_cell_setting 'orthorhombic'
loop_
_space_group_symop_operation_xyz
x,y,z
-x,-y,1/2+z
x,-y,-z
-x,y,1/2-z
-x,-y,-z
x,y,1/2-z
-x,y,z
x,-y,1/2+z
1/2+x,1/2+y,z
1/2-x,1/2-y,1/2+z
1/2+x,1/2-y,-z
1/2-x,1/2+y,1/2-z
1/2-x,1/2-y,-z
1/2+x,1/2+y,1/2-z
1/2-x,1/2+y,z
1/2+x,1/2-y,1/2+z
loop_
_atom_site_type_symbol
_atom_site_label
_atom_site_fract_x
_atom_site_fract_y
_atom_site_fract_z
Si Si1 0.720089 0.450215 0.838471
Si Si2 0.500000 0.506805 0.588555
Si Si3 0.860150 0.153200 0.081440
Si Si4 0.136667 0.530401 0.921739
Si Si5 0.000000 0.116876 0.835643
Si Si6 0.638531 0.763937 0.336510
Si Si7 0.727099 0.357848 0.412042
O O1 0.707509 0.444777 0.750000
O O2 0.611853 0.481426 0.873858
O O3 0.711210 0.393173 0.877496
O O4 0.828939 0.486903 0.859556
O O5 0.500000 0.500000 0.500000
O O6 0.500000 0.568130 0.607350
O O7 0.834161 0.208684 0.122086
O O8 0.000000 0.143148 0.086808
O O9 0.822048 0.153177 0.994973
O O10 0.211777 0.584071 0.912437
O O11 0.000000 0.542890 0.920492
O O12 0.163862 0.500000 0.000000
O O13 0.118964 0.145622 0.855028
O O14 0.000000 0.098402 0.750000
O O15 0.680391 0.764424 0.250000
O O16 0.500000 0.767520 0.334021
O O17 0.685645 0.812994 0.384148
#
# Coordination Sequence:
#
# PCOD9475220 Si02
#       7
#    16   8  16  16   8  16  16
#     4  12  23  37  62  93 125 158 198 252 315 368
#     4  12  22  36  58  92 126 160 196 243 303 372
#     4  11  22  39  64  94 123 158 204 255 308 370
#     4  11  24  41  62  88 123 168 208 249 301 370
#     4  12  24  36  58  92 126 156 194 252 312 360
#     4  10  23  42  63  89 123 160 205 257 304 359
#     4  12  22  40  65  91 121 162 208 250 306 367
#
# _framework density 18.479939999999999
#
# number of rings (size 3 to 8) (size 9 to 14) (size 15 to 20)
#    0.000    0.667    5.000    4.250    0.000    1.667 
#    0.000    0.000    1.833    0.000    0.000    0.000 
#    0.000    0.000    0.000    0.000    0.000    0.000 
#
# Total GULP energy -268187.248746 kJ/mol
# GULP energy per Si atom -5587.234349 kJ/mol
# Density = 1.843788 g / cm^3
# Si number density = 18.479940 Si / 1000 Ang^3
#
#
#
# Elastic Constant Matrix: (Units=GPa)
#
#
# Indices 1 2 3 4 5 6 
#
# 1 59.4826 31.2042 11.8355 0.0000 0.0000 0.0000
# 2 31.2042 118.9018 27.3377 0.0000 0.0000 0.0000
# 3 11.8355 27.3377 117.9283 0.0000 0.0000 0.0000
# 4 0.0000 0.0000 0.0000 17.3450 0.0000 0.0000
# 5 0.0000 0.0000 0.0000 0.0000 7.5510 0.0000
# 6 0.0000 0.0000 0.0000 0.0000 0.0000 22.0200
#
#
#
# Elastic Compliance Matrix: (Units=1/GPa)
#
#
# Indices 1 2 3 4 5 6 
#
# 1 0.019570 -0.004948 -0.000817 0.000000 0.000000 0.000000
# 2 -0.004948 0.010135 -0.001853 0.000000 0.000000 0.000000
# 3 -0.000817 -0.001853 0.008991 0.000000 0.000000 0.000000
# 4 0.000000 0.000000 0.000000 0.057654 0.000000 0.000000
# 5 0.000000 0.000000 0.000000 0.000000 0.132432 0.000000
# 6 0.000000 0.000000 0.000000 0.000000 0.000000 0.045413
#
#
# Mechanical properties :
#
#
# Convention : Reuss Voigt Hill
#
# Bulk Modulus (GPa) = 42.62531 48.56305 45.59418
# Shear Modulus (GPa) = 16.82081 24.44555 20.63318
#
# Velocity S-wave (km/s) = 3.02026 3.64100 3.34506
# Velocity P-wave (km/s) = 5.93956 6.63413 6.29643
#
# Compressibility (1/GPa) = 0.02346024
#
# Stress axis : x y z
#
# Youngs Moduli (GPa) = 51.09887 98.66956 111.21932
#
# Poissons Ratio (x) = 0.48822 0.09087
# Poissons Ratio (y) = 0.25284 0.20607
# Poissons Ratio (z) = 0.04175 0.18282
#
# Static dielectric constant tensor:
#      x y z
#    x 1.644070 0.000000 0.000000 
#    y 0.000000 1.624120 0.000000 
#    z 0.000000 0.000000 1.623960 
# 
# From -- ./inp_files/42546.got.cif
#   From: 2010.05.17/outbox.cif.g08.bks.cpg/sg63_22_cif.got.tgz:42546.got - 2010.06.03 15:47:04.
