data_PCOD9475692
_publ_section_title
;
Structure prediction by ZEFSAII (Michael W. Deem and Ramdas Pophale) SiO2 
 PCOD9475692
Probable space group: C M C M
;
_chemical_formula_sum "Si O2"
_cell_formula_units_Z 56
_cell_length_a 10.768270
_cell_length_b 26.861040
_cell_length_c 9.899700
_cell_angle_alpha 90.000000
_cell_angle_beta 90.000000
_cell_angle_gamma 90.000000
_cell_volume 2863.457845
_symmetry_space_group_name_H-M "C M C M"
_symmetry_group_IT_number 63
_symmetry_cell_setting 'orthorhombic'
loop_
_space_group_symop_operation_xyz
x,y,z
-x,-y,1/2+z
x,-y,-z
-x,y,1/2-z
-x,-y,-z
x,y,1/2-z
-x,y,z
x,-y,1/2+z
1/2+x,1/2+y,z
1/2-x,1/2-y,1/2+z
1/2+x,1/2-y,-z
1/2-x,1/2+y,1/2-z
1/2-x,1/2-y,-z
1/2+x,1/2+y,1/2-z
1/2-x,1/2+y,z
1/2+x,1/2-y,1/2+z
loop_
_atom_site_type_symbol
_atom_site_label
_atom_site_fract_x
_atom_site_fract_y
_atom_site_fract_z
Si Si1 0.651453 0.218879 0.908384
Si Si2 0.850142 0.923657 0.750000
Si Si3 0.244584 0.391713 0.470213
Si Si4 0.357473 0.462076 0.250000
Si Si5 0.000000 0.548583 0.587990
O O1 0.657463 0.234005 0.750000
O O2 0.500000 0.220123 0.944455
O O3 0.750000 0.250000 0.000000
O O4 0.708816 0.163270 0.921034
O O5 0.800403 0.895307 0.618686
O O6 0.000000 0.922802 0.750000
O O7 0.800227 0.981796 0.750000
O O8 0.329496 0.426443 0.375760
O O9 0.116974 0.420471 0.457131
O O10 0.500000 0.473857 0.250000
O O11 0.000000 0.500000 0.500000
O O12 0.000000 0.541090 0.750000
#
# Coordination Sequence:
#
# PCOD9475692 Si02
#       5
#    16   8  16   8   8
#     4  11  26  51  75 102 138 178 231 298 357 420
#     4  11  26  43  64 103 148 184 232 283 337 408
#     4  12  24  44  69  97 140 183 229 282 345 411
#     4  11  22  41  68  99 138 190 232 277 339 416
#     4  12  24  40  68 104 142 182 226 276 343 414
#
# _framework density 19.556774000000001
#
# number of rings (size 3 to 8) (size 9 to 14) (size 15 to 20)
#    0.000    0.571    4.286    3.429    4.000    5.143 
#    0.000    0.000    0.000    0.000    0.000    0.000 
#    0.000    0.000    0.000    0.000    0.000    0.000 
#
# Total GULP energy -156071.868006 kJ/mol
# GULP energy per Si atom -5573.995286 kJ/mol
# Density = 1.951226 g / cm^3
# Si number density = 19.556774 Si / 1000 Ang^3
#
#
#
# Elastic Constant Matrix: (Units=GPa)
#
#
# Indices 1 2 3 4 5 6 
#
# 1 114.8467 36.7836 62.8976 0.0000 0.0000 0.0000
# 2 36.7836 81.6624 3.1880 0.0000 0.0000 0.0000
# 3 62.8976 3.1880 131.8732 0.0000 0.0000 0.0000
# 4 0.0000 0.0000 0.0000 31.1556 0.0000 0.0000
# 5 0.0000 0.0000 0.0000 0.0000 40.1641 0.0000
# 6 0.0000 0.0000 0.0000 0.0000 0.0000 44.6198
#
#
#
# Elastic Compliance Matrix: (Units=1/GPa)
#
#
# Indices 1 2 3 4 5 6 
#
# 1 0.014367 -0.006210 -0.006702 0.000000 0.000000 0.000000
# 2 -0.006210 0.014941 0.002600 0.000000 0.000000 0.000000
# 3 -0.006702 0.002600 0.010717 0.000000 0.000000 0.000000
# 4 0.000000 0.000000 0.000000 0.032097 0.000000 0.000000
# 5 0.000000 0.000000 0.000000 0.000000 0.024898 0.000000
# 6 0.000000 0.000000 0.000000 0.000000 0.000000 0.022412
#
#
# Mechanical properties :
#
#
# Convention : Reuss Voigt Hill
#
# Bulk Modulus (GPa) = 51.54103 59.34676 55.44390
# Shear Modulus (GPa) = 34.12491 38.22211 36.17351
#
# Velocity S-wave (km/s) = 4.18175 4.42568 4.30544
# Velocity P-wave (km/s) = 7.05180 7.51846 7.28886
#
# Compressibility (1/GPa) = 0.01940202
#
# Stress axis : x y z
#
# Youngs Moduli (GPa) = 69.60586 66.92977 93.31166
#
# Poissons Ratio (x) = 0.41561 0.62538
# Poissons Ratio (y) = 0.43222 -0.24266
# Poissons Ratio (z) = 0.46651 -0.17405
#
# Static dielectric constant tensor:
#      x y z
#    x 1.670510 0.000000 0.000000 
#    y 0.000000 1.666140 0.000000 
#    z 0.000000 0.000000 2.881300 
# 
# From -- ./inp_files/2884.got.cif
#   From: 2010.05.17/outbox.cif.g08.bks.cpg/sg63_2_cif.got.tgz:2884.got - 2010.06.03 15:47:04.
