data_PCOD9475608
_publ_section_title
;
Structure prediction by ZEFSAII (Michael W. Deem and Ramdas Pophale) SiO2 
 PCOD9475608
Probable space group: C M C M
;
_chemical_formula_sum "Si O2"
_cell_formula_units_Z 80
_cell_length_a 15.332583
_cell_length_b 17.053857
_cell_length_c 15.754252
_cell_angle_alpha 90.000000
_cell_angle_beta 90.000000
_cell_angle_gamma 90.000000
_cell_volume 4119.416739
_symmetry_space_group_name_H-M "C M C M"
_symmetry_group_IT_number 63
_symmetry_cell_setting 'orthorhombic'
loop_
_space_group_symop_operation_xyz
x,y,z
-x,-y,1/2+z
x,-y,-z
-x,y,1/2-z
-x,-y,-z
x,y,1/2-z
-x,y,z
x,-y,1/2+z
1/2+x,1/2+y,z
1/2-x,1/2-y,1/2+z
1/2+x,1/2-y,-z
1/2-x,1/2+y,1/2-z
1/2-x,1/2-y,-z
1/2+x,1/2+y,1/2-z
1/2-x,1/2+y,z
1/2+x,1/2-y,1/2+z
loop_
_atom_site_type_symbol
_atom_site_label
_atom_site_fract_x
_atom_site_fract_y
_atom_site_fract_z
Si Si1 0.905911 0.492798 0.151941
Si Si2 0.850782 0.671025 0.603956
Si Si3 0.280377 0.889115 0.924610
Si Si4 0.833388 0.229018 0.843673
Si Si5 0.597076 0.331733 0.975483
O O1 0.901757 0.516381 0.250000
O O2 0.902206 0.399020 0.146727
O O3 0.823864 0.530675 0.104791
O O4 0.000000 0.519981 0.116309
O O5 0.822176 0.637689 0.512794
O O6 0.761525 0.688645 0.653014
O O7 0.896972 0.752888 0.582083
O O8 0.311738 0.820600 0.860499
O O9 0.176644 0.885135 0.941118
O O10 0.873086 0.218068 0.750000
O O11 0.883269 0.195283 0.926785
O O12 0.500000 0.365195 0.970085
#
# Coordination Sequence:
#
# PCOD9475608 Si02
#       5
#    16  16  16  16  16
#     4  11  22  33  50  78 106 132 166 213 268 316
#     4   9  18  33  52  74 102 135 168 206 258 313
#     4   9  19  33  49  73 106 141 171 203 250 309
#     4   9  17  31  51  74 103 137 171 213 259 298
#     4   9  18  33  54  78 102 136 180 213 244 296
#
# _framework density 19.420224000000001
#
# number of rings (size 3 to 8) (size 9 to 14) (size 15 to 20)
#    0.000    2.600    0.000    4.800    0.000    5.200 
#    0.000    0.000    0.000   21.600    0.000    0.000 
#    0.000    0.000    0.000    0.000    0.000    0.000 
#
# Total GULP energy -222895.443552 kJ/mol
# GULP energy per Si atom -5572.386089 kJ/mol
# Density = 1.937602 g / cm^3
# Si number density = 19.420224 Si / 1000 Ang^3
#
#
#
# Elastic Constant Matrix: (Units=GPa)
#
#
# Indices 1 2 3 4 5 6 
#
# 1 123.8446 29.6565 20.6892 0.0000 0.0000 0.0000
# 2 29.6565 52.2726 17.4368 0.0000 0.0000 0.0000
# 3 20.6892 17.4368 74.8135 0.0000 0.0000 0.0000
# 4 0.0000 0.0000 0.0000 15.4353 0.0000 0.0000
# 5 0.0000 0.0000 0.0000 0.0000 9.7426 0.0000
# 6 0.0000 0.0000 0.0000 0.0000 0.0000 9.5122
#
#
#
# Elastic Compliance Matrix: (Units=1/GPa)
#
#
# Indices 1 2 3 4 5 6 
#
# 1 0.009494 -0.004891 -0.001486 0.000000 0.000000 0.000000
# 2 -0.004891 0.023263 -0.004069 0.000000 0.000000 0.000000
# 3 -0.001486 -0.004069 0.014726 0.000000 0.000000 0.000000
# 4 0.000000 0.000000 0.000000 0.064787 0.000000 0.000000
# 5 0.000000 0.000000 0.000000 0.000000 0.102642 0.000000
# 6 0.000000 0.000000 0.000000 0.000000 0.000000 0.105128
#
#
# Mechanical properties :
#
#
# Convention : Reuss Voigt Hill
#
# Bulk Modulus (GPa) = 37.60663 42.94398 40.27530
# Shear Modulus (GPa) = 14.29412 19.14790 16.72101
#
# Velocity S-wave (km/s) = 2.71595 3.14343 2.93748
# Velocity P-wave (km/s) = 5.40758 5.94440 5.68233
#
# Compressibility (1/GPa) = 0.02659106
#
# Stress axis : x y z
#
# Youngs Moduli (GPa) = 105.32978 42.98739 67.90782
#
# Poissons Ratio (x) = 0.21024 0.10088
# Poissons Ratio (y) = 0.51515 0.27634
# Poissons Ratio (z) = 0.15648 0.17493
#
# Static dielectric constant tensor:
#      x y z
#    x 1.698060 0.000000 0.000000 
#    y 0.000000 1.694200 0.000000 
#    z 0.000000 0.000000 1.706030 
# 
# From -- ./inp_files/43944.got.cif
#   From: 2010.05.17/outbox.cif.g08.bks.cpg/sg63_22_cif.got.tgz:43944.got - 2010.06.03 15:47:04.
