data_PCOD9475356
_publ_section_title
;
Structure prediction by ZEFSAII (Michael W. Deem and Ramdas Pophale) SiO2 
 PCOD9475356
Probable space group: C M C M
;
_chemical_formula_sum "Si O2"
_cell_formula_units_Z 72
_cell_length_a 14.906478
_cell_length_b 9.023789
_cell_length_c 25.261085
_cell_angle_alpha 90.000000
_cell_angle_beta 90.000000
_cell_angle_gamma 90.000000
_cell_volume 3397.942109
_symmetry_space_group_name_H-M "C M C M"
_symmetry_group_IT_number 63
_symmetry_cell_setting 'orthorhombic'
loop_
_space_group_symop_operation_xyz
x,y,z
-x,-y,1/2+z
x,-y,-z
-x,y,1/2-z
-x,-y,-z
x,y,1/2-z
-x,y,z
x,-y,1/2+z
1/2+x,1/2+y,z
1/2-x,1/2-y,1/2+z
1/2+x,1/2-y,-z
1/2-x,1/2+y,1/2-z
1/2-x,1/2-y,-z
1/2+x,1/2+y,1/2-z
1/2-x,1/2+y,z
1/2+x,1/2-y,1/2+z
loop_
_atom_site_type_symbol
_atom_site_label
_atom_site_fract_x
_atom_site_fract_y
_atom_site_fract_z
Si Si1 0.301347 0.861267 0.962622
Si Si2 0.500000 0.084978 0.332018
Si Si3 0.000000 0.385806 0.950847
Si Si4 0.179056 0.094288 0.359122
Si Si5 0.000000 0.059141 0.684566
Si Si6 0.672774 0.096514 0.692645
O O1 0.402677 0.804119 0.949528
O O2 0.236889 0.908178 0.913862
O O3 0.250000 0.750000 0.000000
O O4 0.316781 0.000000 0.000000
O O5 0.500000 0.038546 0.393691
O O6 0.500000 0.262172 0.323667
O O7 0.587175 0.008586 0.308767
O O8 0.000000 0.500000 0.000000
O O9 0.244744 0.009725 0.319145
O O10 0.166847 0.268392 0.347940
O O11 0.085185 0.012643 0.346311
O O12 0.000000 0.031070 0.750000
O O13 0.681485 0.168165 0.750000
#
# Coordination Sequence:
#
# PCOD9475356 Si02
#       6
#    16   8   8  16   8  16
#     4  11  25  46  73 103 139 183 235 293 360 424
#     4  12  25  45  73 101 138 185 244 290 369 425
#     4  10  24  46  72  97 140 181 233 291 357 422
#     4  12  26  45  70 103 144 187 237 292 356 427
#     4  12  27  47  69 103 146 190 239 301 359 429
#     4  12  24  43  69 101 138 185 233 288 351 424
#
# _framework density 21.189295000000001
#
# number of rings (size 3 to 8) (size 9 to 14) (size 15 to 20)
#    0.000    0.444    2.222    6.333    6.222    0.889 
#    0.000    1.111    0.000    0.000    0.000    0.000 
#    0.000    0.000    0.000    0.000    0.000    0.000 
#
# Total GULP energy -200763.804139 kJ/mol
# GULP energy per Si atom -5576.772337 kJ/mol
# Density = 2.114107 g / cm^3
# Si number density = 21.189295 Si / 1000 Ang^3
#
#
#
# Elastic Constant Matrix: (Units=GPa)
#
#
# Indices 1 2 3 4 5 6 
#
# 1 232.1027 62.9066 48.4261 0.0000 0.0000 0.0000
# 2 62.9066 105.7166 1.4109 0.0000 0.0000 0.0000
# 3 48.4261 1.4109 131.1040 0.0000 0.0000 0.0000
# 4 0.0000 0.0000 0.0000 37.1661 0.0000 0.0000
# 5 0.0000 0.0000 0.0000 0.0000 6.0434 0.0000
# 6 0.0000 0.0000 0.0000 0.0000 0.0000 25.8344
#
#
#
# Elastic Compliance Matrix: (Units=1/GPa)
#
#
# Indices 1 2 3 4 5 6 
#
# 1 0.005637 -0.003327 -0.002046 0.000000 0.000000 0.000000
# 2 -0.003327 0.011424 0.001106 0.000000 0.000000 0.000000
# 3 -0.002046 0.001106 0.008372 0.000000 0.000000 0.000000
# 4 0.000000 0.000000 0.000000 0.026906 0.000000 0.000000
# 5 0.000000 0.000000 0.000000 0.000000 0.165470 0.000000
# 6 0.000000 0.000000 0.000000 0.000000 0.000000 0.038708
#
#
# Mechanical properties :
#
#
# Convention : Reuss Voigt Hill
#
# Bulk Modulus (GPa) = 59.17877 77.15672 68.16774
# Shear Modulus (GPa) = 18.47168 37.55409 28.01289
#
# Velocity S-wave (km/s) = 2.95574 4.21445 3.63992
# Velocity P-wave (km/s) = 6.29585 7.75721 7.06442
#
# Compressibility (1/GPa) = 0.01689795
#
# Stress axis : x y z
#
# Youngs Moduli (GPa) = 177.39522 87.53302 119.45279
#
# Poissons Ratio (x) = 0.29123 0.24445
# Poissons Ratio (y) = 0.59020 -0.13211
# Poissons Ratio (z) = 0.36302 -0.09681
#
# Static dielectric constant tensor:
#      x y z
#    x 1.804700 0.000000 0.000000 
#    y 0.000000 1.725050 0.000000 
#    z 0.000000 0.000000 1.817460 
# 
# From -- ./inp_files/69097.got.cif
#   From: 2010.05.17/outbox.cif.g08.bks.cpg/sg63_35_cif.got.tgz:69097.got - 2010.06.03 15:47:04.
