data_PCOD9475352
_publ_section_title
;
Structure prediction by ZEFSAII (Michael W. Deem and Ramdas Pophale) SiO2 
 PCOD9475352
Probable space group: C M C M
;
_chemical_formula_sum "Si O2"
_cell_formula_units_Z 96
_cell_length_a 21.255329
_cell_length_b 7.595337
_cell_length_c 28.462687
_cell_angle_alpha 90.000000
_cell_angle_beta 90.000000
_cell_angle_gamma 90.000000
_cell_volume 4595.055661
_symmetry_space_group_name_H-M "C M C M"
_symmetry_group_IT_number 63
_symmetry_cell_setting 'orthorhombic'
loop_
_space_group_symop_operation_xyz
x,y,z
-x,-y,1/2+z
x,-y,-z
-x,y,1/2-z
-x,-y,-z
x,y,1/2-z
-x,y,z
x,-y,1/2+z
1/2+x,1/2+y,z
1/2-x,1/2-y,1/2+z
1/2+x,1/2-y,-z
1/2-x,1/2+y,1/2-z
1/2-x,1/2-y,-z
1/2+x,1/2+y,1/2-z
1/2-x,1/2+y,z
1/2+x,1/2-y,1/2+z
loop_
_atom_site_type_symbol
_atom_site_label
_atom_site_fract_x
_atom_site_fract_y
_atom_site_fract_z
Si Si1 0.859464 0.969113 0.903442
Si Si2 0.689979 0.229114 0.466985
Si Si3 0.430351 0.763378 0.464359
Si Si4 0.191896 0.582951 0.698877
Si Si5 0.662256 0.497630 0.801380
Si Si6 0.154679 0.430056 0.400847
O O1 0.819681 0.110660 0.931271
O O2 0.872951 0.030283 0.850441
O O3 0.919214 0.918276 0.935612
O O4 0.873537 0.275520 0.998688
O O5 0.750000 0.250000 0.500000
O O6 0.825006 0.223210 0.400540
O O7 0.691710 0.053977 0.435967
O O8 0.500000 0.779543 0.483242
O O9 0.414288 0.909467 0.424259
O O10 0.177543 0.500875 0.750000
O O11 0.267253 0.574552 0.693209
O O12 0.160629 0.503779 0.652277
O O13 0.170823 0.785951 0.700832
O O14 0.637247 0.553481 0.750000
#
# Coordination Sequence:
#
# PCOD9475352 Si02
#       6
#    16  16  16  16  16  16
#     4   9  23  39  58  88 121 159 199 261 298 374
#     4  12  26  38  61  95 125 163 205 257 322 365
#     4  10  24  46  63  84 121 170 214 252 302 371
#     4   9  18  33  54  83 120 157 191 239 305 374
#     4   9  18  33  54  83 120 157 191 239 305 374
#     4   9  23  39  58  88 121 159 199 261 298 374
#
# _framework density 20.892022000000001
#
# number of rings (size 3 to 8) (size 9 to 14) (size 15 to 20)
#    1.000    1.333    0.000    1.000    7.000    4.667 
#    0.000    0.000    0.000    2.000    0.000    0.000 
#    0.000    4.000    0.000    0.000    0.000    0.000 
#
# Total GULP energy -267528.751973 kJ/mol
# GULP energy per Si atom -5573.515666 kJ/mol
# Density = 2.084447 g / cm^3
# Si number density = 20.892022 Si / 1000 Ang^3
#
#
#
# Elastic Constant Matrix: (Units=GPa)
#
#
# Indices 1 2 3 4 5 6 
#
# 1 87.2942 15.0542 42.0421 0.0000 0.0000 0.0000
# 2 15.0542 59.8408 34.9170 0.0000 0.0000 0.0000
# 3 42.0421 34.9170 176.4595 0.0000 0.0000 0.0000
# 4 0.0000 0.0000 0.0000 15.6376 0.0000 0.0000
# 5 0.0000 0.0000 0.0000 0.0000 16.5496 0.0000
# 6 0.0000 0.0000 0.0000 0.0000 0.0000 10.7175
#
#
#
# Elastic Compliance Matrix: (Units=1/GPa)
#
#
# Indices 1 2 3 4 5 6 
#
# 1 0.013085 -0.001665 -0.002788 0.000000 0.000000 0.000000
# 2 -0.001665 0.019104 -0.003384 0.000000 0.000000 0.000000
# 3 -0.002788 -0.003384 0.007001 0.000000 0.000000 0.000000
# 4 0.000000 0.000000 0.000000 0.063948 0.000000 0.000000
# 5 0.000000 0.000000 0.000000 0.000000 0.060424 0.000000
# 6 0.000000 0.000000 0.000000 0.000000 0.000000 0.093305
#
#
# Mechanical properties :
#
#
# Convention : Reuss Voigt Hill
#
# Bulk Modulus (GPa) = 42.52248 56.40233 49.46241
# Shear Modulus (GPa) = 17.83290 24.01971 20.92631
#
# Velocity S-wave (km/s) = 2.92477 3.39441 3.16830
# Velocity P-wave (km/s) = 5.63945 6.51294 6.09187
#
# Compressibility (1/GPa) = 0.02351697
#
# Stress axis : x y z
#
# Youngs Moduli (GPa) = 76.42059 52.34463 142.83996
#
# Poissons Ratio (x) = 0.08715 0.39827
# Poissons Ratio (y) = 0.12724 0.48331
# Poissons Ratio (z) = 0.21308 0.17711
#
# Static dielectric constant tensor:
#      x y z
#    x 1.723880 0.000000 0.000000 
#    y 0.000000 1.840770 0.000000 
#    z 0.000000 0.000000 1.851730 
# 
# From -- ./inp_files/70250.got.cif
#   From: 2010.05.17/outbox.cif.g08.bks.cpg/sg63_36_cif.got.tgz:70250.got - 2010.06.03 15:47:04.
