data_PCOD9475215
_publ_section_title
;
Structure prediction by ZEFSAII (Michael W. Deem and Ramdas Pophale) SiO2 
 PCOD9475215
Probable space group: C M C M
;
_chemical_formula_sum "Si O2"
_cell_formula_units_Z 112
_cell_length_a 13.718977
_cell_length_b 12.253614
_cell_length_c 33.075930
_cell_angle_alpha 90.000000
_cell_angle_beta 90.000000
_cell_angle_gamma 90.000000
_cell_volume 5560.296973
_symmetry_space_group_name_H-M "C M C M"
_symmetry_group_IT_number 63
_symmetry_cell_setting 'orthorhombic'
loop_
_space_group_symop_operation_xyz
x,y,z
-x,-y,1/2+z
x,-y,-z
-x,y,1/2-z
-x,-y,-z
x,y,1/2-z
-x,y,z
x,-y,1/2+z
1/2+x,1/2+y,z
1/2-x,1/2-y,1/2+z
1/2+x,1/2-y,-z
1/2-x,1/2+y,1/2-z
1/2-x,1/2-y,-z
1/2+x,1/2+y,1/2-z
1/2-x,1/2+y,z
1/2+x,1/2-y,1/2+z
loop_
_atom_site_type_symbol
_atom_site_label
_atom_site_fract_x
_atom_site_fract_y
_atom_site_fract_z
Si Si1 0.618474 0.186297 0.097912
Si Si2 0.882421 0.281888 0.075093
Si Si3 0.292141 0.808200 0.297206
Si Si4 0.117949 0.127701 0.354543
Si Si5 0.380791 0.125437 0.491836
Si Si6 0.883442 0.468324 0.359718
Si Si7 0.115411 0.126832 0.656779
O O1 0.500000 0.181020 0.096742
O O2 0.651132 0.165280 0.052238
O O3 0.643517 0.302114 0.117399
O O4 0.649279 0.089060 0.128033
O O5 0.851323 0.179059 0.102219
O O6 0.861916 0.388592 0.102394
O O7 0.000000 0.274498 0.072347
O O8 0.847481 0.301320 0.029645
O O9 0.312628 0.805896 0.250000
O O10 0.334038 0.701876 0.319907
O O11 0.339745 0.911593 0.320304
O O12 0.178049 0.823156 0.306964
O O13 0.000000 0.141586 0.351518
O O14 0.138115 0.000093 0.349992
O O15 0.500000 0.126201 0.491672
O O16 0.351942 0.000000 0.500000
O O17 0.000000 0.469731 0.355012
O O18 0.000000 0.137776 0.663344
#
# Coordination Sequence:
#
# PCOD9475215 Si02
#       7
#    16  16  16  16  16  16  16
#     4   9  17  31  53  84 121 157 193 234 289 348
#     4   8  13  25  49  83 116 149 194 239 280 329
#     4  11  24  39  63  90 109 141 197 251 295 349
#     4   9  20  40  62  84 119 161 194 233 291 355
#     4   9  13  21  46  86 121 150 194 243 280 332
#     4   9  17  32  56  88 122 151 183 237 298 345
#     4  10  23  42  60  83 119 162 197 233 294 363
#
# _framework density 20.142810000000001
#
# number of rings (size 3 to 8) (size 9 to 14) (size 15 to 20)
#    0.000    2.714    1.429    1.286    2.000    2.000 
#    0.000    2.143    0.000   10.286    7.429    0.000 
#    0.000    0.000    0.000    0.000    0.000    0.000 
#
# Total GULP energy -312701.436217 kJ/mol
# GULP energy per Si atom -5583.954218 kJ/mol
# Density = 2.009696 g / cm^3
# Si number density = 20.142810 Si / 1000 Ang^3
#
#
#
# Elastic Constant Matrix: (Units=GPa)
#
#
# Indices 1 2 3 4 5 6 
#
# 1 76.1647 44.6739 32.4271 0.0000 0.0000 0.0000
# 2 44.6739 145.1136 82.8742 0.0000 0.0000 0.0000
# 3 32.4271 82.8742 184.3249 0.0000 0.0000 0.0000
# 4 0.0000 0.0000 0.0000 13.7787 0.0000 0.0000
# 5 0.0000 0.0000 0.0000 0.0000 25.1115 0.0000
# 6 0.0000 0.0000 0.0000 0.0000 0.0000 21.6436
#
#
#
# Elastic Compliance Matrix: (Units=1/GPa)
#
#
# Indices 1 2 3 4 5 6 
#
# 1 0.016113 -0.004496 -0.000813 0.000000 0.000000 0.000000
# 2 -0.004496 0.010526 -0.003942 0.000000 0.000000 0.000000
# 3 -0.000813 -0.003942 0.007341 0.000000 0.000000 0.000000
# 4 0.000000 0.000000 0.000000 0.072576 0.000000 0.000000
# 5 0.000000 0.000000 0.000000 0.000000 0.039822 0.000000
# 6 0.000000 0.000000 0.000000 0.000000 0.000000 0.046203
#
#
# Mechanical properties :
#
#
# Convention : Reuss Voigt Hill
#
# Bulk Modulus (GPa) = 64.60890 80.61708 72.61299
# Shear Modulus (GPa) = 23.12222 28.48195 25.80208
#
# Velocity S-wave (km/s) = 3.39176 3.76440 3.58293
# Velocity P-wave (km/s) = 6.89085 7.68140 7.29684
#
# Compressibility (1/GPa) = 0.01547774
#
# Stress axis : x y z
#
# Youngs Moduli (GPa) = 62.06264 94.99883 136.22963
#
# Poissons Ratio (x) = 0.42711 0.11078
# Poissons Ratio (y) = 0.27903 0.53700
# Poissons Ratio (z) = 0.05047 0.37447
#
# Static dielectric constant tensor:
#      x y z
#    x 1.779620 0.000000 0.000000 
#    y 0.000000 1.692920 0.000000 
#    z 0.000000 0.000000 1.671130 
# 
# From -- ./inp_files/73402.got.cif
#   From: 2010.05.17/outbox.cif.g08.bks.cpg/sg63_37_cif.got.tgz:73402.got - 2010.06.03 15:47:04.
