data_PCOD9475315
_publ_section_title
;
Structure prediction by ZEFSAII (Michael W. Deem and Ramdas Pophale) SiO2 
 PCOD9475315
Probable space group: C M C M
;
_chemical_formula_sum "Si O2"
_cell_formula_units_Z 56
_cell_length_a 26.188253
_cell_length_b 10.992392
_cell_length_c 10.161504
_cell_angle_alpha 90.000000
_cell_angle_beta 90.000000
_cell_angle_gamma 90.000000
_cell_volume 2925.207833
_symmetry_space_group_name_H-M "C M C M"
_symmetry_group_IT_number 63
_symmetry_cell_setting 'orthorhombic'
loop_
_space_group_symop_operation_xyz
x,y,z
-x,-y,1/2+z
x,-y,-z
-x,y,1/2-z
-x,-y,-z
x,y,1/2-z
-x,y,z
x,-y,1/2+z
1/2+x,1/2+y,z
1/2-x,1/2-y,1/2+z
1/2+x,1/2-y,-z
1/2-x,1/2+y,1/2-z
1/2-x,1/2-y,-z
1/2+x,1/2+y,1/2-z
1/2-x,1/2+y,z
1/2+x,1/2-y,1/2+z
loop_
_atom_site_type_symbol
_atom_site_label
_atom_site_fract_x
_atom_site_fract_y
_atom_site_fract_z
Si Si1 0.637468 0.333643 0.250000
Si Si2 0.329125 0.611806 0.250000
Si Si3 0.500000 0.390268 0.603501
Si Si4 0.851512 0.500000 0.000000
Si Si5 0.792519 0.392102 0.750000
Si Si6 0.603680 0.741147 0.465602
O O1 0.651065 0.474243 0.250000
O O2 0.687018 0.246359 0.250000
O O3 0.608074 0.300291 0.383116
O O4 0.268214 0.608976 0.250000
O O5 0.352161 0.678631 0.122086
O O6 0.500000 0.500000 0.500000
O O7 0.500000 0.443636 0.750000
O O8 0.549988 0.307223 0.586749
O O9 0.816269 0.457221 0.878409
O O10 0.886148 0.614995 0.960028
#
# Coordination Sequence:
#
# PCOD9475315 Si02
#       6
#     8   8   8   8   8  16
#     4  10  24  41  60  99 128 172 216 273 322 391
#     4  12  23  39  66  96 133 173 219 275 324 392
#     4  12  26  45  72 104 132 175 217 273 332 392
#     4  10  24  47  64  98 136 173 222 274 322 406
#     4  10  25  38  66  93 135 177 219 266 336 383
#     4  11  25  43  69  96 134 172 223 272 331 387
#
# _framework density 19.143939
#
# number of rings (size 3 to 8) (size 9 to 14) (size 15 to 20)
#    0.000    1.143    1.429    3.429   10.000    2.857 
#    0.000    0.000    0.000    0.000    0.000    0.000 
#    0.000    0.000    0.000    0.000    0.000    0.000 
#
# Total GULP energy -156591.201871 kJ/mol
# GULP energy per Si atom -5592.542924 kJ/mol
# Density = 1.910037 g / cm^3
# Si number density = 19.143939 Si / 1000 Ang^3
#
#
#
# Elastic Constant Matrix: (Units=GPa)
#
#
# Indices 1 2 3 4 5 6 
#
# 1 113.7617 46.7095 35.4247 0.0000 0.0000 0.0000
# 2 46.7095 172.9372 51.2891 0.0000 0.0000 0.0000
# 3 35.4247 51.2891 139.5063 0.0000 0.0000 0.0000
# 4 0.0000 0.0000 0.0000 46.1171 0.0000 0.0000
# 5 0.0000 0.0000 0.0000 0.0000 47.5577 0.0000
# 6 0.0000 0.0000 0.0000 0.0000 0.0000 -28.1200
#
#
#
# Elastic Compliance Matrix: (Units=1/GPa)
#
#
# Indices 1 2 3 4 5 6 
#
# 1 0.010267 -0.002245 -0.001782 0.000000 0.000000 0.000000
# 2 -0.002245 0.006981 -0.001997 0.000000 0.000000 0.000000
# 3 -0.001782 -0.001997 0.008355 0.000000 0.000000 0.000000
# 4 0.000000 0.000000 0.000000 0.021684 0.000000 0.000000
# 5 0.000000 0.000000 0.000000 0.000000 0.021027 0.000000
# 6 0.000000 0.000000 0.000000 0.000000 0.000000 -0.035562
#
#
# Mechanical properties :
#
#
# Convention : Reuss Voigt Hill
#
# Bulk Modulus (GPa) = 73.76604 77.00577 75.38590
# Shear Modulus (GPa) = 101.38730 32.62975 67.00853
#
# Velocity S-wave (km/s) = 7.28529 4.13297 5.92271
# Velocity P-wave (km/s) = 10.45865 7.94274 9.28629
#
# Compressibility (1/GPa) = 0.01355637
#
# Stress axis : x y z
#
# Youngs Moduli (GPa) = 97.40183 143.24985 119.69445
#
# Poissons Ratio (x) = 0.32153 0.21327
# Poissons Ratio (y) = 0.21862 0.23897
# Poissons Ratio (z) = 0.17355 0.28600
#
# Static dielectric constant tensor:
#      x y z
#    x 1.631770 0.000000 0.000000 
#    y 0.000000 1.643050 0.000000 
#    z 0.000000 0.000000 1.674940 
# 
# From -- ./inp_files/11498.got.cif
#   From: 2010.05.17/outbox.cif.g08.bks.cpg/sg63_6_cif.got.tgz:11498.got - 2010.06.03 15:47:04.
