data_PCOD9475430
_publ_section_title
;
Structure prediction by ZEFSAII (Michael W. Deem and Ramdas Pophale) SiO2 
 PCOD9475430
Probable space group: C M C M
;
_chemical_formula_sum "Si O2"
_cell_formula_units_Z 80
_cell_length_a 8.118762
_cell_length_b 31.163604
_cell_length_c 19.236210
_cell_angle_alpha 90.000000
_cell_angle_beta 90.000000
_cell_angle_gamma 90.000000
_cell_volume 4866.951260
_symmetry_space_group_name_H-M "C M C M"
_symmetry_group_IT_number 63
_symmetry_cell_setting 'orthorhombic'
loop_
_space_group_symop_operation_xyz
x,y,z
-x,-y,1/2+z
x,-y,-z
-x,y,1/2-z
-x,-y,-z
x,y,1/2-z
-x,y,z
x,-y,1/2+z
1/2+x,1/2+y,z
1/2-x,1/2-y,1/2+z
1/2+x,1/2-y,-z
1/2-x,1/2+y,1/2-z
1/2-x,1/2-y,-z
1/2+x,1/2+y,1/2-z
1/2-x,1/2+y,z
1/2+x,1/2-y,1/2+z
loop_
_atom_site_type_symbol
_atom_site_label
_atom_site_fract_x
_atom_site_fract_y
_atom_site_fract_z
Si Si1 0.302413 0.822553 0.674007
Si Si2 0.685604 0.080764 0.366336
Si Si3 0.500000 0.470435 0.892912
Si Si4 0.191872 0.203683 0.475178
Si Si5 0.818898 0.385861 0.025370
Si Si6 0.000000 0.064398 0.946665
O O1 0.249358 0.806984 0.750000
O O2 0.500000 0.816729 0.667585
O O3 0.274346 0.873790 0.669323
O O4 0.219929 0.801316 0.607449
O O5 0.500000 0.067043 0.345826
O O6 0.834017 0.047572 0.357558
O O7 0.678768 0.092854 0.448356
O O8 0.500000 0.521439 0.901280
O O9 0.500000 0.451237 0.972148
O O10 0.250000 0.250000 0.500000
O O11 0.287993 0.164481 0.511529
O O12 0.000000 0.197722 0.490512
O O13 0.664548 0.407540 0.063264
O O14 0.000000 0.392793 0.056662
#
# Coordination Sequence:
#
# PCOD9475430 Si02
#       6
#    16  16   8  16  16   8
#     4   9  18  32  48  68  96 129 163 201 249 300
#     4   8  15  26  40  59  86 119 151 186 228 277
#     4   9  16  24  39  58  86 116 155 186 221 273
#     4  11  20  31  47  69  96 128 169 208 253 310
#     4   9  16  28  42  59  86 119 155 192 237 287
#     4   9  16  26  38  60  84 118 152 192 229 270
#
# _framework density 16.437394999999999
#
# number of rings (size 3 to 8) (size 9 to 14) (size 15 to 20)
#    0.000    2.800    1.000    3.000    4.200    1.200 
#    0.000    4.000    0.000    0.000    0.000    0.000 
#    0.000    3.200    0.000    5.600    0.000    5.200 
#
# Total GULP energy -222810.209308 kJ/mol
# GULP energy per Si atom -5570.255233 kJ/mol
# Density = 1.639998 g / cm^3
# Si number density = 16.437395 Si / 1000 Ang^3
#
#
#
# Elastic Constant Matrix: (Units=GPa)
#
#
# Indices 1 2 3 4 5 6 
#
# 1 124.8934 63.3358 23.0393 0.0000 0.0000 0.0000
# 2 63.3358 89.6824 21.5662 0.0000 0.0000 0.0000
# 3 23.0393 21.5662 29.6641 0.0000 0.0000 0.0000
# 4 0.0000 0.0000 0.0000 5.3669 0.0000 0.0000
# 5 0.0000 0.0000 0.0000 0.0000 9.3462 0.0000
# 6 0.0000 0.0000 0.0000 0.0000 0.0000 25.0180
#
#
#
# Elastic Compliance Matrix: (Units=1/GPa)
#
#
# Indices 1 2 3 4 5 6 
#
# 1 0.012874 -0.008105 -0.004107 0.000000 0.000000 0.000000
# 2 -0.008105 0.018615 -0.007239 0.000000 0.000000 0.000000
# 3 -0.004107 -0.007239 0.042163 0.000000 0.000000 0.000000
# 4 0.000000 0.000000 0.000000 0.186328 0.000000 0.000000
# 5 0.000000 0.000000 0.000000 0.000000 0.106995 0.000000
# 6 0.000000 0.000000 0.000000 0.000000 0.000000 0.039971
#
#
# Mechanical properties :
#
#
# Convention : Reuss Voigt Hill
#
# Bulk Modulus (GPa) = 28.77543 51.12473 39.95008
# Shear Modulus (GPa) = 10.93059 17.03277 13.98168
#
# Velocity S-wave (km/s) = 2.58152 3.22253 2.91967
# Velocity P-wave (km/s) = 5.14099 6.70943 5.97688
#
# Compressibility (1/GPa) = 0.03475187
#
# Stress axis : x y z
#
# Youngs Moduli (GPa) = 77.67304 53.72066 23.71738
#
# Poissons Ratio (x) = 0.43539 0.09741
# Poissons Ratio (y) = 0.62951 0.17168
# Poissons Ratio (z) = 0.31901 0.38886
#
# Static dielectric constant tensor:
#      x y z
#    x 1.600070 0.000000 0.000000 
#    y 0.000000 1.538500 0.000000 
#    z 0.000000 0.000000 1.558130 
# 
# From -- ./inp_files/40608.got.cif
#   From: 2010.05.17/outbox.cif.g08.bks.cpg/sg63_21_cif.got.tgz:40608.got - 2010.06.03 15:47:04.
