data_PCOD9475382
_publ_section_title
;
Structure prediction by ZEFSAII (Michael W. Deem and Ramdas Pophale) SiO2 
 PCOD9475382
Probable space group: C M C M
;
_chemical_formula_sum "Si O2"
_cell_formula_units_Z 128
_cell_length_a 25.580349
_cell_length_b 12.747448
_cell_length_c 25.199401
_cell_angle_alpha 90.000000
_cell_angle_beta 90.000000
_cell_angle_gamma 90.000000
_cell_volume 8217.125727
_symmetry_space_group_name_H-M "C M C M"
_symmetry_group_IT_number 63
_symmetry_cell_setting 'orthorhombic'
loop_
_space_group_symop_operation_xyz
x,y,z
-x,-y,1/2+z
x,-y,-z
-x,y,1/2-z
-x,-y,-z
x,y,1/2-z
-x,y,z
x,-y,1/2+z
1/2+x,1/2+y,z
1/2-x,1/2-y,1/2+z
1/2+x,1/2-y,-z
1/2-x,1/2+y,1/2-z
1/2-x,1/2-y,-z
1/2+x,1/2+y,1/2-z
1/2-x,1/2+y,z
1/2+x,1/2-y,1/2+z
loop_
_atom_site_type_symbol
_atom_site_label
_atom_site_fract_x
_atom_site_fract_y
_atom_site_fract_z
Si Si1 0.060154 0.919555 0.186984
Si Si2 0.114837 0.870593 0.690116
Si Si3 0.223305 0.374136 0.865382
Si Si4 0.818940 0.880018 0.490451
Si Si5 0.293994 0.051859 0.950003
Si Si6 0.346233 0.685772 0.624046
Si Si7 0.827189 0.757021 0.899278
Si Si8 0.214236 0.027042 0.807118
O O1 0.070994 0.903551 0.250000
O O2 0.101096 0.853027 0.152463
O O3 0.000000 0.893188 0.176479
O O4 0.070177 0.043939 0.177383
O O5 0.107085 0.827096 0.750000
O O6 0.128412 0.790633 0.642892
O O7 0.165813 0.946222 0.693045
O O8 0.223087 0.453118 0.914943
O O9 0.172225 0.302988 0.862502
O O10 0.272357 0.296075 0.873793
O O11 0.236154 0.453946 0.817983
O O12 0.757275 0.888839 0.474192
O O13 0.846552 0.830660 0.439099
O O14 0.829718 0.817486 0.544327
O O15 0.835746 0.000000 0.500000
O O16 0.324348 0.135233 0.914402
O O17 0.323187 0.000000 0.000000
O O18 0.300955 0.608739 0.647508
O O19 0.217428 0.080665 0.750000
#
# Coordination Sequence:
#
# PCOD9475382 Si02
#       8
#    16  16  16  16  16  16  16  16
#     4   9  18  34  54  74  94 120 161 212 258 305
#     4   8  16  30  49  69  90 119 157 197 244 301
#     4  11  18  28  40  63  92 127 166 200 230 279
#     4  11  17  27  44  66  96 131 167 199 226 279
#     4  11  19  28  40  63  94 133 170 199 222 269
#     4  11  19  29  46  66  95 127 162 198 246 289
#     4  11  18  29  46  67  99 138 169 197 241 283
#     4   9  17  28  39  57  87 122 156 189 229 286
#
# _framework density 15.577223
#
# number of rings (size 3 to 8) (size 9 to 14) (size 15 to 20)
#    0.000    1.875    5.000    3.750    0.000    1.000 
#    0.000    3.125    0.000    3.375    0.000    0.875 
#    0.000    4.000    0.000    0.000    0.000    0.000 
#
# Total GULP energy -356294.107300 kJ/mol
# GULP energy per Si atom -5567.095427 kJ/mol
# Density = 1.554177 g / cm^3
# Si number density = 15.577223 Si / 1000 Ang^3
#
#
#
# Elastic Constant Matrix: (Units=GPa)
#
#
# Indices 1 2 3 4 5 6 
#
# 1 57.1150 22.5081 28.7615 0.0000 0.0000 0.0000
# 2 22.5081 49.3725 15.0256 0.0000 0.0000 0.0000
# 3 28.7615 15.0256 75.9716 0.0000 0.0000 0.0000
# 4 0.0000 0.0000 0.0000 14.1007 0.0000 0.0000
# 5 0.0000 0.0000 0.0000 0.0000 10.8252 0.0000
# 6 0.0000 0.0000 0.0000 0.0000 0.0000 14.2444
#
#
#
# Elastic Compliance Matrix: (Units=1/GPa)
#
#
# Indices 1 2 3 4 5 6 
#
# 1 0.024919 -0.009033 -0.007647 0.000000 0.000000 0.000000
# 2 -0.009033 0.024826 -0.001490 0.000000 0.000000 0.000000
# 3 -0.007647 -0.001490 0.016353 0.000000 0.000000 0.000000
# 4 0.000000 0.000000 0.000000 0.070919 0.000000 0.000000
# 5 0.000000 0.000000 0.000000 0.000000 0.092377 0.000000
# 6 0.000000 0.000000 0.000000 0.000000 0.000000 0.070203
#
#
# Mechanical properties :
#
#
# Convention : Reuss Voigt Hill
#
# Bulk Modulus (GPa) = 33.60627 35.00549 34.30588
# Shear Modulus (GPa) = 14.45686 15.57831 15.01759
#
# Velocity S-wave (km/s) = 3.04974 3.16582 3.10832
# Velocity P-wave (km/s) = 5.83284 5.99034 5.91212
#
# Compressibility (1/GPa) = 0.02975635
#
# Stress axis : x y z
#
# Youngs Moduli (GPa) = 40.12947 40.28079 61.15172
#
# Poissons Ratio (x) = 0.36385 0.46766
# Poissons Ratio (y) = 0.36249 0.09113
# Poissons Ratio (z) = 0.30689 0.06003
#
# Static dielectric constant tensor:
#      x y z
#    x 1.508570 0.000000 0.000000 
#    y 0.000000 1.538470 0.000000 
#    z 0.000000 0.000000 1.575960 
# 
# From -- ./inp_files/65583.got.cif
#   From: 2010.05.17/outbox.cif.g08.bks.cpg/sg63_33_cif.got.tgz:65583.got - 2010.06.03 15:47:04.
