data_PCOD9475482
_publ_section_title
;
Structure prediction by ZEFSAII (Michael W. Deem and Ramdas Pophale) SiO2 
 PCOD9475482
Probable space group: C M C M
;
_chemical_formula_sum "Si O2"
_cell_formula_units_Z 64
_cell_length_a 23.064891
_cell_length_b 9.247823
_cell_length_c 14.420070
_cell_angle_alpha 90.000000
_cell_angle_beta 90.000000
_cell_angle_gamma 90.000000
_cell_volume 3075.801356
_symmetry_space_group_name_H-M "C M C M"
_symmetry_group_IT_number 63
_symmetry_cell_setting 'orthorhombic'
loop_
_space_group_symop_operation_xyz
x,y,z
-x,-y,1/2+z
x,-y,-z
-x,y,1/2-z
-x,-y,-z
x,y,1/2-z
-x,y,z
x,-y,1/2+z
1/2+x,1/2+y,z
1/2-x,1/2-y,1/2+z
1/2+x,1/2-y,-z
1/2-x,1/2+y,1/2-z
1/2-x,1/2-y,-z
1/2+x,1/2+y,1/2-z
1/2-x,1/2+y,z
1/2+x,1/2-y,1/2+z
loop_
_atom_site_type_symbol
_atom_site_label
_atom_site_fract_x
_atom_site_fract_y
_atom_site_fract_z
Si Si1 0.811166 0.012034 0.750000
Si Si2 0.500000 0.283904 0.860738
Si Si3 0.883323 0.637896 0.562763
Si Si4 0.377115 0.631737 0.569613
Si Si5 0.685843 0.840589 0.250000
Si Si6 0.500000 0.630452 0.859072
O O1 0.844466 0.072402 0.659486
O O2 0.747805 0.082062 0.750000
O O3 0.810941 0.836316 0.750000
O O4 0.500000 0.260000 0.750000
O O5 0.557677 0.215387 0.903600
O O6 0.500000 0.456837 0.875256
O O7 0.896246 0.500000 0.500000
O O8 0.848561 0.744594 0.493027
O O9 0.847640 0.612189 0.656689
O O10 0.385639 0.500000 0.500000
O O11 0.440321 0.688672 0.600221
O O12 0.500000 0.654875 0.750000
#
# Coordination Sequence:
#
# PCOD9475482 Si02
#       6
#     8   8  16  16   8   8
#     4  12  28  47  73 102 138 181 237 293 337 402
#     4  11  20  41  73 101 141 183 220 278 353 418
#     4  12  27  45  72 104 144 184 225 281 351 415
#     4  12  23  44  72 104 135 179 231 279 343 416
#     4  12  28  51  71 100 138 183 235 293 343 400
#     4  11  20  38  73 106 139 177 224 286 346 408
#
# _framework density 20.807585
#
# number of rings (size 3 to 8) (size 9 to 14) (size 15 to 20)
#    0.000    0.250    7.500    1.500    3.500    2.000 
#    0.000    1.250    0.000    0.000    0.000    0.000 
#    0.000    0.000    0.000    0.000    0.000    0.000 
#
# Total GULP energy -178962.310773 kJ/mol
# GULP energy per Si atom -5592.572212 kJ/mol
# Density = 2.076023 g / cm^3
# Si number density = 20.807585 Si / 1000 Ang^3
#
#
#
# Elastic Constant Matrix: (Units=GPa)
#
#
# Indices 1 2 3 4 5 6 
#
# 1 91.0882 -16.4498 54.5745 0.0000 0.0000 0.0000
# 2 -16.4498 41.9592 36.2496 0.0000 0.0000 0.0000
# 3 54.5745 36.2496 189.6587 0.0000 0.0000 0.0000
# 4 0.0000 0.0000 0.0000 32.8941 0.0000 0.0000
# 5 0.0000 0.0000 0.0000 0.0000 -18.5416 0.0000
# 6 0.0000 0.0000 0.0000 0.0000 0.0000 19.8136
#
#
#
# Elastic Compliance Matrix: (Units=1/GPa)
#
#
# Indices 1 2 3 4 5 6 
#
# 1 0.018262 0.014014 -0.007933 0.000000 0.000000 0.000000
# 2 0.014014 0.039300 -0.011544 0.000000 0.000000 0.000000
# 3 -0.007933 -0.011544 0.009762 0.000000 0.000000 0.000000
# 4 0.000000 0.000000 0.000000 0.030401 0.000000 0.000000
# 5 0.000000 0.000000 0.000000 0.000000 -0.053933 0.000000
# 6 0.000000 0.000000 0.000000 0.000000 0.000000 0.050470
#
#
# Mechanical properties :
#
#
# Convention : Reuss Voigt Hill
#
# Bulk Modulus (GPa) = 17.73161 52.38384 35.05772
# Shear Modulus (GPa) = 40.32645 23.38866 31.85756
#
# Velocity S-wave (km/s) = 4.40712 3.35632 3.91711
# Velocity P-wave (km/s) = 5.86832 6.34427 6.11093
#
# Compressibility (1/GPa) = 0.05639646
#
# Stress axis : x y z
#
# Youngs Moduli (GPa) = 54.75750 25.44556 102.43955
#
# Poissons Ratio (x) = -0.35658 0.81270
# Poissons Ratio (y) = -0.76735 1.18254
# Poissons Ratio (z) = 0.43441 0.29374
#
# Static dielectric constant tensor:
#      x y z
#    x 1.743040 0.000000 0.000000 
#    y 0.000000 1.769050 0.000000 
#    z 0.000000 0.000000 1.755180 
# 
# From -- ./inp_files/36254.got.cif
#   From: 2010.05.17/outbox.cif.g08.bks.cpg/sg63_19_cif.got.tgz:36254.got - 2010.06.03 15:47:04.
