data_PCOD9475078
_publ_section_title
;
Structure prediction by ZEFSAII (Michael W. Deem and Ramdas Pophale) SiO2 
 PCOD9475078
Probable space group: C M C M
;
_chemical_formula_sum "Si O2"
_cell_formula_units_Z 80
_cell_length_a 11.972769
_cell_length_b 14.623073
_cell_length_c 22.741640
_cell_angle_alpha 90.000000
_cell_angle_beta 90.000000
_cell_angle_gamma 90.000000
_cell_volume 3981.576201
_symmetry_space_group_name_H-M "C M C M"
_symmetry_group_IT_number 63
_symmetry_cell_setting 'orthorhombic'
loop_
_space_group_symop_operation_xyz
x,y,z
-x,-y,1/2+z
x,-y,-z
-x,y,1/2-z
-x,-y,-z
x,y,1/2-z
-x,y,z
x,-y,1/2+z
1/2+x,1/2+y,z
1/2-x,1/2-y,1/2+z
1/2+x,1/2-y,-z
1/2-x,1/2+y,1/2-z
1/2-x,1/2-y,-z
1/2+x,1/2+y,1/2-z
1/2-x,1/2+y,z
1/2+x,1/2-y,1/2+z
loop_
_atom_site_type_symbol
_atom_site_label
_atom_site_fract_x
_atom_site_fract_y
_atom_site_fract_z
Si Si1 0.000000 0.806843 0.182606
Si Si2 0.867518 0.361953 0.390679
Si Si3 0.626135 0.105821 0.020545
Si Si4 0.500000 0.524461 0.181297
Si Si5 0.272909 0.232639 0.317081
Si Si6 0.757704 0.052900 0.131374
O O1 0.885637 0.773280 0.155008
O O2 0.000000 0.770051 0.250000
O O3 0.000000 0.915065 0.185800
O O4 0.844565 0.343962 0.459852
O O5 0.829291 0.275647 0.352701
O O6 0.799090 0.452701 0.370162
O O7 0.000000 0.380093 0.385393
O O8 0.500000 0.131655 0.040511
O O9 0.717746 0.103224 0.071508
O O10 0.618827 0.000000 0.000000
O O11 0.500000 0.559469 0.250000
O O12 0.388852 0.548126 0.145003
O O13 0.262489 0.264552 0.250000
O O14 0.283793 0.123792 0.319560
#
# Coordination Sequence:
#
# PCOD9475078 Si02
#       6
#     8  16  16   8  16  16
#     4   9  20  40  57  78 119 161 198 245 299 349
#     4  10  22  42  65  89 123 161 202 252 305 359
#     4   8  17  37  63  89 118 154 199 255 307 352
#     4  11  22  40  60  83 125 168 194 243 316 363
#     4  11  24  39  60  90 122 159 204 250 302 364
#     4  11  22  38  65  88 119 160 205 249 300 364
#
# _framework density 20.092545999999999
#
# number of rings (size 3 to 8) (size 9 to 14) (size 15 to 20)
#    0.000    2.000    2.000    2.400    4.200    2.000 
#    0.000    5.500    0.000    0.000    0.000    0.000 
#    0.000    0.000    0.000    0.000    0.000    0.000 
#
# Total GULP energy -222871.143450 kJ/mol
# GULP energy per Si atom -5571.778586 kJ/mol
# Density = 2.004681 g / cm^3
# Si number density = 20.092546 Si / 1000 Ang^3
#
#
#
# Elastic Constant Matrix: (Units=GPa)
#
#
# Indices 1 2 3 4 5 6 
#
# 1 134.9291 18.6956 71.6836 0.0000 0.0000 0.0000
# 2 18.6956 50.0343 18.0842 0.0000 0.0000 0.0000
# 3 71.6836 18.0842 91.0461 0.0000 0.0000 0.0000
# 4 0.0000 0.0000 0.0000 26.6656 0.0000 0.0000
# 5 0.0000 0.0000 0.0000 0.0000 201.3607 0.0000
# 6 0.0000 0.0000 0.0000 0.0000 0.0000 11.5869
#
#
#
# Elastic Compliance Matrix: (Units=1/GPa)
#
#
# Indices 1 2 3 4 5 6 
#
# 1 0.012810 -0.001229 -0.009842 0.000000 0.000000 0.000000
# 2 -0.001229 0.021650 -0.003332 0.000000 0.000000 0.000000
# 3 -0.009842 -0.003332 0.019394 0.000000 0.000000 0.000000
# 4 0.000000 0.000000 0.000000 0.037501 0.000000 0.000000
# 5 0.000000 0.000000 0.000000 0.000000 0.004966 0.000000
# 6 0.000000 0.000000 0.000000 0.000000 0.000000 0.086304
#
#
# Mechanical properties :
#
#
# Convention : Reuss Voigt Hill
#
# Bulk Modulus (GPa) = 39.92427 54.77068 47.34747
# Shear Modulus (GPa) = 22.74978 59.09240 40.92109
#
# Velocity S-wave (km/s) = 3.36854 5.42899 4.51780
# Velocity P-wave (km/s) = 5.91969 8.16192 7.12951
#
# Compressibility (1/GPa) = 0.02504742
#
# Stress axis : x y z
#
# Youngs Moduli (GPa) = 78.06247 46.18920 51.56225
#
# Poissons Ratio (x) = 0.05679 0.50746
# Poissons Ratio (y) = 0.09598 0.17182
# Poissons Ratio (z) = 0.76827 0.15392
#
# Static dielectric constant tensor:
#      x y z
#    x 1.749010 0.000000 0.000000 
#    y 0.000000 1.706810 0.000000 
#    z 0.000000 0.000000 1.759960 
# 
# From -- ./inp_files/61161.got.cif
#   From: 2010.05.17/outbox.cif.g08.bks.cpg/sg63_31_cif.got.tgz:61161.got - 2010.06.03 15:47:04.
