data_PCOD9475069
_publ_section_title
;
Structure prediction by ZEFSAII (Michael W. Deem and Ramdas Pophale) SiO2 
 PCOD9475069
Probable space group: C M C M
;
_chemical_formula_sum "Si O2"
_cell_formula_units_Z 64
_cell_length_a 11.510222
_cell_length_b 13.812484
_cell_length_c 19.791476
_cell_angle_alpha 90.000000
_cell_angle_beta 90.000000
_cell_angle_gamma 90.000000
_cell_volume 3146.543007
_symmetry_space_group_name_H-M "C M C M"
_symmetry_group_IT_number 63
_symmetry_cell_setting 'orthorhombic'
loop_
_space_group_symop_operation_xyz
x,y,z
-x,-y,1/2+z
x,-y,-z
-x,y,1/2-z
-x,-y,-z
x,y,1/2-z
-x,y,z
x,-y,1/2+z
1/2+x,1/2+y,z
1/2-x,1/2-y,1/2+z
1/2+x,1/2-y,-z
1/2-x,1/2+y,1/2-z
1/2-x,1/2-y,-z
1/2+x,1/2+y,1/2-z
1/2-x,1/2+y,z
1/2+x,1/2-y,1/2+z
loop_
_atom_site_type_symbol
_atom_site_label
_atom_site_fract_x
_atom_site_fract_y
_atom_site_fract_z
Si Si1 0.500000 0.926651 0.327937
Si Si2 0.739665 0.624496 0.062701
Si Si3 0.363526 0.412034 0.078677
Si Si4 0.500000 0.080920 0.442159
Si Si5 0.780933 0.286930 0.170465
O O1 0.500000 0.955098 0.250000
O O2 0.611697 0.859842 0.340460
O O3 0.500000 0.021375 0.372856
O O4 0.707098 0.513286 0.080992
O O5 0.878215 0.635624 0.053065
O O6 0.701292 0.694113 0.122999
O O7 0.677517 0.639645 0.990703
O O8 0.500000 0.432421 0.075698
O O9 0.329487 0.344851 0.141377
O O10 0.500000 0.000000 0.500000
O O11 0.772438 0.264142 0.250000
#
# Coordination Sequence:
#
# PCOD9475069 Si02
#       5
#     8  16  16   8  16
#     4  10  22  42  64  88 126 168 206 254 312 374
#     4  11  23  41  66  95 124 165 214 258 313 373
#     4  11  24  43  65  93 130 166 206 262 314 371
#     4  12  20  40  68  91 122 159 210 267 312 356
#     4  11  25  43  64  94 128 167 209 256 315 376
#
# _framework density 20.339780999999999
#
# number of rings (size 3 to 8) (size 9 to 14) (size 15 to 20)
#    0.000    1.000    5.000    2.250    5.250    2.500 
#    0.000    0.000    0.000    0.000    0.000    0.000 
#    0.000    0.000    0.000    0.000    0.000    0.000 
#
# Total GULP energy -178944.543306 kJ/mol
# GULP energy per Si atom -5592.016978 kJ/mol
# Density = 2.029349 g / cm^3
# Si number density = 20.339781 Si / 1000 Ang^3
#
#
#
# Elastic Constant Matrix: (Units=GPa)
#
#
# Indices 1 2 3 4 5 6 
#
# 1 114.3441 8.1825 21.4318 0.0000 0.0000 0.0000
# 2 8.1825 62.2319 33.3904 0.0000 0.0000 0.0000
# 3 21.4318 33.3904 64.5263 0.0000 0.0000 0.0000
# 4 0.0000 0.0000 0.0000 45.5497 0.0000 0.0000
# 5 0.0000 0.0000 0.0000 0.0000 26.3192 0.0000
# 6 0.0000 0.0000 0.0000 0.0000 0.0000 -3.1756
#
#
#
# Elastic Compliance Matrix: (Units=1/GPa)
#
#
# Indices 1 2 3 4 5 6 
#
# 1 0.009343 0.000604 -0.003416 0.000000 0.000000 0.000000
# 2 0.000604 0.022284 -0.011732 0.000000 0.000000 0.000000
# 3 -0.003416 -0.011732 0.022703 0.000000 0.000000 0.000000
# 4 0.000000 0.000000 0.000000 0.021954 0.000000 0.000000
# 5 0.000000 0.000000 0.000000 0.000000 0.037995 0.000000
# 6 0.000000 0.000000 0.000000 0.000000 0.000000 -0.314897
#
#
# Mechanical properties :
#
#
# Convention : Reuss Voigt Hill
#
# Bulk Modulus (GPa) = 39.61536 40.79020 40.20278
# Shear Modulus (GPa) = -30.65294 25.61182 -2.52056
#
# Velocity S-wave (km/s) = -3.88628 3.55237 -1.11441
# Velocity P-wave (km/s) = 0.78643 6.07649 4.26059
#
# Compressibility (1/GPa) = 0.02524274
#
# Stress axis : x y z
#
# Youngs Moduli (GPa) = 107.03764 44.87451 44.04677
#
# Poissons Ratio (x) = -0.02712 0.15045
# Poissons Ratio (y) = -0.06469 0.51677
# Poissons Ratio (z) = 0.36561 0.52648
#
# Static dielectric constant tensor:
#      x y z
#    x 1.775780 0.000000 0.000000 
#    y 0.000000 12.032730 0.000000 
#    z 0.000000 0.000000 1.680400 
# 
# From -- ./inp_files/41542.got.cif
#   From: 2010.05.17/outbox.cif.g08.bks.cpg/sg63_21_cif.got.tgz:41542.got - 2010.06.03 15:47:04.
