data_PCOD9475368
_publ_section_title
;
Structure prediction by ZEFSAII (Michael W. Deem and Ramdas Pophale) SiO2 
 PCOD9475368
Probable space group: C M C M
;
_chemical_formula_sum "Si O2"
_cell_formula_units_Z 56
_cell_length_a 14.995477
_cell_length_b 10.571070
_cell_length_c 13.738138
_cell_angle_alpha 90.000000
_cell_angle_beta 90.000000
_cell_angle_gamma 90.000000
_cell_volume 2177.745416
_symmetry_space_group_name_H-M "C M C M"
_symmetry_group_IT_number 63
_symmetry_cell_setting 'orthorhombic'
loop_
_space_group_symop_operation_xyz
x,y,z
-x,-y,1/2+z
x,-y,-z
-x,y,1/2-z
-x,-y,-z
x,y,1/2-z
-x,y,z
x,-y,1/2+z
1/2+x,1/2+y,z
1/2-x,1/2-y,1/2+z
1/2+x,1/2-y,-z
1/2-x,1/2+y,1/2-z
1/2-x,1/2-y,-z
1/2+x,1/2+y,1/2-z
1/2-x,1/2+y,z
1/2+x,1/2-y,1/2+z
loop_
_atom_site_type_symbol
_atom_site_label
_atom_site_fract_x
_atom_site_fract_y
_atom_site_fract_z
Si Si1 0.500000 0.409290 0.750000
Si Si2 0.680329 0.762009 0.250000
Si Si3 0.696846 0.870308 0.461363
Si Si4 0.000000 0.144260 0.887273
Si Si5 0.000000 0.460542 0.250000
Si Si6 0.500000 0.176827 0.542866
Si Si7 0.376111 0.199102 0.250000
O O1 0.407705 0.327481 0.750000
O O2 0.500000 0.505106 0.842168
O O3 0.688748 0.847506 0.346205
O O4 0.771187 0.682310 0.250000
O O5 0.750000 0.750000 0.500000
O O6 0.594140 0.870960 0.497038
O O7 0.739026 0.000000 0.500000
O O8 0.915178 0.216616 0.838693
O O9 0.000000 0.178770 0.001494
O O10 0.000000 0.373399 0.153917
O O11 0.079823 0.561688 0.250000
#
# Coordination Sequence:
#
# PCOD9475368 Si02
#       7
#     4   8  16   8   4   8   8
#     4  10  25  51  90 116 160 221 275 332 442 477
#     4  12  26  53  80 116 165 208 274 352 401 501
#     4  12  31  50  80 123 165 224 277 338 424 489
#     4   9  22  46  72 118 160 210 260 343 421 491
#     4  10  25  43  80 116 142 225 271 342 422 469
#     4  12  25  50  75 111 169 210 280 348 395 506
#     4   9  22  41  74 115 149 202 279 333 417 479
#
# _framework density 25.714668
#
# number of rings (size 3 to 8) (size 9 to 14) (size 15 to 20)
#    0.000    1.429    0.000    3.857   12.000    8.000 
#    0.000    2.143    0.000    0.000    0.000    2.000 
#    0.000    0.000    0.000    0.000    0.000    0.000 
#
# Total GULP energy -156469.430435 kJ/mol
# GULP energy per Si atom -5588.193944 kJ/mol
# Density = 2.565614 g / cm^3
# Si number density = 25.714668 Si / 1000 Ang^3
#
#
#
# Elastic Constant Matrix: (Units=GPa)
#
#
# Indices 1 2 3 4 5 6 
#
# 1 197.5557 87.6480 22.3787 0.0000 0.0000 0.0000
# 2 87.6480 233.0650 137.0610 0.0000 0.0000 0.0000
# 3 22.3787 137.0610 167.5673 0.0000 0.0000 0.0000
# 4 0.0000 0.0000 0.0000 41.0250 0.0000 0.0000
# 5 0.0000 0.0000 0.0000 0.0000 -3.2141 0.0000
# 6 0.0000 0.0000 0.0000 0.0000 0.0000 95.1084
#
#
#
# Elastic Compliance Matrix: (Units=1/GPa)
#
#
# Indices 1 2 3 4 5 6 
#
# 1 0.006459 -0.003703 0.002166 0.000000 0.000000 0.000000
# 2 -0.003703 0.010390 -0.008004 0.000000 0.000000 0.000000
# 3 0.002166 -0.008004 0.012225 0.000000 0.000000 0.000000
# 4 0.000000 0.000000 0.000000 0.024375 0.000000 0.000000
# 5 0.000000 0.000000 0.000000 0.000000 -0.311126 0.000000
# 6 0.000000 0.000000 0.000000 0.000000 0.000000 0.010514
#
#
# Mechanical properties :
#
#
# Convention : Reuss Voigt Hill
#
# Bulk Modulus (GPa) = 100.06842 121.37370 110.72106
# Shear Modulus (GPa) = -22.24720 49.99052 13.87166
#
# Velocity S-wave (km/s) = -2.94454 4.41392 2.32512
# Velocity P-wave (km/s) = 5.23822 8.56035 7.09642
#
# Compressibility (1/GPa) = 0.00999316
#
# Stress axis : x y z
#
# Youngs Moduli (GPa) = 154.81293 96.24253 81.79637
#
# Poissons Ratio (x) = 0.35640 -0.17720
# Poissons Ratio (y) = 0.57329 0.65472
# Poissons Ratio (z) = -0.33537 0.77035
#
# Static dielectric constant tensor:
#      x y z
#    x 2.062890 0.000000 0.000000 
#    y 0.000000 1.995420 0.000000 
#    z 0.000000 0.000000 2.111470 
# 
# From -- ./inp_files/30903.got.cif
#   From: 2010.05.17/outbox.cif.g08.bks.cpg/sg63_16_cif.got.tgz:30903.got - 2010.06.03 15:47:04.
