data_PCOD9475623
_publ_section_title
;
Structure prediction by ZEFSAII (Michael W. Deem and Ramdas Pophale) SiO2 
 PCOD9475623
Probable space group: C M C M
;
_chemical_formula_sum "Si O2"
_cell_formula_units_Z 48
_cell_length_a 13.777237
_cell_length_b 27.730815
_cell_length_c 7.566634
_cell_angle_alpha 90.000000
_cell_angle_beta 90.000000
_cell_angle_gamma 90.000000
_cell_volume 2890.862865
_symmetry_space_group_name_H-M "C M C M"
_symmetry_group_IT_number 63
_symmetry_cell_setting 'orthorhombic'
loop_
_space_group_symop_operation_xyz
x,y,z
-x,-y,1/2+z
x,-y,-z
-x,y,1/2-z
-x,-y,-z
x,y,1/2-z
-x,y,z
x,-y,1/2+z
1/2+x,1/2+y,z
1/2-x,1/2-y,1/2+z
1/2+x,1/2-y,-z
1/2-x,1/2+y,1/2-z
1/2-x,1/2-y,-z
1/2+x,1/2+y,1/2-z
1/2-x,1/2+y,z
1/2+x,1/2-y,1/2+z
loop_
_atom_site_type_symbol
_atom_site_label
_atom_site_fract_x
_atom_site_fract_y
_atom_site_fract_z
Si Si1 0.390295 0.944460 0.538075
Si Si2 0.113539 0.706501 0.250000
Si Si3 0.751994 0.639583 0.451049
Si Si4 0.386132 0.321826 0.250000
O O1 0.393810 0.938084 0.750000
O O2 0.500000 0.935735 0.470257
O O3 0.310818 0.906344 0.475839
O O4 0.365954 0.000000 0.500000
O O5 0.168530 0.681827 0.084514
O O6 0.123574 0.763767 0.250000
O O7 0.000000 0.693535 0.250000
O O8 0.716217 0.628823 0.250000
O O9 0.668502 0.657053 0.579514
O O10 0.500000 0.333424 0.250000
#
# Coordination Sequence:
#
# PCOD9475623 Si02
#       4
#    16   8  16   8
#     4   9  17  30  50  80 111 135 162 206 267 331
#     4   9  18  36  56  77 111 137 170 222 268 321
#     4   9  20  34  56  76 108 140 174 215 268 314
#     4  11  22  36  54  77 103 143 190 224 252 301
#
# _framework density 16.604039
#
# number of rings (size 3 to 8) (size 9 to 14) (size 15 to 20)
#    1.000    1.667    0.000    2.000    2.333    0.667 
#    0.000    2.500    0.000    1.000    0.000    0.000 
#    0.000    0.000    0.000    0.000    0.000    0.000 
#
# Total GULP energy -133618.310605 kJ/mol
# GULP energy per Si atom -5567.429609 kJ/mol
# Density = 1.656625 g / cm^3
# Si number density = 16.604039 Si / 1000 Ang^3
#
#
#
# Elastic Constant Matrix: (Units=GPa)
#
#
# Indices 1 2 3 4 5 6 
#
# 1 145.9577 85.5405 55.2750 0.0000 0.0000 0.0000
# 2 85.5405 103.1597 31.1204 0.0000 0.0000 0.0000
# 3 55.2750 31.1204 68.4513 0.0000 0.0000 0.0000
# 4 0.0000 0.0000 0.0000 25.9964 0.0000 0.0000
# 5 0.0000 0.0000 0.0000 0.0000 29.3239 0.0000
# 6 0.0000 0.0000 0.0000 0.0000 0.0000 25.1276
#
#
#
# Elastic Compliance Matrix: (Units=1/GPa)
#
#
# Indices 1 2 3 4 5 6 
#
# 1 0.016577 -0.011251 -0.008271 0.000000 0.000000 0.000000
# 2 -0.011251 0.018870 0.000506 0.000000 0.000000 0.000000
# 3 -0.008271 0.000506 0.021058 0.000000 0.000000 0.000000
# 4 0.000000 0.000000 0.000000 0.038467 0.000000 0.000000
# 5 0.000000 0.000000 0.000000 0.000000 0.034102 0.000000
# 6 0.000000 0.000000 0.000000 0.000000 0.000000 0.039797
#
#
# Mechanical properties :
#
#
# Convention : Reuss Voigt Hill
#
# Bulk Modulus (GPa) = 54.13177 73.49338 63.81257
# Shear Modulus (GPa) = 23.46738 25.79842 24.63290
#
# Velocity S-wave (km/s) = 3.76354 3.94603 3.85586
# Velocity P-wave (km/s) = 7.18039 8.06970 7.63800
#
# Compressibility (1/GPa) = 0.01847344
#
# Stress axis : x y z
#
# Youngs Moduli (GPa) = 60.32304 52.99331 47.48770
#
# Poissons Ratio (x) = 0.59622 0.39279
# Poissons Ratio (y) = 0.67868 -0.02403
# Poissons Ratio (z) = 0.49895 -0.02682
#
# Static dielectric constant tensor:
#      x y z
#    x 1.533550 0.000000 0.000000 
#    y 0.000000 1.566560 0.000000 
#    z 0.000000 0.000000 1.586130 
# 
# From -- ./inp_files/2682.got.cif
#   From: 2010.05.17/outbox.cif.g08.bks.cpg/sg63_2_cif.got.tgz:2682.got - 2010.06.03 15:47:04.
