data_PCOD9475562
_publ_section_title
;
Structure prediction by ZEFSAII (Michael W. Deem and Ramdas Pophale) SiO2 
 PCOD9475562
Probable space group: C M C M
;
_chemical_formula_sum "Si O2"
_cell_formula_units_Z 80
_cell_length_a 12.912145
_cell_length_b 13.505633
_cell_length_c 22.658370
_cell_angle_alpha 90.000000
_cell_angle_beta 90.000000
_cell_angle_gamma 90.000000
_cell_volume 3951.318182
_symmetry_space_group_name_H-M "C M C M"
_symmetry_group_IT_number 63
_symmetry_cell_setting 'orthorhombic'
loop_
_space_group_symop_operation_xyz
x,y,z
-x,-y,1/2+z
x,-y,-z
-x,y,1/2-z
-x,-y,-z
x,y,1/2-z
-x,y,z
x,-y,1/2+z
1/2+x,1/2+y,z
1/2-x,1/2-y,1/2+z
1/2+x,1/2-y,-z
1/2-x,1/2+y,1/2-z
1/2-x,1/2-y,-z
1/2+x,1/2+y,1/2-z
1/2-x,1/2+y,z
1/2+x,1/2-y,1/2+z
loop_
_atom_site_type_symbol
_atom_site_label
_atom_site_fract_x
_atom_site_fract_y
_atom_site_fract_z
Si Si1 0.830743 0.105313 0.682231
Si Si2 0.216420 0.601283 0.478530
Si Si3 0.885801 0.692144 0.680243
Si Si4 0.615776 0.702345 0.562397
Si Si5 0.618327 0.593543 0.376931
O O1 0.853185 0.133976 0.750000
O O2 0.707313 0.116266 0.671904
O O3 0.878447 0.175212 0.631615
O O4 0.866643 0.993441 0.670527
O O5 0.165658 0.500000 0.500000
O O6 0.289834 0.645906 0.530109
O O7 0.138837 0.684007 0.454165
O O8 0.298598 0.576389 0.427468
O O9 0.888723 0.713968 0.750000
O O10 0.865347 0.796061 0.647933
O O11 0.000000 0.656129 0.662118
O O12 0.500000 0.674566 0.541597
O O13 0.500000 0.587323 0.398468
#
# Coordination Sequence:
#
# PCOD9475562 Si02
#       5
#    16  16  16  16  16
#     4  11  22  37  61  92 124 154 196 249 296 350
#     4  11  23  41  62  86 121 155 198 250 298 352
#     4   9  19  37  59  83 116 157 198 238 286 348
#     4  11  24  41  62  90 120 156 201 248 302 355
#     4  11  21  36  61  90 117 154 198 243 296 352
#
# _framework density 20.246407999999999
#
# number of rings (size 3 to 8) (size 9 to 14) (size 15 to 20)
#    0.000    1.400    4.000    1.800    0.000    3.600 
#    0.000    1.000    0.000    0.000    0.000    0.000 
#    0.000    0.000    0.000    0.000    0.000    0.000 
#
# Total GULP energy -223301.091860 kJ/mol
# GULP energy per Si atom -5582.527297 kJ/mol
# Density = 2.020033 g / cm^3
# Si number density = 20.246408 Si / 1000 Ang^3
#
#
#
# Elastic Constant Matrix: (Units=GPa)
#
#
# Indices 1 2 3 4 5 6 
#
# 1 50.2569 -0.4342 13.3024 0.0000 0.0000 0.0000
# 2 -0.4342 51.1457 10.2256 0.0000 0.0000 0.0000
# 3 13.3024 10.2256 86.8426 0.0000 0.0000 0.0000
# 4 0.0000 0.0000 0.0000 22.9291 0.0000 0.0000
# 5 0.0000 0.0000 0.0000 0.0000 -1.5383 0.0000
# 6 0.0000 0.0000 0.0000 0.0000 0.0000 11.7482
#
#
#
# Elastic Compliance Matrix: (Units=1/GPa)
#
#
# Indices 1 2 3 4 5 6 
#
# 1 0.020773 0.000832 -0.003280 0.000000 0.000000 0.000000
# 2 0.000832 0.020057 -0.002489 0.000000 0.000000 0.000000
# 3 -0.003280 -0.002489 0.012311 0.000000 0.000000 0.000000
# 4 0.000000 0.000000 0.000000 0.043613 0.000000 0.000000
# 5 0.000000 0.000000 0.000000 0.000000 -0.650048 0.000000
# 6 0.000000 0.000000 0.000000 0.000000 0.000000 0.085119
#
#
# Mechanical properties :
#
#
# Convention : Reuss Voigt Hill
#
# Bulk Modulus (GPa) = 23.11258 26.04810 24.58034
# Shear Modulus (GPa) = -11.26432 17.63790 3.18679
#
# Velocity S-wave (km/s) = -2.36129 2.95475 1.25595
# Velocity P-wave (km/s) = 2.00154 4.95320 3.77759
#
# Compressibility (1/GPa) = 0.04326648
#
# Stress axis : x y z
#
# Youngs Moduli (GPa) = 48.13913 49.85865 81.23087
#
# Poissons Ratio (x) = -0.04149 0.26643
# Poissons Ratio (y) = -0.04006 0.20219
# Poissons Ratio (z) = 0.15789 0.12410
#
# Static dielectric constant tensor:
#      x y z
#    x 1.721220 0.000000 0.000000 
#    y 0.000000 1.716200 0.000000 
#    z 0.000000 0.000000 1.731740 
# 
# From -- ./inp_files/61077.got.cif
#   From: 2010.05.17/outbox.cif.g08.bks.cpg/sg63_31_cif.got.tgz:61077.got - 2010.06.03 15:47:04.
