data_PCOD9475935
_publ_section_title
;
Structure prediction by ZEFSAII (Michael W. Deem and Ramdas Pophale) SiO2 
 PCOD9475935
Probable space group: C M C M
;
_chemical_formula_sum "Si O2"
_cell_formula_units_Z 44
_cell_length_a 27.520124
_cell_length_b 4.758474
_cell_length_c 13.667516
_cell_angle_alpha 90.000000
_cell_angle_beta 90.000000
_cell_angle_gamma 90.000000
_cell_volume 1789.813082
_symmetry_space_group_name_H-M "C M C M"
_symmetry_group_IT_number 63
_symmetry_cell_setting 'orthorhombic'
loop_
_space_group_symop_operation_xyz
x,y,z
-x,-y,1/2+z
x,-y,-z
-x,y,1/2-z
-x,-y,-z
x,y,1/2-z
-x,y,z
x,-y,1/2+z
1/2+x,1/2+y,z
1/2-x,1/2-y,1/2+z
1/2+x,1/2-y,-z
1/2-x,1/2+y,1/2-z
1/2-x,1/2-y,-z
1/2+x,1/2+y,1/2-z
1/2-x,1/2+y,z
1/2+x,1/2-y,1/2+z
loop_
_atom_site_type_symbol
_atom_site_label
_atom_site_fract_x
_atom_site_fract_y
_atom_site_fract_z
Si Si1 0.649961 0.738169 0.931585
Si Si2 0.217329 0.256912 0.750000
Si Si3 0.948965 0.947185 0.864975
Si Si4 0.000000 0.500000 0.000000
O O1 0.685042 0.818884 0.843973
O O2 0.600127 0.605756 0.889268
O O3 0.673266 0.500000 0.000000
O O4 0.641389 0.000000 0.000000
O O5 0.266614 0.433846 0.750000
O O6 0.948387 0.872193 0.750000
O O7 0.958498 0.316663 0.065267
O O8 0.000000 0.129292 0.882879
#
# Coordination Sequence:
#
# PCOD9475935 Si02
#       4
#    16   8  16   4
#     4  12  28  49  84 122 163 217 280 337 425 503
#     4  12  28  56  85 118 161 208 276 356 428 500
#     4   9  20  45  80 117 174 223 274 334 401 489
#     4   8  18  40  84 122 162 228 282 316 402 484
#
# _framework density 24.583575
#
# number of rings (size 3 to 8) (size 9 to 14) (size 15 to 20)
#    1.091    0.364    1.818    2.182    2.545    5.818 
#    0.000    0.000   12.000    4.364    0.000    0.000 
#    0.000    0.000    0.000    0.000    0.000    0.000 
#
# Total GULP energy -122895.441906 kJ/mol
# GULP energy per Si atom -5586.156450 kJ/mol
# Density = 2.452762 g / cm^3
# Si number density = 24.583575 Si / 1000 Ang^3
#
#
#
# Elastic Constant Matrix: (Units=GPa)
#
#
# Indices 1 2 3 4 5 6 
#
# 1 107.5771 38.4665 83.7094 0.0000 0.0000 0.0000
# 2 38.4665 105.9115 47.9409 0.0000 0.0000 0.0000
# 3 83.7094 47.9409 231.0958 0.0000 0.0000 0.0000
# 4 0.0000 0.0000 0.0000 32.7192 0.0000 0.0000
# 5 0.0000 0.0000 0.0000 0.0000 1.5972 0.0000
# 6 0.0000 0.0000 0.0000 0.0000 0.0000 527.3134
#
#
#
# Elastic Compliance Matrix: (Units=1/GPa)
#
#
# Indices 1 2 3 4 5 6 
#
# 1 0.013771 -0.003028 -0.004360 0.000000 0.000000 0.000000
# 2 -0.003028 0.011086 -0.001203 0.000000 0.000000 0.000000
# 3 -0.004360 -0.001203 0.006156 0.000000 0.000000 0.000000
# 4 0.000000 0.000000 0.000000 0.030563 0.000000 0.000000
# 5 0.000000 0.000000 0.000000 0.000000 0.626107 0.000000
# 6 0.000000 0.000000 0.000000 0.000000 0.000000 0.001896
#
#
# Mechanical properties :
#
#
# Convention : Reuss Voigt Hill
#
# Bulk Modulus (GPa) = 72.30048 87.20200 79.75124
# Shear Modulus (GPa) = 7.02867 130.62380 68.82623
#
# Velocity S-wave (km/s) = 1.69272 7.29725 5.29694
# Velocity P-wave (km/s) = 5.77012 10.32224 8.36190
#
# Compressibility (1/GPa) = 0.01383117
#
# Stress axis : x y z
#
# Youngs Moduli (GPa) = 72.61557 90.20273 162.43955
#
# Poissons Ratio (x) = 0.27313 0.70826
# Poissons Ratio (y) = 0.21988 0.19541
# Poissons Ratio (z) = 0.31661 0.10851
#
# Static dielectric constant tensor:
#      x y z
#    x 1.943510 0.000000 0.000000 
#    y 0.000000 1.496780 0.000000 
#    z 0.000000 0.000000 1.733000 
# 
# From -- ./inp_files/37317.got.cif
#   From: 2010.05.17/outbox.cif.g08.bks.cpg/sg63_19_cif.got.tgz:37317.got - 2010.06.03 15:47:04.
