data_PCOD9475453
_publ_section_title
;
Structure prediction by ZEFSAII (Michael W. Deem and Ramdas Pophale) SiO2 
 PCOD9475453
Probable space group: C M C M
;
_chemical_formula_sum "Si O2"
_cell_formula_units_Z 68
_cell_length_a 24.480092
_cell_length_b 19.954287
_cell_length_c 7.976050
_cell_angle_alpha 90.000000
_cell_angle_beta 90.000000
_cell_angle_gamma 90.000000
_cell_volume 3896.163090
_symmetry_space_group_name_H-M "C M C M"
_symmetry_group_IT_number 63
_symmetry_cell_setting 'orthorhombic'
loop_
_space_group_symop_operation_xyz
x,y,z
-x,-y,1/2+z
x,-y,-z
-x,y,1/2-z
-x,-y,-z
x,y,1/2-z
-x,y,z
x,-y,1/2+z
1/2+x,1/2+y,z
1/2-x,1/2-y,1/2+z
1/2+x,1/2-y,-z
1/2-x,1/2+y,1/2-z
1/2-x,1/2-y,-z
1/2+x,1/2+y,1/2-z
1/2-x,1/2+y,z
1/2+x,1/2-y,1/2+z
loop_
_atom_site_type_symbol
_atom_site_label
_atom_site_fract_x
_atom_site_fract_y
_atom_site_fract_z
Si Si1 0.866784 0.075656 0.057481
Si Si2 0.000000 0.772627 0.750000
Si Si3 0.698320 0.205318 0.052452
Si Si4 0.244808 0.571631 0.557039
Si Si5 0.087571 0.212187 0.555630
O O1 0.883149 0.083557 0.250000
O O2 0.801230 0.084382 0.041579
O O3 0.895902 0.133732 0.953742
O O4 0.878951 0.000000 0.000000
O O5 0.046852 0.773975 0.597826
O O6 0.702040 0.193306 0.250000
O O7 0.642672 0.245217 0.021460
O O8 0.750000 0.250000 0.000000
O O9 0.704398 0.133431 0.965693
O O10 0.221976 0.500000 0.500000
O O11 0.261501 0.566179 0.750000
O O12 0.070034 0.226626 0.750000
#
# Coordination Sequence:
#
# PCOD9475453 Si02
#       5
#    16   4  16  16  16
#     4  11  20  34  56  82 118 163 203 247 304 356
#     4  12  26  44  66  82 116 164 210 252 306 352
#     4  11  22  35  58  90 124 156 194 245 304 360
#     4  11  21  33  53  86 127 162 193 239 303 371
#     4  11  24  42  62  88 119 157 207 257 297 358
#
# _framework density 17.453067999999998
#
# number of rings (size 3 to 8) (size 9 to 14) (size 15 to 20)
#    0.000    0.941    3.529    6.706    3.294    0.000 
#    0.000    0.588    0.000    0.000    0.000    0.824 
#    0.000    0.000    0.000    0.000    0.000    0.000 
#
# Total GULP energy -189283.300616 kJ/mol
# GULP energy per Si atom -5567.155900 kJ/mol
# Density = 1.741334 g / cm^3
# Si number density = 17.453068 Si / 1000 Ang^3
#
#
#
# Elastic Constant Matrix: (Units=GPa)
#
#
# Indices 1 2 3 4 5 6 
#
# 1 80.0330 32.0634 51.1099 0.0000 0.0000 0.0000
# 2 32.0634 78.4258 25.2093 0.0000 0.0000 0.0000
# 3 51.1099 25.2093 124.9830 0.0000 0.0000 0.0000
# 4 0.0000 0.0000 0.0000 24.0450 0.0000 0.0000
# 5 0.0000 0.0000 0.0000 0.0000 35.9438 0.0000
# 6 0.0000 0.0000 0.0000 0.0000 0.0000 -7.3250
#
#
#
# Elastic Compliance Matrix: (Units=1/GPa)
#
#
# Indices 1 2 3 4 5 6 
#
# 1 0.018983 -0.005631 -0.006627 0.000000 0.000000 0.000000
# 2 -0.005631 0.015305 -0.000785 0.000000 0.000000 0.000000
# 3 -0.006627 -0.000785 0.010869 0.000000 0.000000 0.000000
# 4 0.000000 0.000000 0.000000 0.041589 0.000000 0.000000
# 5 0.000000 0.000000 0.000000 0.000000 0.027821 0.000000
# 6 0.000000 0.000000 0.000000 0.000000 0.000000 -0.136518
#
#
# Mechanical properties :
#
#
# Convention : Reuss Voigt Hill
#
# Bulk Modulus (GPa) = 52.43050 55.57856 54.00453
# Shear Modulus (GPa) = 476.61463 22.20336 249.40899
#
# Velocity S-wave (km/s) = 16.54317 3.57063 11.96716
# Velocity P-wave (km/s) = 19.87481 6.99377 14.89834
#
# Compressibility (1/GPa) = 0.01907287
#
# Stress axis : x y z
#
# Youngs Moduli (GPa) = 52.67963 65.33774 92.00205
#
# Poissons Ratio (x) = 0.36789 0.60969
# Poissons Ratio (y) = 0.29662 0.07218
# Poissons Ratio (z) = 0.34911 0.05126
#
# Static dielectric constant tensor:
#      x y z
#    x 1.567790 0.000000 0.000000 
#    y 0.000000 1.600040 0.000000 
#    z 0.000000 0.000000 1.638060 
# 
# From -- ./inp_files/9858.got.cif
#   From: 2010.05.17/outbox.cif.g08.bks.cpg/sg63_5_cif.got.tgz:9858.got - 2010.06.03 15:47:04.
