data_PCOD9475934
_publ_section_title
;
Structure prediction by ZEFSAII (Michael W. Deem and Ramdas Pophale) SiO2 
 PCOD9475934
Probable space group: C M C M
;
_chemical_formula_sum "Si O2"
_cell_formula_units_Z 40
_cell_length_a 14.283715
_cell_length_b 4.874091
_cell_length_c 21.666302
_cell_angle_alpha 90.000000
_cell_angle_beta 90.000000
_cell_angle_gamma 90.000000
_cell_volume 1508.410691
_symmetry_space_group_name_H-M "C M C M"
_symmetry_group_IT_number 63
_symmetry_cell_setting 'orthorhombic'
loop_
_space_group_symop_operation_xyz
x,y,z
-x,-y,1/2+z
x,-y,-z
-x,y,1/2-z
-x,-y,-z
x,y,1/2-z
-x,y,z
x,-y,1/2+z
1/2+x,1/2+y,z
1/2-x,1/2-y,1/2+z
1/2+x,1/2-y,-z
1/2-x,1/2+y,1/2-z
1/2-x,1/2-y,-z
1/2+x,1/2+y,1/2-z
1/2-x,1/2+y,z
1/2+x,1/2-y,1/2+z
loop_
_atom_site_type_symbol
_atom_site_label
_atom_site_fract_x
_atom_site_fract_y
_atom_site_fract_z
Si Si1 0.811570 0.486560 0.750000
Si Si2 0.607080 0.215942 0.377696
Si Si3 0.662071 0.311186 0.546267
O O1 0.716983 0.303570 0.750000
O O2 0.866524 0.402243 0.811307
O O3 0.500000 0.311897 0.377199
O O4 0.619449 0.964131 0.426000
O O5 0.673152 0.474320 0.396634
O O6 0.601253 0.500000 0.500000
O O7 0.750000 0.250000 0.500000
#
# Coordination Sequence:
#
# PCOD9475934 Si02
#       3
#     8  16  16
#     4  12  29  48  83 114 150 204 262 314 391 464
#     4  12  28  51  79 117 157 199 257 329 391 450
#     4  12  27  45  80 111 159 205 257 308 381 463
#
# _framework density 26.517979
#
# number of rings (size 3 to 8) (size 9 to 14) (size 15 to 20)
#    0.000    0.000    0.000    9.000   16.800    4.800 
#    0.000    6.000    0.000    0.000    0.000    0.000 
#    0.000    0.000    0.000    0.000    0.000    0.000 
#
# Total GULP energy -111857.416840 kJ/mol
# GULP energy per Si atom -5592.870842 kJ/mol
# Density = 2.645762 g / cm^3
# Si number density = 26.517979 Si / 1000 Ang^3
#
#
#
# Elastic Constant Matrix: (Units=GPa)
#
#
# Indices 1 2 3 4 5 6 
#
# 1 128.4941 5.2286 44.9957 0.0000 0.0000 0.0000
# 2 5.2286 177.1011 27.4425 0.0000 0.0000 0.0000
# 3 44.9957 27.4425 156.3386 0.0000 0.0000 0.0000
# 4 0.0000 0.0000 0.0000 58.0600 0.0000 0.0000
# 5 0.0000 0.0000 0.0000 0.0000 32.3997 0.0000
# 6 0.0000 0.0000 0.0000 0.0000 0.0000 22.6275
#
#
#
# Elastic Compliance Matrix: (Units=1/GPa)
#
#
# Indices 1 2 3 4 5 6 
#
# 1 0.008658 0.000134 -0.002515 0.000000 0.000000 0.000000
# 2 0.000134 0.005806 -0.001058 0.000000 0.000000 0.000000
# 3 -0.002515 -0.001058 0.007306 0.000000 0.000000 0.000000
# 4 0.000000 0.000000 0.000000 0.017224 0.000000 0.000000
# 5 0.000000 0.000000 0.000000 0.000000 0.030864 0.000000
# 6 0.000000 0.000000 0.000000 0.000000 0.000000 0.044194
#
#
# Mechanical properties :
#
#
# Convention : Reuss Voigt Hill
#
# Bulk Modulus (GPa) = 67.14916 68.58524 67.86720
# Shear Modulus (GPa) = 39.71581 48.23524 43.97553
#
# Velocity S-wave (km/s) = 3.87420 4.26956 4.07668
# Velocity P-wave (km/s) = 6.73719 7.08698 6.91430
#
# Compressibility (1/GPa) = 0.01489222
#
# Stress axis : x y z
#
# Youngs Moduli (GPa) = 115.50257 172.22232 136.87386
#
# Poissons Ratio (x) = -0.02310 0.34429
# Poissons Ratio (y) = -0.01550 0.14479
# Poissons Ratio (z) = 0.29053 0.18218
#
# Static dielectric constant tensor:
#      x y z
#    x 2.143440 0.000000 0.000000 
#    y 0.000000 2.348020 0.000000 
#    z 0.000000 0.000000 2.138540 
# 
# From -- ./inp_files/44803.got.cif
#   From: 2010.05.17/outbox.cif.g08.bks.cpg/sg63_23_cif.got.tgz:44803.got - 2010.06.03 15:47:04.
