data_PCOD9475506
_publ_section_title
;
Structure prediction by ZEFSAII (Michael W. Deem and Ramdas Pophale) SiO2 
 PCOD9475506
Probable space group: C M C M
;
_chemical_formula_sum "Si O2"
_cell_formula_units_Z 80
_cell_length_a 19.357396
_cell_length_b 27.558892
_cell_length_c 8.515862
_cell_angle_alpha 90.000000
_cell_angle_beta 90.000000
_cell_angle_gamma 90.000000
_cell_volume 4542.943155
_symmetry_space_group_name_H-M "C M C M"
_symmetry_group_IT_number 63
_symmetry_cell_setting 'orthorhombic'
loop_
_space_group_symop_operation_xyz
x,y,z
-x,-y,1/2+z
x,-y,-z
-x,y,1/2-z
-x,-y,-z
x,y,1/2-z
-x,y,z
x,-y,1/2+z
1/2+x,1/2+y,z
1/2-x,1/2-y,1/2+z
1/2+x,1/2-y,-z
1/2-x,1/2+y,1/2-z
1/2-x,1/2-y,-z
1/2+x,1/2+y,1/2-z
1/2-x,1/2+y,z
1/2+x,1/2-y,1/2+z
loop_
_atom_site_type_symbol
_atom_site_label
_atom_site_fract_x
_atom_site_fract_y
_atom_site_fract_z
Si Si1 0.422373 0.348909 0.939958
Si Si2 0.719289 0.099074 0.059886
Si Si3 0.076057 0.445162 0.939650
Si Si4 0.715780 0.701187 0.061202
Si Si5 0.143756 0.947390 0.436621
O O1 0.421284 0.349430 0.750000
O O2 0.500000 0.337092 0.992245
O O3 0.362445 0.311553 0.992153
O O4 0.400523 0.402575 0.995953
O O5 0.723566 0.095463 0.250000
O O6 0.642525 0.084997 0.008267
O O7 0.739880 0.153760 0.015562
O O8 0.777582 0.063884 0.989954
O O9 0.076814 0.445880 0.750000
O O10 0.000000 0.427130 0.989925
O O11 0.083196 0.500000 0.000000
O O12 0.714844 0.703513 0.250000
O O13 0.750000 0.750000 0.000000
O O14 0.139511 0.947113 0.250000
O O15 0.122466 0.000000 0.500000
#
# Coordination Sequence:
#
# PCOD9475506 Si02
#       5
#    16  16  16  16  16
#     4   9  19  37  57  75  99 131 166 205 248 292
#     4   9  18  33  50  69  96 130 169 209 247 291
#     4   9  17  29  46  68  95 127 161 198 241 287
#     4   9  18  33  53  75  97 124 159 200 246 291
#     4  11  21  32  49  74 103 134 168 203 242 292
#
# _framework density 17.609729000000002
#
# number of rings (size 3 to 8) (size 9 to 14) (size 15 to 20)
#    0.000    2.600    0.000    3.600    0.000    6.400 
#    0.000    1.000    0.000    1.200    0.000    0.000 
#    0.000    0.000    0.000    0.000    0.000    0.000 
#
# Total GULP energy -223027.783079 kJ/mol
# GULP energy per Si atom -5575.694577 kJ/mol
# Density = 1.756965 g / cm^3
# Si number density = 17.609729 Si / 1000 Ang^3
#
#
#
# Elastic Constant Matrix: (Units=GPa)
#
#
# Indices 1 2 3 4 5 6 
#
# 1 171.7579 66.5218 20.8665 0.0000 0.0000 0.0000
# 2 66.5218 99.1451 13.2479 0.0000 0.0000 0.0000
# 3 20.8665 13.2479 10.7790 0.0000 0.0000 0.0000
# 4 0.0000 0.0000 0.0000 29.1782 0.0000 0.0000
# 5 0.0000 0.0000 0.0000 0.0000 19.1683 0.0000
# 6 0.0000 0.0000 0.0000 0.0000 0.0000 12.0980
#
#
#
# Elastic Compliance Matrix: (Units=1/GPa)
#
#
# Indices 1 2 3 4 5 6 
#
# 1 0.008993 -0.004436 -0.011956 0.000000 0.000000 0.000000
# 2 -0.004436 0.014256 -0.008934 0.000000 0.000000 0.000000
# 3 -0.011956 -0.008934 0.126899 0.000000 0.000000 0.000000
# 4 0.000000 0.000000 0.000000 0.034272 0.000000 0.000000
# 5 0.000000 0.000000 0.000000 0.000000 0.052169 0.000000
# 6 0.000000 0.000000 0.000000 0.000000 0.000000 0.082658
#
#
# Mechanical properties :
#
#
# Convention : Reuss Voigt Hill
#
# Bulk Modulus (GPa) = 10.05080 53.66161 31.85620
# Shear Modulus (GPa) = 12.40491 24.15864 18.28177
#
# Velocity S-wave (km/s) = 2.65700 3.70792 3.22555
# Velocity P-wave (km/s) = 3.89009 6.99074 5.65700
#
# Compressibility (1/GPa) = 0.09949458
#
# Stress axis : x y z
#
# Youngs Moduli (GPa) = 111.19975 70.14364 7.88029
#
# Poissons Ratio (x) = 0.31117 0.09422
# Poissons Ratio (y) = 0.49330 0.07040
# Poissons Ratio (z) = 1.32956 0.62668
#
# Static dielectric constant tensor:
#      x y z
#    x 1.632740 0.000000 0.000000 
#    y 0.000000 1.566600 0.000000 
#    z 0.000000 0.000000 1.600940 
# 
# From -- ./inp_files/6439.got.cif
#   From: 2010.05.17/outbox.cif.g08.bks.cpg/sg63_4_cif.got.tgz:6439.got - 2010.06.03 15:47:04.
