data_PCOD9475883
_publ_section_title
;
Structure prediction by ZEFSAII (Michael W. Deem and Ramdas Pophale) SiO2 
 PCOD9475883
Probable space group: C M C M
;
_chemical_formula_sum "Si O2"
_cell_formula_units_Z 80
_cell_length_a 9.772713
_cell_length_b 16.000253
_cell_length_c 30.919447
_cell_angle_alpha 90.000000
_cell_angle_beta 90.000000
_cell_angle_gamma 90.000000
_cell_volume 4834.746555
_symmetry_space_group_name_H-M "C M C M"
_symmetry_group_IT_number 63
_symmetry_cell_setting 'orthorhombic'
loop_
_space_group_symop_operation_xyz
x,y,z
-x,-y,1/2+z
x,-y,-z
-x,y,1/2-z
-x,-y,-z
x,y,1/2-z
-x,y,z
x,-y,1/2+z
1/2+x,1/2+y,z
1/2-x,1/2-y,1/2+z
1/2+x,1/2-y,-z
1/2-x,1/2+y,1/2-z
1/2-x,1/2-y,-z
1/2+x,1/2+y,1/2-z
1/2-x,1/2+y,z
1/2+x,1/2-y,1/2+z
loop_
_atom_site_type_symbol
_atom_site_label
_atom_site_fract_x
_atom_site_fract_y
_atom_site_fract_z
Si Si1 0.000000 0.678760 0.204360
Si Si2 0.500000 0.142109 0.461388
Si Si3 0.000000 0.501151 0.893848
Si Si4 0.733336 0.089392 0.160336
Si Si5 0.271582 0.761882 0.591806
Si Si6 0.000000 0.003496 0.802830
Si Si7 0.500000 0.174861 0.938368
Si Si8 0.000000 0.830058 0.361258
O O1 0.865995 0.623236 0.197876
O O2 0.000000 0.722604 0.250000
O O3 0.000000 0.745964 0.166939
O O4 0.500000 0.052609 0.438005
O O5 0.369136 0.191194 0.442287
O O6 0.500000 0.141871 0.512657
O O7 0.134679 0.472358 0.867245
O O8 0.000000 0.597536 0.905303
O O9 0.762011 0.169341 0.129121
O O10 0.866281 0.046510 0.180266
O O11 0.134533 0.728879 0.570535
O O12 0.362823 0.684462 0.610411
O O13 0.000000 0.012369 0.750000
O O14 0.000000 0.090978 0.829607
#
# Coordination Sequence:
#
# PCOD9475883 Si02
#       8
#     8   8   8  16  16   8   8   8
#     4   9  16  32  52  66  84 123 162 192 226 278
#     4   9  19  34  48  72 100 125 154 195 237 280
#     4   9  19  34  51  68  94 131 161 186 230 287
#     4   9  19  34  48  66  96 127 157 187 232 291
#     4   9  19  34  51  68  94 131 161 186 230 287
#     4  12  21  30  48  78 100 116 151 207 246 267
#     4  12  18  28  52  78  94 116 160 207 232 259
#     4   9  19  34  48  66  96 127 157 187 232 291
#
# _framework density 16.546885
#
# number of rings (size 3 to 8) (size 9 to 14) (size 15 to 20)
#    0.000    2.400    0.000    6.000    0.000    0.000 
#    0.000    0.000    0.000    0.000    0.000   21.000 
#    0.000    0.000    0.000    0.000    0.000    0.000 
#
# Total GULP energy -222825.828614 kJ/mol
# GULP energy per Si atom -5570.645715 kJ/mol
# Density = 1.650922 g / cm^3
# Si number density = 16.546885 Si / 1000 Ang^3
#
#
#
# Elastic Constant Matrix: (Units=GPa)
#
#
# Indices 1 2 3 4 5 6 
#
# 1 114.6946 32.4606 20.0193 0.0000 0.0000 0.0000
# 2 32.4606 49.9568 -3.1367 0.0000 0.0000 0.0000
# 3 20.0193 -3.1367 61.1220 0.0000 0.0000 0.0000
# 4 0.0000 0.0000 0.0000 18.8335 0.0000 0.0000
# 5 0.0000 0.0000 0.0000 0.0000 -46.0394 0.0000
# 6 0.0000 0.0000 0.0000 0.0000 0.0000 35.8645
#
#
#
# Elastic Compliance Matrix: (Units=1/GPa)
#
#
# Indices 1 2 3 4 5 6 
#
# 1 0.011680 -0.007855 -0.004229 0.000000 0.000000 0.000000
# 2 -0.007855 0.025364 0.003874 0.000000 0.000000 0.000000
# 3 -0.004229 0.003874 0.017945 0.000000 0.000000 0.000000
# 4 0.000000 0.000000 0.000000 0.053097 0.000000 0.000000
# 5 0.000000 0.000000 0.000000 0.000000 -0.021721 0.000000
# 6 0.000000 0.000000 0.000000 0.000000 0.000000 0.027883
#
#
# Mechanical properties :
#
#
# Convention : Reuss Voigt Hill
#
# Bulk Modulus (GPa) = 25.92642 36.05110 30.98876
# Shear Modulus (GPa) = 34.83760 13.49373 24.16566
#
# Velocity S-wave (km/s) = 4.59343 2.85877 3.82571
# Velocity P-wave (km/s) = 6.62082 5.72112 6.18735
#
# Compressibility (1/GPa) = 0.03857069
#
# Stress axis : x y z
#
# Youngs Moduli (GPa) = 85.61682 39.42529 55.72725
#
# Poissons Ratio (x) = 0.30968 0.23565
# Poissons Ratio (y) = 0.67251 -0.21591
# Poissons Ratio (z) = 0.36204 -0.15275
#
# Static dielectric constant tensor:
#      x y z
#    x 1.545560 0.000000 0.000000 
#    y 0.000000 1.537880 0.000000 
#    z 0.000000 0.000000 1.572470 
# 
# From -- ./inp_files/71649.got.cif
#   From: 2010.05.17/outbox.cif.g08.bks.cpg/sg63_36_cif.got.tgz:71649.got - 2010.06.03 15:47:04.
