data_PCOD9475253
_publ_section_title
;
Structure prediction by ZEFSAII (Michael W. Deem and Ramdas Pophale) SiO2 
 PCOD9475253
Probable space group: C M C M
;
_chemical_formula_sum "Si O2"
_cell_formula_units_Z 52
_cell_length_a 7.204943
_cell_length_b 19.093270
_cell_length_c 13.677611
_cell_angle_alpha 90.000000
_cell_angle_beta 90.000000
_cell_angle_gamma 90.000000
_cell_volume 1881.573168
_symmetry_space_group_name_H-M "C M C M"
_symmetry_group_IT_number 63
_symmetry_cell_setting 'orthorhombic'
loop_
_space_group_symop_operation_xyz
x,y,z
-x,-y,1/2+z
x,-y,-z
-x,y,1/2-z
-x,-y,-z
x,y,1/2-z
-x,y,z
x,-y,1/2+z
1/2+x,1/2+y,z
1/2-x,1/2-y,1/2+z
1/2+x,1/2-y,-z
1/2-x,1/2+y,1/2-z
1/2-x,1/2-y,-z
1/2+x,1/2+y,1/2-z
1/2-x,1/2+y,z
1/2+x,1/2-y,1/2+z
loop_
_atom_site_type_symbol
_atom_site_label
_atom_site_fract_x
_atom_site_fract_y
_atom_site_fract_z
Si Si1 0.225046 0.839097 0.920675
Si Si2 0.000000 0.566715 0.750000
Si Si3 0.785403 0.009302 0.115559
Si Si4 0.714355 0.316029 0.357289
O O1 0.280279 0.910907 0.868715
O O2 0.285246 0.768604 0.867484
O O3 0.000000 0.838514 0.923443
O O4 0.287105 0.836654 0.034756
O O5 0.839262 0.547706 0.666086
O O6 0.000000 0.003982 0.144569
O O7 0.779676 0.000000 0.000000
O O8 0.808741 0.330634 0.250000
O O9 0.500000 0.339489 0.352565
#
# Coordination Sequence:
#
# PCOD9475253 Si02
#       4
#    16   4  16  16
#     4   9  19  35  54  80 116 152 194 248 303 360
#     4  12  24  40  68  96 120 164 212 264 302 378
#     4  10  23  43  65  92 127 164 206 258 317 372
#     4   9  18  32  54  81 111 151 197 243 298 360
#
# _framework density 27.636448000000001
#
# number of rings (size 3 to 8) (size 9 to 14) (size 15 to 20)
#    0.000    2.462    0.000    0.923    4.308    0.615 
#    2.769    0.000    0.000    0.000    0.000    0.000 
#    0.000    0.000    0.000    0.000    0.000    0.000 
#
# Total GULP energy -145172.422584 kJ/mol
# GULP energy per Si atom -5583.554715 kJ/mol
# Density = 2.757355 g / cm^3
# Si number density = 27.636448 Si / 1000 Ang^3
#
#
#
# Elastic Constant Matrix: (Units=GPa)
#
#
# Indices 1 2 3 4 5 6 
#
# 1 120.8589 -69.6525 -21.6903 0.0000 0.0000 0.0000
# 2 -69.6525 118.8779 -1.9366 0.0000 0.0000 0.0000
# 3 -21.6903 -1.9366 193.4991 0.0000 0.0000 0.0000
# 4 0.0000 0.0000 0.0000 6.3706 0.0000 0.0000
# 5 0.0000 0.0000 0.0000 0.0000 34.2786 0.0000
# 6 0.0000 0.0000 0.0000 0.0000 0.0000 231.8422
#
#
#
# Elastic Compliance Matrix: (Units=1/GPa)
#
#
# Indices 1 2 3 4 5 6 
#
# 1 0.012927 0.007599 0.001525 0.000000 0.000000 0.000000
# 2 0.007599 0.012880 0.000981 0.000000 0.000000 0.000000
# 3 0.001525 0.000981 0.005349 0.000000 0.000000 0.000000
# 4 0.000000 0.000000 0.000000 0.156970 0.000000 0.000000
# 5 0.000000 0.000000 0.000000 0.000000 0.029173 0.000000
# 6 0.000000 0.000000 0.000000 0.000000 0.000000 0.004313
#
#
# Mechanical properties :
#
#
# Convention : Reuss Voigt Hill
#
# Bulk Modulus (GPa) = 19.46786 27.40855 23.43821
# Shear Modulus (GPa) = 22.88070 89.59931 56.24000
#
# Velocity S-wave (km/s) = 2.88048 5.70010 4.51598
# Velocity P-wave (km/s) = 4.25704 7.29798 5.97423
#
# Compressibility (1/GPa) = 0.05136670
#
# Stress axis : x y z
#
# Youngs Moduli (GPa) = 77.35549 77.63699 186.95920
#
# Poissons Ratio (x) = -0.58998 -0.28514
# Poissons Ratio (y) = -0.58784 -0.18336
# Poissons Ratio (z) = -0.11798 -0.07614
#
# Static dielectric constant tensor:
#      x y z
#    x 2.299600 0.000000 0.000000 
#    y 0.000000 2.283980 0.000000 
#    z 0.000000 0.000000 2.117580 
# 
# From -- ./inp_files/27091.got.cif
#   From: 2010.05.17/outbox.cif.g08.bks.cpg/sg63_14_cif.got.tgz:27091.got - 2010.06.03 15:47:04.
