data_PCOD9475396
_publ_section_title
;
Structure prediction by ZEFSAII (Michael W. Deem and Ramdas Pophale) SiO2 
 PCOD9475396
Probable space group: C M C M
;
_chemical_formula_sum "Si O2"
_cell_formula_units_Z 96
_cell_length_a 13.841836
_cell_length_b 30.958063
_cell_length_c 14.012354
_cell_angle_alpha 90.000000
_cell_angle_beta 90.000000
_cell_angle_gamma 90.000000
_cell_volume 6004.523925
_symmetry_space_group_name_H-M "C M C M"
_symmetry_group_IT_number 63
_symmetry_cell_setting 'orthorhombic'
loop_
_space_group_symop_operation_xyz
x,y,z
-x,-y,1/2+z
x,-y,-z
-x,y,1/2-z
-x,-y,-z
x,y,1/2-z
-x,y,z
x,-y,1/2+z
1/2+x,1/2+y,z
1/2-x,1/2-y,1/2+z
1/2+x,1/2-y,-z
1/2-x,1/2+y,1/2-z
1/2-x,1/2-y,-z
1/2+x,1/2+y,1/2-z
1/2-x,1/2+y,z
1/2+x,1/2-y,1/2+z
loop_
_atom_site_type_symbol
_atom_site_label
_atom_site_fract_x
_atom_site_fract_y
_atom_site_fract_z
Si Si1 0.616904 0.977411 0.355441
Si Si2 0.701770 0.159473 0.451979
Si Si3 0.798055 0.293875 0.362417
Si Si4 0.111468 0.201281 0.135598
Si Si5 0.605817 0.757458 0.635717
Si Si6 0.616684 0.932167 0.550526
O O1 0.652714 0.965918 0.250000
O O2 0.500000 0.975662 0.354117
O O3 0.645507 0.947041 0.443390
O O4 0.640619 0.026910 0.382735
O O5 0.685286 0.167364 0.564925
O O6 0.809847 0.172347 0.418964
O O7 0.635290 0.196026 0.403538
O O8 0.669555 0.111892 0.423544
O O9 0.805735 0.304103 0.250000
O O10 0.865430 0.252097 0.383041
O O11 0.691014 0.275846 0.386027
O O12 0.126916 0.195851 0.250000
O O13 0.000000 0.191737 0.113965
O O14 0.604338 0.760523 0.750000
O O15 0.500000 0.744243 0.601440
O O16 0.500000 0.926140 0.553197
#
# Coordination Sequence:
#
# PCOD9475396 Si02
#       6
#    16  16  16  16  16  16
#     4   8  15  30  48  62  84 118 143 162 202 261
#     4  11  19  27  44  67  90 113 143 184 222 254
#     4   9  19  31  41  59  86 118 155 186 213 251
#     4   9  18  32  46  60  84 119 156 188 215 248
#     4   9  17  29  44  62  86 115 146 181 221 261
#     4   9  18  29  42  67  94 111 137 173 208 257
#
# _framework density 15.987946000000001
#
# number of rings (size 3 to 8) (size 9 to 14) (size 15 to 20)
#    0.000    2.833    0.000    5.000    0.000    5.333 
#    0.000    1.667    0.000    0.000    0.000    2.333 
#    0.000    1.333    0.000    0.000    0.000    0.000 
#
# Total GULP energy -267465.037731 kJ/mol
# GULP energy per Si atom -5572.188286 kJ/mol
# Density = 1.595156 g / cm^3
# Si number density = 15.987946 Si / 1000 Ang^3
#
#
#
# Elastic Constant Matrix: (Units=GPa)
#
#
# Indices 1 2 3 4 5 6 
#
# 1 51.0794 4.6938 4.0426 0.0000 0.0000 0.0000
# 2 4.6938 28.9955 -5.2717 0.0000 0.0000 0.0000
# 3 4.0426 -5.2717 43.5913 0.0000 0.0000 0.0000
# 4 0.0000 0.0000 0.0000 5.5844 0.0000 0.0000
# 5 0.0000 0.0000 0.0000 0.0000 11.5078 0.0000
# 6 0.0000 0.0000 0.0000 0.0000 0.0000 7.0206
#
#
#
# Elastic Compliance Matrix: (Units=1/GPa)
#
#
# Indices 1 2 3 4 5 6 
#
# 1 0.020098 -0.003673 -0.002308 0.000000 0.000000 0.000000
# 2 -0.003673 0.035935 0.004686 0.000000 0.000000 0.000000
# 3 -0.002308 0.004686 0.023721 0.000000 0.000000 0.000000
# 4 0.000000 0.000000 0.000000 0.179070 0.000000 0.000000
# 5 0.000000 0.000000 0.000000 0.000000 0.086897 0.000000
# 6 0.000000 0.000000 0.000000 0.000000 0.000000 0.142437
#
#
# Mechanical properties :
#
#
# Convention : Reuss Voigt Hill
#
# Bulk Modulus (GPa) = 12.95940 14.51062 13.73501
# Shear Modulus (GPa) = 9.68113 12.83601 11.25857
#
# Velocity S-wave (km/s) = 2.46342 2.83654 2.65654
# Velocity P-wave (km/s) = 4.02673 4.45238 4.24489
#
# Compressibility (1/GPa) = 0.07716408
#
# Stress axis : x y z
#
# Youngs Moduli (GPa) = 49.75728 27.82827 42.15654
#
# Poissons Ratio (x) = 0.10221 0.09730
# Poissons Ratio (y) = 0.18276 -0.19756
# Poissons Ratio (z) = 0.11484 -0.13041
#
# Static dielectric constant tensor:
#      x y z
#    x 1.537120 0.000000 0.000000 
#    y 0.000000 1.495950 0.000000 
#    z 0.000000 0.000000 1.595440 
# 
# From -- ./inp_files/32688.got.cif
#   From: 2010.05.17/outbox.cif.g08.bks.cpg/sg63_17_cif.got.tgz:32688.got - 2010.06.03 15:47:04.
