data_PCOD9475236
_publ_section_title
;
Structure prediction by ZEFSAII (Michael W. Deem and Ramdas Pophale) SiO2 
 PCOD9475236
Probable space group: C M C M
;
_chemical_formula_sum "Si O2"
_cell_formula_units_Z 56
_cell_length_a 17.932473
_cell_length_b 9.823897
_cell_length_c 13.908153
_cell_angle_alpha 90.000000
_cell_angle_beta 90.000000
_cell_angle_gamma 90.000000
_cell_volume 2450.154359
_symmetry_space_group_name_H-M "C M C M"
_symmetry_group_IT_number 63
_symmetry_cell_setting 'orthorhombic'
loop_
_space_group_symop_operation_xyz
x,y,z
-x,-y,1/2+z
x,-y,-z
-x,y,1/2-z
-x,-y,-z
x,y,1/2-z
-x,y,z
x,-y,1/2+z
1/2+x,1/2+y,z
1/2-x,1/2-y,1/2+z
1/2+x,1/2-y,-z
1/2-x,1/2+y,1/2-z
1/2-x,1/2-y,-z
1/2+x,1/2+y,1/2-z
1/2-x,1/2+y,z
1/2+x,1/2-y,1/2+z
loop_
_atom_site_type_symbol
_atom_site_label
_atom_site_fract_x
_atom_site_fract_y
_atom_site_fract_z
Si Si1 0.667989 0.475405 0.858227
Si Si2 0.500000 0.471590 0.111529
Si Si3 0.118536 0.500000 0.000000
Si Si4 0.278931 0.810879 0.367214
Si Si5 0.500000 0.147931 0.363770
O O1 0.694815 0.468971 0.750000
O O2 0.579022 0.466316 0.857370
O O3 0.707547 0.343339 0.901601
O O4 0.697859 0.623285 0.888126
O O5 0.500000 0.311985 0.135378
O O6 0.500000 0.500000 0.000000
O O7 0.165762 0.594389 0.927961
O O8 0.068911 0.409334 0.926629
O O9 0.293395 0.814709 0.250000
O O10 0.500000 0.105867 0.250000
#
# Coordination Sequence:
#
# PCOD9475236 Si02
#       5
#    16   8   8  16   8
#     4  10  23  43  67  97 136 181 227 281 348 418
#     4  12  25  42  69 102 138 179 230 287 350 420
#     4  11  24  42  68  99 138 182 234 293 346 422
#     4  10  23  42  68  99 136 180 230 288 352 416
#     4  11  25  44  68 102 143 189 234 290 355 420
#
# _framework density 22.855702000000001
#
# number of rings (size 3 to 8) (size 9 to 14) (size 15 to 20)
#    0.000    1.429    0.000    3.857    6.000    2.286 
#    0.000    2.857    0.000    0.000    0.000    0.000 
#    0.000    0.000    0.000    0.000    0.000    0.000 
#
# Total GULP energy -156183.496171 kJ/mol
# GULP energy per Si atom -5577.982006 kJ/mol
# Density = 2.280368 g / cm^3
# Si number density = 22.855702 Si / 1000 Ang^3
#
#
#
# Elastic Constant Matrix: (Units=GPa)
#
#
# Indices 1 2 3 4 5 6 
#
# 1 103.8070 52.3603 -3.2868 0.0000 0.0000 0.0000
# 2 52.3603 122.6399 14.9519 0.0000 0.0000 0.0000
# 3 -3.2868 14.9519 174.7767 0.0000 0.0000 0.0000
# 4 0.0000 0.0000 0.0000 33.3026 0.0000 0.0000
# 5 0.0000 0.0000 0.0000 0.0000 51.3861 0.0000
# 6 0.0000 0.0000 0.0000 0.0000 0.0000 33.5828
#
#
#
# Elastic Compliance Matrix: (Units=1/GPa)
#
#
# Indices 1 2 3 4 5 6 
#
# 1 0.012359 -0.005361 0.000691 0.000000 0.000000 0.000000
# 2 -0.005361 0.010565 -0.001005 0.000000 0.000000 0.000000
# 3 0.000691 -0.001005 0.005821 0.000000 0.000000 0.000000
# 4 0.000000 0.000000 0.000000 0.030028 0.000000 0.000000
# 5 0.000000 0.000000 0.000000 0.000000 0.019461 0.000000
# 6 0.000000 0.000000 0.000000 0.000000 0.000000 0.029777
#
#
# Mechanical properties :
#
#
# Convention : Reuss Voigt Hill
#
# Bulk Modulus (GPa) = 57.48485 58.80828 58.14656
# Shear Modulus (GPa) = 39.94950 46.13419 43.04185
#
# Velocity S-wave (km/s) = 4.18533 4.49764 4.34429
# Velocity P-wave (km/s) = 6.96863 7.26346 7.11757
#
# Compressibility (1/GPa) = 0.01739589
#
# Stress axis : x y z
#
# Youngs Moduli (GPa) = 80.91147 94.64990 171.80569
#
# Poissons Ratio (x) = 0.50741 -0.11873
# Poissons Ratio (y) = 0.43376 0.17261
# Poissons Ratio (z) = -0.05591 0.09509
#
# Static dielectric constant tensor:
#      x y z
#    x 1.882950 0.000000 0.000000 
#    y 0.000000 1.878420 0.000000 
#    z 0.000000 0.000000 1.885860 
# 
# From -- ./inp_files/34805.got.cif
#   From: 2010.05.17/outbox.cif.g08.bks.cpg/sg63_18_cif.got.tgz:34805.got - 2010.06.03 15:47:04.
