data_PCOD9475299
_publ_section_title
;
Structure prediction by ZEFSAII (Michael W. Deem and Ramdas Pophale) SiO2 
 PCOD9475299
Probable space group: C M C M
;
_chemical_formula_sum "Si O2"
_cell_formula_units_Z 48
_cell_length_a 18.330996
_cell_length_b 5.010157
_cell_length_c 21.342407
_cell_angle_alpha 90.000000
_cell_angle_beta 90.000000
_cell_angle_gamma 90.000000
_cell_volume 1960.111585
_symmetry_space_group_name_H-M "C M C M"
_symmetry_group_IT_number 63
_symmetry_cell_setting 'orthorhombic'
loop_
_space_group_symop_operation_xyz
x,y,z
-x,-y,1/2+z
x,-y,-z
-x,y,1/2-z
-x,-y,-z
x,y,1/2-z
-x,y,z
x,-y,1/2+z
1/2+x,1/2+y,z
1/2-x,1/2-y,1/2+z
1/2+x,1/2-y,-z
1/2-x,1/2+y,1/2-z
1/2-x,1/2-y,-z
1/2+x,1/2+y,1/2-z
1/2-x,1/2+y,z
1/2+x,1/2-y,1/2+z
loop_
_atom_site_type_symbol
_atom_site_label
_atom_site_fract_x
_atom_site_fract_y
_atom_site_fract_z
Si Si1 0.303528 0.527197 0.616193
Si Si2 0.582599 0.176474 0.318938
Si Si3 0.414918 0.808867 0.442759
O O1 0.251354 0.780838 0.612699
O O2 0.355991 0.597343 0.674491
O O3 0.364643 0.448780 0.565418
O O4 0.588789 0.049831 0.250000
O O5 0.500000 0.286562 0.324380
O O6 0.592023 0.974626 0.377233
O O7 0.500000 0.740485 0.450685
O O8 0.392976 0.000000 0.500000
#
# Coordination Sequence:
#
# PCOD9475299 Si02
#       3
#    16  16  16
#     4  12  25  46  70 104 145 187 233 297 364 436
#     4  10  23  46  73 101 140 193 250 304 365 441
#     4  10  23  46  76 110 149 196 251 306 366 440
#
# _framework density 24.488403999999999
#
# number of rings (size 3 to 8) (size 9 to 14) (size 15 to 20)
#    0.000    1.333    3.333    1.000    0.000    5.333 
#    0.000    8.333    0.000    0.000    0.000    0.000 
#    0.000    0.000    0.000    0.000    0.000    0.000 
#
# Total GULP energy -134117.898718 kJ/mol
# GULP energy per Si atom -5588.245780 kJ/mol
# Density = 2.443267 g / cm^3
# Si number density = 24.488404 Si / 1000 Ang^3
#
#
#
# Elastic Constant Matrix: (Units=GPa)
#
#
# Indices 1 2 3 4 5 6 
#
# 1 123.2216 61.0629 10.2844 0.0000 0.0000 0.0000
# 2 61.0629 151.7206 42.4275 0.0000 0.0000 0.0000
# 3 10.2844 42.4275 170.2946 0.0000 0.0000 0.0000
# 4 0.0000 0.0000 0.0000 37.3733 0.0000 0.0000
# 5 0.0000 0.0000 0.0000 0.0000 3.5340 0.0000
# 6 0.0000 0.0000 0.0000 0.0000 0.0000 -39.1059
#
#
#
# Elastic Compliance Matrix: (Units=1/GPa)
#
#
# Indices 1 2 3 4 5 6 
#
# 1 0.010167 -0.004214 0.000436 0.000000 0.000000 0.000000
# 2 -0.004214 0.008831 -0.001946 0.000000 0.000000 0.000000
# 3 0.000436 -0.001946 0.006331 0.000000 0.000000 0.000000
# 4 0.000000 0.000000 0.000000 0.026757 0.000000 0.000000
# 5 0.000000 0.000000 0.000000 0.000000 0.282966 0.000000
# 6 0.000000 0.000000 0.000000 0.000000 0.000000 -0.025572
#
#
# Mechanical properties :
#
#
# Convention : Reuss Voigt Hill
#
# Bulk Modulus (GPa) = 72.03844 74.75405 73.39624
# Shear Modulus (GPa) = 15.35835 22.45774 18.90804
#
# Velocity S-wave (km/s) = 2.50705 3.03161 2.78172
# Velocity P-wave (km/s) = 6.15318 6.54575 6.35250
#
# Compressibility (1/GPa) = 0.01388148
#
# Stress axis : x y z
#
# Youngs Moduli (GPa) = 98.35451 113.23566 157.96246
#
# Poissons Ratio (x) = 0.47716 -0.06885
# Poissons Ratio (y) = 0.41446 0.30735
# Poissons Ratio (z) = -0.04287 0.22033
#
# Static dielectric constant tensor:
#      x y z
#    x 1.947560 0.000000 0.000000 
#    y 0.000000 2.009900 0.000000 
#    z 0.000000 0.000000 1.974310 
# 
# From -- ./inp_files/56163.got.cif
#   From: 2010.05.17/outbox.cif.g08.bks.cpg/sg63_29_cif.got.tgz:56163.got - 2010.06.03 15:47:04.
