data_PCOD9475247
_publ_section_title
;
Structure prediction by ZEFSAII (Michael W. Deem and Ramdas Pophale) SiO2 
 PCOD9475247
Probable space group: C M C M
;
_chemical_formula_sum "Si O2"
_cell_formula_units_Z 80
_cell_length_a 25.854175
_cell_length_b 12.758017
_cell_length_c 11.206670
_cell_angle_alpha 90.000000
_cell_angle_beta 90.000000
_cell_angle_gamma 90.000000
_cell_volume 3696.497733
_symmetry_space_group_name_H-M "C M C M"
_symmetry_group_IT_number 63
_symmetry_cell_setting 'orthorhombic'
loop_
_space_group_symop_operation_xyz
x,y,z
-x,-y,1/2+z
x,-y,-z
-x,y,1/2-z
-x,-y,-z
x,y,1/2-z
-x,y,z
x,-y,1/2+z
1/2+x,1/2+y,z
1/2-x,1/2-y,1/2+z
1/2+x,1/2-y,-z
1/2-x,1/2+y,1/2-z
1/2-x,1/2-y,-z
1/2+x,1/2+y,1/2-z
1/2-x,1/2+y,z
1/2+x,1/2-y,1/2+z
loop_
_atom_site_type_symbol
_atom_site_label
_atom_site_fract_x
_atom_site_fract_y
_atom_site_fract_z
Si Si1 0.371340 0.742130 0.459673
Si Si2 0.560435 0.586888 0.891641
Si Si3 0.910916 0.456112 0.379221
Si Si4 0.808220 0.945896 0.622789
Si Si5 0.187912 0.608678 0.121587
O O1 0.404662 0.682513 0.560607
O O2 0.404311 0.831506 0.393604
O O3 0.342835 0.658085 0.378145
O O4 0.326466 0.809051 0.522078
O O5 0.571239 0.557428 0.750000
O O6 0.500000 0.616681 0.892652
O O7 0.565240 0.500000 0.000000
O O8 0.936265 0.500000 0.500000
O O9 0.934199 0.480992 0.250000
O O10 0.854151 0.514272 0.378932
O O11 0.815947 0.002006 0.750000
O O12 0.746900 0.926312 0.612953
O O13 0.823218 0.000000 0.500000
O O14 0.181651 0.661654 0.250000
#
# Coordination Sequence:
#
# PCOD9475247 Si02
#       5
#    16  16  16  16  16
#     4  11  20  33  58  85 111 144 188 235 282 334
#     4  10  23  43  65  88 114 145 183 231 286 341
#     4   9  18  33  53  78 110 148 190 231 277 329
#     4  11  23  36  51  77 115 153 192 233 275 325
#     4   9  19  35  54  80 114 153 190 229 276 327
#
# _framework density 21.642108
#
# number of rings (size 3 to 8) (size 9 to 14) (size 15 to 20)
#    0.000    2.000    0.000    4.200    0.000    5.600 
#    0.000    5.000    0.000    5.400    0.000    5.600 
#    0.000    0.000    0.000    0.000    0.000    0.000 
#
# Total GULP energy -222797.711359 kJ/mol
# GULP energy per Si atom -5569.942784 kJ/mol
# Density = 2.159285 g / cm^3
# Si number density = 21.642108 Si / 1000 Ang^3
#
#
#
# Elastic Constant Matrix: (Units=GPa)
#
#
# Indices 1 2 3 4 5 6 
#
# 1 92.3892 8.6395 14.0352 0.0000 0.0000 0.0000
# 2 8.6395 63.0511 45.6935 0.0000 0.0000 0.0000
# 3 14.0352 45.6935 221.5149 0.0000 0.0000 0.0000
# 4 0.0000 0.0000 0.0000 23.9230 0.0000 0.0000
# 5 0.0000 0.0000 0.0000 0.0000 -15.5096 0.0000
# 6 0.0000 0.0000 0.0000 0.0000 0.0000 -1.2029
#
#
#
# Elastic Compliance Matrix: (Units=1/GPa)
#
#
# Indices 1 2 3 4 5 6 
#
# 1 0.011003 -0.001179 -0.000454 0.000000 0.000000 0.000000
# 2 -0.001179 0.018774 -0.003798 0.000000 0.000000 0.000000
# 3 -0.000454 -0.003798 0.005327 0.000000 0.000000 0.000000
# 4 0.000000 0.000000 0.000000 0.041801 0.000000 0.000000
# 5 0.000000 0.000000 0.000000 0.000000 -0.064476 0.000000
# 6 0.000000 0.000000 0.000000 0.000000 0.000000 -0.831300
#
#
# Mechanical properties :
#
#
# Convention : Reuss Voigt Hill
#
# Bulk Modulus (GPa) = 41.25019 57.07684 49.16352
# Shear Modulus (GPa) = -6.25055 22.01456 7.88201
#
# Velocity S-wave (km/s) = -1.70130 3.19283 1.91047
# Velocity P-wave (km/s) = 3.90414 6.32634 5.25666
#
# Compressibility (1/GPa) = 0.02424231
#
# Stress axis : x y z
#
# Youngs Moduli (GPa) = 90.88457 53.26492 187.73785
#
# Poissons Ratio (x) = 0.06278 0.08524
# Poissons Ratio (y) = 0.10712 0.71303
# Poissons Ratio (z) = 0.04126 0.20230
#
# Static dielectric constant tensor:
#      x y z
#    x 1.751920 0.000000 0.000000 
#    y 0.000000 1.790590 0.000000 
#    z 0.000000 0.000000 1.834770 
# 
# From -- ./inp_files/25665.got.cif
#   From: 2010.05.17/outbox.cif.g08.bks.cpg/sg63_13_cif.got.tgz:25665.got - 2010.06.03 15:47:04.
