data_PCOD9475605
_publ_section_title
;
Structure prediction by ZEFSAII (Michael W. Deem and Ramdas Pophale) SiO2 
 PCOD9475605
Probable space group: C M C M
;
_chemical_formula_sum "Si O2"
_cell_formula_units_Z 96
_cell_length_a 7.406878
_cell_length_b 20.354119
_cell_length_c 24.869057
_cell_angle_alpha 90.000000
_cell_angle_beta 90.000000
_cell_angle_gamma 90.000000
_cell_volume 3749.270877
_symmetry_space_group_name_H-M "C M C M"
_symmetry_group_IT_number 63
_symmetry_cell_setting 'orthorhombic'
loop_
_space_group_symop_operation_xyz
x,y,z
-x,-y,1/2+z
x,-y,-z
-x,y,1/2-z
-x,-y,-z
x,y,1/2-z
-x,y,z
x,-y,1/2+z
1/2+x,1/2+y,z
1/2-x,1/2-y,1/2+z
1/2+x,1/2-y,-z
1/2-x,1/2+y,1/2-z
1/2-x,1/2-y,-z
1/2+x,1/2+y,1/2-z
1/2-x,1/2+y,z
1/2+x,1/2-y,1/2+z
loop_
_atom_site_type_symbol
_atom_site_label
_atom_site_fract_x
_atom_site_fract_y
_atom_site_fract_z
Si Si1 0.703652 0.370017 0.072450
Si Si2 0.779994 0.154824 0.808473
Si Si3 0.719035 0.796573 0.655857
Si Si4 0.781425 0.514403 0.079334
Si Si5 0.786158 0.658627 0.456567
Si Si6 0.719699 0.058926 0.192158
O O1 0.500000 0.348142 0.081009
O O2 0.787566 0.368522 0.132424
O O3 0.714906 0.446444 0.055549
O O4 0.760504 0.329296 0.019717
O O5 0.717050 0.128555 0.750000
O O6 0.730167 0.231948 0.812259
O O7 0.000000 0.148034 0.807842
O O8 0.500000 0.796847 0.656803
O O9 0.780239 0.796853 0.593173
O O10 0.774977 0.865761 0.681383
O O11 0.720041 0.584532 0.056642
O O12 0.723931 0.516225 0.141689
O O13 0.000000 0.513037 0.074802
O O14 0.000000 0.656814 0.449151
O O15 0.782928 0.036269 0.250000
O O16 0.500000 0.058601 0.191784
#
# Coordination Sequence:
#
# PCOD9475605 Si02
#       6
#    16  16  16  16  16  16
#     4  11  22  32  46  71 100 131 164 192 226 281
#     4   9  18  32  48  68  98 132 161 192 232 280
#     4   8  14  27  49  73  94 120 156 197 242 287
#     4   9  18  32  49  70  97 128 160 197 242 285
#     4   9  18  33  53  75  96 120 156 202 247 285
#     4   8  13  23  44  73  96 115 151 204 250 283
#
# _framework density 25.604977999999999
#
# number of rings (size 3 to 8) (size 9 to 14) (size 15 to 20)
#    0.000    3.000    0.000    3.500    0.000    6.000 
#    0.000    0.000    0.000    2.500    0.000    0.000 
#    0.000    6.667    0.000    0.000    0.000    0.000 
#
# Total GULP energy -267878.487613 kJ/mol
# GULP energy per Si atom -5580.801825 kJ/mol
# Density = 2.554670 g / cm^3
# Si number density = 25.604978 Si / 1000 Ang^3
#
#
#
# Elastic Constant Matrix: (Units=GPa)
#
#
# Indices 1 2 3 4 5 6 
#
# 1 75.1708 -10.5275 4.3305 0.0000 0.0000 0.0000
# 2 -10.5275 45.8752 14.5161 0.0000 0.0000 0.0000
# 3 4.3305 14.5161 206.9084 0.0000 0.0000 0.0000
# 4 0.0000 0.0000 0.0000 23.6304 0.0000 0.0000
# 5 0.0000 0.0000 0.0000 0.0000 11.8887 0.0000
# 6 0.0000 0.0000 0.0000 0.0000 0.0000 31.8073
#
#
#
# Elastic Compliance Matrix: (Units=1/GPa)
#
#
# Indices 1 2 3 4 5 6 
#
# 1 0.013800 0.003332 -0.000523 0.000000 0.000000 0.000000
# 2 0.003332 0.023098 -0.001690 0.000000 0.000000 0.000000
# 3 -0.000523 -0.001690 0.004963 0.000000 0.000000 0.000000
# 4 0.000000 0.000000 0.000000 0.042318 0.000000 0.000000
# 5 0.000000 0.000000 0.000000 0.000000 0.084114 0.000000
# 6 0.000000 0.000000 0.000000 0.000000 0.000000 0.031439
#
#
# Mechanical properties :
#
#
# Convention : Reuss Voigt Hill
#
# Bulk Modulus (GPa) = 22.67633 38.28806 30.48219
# Shear Modulus (GPa) = 23.56351 34.77430 29.16890
#
# Velocity S-wave (km/s) = 3.03689 3.68925 3.37885
# Velocity P-wave (km/s) = 4.60134 5.75615 5.21083
#
# Compressibility (1/GPa) = 0.04409884
#
# Stress axis : x y z
#
# Youngs Moduli (GPa) = 72.46475 43.29427 201.50834
#
# Poissons Ratio (x) = -0.14426 0.10531
# Poissons Ratio (y) = -0.24146 0.34059
# Poissons Ratio (z) = 0.03787 0.07318
#
# Static dielectric constant tensor:
#      x y z
#    x 1.994700 0.000000 0.000000 
#    y 0.000000 1.968150 0.000000 
#    z 0.000000 0.000000 2.083540 
# 
# From -- ./inp_files/59928.got.cif
#   From: 2010.05.17/outbox.cif.g08.bks.cpg/sg63_30_cif.got.tgz:59928.got - 2010.06.03 15:47:04.
