data_PCOD9475394
_publ_section_title
;
Structure prediction by ZEFSAII (Michael W. Deem and Ramdas Pophale) SiO2 
 PCOD9475394
Probable space group: C M C M
;
_chemical_formula_sum "Si O2"
_cell_formula_units_Z 100
_cell_length_a 20.115318
_cell_length_b 19.162602
_cell_length_c 15.222977
_cell_angle_alpha 90.000000
_cell_angle_beta 90.000000
_cell_angle_gamma 90.000000
_cell_volume 5867.876617
_symmetry_space_group_name_H-M "C M C M"
_symmetry_group_IT_number 63
_symmetry_cell_setting 'orthorhombic'
loop_
_space_group_symop_operation_xyz
x,y,z
-x,-y,1/2+z
x,-y,-z
-x,y,1/2-z
-x,-y,-z
x,y,1/2-z
-x,y,z
x,-y,1/2+z
1/2+x,1/2+y,z
1/2-x,1/2-y,1/2+z
1/2+x,1/2-y,-z
1/2-x,1/2+y,1/2-z
1/2-x,1/2-y,-z
1/2+x,1/2+y,1/2-z
1/2-x,1/2+y,z
1/2+x,1/2-y,1/2+z
loop_
_atom_site_type_symbol
_atom_site_label
_atom_site_fract_x
_atom_site_fract_y
_atom_site_fract_z
Si Si1 0.247379 0.639662 0.354161
Si Si2 0.078034 0.944949 0.750000
Si Si3 0.125106 0.731491 0.383907
Si Si4 0.176705 0.003006 0.398297
Si Si5 0.232220 0.147943 0.850314
Si Si6 0.922697 0.223628 0.250000
Si Si7 0.000000 0.270108 0.750000
Si Si8 0.842053 0.740166 0.579622
O O1 0.262406 0.648520 0.250000
O O2 0.171698 0.663849 0.366822
O O3 0.267448 0.562306 0.382583
O O4 0.293692 0.692482 0.409821
O O5 0.116139 0.975511 0.665338
O O6 0.084494 0.860881 0.750000
O O7 0.000000 0.962474 0.750000
O O8 0.171947 0.796898 0.357236
O O9 0.058989 0.730370 0.326848
O O10 0.118517 0.738703 0.488881
O O11 0.156803 0.000000 0.500000
O O12 0.205610 0.928119 0.372398
O O13 0.256474 0.150124 0.750000
O O14 0.291918 0.175019 0.911206
O O15 0.889084 0.254307 0.336629
O O16 0.000000 0.239331 0.250000
#
# Coordination Sequence:
#
# PCOD9475394 Si02
#       8
#    16   8  16  16  16   8   4  16
#     4  11  18  39  62  84 112 149 194 249 280 326
#     4  11  24  41  53  76 119 159 199 228 271 341
#     4  11  23  37  58  85 118 153 188 233 289 348
#     4  12  22  37  60  86 112 149 194 236 288 345
#     4  11  20  37  58  90 117 142 188 247 299 328
#     4  11  22  36  56  83 110 152 201 234 269 341
#     4  12  24  42  54  84 126 158 194 222 284 366
#     4  11  19  37  61  83 113 148 189 246 289 324
#
# _framework density 17.04194
#
# number of rings (size 3 to 8) (size 9 to 14) (size 15 to 20)
#    0.000    0.800    6.400    4.800    1.120    0.320 
#    2.880    0.000    0.000    0.000    4.160    1.680 
#    0.000    0.000    0.000    0.000    0.000    0.000 
#
# Total GULP energy -278714.141092 kJ/mol
# GULP energy per Si atom -5574.282822 kJ/mol
# Density = 1.700315 g / cm^3
# Si number density = 17.041940 Si / 1000 Ang^3
#
#
#
# Elastic Constant Matrix: (Units=GPa)
#
#
# Indices 1 2 3 4 5 6 
#
# 1 142.2945 53.0740 69.1103 0.0000 0.0000 0.0000
# 2 53.0740 89.6334 24.8025 0.0000 0.0000 0.0000
# 3 69.1103 24.8025 177.4470 0.0000 0.0000 0.0000
# 4 0.0000 0.0000 0.0000 18.4366 0.0000 0.0000
# 5 0.0000 0.0000 0.0000 0.0000 29.3493 0.0000
# 6 0.0000 0.0000 0.0000 0.0000 0.0000 15.3487
#
#
#
# Elastic Compliance Matrix: (Units=1/GPa)
#
#
# Indices 1 2 3 4 5 6 
#
# 1 0.010695 -0.005388 -0.003412 0.000000 0.000000 0.000000
# 2 -0.005388 0.014320 0.000097 0.000000 0.000000 0.000000
# 3 -0.003412 0.000097 0.006951 0.000000 0.000000 0.000000
# 4 0.000000 0.000000 0.000000 0.054240 0.000000 0.000000
# 5 0.000000 0.000000 0.000000 0.000000 0.034072 0.000000
# 6 0.000000 0.000000 0.000000 0.000000 0.000000 0.065152
#
#
# Mechanical properties :
#
#
# Convention : Reuss Voigt Hill
#
# Bulk Modulus (GPa) = 68.68675 78.14984 73.41830
# Shear Modulus (GPa) = 24.07434 30.11947 27.09691
#
# Velocity S-wave (km/s) = 3.76260 4.20857 3.99182
# Velocity P-wave (km/s) = 7.69859 8.34105 8.02625
#
# Compressibility (1/GPa) = 0.01455885
#
# Stress axis : x y z
#
# Youngs Moduli (GPa) = 93.50429 69.83086 143.86749
#
# Poissons Ratio (x) = 0.37628 0.49089
# Poissons Ratio (y) = 0.50384 -0.01396
# Poissons Ratio (z) = 0.31905 -0.00677
#
# Static dielectric constant tensor:
#      x y z
#    x 1.553230 0.000000 0.000000 
#    y 0.000000 1.568610 0.000000 
#    z 0.000000 0.000000 1.620570 
# 
# From -- ./inp_files/35677.got.cif
#   From: 2010.05.17/outbox.cif.g08.bks.cpg/sg63_18_cif.got.tgz:35677.got - 2010.06.03 15:47:04.
