data_PCOD9475477
_publ_section_title
;
Structure prediction by ZEFSAII (Michael W. Deem and Ramdas Pophale) SiO2 
 PCOD9475477
Probable space group: C M C M
;
_chemical_formula_sum "Si O2"
_cell_formula_units_Z 96
_cell_length_a 19.453211
_cell_length_b 16.727381
_cell_length_c 15.880101
_cell_angle_alpha 90.000000
_cell_angle_beta 90.000000
_cell_angle_gamma 90.000000
_cell_volume 5167.405066
_symmetry_space_group_name_H-M "C M C M"
_symmetry_group_IT_number 63
_symmetry_cell_setting 'orthorhombic'
loop_
_space_group_symop_operation_xyz
x,y,z
-x,-y,1/2+z
x,-y,-z
-x,y,1/2-z
-x,-y,-z
x,y,1/2-z
-x,y,z
x,-y,1/2+z
1/2+x,1/2+y,z
1/2-x,1/2-y,1/2+z
1/2+x,1/2-y,-z
1/2-x,1/2+y,1/2-z
1/2-x,1/2-y,-z
1/2+x,1/2+y,1/2-z
1/2-x,1/2+y,z
1/2+x,1/2-y,1/2+z
loop_
_atom_site_type_symbol
_atom_site_label
_atom_site_fract_x
_atom_site_fract_y
_atom_site_fract_z
Si Si1 0.862446 0.831499 0.887353
Si Si2 0.919617 0.665740 0.656589
Si Si3 0.202288 0.688561 0.344573
Si Si4 0.579192 0.492814 0.149589
Si Si5 0.175245 0.406073 0.011692
Si Si6 0.173975 0.854586 0.425955
O O1 0.907788 0.761023 0.849385
O O2 0.784745 0.822363 0.853180
O O3 0.891354 0.919276 0.869491
O O4 0.858040 0.820655 0.987848
O O5 0.895803 0.639492 0.750000
O O6 0.876955 0.627312 0.581033
O O7 0.000000 0.647784 0.648635
O O8 0.181337 0.665523 0.250000
O O9 0.170426 0.637425 0.421043
O O10 0.184537 0.781197 0.362397
O O11 0.580454 0.481555 0.250000
O O12 0.500000 0.486999 0.120603
O O13 0.626653 0.425468 0.108031
O O14 0.251522 0.387945 0.047386
O O15 0.166532 0.500000 0.000000
#
# Coordination Sequence:
#
# PCOD9475477 Si02
#       6
#    16  16  16  16  16  16
#     4  11  20  38  61  88 121 160 207 256 307 366
#     4  11  23  39  62  90 119 157 205 257 314 369
#     4  11  21  38  64  93 123 162 209 257 308 368
#     4  11  24  38  56  90 131 170 210 251 306 376
#     4  11  23  41  63  91 123 156 207 260 313 369
#     4  11  21  39  61  89 124 164 206 253 303 373
#
# _framework density 18.57799
#
# number of rings (size 3 to 8) (size 9 to 14) (size 15 to 20)
#    0.000    1.000    3.333    6.000    0.000    5.000 
#    0.000    0.000    0.000    0.500    0.000    0.000 
#    0.000    0.000    0.000    0.000    0.000    0.000 
#
# Total GULP energy -268280.042629 kJ/mol
# GULP energy per Si atom -5589.167555 kJ/mol
# Density = 1.853571 g / cm^3
# Si number density = 18.577990 Si / 1000 Ang^3
#
#
#
# Elastic Constant Matrix: (Units=GPa)
#
#
# Indices 1 2 3 4 5 6 
#
# 1 72.2756 39.7287 57.9033 0.0000 0.0000 0.0000
# 2 39.7287 127.0814 52.9849 0.0000 0.0000 0.0000
# 3 57.9033 52.9849 149.6110 0.0000 0.0000 0.0000
# 4 0.0000 0.0000 0.0000 -19.4060 0.0000 0.0000
# 5 0.0000 0.0000 0.0000 0.0000 30.6047 0.0000
# 6 0.0000 0.0000 0.0000 0.0000 0.0000 8.5702
#
#
#
# Elastic Compliance Matrix: (Units=1/GPa)
#
#
# Indices 1 2 3 4 5 6 
#
# 1 0.021527 -0.003820 -0.006978 0.000000 0.000000 0.000000
# 2 -0.003820 0.009910 -0.002031 0.000000 0.000000 0.000000
# 3 -0.006978 -0.002031 0.010104 0.000000 0.000000 0.000000
# 4 0.000000 0.000000 0.000000 -0.051530 0.000000 0.000000
# 5 0.000000 0.000000 0.000000 0.000000 0.032675 0.000000
# 6 0.000000 0.000000 0.000000 0.000000 0.000000 0.116684
#
#
# Mechanical properties :
#
#
# Convention : Reuss Voigt Hill
#
# Bulk Modulus (GPa) = 62.96705 72.24466 67.60586
# Shear Modulus (GPa) = 29.35617 17.17718 23.26667
#
# Velocity S-wave (km/s) = 3.97943 3.04402 3.54274
# Velocity P-wave (km/s) = 7.42169 7.16424 7.29410
#
# Compressibility (1/GPa) = 0.01588132
#
# Stress axis : x y z
#
# Youngs Moduli (GPa) = 46.45435 100.90697 98.96913
#
# Poissons Ratio (x) = 0.38548 0.69065
# Poissons Ratio (y) = 0.17746 0.20102
# Poissons Ratio (z) = 0.32418 0.20496
#
# Static dielectric constant tensor:
#      x y z
#    x 1.620390 0.000000 0.000000 
#    y 0.000000 1.618960 0.000000 
#    z 0.000000 0.000000 1.660550 
# 
# From -- ./inp_files/35336.got.cif
#   From: 2010.05.17/outbox.cif.g08.bks.cpg/sg63_18_cif.got.tgz:35336.got - 2010.06.03 15:47:04.
