data_PCOD9475700
_publ_section_title
;
Structure prediction by ZEFSAII (Michael W. Deem and Ramdas Pophale) SiO2 
 PCOD9475700
Probable space group: C M C M
;
_chemical_formula_sum "Si O2"
_cell_formula_units_Z 52
_cell_length_a 17.323858
_cell_length_b 17.543767
_cell_length_c 7.533992
_cell_angle_alpha 90.000000
_cell_angle_beta 90.000000
_cell_angle_gamma 90.000000
_cell_volume 2289.774006
_symmetry_space_group_name_H-M "C M C M"
_symmetry_group_IT_number 63
_symmetry_cell_setting 'orthorhombic'
loop_
_space_group_symop_operation_xyz
x,y,z
-x,-y,1/2+z
x,-y,-z
-x,y,1/2-z
-x,-y,-z
x,y,1/2-z
-x,y,z
x,-y,1/2+z
1/2+x,1/2+y,z
1/2-x,1/2-y,1/2+z
1/2+x,1/2-y,-z
1/2-x,1/2+y,1/2-z
1/2-x,1/2-y,-z
1/2+x,1/2+y,1/2-z
1/2-x,1/2+y,z
1/2+x,1/2-y,1/2+z
loop_
_atom_site_type_symbol
_atom_site_label
_atom_site_fract_x
_atom_site_fract_y
_atom_site_fract_z
Si Si1 0.882589 0.887059 0.547102
Si Si2 0.292346 0.084467 0.961451
Si Si3 0.500000 0.439831 0.250000
Si Si4 0.912928 0.289752 0.464817
O O1 0.911070 0.897340 0.750000
O O2 0.792916 0.908272 0.540772
O O3 0.890811 0.797474 0.497746
O O4 0.932943 0.930750 0.404547
O O5 0.284048 0.093566 0.750000
O O6 0.350033 0.149803 0.028726
O O7 0.323135 0.000000 0.000000
O O8 0.914541 0.295966 0.250000
O O9 0.000000 0.304015 0.529404
#
# Coordination Sequence:
#
# PCOD9475700 Si02
#       4
#    16  16   4  16
#     4  11  22  42  68  96 130 166 211 269 321 377
#     4  11  23  41  62  91 132 175 216 262 317 385
#     4  12  22  40  70  98 130 160 218 262 324 382
#     4   9  19  38  66  95 128 166 214 268 318 374
#
# _framework density 22.709665000000001
#
# number of rings (size 3 to 8) (size 9 to 14) (size 15 to 20)
#    0.000    1.538    3.077    2.308    0.000    0.615 
#    5.538    0.769    0.000    0.000    0.000    0.000 
#    0.000    0.000    0.000    0.000    0.000    0.000 
#
# Total GULP energy -145105.988296 kJ/mol
# GULP energy per Si atom -5580.999550 kJ/mol
# Density = 2.265798 g / cm^3
# Si number density = 22.709665 Si / 1000 Ang^3
#
#
#
# Elastic Constant Matrix: (Units=GPa)
#
#
# Indices 1 2 3 4 5 6 
#
# 1 97.1537 72.9169 27.5119 0.0000 0.0000 0.0000
# 2 72.9169 125.1191 47.2120 0.0000 0.0000 0.0000
# 3 27.5119 47.2120 131.9619 0.0000 0.0000 0.0000
# 4 0.0000 0.0000 0.0000 17.9777 0.0000 0.0000
# 5 0.0000 0.0000 0.0000 0.0000 77.0265 0.0000
# 6 0.0000 0.0000 0.0000 0.0000 0.0000-2417.3143
#
#
#
# Elastic Compliance Matrix: (Units=1/GPa)
#
#
# Indices 1 2 3 4 5 6 
#
# 1 0.018295 -0.010662 0.000000 0.000000 0.000000 0.000000
# 2 -0.010662 0.015454 -0.003306 0.000000 0.000000 0.000000
# 3 0.000000 -0.003306 0.008761 0.000000 0.000000 0.000000
# 4 0.000000 0.000000 0.000000 0.055625 0.000000 0.000000
# 5 0.000000 0.000000 0.000000 0.000000 0.012983 0.000000
# 6 0.000000 0.000000 0.000000 0.000000 0.000000 -0.000414
#
#
# Mechanical properties :
#
#
# Convention : Reuss Voigt Hill
#
# Bulk Modulus (GPa) = 68.61608 72.16850 70.39229
# Shear Modulus (GPa) = 34.84410 -450.68912 -207.92251
#
# Velocity S-wave (km/s) = 3.92130 -14.10276 -9.57891
# Velocity P-wave (km/s) = 7.12616 15.27534 9.55389
#
# Compressibility (1/GPa) = 0.01457384
#
# Stress axis : x y z
#
# Youngs Moduli (GPa) = 54.65918 64.71003 114.14711
#
# Poissons Ratio (x) = 0.68995 -0.00004
# Poissons Ratio (y) = 0.58279 0.37736
# Poissons Ratio (z) = -0.00002 0.21393
#
# Static dielectric constant tensor:
#      x y z
#    x 1.785930 0.000000 0.000000 
#    y 0.000000 1.869940 0.000000 
#    z 0.000000 0.000000 1.854710 
# 
# From -- ./inp_files/3885.got.cif
#   From: 2010.05.17/outbox.cif.g08.bks.cpg/sg63_2_cif.got.tgz:3885.got - 2010.06.03 15:47:04.
