data_PCOD9475525
_publ_section_title
;
Structure prediction by ZEFSAII (Michael W. Deem and Ramdas Pophale) SiO2 
 PCOD9475525
Probable space group: C M C M
;
_chemical_formula_sum "Si O2"
_cell_formula_units_Z 96
_cell_length_a 7.903478
_cell_length_b 26.203698
_cell_length_c 24.435570
_cell_angle_alpha 90.000000
_cell_angle_beta 90.000000
_cell_angle_gamma 90.000000
_cell_volume 5060.615116
_symmetry_space_group_name_H-M "C M C M"
_symmetry_group_IT_number 63
_symmetry_cell_setting 'orthorhombic'
loop_
_space_group_symop_operation_xyz
x,y,z
-x,-y,1/2+z
x,-y,-z
-x,y,1/2-z
-x,-y,-z
x,y,1/2-z
-x,y,z
x,-y,1/2+z
1/2+x,1/2+y,z
1/2-x,1/2-y,1/2+z
1/2+x,1/2-y,-z
1/2-x,1/2+y,1/2-z
1/2-x,1/2-y,-z
1/2+x,1/2+y,1/2-z
1/2-x,1/2+y,z
1/2+x,1/2-y,1/2+z
loop_
_atom_site_type_symbol
_atom_site_label
_atom_site_fract_x
_atom_site_fract_y
_atom_site_fract_z
Si Si1 0.207333 0.350519 0.619840
Si Si2 0.299651 0.656929 0.886687
Si Si3 0.204236 0.563151 0.687891
Si Si4 0.199131 0.690785 0.004818
Si Si5 0.706843 0.750668 0.687449
Si Si6 0.206470 0.447031 0.687369
O O1 0.270174 0.336419 0.559142
O O2 0.255120 0.304000 0.659763
O O3 0.264968 0.404130 0.645146
O O4 0.000000 0.352176 0.619205
O O5 0.500000 0.663443 0.889383
O O6 0.260907 0.604467 0.855928
O O7 0.236618 0.662054 0.948448
O O8 0.232145 0.703755 0.849767
O O9 0.261062 0.576324 0.750000
O O10 0.260367 0.505158 0.675735
O O11 0.000000 0.563006 0.688502
O O12 0.000000 0.691441 0.012728
O O13 0.250000 0.750000 0.000000
O O14 0.763814 0.746324 0.750000
O O15 0.500000 0.749288 0.687995
O O16 0.255547 0.434460 0.750000
O O17 0.000000 0.447045 0.686531
#
# Coordination Sequence:
#
# PCOD9475525 Si02
#       6
#    16  16  16  16  16  16
#     4   9  16  28  48  75 102 129 168 213 260 310
#     4  11  21  34  51  75 104 140 182 215 251 304
#     4   9  18  33  53  79 108 135 165 207 263 317
#     4  11  21  35  53  75 104 140 177 217 264 315
#     4   9  16  26  44  73 103 125 157 210 260 302
#     4   8  14  27  50  78 105 131 162 208 264 314
#
# _framework density 18.970027000000002
#
# number of rings (size 3 to 8) (size 9 to 14) (size 15 to 20)
#    0.000    2.500    1.667    3.000    0.000    3.000 
#    0.000    0.833    0.000    7.000    0.000    0.000 
#    0.000    0.000    0.000    0.000    0.000    0.000 
#
# Total GULP energy -267818.621778 kJ/mol
# GULP energy per Si atom -5579.554620 kJ/mol
# Density = 1.892685 g / cm^3
# Si number density = 18.970027 Si / 1000 Ang^3
#
#
#
# Elastic Constant Matrix: (Units=GPa)
#
#
# Indices 1 2 3 4 5 6 
#
# 1 14.7830 -10.0351 -10.1012 0.0000 0.0000 0.0000
# 2 -10.0351 88.7502 42.1615 0.0000 0.0000 0.0000
# 3 -10.1012 42.1615 103.1284 0.0000 0.0000 0.0000
# 4 0.0000 0.0000 0.0000 16.5319 0.0000 0.0000
# 5 0.0000 0.0000 0.0000 0.0000 14.9442 0.0000
# 6 0.0000 0.0000 0.0000 0.0000 0.0000 16.8037
#
#
#
# Elastic Compliance Matrix: (Units=1/GPa)
#
#
# Indices 1 2 3 4 5 6 
#
# 1 0.075154 0.006206 0.004824 0.000000 0.000000 0.000000
# 2 0.006206 0.014496 -0.005318 0.000000 0.000000 0.000000
# 3 0.004824 -0.005318 0.012343 0.000000 0.000000 0.000000
# 4 0.000000 0.000000 0.000000 0.060489 0.000000 0.000000
# 5 0.000000 0.000000 0.000000 0.000000 0.066916 0.000000
# 6 0.000000 0.000000 0.000000 0.000000 0.000000 0.059511
#
#
# Mechanical properties :
#
#
# Convention : Reuss Voigt Hill
#
# Bulk Modulus (GPa) = 8.81702 27.85688 18.33695
# Shear Modulus (GPa) = 15.85834 21.96504 18.91169
#
# Velocity S-wave (km/s) = 2.89445 3.40646 3.16084
# Velocity P-wave (km/s) = 3.97849 5.49441 4.79671
#
# Compressibility (1/GPa) = 0.11341701
#
# Stress axis : x y z
#
# Youngs Moduli (GPa) = 13.30597 68.98525 81.01462
#
# Poissons Ratio (x) = -0.42813 -0.39082
# Poissons Ratio (y) = -0.08258 0.43087
# Poissons Ratio (z) = -0.06419 0.36689
#
# Static dielectric constant tensor:
#      x y z
#    x 1.714370 0.000000 0.000000 
#    y 0.000000 1.638290 0.000000 
#    z 0.000000 0.000000 1.655770 
# 
# From -- ./inp_files/51333.got.cif
#   From: 2010.05.17/outbox.cif.g08.bks.cpg/sg63_26_cif.got.tgz:51333.got - 2010.06.03 15:47:04.
