data_PCOD9475177
_publ_section_title
;
Structure prediction by ZEFSAII (Michael W. Deem and Ramdas Pophale) SiO2 
 PCOD9475177
Probable space group: C M C M
;
_chemical_formula_sum "Si O2"
_cell_formula_units_Z 80
_cell_length_a 12.191546
_cell_length_b 13.963915
_cell_length_c 28.375665
_cell_angle_alpha 90.000000
_cell_angle_beta 90.000000
_cell_angle_gamma 90.000000
_cell_volume 4830.721791
_symmetry_space_group_name_H-M "C M C M"
_symmetry_group_IT_number 63
_symmetry_cell_setting 'orthorhombic'
loop_
_space_group_symop_operation_xyz
x,y,z
-x,-y,1/2+z
x,-y,-z
-x,y,1/2-z
-x,-y,-z
x,y,1/2-z
-x,y,z
x,-y,1/2+z
1/2+x,1/2+y,z
1/2-x,1/2-y,1/2+z
1/2+x,1/2-y,-z
1/2-x,1/2+y,1/2-z
1/2-x,1/2-y,-z
1/2+x,1/2+y,1/2-z
1/2-x,1/2+y,z
1/2+x,1/2-y,1/2+z
loop_
_atom_site_type_symbol
_atom_site_label
_atom_site_fract_x
_atom_site_fract_y
_atom_site_fract_z
Si Si1 0.773473 0.228949 0.054424
Si Si2 0.228670 0.099342 0.622602
Si Si3 0.000000 0.073003 0.569875
Si Si4 0.000000 0.138956 0.468515
Si Si5 0.130789 0.594828 0.119816
Si Si6 0.629707 0.737787 0.805120
O O1 0.777368 0.324566 0.085545
O O2 0.684773 0.156515 0.077311
O O3 0.892230 0.182353 0.054016
O O4 0.750000 0.250000 0.000000
O O5 0.108450 0.079879 0.600939
O O6 0.204629 0.156141 0.671034
O O7 0.302598 0.004372 0.625579
O O8 0.000000 0.147324 0.525807
O O9 0.000000 0.970962 0.545538
O O10 0.144948 0.664417 0.165169
O O11 0.000000 0.579663 0.112837
O O12 0.652771 0.750140 0.750000
O O13 0.500000 0.712523 0.810223
#
# Coordination Sequence:
#
# PCOD9475177 Si02
#       6
#    16  16   8   8  16  16
#     4  11  23  35  55  80 113 151 188 230 277 321
#     4  11  21  37  58  84 111 147 184 231 279 329
#     4  11  20  36  57  79 111 149 193 230 275 324
#     4  11  22  36  54  78 114 152 193 230 273 327
#     4  10  23  39  54  82 117 148 185 229 278 333
#     4   9  19  37  62  85 106 139 182 229 281 337
#
# _framework density 16.560672
#
# number of rings (size 3 to 8) (size 9 to 14) (size 15 to 20)
#    0.000    1.600    5.000    0.000    4.200    1.600 
#    0.000    1.000    0.000    0.000    0.000    0.000 
#    0.000    0.000    0.000    0.000    0.000    0.000 
#
# Total GULP energy -223027.232211 kJ/mol
# GULP energy per Si atom -5575.680805 kJ/mol
# Density = 1.652298 g / cm^3
# Si number density = 16.560672 Si / 1000 Ang^3
#
#
#
# Elastic Constant Matrix: (Units=GPa)
#
#
# Indices 1 2 3 4 5 6 
#
# 1 122.0354 68.9463 61.4269 0.0000 0.0000 0.0000
# 2 68.9463 127.2060 66.8366 0.0000 0.0000 0.0000
# 3 61.4269 66.8366 136.4529 0.0000 0.0000 0.0000
# 4 0.0000 0.0000 0.0000 13.5746 0.0000 0.0000
# 5 0.0000 0.0000 0.0000 0.0000 22.2515 0.0000
# 6 0.0000 0.0000 0.0000 0.0000 0.0000 21.8519
#
#
#
# Elastic Compliance Matrix: (Units=1/GPa)
#
#
# Indices 1 2 3 4 5 6 
#
# 1 0.012755 -0.005247 -0.003172 0.000000 0.000000 0.000000
# 2 -0.005247 0.012744 -0.003880 0.000000 0.000000 0.000000
# 3 -0.003172 -0.003880 0.010657 0.000000 0.000000 0.000000
# 4 0.000000 0.000000 0.000000 0.073667 0.000000 0.000000
# 5 0.000000 0.000000 0.000000 0.000000 0.044941 0.000000
# 6 0.000000 0.000000 0.000000 0.000000 0.000000 0.045763
#
#
# Mechanical properties :
#
#
# Convention : Reuss Voigt Hill
#
# Bulk Modulus (GPa) = 86.51938 86.67934 86.59936
# Shear Modulus (GPa) = 21.83622 24.10123 22.96872
#
# Velocity S-wave (km/s) = 3.63514 3.81902 3.72821
# Velocity P-wave (km/s) = 8.36518 8.47942 8.42250
#
# Compressibility (1/GPa) = 0.01155810
#
# Stress axis : x y z
#
# Youngs Moduli (GPa) = 78.39892 78.46996 93.83444
#
# Poissons Ratio (x) = 0.41171 0.29765
# Poissons Ratio (y) = 0.41134 0.36409
# Poissons Ratio (z) = 0.24869 0.30447
#
# Static dielectric constant tensor:
#      x y z
#    x 1.547030 0.000000 0.000000 
#    y 0.000000 1.563300 0.000000 
#    z 0.000000 0.000000 1.557140 
# 
# From -- ./inp_files/68123.got.cif
#   From: 2010.05.17/outbox.cif.g08.bks.cpg/sg63_35_cif.got.tgz:68123.got - 2010.06.03 15:47:04.
