data_PCOD9475895
_publ_section_title
;
Structure prediction by ZEFSAII (Michael W. Deem and Ramdas Pophale) SiO2 
 PCOD9475895
Probable space group: C M C M
;
_chemical_formula_sum "Si O2"
_cell_formula_units_Z 68
_cell_length_a 15.229771
_cell_length_b 11.514858
_cell_length_c 15.731339
_cell_angle_alpha 90.000000
_cell_angle_beta 90.000000
_cell_angle_gamma 90.000000
_cell_volume 2758.783690
_symmetry_space_group_name_H-M "C M C M"
_symmetry_group_IT_number 63
_symmetry_cell_setting 'orthorhombic'
loop_
_space_group_symop_operation_xyz
x,y,z
-x,-y,1/2+z
x,-y,-z
-x,y,1/2-z
-x,-y,-z
x,y,1/2-z
-x,y,z
x,-y,1/2+z
1/2+x,1/2+y,z
1/2-x,1/2-y,1/2+z
1/2+x,1/2-y,-z
1/2-x,1/2+y,1/2-z
1/2-x,1/2-y,-z
1/2+x,1/2+y,1/2-z
1/2-x,1/2+y,z
1/2+x,1/2-y,1/2+z
loop_
_atom_site_type_symbol
_atom_site_label
_atom_site_fract_x
_atom_site_fract_y
_atom_site_fract_z
Si Si1 0.404393 0.173574 0.928278
Si Si2 0.403364 0.914643 0.622389
Si Si3 0.596390 0.447447 0.093489
Si Si4 0.500000 0.454274 0.750000
Si Si5 0.261172 0.262264 0.155369
O O1 0.500000 0.225534 0.909077
O O2 0.321743 0.250569 0.905760
O O3 0.395815 0.053214 0.876324
O O4 0.402937 0.130119 0.024898
O O5 0.500000 0.883754 0.656703
O O6 0.320415 0.851803 0.660444
O O7 0.500000 0.384461 0.085956
O O8 0.673599 0.361041 0.119380
O O9 0.612499 0.500000 0.000000
O O10 0.575717 0.468580 0.673541
O O11 0.230923 0.292942 0.250000
#
# Coordination Sequence:
#
# PCOD9475895 Si02
#       5
#    16  16  16   4  16
#     4   9  21  42  63  92 128 167 211 262 326 392
#     4   9  20  40  67  92 119 163 218 267 320 389
#     4   9  18  32  53  86 127 169 209 267 330 376
#     4   8  14  36  52  78 134 166 216 262 324 392
#     4  12  22  35  63  97 128 164 217 272 319 382
#
# _framework density 24.648544999999999
#
# number of rings (size 3 to 8) (size 9 to 14) (size 15 to 20)
#    0.706    1.647    1.176    2.824    3.294    2.824 
#    0.000    2.353    0.000    1.412    0.000    3.294 
#    0.000    0.000    0.000    0.000    0.000    0.000 
#
# Total GULP energy -189555.095134 kJ/mol
# GULP energy per Si atom -5575.149857 kJ/mol
# Density = 2.459244 g / cm^3
# Si number density = 24.648545 Si / 1000 Ang^3
#
#
#
# Elastic Constant Matrix: (Units=GPa)
#
#
# Indices 1 2 3 4 5 6 
#
# 1 139.8425 23.7241 31.6424 0.0000 0.0000 0.0000
# 2 23.7241 45.9625 28.4294 0.0000 0.0000 0.0000
# 3 31.6424 28.4294 141.3479 0.0000 0.0000 0.0000
# 4 0.0000 0.0000 0.0000 11.2213 0.0000 0.0000
# 5 0.0000 0.0000 0.0000 0.0000 36.8988 0.0000
# 6 0.0000 0.0000 0.0000 0.0000 0.0000 18.7752
#
#
#
# Elastic Compliance Matrix: (Units=1/GPa)
#
#
# Indices 1 2 3 4 5 6 
#
# 1 0.007983 -0.003443 -0.001094 0.000000 0.000000 0.000000
# 2 -0.003443 0.026334 -0.004526 0.000000 0.000000 0.000000
# 3 -0.001094 -0.004526 0.008230 0.000000 0.000000 0.000000
# 4 0.000000 0.000000 0.000000 0.089116 0.000000 0.000000
# 5 0.000000 0.000000 0.000000 0.000000 0.027101 0.000000
# 6 0.000000 0.000000 0.000000 0.000000 0.000000 0.053262
#
#
# Mechanical properties :
#
#
# Convention : Reuss Voigt Hill
#
# Bulk Modulus (GPa) = 40.95133 54.97160 47.96147
# Shear Modulus (GPa) = 20.98268 29.60287 25.29277
#
# Velocity S-wave (km/s) = 2.92083 3.46930 3.20681
# Velocity P-wave (km/s) = 5.29388 6.19667 5.76298
#
# Compressibility (1/GPa) = 0.02441923
#
# Stress axis : x y z
#
# Youngs Moduli (GPa) = 125.27064 37.97443 121.50687
#
# Poissons Ratio (x) = 0.13076 0.13298
# Poissons Ratio (y) = 0.43136 0.54989
# Poissons Ratio (z) = 0.13710 0.17186
#
# Static dielectric constant tensor:
#      x y z
#    x 1.931080 0.000000 0.000000 
#    y 0.000000 1.992890 0.000000 
#    z 0.000000 0.000000 1.986440 
# 
# From -- ./inp_files/53815.got.cif
#   From: 2010.05.17/outbox.cif.g08.bks.cpg/sg63_27_cif.got.tgz:53815.got - 2010.06.03 15:47:04.
