data_PCOD9475264
_publ_section_title
;
Structure prediction by ZEFSAII (Michael W. Deem and Ramdas Pophale) SiO2 
 PCOD9475264
Probable space group: C M C M
;
_chemical_formula_sum "Si O2"
_cell_formula_units_Z 44
_cell_length_a 11.012953
_cell_length_b 20.097307
_cell_length_c 9.391126
_cell_angle_alpha 90.000000
_cell_angle_beta 90.000000
_cell_angle_gamma 90.000000
_cell_volume 2078.544467
_symmetry_space_group_name_H-M "C M C M"
_symmetry_group_IT_number 63
_symmetry_cell_setting 'orthorhombic'
loop_
_space_group_symop_operation_xyz
x,y,z
-x,-y,1/2+z
x,-y,-z
-x,y,1/2-z
-x,-y,-z
x,y,1/2-z
-x,y,z
x,-y,1/2+z
1/2+x,1/2+y,z
1/2-x,1/2-y,1/2+z
1/2+x,1/2-y,-z
1/2-x,1/2+y,1/2-z
1/2-x,1/2-y,-z
1/2+x,1/2+y,1/2-z
1/2-x,1/2+y,z
1/2+x,1/2-y,1/2+z
loop_
_atom_site_type_symbol
_atom_site_label
_atom_site_fract_x
_atom_site_fract_y
_atom_site_fract_z
Si Si1 0.250892 0.319159 0.084009
Si Si2 0.000000 0.975112 0.750000
Si Si3 0.500000 0.397387 0.040113
Si Si4 0.855421 0.562312 0.410816
O O1 0.215840 0.311617 0.250000
O O2 0.382483 0.353364 0.076128
O O3 0.250000 0.250000 0.000000
O O4 0.167191 0.371246 0.998747
O O5 0.000000 0.035475 0.869372
O O6 0.000000 0.918490 0.623905
O O7 0.804036 0.500000 0.500000
O O8 0.803186 0.563759 0.250000
O O9 0.000000 0.552635 0.398052
#
# Coordination Sequence:
#
# PCOD9475264 Si02
#       4
#    16   4   8  16
#     4  12  27  45  68  97 138 181 225 280 339 409
#     4  10  24  46  76 102 138 174 222 298 340 420
#     4  11  26  46  72 106 137 178 228 284 353 400
#     4  10  23  43  68  98 133 175 224 274 327 392
#
# _framework density 21.168661
#
# number of rings (size 3 to 8) (size 9 to 14) (size 15 to 20)
#    0.000    1.091    1.818    2.182   12.727    2.182 
#    0.000    0.000    0.000    0.000    0.000    0.000 
#    0.000    0.000    0.000    0.000    0.000    0.000 
#
# Total GULP energy -122559.167285 kJ/mol
# GULP energy per Si atom -5570.871240 kJ/mol
# Density = 2.112048 g / cm^3
# Si number density = 21.168661 Si / 1000 Ang^3
#
#
#
# Elastic Constant Matrix: (Units=GPa)
#
#
# Indices 1 2 3 4 5 6 
#
# 1 29.2073 -7.2090 5.0605 0.0000 0.0000 0.0000
# 2 -7.2090 173.1753 104.6894 0.0000 0.0000 0.0000
# 3 5.0605 104.6894 290.5985 0.0000 0.0000 0.0000
# 4 0.0000 0.0000 0.0000 50.2448 0.0000 0.0000
# 5 0.0000 0.0000 0.0000 0.0000 14.4620 0.0000
# 6 0.0000 0.0000 0.0000 0.0000 0.0000 24.2474
#
#
#
# Elastic Compliance Matrix: (Units=1/GPa)
#
#
# Indices 1 2 3 4 5 6 
#
# 1 0.035067 0.002338 -0.001453 0.000000 0.000000 0.000000
# 2 0.002338 0.007538 -0.002756 0.000000 0.000000 0.000000
# 3 -0.001453 -0.002756 0.004459 0.000000 0.000000 0.000000
# 4 0.000000 0.000000 0.000000 0.019903 0.000000 0.000000
# 5 0.000000 0.000000 0.000000 0.000000 0.069147 0.000000
# 6 0.000000 0.000000 0.000000 0.000000 0.000000 0.041241
#
#
# Mechanical properties :
#
#
# Convention : Reuss Voigt Hill
#
# Bulk Modulus (GPa) = 23.08293 77.56257 50.32275
# Shear Modulus (GPa) = 25.57046 43.82020 34.69533
#
# Velocity S-wave (km/s) = 3.47931 4.55472 4.05284
# Velocity P-wave (km/s) = 5.20277 8.02374 6.76200
#
# Compressibility (1/GPa) = 0.04332205
#
# Stress axis : x y z
#
# Youngs Moduli (GPa) = 28.51695 132.65891 224.24194
#
# Poissons Ratio (x) = -0.31018 0.32582
# Poissons Ratio (y) = -0.06668 0.61809
# Poissons Ratio (z) = 0.04143 0.36566
#
# Static dielectric constant tensor:
#      x y z
#    x 1.419390 0.000000 0.000000 
#    y 0.000000 1.692780 0.000000 
#    z 0.000000 0.000000 1.774100 
# 
# From -- ./inp_files/3659.got.cif
#   From: 2010.05.17/outbox.cif.g08.bks.cpg/sg63_2_cif.got.tgz:3659.got - 2010.06.03 15:47:04.
