data_PCOD9475672
_publ_section_title
;
Structure prediction by ZEFSAII (Michael W. Deem and Ramdas Pophale) SiO2 
 PCOD9475672
Probable space group: C M C M
;
_chemical_formula_sum "Si O2"
_cell_formula_units_Z 52
_cell_length_a 7.546935
_cell_length_b 16.137387
_cell_length_c 19.020005
_cell_angle_alpha 90.000000
_cell_angle_beta 90.000000
_cell_angle_gamma 90.000000
_cell_volume 2316.404770
_symmetry_space_group_name_H-M "C M C M"
_symmetry_group_IT_number 63
_symmetry_cell_setting 'orthorhombic'
loop_
_space_group_symop_operation_xyz
x,y,z
-x,-y,1/2+z
x,-y,-z
-x,y,1/2-z
-x,-y,-z
x,y,1/2-z
-x,y,z
x,-y,1/2+z
1/2+x,1/2+y,z
1/2-x,1/2-y,1/2+z
1/2+x,1/2-y,-z
1/2-x,1/2+y,1/2-z
1/2-x,1/2-y,-z
1/2+x,1/2+y,1/2-z
1/2-x,1/2+y,z
1/2+x,1/2-y,1/2+z
loop_
_atom_site_type_symbol
_atom_site_label
_atom_site_fract_x
_atom_site_fract_y
_atom_site_fract_z
Si Si1 0.295667 0.574817 0.415414
Si Si2 0.710814 0.746765 0.916935
Si Si3 0.215402 0.088049 0.669752
Si Si4 0.000000 0.500000 0.500000
O O1 0.281452 0.667093 0.385243
O O2 0.236326 0.500559 0.363808
O O3 0.000000 0.061695 0.436407
O O4 0.156893 0.566318 0.478230
O O5 0.500000 0.745846 0.908635
O O6 0.778599 0.664790 0.877488
O O7 0.750000 0.750000 0.000000
O O8 0.275316 0.095103 0.750000
O O9 0.000000 0.089188 0.669975
#
# Coordination Sequence:
#
# PCOD9475672 Si02
#       4
#    16  16  16   4
#     4  11  23  41  66  95 132 175 218 275 341 399
#     4  11  22  39  65  99 135 173 220 278 337 401
#     4   9  21  42  67  94 131 180 230 277 335 409
#     4  12  22  40  66  94 132 170 218 274 324 414
#
# _framework density 22.44858
#
# number of rings (size 3 to 8) (size 9 to 14) (size 15 to 20)
#    0.000    1.538    1.538    3.231    0.000    3.692 
#    2.769    0.769    0.000    0.000    0.000    0.000 
#    0.000    0.000    0.000    0.000    0.000    0.000 
#
# Total GULP energy -144832.370212 kJ/mol
# GULP energy per Si atom -5570.475777 kJ/mol
# Density = 2.239749 g / cm^3
# Si number density = 22.448580 Si / 1000 Ang^3
#
#
#
# Elastic Constant Matrix: (Units=GPa)
#
#
# Indices 1 2 3 4 5 6 
#
# 1 122.5740 14.3526 8.7735 0.0000 0.0000 0.0000
# 2 14.3526 243.7004 104.5543 0.0000 0.0000 0.0000
# 3 8.7735 104.5543 113.9583 0.0000 0.0000 0.0000
# 4 0.0000 0.0000 0.0000 19.2605 0.0000 0.0000
# 5 0.0000 0.0000 0.0000 0.0000 -2.7794 0.0000
# 6 0.0000 0.0000 0.0000 0.0000 0.0000 27.2214
#
#
#
# Elastic Compliance Matrix: (Units=1/GPa)
#
#
# Indices 1 2 3 4 5 6 
#
# 1 0.008222 -0.000351 -0.000311 0.000000 0.000000 0.000000
# 2 -0.000351 0.006782 -0.006195 0.000000 0.000000 0.000000
# 3 -0.000311 -0.006195 0.014483 0.000000 0.000000 0.000000
# 4 0.000000 0.000000 0.000000 0.051920 0.000000 0.000000
# 5 0.000000 0.000000 0.000000 0.000000 -0.359788 0.000000
# 6 0.000000 0.000000 0.000000 0.000000 0.000000 0.036736
#
#
# Mechanical properties :
#
#
# Convention : Reuss Voigt Hill
#
# Bulk Modulus (GPa) = 63.40207 81.73262 72.56734
# Shear Modulus (GPa) = -22.45445 32.24398 4.89477
#
# Velocity S-wave (km/s) = -3.16612 3.79403 1.47823
# Velocity P-wave (km/s) = 3.86507 7.46195 5.94220
#
# Compressibility (1/GPa) = 0.01577236
#
# Stress axis : x y z
#
# Youngs Moduli (GPa) = 121.62969 147.44813 69.04538
#
# Poissons Ratio (x) = 0.05171 0.02149
# Poissons Ratio (y) = 0.04265 0.42776
# Poissons Ratio (z) = 0.03785 0.91350
#
# Static dielectric constant tensor:
#      x y z
#    x 1.820050 0.000000 0.000000 
#    y 0.000000 1.831920 0.000000 
#    z 0.000000 0.000000 1.837340 
# 
# From -- ./inp_files/41275.got.cif
#   From: 2010.05.17/outbox.cif.g08.bks.cpg/sg63_21_cif.got.tgz:41275.got - 2010.06.03 15:47:04.
