data_PCOD9475073
_publ_section_title
;
Structure prediction by ZEFSAII (Michael W. Deem and Ramdas Pophale) SiO2 
 PCOD9475073
Probable space group: C M C M
;
_chemical_formula_sum "Si O2"
_cell_formula_units_Z 80
_cell_length_a 16.311359
_cell_length_b 8.507720
_cell_length_c 25.107447
_cell_angle_alpha 90.000000
_cell_angle_beta 90.000000
_cell_angle_gamma 90.000000
_cell_volume 3484.222566
_symmetry_space_group_name_H-M "C M C M"
_symmetry_group_IT_number 63
_symmetry_cell_setting 'orthorhombic'
loop_
_space_group_symop_operation_xyz
x,y,z
-x,-y,1/2+z
x,-y,-z
-x,y,1/2-z
-x,-y,-z
x,y,1/2-z
-x,y,z
x,-y,1/2+z
1/2+x,1/2+y,z
1/2-x,1/2-y,1/2+z
1/2+x,1/2-y,-z
1/2-x,1/2+y,1/2-z
1/2-x,1/2-y,-z
1/2+x,1/2+y,1/2-z
1/2-x,1/2+y,z
1/2+x,1/2-y,1/2+z
loop_
_atom_site_type_symbol
_atom_site_label
_atom_site_fract_x
_atom_site_fract_y
_atom_site_fract_z
Si Si1 0.586836 0.010293 0.344210
Si Si2 0.266100 0.208513 0.307705
Si Si3 0.091520 0.860877 0.844937
Si Si4 0.650988 0.104687 0.048713
Si Si5 0.689212 0.583072 0.912590
O O1 0.500000 0.044652 0.317244
O O2 0.589699 0.825290 0.356250
O O3 0.591255 0.093506 0.401178
O O4 0.664210 0.074601 0.312315
O O5 0.274933 0.286991 0.250000
O O6 0.282263 0.317632 0.359755
O O7 0.175296 0.133761 0.310852
O O8 0.114591 0.972613 0.894341
O O9 0.000000 0.901613 0.824096
O O10 0.735550 0.022925 0.068282
O O11 0.667921 0.289267 0.042240
O O12 0.621478 0.000000 0.000000
#
# Coordination Sequence:
#
# PCOD9475073 Si02
#       5
#    16  16  16  16  16
#     4  10  22  42  64  91 128 166 209 261 316 381
#     4  11  23  42  67  93 125 169 214 261 323 386
#     4  11  22  40  64  91 129 167 208 259 316 374
#     4  11  21  38  67  95 127 168 215 264 324 381
#     4  11  21  40  62  99 130 167 212 267 318 379
#
# _framework density 22.960643999999998
#
# number of rings (size 3 to 8) (size 9 to 14) (size 15 to 20)
#    0.000    1.200    6.000    0.600    0.000    7.600 
#    0.000    2.000    0.000    3.000    0.000    0.000 
#    0.000    0.000    0.000    0.000    0.000    0.000 
#
# Total GULP energy -223212.706153 kJ/mol
# GULP energy per Si atom -5580.317654 kJ/mol
# Density = 2.290838 g / cm^3
# Si number density = 22.960644 Si / 1000 Ang^3
#
#
#
# Elastic Constant Matrix: (Units=GPa)
#
#
# Indices 1 2 3 4 5 6 
#
# 1 174.0965 31.5663 3.4600 0.0000 0.0000 0.0000
# 2 31.5663 73.4814 -13.3766 0.0000 0.0000 0.0000
# 3 3.4600 -13.3766 44.1975 0.0000 0.0000 0.0000
# 4 0.0000 0.0000 0.0000 22.5567 0.0000 0.0000
# 5 0.0000 0.0000 0.0000 0.0000 -7.2172 0.0000
# 6 0.0000 0.0000 0.0000 0.0000 0.0000 27.9508
#
#
#
# Elastic Compliance Matrix: (Units=1/GPa)
#
#
# Indices 1 2 3 4 5 6 
#
# 1 0.006309 -0.002963 -0.001391 0.000000 0.000000 0.000000
# 2 -0.002963 0.015794 0.005012 0.000000 0.000000 0.000000
# 3 -0.001391 0.005012 0.024252 0.000000 0.000000 0.000000
# 4 0.000000 0.000000 0.000000 0.044333 0.000000 0.000000
# 5 0.000000 0.000000 0.000000 0.000000 -0.138559 0.000000
# 6 0.000000 0.000000 0.000000 0.000000 0.000000 0.035777
#
#
# Mechanical properties :
#
#
# Convention : Reuss Voigt Hill
#
# Bulk Modulus (GPa) = 20.97714 37.23054 29.10384
# Shear Modulus (GPa) = 2016.00637 26.66646 1021.33641
#
# Velocity S-wave (km/s) = 29.66367 3.41163 21.11365
# Velocity P-wave (km/s) = 34.38604 5.63641 24.63909
#
# Compressibility (1/GPa) = 0.04767094
#
# Stress axis : x y z
#
# Youngs Moduli (GPa) = 158.50669 63.31389 41.23449
#
# Poissons Ratio (x) = 0.18762 0.05735
# Poissons Ratio (y) = 0.46971 -0.20668
# Poissons Ratio (z) = 0.22045 -0.31734
#
# Static dielectric constant tensor:
#      x y z
#    x 1.901440 0.000000 0.000000 
#    y 0.000000 1.917180 0.000000 
#    z 0.000000 0.000000 1.887970 
# 
# From -- ./inp_files/69745.got.cif
#   From: 2010.05.17/outbox.cif.g08.bks.cpg/sg63_35_cif.got.tgz:69745.got - 2010.06.03 15:47:04.
