data_PCOD9475274
_publ_section_title
;
Structure prediction by ZEFSAII (Michael W. Deem and Ramdas Pophale) SiO2 
 PCOD9475274
Probable space group: C M C M
;
_chemical_formula_sum "Si O2"
_cell_formula_units_Z 96
_cell_length_a 27.262021
_cell_length_b 21.116065
_cell_length_c 8.251542
_cell_angle_alpha 90.000000
_cell_angle_beta 90.000000
_cell_angle_gamma 90.000000
_cell_volume 4750.137190
_symmetry_space_group_name_H-M "C M C M"
_symmetry_group_IT_number 63
_symmetry_cell_setting 'orthorhombic'
loop_
_space_group_symop_operation_xyz
x,y,z
-x,-y,1/2+z
x,-y,-z
-x,y,1/2-z
-x,-y,-z
x,y,1/2-z
-x,y,z
x,-y,1/2+z
1/2+x,1/2+y,z
1/2-x,1/2-y,1/2+z
1/2+x,1/2-y,-z
1/2-x,1/2+y,1/2-z
1/2-x,1/2-y,-z
1/2+x,1/2+y,1/2-z
1/2-x,1/2+y,z
1/2+x,1/2-y,1/2+z
loop_
_atom_site_type_symbol
_atom_site_label
_atom_site_fract_x
_atom_site_fract_y
_atom_site_fract_z
Si Si1 0.217619 0.894299 0.439821
Si Si2 0.329796 0.929288 0.057247
Si Si3 0.110819 0.309313 0.567307
Si Si4 0.697223 0.735153 0.432971
Si Si5 0.555281 0.311510 0.944426
Si Si6 0.118701 0.935065 0.946322
O O1 0.221630 0.874730 0.250000
O O2 0.272662 0.914656 0.492374
O O3 0.198118 0.839512 0.557436
O O4 0.170771 0.938794 0.458279
O O5 0.329331 0.928521 0.250000
O O6 0.369042 0.876209 0.001682
O O7 0.342090 0.000000 0.000000
O O8 0.094774 0.320134 0.750000
O O9 0.159473 0.266560 0.553502
O O10 0.073055 0.260144 0.485150
O O11 0.687919 0.757969 0.250000
O O12 0.750000 0.750000 0.500000
O O13 0.555221 0.315190 0.750000
O O14 0.500000 0.320598 0.005658
O O15 0.590310 0.369962 0.996931
O O16 0.124279 0.934367 0.750000
O O17 0.091779 0.000000 0.000000
#
# Coordination Sequence:
#
# PCOD9475274 Si02
#       6
#    16  16  16  16  16  16
#     4  11  22  36  57  86 123 165 208 249 292 349
#     4  11  24  40  60  88 127 167 208 249 299 361
#     4  12  24  39  63  90 121 159 204 253 307 367
#     4  12  22  34  55  85 120 159 204 249 296 352
#     4  10  23  44  67  90 118 155 202 257 316 370
#     4  11  23  38  59  86 123 166 209 254 303 359
#
# _framework density 20.209942000000002
#
# number of rings (size 3 to 8) (size 9 to 14) (size 15 to 20)
#    0.000    0.833    3.333    5.000    0.000    4.667 
#    0.000    0.000    0.000    0.500    0.000    0.000 
#    0.000    0.000    0.000    0.000    0.000    0.000 
#
# Total GULP energy -267475.847446 kJ/mol
# GULP energy per Si atom -5572.413488 kJ/mol
# Density = 2.016394 g / cm^3
# Si number density = 20.209942 Si / 1000 Ang^3
#
#
#
# Elastic Constant Matrix: (Units=GPa)
#
#
# Indices 1 2 3 4 5 6 
#
# 1 79.5977 37.6164 5.4401 0.0000 0.0000 0.0000
# 2 37.6164 148.2881 21.1703 0.0000 0.0000 0.0000
# 3 5.4401 21.1703 55.4740 0.0000 0.0000 0.0000
# 4 0.0000 0.0000 0.0000 35.0676 0.0000 0.0000
# 5 0.0000 0.0000 0.0000 0.0000 14.7606 0.0000
# 6 0.0000 0.0000 0.0000 0.0000 0.0000 16.0114
#
#
#
# Elastic Compliance Matrix: (Units=1/GPa)
#
#
# Indices 1 2 3 4 5 6 
#
# 1 0.014274 -0.003618 -0.000019 0.000000 0.000000 0.000000
# 2 -0.003618 0.008049 -0.002717 0.000000 0.000000 0.000000
# 3 -0.000019 -0.002717 0.019065 0.000000 0.000000 0.000000
# 4 0.000000 0.000000 0.000000 0.028516 0.000000 0.000000
# 5 0.000000 0.000000 0.000000 0.000000 0.067748 0.000000
# 6 0.000000 0.000000 0.000000 0.000000 0.000000 0.062456
#
#
# Mechanical properties :
#
#
# Convention : Reuss Voigt Hill
#
# Bulk Modulus (GPa) = 34.86703 45.75706 40.31205
# Shear Modulus (GPa) = 22.48428 27.77679 25.13053
#
# Velocity S-wave (km/s) = 3.33909 3.71133 3.53012
# Velocity P-wave (km/s) = 5.67062 6.40744 6.05026
#
# Compressibility (1/GPa) = 0.02868039
#
# Stress axis : x y z
#
# Youngs Moduli (GPa) = 70.05544 124.23313 52.45155
#
# Poissons Ratio (x) = 0.44951 0.00100
# Poissons Ratio (y) = 0.25348 0.14251
# Poissons Ratio (z) = 0.00133 0.33754
#
# Static dielectric constant tensor:
#      x y z
#    x 1.702550 0.000000 0.000000 
#    y 0.000000 1.696260 0.000000 
#    z 0.000000 0.000000 1.702110 
# 
# From -- ./inp_files/12329.got.cif
#   From: 2010.05.17/outbox.cif.g08.bks.cpg/sg63_7_cif.got.tgz:12329.got - 2010.06.03 15:47:04.
