data_PCOD9475764
_publ_section_title
;
Structure prediction by ZEFSAII (Michael W. Deem and Ramdas Pophale) SiO2 
 PCOD9475764
Probable space group: C M C M
;
_chemical_formula_sum "Si O2"
_cell_formula_units_Z 64
_cell_length_a 20.751450
_cell_length_b 10.258805
_cell_length_c 16.225574
_cell_angle_alpha 90.000000
_cell_angle_beta 90.000000
_cell_angle_gamma 90.000000
_cell_volume 3454.182603
_symmetry_space_group_name_H-M "C M C M"
_symmetry_group_IT_number 63
_symmetry_cell_setting 'orthorhombic'
loop_
_space_group_symop_operation_xyz
x,y,z
-x,-y,1/2+z
x,-y,-z
-x,y,1/2-z
-x,-y,-z
x,y,1/2-z
-x,y,z
x,-y,1/2+z
1/2+x,1/2+y,z
1/2-x,1/2-y,1/2+z
1/2+x,1/2-y,-z
1/2-x,1/2+y,1/2-z
1/2-x,1/2-y,-z
1/2+x,1/2+y,1/2-z
1/2-x,1/2+y,z
1/2+x,1/2-y,1/2+z
loop_
_atom_site_type_symbol
_atom_site_label
_atom_site_fract_x
_atom_site_fract_y
_atom_site_fract_z
Si Si1 0.242984 0.122707 0.943183
Si Si2 0.868607 0.528334 0.847225
Si Si3 0.000000 0.389489 0.429107
Si Si4 0.500000 0.639501 0.956775
Si Si5 0.378451 0.282785 0.152786
O O1 0.187427 0.151155 0.877115
O O2 0.310113 0.088358 0.898952
O O3 0.250000 0.250000 0.000000
O O4 0.224918 0.000000 0.000000
O O5 0.858264 0.548025 0.750000
O O6 0.872810 0.372777 0.862669
O O7 0.935964 0.589619 0.875736
O O8 0.000000 0.500000 0.500000
O O9 0.000000 0.251171 0.473827
O O10 0.437339 0.661683 0.900141
O O11 0.500000 0.500000 0.000000
O O12 0.389170 0.301601 0.250000
#
# Coordination Sequence:
#
# PCOD9475764 Si02
#       5
#    16  16   8   8  16
#     4  12  23  41  63  93 129 166 212 258 313 374
#     4  11  23  41  65  97 127 164 215 263 312 374
#     4  12  21  41  69  93 122 163 216 259 310 375
#     4  12  25  43  65  97 130 162 210 263 319 379
#     4  11  23  42  66  94 128 169 210 259 319 377
#
# _framework density 18.528261000000001
#
# number of rings (size 3 to 8) (size 9 to 14) (size 15 to 20)
#    0.000    0.500    5.000    4.500    0.000    2.000 
#    0.000    5.000    0.000    0.000    0.000    0.000 
#    0.000    0.000    0.000    0.000    0.000    0.000 
#
# Total GULP energy -179072.749520 kJ/mol
# GULP energy per Si atom -5596.023423 kJ/mol
# Density = 1.848609 g / cm^3
# Si number density = 18.528261 Si / 1000 Ang^3
#
#
#
# Elastic Constant Matrix: (Units=GPa)
#
#
# Indices 1 2 3 4 5 6 
#
# 1 163.7877 62.5005 77.3536 0.0000 0.0000 0.0000
# 2 62.5005 157.9708 88.2321 0.0000 0.0000 0.0000
# 3 77.3536 88.2321 122.4255 0.0000 0.0000 0.0000
# 4 0.0000 0.0000 0.0000 32.9874 0.0000 0.0000
# 5 0.0000 0.0000 0.0000 0.0000 -13.1504 0.0000
# 6 0.0000 0.0000 0.0000 0.0000 0.0000 29.6963
#
#
#
# Elastic Compliance Matrix: (Units=1/GPa)
#
#
# Indices 1 2 3 4 5 6 
#
# 1 0.008739 -0.000625 -0.005071 0.000000 0.000000 0.000000
# 2 -0.000625 0.010640 -0.007273 0.000000 0.000000 0.000000
# 3 -0.005071 -0.007273 0.016614 0.000000 0.000000 0.000000
# 4 0.000000 0.000000 0.000000 0.030315 0.000000 0.000000
# 5 0.000000 0.000000 0.000000 0.000000 -0.076044 0.000000
# 6 0.000000 0.000000 0.000000 0.000000 0.000000 0.033674
#
#
# Mechanical properties :
#
#
# Convention : Reuss Voigt Hill
#
# Bulk Modulus (GPa) = 99.46132 100.03961 99.75046
# Shear Modulus (GPa) = 93.93378 24.31318 59.12348
#
# Velocity S-wave (km/s) = 7.12795 3.62639 5.65501
# Velocity P-wave (km/s) = 11.02456 8.46431 9.82816
#
# Compressibility (1/GPa) = 0.01005416
#
# Stress axis : x y z
#
# Youngs Moduli (GPa) = 114.42946 93.98516 60.18942
#
# Poissons Ratio (x) = 0.05876 0.30523
# Poissons Ratio (y) = 0.07154 0.43777
# Poissons Ratio (z) = 0.58029 0.68358
#
# Static dielectric constant tensor:
#      x y z
#    x 1.632490 0.000000 0.000000 
#    y 0.000000 1.630220 0.000000 
#    z 0.000000 0.000000 1.618950 
# 
# From -- ./inp_files/33411.got.cif
#   From: 2010.05.17/outbox.cif.g08.bks.cpg/sg63_17_cif.got.tgz:33411.got - 2010.06.03 15:47:04.
