data_PCOD9475038
_publ_section_title
;
Structure prediction by ZEFSAII (Michael W. Deem and Ramdas Pophale) SiO2 
 PCOD9475038
Probable space group: C M C M
;
_chemical_formula_sum "Si O2"
_cell_formula_units_Z 64
_cell_length_a 9.734112
_cell_length_b 16.872929
_cell_length_c 17.557468
_cell_angle_alpha 90.000000
_cell_angle_beta 90.000000
_cell_angle_gamma 90.000000
_cell_volume 2883.690877
_symmetry_space_group_name_H-M "C M C M"
_symmetry_group_IT_number 63
_symmetry_cell_setting 'orthorhombic'
loop_
_space_group_symop_operation_xyz
x,y,z
-x,-y,1/2+z
x,-y,-z
-x,y,1/2-z
-x,-y,-z
x,y,1/2-z
-x,y,z
x,-y,1/2+z
1/2+x,1/2+y,z
1/2-x,1/2-y,1/2+z
1/2+x,1/2-y,-z
1/2-x,1/2+y,1/2-z
1/2-x,1/2-y,-z
1/2+x,1/2+y,1/2-z
1/2-x,1/2+y,z
1/2+x,1/2-y,1/2+z
loop_
_atom_site_type_symbol
_atom_site_label
_atom_site_fract_x
_atom_site_fract_y
_atom_site_fract_z
Si Si1 0.716421 0.926413 0.547252
Si Si2 0.151902 0.970988 0.165364
Si Si3 0.165810 0.662198 0.600155
Si Si4 0.648870 0.797930 0.660291
O O1 0.730806 0.860571 0.481923
O O2 0.644323 0.880436 0.615452
O O3 0.651542 0.000000 0.500000
O O4 0.837344 0.968938 0.594345
O O5 0.165449 0.007436 0.250000
O O6 0.271460 0.906480 0.154054
O O7 0.000000 0.933960 0.162477
O O8 0.227786 0.744388 0.629213
O O9 0.000000 0.661533 0.596075
O O10 0.664954 0.809554 0.750000
O O11 0.500000 0.758206 0.646995
#
# Coordination Sequence:
#
# PCOD9475038 Si02
#       4
#    16  16  16  16
#     4  10  23  41  64  93 126 164 207 257 313 374
#     4  10  22  41  65  94 129 170 215 263 318 379
#     4  11  24  41  64  94 128 168 214 264 318 376
#     4  11  24  42  65  92 124 165 212 262 317 378
#
# _framework density 22.193778999999999
#
# number of rings (size 3 to 8) (size 9 to 14) (size 15 to 20)
#    0.000    1.500    0.000    3.750    0.000   19.500 
#    0.000    0.000    0.000    0.000    0.000    0.000 
#    0.000    0.000    0.000    0.000    0.000    0.000 
#
# Total GULP energy -178287.185504 kJ/mol
# GULP energy per Si atom -5571.474547 kJ/mol
# Density = 2.214326 g / cm^3
# Si number density = 22.193779 Si / 1000 Ang^3
#
#
#
# Elastic Constant Matrix: (Units=GPa)
#
#
# Indices 1 2 3 4 5 6 
#
# 1 111.4788 50.0424 55.2100 0.0000 0.0000 0.0000
# 2 50.0424 84.1037 52.8444 0.0000 0.0000 0.0000
# 3 55.2100 52.8444 153.5283 0.0000 0.0000 0.0000
# 4 0.0000 0.0000 0.0000 31.8128 0.0000 0.0000
# 5 0.0000 0.0000 0.0000 0.0000 4.1411 0.0000
# 6 0.0000 0.0000 0.0000 0.0000 0.0000 15.4469
#
#
#
# Elastic Compliance Matrix: (Units=1/GPa)
#
#
# Indices 1 2 3 4 5 6 
#
# 1 0.012986 -0.006115 -0.002565 0.000000 0.000000 0.000000
# 2 -0.006115 0.018051 -0.004014 0.000000 0.000000 0.000000
# 3 -0.002565 -0.004014 0.008817 0.000000 0.000000 0.000000
# 4 0.000000 0.000000 0.000000 0.031434 0.000000 0.000000
# 5 0.000000 0.000000 0.000000 0.000000 0.241481 0.000000
# 6 0.000000 0.000000 0.000000 0.000000 0.000000 0.064738
#
#
# Mechanical properties :
#
#
# Convention : Reuss Voigt Hill
#
# Bulk Modulus (GPa) = 69.12838 73.92270 71.52554
# Shear Modulus (GPa) = 12.26343 23.01443 17.63893
#
# Velocity S-wave (km/s) = 2.35321 3.22371 2.82222
# Velocity P-wave (km/s) = 6.21279 6.87288 6.55116
#
# Compressibility (1/GPa) = 0.01446584
#
# Stress axis : x y z
#
# Youngs Moduli (GPa) = 77.00848 55.39972 113.41122
#
# Poissons Ratio (x) = 0.33876 0.29090
# Poissons Ratio (y) = 0.47090 0.45524
# Poissons Ratio (z) = 0.19752 0.22238
#
# Static dielectric constant tensor:
#      x y z
#    x 1.785930 0.000000 0.000000 
#    y 0.000000 1.842070 0.000000 
#    z 0.000000 0.000000 1.824590 
# 
# From -- ./inp_files/50332.got.cif
#   From: 2010.05.17/outbox.cif.g08.bks.cpg/sg63_26_cif.got.tgz:50332.got - 2010.06.03 15:47:04.
