data_PCOD9475893
_publ_section_title
;
Structure prediction by ZEFSAII (Michael W. Deem and Ramdas Pophale) SiO2 
 PCOD9475893
Probable space group: C M C M
;
_chemical_formula_sum "Si O2"
_cell_formula_units_Z 80
_cell_length_a 26.349799
_cell_length_b 10.541234
_cell_length_c 15.913039
_cell_angle_alpha 90.000000
_cell_angle_beta 90.000000
_cell_angle_gamma 90.000000
_cell_volume 4419.996119
_symmetry_space_group_name_H-M "C M C M"
_symmetry_group_IT_number 63
_symmetry_cell_setting 'orthorhombic'
loop_
_space_group_symop_operation_xyz
x,y,z
-x,-y,1/2+z
x,-y,-z
-x,y,1/2-z
-x,-y,-z
x,y,1/2-z
-x,y,z
x,-y,1/2+z
1/2+x,1/2+y,z
1/2-x,1/2-y,1/2+z
1/2+x,1/2-y,-z
1/2-x,1/2+y,1/2-z
1/2-x,1/2-y,-z
1/2+x,1/2+y,1/2-z
1/2-x,1/2+y,z
1/2+x,1/2-y,1/2+z
loop_
_atom_site_type_symbol
_atom_site_label
_atom_site_fract_x
_atom_site_fract_y
_atom_site_fract_z
Si Si1 0.500000 0.372898 0.052754
Si Si2 0.094923 0.477402 0.149249
Si Si3 0.790345 0.229949 0.647393
Si Si4 0.406259 0.726694 0.649119
Si Si5 0.709952 0.979404 0.352811
Si Si6 0.500000 0.876594 0.058997
O O1 0.550602 0.358364 0.108402
O O2 0.500000 0.500000 0.000000
O O3 0.500000 0.252406 0.991490
O O4 0.094338 0.469687 0.250000
O O5 0.084063 0.624956 0.127550
O O6 0.152275 0.448422 0.120482
O O7 0.051220 0.390219 0.112737
O O8 0.789574 0.229856 0.750000
O O9 0.848322 0.198750 0.622915
O O10 0.778641 0.375195 0.621731
O O11 0.750189 0.125172 0.618414
O O12 0.408826 0.716898 0.750000
O O13 0.710147 0.978678 0.250000
O O14 0.500000 0.000000 0.000000
#
# Coordination Sequence:
#
# PCOD9475893 Si02
#       6
#     8  16  16  16  16   8
#     4  12  25  39  51  75 110 140 170 221 269 313
#     4   9  17  32  57  84 104 130 178 224 251 300
#     4   8  14  26  48  77 103 128 164 209 253 300
#     4   9  17  34  59  79 100 139 182 210 249 316
#     4   8  14  26  46  75 106 131 162 208 255 298
#     4  12  21  35  57  77  98 137 176 215 268 305
#
# _framework density 18.099564000000001
#
# number of rings (size 3 to 8) (size 9 to 14) (size 15 to 20)
#    0.000    2.800    2.000    3.000    0.000    1.600 
#    3.600    2.000    0.000    2.400    0.000    0.000 
#    0.000    0.000    0.000    0.000    0.000    0.000 
#
# Total GULP energy -223026.780096 kJ/mol
# GULP energy per Si atom -5575.669502 kJ/mol
# Density = 1.805837 g / cm^3
# Si number density = 18.099564 Si / 1000 Ang^3
#
#
#
# Elastic Constant Matrix: (Units=GPa)
#
#
# Indices 1 2 3 4 5 6 
#
# 1 155.6435 90.7284 33.9375 0.0000 0.0000 0.0000
# 2 90.7284 102.4982 24.9554 0.0000 0.0000 0.0000
# 3 33.9375 24.9554 14.7879 0.0000 0.0000 0.0000
# 4 0.0000 0.0000 0.0000 23.6202 0.0000 0.0000
# 5 0.0000 0.0000 0.0000 0.0000 -23.0376 0.0000
# 6 0.0000 0.0000 0.0000 0.0000 0.0000 32.6179
#
#
#
# Elastic Compliance Matrix: (Units=1/GPa)
#
#
# Indices 1 2 3 4 5 6 
#
# 1 0.016886 -0.009356 -0.022964 0.000000 0.000000 0.000000
# 2 -0.009356 0.021744 -0.015223 0.000000 0.000000 0.000000
# 3 -0.022964 -0.015223 0.146013 0.000000 0.000000 0.000000
# 4 0.000000 0.000000 0.000000 0.042337 0.000000 0.000000
# 5 0.000000 0.000000 0.000000 0.000000 -0.043407 0.000000
# 6 0.000000 0.000000 0.000000 0.000000 0.000000 0.030658
#
#
# Mechanical properties :
#
#
# Convention : Reuss Voigt Hill
#
# Bulk Modulus (GPa) = 11.16600 63.57468 37.37034
# Shear Modulus (GPa) = 14.74193 14.86067 14.80130
#
# Velocity S-wave (km/s) = 2.85702 2.86851 2.86277
# Velocity P-wave (km/s) = 4.13111 6.79502 5.62310
#
# Compressibility (1/GPa) = 0.08955762
#
# Stress axis : x y z
#
# Youngs Moduli (GPa) = 59.22126 45.98917 6.84870
#
# Poissons Ratio (x) = 0.43027 0.15727
# Poissons Ratio (y) = 0.55407 0.10426
# Poissons Ratio (z) = 1.35993 0.70011
#
# Static dielectric constant tensor:
#      x y z
#    x 1.634930 0.000000 0.000000 
#    y 0.000000 1.590290 0.000000 
#    z 0.000000 0.000000 1.638180 
# 
# From -- ./inp_files/48836.got.cif
#   From: 2010.05.17/outbox.cif.g08.bks.cpg/sg63_25_cif.got.tgz:48836.got - 2010.06.03 15:47:04.
