data_PCOD9475079
_publ_section_title
;
Structure prediction by ZEFSAII (Michael W. Deem and Ramdas Pophale) SiO2 
 PCOD9475079
Probable space group: C M C M
;
_chemical_formula_sum "Si O2"
_cell_formula_units_Z 112
_cell_length_a 28.952393
_cell_length_b 12.824419
_cell_length_c 12.539400
_cell_angle_alpha 90.000000
_cell_angle_beta 90.000000
_cell_angle_gamma 90.000000
_cell_volume 4655.849362
_symmetry_space_group_name_H-M "C M C M"
_symmetry_group_IT_number 63
_symmetry_cell_setting 'orthorhombic'
loop_
_space_group_symop_operation_xyz
x,y,z
-x,-y,1/2+z
x,-y,-z
-x,y,1/2-z
-x,-y,-z
x,y,1/2-z
-x,y,z
x,-y,1/2+z
1/2+x,1/2+y,z
1/2-x,1/2-y,1/2+z
1/2+x,1/2-y,-z
1/2-x,1/2+y,1/2-z
1/2-x,1/2-y,-z
1/2+x,1/2+y,1/2-z
1/2-x,1/2+y,z
1/2+x,1/2-y,1/2+z
loop_
_atom_site_type_symbol
_atom_site_label
_atom_site_fract_x
_atom_site_fract_y
_atom_site_fract_z
Si Si1 0.798792 0.258389 0.057061
Si Si2 0.670635 0.455393 0.634293
Si Si3 0.767445 0.533713 0.874835
Si Si4 0.446727 0.953733 0.622796
Si Si5 0.419195 0.391504 0.996895
Si Si6 0.874719 0.264203 0.869904
Si Si7 0.554885 0.816014 0.131289
O O1 0.803188 0.154465 0.125678
O O2 0.795672 0.359825 0.129281
O O3 0.750000 0.250000 0.000000
O O4 0.837358 0.268943 0.964702
O O5 0.653133 0.479778 0.750000
O O6 0.711230 0.539069 0.611958
O O7 0.626429 0.428100 0.565645
O O8 0.773036 0.487882 0.750000
O O9 0.780696 0.500000 0.000000
O O10 0.450150 0.973820 0.750000
O O11 0.500000 0.926059 0.590529
O O12 0.410182 0.860194 0.617701
O O13 0.431649 0.929858 0.416607
O O14 0.436780 0.289175 0.934847
O O15 0.447174 0.500000 0.000000
O O16 0.403246 0.342391 0.109048
O O17 0.855281 0.266554 0.750000
O O18 0.575652 0.802581 0.250000
O O19 0.500000 0.825120 0.140933
#
# Coordination Sequence:
#
# PCOD9475079 Si02
#       7
#    16  16  16  16  16  16  16
#     4  11  23  42  64  92 133 175 232 289 361 418
#     4  10  22  42  65  90 122 167 226 284 344 418
#     4  11  23  42  67  95 127 174 229 286 352 423
#     4   8  16  38  71 103 135 172 220 282 357 437
#     4  11  24  40  60  92 133 175 230 282 341 412
#     4  10  24  43  67 100 138 184 237 295 363 437
#     4   9  19  39  68  99 132 174 220 277 354 433
#
# _framework density 24.055759999999999
#
# number of rings (size 3 to 8) (size 9 to 14) (size 15 to 20)
#    0.000    2.000    1.429    2.143    2.000    4.286 
#    5.143    1.429    0.000    1.714    0.000    0.000 
#    0.000    0.000    0.000    0.000    0.000    0.143 
#
# Total GULP energy -311912.049817 kJ/mol
# GULP energy per Si atom -5569.858032 kJ/mol
# Density = 2.400101 g / cm^3
# Si number density = 24.055760 Si / 1000 Ang^3
#
#
#
# Elastic Constant Matrix: (Units=GPa)
#
#
# Indices 1 2 3 4 5 6 
#
# 1 58.6355 48.8635 20.2806 0.0000 0.0000 0.0000
# 2 48.8635 162.8925 51.8348 0.0000 0.0000 0.0000
# 3 20.2806 51.8348 138.3425 0.0000 0.0000 0.0000
# 4 0.0000 0.0000 0.0000 30.4765 0.0000 0.0000
# 5 0.0000 0.0000 0.0000 0.0000 31.8328 0.0000
# 6 0.0000 0.0000 0.0000 0.0000 0.0000 74.9695
#
#
#
# Elastic Compliance Matrix: (Units=1/GPa)
#
#
# Indices 1 2 3 4 5 6 
#
# 1 0.022834 -0.006568 -0.000887 0.000000 0.000000 0.000000
# 2 -0.006568 0.008859 -0.002357 0.000000 0.000000 0.000000
# 3 -0.000887 -0.002357 0.008241 0.000000 0.000000 0.000000
# 4 0.000000 0.000000 0.000000 0.032812 0.000000 0.000000
# 5 0.000000 0.000000 0.000000 0.000000 0.031414 0.000000
# 6 0.000000 0.000000 0.000000 0.000000 0.000000 0.013339
#
#
# Mechanical properties :
#
#
# Convention : Reuss Voigt Hill
#
# Bulk Modulus (GPa) = 49.22936 66.86983 58.04960
# Shear Modulus (GPa) = 34.74825 43.38186 39.06505
#
# Velocity S-wave (km/s) = 3.80476 4.25124 4.03418
# Velocity P-wave (km/s) = 6.30958 7.20802 6.77371
#
# Compressibility (1/GPa) = 0.02031308
#
# Stress axis : x y z
#
# Youngs Moduli (GPa) = 43.79398 112.87962 121.33885
#
# Poissons Ratio (x) = 0.74134 0.10759
# Poissons Ratio (y) = 0.28762 0.28594
# Poissons Ratio (z) = 0.03883 0.26601
#
# Static dielectric constant tensor:
#      x y z
#    x 1.913370 0.000000 0.000000 
#    y 0.000000 2.695340 0.000000 
#    z 0.000000 0.000000 1.983060 
# 
# From -- ./inp_files/25943.got.cif
#   From: 2010.05.17/outbox.cif.g08.bks.cpg/sg63_13_cif.got.tgz:25943.got - 2010.06.03 15:47:04.
