data_PCOD9475130
_publ_section_title
;
Structure prediction by ZEFSAII (Michael W. Deem and Ramdas Pophale) SiO2 
 PCOD9475130
Probable space group: C M C M
;
_chemical_formula_sum "Si O2"
_cell_formula_units_Z 96
_cell_length_a 11.139546
_cell_length_b 19.598954
_cell_length_c 22.460885
_cell_angle_alpha 90.000000
_cell_angle_beta 90.000000
_cell_angle_gamma 90.000000
_cell_volume 4903.737895
_symmetry_space_group_name_H-M "C M C M"
_symmetry_group_IT_number 63
_symmetry_cell_setting 'orthorhombic'
loop_
_space_group_symop_operation_xyz
x,y,z
-x,-y,1/2+z
x,-y,-z
-x,y,1/2-z
-x,-y,-z
x,y,1/2-z
-x,y,z
x,-y,1/2+z
1/2+x,1/2+y,z
1/2-x,1/2-y,1/2+z
1/2+x,1/2-y,-z
1/2-x,1/2+y,1/2-z
1/2-x,1/2-y,-z
1/2+x,1/2+y,1/2-z
1/2-x,1/2+y,z
1/2+x,1/2-y,1/2+z
loop_
_atom_site_type_symbol
_atom_site_label
_atom_site_fract_x
_atom_site_fract_y
_atom_site_fract_z
Si Si1 0.363246 0.142058 0.143873
Si Si2 0.771010 0.264449 0.182019
Si Si3 0.863415 0.618721 0.609795
Si Si4 0.762779 0.499547 0.820091
Si Si5 0.858133 0.694665 0.489342
Si Si6 0.000000 0.823178 0.822524
Si Si7 0.500000 0.477850 0.821716
O O1 0.500000 0.120036 0.151134
O O2 0.339498 0.213422 0.176821
O O3 0.284291 0.080992 0.170273
O O4 0.340489 0.159843 0.074834
O O5 0.793366 0.283549 0.250000
O O6 0.770709 0.331849 0.143365
O O7 0.882171 0.218091 0.159405
O O8 0.841561 0.543355 0.634522
O O9 0.850759 0.637094 0.540660
O O10 0.000000 0.637829 0.627138
O O11 0.784821 0.515528 0.750000
O O12 0.624241 0.513679 0.836292
O O13 0.750000 0.750000 0.500000
O O14 0.000000 0.720431 0.491122
O O15 0.000000 0.825310 0.750000
O O16 0.000000 0.900269 0.845309
O O17 0.500000 0.471724 0.750000
#
# Coordination Sequence:
#
# PCOD9475130 Si02
#       7
#    16  16  16  16  16   8   8
#     4  11  23  39  62  89 121 161 205 252 305 367
#     4  11  20  33  58  89 119 151 197 253 303 362
#     4  11  23  39  62  88 119 162 207 253 308 366
#     4  11  23  40  61  89 129 165 200 251 311 374
#     4  10  22  43  66  91 122 162 211 264 310 362
#     4   9  16  30  56  85 111 143 193 250 290 348
#     4   9  18  36  58  82 118 163 200 238 299 367
#
# _framework density 19.576903000000001
#
# number of rings (size 3 to 8) (size 9 to 14) (size 15 to 20)
#    0.000    1.500    4.167    1.500    0.000    3.667 
#    4.500    2.500    0.000    1.000    0.000    0.000 
#    0.000    0.000    0.000    0.000    0.000    0.000 
#
# Total GULP energy -267648.200478 kJ/mol
# GULP energy per Si atom -5576.004177 kJ/mol
# Density = 1.953235 g / cm^3
# Si number density = 19.576903 Si / 1000 Ang^3
#
#
#
# Elastic Constant Matrix: (Units=GPa)
#
#
# Indices 1 2 3 4 5 6 
#
# 1 76.5684 1.1077 15.5627 0.0000 0.0000 0.0000
# 2 1.1077 40.5763 -4.5386 0.0000 0.0000 0.0000
# 3 15.5627 -4.5386 48.2081 0.0000 0.0000 0.0000
# 4 0.0000 0.0000 0.0000 26.2680 0.0000 0.0000
# 5 0.0000 0.0000 0.0000 0.0000 22.9084 0.0000
# 6 0.0000 0.0000 0.0000 0.0000 0.0000 27.4047
#
#
#
# Elastic Compliance Matrix: (Units=1/GPa)
#
#
# Indices 1 2 3 4 5 6 
#
# 1 0.014010 -0.000898 -0.004607 0.000000 0.000000 0.000000
# 2 -0.000898 0.024965 0.002640 0.000000 0.000000 0.000000
# 3 -0.004607 0.002640 0.022479 0.000000 0.000000 0.000000
# 4 0.000000 0.000000 0.000000 0.038069 0.000000 0.000000
# 5 0.000000 0.000000 0.000000 0.000000 0.043652 0.000000
# 6 0.000000 0.000000 0.000000 0.000000 0.000000 0.036490
#
#
# Mechanical properties :
#
#
# Convention : Reuss Voigt Hill
#
# Bulk Modulus (GPa) = 17.94555 21.06848 19.50702
# Shear Modulus (GPa) = 24.51351 25.53095 25.02223
#
# Velocity S-wave (km/s) = 3.54243 3.61520 3.57900
# Velocity P-wave (km/s) = 5.09101 5.31145 5.20240
#
# Compressibility (1/GPa) = 0.05572412
#
# Stress axis : x y z
#
# Youngs Moduli (GPa) = 71.37958 40.05644 44.48550
#
# Poissons Ratio (x) = 0.03596 0.20495
# Poissons Ratio (y) = 0.06408 -0.11745
# Poissons Ratio (z) = 0.32886 -0.10576
#
# Static dielectric constant tensor:
#      x y z
#    x 1.739600 0.000000 0.000000 
#    y 0.000000 1.662160 0.000000 
#    z 0.000000 0.000000 1.677090 
# 
# From -- ./inp_files/52937.got.cif
#   From: 2010.05.17/outbox.cif.g08.bks.cpg/sg63_27_cif.got.tgz:52937.got - 2010.06.03 15:47:04.
