data_PCOD9475875
_publ_section_title
;
Structure prediction by ZEFSAII (Michael W. Deem and Ramdas Pophale) SiO2 
 PCOD9475875
Probable space group: C M C M
;
_chemical_formula_sum "Si O2"
_cell_formula_units_Z 64
_cell_length_a 13.878981
_cell_length_b 28.791655
_cell_length_c 7.771719
_cell_angle_alpha 90.000000
_cell_angle_beta 90.000000
_cell_angle_gamma 90.000000
_cell_volume 3105.569841
_symmetry_space_group_name_H-M "C M C M"
_symmetry_group_IT_number 63
_symmetry_cell_setting 'orthorhombic'
loop_
_space_group_symop_operation_xyz
x,y,z
-x,-y,1/2+z
x,-y,-z
-x,y,1/2-z
-x,-y,-z
x,y,1/2-z
-x,y,z
x,-y,1/2+z
1/2+x,1/2+y,z
1/2-x,1/2-y,1/2+z
1/2+x,1/2-y,-z
1/2-x,1/2+y,1/2-z
1/2-x,1/2-y,-z
1/2+x,1/2+y,1/2-z
1/2-x,1/2+y,z
1/2+x,1/2-y,1/2+z
loop_
_atom_site_type_symbol
_atom_site_label
_atom_site_fract_x
_atom_site_fract_y
_atom_site_fract_z
Si Si1 0.614662 0.593234 0.750000
Si Si2 0.117676 0.799733 0.250000
Si Si3 0.111508 0.372268 0.458507
Si Si4 0.235586 0.051596 0.445864
Si Si5 0.617607 0.232360 0.947304
O O1 0.500000 0.592674 0.750000
O O2 0.649134 0.646956 0.750000
O O3 0.655970 0.568288 0.581662
O O4 0.148921 0.771419 0.418824
O O5 0.000000 0.800030 0.250000
O O6 0.115139 0.375467 0.250000
O O7 0.177947 0.411767 0.536217
O O8 0.143919 0.319911 0.502966
O O9 0.000000 0.377671 0.510209
O O10 0.200399 0.050839 0.250000
O O11 0.267484 0.000000 0.500000
O O12 0.646986 0.240587 0.750000
O O13 0.500000 0.232435 0.947070
#
# Coordination Sequence:
#
# PCOD9475875 Si02
#       5
#     8   8  16  16  16
#     4  11  26  48  68  91 121 159 213 276 329 373
#     4   9  18  34  59  87 121 159 204 256 308 367
#     4   9  18  36  65  98 137 176 206 242 297 372
#     4  12  25  45  68  93 127 162 206 267 321 375
#     4   8  15  29  54  89 126 167 205 239 288 358
#
# _framework density 20.608132999999999
#
# number of rings (size 3 to 8) (size 9 to 14) (size 15 to 20)
#    0.000    2.250    2.500    1.500    1.750    3.000 
#    0.000    3.750    0.000    0.000    0.000    0.000 
#    0.000    0.000    0.000    0.000    0.000    0.000 
#
# Total GULP energy -178963.683756 kJ/mol
# GULP energy per Si atom -5592.615117 kJ/mol
# Density = 2.056123 g / cm^3
# Si number density = 20.608133 Si / 1000 Ang^3
#
#
#
# Elastic Constant Matrix: (Units=GPa)
#
#
# Indices 1 2 3 4 5 6 
#
# 1 80.2729 22.0456 24.5533 0.0000 0.0000 0.0000
# 2 22.0456 100.1344 49.4161 0.0000 0.0000 0.0000
# 3 24.5533 49.4161 123.7053 0.0000 0.0000 0.0000
# 4 0.0000 0.0000 0.0000 32.0651 0.0000 0.0000
# 5 0.0000 0.0000 0.0000 0.0000 22.8399 0.0000
# 6 0.0000 0.0000 0.0000 0.0000 0.0000 30.7903
#
#
#
# Elastic Compliance Matrix: (Units=1/GPa)
#
#
# Indices 1 2 3 4 5 6 
#
# 1 0.013599 -0.002070 -0.001872 0.000000 0.000000 0.000000
# 2 -0.002070 0.012754 -0.004684 0.000000 0.000000 0.000000
# 3 -0.001872 -0.004684 0.010326 0.000000 0.000000 0.000000
# 4 0.000000 0.000000 0.000000 0.031187 0.000000 0.000000
# 5 0.000000 0.000000 0.000000 0.000000 0.043783 0.000000
# 6 0.000000 0.000000 0.000000 0.000000 0.000000 0.032478
#
#
# Mechanical properties :
#
#
# Convention : Reuss Voigt Hill
#
# Bulk Modulus (GPa) = 51.47540 55.12695 53.30117
# Shear Modulus (GPa) = 29.78785 31.01224 30.40005
#
# Velocity S-wave (km/s) = 3.80602 3.88345 3.84493
# Velocity P-wave (km/s) = 6.65934 6.84956 6.75512
#
# Compressibility (1/GPa) = 0.01942676
#
# Stress axis : x y z
#
# Youngs Moduli (GPa) = 73.53679 78.40825 96.83949
#
# Poissons Ratio (x) = 0.16230 0.18130
# Poissons Ratio (y) = 0.15222 0.45358
# Poissons Ratio (z) = 0.13768 0.36725
#
# Static dielectric constant tensor:
#      x y z
#    x 1.764090 0.000000 0.000000 
#    y 0.000000 1.697720 0.000000 
#    z 0.000000 0.000000 1.718270 
# 
# From -- ./inp_files/4320.got.cif
#   From: 2010.05.17/outbox.cif.g08.bks.cpg/sg63_3_cif.got.tgz:4320.got - 2010.06.03 15:47:04.
