data_PCOD9475230
_publ_section_title
;
Structure prediction by ZEFSAII (Michael W. Deem and Ramdas Pophale) SiO2 
 PCOD9475230
Probable space group: C M C M
;
_chemical_formula_sum "Si O2"
_cell_formula_units_Z 64
_cell_length_a 20.246824
_cell_length_b 8.713498
_cell_length_c 15.507227
_cell_angle_alpha 90.000000
_cell_angle_beta 90.000000
_cell_angle_gamma 90.000000
_cell_volume 2735.795229
_symmetry_space_group_name_H-M "C M C M"
_symmetry_group_IT_number 63
_symmetry_cell_setting 'orthorhombic'
loop_
_space_group_symop_operation_xyz
x,y,z
-x,-y,1/2+z
x,-y,-z
-x,y,1/2-z
-x,-y,-z
x,y,1/2-z
-x,y,z
x,-y,1/2+z
1/2+x,1/2+y,z
1/2-x,1/2-y,1/2+z
1/2+x,1/2-y,-z
1/2-x,1/2+y,1/2-z
1/2-x,1/2-y,-z
1/2+x,1/2+y,1/2-z
1/2-x,1/2+y,z
1/2+x,1/2-y,1/2+z
loop_
_atom_site_type_symbol
_atom_site_label
_atom_site_fract_x
_atom_site_fract_y
_atom_site_fract_z
Si Si1 0.346144 0.980120 0.750000
Si Si2 0.365487 0.117524 0.574788
Si Si3 0.500000 0.433970 0.350242
Si Si4 0.791520 0.135062 0.750000
Si Si5 0.642694 0.443928 0.597588
Si Si6 0.500000 0.182467 0.493972
O O1 0.317507 0.808915 0.750000
O O2 0.382391 0.018865 0.660033
O O3 0.285425 0.098233 0.750000
O O4 0.326654 0.271612 0.600664
O O5 0.429765 0.206175 0.538218
O O6 0.341417 0.000000 0.500000
O O7 0.500000 0.395583 0.250000
O O8 0.566346 0.527634 0.372545
O O9 0.500000 0.280390 0.407575
O O10 0.818684 0.050522 0.835157
O O11 0.649715 0.500000 0.500000
O O12 0.500000 0.000000 0.500000
#
# Coordination Sequence:
#
# PCOD9475230 Si02
#       6
#     8  16   8   8  16   8
#     4  12  28  49  72  99 141 185 247 303 363 425
#     4  11  24  45  69 105 146 187 234 294 355 429
#     4  12  24  42  75 109 150 194 237 286 359 437
#     4  12  28  49  72 105 135 189 247 303 359 429
#     4  12  23  43  73 105 146 186 238 293 355 426
#     4  10  23  42  66 107 149 182 234 281 351 427
#
# _framework density 23.393563
#
# number of rings (size 3 to 8) (size 9 to 14) (size 15 to 20)
#    0.000    0.500    3.750    4.875    3.500    1.500 
#    0.000    5.000    0.000    0.000    0.000    0.000 
#    0.000    0.000    0.000    0.000    0.000    0.000 
#
# Total GULP energy -178631.504859 kJ/mol
# GULP energy per Si atom -5582.234527 kJ/mol
# Density = 2.334032 g / cm^3
# Si number density = 23.393563 Si / 1000 Ang^3
#
#
#
# Elastic Constant Matrix: (Units=GPa)
#
#
# Indices 1 2 3 4 5 6 
#
# 1 34.9553 0.1239 22.3575 0.0000 0.0000 0.0000
# 2 0.1239 196.0521 89.8215 0.0000 0.0000 0.0000
# 3 22.3575 89.8215 215.4462 0.0000 0.0000 0.0000
# 4 0.0000 0.0000 0.0000 48.3608 0.0000 0.0000
# 5 0.0000 0.0000 0.0000 0.0000 92.0271 0.0000
# 6 0.0000 0.0000 0.0000 0.0000 0.0000 11.9832
#
#
#
# Elastic Compliance Matrix: (Units=1/GPa)
#
#
# Indices 1 2 3 4 5 6 
#
# 1 0.031151 0.001806 -0.003986 0.000000 0.000000 0.000000
# 2 0.001806 0.006410 -0.002860 0.000000 0.000000 0.000000
# 3 -0.003986 -0.002860 0.006247 0.000000 0.000000 0.000000
# 4 0.000000 0.000000 0.000000 0.020678 0.000000 0.000000
# 5 0.000000 0.000000 0.000000 0.000000 0.010866 0.000000
# 6 0.000000 0.000000 0.000000 0.000000 0.000000 0.083450
#
#
# Mechanical properties :
#
#
# Convention : Reuss Voigt Hill
#
# Bulk Modulus (GPa) = 29.64734 74.56214 52.10474
# Shear Modulus (GPa) = 27.75865 52.75093 40.25479
#
# Velocity S-wave (km/s) = 3.44843 4.75377 4.15271
# Velocity P-wave (km/s) = 5.34382 7.87865 6.73163
#
# Compressibility (1/GPa) = 0.03372984
#
# Stress axis : x y z
#
# Youngs Moduli (GPa) = 32.10185 156.01286 160.06698
#
# Poissons Ratio (x) = -0.28182 0.63798
# Poissons Ratio (y) = -0.05799 0.45775
# Poissons Ratio (z) = 0.12795 0.44615
#
# Static dielectric constant tensor:
#      x y z
#    x 11.184040 0.000000 0.000000 
#    y 0.000000 1.994410 0.000000 
#    z 0.000000 0.000000 1.869440 
# 
# From -- ./inp_files/36266.got.cif
#   From: 2010.05.17/outbox.cif.g08.bks.cpg/sg63_19_cif.got.tgz:36266.got - 2010.06.03 15:47:04.
