data_PCOD9475161
_publ_section_title
;
Structure prediction by ZEFSAII (Michael W. Deem and Ramdas Pophale) SiO2 
 PCOD9475161
Probable space group: C M C M
;
_chemical_formula_sum "Si O2"
_cell_formula_units_Z 68
_cell_length_a 19.753092
_cell_length_b 10.138020
_cell_length_c 17.060781
_cell_angle_alpha 90.000000
_cell_angle_beta 90.000000
_cell_angle_gamma 90.000000
_cell_volume 3416.544945
_symmetry_space_group_name_H-M "C M C M"
_symmetry_group_IT_number 63
_symmetry_cell_setting 'orthorhombic'
loop_
_space_group_symop_operation_xyz
x,y,z
-x,-y,1/2+z
x,-y,-z
-x,y,1/2-z
-x,-y,-z
x,y,1/2-z
-x,y,z
x,-y,1/2+z
1/2+x,1/2+y,z
1/2-x,1/2-y,1/2+z
1/2+x,1/2-y,-z
1/2-x,1/2+y,1/2-z
1/2-x,1/2-y,-z
1/2+x,1/2+y,1/2-z
1/2-x,1/2+y,z
1/2+x,1/2-y,1/2+z
loop_
_atom_site_type_symbol
_atom_site_label
_atom_site_fract_x
_atom_site_fract_y
_atom_site_fract_z
Si Si1 0.419869 0.644236 0.033897
Si Si2 0.308291 0.704506 0.158140
Si Si3 0.211238 0.513786 0.908156
Si Si4 0.000000 0.715978 0.250000
Si Si5 0.074273 0.363662 0.597085
O O1 0.500000 0.645645 0.050357
O O2 0.376365 0.673418 0.110263
O O3 0.402746 0.500000 0.000000
O O4 0.406557 0.755265 0.967920
O O5 0.320411 0.720248 0.250000
O O6 0.256441 0.587068 0.140673
O O7 0.278897 0.838850 0.121786
O O8 0.132794 0.471071 0.898174
O O9 0.228116 0.500000 0.000000
O O10 0.058350 0.705927 0.319881
O O11 0.000000 0.422155 0.576730
#
# Coordination Sequence:
#
# PCOD9475161 Si02
#       5
#    16  16  16   4  16
#     4  10  22  45  68  96 136 177 226 274 338 412
#     4  12  28  43  66 102 136 180 227 281 340 396
#     4  12  25  46  70  95 136 179 228 277 341 410
#     4   8  20  40  64 104 128 164 228 282 334 396
#     4   9  21  40  68  98 126 173 218 278 336 394
#
# _framework density 19.903147000000001
#
# number of rings (size 3 to 8) (size 9 to 14) (size 15 to 20)
#    0.706    0.706    2.353    2.118    6.588    1.882 
#    2.118    0.000    0.000    0.000    0.000    0.000 
#    0.000    0.000    0.000    0.000    0.000    0.000 
#
# Total GULP energy -189462.237653 kJ/mol
# GULP energy per Si atom -5572.418755 kJ/mol
# Density = 1.985785 g / cm^3
# Si number density = 19.903147 Si / 1000 Ang^3
#
#
#
# Elastic Constant Matrix: (Units=GPa)
#
#
# Indices 1 2 3 4 5 6 
#
# 1 35.0338 21.3441 22.6348 0.0000 0.0000 0.0000
# 2 21.3441 90.2727 29.5746 0.0000 0.0000 0.0000
# 3 22.6348 29.5746 169.6069 0.0000 0.0000 0.0000
# 4 0.0000 0.0000 0.0000 17.3907 0.0000 0.0000
# 5 0.0000 0.0000 0.0000 0.0000 27.1065 0.0000
# 6 0.0000 0.0000 0.0000 0.0000 0.0000 24.4072
#
#
#
# Elastic Compliance Matrix: (Units=1/GPa)
#
#
# Indices 1 2 3 4 5 6 
#
# 1 0.035140 -0.007183 -0.003437 0.000000 0.000000 0.000000
# 2 -0.007183 0.013217 -0.001346 0.000000 0.000000 0.000000
# 3 -0.003437 -0.001346 0.006589 0.000000 0.000000 0.000000
# 4 0.000000 0.000000 0.000000 0.057502 0.000000 0.000000
# 5 0.000000 0.000000 0.000000 0.000000 0.036892 0.000000
# 6 0.000000 0.000000 0.000000 0.000000 0.000000 0.040972
#
#
# Mechanical properties :
#
#
# Convention : Reuss Voigt Hill
#
# Bulk Modulus (GPa) = 32.24247 49.11336 40.67791
# Shear Modulus (GPa) = 22.26361 28.53820 25.40090
#
# Velocity S-wave (km/s) = 3.34817 3.79073 3.57631
# Velocity P-wave (km/s) = 5.58407 6.62490 6.12663
#
# Compressibility (1/GPa) = 0.03101499
#
# Stress axis : x y z
#
# Youngs Moduli (GPa) = 28.45721 75.66136 151.75847
#
# Poissons Ratio (x) = 0.54344 0.52163
# Poissons Ratio (y) = 0.20439 0.20428
# Poissons Ratio (z) = 0.09781 0.10185
#
# Static dielectric constant tensor:
#      x y z
#    x 1.715160 0.000000 0.000000 
#    y 0.000000 1.730540 0.000000 
#    z 0.000000 0.000000 1.660150 
# 
# From -- ./inp_files/46636.got.cif
#   From: 2010.05.17/outbox.cif.g08.bks.cpg/sg63_24_cif.got.tgz:46636.got - 2010.06.03 15:47:04.
