data_PCOD9475568
_publ_section_title
;
Structure prediction by ZEFSAII (Michael W. Deem and Ramdas Pophale) SiO2 
 PCOD9475568
Probable space group: C M C M
;
_chemical_formula_sum "Si O2"
_cell_formula_units_Z 80
_cell_length_a 12.086298
_cell_length_b 15.062782
_cell_length_c 24.234944
_cell_angle_alpha 90.000000
_cell_angle_beta 90.000000
_cell_angle_gamma 90.000000
_cell_volume 4412.050851
_symmetry_space_group_name_H-M "C M C M"
_symmetry_group_IT_number 63
_symmetry_cell_setting 'orthorhombic'
loop_
_space_group_symop_operation_xyz
x,y,z
-x,-y,1/2+z
x,-y,-z
-x,y,1/2-z
-x,-y,-z
x,y,1/2-z
-x,y,z
x,-y,1/2+z
1/2+x,1/2+y,z
1/2-x,1/2-y,1/2+z
1/2+x,1/2-y,-z
1/2-x,1/2+y,1/2-z
1/2-x,1/2-y,-z
1/2+x,1/2+y,1/2-z
1/2-x,1/2+y,z
1/2+x,1/2-y,1/2+z
loop_
_atom_site_type_symbol
_atom_site_label
_atom_site_fract_x
_atom_site_fract_y
_atom_site_fract_z
Si Si1 0.730354 0.276208 0.064122
Si Si2 0.000000 0.862965 0.456982
Si Si3 0.866023 0.578464 0.870278
Si Si4 0.629414 0.855984 0.250000
Si Si5 0.500000 0.568597 0.427173
Si Si6 0.133147 0.142688 0.250000
Si Si7 0.230031 0.099497 0.132462
O O1 0.609916 0.320086 0.066475
O O2 0.817696 0.348747 0.087126
O O3 0.731924 0.190252 0.103330
O O4 0.750000 0.250000 0.000000
O O5 0.000000 0.860083 0.523447
O O6 0.000000 0.967192 0.445845
O O7 0.827804 0.607527 0.808372
O O8 0.813400 0.481415 0.879591
O O9 0.000000 0.577382 0.872992
O O10 0.500000 0.880556 0.250000
O O11 0.636250 0.749763 0.250000
O O12 0.388903 0.580724 0.393813
O O13 0.200566 0.110600 0.196660
O O14 0.000000 0.118390 0.250000
#
# Coordination Sequence:
#
# PCOD9475568 Si02
#       7
#    16   8  16   8   8   8  16
#     4  12  26  41  67  94 130 171 217 271 322 383
#     4  11  24  44  62  92 132 174 217 269 325 375
#     4  11  25  44  66  96 134 172 215 266 323 388
#     4   9  19  40  66  91 125 168 211 261 316 379
#     4  11  22  41  68  89 127 172 220 266 323 382
#     4  11  21  36  71 102 122 163 219 266 319 384
#     4  12  24  42  66  99 129 168 217 267 323 388
#
# _framework density 18.132158
#
# number of rings (size 3 to 8) (size 9 to 14) (size 15 to 20)
#    0.000    0.800    7.000    0.600    4.200    0.800 
#    0.000    1.000    0.000    1.200    0.000    0.000 
#    0.000    0.000    0.000    0.000    0.000    0.000 
#
# Total GULP energy -223232.267051 kJ/mol
# GULP energy per Si atom -5580.806676 kJ/mol
# Density = 1.809089 g / cm^3
# Si number density = 18.132158 Si / 1000 Ang^3
#
#
#
# Elastic Constant Matrix: (Units=GPa)
#
#
# Indices 1 2 3 4 5 6 
#
# 1 125.3092 64.5722 52.7276 0.0000 0.0000 0.0000
# 2 64.5722 133.9535 61.9653 0.0000 0.0000 0.0000
# 3 52.7276 61.9653 131.5931 0.0000 0.0000 0.0000
# 4 0.0000 0.0000 0.0000 20.4240 0.0000 0.0000
# 5 0.0000 0.0000 0.0000 0.0000 34.3703 0.0000
# 6 0.0000 0.0000 0.0000 0.0000 0.0000 34.1940
#
#
#
# Elastic Compliance Matrix: (Units=1/GPa)
#
#
# Indices 1 2 3 4 5 6 
#
# 1 0.011223 -0.004257 -0.002492 0.000000 0.000000 0.000000
# 2 -0.004257 0.011159 -0.003549 0.000000 0.000000 0.000000
# 3 -0.002492 -0.003549 0.010269 0.000000 0.000000 0.000000
# 4 0.000000 0.000000 0.000000 0.048962 0.000000 0.000000
# 5 0.000000 0.000000 0.000000 0.000000 0.029095 0.000000
# 6 0.000000 0.000000 0.000000 0.000000 0.000000 0.029245
#
#
# Mechanical properties :
#
#
# Convention : Reuss Voigt Hill
#
# Bulk Modulus (GPa) = 82.95762 83.26511 83.11137
# Shear Modulus (GPa) = 30.38283 31.90370 31.14326
#
# Velocity S-wave (km/s) = 4.09789 4.19920 4.14885
# Velocity P-wave (km/s) = 8.26083 8.33858 8.29980
#
# Compressibility (1/GPa) = 0.01205435
#
# Stress axis : x y z
#
# Youngs Moduli (GPa) = 89.10637 89.61349 97.38138
#
# Poissons Ratio (x) = 0.38148 0.24269
# Poissons Ratio (y) = 0.37932 0.34560
# Poissons Ratio (z) = 0.22207 0.31803
#
# Static dielectric constant tensor:
#      x y z
#    x 1.588930 0.000000 0.000000 
#    y 0.000000 0.624970 0.000000 
#    z 0.000000 0.000000 1.644350 
# 
# From -- ./inp_files/61199.got.cif
#   From: 2010.05.17/outbox.cif.g08.bks.cpg/sg63_31_cif.got.tgz:61199.got - 2010.06.03 15:47:04.
