data_PCOD9475987
_publ_section_title
;
Structure prediction by ZEFSAII (Michael W. Deem and Ramdas Pophale) SiO2 
 PCOD9475987
Probable space group: C M C M
;
_chemical_formula_sum "Si O2"
_cell_formula_units_Z 80
_cell_length_a 14.269822
_cell_length_b 14.522226
_cell_length_c 16.084733
_cell_angle_alpha 90.000000
_cell_angle_beta 90.000000
_cell_angle_gamma 90.000000
_cell_volume 3333.232465
_symmetry_space_group_name_H-M "C M C M"
_symmetry_group_IT_number 63
_symmetry_cell_setting 'orthorhombic'
loop_
_space_group_symop_operation_xyz
x,y,z
-x,-y,1/2+z
x,-y,-z
-x,y,1/2-z
-x,-y,-z
x,y,1/2-z
-x,y,z
x,-y,1/2+z
1/2+x,1/2+y,z
1/2-x,1/2-y,1/2+z
1/2+x,1/2-y,-z
1/2-x,1/2+y,1/2-z
1/2-x,1/2-y,-z
1/2+x,1/2+y,1/2-z
1/2-x,1/2+y,z
1/2+x,1/2-y,1/2+z
loop_
_atom_site_type_symbol
_atom_site_label
_atom_site_fract_x
_atom_site_fract_y
_atom_site_fract_z
Si Si1 0.646939 0.640093 0.341534
Si Si2 0.360615 0.727048 0.989768
Si Si3 0.601000 0.069198 0.845507
Si Si4 0.698822 0.549788 0.913938
Si Si5 0.870990 0.349901 0.658369
O O1 0.608884 0.658843 0.250000
O O2 0.606667 0.700036 0.417498
O O3 0.649027 0.529966 0.360609
O O4 0.758447 0.659354 0.340236
O O5 0.367988 0.633043 0.937134
O O6 0.400390 0.803472 0.927962
O O7 0.250000 0.750000 0.000000
O O8 0.600669 0.100305 0.750000
O O9 0.500000 0.096240 0.883823
O O10 0.604466 0.957588 0.845228
O O11 0.703371 0.091910 0.880764
O O12 0.725750 0.500000 0.000000
O O13 0.901420 0.314866 0.750000
#
# Coordination Sequence:
#
# PCOD9475987 Si02
#       5
#    16  16  16  16  16
#     4   8  14  25  38  53  78 107 134 168 210 256
#     4   9  16  25  38  57  82 107 138 176 215 258
#     4   9  17  29  43  59  84 119 154 181 206 246
#     4   9  16  25  38  57  79 107 141 176 212 253
#     4   8  14  24  38  57  81 110 141 175 215 249
#
# _framework density 24.000726
#
# number of rings (size 3 to 8) (size 9 to 14) (size 15 to 20)
#    0.000    3.400    0.000    3.000    0.000    2.000 
#    0.000    0.000    0.000    0.000    0.000    0.000 
#    0.000    9.600    0.000    9.800    0.000  117.800 
#
# Total GULP energy -223010.927967 kJ/mol
# GULP energy per Si atom -5575.273199 kJ/mol
# Density = 2.394610 g / cm^3
# Si number density = 24.000726 Si / 1000 Ang^3
#
#
#
# Elastic Constant Matrix: (Units=GPa)
#
#
# Indices 1 2 3 4 5 6 
#
# 1 73.0432 0.5157 8.6542 0.0000 0.0000 0.0000
# 2 0.5157 67.5884 52.6651 0.0000 0.0000 0.0000
# 3 8.6542 52.6651 156.6720 0.0000 0.0000 0.0000
# 4 0.0000 0.0000 0.0000 29.3379 0.0000 0.0000
# 5 0.0000 0.0000 0.0000 0.0000 -25.8194 0.0000
# 6 0.0000 0.0000 0.0000 0.0000 0.0000 -21.2945
#
#
#
# Elastic Compliance Matrix: (Units=1/GPa)
#
#
# Indices 1 2 3 4 5 6 
#
# 1 0.013803 0.000662 -0.000985 0.000000 0.000000 0.000000
# 2 0.000662 0.020078 -0.006786 0.000000 0.000000 0.000000
# 3 -0.000985 -0.006786 0.008718 0.000000 0.000000 0.000000
# 4 0.000000 0.000000 0.000000 0.034086 0.000000 0.000000
# 5 0.000000 0.000000 0.000000 0.000000 -0.038731 0.000000
# 6 0.000000 0.000000 0.000000 0.000000 0.000000 -0.046960
#
#
# Mechanical properties :
#
#
# Convention : Reuss Voigt Hill
#
# Bulk Modulus (GPa) = 35.23415 46.77482 41.00449
# Shear Modulus (GPa) = 340.81345 12.14270 176.47807
#
# Velocity S-wave (km/s) = 11.92936 2.25173 8.58428
# Velocity P-wave (km/s) = 14.29890 5.12753 10.74128
#
# Compressibility (1/GPa) = 0.02838156
#
# Stress axis : x y z
#
# Youngs Moduli (GPa) = 72.45028 49.80613 114.70279
#
# Poissons Ratio (x) = -0.03298 0.11299
# Poissons Ratio (y) = -0.04798 0.77834
# Poissons Ratio (z) = 0.07137 0.33797
#
# Static dielectric constant tensor:
#      x y z
#    x 1.993540 0.000000 0.000000 
#    y 0.000000 1.948390 0.000000 
#    z 0.000000 0.000000 1.964310 
# 
# From -- ./inp_files/33855.got.cif
#   From: 2010.05.17/outbox.cif.g08.bks.cpg/sg63_17_cif.got.tgz:33855.got - 2010.06.03 15:47:04.
