data_PCOD9475031
_publ_section_title
;
Structure prediction by ZEFSAII (Michael W. Deem and Ramdas Pophale) SiO2 
 PCOD9475031
Probable space group: C M C M
;
_chemical_formula_sum "Si O2"
_cell_formula_units_Z 96
_cell_length_a 20.090260
_cell_length_b 14.092026
_cell_length_c 16.221656
_cell_angle_alpha 90.000000
_cell_angle_beta 90.000000
_cell_angle_gamma 90.000000
_cell_volume 4592.553037
_symmetry_space_group_name_H-M "C M C M"
_symmetry_group_IT_number 63
_symmetry_cell_setting 'orthorhombic'
loop_
_space_group_symop_operation_xyz
x,y,z
-x,-y,1/2+z
x,-y,-z
-x,y,1/2-z
-x,-y,-z
x,y,1/2-z
-x,y,z
x,-y,1/2+z
1/2+x,1/2+y,z
1/2-x,1/2-y,1/2+z
1/2+x,1/2-y,-z
1/2-x,1/2+y,1/2-z
1/2-x,1/2-y,-z
1/2+x,1/2+y,1/2-z
1/2-x,1/2+y,z
1/2+x,1/2-y,1/2+z
loop_
_atom_site_type_symbol
_atom_site_label
_atom_site_fract_x
_atom_site_fract_y
_atom_site_fract_z
Si Si1 0.374919 0.244367 0.847702
Si Si2 0.161477 0.908154 0.158596
Si Si3 0.288519 0.024377 0.401555
Si Si4 0.073408 0.550021 0.591185
Si Si5 0.229949 0.743741 0.094200
Si Si6 0.921550 0.946173 0.583250
O O1 0.393501 0.244180 0.750000
O O2 0.413687 0.163302 0.899781
O O3 0.295729 0.225418 0.855600
O O4 0.388679 0.347264 0.889009
O O5 0.167743 0.871853 0.250000
O O6 0.224649 0.974364 0.137326
O O7 0.168598 0.814935 0.103957
O O8 0.097458 0.973659 0.149062
O O9 0.359578 0.989747 0.368056
O O10 0.285733 0.000000 0.500000
O O11 0.285396 0.135768 0.386777
O O12 0.073222 0.500000 0.500000
O O13 0.000000 0.530134 0.626294
O O14 0.250000 0.750000 0.000000
O O15 0.000000 0.930279 0.575215
O O16 0.896483 0.000000 0.500000
#
# Coordination Sequence:
#
# PCOD9475031 Si02
#       6
#    16  16  16  16  16  16
#     4  12  24  41  69 102 133 168 221 289 338 377
#     4  12  24  39  62  94 131 168 211 269 330 386
#     4  11  21  39  64  92 123 170 216 267 321 392
#     4  10  22  41  64  94 132 174 217 266 332 402
#     4  12  22  38  65  96 131 171 221 268 325 396
#     4  11  25  44  67  96 132 178 224 266 324 397
#
# _framework density 20.903404999999999
#
# number of rings (size 3 to 8) (size 9 to 14) (size 15 to 20)
#    0.000    0.667    5.000    4.000    0.000    3.000 
#    0.000    2.500    0.000    0.000    0.000    0.000 
#    0.000    0.000    0.000    0.000    0.000    0.000 
#
# Total GULP energy -267866.033661 kJ/mol
# GULP energy per Si atom -5580.542368 kJ/mol
# Density = 2.085583 g / cm^3
# Si number density = 20.903405 Si / 1000 Ang^3
#
#
#
# Elastic Constant Matrix: (Units=GPa)
#
#
# Indices 1 2 3 4 5 6 
#
# 1 40.7826 -0.5547 -9.2304 0.0000 0.0000 0.0000
# 2 -0.5547 136.8008 23.2984 0.0000 0.0000 0.0000
# 3 -9.2304 23.2984 77.1188 0.0000 0.0000 0.0000
# 4 0.0000 0.0000 0.0000 19.4097 0.0000 0.0000
# 5 0.0000 0.0000 0.0000 0.0000 3.6382 0.0000
# 6 0.0000 0.0000 0.0000 0.0000 0.0000 24.4216
#
#
#
# Elastic Compliance Matrix: (Units=1/GPa)
#
#
# Indices 1 2 3 4 5 6 
#
# 1 0.025227 -0.000434 0.003151 0.000000 0.000000 0.000000
# 2 -0.000434 0.007714 -0.002382 0.000000 0.000000 0.000000
# 3 0.003151 -0.002382 0.014064 0.000000 0.000000 0.000000
# 4 0.000000 0.000000 0.000000 0.051521 0.000000 0.000000
# 5 0.000000 0.000000 0.000000 0.000000 0.274862 0.000000
# 6 0.000000 0.000000 0.000000 0.000000 0.000000 0.040947
#
#
# Mechanical properties :
#
#
# Convention : Reuss Voigt Hill
#
# Bulk Modulus (GPa) = 20.97616 31.30319 26.13967
# Shear Modulus (GPa) = 11.63986 25.57317 18.60651
#
# Velocity S-wave (km/s) = 2.36231 3.50150 2.98672
# Velocity P-wave (km/s) = 4.18297 5.59956 4.94228
#
# Compressibility (1/GPa) = 0.04767317
#
# Stress axis : x y z
#
# Youngs Moduli (GPa) = 39.63938 129.63637 71.10414
#
# Poissons Ratio (x) = 0.05630 -0.22403
# Poissons Ratio (y) = 0.01722 0.16940
# Poissons Ratio (z) = -0.12489 0.30885
#
# Static dielectric constant tensor:
#      x y z
#    x 1.750990 0.000000 0.000000 
#    y 0.000000 1.762770 0.000000 
#    z 0.000000 0.000000 1.810810 
# 
# From -- ./inp_files/35388.got.cif
#   From: 2010.05.17/outbox.cif.g08.bks.cpg/sg63_18_cif.got.tgz:35388.got - 2010.06.03 15:47:04.
