data_PCOD9475960
_publ_section_title
;
Structure prediction by ZEFSAII (Michael W. Deem and Ramdas Pophale) SiO2 
 PCOD9475960
Probable space group: C M C M
;
_chemical_formula_sum "Si O2"
_cell_formula_units_Z 80
_cell_length_a 14.344461
_cell_length_b 29.529089
_cell_length_c 7.316549
_cell_angle_alpha 90.000000
_cell_angle_beta 90.000000
_cell_angle_gamma 90.000000
_cell_volume 3099.135525
_symmetry_space_group_name_H-M "C M C M"
_symmetry_group_IT_number 63
_symmetry_cell_setting 'orthorhombic'
loop_
_space_group_symop_operation_xyz
x,y,z
-x,-y,1/2+z
x,-y,-z
-x,y,1/2-z
-x,-y,-z
x,y,1/2-z
-x,y,z
x,-y,1/2+z
1/2+x,1/2+y,z
1/2-x,1/2-y,1/2+z
1/2+x,1/2-y,-z
1/2-x,1/2+y,1/2-z
1/2-x,1/2-y,-z
1/2+x,1/2+y,1/2-z
1/2-x,1/2+y,z
1/2+x,1/2-y,1/2+z
loop_
_atom_site_type_symbol
_atom_site_label
_atom_site_fract_x
_atom_site_fract_y
_atom_site_fract_z
Si Si1 0.359894 0.354446 0.541230
Si Si2 0.639106 0.742677 0.031945
Si Si3 0.142859 0.339670 0.471505
Si Si4 0.099266 0.439544 0.539603
Si Si5 0.809610 0.049975 0.468511
O O1 0.393977 0.356549 0.750000
O O2 0.393031 0.306280 0.459132
O O3 0.248685 0.345718 0.539682
O O4 0.365315 0.405486 0.462576
O O5 0.623622 0.740368 0.250000
O O6 0.750000 0.750000 0.000000
O O7 0.897296 0.708637 0.031819
O O8 0.143820 0.339772 0.250000
O O9 0.096221 0.385246 0.536048
O O10 0.101118 0.455125 0.750000
O O11 0.201892 0.450506 0.460056
O O12 0.000000 0.454136 0.456565
O O13 0.803114 0.056724 0.250000
O O14 0.849932 0.000000 0.500000
#
# Coordination Sequence:
#
# PCOD9475960 Si02
#       5
#    16  16  16  16  16
#     4   8  14  25  37  48  66  91 111 127 158 208
#     4   8  13  21  34  51  69  86 103 125 157 200
#     4   9  15  22  35  55  71  81 101 137 173 199
#     4   9  18  31  41  47  61  89 120 145 174 214
#     4   9  17  27  38  50  64  85 115 149 179 204
#
# _framework density 25.813648000000001
#
# number of rings (size 3 to 8) (size 9 to 14) (size 15 to 20)
#    0.000    3.400    0.000    1.800    0.000    4.800 
#    0.000    0.000    0.000    0.000    0.000    0.000 
#    0.000    0.000    0.000    0.000    0.000    1.000 
#
# Total GULP energy -222836.994545 kJ/mol
# GULP energy per Si atom -5570.924864 kJ/mol
# Density = 2.575490 g / cm^3
# Si number density = 25.813648 Si / 1000 Ang^3
#
#
#
# Elastic Constant Matrix: (Units=GPa)
#
#
# Indices 1 2 3 4 5 6 
#
# 1 71.0446 10.7041 -2.4883 0.0000 0.0000 0.0000
# 2 10.7041 310.9349 -0.2074 0.0000 0.0000 0.0000
# 3 -2.4883 -0.2074 122.3118 0.0000 0.0000 0.0000
# 4 0.0000 0.0000 0.0000 19.2329 0.0000 0.0000
# 5 0.0000 0.0000 0.0000 0.0000 -19.9566 0.0000
# 6 0.0000 0.0000 0.0000 0.0000 0.0000 -47.6553
#
#
#
# Elastic Compliance Matrix: (Units=1/GPa)
#
#
# Indices 1 2 3 4 5 6 
#
# 1 0.014159 -0.000487 0.000287 0.000000 0.000000 0.000000
# 2 -0.000487 0.003233 -0.000004 0.000000 0.000000 0.000000
# 3 0.000287 -0.000004 0.008182 0.000000 0.000000 0.000000
# 4 0.000000 0.000000 0.000000 0.051994 0.000000 0.000000
# 5 0.000000 0.000000 0.000000 0.000000 -0.050109 0.000000
# 6 0.000000 0.000000 0.000000 0.000000 0.000000 -0.020984
#
#
# Mechanical properties :
#
#
# Convention : Reuss Voigt Hill
#
# Bulk Modulus (GPa) = 39.73805 57.81200 48.77502
# Shear Modulus (GPa) = 327.39181 23.40974 175.40078
#
# Velocity S-wave (km/s) = 11.27405 3.01470 8.25205
# Velocity P-wave (km/s) = 13.59779 5.87898 10.47527
#
# Compressibility (1/GPa) = 0.02516480
#
# Stress axis : x y z
#
# Youngs Moduli (GPa) = 70.62575 309.32198 122.22451
#
# Poissons Ratio (x) = 0.15071 -0.03511
# Poissons Ratio (y) = 0.03441 0.00054
# Poissons Ratio (z) = -0.02029 0.00137
#
# Static dielectric constant tensor:
#      x y z
#    x 2.060380 0.000000 0.000000 
#    y 0.000000 2.108000 0.000000 
#    z 0.000000 0.000000 1.994000 
# 
# From -- ./inp_files/10961.got.cif
#   From: 2010.05.17/outbox.cif.g08.bks.cpg/sg63_6_cif.got.tgz:10961.got - 2010.06.03 15:47:04.
