data_PCOD9475287
_publ_section_title
;
Structure prediction by ZEFSAII (Michael W. Deem and Ramdas Pophale) SiO2 
 PCOD9475287
Probable space group: C M C M
;
_chemical_formula_sum "Si O2"
_cell_formula_units_Z 32
_cell_length_a 7.777338
_cell_length_b 10.856768
_cell_length_c 17.291718
_cell_angle_alpha 90.000000
_cell_angle_beta 90.000000
_cell_angle_gamma 90.000000
_cell_volume 1460.056545
_symmetry_space_group_name_H-M "C M C M"
_symmetry_group_IT_number 63
_symmetry_cell_setting 'orthorhombic'
loop_
_space_group_symop_operation_xyz
x,y,z
-x,-y,1/2+z
x,-y,-z
-x,y,1/2-z
-x,-y,-z
x,y,1/2-z
-x,y,z
x,-y,1/2+z
1/2+x,1/2+y,z
1/2-x,1/2-y,1/2+z
1/2+x,1/2-y,-z
1/2-x,1/2+y,1/2-z
1/2-x,1/2-y,-z
1/2+x,1/2+y,1/2-z
1/2-x,1/2+y,z
1/2+x,1/2-y,1/2+z
loop_
_atom_site_type_symbol
_atom_site_label
_atom_site_fract_x
_atom_site_fract_y
_atom_site_fract_z
Si Si1 0.500000 0.615956 0.442072
Si Si2 0.805058 0.035775 0.838934
Si Si3 0.500000 0.883521 0.056807
O O1 0.500000 0.500000 0.500000
O O2 0.661691 0.592487 0.385056
O O3 0.500000 0.748228 0.480307
O O4 0.754094 0.019064 0.750000
O O5 0.666026 0.107254 0.888206
O O6 0.000000 0.089810 0.839340
O O7 0.500000 0.000000 0.000000
#
# Coordination Sequence:
#
# PCOD9475287 Si02
#       3
#     8  16   8
#     4  10  23  45  65  97 143 174 219 278 334 400
#     4   9  22  44  65  95 134 172 219 281 339 396
#     4  12  25  41  71 101 133 180 227 274 334 404
#
# _framework density 21.916957
#
# number of rings (size 3 to 8) (size 9 to 14) (size 15 to 20)
#    1.500    0.500    0.000    2.250    0.000   12.000 
#    4.500    0.000    0.000    0.000    0.000    0.000 
#    0.000    0.000    0.000    0.000    0.000    0.000 
#
# Total GULP energy -89108.961939 kJ/mol
# GULP energy per Si atom -5569.310121 kJ/mol
# Density = 2.186707 g / cm^3
# Si number density = 21.916957 Si / 1000 Ang^3
#
#
#
# Elastic Constant Matrix: (Units=GPa)
#
#
# Indices 1 2 3 4 5 6 
#
# 1 95.5749 36.1584 24.2921 0.0000 0.0000 0.0000
# 2 36.1584 165.5780 74.2919 0.0000 0.0000 0.0000
# 3 24.2921 74.2919 152.8886 0.0000 0.0000 0.0000
# 4 0.0000 0.0000 0.0000 18.8691 0.0000 0.0000
# 5 0.0000 0.0000 0.0000 0.0000 32.3867 0.0000
# 6 0.0000 0.0000 0.0000 0.0000 0.0000 15.0591
#
#
#
# Elastic Compliance Matrix: (Units=1/GPa)
#
#
# Indices 1 2 3 4 5 6 
#
# 1 0.011477 -0.002159 -0.000775 0.000000 0.000000 0.000000
# 2 -0.002159 0.008129 -0.003607 0.000000 0.000000 0.000000
# 3 -0.000775 -0.003607 0.008417 0.000000 0.000000 0.000000
# 4 0.000000 0.000000 0.000000 0.052997 0.000000 0.000000
# 5 0.000000 0.000000 0.000000 0.000000 0.030877 0.000000
# 6 0.000000 0.000000 0.000000 0.000000 0.000000 0.066405
#
#
# Mechanical properties :
#
#
# Convention : Reuss Voigt Hill
#
# Bulk Modulus (GPa) = 66.92729 75.94737 71.43733
# Shear Modulus (GPa) = 25.46311 31.88292 28.67302
#
# Velocity S-wave (km/s) = 3.41222 3.81821 3.62091
# Velocity P-wave (km/s) = 6.79171 7.35975 7.08143
#
# Compressibility (1/GPa) = 0.01494159
#
# Stress axis : x y z
#
# Youngs Moduli (GPa) = 87.13424 123.01082 118.81267
#
# Poissons Ratio (x) = 0.26554 0.09202
# Poissons Ratio (y) = 0.18810 0.42859
# Poissons Ratio (z) = 0.06749 0.44373
#
# Static dielectric constant tensor:
#      x y z
#    x 1.847230 0.000000 0.000000 
#    y 0.000000 1.812480 0.000000 
#    z 0.000000 0.000000 1.851090 
# 
# From -- ./inp_files/26464.got.cif
#   From: 2010.05.17/outbox.cif.g08.bks.cpg/sg63_14_cif.got.tgz:26464.got - 2010.06.03 15:47:04.
