data_PCOD9475129
_publ_section_title
;
Structure prediction by ZEFSAII (Michael W. Deem and Ramdas Pophale) SiO2 
 PCOD9475129
Probable space group: C M C M
;
_chemical_formula_sum "Si O2"
_cell_formula_units_Z 84
_cell_length_a 17.377007
_cell_length_b 12.616897
_cell_length_c 20.570042
_cell_angle_alpha 90.000000
_cell_angle_beta 90.000000
_cell_angle_gamma 90.000000
_cell_volume 4509.856385
_symmetry_space_group_name_H-M "C M C M"
_symmetry_group_IT_number 63
_symmetry_cell_setting 'orthorhombic'
loop_
_space_group_symop_operation_xyz
x,y,z
-x,-y,1/2+z
x,-y,-z
-x,y,1/2-z
-x,-y,-z
x,y,1/2-z
-x,y,z
x,-y,1/2+z
1/2+x,1/2+y,z
1/2-x,1/2-y,1/2+z
1/2+x,1/2-y,-z
1/2-x,1/2+y,1/2-z
1/2-x,1/2-y,-z
1/2+x,1/2+y,1/2-z
1/2-x,1/2+y,z
1/2+x,1/2-y,1/2+z
loop_
_atom_site_type_symbol
_atom_site_label
_atom_site_fract_x
_atom_site_fract_y
_atom_site_fract_z
Si Si1 0.156964 0.848831 0.070597
Si Si2 0.412809 0.933005 0.750000
Si Si3 0.349571 0.530452 0.323831
Si Si4 0.810135 0.619123 0.124931
Si Si5 0.500000 0.629050 0.002334
Si Si6 0.500000 0.330828 0.847130
Si Si7 0.223886 0.500000 0.000000
Si Si8 0.000000 0.359062 0.250000
O O1 0.140511 0.931582 0.128425
O O2 0.184777 0.738592 0.099701
O O3 0.220130 0.905242 0.024547
O O4 0.077649 0.833979 0.032245
O O5 0.500000 0.887477 0.750000
O O6 0.367789 0.900809 0.815134
O O7 0.427942 0.060123 0.750000
O O8 0.336423 0.495471 0.250000
O O9 0.275138 0.593340 0.349046
O O10 0.424350 0.604149 0.326747
O O11 0.822406 0.542383 0.062443
O O12 0.500000 0.670768 0.075383
O O13 0.500000 0.500000 0.000000
O O14 0.500000 0.217904 0.811891
#
# Coordination Sequence:
#
# PCOD9475129 Si02
#       8
#    16   8  16  16   8   8   8   4
#     4  11  23  39  66  99 130 174 211 278 332 392
#     4  10  26  49  60  91 134 167 228 277 316 390
#     4  11  22  39  63  98 134 165 224 265 323 405
#     4  11  24  43  68  96 131 180 219 273 339 387
#     4  12  20  39  64  91 137 165 208 279 340 385
#     4  12  22  42  66  96 131 173 213 268 331 392
#     4  10  22  43  65  96 138 162 228 266 318 412
#     4  10  26  42  64  86 132 174 218 278 312 384
#
# _framework density 18.625869999999999
#
# number of rings (size 3 to 8) (size 9 to 14) (size 15 to 20)
#    0.286    0.762    4.762    1.714    2.667    4.571 
#    0.000    0.476    0.000    0.000    0.000    0.000 
#    0.000    0.000    0.000    0.000    0.000    0.000 
#
# Total GULP energy -234633.922209 kJ/mol
# GULP energy per Si atom -5586.521957 kJ/mol
# Density = 1.858348 g / cm^3
# Si number density = 18.625870 Si / 1000 Ang^3
#
#
#
# Elastic Constant Matrix: (Units=GPa)
#
#
# Indices 1 2 3 4 5 6 
#
# 1 89.4625 38.9963 55.8969 0.0000 0.0000 0.0000
# 2 38.9963 90.4312 56.4875 0.0000 0.0000 0.0000
# 3 55.8969 56.4875 175.6328 0.0000 0.0000 0.0000
# 4 0.0000 0.0000 0.0000 38.7412 0.0000 0.0000
# 5 0.0000 0.0000 0.0000 0.0000 21.0346 0.0000
# 6 0.0000 0.0000 0.0000 0.0000 0.0000 -18.5478
#
#
#
# Elastic Compliance Matrix: (Units=1/GPa)
#
#
# Indices 1 2 3 4 5 6 
#
# 1 0.015253 -0.004437 -0.003428 0.000000 0.000000 0.000000
# 2 -0.004437 0.015129 -0.003454 0.000000 0.000000 0.000000
# 3 -0.003428 -0.003454 0.007895 0.000000 0.000000 0.000000
# 4 0.000000 0.000000 0.000000 0.025812 0.000000 0.000000
# 5 0.000000 0.000000 0.000000 0.000000 0.047541 0.000000
# 6 0.000000 0.000000 0.000000 0.000000 0.000000 -0.053915
#
#
# Mechanical properties :
#
#
# Convention : Reuss Voigt Hill
#
# Bulk Modulus (GPa) = 63.93249 73.14309 68.53779
# Shear Modulus (GPa) = 58.43477 21.85531 40.14504
#
# Velocity S-wave (km/s) = 5.60723 3.42919 4.64760
# Velocity P-wave (km/s) = 8.73616 7.41849 8.10415
#
# Compressibility (1/GPa) = 0.01564150
#
# Stress axis : x y z
#
# Youngs Moduli (GPa) = 65.55933 66.09970 126.65648
#
# Poissons Ratio (x) = 0.29326 0.43413
# Poissons Ratio (y) = 0.29086 0.43744
# Poissons Ratio (z) = 0.22471 0.22829
#
# Static dielectric constant tensor:
#      x y z
#    x 1.656560 0.000000 0.000000 
#    y 0.000000 1.612670 0.000000 
#    z 0.000000 0.000000 1.311350 
# 
# From -- ./inp_files/55365.got.cif
#   From: 2010.05.17/outbox.cif.g08.bks.cpg/sg63_28_cif.got.tgz:55365.got - 2010.06.03 15:47:04.
