data_PCOD9475674
_publ_section_title
;
Structure prediction by ZEFSAII (Michael W. Deem and Ramdas Pophale) SiO2 
 PCOD9475674
Probable space group: C M C M
;
_chemical_formula_sum "Si O2"
_cell_formula_units_Z 56
_cell_length_a 16.880097
_cell_length_b 16.845123
_cell_length_c 9.780353
_cell_angle_alpha 90.000000
_cell_angle_beta 90.000000
_cell_angle_gamma 90.000000
_cell_volume 2781.017069
_symmetry_space_group_name_H-M "C M C M"
_symmetry_group_IT_number 63
_symmetry_cell_setting 'orthorhombic'
loop_
_space_group_symop_operation_xyz
x,y,z
-x,-y,1/2+z
x,-y,-z
-x,y,1/2-z
-x,-y,-z
x,y,1/2-z
-x,y,z
x,-y,1/2+z
1/2+x,1/2+y,z
1/2-x,1/2-y,1/2+z
1/2+x,1/2-y,-z
1/2-x,1/2+y,1/2-z
1/2-x,1/2-y,-z
1/2+x,1/2+y,1/2-z
1/2-x,1/2+y,z
1/2+x,1/2-y,1/2+z
loop_
_atom_site_type_symbol
_atom_site_label
_atom_site_fract_x
_atom_site_fract_y
_atom_site_fract_z
Si Si1 0.832197 0.128230 0.750000
Si Si2 0.353165 0.000000 0.500000
Si Si3 0.787297 0.104254 0.444744
Si Si4 0.779667 0.751546 0.750000
Si Si5 0.909456 0.607740 0.750000
Si Si6 0.410780 0.524041 0.250000
O O1 0.792363 0.104697 0.607382
O O2 0.811630 0.220964 0.750000
O O3 0.908471 0.072011 0.750000
O O4 0.294476 0.940840 0.583366
O O5 0.397659 0.946877 0.386198
O O6 0.790486 0.191276 0.379945
O O7 0.860703 0.057999 0.377109
O O8 0.844188 0.679752 0.750000
O O9 0.000000 0.638670 0.750000
O O10 0.500000 0.552826 0.250000
#
# Coordination Sequence:
#
# PCOD9475674 Si02
#       6
#     8   8  16   8   8   8
#     4  12  20  38  62  96 126 164 214 260 306 370
#     4  12  21  46  71  94 122 164 230 260 295 384
#     4  11  22  39  70  95 120 170 215 267 310 366
#     4  11  23  40  64  94 131 165 216 258 320 381
#     4  12  26  42  66  96 132 168 204 266 328 372
#     4  11  23  40  62  94 133 165 206 258 328 387
#
# _framework density 20.136517000000001
#
# number of rings (size 3 to 8) (size 9 to 14) (size 15 to 20)
#    0.000    0.571    5.714    3.000    0.000    4.571 
#    0.000    0.000    0.000    0.000    0.000    0.000 
#    0.000    0.000    0.000    0.000    0.000    0.000 
#
# Total GULP energy -155905.025112 kJ/mol
# GULP energy per Si atom -5568.036611 kJ/mol
# Density = 2.009069 g / cm^3
# Si number density = 20.136517 Si / 1000 Ang^3
#
#
#
# Elastic Constant Matrix: (Units=GPa)
#
#
# Indices 1 2 3 4 5 6 
#
# 1 102.1105 38.9060 28.4189 0.0000 0.0000 0.0000
# 2 38.9060 121.9650 42.3264 0.0000 0.0000 0.0000
# 3 28.4189 42.3264 136.3388 0.0000 0.0000 0.0000
# 4 0.0000 0.0000 0.0000 27.2651 0.0000 0.0000
# 5 0.0000 0.0000 0.0000 0.0000 -10.6041 0.0000
# 6 0.0000 0.0000 0.0000 0.0000 0.0000 16.4240
#
#
#
# Elastic Compliance Matrix: (Units=1/GPa)
#
#
# Indices 1 2 3 4 5 6 
#
# 1 0.011380 -0.003146 -0.001395 0.000000 0.000000 0.000000
# 2 -0.003146 0.010059 -0.002467 0.000000 0.000000 0.000000
# 3 -0.001395 -0.002467 0.008391 0.000000 0.000000 0.000000
# 4 0.000000 0.000000 0.000000 0.036677 0.000000 0.000000
# 5 0.000000 0.000000 0.000000 0.000000 -0.094303 0.000000
# 6 0.000000 0.000000 0.000000 0.000000 0.000000 0.060887
#
#
# Mechanical properties :
#
#
# Convention : Reuss Voigt Hill
#
# Bulk Modulus (GPa) = 63.23649 64.41297 63.82473
# Shear Modulus (GPa) = 95.45779 23.33452 59.39616
#
# Velocity S-wave (km/s) = 6.89262 3.40783 5.43698
# Velocity P-wave (km/s) = 9.73737 6.89507 8.43678
#
# Compressibility (1/GPa) = 0.01581365
#
# Stress axis : x y z
#
# Youngs Moduli (GPa) = 87.87056 99.41593 119.16926
#
# Poissons Ratio (x) = 0.31276 0.16630
# Poissons Ratio (y) = 0.27644 0.29399
# Poissons Ratio (z) = 0.12262 0.24526
#
# Static dielectric constant tensor:
#      x y z
#    x 1.673830 0.000000 0.000000 
#    y 0.000000 1.770640 0.000000 
#    z 0.000000 0.000000 1.636590 
# 
# From -- ./inp_files/20521.got.cif
#   From: 2010.05.17/outbox.cif.g08.bks.cpg/sg63_11_cif.got.tgz:20521.got - 2010.06.03 15:47:04.
