data_PCOD9475297
_publ_section_title
;
Structure prediction by ZEFSAII (Michael W. Deem and Ramdas Pophale) SiO2 
 PCOD9475297
Probable space group: C M C M
;
_chemical_formula_sum "Si O2"
_cell_formula_units_Z 56
_cell_length_a 24.854479
_cell_length_b 11.349335
_cell_length_c 10.079597
_cell_angle_alpha 90.000000
_cell_angle_beta 90.000000
_cell_angle_gamma 90.000000
_cell_volume 2843.270950
_symmetry_space_group_name_H-M "C M C M"
_symmetry_group_IT_number 63
_symmetry_cell_setting 'orthorhombic'
loop_
_space_group_symop_operation_xyz
x,y,z
-x,-y,1/2+z
x,-y,-z
-x,y,1/2-z
-x,-y,-z
x,y,1/2-z
-x,y,z
x,-y,1/2+z
1/2+x,1/2+y,z
1/2-x,1/2-y,1/2+z
1/2+x,1/2-y,-z
1/2-x,1/2+y,1/2-z
1/2-x,1/2-y,-z
1/2+x,1/2+y,1/2-z
1/2-x,1/2+y,z
1/2+x,1/2-y,1/2+z
loop_
_atom_site_type_symbol
_atom_site_label
_atom_site_fract_x
_atom_site_fract_y
_atom_site_fract_z
Si Si1 0.110953 0.274121 0.500556
Si Si2 0.179455 0.500000 0.500000
Si Si3 0.342910 0.641463 0.750000
Si Si4 0.752648 0.036461 0.250000
Si Si5 0.130857 0.119906 0.250000
Si Si6 0.000000 0.384769 0.593021
O O1 0.141746 0.392333 0.455281
O O2 0.144029 0.214718 0.619769
O O3 0.108634 0.183440 0.379588
O O4 0.053214 0.311439 0.556978
O O5 0.216650 0.543968 0.380100
O O6 0.282540 0.590727 0.750000
O O7 0.378185 0.520751 0.750000
O O8 0.803387 0.125408 0.250000
O O9 0.000000 0.500000 0.500000
O O10 0.000000 0.414315 0.750000
#
# Coordination Sequence:
#
# PCOD9475297 Si02
#       6
#    16   8   8   8   8   8
#     4  12  24  44  71  97 142 171 239 283 346 407
#     4  12  24  37  68 106 126 189 220 284 348 406
#     4  10  23  46  64  94 143 182 224 286 331 412
#     4  10  24  42  62 102 140 178 232 264 354 398
#     4  10  25  44  66  98 139 188 218 286 333 412
#     4  12  28  48  73 105 136 178 221 294 354 402
#
# _framework density 19.695626000000001
#
# number of rings (size 3 to 8) (size 9 to 14) (size 15 to 20)
#    0.857    0.000    2.857    4.286    2.000    6.857 
#    0.000    4.286    0.000    0.000    0.000    0.000 
#    0.000    0.000    0.000    0.000    0.000    0.000 
#
# Total GULP energy -156462.160879 kJ/mol
# GULP energy per Si atom -5587.934317 kJ/mol
# Density = 1.965080 g / cm^3
# Si number density = 19.695626 Si / 1000 Ang^3
#
#
#
# Elastic Constant Matrix: (Units=GPa)
#
#
# Indices 1 2 3 4 5 6 
#
# 1 89.1059 11.6938 16.5754 0.0000 0.0000 0.0000
# 2 11.6938 91.9900 15.9919 0.0000 0.0000 0.0000
# 3 16.5754 15.9919 121.2280 0.0000 0.0000 0.0000
# 4 0.0000 0.0000 0.0000 40.7138 0.0000 0.0000
# 5 0.0000 0.0000 0.0000 0.0000 25.1213 0.0000
# 6 0.0000 0.0000 0.0000 0.0000 0.0000 -17.3807
#
#
#
# Elastic Compliance Matrix: (Units=1/GPa)
#
#
# Indices 1 2 3 4 5 6 
#
# 1 0.011650 -0.001232 -0.001430 0.000000 0.000000 0.000000
# 2 -0.001232 0.011256 -0.001316 0.000000 0.000000 0.000000
# 3 -0.001430 -0.001316 0.008618 0.000000 0.000000 0.000000
# 4 0.000000 0.000000 0.000000 0.024562 0.000000 0.000000
# 5 0.000000 0.000000 0.000000 0.000000 0.039807 0.000000
# 6 0.000000 0.000000 0.000000 0.000000 0.000000 -0.057535
#
#
# Mechanical properties :
#
#
# Convention : Reuss Voigt Hill
#
# Bulk Modulus (GPa) = 42.43297 43.42736 42.93017
# Shear Modulus (GPa) = 92.29843 26.89507 59.59675
#
# Velocity S-wave (km/s) = 6.85304 3.69932 5.50677
# Velocity P-wave (km/s) = 9.17660 6.35167 7.89157
#
# Compressibility (1/GPa) = 0.02356658
#
# Stress axis : x y z
#
# Youngs Moduli (GPa) = 85.83395 88.83954 116.03427
#
# Poissons Ratio (x) = 0.10948 0.16597
# Poissons Ratio (y) = 0.10578 0.15275
# Poissons Ratio (z) = 0.12278 0.11695
#
# Static dielectric constant tensor:
#      x y z
#    x 1.672040 0.000000 0.000000 
#    y 0.000000 1.681740 0.000000 
#    z 0.000000 0.000000 1.645210 
# 
# From -- ./inp_files/11496.got.cif
#   From: 2010.05.17/outbox.cif.g08.bks.cpg/sg63_6_cif.got.tgz:11496.got - 2010.06.03 15:47:04.
