data_PCOD9475775
_publ_section_title
;
Structure prediction by ZEFSAII (Michael W. Deem and Ramdas Pophale) SiO2 
 PCOD9475775
Probable space group: C M C M
;
_chemical_formula_sum "Si O2"
_cell_formula_units_Z 68
_cell_length_a 10.710220
_cell_length_b 14.422042
_cell_length_c 22.315430
_cell_angle_alpha 90.000000
_cell_angle_beta 90.000000
_cell_angle_gamma 90.000000
_cell_volume 3446.913679
_symmetry_space_group_name_H-M "C M C M"
_symmetry_group_IT_number 63
_symmetry_cell_setting 'orthorhombic'
loop_
_space_group_symop_operation_xyz
x,y,z
-x,-y,1/2+z
x,-y,-z
-x,y,1/2-z
-x,-y,-z
x,y,1/2-z
-x,y,z
x,-y,1/2+z
1/2+x,1/2+y,z
1/2-x,1/2-y,1/2+z
1/2+x,1/2-y,-z
1/2-x,1/2+y,1/2-z
1/2-x,1/2-y,-z
1/2+x,1/2+y,1/2-z
1/2-x,1/2+y,z
1/2+x,1/2-y,1/2+z
loop_
_atom_site_type_symbol
_atom_site_label
_atom_site_fract_x
_atom_site_fract_y
_atom_site_fract_z
Si Si1 0.642704 0.479420 0.567042
Si Si2 0.268929 0.368504 0.345137
Si Si3 0.266068 0.200036 0.436433
Si Si4 0.500000 0.064268 0.683482
Si Si5 0.000000 0.132701 0.750000
Si Si6 0.000000 0.439317 0.938351
O O1 0.688834 0.500000 0.500000
O O2 0.500000 0.510988 0.569801
O O3 0.717218 0.539851 0.614080
O O4 0.653023 0.370045 0.577091
O O5 0.278612 0.278314 0.386722
O O6 0.387224 0.367975 0.301149
O O7 0.128582 0.376782 0.319141
O O8 0.250000 0.250000 0.500000
O O9 0.382145 0.129724 0.438259
O O10 0.500000 0.016405 0.750000
O O11 0.500000 0.999469 0.623515
O O12 0.000000 0.500000 0.000000
#
# Coordination Sequence:
#
# PCOD9475775 Si02
#       6
#    16  16  16   8   4   8
#     4  11  23  42  68 105 141 183 233 289 352 423
#     4  12  25  47  72 101 144 186 239 289 362 429
#     4  12  25  41  70 108 141 181 230 298 362 425
#     4  12  26  49  72 103 143 190 239 307 363 420
#     4  12  26  50  72  98 142 200 238 286 350 438
#     4  12  25  45  73 107 144 186 241 295 362 427
#
# _framework density 19.727792000000001
#
# number of rings (size 3 to 8) (size 9 to 14) (size 15 to 20)
#    0.000    0.235    7.059    2.824    3.294    0.000 
#    4.235    1.176    2.588    0.000    0.000    0.000 
#    0.000    0.000    0.000    0.000    0.000    0.000 
#
# Total GULP energy -189291.597564 kJ/mol
# GULP energy per Si atom -5567.399928 kJ/mol
# Density = 1.968289 g / cm^3
# Si number density = 19.727792 Si / 1000 Ang^3
#
#
#
# Elastic Constant Matrix: (Units=GPa)
#
#
# Indices 1 2 3 4 5 6 
#
# 1 173.0728 34.3342 65.0814 0.0000 0.0000 0.0000
# 2 34.3342 116.5534 74.2425 0.0000 0.0000 0.0000
# 3 65.0814 74.2425 177.1191 0.0000 0.0000 0.0000
# 4 0.0000 0.0000 0.0000 3.2448 0.0000 0.0000
# 5 0.0000 0.0000 0.0000 0.0000 16.4623 0.0000
# 6 0.0000 0.0000 0.0000 0.0000 0.0000 31.4340
#
#
#
# Elastic Compliance Matrix: (Units=1/GPa)
#
#
# Indices 1 2 3 4 5 6 
#
# 1 0.006731 -0.000556 -0.002240 0.000000 0.000000 0.000000
# 2 -0.000556 0.011751 -0.004721 0.000000 0.000000 0.000000
# 3 -0.002240 -0.004721 0.008448 0.000000 0.000000 0.000000
# 4 0.000000 0.000000 0.000000 0.308187 0.000000 0.000000
# 5 0.000000 0.000000 0.000000 0.000000 0.060745 0.000000
# 6 0.000000 0.000000 0.000000 0.000000 0.000000 0.031813
#
#
# Mechanical properties :
#
#
# Convention : Reuss Voigt Hill
#
# Bulk Modulus (GPa) = 84.06903 90.45128 87.26016
# Shear Modulus (GPa) = 11.19386 29.76736 20.48061
#
# Velocity S-wave (km/s) = 2.38463 3.88868 3.22555
# Velocity P-wave (km/s) = 7.09147 8.13091 7.62891
#
# Compressibility (1/GPa) = 0.01189499
#
# Stress axis : x y z
#
# Youngs Moduli (GPa) = 148.57651 85.09982 118.36989
#
# Poissons Ratio (x) = 0.04729 0.26517
# Poissons Ratio (y) = 0.08257 0.55887
# Poissons Ratio (z) = 0.33283 0.40179
#
# Static dielectric constant tensor:
#      x y z
#    x 1.793140 0.000000 0.000000 
#    y 0.000000 1.664320 0.000000 
#    z 0.000000 0.000000 1.697880 
# 
# From -- ./inp_files/52231.got.cif
#   From: 2010.05.17/outbox.cif.g08.bks.cpg/sg63_27_cif.got.tgz:52231.got - 2010.06.03 15:47:04.
