data_PCOD9475540
_publ_section_title
;
Structure prediction by ZEFSAII (Michael W. Deem and Ramdas Pophale) SiO2 
 PCOD9475540
Probable space group: C M C M
;
_chemical_formula_sum "Si O2"
_cell_formula_units_Z 96
_cell_length_a 30.018120
_cell_length_b 20.342587
_cell_length_c 9.061528
_cell_angle_alpha 90.000000
_cell_angle_beta 90.000000
_cell_angle_gamma 90.000000
_cell_volume 5533.387800
_symmetry_space_group_name_H-M "C M C M"
_symmetry_group_IT_number 63
_symmetry_cell_setting 'orthorhombic'
loop_
_space_group_symop_operation_xyz
x,y,z
-x,-y,1/2+z
x,-y,-z
-x,y,1/2-z
-x,-y,-z
x,y,1/2-z
-x,y,z
x,-y,1/2+z
1/2+x,1/2+y,z
1/2-x,1/2-y,1/2+z
1/2+x,1/2-y,-z
1/2-x,1/2+y,1/2-z
1/2-x,1/2-y,-z
1/2+x,1/2+y,1/2-z
1/2-x,1/2+y,z
1/2+x,1/2-y,1/2+z
loop_
_atom_site_type_symbol
_atom_site_label
_atom_site_fract_x
_atom_site_fract_y
_atom_site_fract_z
Si Si1 0.946976 0.288573 0.073401
Si Si2 0.336791 0.566933 0.926447
Si Si3 0.945715 0.565567 0.920570
Si Si4 0.767831 0.432640 0.426541
Si Si5 0.292453 0.213535 0.571756
Si Si6 0.126833 0.208048 0.572963
O O1 0.938444 0.284179 0.250000
O O2 0.932570 0.362245 0.023153
O O3 0.000000 0.283024 0.052842
O O4 0.920024 0.234394 0.985175
O O5 0.338386 0.560062 0.750000
O O6 0.284565 0.575520 0.967447
O O7 0.363295 0.632420 0.967369
O O8 0.353117 0.500000 0.000000
O O9 0.932753 0.561993 0.750000
O O10 0.000000 0.564933 0.926201
O O11 0.929488 0.500000 0.000000
O O12 0.784312 0.500000 0.500000
O O13 0.770228 0.439963 0.250000
O O14 0.791140 0.364074 0.466077
O O15 0.290438 0.219179 0.750000
O O16 0.250000 0.250000 0.500000
O O17 0.335884 0.247881 0.506471
O O18 0.130731 0.213974 0.750000
#
# Coordination Sequence:
#
# PCOD9475540 Si02
#       6
#    16  16  16  16  16  16
#     4   9  19  36  55  77 106 140 179 222 270 322
#     4   9  18  33  51  76 106 134 171 217 259 309
#     4   8  14  26  46  71  98 127 164 211 257 305
#     4   9  18  33  51  74 105 140 178 217 259 308
#     4  11  21  35  54  78 109 142 176 216 262 313
#     4  11  22  36  54  81 111 138 177 222 265 317
#
# _framework density 17.349226000000002
#
# number of rings (size 3 to 8) (size 9 to 14) (size 15 to 20)
#    0.000    2.500    1.667    2.000    0.000    3.667 
#    0.000    2.500    0.000    0.500    0.000    0.000 
#    0.000    0.000    0.000    0.000    0.000    0.000 
#
# Total GULP energy -267645.997158 kJ/mol
# GULP energy per Si atom -5575.958274 kJ/mol
# Density = 1.730974 g / cm^3
# Si number density = 17.349226 Si / 1000 Ang^3
#
#
#
# Elastic Constant Matrix: (Units=GPa)
#
#
# Indices 1 2 3 4 5 6 
#
# 1 31.2793 43.4028 25.4931 0.0000 0.0000 0.0000
# 2 43.4028 183.5083 61.3898 0.0000 0.0000 0.0000
# 3 25.4931 61.3898 44.0823 0.0000 0.0000 0.0000
# 4 0.0000 0.0000 0.0000 35.2523 0.0000 0.0000
# 5 0.0000 0.0000 0.0000 0.0000 23.6936 0.0000
# 6 0.0000 0.0000 0.0000 0.0000 0.0000 24.2090
#
#
#
# Elastic Compliance Matrix: (Units=1/GPa)
#
#
# Indices 1 2 3 4 5 6 
#
# 1 0.062895 -0.005070 -0.029312 0.000000 0.000000 0.000000
# 2 -0.005070 0.010611 -0.011845 0.000000 0.000000 0.000000
# 3 -0.029312 -0.011845 0.056132 0.000000 0.000000 0.000000
# 4 0.000000 0.000000 0.000000 0.028367 0.000000 0.000000
# 5 0.000000 0.000000 0.000000 0.000000 0.042206 0.000000
# 6 0.000000 0.000000 0.000000 0.000000 0.000000 0.041307
#
#
# Mechanical properties :
#
#
# Convention : Reuss Voigt Hill
#
# Bulk Modulus (GPa) = 26.89364 57.71568 42.30466
# Shear Modulus (GPa) = 14.43558 25.20324 19.81941
#
# Velocity S-wave (km/s) = 2.88767 3.81557 3.38358
# Velocity P-wave (km/s) = 5.16267 7.26296 6.30095
#
# Compressibility (1/GPa) = 0.03718351
#
# Stress axis : x y z
#
# Youngs Moduli (GPa) = 15.89960 94.24110 17.81506
#
# Poissons Ratio (x) = 0.47778 0.52220
# Poissons Ratio (y) = 0.08061 0.21103
# Poissons Ratio (z) = 0.46605 1.11632
#
# Static dielectric constant tensor:
#      x y z
#    x 1.597990 0.000000 0.000000 
#    y 0.000000 1.594860 0.000000 
#    z 0.000000 0.000000 1.579930 
# 
# From -- ./inp_files/12338.got.cif
#   From: 2010.05.17/outbox.cif.g08.bks.cpg/sg63_7_cif.got.tgz:12338.got - 2010.06.03 15:47:04.
