data_PCOD9475991
_publ_section_title
;
Structure prediction by ZEFSAII (Michael W. Deem and Ramdas Pophale) SiO2 
 PCOD9475991
Probable space group: C M C M
;
_chemical_formula_sum "Si O2"
_cell_formula_units_Z 80
_cell_length_a 14.638648
_cell_length_b 35.701680
_cell_length_c 7.463124
_cell_angle_alpha 90.000000
_cell_angle_beta 90.000000
_cell_angle_gamma 90.000000
_cell_volume 3900.410154
_symmetry_space_group_name_H-M "C M C M"
_symmetry_group_IT_number 63
_symmetry_cell_setting 'orthorhombic'
loop_
_space_group_symop_operation_xyz
x,y,z
-x,-y,1/2+z
x,-y,-z
-x,y,1/2-z
-x,-y,-z
x,y,1/2-z
-x,y,z
x,-y,1/2+z
1/2+x,1/2+y,z
1/2-x,1/2-y,1/2+z
1/2+x,1/2-y,-z
1/2-x,1/2+y,1/2-z
1/2-x,1/2-y,-z
1/2+x,1/2+y,1/2-z
1/2-x,1/2+y,z
1/2+x,1/2-y,1/2+z
loop_
_atom_site_type_symbol
_atom_site_label
_atom_site_fract_x
_atom_site_fract_y
_atom_site_fract_z
Si Si1 0.719297 0.612858 0.530398
Si Si2 0.604678 0.847985 0.031187
Si Si3 0.896014 0.957404 0.464376
Si Si4 0.393332 0.234534 0.535396
Si Si5 0.603768 0.684093 0.962235
O O1 0.719019 0.612530 0.750000
O O2 0.823042 0.620940 0.474534
O O3 0.671625 0.574752 0.469048
O O4 0.660746 0.648933 0.470287
O O5 0.603352 0.847597 0.250000
O O6 0.500000 0.853183 0.973407
O O7 0.638648 0.806391 0.974505
O O8 0.900742 0.953107 0.250000
O O9 0.000000 0.952797 0.533539
O O10 0.866806 0.000000 0.500000
O O11 0.391583 0.233884 0.750000
O O12 0.500000 0.236152 0.476910
O O13 0.352562 0.274591 0.483282
O O14 0.596534 0.678407 0.750000
O O15 0.500000 0.684486 0.036362
#
# Coordination Sequence:
#
# PCOD9475991 Si02
#       5
#    16  16  16  16  16
#     4   9  16  26  42  62  82 107 139 172 204 241
#     4   8  14  25  41  60  81 107 142 179 207 233
#     4   9  17  30  48  68  89 111 133 160 199 248
#     4   8  14  25  39  55  79 111 143 174 206 237
#     4   9  16  25  38  58  84 111 138 169 205 245
#
# _framework density 20.510663000000001
#
# number of rings (size 3 to 8) (size 9 to 14) (size 15 to 20)
#    0.000    3.400    0.000    1.800    0.000    3.200 
#    0.000    1.000    0.000    6.600    0.000    0.000 
#    0.000    0.000    0.000    0.000    0.000    0.000 
#
# Total GULP energy -223008.620237 kJ/mol
# GULP energy per Si atom -5575.215506 kJ/mol
# Density = 2.046398 g / cm^3
# Si number density = 20.510663 Si / 1000 Ang^3
#
#
#
# Elastic Constant Matrix: (Units=GPa)
#
#
# Indices 1 2 3 4 5 6 
#
# 1 114.8649 106.6936 3.5518 0.0000 0.0000 0.0000
# 2 106.6936 187.2888 1.5503 0.0000 0.0000 0.0000
# 3 3.5518 1.5503 56.2588 0.0000 0.0000 0.0000
# 4 0.0000 0.0000 0.0000 4.6808 0.0000 0.0000
# 5 0.0000 0.0000 0.0000 0.0000 -0.7758 0.0000
# 6 0.0000 0.0000 0.0000 0.0000 0.0000 32.8236
#
#
#
# Elastic Compliance Matrix: (Units=1/GPa)
#
#
# Indices 1 2 3 4 5 6 
#
# 1 0.018533 -0.010551 -0.000879 0.000000 0.000000 0.000000
# 2 -0.010551 0.011347 0.000353 0.000000 0.000000 0.000000
# 3 -0.000879 0.000353 0.017821 0.000000 0.000000 0.000000
# 4 0.000000 0.000000 0.000000 0.213637 0.000000 0.000000
# 5 0.000000 0.000000 0.000000 0.000000 -1.289012 0.000000
# 6 0.000000 0.000000 0.000000 0.000000 0.000000 0.030466
#
#
# Mechanical properties :
#
#
# Convention : Reuss Voigt Hill
#
# Bulk Modulus (GPa) = 39.14239 64.66710 51.90474
# Shear Modulus (GPa) = -5.17309 23.78685 9.30688
#
# Velocity S-wave (km/s) = -1.58985 3.40918 2.13247
# Velocity P-wave (km/s) = 3.96928 6.86248 5.60575
#
# Compressibility (1/GPa) = 0.02554775
#
# Stress axis : x y z
#
# Youngs Moduli (GPa) = 53.95770 88.13080 56.11425
#
# Poissons Ratio (x) = 0.92982 0.04934
# Poissons Ratio (y) = 0.56928 -0.01983
# Poissons Ratio (z) = 0.04745 -0.03115
#
# Static dielectric constant tensor:
#      x y z
#    x 1.759510 0.000000 0.000000 
#    y 0.000000 1.718100 0.000000 
#    z 0.000000 0.000000 1.783660 
# 
# From -- ./inp_files/19383.got.cif
#   From: 2010.05.17/outbox.cif.g08.bks.cpg/sg63_10_cif.got.tgz:19383.got - 2010.06.03 15:47:04.
