data_PCOD9475047
_publ_section_title
;
Structure prediction by ZEFSAII (Michael W. Deem and Ramdas Pophale) SiO2 
 PCOD9475047
Probable space group: C M C M
;
_chemical_formula_sum "Si O2"
_cell_formula_units_Z 92
_cell_length_a 19.970210
_cell_length_b 25.685720
_cell_length_c 9.060359
_cell_angle_alpha 90.000000
_cell_angle_beta 90.000000
_cell_angle_gamma 90.000000
_cell_volume 4647.504104
_symmetry_space_group_name_H-M "C M C M"
_symmetry_group_IT_number 63
_symmetry_cell_setting 'orthorhombic'
loop_
_space_group_symop_operation_xyz
x,y,z
-x,-y,1/2+z
x,-y,-z
-x,y,1/2-z
-x,-y,-z
x,y,1/2-z
-x,y,z
x,-y,1/2+z
1/2+x,1/2+y,z
1/2-x,1/2-y,1/2+z
1/2+x,1/2-y,-z
1/2-x,1/2+y,1/2-z
1/2-x,1/2-y,-z
1/2+x,1/2+y,1/2-z
1/2-x,1/2+y,z
1/2+x,1/2-y,1/2+z
loop_
_atom_site_type_symbol
_atom_site_label
_atom_site_fract_x
_atom_site_fract_y
_atom_site_fract_z
Si Si1 0.177552 0.252221 0.073786
Si Si2 0.859479 0.864138 0.581907
Si Si3 0.729563 0.447474 0.426784
Si Si4 0.423913 0.843088 0.425562
Si Si5 0.376791 0.053171 0.427581
Si Si6 0.000000 0.019595 0.750000
Si Si7 0.000000 0.918586 0.957046
O O1 0.185992 0.257338 0.250000
O O2 0.143145 0.196657 0.045140
O O3 0.130744 0.300318 0.026793
O O4 0.250000 0.250000 0.000000
O O5 0.832652 0.870800 0.750000
O O6 0.814896 0.898445 0.471841
O O7 0.933980 0.885963 0.578564
O O8 0.699061 0.500000 0.500000
O O9 0.735036 0.453173 0.250000
O O10 0.802060 0.441705 0.502989
O O11 0.413594 0.854156 0.250000
O O12 0.500000 0.823332 0.441673
O O13 0.415107 0.895835 0.517484
O O14 0.374343 0.049247 0.250000
O O15 0.404591 0.000000 0.500000
O O16 0.000000 0.064379 0.624230
O O17 0.000000 0.972410 0.629294
#
# Coordination Sequence:
#
# PCOD9475047 Si02
#       7
#    16  16  16  16  16   4   8
#     4  10  23  42  66  92 124 166 213 264 320 379
#     4  11  23  39  61  90 122 163 213 262 318 377
#     4  11  23  37  59  88 123 163 207 259 314 373
#     4  10  22  41  66  93 125 165 208 256 311 373
#     4  11  22  40  64  93 127 160 203 252 310 375
#     4  10  24  42  60  86 128 174 212 258 324 386
#     4  11  24  40  62  88 128 168 215 266 320 384
#
# _framework density 19.795570999999999
#
# number of rings (size 3 to 8) (size 9 to 14) (size 15 to 20)
#    0.000    1.391    0.870    5.217    4.870    4.870 
#    0.000    0.000    0.000    0.000    0.000    0.000 
#    0.000    0.000    0.000    0.000    0.000    0.000 
#
# Total GULP energy -256472.844074 kJ/mol
# GULP energy per Si atom -5575.496610 kJ/mol
# Density = 1.975052 g / cm^3
# Si number density = 19.795571 Si / 1000 Ang^3
#
#
#
# Elastic Constant Matrix: (Units=GPa)
#
#
# Indices 1 2 3 4 5 6 
#
# 1 79.1862 52.9679 28.4868 0.0000 0.0000 0.0000
# 2 52.9679 138.7046 57.6296 0.0000 0.0000 0.0000
# 3 28.4868 57.6296 145.5207 0.0000 0.0000 0.0000
# 4 0.0000 0.0000 0.0000 30.1258 0.0000 0.0000
# 5 0.0000 0.0000 0.0000 0.0000 25.8359 0.0000
# 6 0.0000 0.0000 0.0000 0.0000 0.0000 74.2211
#
#
#
# Elastic Compliance Matrix: (Units=1/GPa)
#
#
# Indices 1 2 3 4 5 6 
#
# 1 0.017061 -0.006137 -0.000909 0.000000 0.000000 0.000000
# 2 -0.006137 0.010837 -0.003090 0.000000 0.000000 0.000000
# 3 -0.000909 -0.003090 0.008274 0.000000 0.000000 0.000000
# 4 0.000000 0.000000 0.000000 0.033194 0.000000 0.000000
# 5 0.000000 0.000000 0.000000 0.000000 0.038706 0.000000
# 6 0.000000 0.000000 0.000000 0.000000 0.000000 0.013473
#
#
# Mechanical properties :
#
#
# Convention : Reuss Voigt Hill
#
# Bulk Modulus (GPa) = 62.90141 71.28666 67.09403
# Shear Modulus (GPa) = 33.98624 40.99170 37.48897
#
# Velocity S-wave (km/s) = 4.14800 4.55549 4.35651
# Velocity P-wave (km/s) = 7.40173 7.98496 7.69887
#
# Compressibility (1/GPa) = 0.01589790
#
# Stress axis : x y z
#
# Youngs Moduli (GPa) = 58.61375 92.27418 120.86439
#
# Poissons Ratio (x) = 0.56632 0.10990
# Poissons Ratio (y) = 0.35973 0.37352
# Poissons Ratio (z) = 0.05330 0.28516
#
# Static dielectric constant tensor:
#      x y z
#    x 1.700220 0.000000 0.000000 
#    y 0.000000 1.683660 0.000000 
#    z 0.000000 0.000000 1.695780 
# 
# From -- ./inp_files/8693.got.cif
#   From: 2010.05.17/outbox.cif.g08.bks.cpg/sg63_5_cif.got.tgz:8693.got - 2010.06.03 15:47:04.
