data_PCOD9475305
_publ_section_title
;
Structure prediction by ZEFSAII (Michael W. Deem and Ramdas Pophale) SiO2 
 PCOD9475305
Probable space group: C M C M
;
_chemical_formula_sum "Si O2"
_cell_formula_units_Z 100
_cell_length_a 18.975658
_cell_length_b 9.122345
_cell_length_c 29.022442
_cell_angle_alpha 90.000000
_cell_angle_beta 90.000000
_cell_angle_gamma 90.000000
_cell_volume 5023.857234
_symmetry_space_group_name_H-M "C M C M"
_symmetry_group_IT_number 63
_symmetry_cell_setting 'orthorhombic'
loop_
_space_group_symop_operation_xyz
x,y,z
-x,-y,1/2+z
x,-y,-z
-x,y,1/2-z
-x,-y,-z
x,y,1/2-z
-x,y,z
x,-y,1/2+z
1/2+x,1/2+y,z
1/2-x,1/2-y,1/2+z
1/2+x,1/2-y,-z
1/2-x,1/2+y,1/2-z
1/2-x,1/2-y,-z
1/2+x,1/2+y,1/2-z
1/2-x,1/2+y,z
1/2+x,1/2-y,1/2+z
loop_
_atom_site_type_symbol
_atom_site_label
_atom_site_fract_x
_atom_site_fract_y
_atom_site_fract_z
Si Si1 0.213299 0.216209 0.250000
Si Si2 0.420641 0.357811 0.594496
Si Si3 0.000000 0.441736 0.250000
Si Si4 0.846687 0.104789 0.750000
Si Si5 0.883085 0.365772 0.325987
Si Si6 0.289600 0.365052 0.532012
Si Si7 0.846959 0.087195 0.850435
Si Si8 0.212888 0.405798 0.625063
O O1 0.295059 0.256290 0.250000
O O2 0.176437 0.291209 0.206037
O O3 0.198912 0.044250 0.250000
O O4 0.500000 0.351126 0.576337
O O5 0.414895 0.256846 0.640109
O O6 0.359256 0.311007 0.559068
O O7 0.400076 0.521220 0.612077
O O8 0.060920 0.430786 0.209491
O O9 0.882702 0.101520 0.799968
O O10 0.848718 0.488856 0.358013
O O11 0.310780 0.500000 0.500000
O O12 0.250000 0.250000 0.500000
O O13 0.234917 0.414603 0.571733
O O14 0.810484 0.240238 0.863903
O O15 0.783058 0.968619 0.850034
#
# Coordination Sequence:
#
# PCOD9475305 Si02
#       8
#     8  16   4   8  16  16  16  16
#     4  11  22  31  55  87 127 164 218 263 308 377
#     4  11  23  43  66  91 130 173 218 265 331 398
#     4  10  24  38  64  86 132 178 226 252 308 392
#     4  12  20  31  52  88 126 161 211 268 311 361
#     4  11  21  40  61  90 126 177 223 257 312 383
#     4  11  23  42  69  99 126 160 216 279 339 401
#     4  11  22  37  59  96 127 170 215 263 324 369
#     4  11  22  40  66  93 129 165 215 277 329 389
#
# _framework density 19.905024999999998
#
# number of rings (size 3 to 8) (size 9 to 14) (size 15 to 20)
#    0.000    0.960    4.000    5.760    0.000    0.960 
#    1.440    0.000    1.760    1.440    0.000    0.000 
#    0.000    0.000    0.000    0.000    0.000    0.000 
#
# Total GULP energy -278676.786848 kJ/mol
# GULP energy per Si atom -5573.535737 kJ/mol
# Density = 1.985972 g / cm^3
# Si number density = 19.905025 Si / 1000 Ang^3
#
#
#
# Elastic Constant Matrix: (Units=GPa)
#
#
# Indices 1 2 3 4 5 6 
#
# 1 87.0492 18.0119 36.5467 0.0000 0.0000 0.0000
# 2 18.0119 71.8644 13.4916 0.0000 0.0000 0.0000
# 3 36.5467 13.4916 125.7491 0.0000 0.0000 0.0000
# 4 0.0000 0.0000 0.0000 26.3250 0.0000 0.0000
# 5 0.0000 0.0000 0.0000 0.0000 25.1537 0.0000
# 6 0.0000 0.0000 0.0000 0.0000 0.0000 8.0319
#
#
#
# Elastic Compliance Matrix: (Units=1/GPa)
#
#
# Indices 1 2 3 4 5 6 
#
# 1 0.013585 -0.002719 -0.003657 0.000000 0.000000 0.000000
# 2 -0.002719 0.014745 -0.000792 0.000000 0.000000 0.000000
# 3 -0.003657 -0.000792 0.009100 0.000000 0.000000 0.000000
# 4 0.000000 0.000000 0.000000 0.037987 0.000000 0.000000
# 5 0.000000 0.000000 0.000000 0.000000 0.039756 0.000000
# 6 0.000000 0.000000 0.000000 0.000000 0.000000 0.124504
#
#
# Mechanical properties :
#
#
# Convention : Reuss Voigt Hill
#
# Bulk Modulus (GPa) = 43.29683 46.75147 45.02415
# Shear Modulus (GPa) = 19.10512 26.34295 22.72403
#
# Velocity S-wave (km/s) = 3.10145 3.64185 3.38246
# Velocity P-wave (km/s) = 5.88424 6.42046 6.15819
#
# Compressibility (1/GPa) = 0.02309638
#
# Stress axis : x y z
#
# Youngs Moduli (GPa) = 73.60792 67.81899 109.88934
#
# Poissons Ratio (x) = 0.18437 0.40183
# Poissons Ratio (y) = 0.20011 0.08702
# Poissons Ratio (z) = 0.26916 0.05371
#
# Static dielectric constant tensor:
#      x y z
#    x 1.697650 0.000000 0.000000 
#    y 0.000000 1.723730 0.000000 
#    z 0.000000 0.000000 1.745420 
# 
# From -- ./inp_files/74101.got.cif
#   From: 2010.05.17/outbox.cif.g08.bks.cpg/sg63_38_cif.got.tgz:74101.got - 2010.06.03 15:47:04.
