data_PCOD9475955
_publ_section_title
;
Structure prediction by ZEFSAII (Michael W. Deem and Ramdas Pophale) SiO2 
 PCOD9475955
Probable space group: C M C M
;
_chemical_formula_sum "Si O2"
_cell_formula_units_Z 64
_cell_length_a 7.348342
_cell_length_b 41.765496
_cell_length_c 10.394351
_cell_angle_alpha 90.000000
_cell_angle_beta 90.000000
_cell_angle_gamma 90.000000
_cell_volume 3190.100625
_symmetry_space_group_name_H-M "C M C M"
_symmetry_group_IT_number 63
_symmetry_cell_setting 'orthorhombic'
loop_
_space_group_symop_operation_xyz
x,y,z
-x,-y,1/2+z
x,-y,-z
-x,y,1/2-z
-x,-y,-z
x,y,1/2-z
-x,y,z
x,-y,1/2+z
1/2+x,1/2+y,z
1/2-x,1/2-y,1/2+z
1/2+x,1/2-y,-z
1/2-x,1/2+y,1/2-z
1/2-x,1/2-y,-z
1/2+x,1/2+y,1/2-z
1/2-x,1/2+y,z
1/2+x,1/2-y,1/2+z
loop_
_atom_site_type_symbol
_atom_site_label
_atom_site_fract_x
_atom_site_fract_y
_atom_site_fract_z
Si Si1 0.721845 0.151065 0.102489
Si Si2 0.721713 0.098947 0.603173
Si Si3 0.216927 0.276747 0.893869
Si Si4 0.278279 0.974028 0.103210
O O1 0.774576 0.144002 0.250000
O O2 0.500000 0.150664 0.099604
O O3 0.781619 0.187412 0.071993
O O4 0.784113 0.124902 0.000056
O O5 0.776748 0.106285 0.750000
O O6 0.500000 0.099216 0.601968
O O7 0.776911 0.062459 0.572985
O O8 0.284780 0.268455 0.750000
O O9 0.000000 0.279406 0.884433
O O10 0.250000 0.250000 0.000000
O O11 0.223250 0.981335 0.250000
O O12 0.500000 0.974334 0.101898
O O13 0.216240 0.000000 0.000000
#
# Coordination Sequence:
#
# PCOD9475955 Si02
#       4
#    16  16  16  16
#     4   8  14  24  36  50  69  92 119 154 193 231
#     4   8  13  20  29  42  60  82 112 150 187 224
#     4   9  18  31  45  63  86 109 137 173 209 249
#     4   8  13  19  25  35  53  77 107 144 182 219
#
# _framework density 20.062063999999999
#
# number of rings (size 3 to 8) (size 9 to 14) (size 15 to 20)
#    0.000    3.750    0.000    3.000    0.000    2.500 
#    0.000    7.500    0.000    0.000    0.000    0.000 
#    0.000    0.000    0.000    0.000    0.000    1.250 
#
# Total GULP energy -178402.375375 kJ/mol
# GULP energy per Si atom -5575.074230 kJ/mol
# Density = 2.001640 g / cm^3
# Si number density = 20.062064 Si / 1000 Ang^3
#
#
#
# Elastic Constant Matrix: (Units=GPa)
#
#
# Indices 1 2 3 4 5 6 
#
# 1 73.1316 6.8276 5.6015 0.0000 0.0000 0.0000
# 2 6.8276 205.2278 181.9541 0.0000 0.0000 0.0000
# 3 5.6015 181.9541 192.5868 0.0000 0.0000 0.0000
# 4 0.0000 0.0000 0.0000 50.0159 0.0000 0.0000
# 5 0.0000 0.0000 0.0000 0.0000 -2.8607 0.0000
# 6 0.0000 0.0000 0.0000 0.0000 0.0000 -1.8567
#
#
#
# Elastic Compliance Matrix: (Units=1/GPa)
#
#
# Indices 1 2 3 4 5 6 
#
# 1 0.013718 -0.000632 0.000198 0.000000 0.000000 0.000000
# 2 -0.000632 0.030042 -0.028365 0.000000 0.000000 0.000000
# 3 0.000198 -0.028365 0.031985 0.000000 0.000000 0.000000
# 4 0.000000 0.000000 0.000000 0.019994 0.000000 0.000000
# 5 0.000000 0.000000 0.000000 0.000000 -0.349559 0.000000
# 6 0.000000 0.000000 0.000000 0.000000 0.000000 -0.538582
#
#
# Mechanical properties :
#
#
# Convention : Reuss Voigt Hill
#
# Bulk Modulus (GPa) = 55.10343 95.52363 75.31353
# Shear Modulus (GPa) = -6.86100 27.49722 10.31811
#
# Velocity S-wave (km/s) = -1.85130 3.70619 2.27030
# Velocity P-wave (km/s) = 4.79128 8.12600 6.67039
#
# Compressibility (1/GPa) = 0.01814769
#
# Stress axis : x y z
#
# Youngs Moduli (GPa) = 72.89797 33.28710 31.26430
#
# Poissons Ratio (x) = 0.02104 -0.00620
# Poissons Ratio (y) = 0.04608 0.88680
# Poissons Ratio (z) = -0.01445 0.94418
#
# Static dielectric constant tensor:
#      x y z
#    x 1.289530 0.000000 0.000000 
#    y 0.000000 1.680940 0.000000 
#    z 0.000000 0.000000 1.698040 
# 
# From -- ./inp_files/16185.got.cif
#   From: 2010.05.17/outbox.cif.g08.bks.cpg/sg63_9_cif.got.tgz:16185.got - 2010.06.03 15:47:04.
