data_PCOD9475221
_publ_section_title
;
Structure prediction by ZEFSAII (Michael W. Deem and Ramdas Pophale) SiO2 
 PCOD9475221
Probable space group: C M C M
;
_chemical_formula_sum "Si O2"
_cell_formula_units_Z 48
_cell_length_a 19.395160
_cell_length_b 7.633393
_cell_length_c 16.780407
_cell_angle_alpha 90.000000
_cell_angle_beta 90.000000
_cell_angle_gamma 90.000000
_cell_volume 2484.353999
_symmetry_space_group_name_H-M "C M C M"
_symmetry_group_IT_number 63
_symmetry_cell_setting 'orthorhombic'
loop_
_space_group_symop_operation_xyz
x,y,z
-x,-y,1/2+z
x,-y,-z
-x,y,1/2-z
-x,-y,-z
x,y,1/2-z
-x,y,z
x,-y,1/2+z
1/2+x,1/2+y,z
1/2-x,1/2-y,1/2+z
1/2+x,1/2-y,-z
1/2-x,1/2+y,1/2-z
1/2-x,1/2-y,-z
1/2+x,1/2+y,1/2-z
1/2-x,1/2+y,z
1/2+x,1/2-y,1/2+z
loop_
_atom_site_type_symbol
_atom_site_label
_atom_site_fract_x
_atom_site_fract_y
_atom_site_fract_z
Si Si1 0.079817 0.747372 0.153725
Si Si2 0.815820 0.035720 0.408129
Si Si3 0.170860 0.584641 0.656200
O O1 0.083404 0.760617 0.250000
O O2 0.123303 0.906165 0.117640
O O3 0.116946 0.565147 0.131832
O O4 0.000000 0.750733 0.129929
O O5 0.747390 0.991537 0.357748
O O6 0.798959 0.000000 0.500000
O O7 0.835479 0.236321 0.392402
O O8 0.161546 0.623028 0.750000
#
# Coordination Sequence:
#
# PCOD9475221 Si02
#       3
#    16  16  16
#     4  10  23  42  63  90 124 162 208 258 304 360
#     4  12  24  38  64  94 127 159 204 258 313 362
#     4  11  22  39  65  91 118 163 212 254 300 367
#
# _framework density 19.320917000000001
#
# number of rings (size 3 to 8) (size 9 to 14) (size 15 to 20)
#    0.000    1.000    3.333    4.000    0.000    2.000 
#    0.000    5.000    0.000    0.000    0.000    0.000 
#    0.000    0.000    0.000    0.000    0.000    0.000 
#
# Total GULP energy -134254.061350 kJ/mol
# GULP energy per Si atom -5593.919223 kJ/mol
# Density = 1.927694 g / cm^3
# Si number density = 19.320917 Si / 1000 Ang^3
#
#
#
# Elastic Constant Matrix: (Units=GPa)
#
#
# Indices 1 2 3 4 5 6 
#
# 1 101.3953 30.9452 0.7361 0.0000 0.0000 0.0000
# 2 30.9452 97.1741 -6.4680 0.0000 0.0000 0.0000
# 3 0.7361 -6.4680 12.8330 0.0000 0.0000 0.0000
# 4 0.0000 0.0000 0.0000 102.6485 0.0000 0.0000
# 5 0.0000 0.0000 0.0000 0.0000 -22.2380 0.0000
# 6 0.0000 0.0000 0.0000 0.0000 0.0000 34.7025
#
#
#
# Elastic Compliance Matrix: (Units=1/GPa)
#
#
# Indices 1 2 3 4 5 6 
#
# 1 0.011000 -0.003668 -0.002480 0.000000 0.000000 0.000000
# 2 -0.003668 0.011871 0.006194 0.000000 0.000000 0.000000
# 3 -0.002480 0.006194 0.081188 0.000000 0.000000 0.000000
# 4 0.000000 0.000000 0.000000 0.009742 0.000000 0.000000
# 5 0.000000 0.000000 0.000000 0.000000 -0.044968 0.000000
# 6 0.000000 0.000000 0.000000 0.000000 0.000000 0.028816
#
#
# Mechanical properties :
#
#
# Convention : Reuss Voigt Hill
#
# Bulk Modulus (GPa) = 9.60144 29.09212 19.34678
# Shear Modulus (GPa) = 37.80021 35.43519 36.61770
#
# Velocity S-wave (km/s) = 4.42796 4.28721 4.35815
# Velocity P-wave (km/s) = 5.57878 6.29260 5.94641
#
# Compressibility (1/GPa) = 0.10415103
#
# Stress axis : x y z
#
# Youngs Moduli (GPa) = 90.91052 84.23795 12.31708
#
# Poissons Ratio (x) = 0.30898 0.03054
# Poissons Ratio (y) = 0.33346 -0.07629
# Poissons Ratio (z) = 0.22543 -0.52174
#
# Static dielectric constant tensor:
#      x y z
#    x 1.639390 0.000000 0.000000 
#    y 0.000000 1.649340 0.000000 
#    z 0.000000 0.000000 1.684370 
# 
# From -- ./inp_files/32996.got.cif
#   From: 2010.05.17/outbox.cif.g08.bks.cpg/sg63_17_cif.got.tgz:32996.got - 2010.06.03 15:47:04.
