data_PCOD9475812
_publ_section_title
;
Structure prediction by ZEFSAII (Michael W. Deem and Ramdas Pophale) SiO2 
 PCOD9475812
Probable space group: C M C M
;
_chemical_formula_sum "Si O2"
_cell_formula_units_Z 64
_cell_length_a 15.931133
_cell_length_b 25.508660
_cell_length_c 8.506706
_cell_angle_alpha 90.000000
_cell_angle_beta 90.000000
_cell_angle_gamma 90.000000
_cell_volume 3456.970965
_symmetry_space_group_name_H-M "C M C M"
_symmetry_group_IT_number 63
_symmetry_cell_setting 'orthorhombic'
loop_
_space_group_symop_operation_xyz
x,y,z
-x,-y,1/2+z
x,-y,-z
-x,y,1/2-z
-x,-y,-z
x,y,1/2-z
-x,y,z
x,-y,1/2+z
1/2+x,1/2+y,z
1/2-x,1/2-y,1/2+z
1/2+x,1/2-y,-z
1/2-x,1/2+y,1/2-z
1/2-x,1/2-y,-z
1/2+x,1/2+y,1/2-z
1/2-x,1/2+y,z
1/2+x,1/2-y,1/2+z
loop_
_atom_site_type_symbol
_atom_site_label
_atom_site_fract_x
_atom_site_fract_y
_atom_site_fract_z
Si Si1 0.283904 0.000000 0.500000
Si Si2 0.595609 0.051164 0.750000
Si Si3 0.830795 0.901447 0.572996
Si Si4 0.094023 0.676205 0.750000
Si Si5 0.000000 0.058785 0.567875
Si Si6 0.292749 0.196150 0.056049
O O1 0.348108 0.031007 0.608667
O O2 0.223575 0.045024 0.431759
O O3 0.500000 0.030525 0.750000
O O4 0.591509 0.113328 0.750000
O O5 0.859105 0.891833 0.750000
O O6 0.770797 0.852849 0.529875
O O7 0.915070 0.910738 0.476258
O O8 0.136341 0.689928 0.580586
O O9 0.000000 0.698134 0.750000
O O10 0.000000 0.050842 0.750000
O O11 0.000000 0.000000 0.500000
O O12 0.311889 0.196911 0.250000
O O13 0.250000 0.250000 0.000000
#
# Coordination Sequence:
#
# PCOD9475812 Si02
#       6
#     8   8  16   8   8  16
#     4  12  21  37  64  90 126 168 214 253 325 396
#     4  11  24  40  61  94 134 170 215 272 321 394
#     4  11  24  41  63  93 127 170 214 268 324 395
#     4  11  24  44  69 100 138 174 225 280 333 392
#     4  12  26  38  62  96 134 172 214 269 326 401
#     4  11  24  45  73  97 131 179 227 277 339 404
#
# _framework density 18.513318999999999
#
# number of rings (size 3 to 8) (size 9 to 14) (size 15 to 20)
#    0.000    0.750    6.250    1.500    3.500    0.500 
#    2.250    0.000    0.000    0.000    0.000    0.000 
#    0.000    0.000    0.000    0.000    0.000    0.000 
#
# Total GULP energy -178159.938543 kJ/mol
# GULP energy per Si atom -5567.498079 kJ/mol
# Density = 1.847118 g / cm^3
# Si number density = 18.513319 Si / 1000 Ang^3
#
#
#
# Elastic Constant Matrix: (Units=GPa)
#
#
# Indices 1 2 3 4 5 6 
#
# 1 136.3171 38.4980 87.0380 0.0000 0.0000 0.0000
# 2 38.4980 104.1717 32.9899 0.0000 0.0000 0.0000
# 3 87.0380 32.9899 148.6189 0.0000 0.0000 0.0000
# 4 0.0000 0.0000 0.0000 23.5773 0.0000 0.0000
# 5 0.0000 0.0000 0.0000 0.0000 90.6907 0.0000
# 6 0.0000 0.0000 0.0000 0.0000 0.0000 15.8945
#
#
#
# Elastic Compliance Matrix: (Units=1/GPa)
#
#
# Indices 1 2 3 4 5 6 
#
# 1 0.012263 -0.002428 -0.006643 0.000000 0.000000 0.000000
# 2 -0.002428 0.010806 -0.000977 0.000000 0.000000 0.000000
# 3 -0.006643 -0.000977 0.010836 0.000000 0.000000 0.000000
# 4 0.000000 0.000000 0.000000 0.042414 0.000000 0.000000
# 5 0.000000 0.000000 0.000000 0.000000 0.011026 0.000000
# 6 0.000000 0.000000 0.000000 0.000000 0.000000 0.062915
#
#
# Mechanical properties :
#
#
# Convention : Reuss Voigt Hill
#
# Bulk Modulus (GPa) = 72.41320 78.46215 75.43768
# Shear Modulus (GPa) = 28.57825 41.40464 34.99144
#
# Velocity S-wave (km/s) = 3.93321 4.73427 4.35221
# Velocity P-wave (km/s) = 7.73472 8.50635 8.12969
#
# Compressibility (1/GPa) = 0.01380964
#
# Stress axis : x y z
#
# Youngs Moduli (GPa) = 81.54616 92.53937 92.28747
#
# Poissons Ratio (x) = 0.22471 0.61304
# Poissons Ratio (y) = 0.19802 0.09013
# Poissons Ratio (z) = 0.54169 0.09038
#
# Static dielectric constant tensor:
#      x y z
#    x 1.656320 0.000000 0.000000 
#    y 0.000000 1.709810 0.000000 
#    z 0.000000 0.000000 1.674240 
# 
# From -- ./inp_files/4558.got.cif
#   From: 2010.05.17/outbox.cif.g08.bks.cpg/sg63_3_cif.got.tgz:4558.got - 2010.06.03 15:47:04.
