data_PCOD9475462
_publ_section_title
;
Structure prediction by ZEFSAII (Michael W. Deem and Ramdas Pophale) SiO2 
 PCOD9475462
Probable space group: C M C M
;
_chemical_formula_sum "Si O2"
_cell_formula_units_Z 68
_cell_length_a 9.904647
_cell_length_b 16.710322
_cell_length_c 20.152950
_cell_angle_alpha 90.000000
_cell_angle_beta 90.000000
_cell_angle_gamma 90.000000
_cell_volume 3335.511543
_symmetry_space_group_name_H-M "C M C M"
_symmetry_group_IT_number 63
_symmetry_cell_setting 'orthorhombic'
loop_
_space_group_symop_operation_xyz
x,y,z
-x,-y,1/2+z
x,-y,-z
-x,y,1/2-z
-x,-y,-z
x,y,1/2-z
-x,y,z
x,-y,1/2+z
1/2+x,1/2+y,z
1/2-x,1/2-y,1/2+z
1/2+x,1/2-y,-z
1/2-x,1/2+y,1/2-z
1/2-x,1/2-y,-z
1/2+x,1/2+y,1/2-z
1/2-x,1/2+y,z
1/2+x,1/2-y,1/2+z
loop_
_atom_site_type_symbol
_atom_site_label
_atom_site_fract_x
_atom_site_fract_y
_atom_site_fract_z
Si Si1 0.500000 0.215198 0.886836
Si Si2 0.000000 0.655439 0.750000
Si Si3 0.000000 0.282350 0.953562
Si Si4 0.189910 0.809533 0.250000
Si Si5 0.500000 0.537714 0.070501
Si Si6 0.271399 0.652035 0.114805
Si Si7 0.650789 0.878061 0.750000
Si Si8 0.500000 0.629760 0.637434
O O1 0.500000 0.141700 0.833662
O O2 0.368049 0.271145 0.873360
O O3 0.500000 0.204100 0.966954
O O4 0.849267 0.688116 0.750000
O O5 0.864978 0.321438 0.922192
O O6 0.000000 0.190216 0.926023
O O7 0.140841 0.718354 0.250000
O O8 0.126856 0.849605 0.184595
O O9 0.367873 0.591925 0.076644
O O10 0.500000 0.463146 0.120395
O O11 0.500000 0.500000 0.000000
O O12 0.230427 0.607149 0.182714
O O13 0.500000 0.913264 0.750000
#
# Coordination Sequence:
#
# PCOD9475462 Si02
#       8
#     8   4   8   8   8  16   8   8
#     4  11  21  32  59  96 136 163 225 269 334 390
#     4  12  20  34  50  96 128 160 198 294 324 364
#     4  12  21  39  70 101 124 172 233 284 327 393
#     4  11  20  35  65  92 136 163 209 283 340 387
#     4  11  28  47  64  94 144 183 228 276 332 418
#     4  11  22  40  67 100 130 181 223 278 333 403
#     4  12  18  38  69 104 133 164 228 295 332 400
#     4  11  21  43  67  93 132 178 214 266 346 397
#
# _framework density 20.386678
#
# number of rings (size 3 to 8) (size 9 to 14) (size 15 to 20)
#    0.000    0.706    7.059    2.118    0.000    5.176 
#    0.000    1.765    2.588    0.000    0.000    0.000 
#    0.000    0.000    0.000    0.000    0.000    0.000 
#
# Total GULP energy -189353.882589 kJ/mol
# GULP energy per Si atom -5569.231841 kJ/mol
# Density = 2.034028 g / cm^3
# Si number density = 20.386678 Si / 1000 Ang^3
#
#
#
# Elastic Constant Matrix: (Units=GPa)
#
#
# Indices 1 2 3 4 5 6 
#
# 1 169.6977 15.3267 35.8057 0.0000 0.0000 0.0000
# 2 15.3267 40.8370 -15.0657 0.0000 0.0000 0.0000
# 3 35.8057 -15.0657 116.9015 0.0000 0.0000 0.0000
# 4 0.0000 0.0000 0.0000 31.3961 0.0000 0.0000
# 5 0.0000 0.0000 0.0000 0.0000 24.0472 0.0000
# 6 0.0000 0.0000 0.0000 0.0000 0.0000 8.2350
#
#
#
# Elastic Compliance Matrix: (Units=1/GPa)
#
#
# Indices 1 2 3 4 5 6 
#
# 1 0.006734 -0.003452 -0.002507 0.000000 0.000000 0.000000
# 2 -0.003452 0.027480 0.004599 0.000000 0.000000 0.000000
# 3 -0.002507 0.004599 0.009915 0.000000 0.000000 0.000000
# 4 0.000000 0.000000 0.000000 0.031851 0.000000 0.000000
# 5 0.000000 0.000000 0.000000 0.000000 0.041585 0.000000
# 6 0.000000 0.000000 0.000000 0.000000 0.000000 0.121433
#
#
# Mechanical properties :
#
#
# Convention : Reuss Voigt Hill
#
# Bulk Modulus (GPa) = 24.15054 44.39663 34.27359
# Shear Modulus (GPa) = 19.56784 32.16030 25.86407
#
# Velocity S-wave (km/s) = 3.10148 3.97610 3.56571
# Velocity P-wave (km/s) = 4.96966 6.55010 5.81383
#
# Compressibility (1/GPa) = 0.04140693
#
# Stress axis : x y z
#
# Youngs Moduli (GPa) = 148.50716 36.39023 100.85859
#
# Poissons Ratio (x) = 0.12563 0.25289
# Poissons Ratio (y) = 0.51269 -0.46384
# Poissons Ratio (z) = 0.37236 -0.16735
#
# Static dielectric constant tensor:
#      x y z
#    x 1.692440 0.000000 0.000000 
#    y 0.000000 1.727310 0.000000 
#    z 0.000000 0.000000 1.869380 
# 
# From -- ./inp_files/50562.got.cif
#   From: 2010.05.17/outbox.cif.g08.bks.cpg/sg63_26_cif.got.tgz:50562.got - 2010.06.03 15:47:04.
