data_PCOD9475513
_publ_section_title
;
Structure prediction by ZEFSAII (Michael W. Deem and Ramdas Pophale) SiO2 
 PCOD9475513
Probable space group: C M C M
;
_chemical_formula_sum "Si O2"
_cell_formula_units_Z 80
_cell_length_a 9.289438
_cell_length_b 14.337021
_cell_length_c 27.047174
_cell_angle_alpha 90.000000
_cell_angle_beta 90.000000
_cell_angle_gamma 90.000000
_cell_volume 3602.220196
_symmetry_space_group_name_H-M "C M C M"
_symmetry_group_IT_number 63
_symmetry_cell_setting 'orthorhombic'
loop_
_space_group_symop_operation_xyz
x,y,z
-x,-y,1/2+z
x,-y,-z
-x,y,1/2-z
-x,-y,-z
x,y,1/2-z
-x,y,z
x,-y,1/2+z
1/2+x,1/2+y,z
1/2-x,1/2-y,1/2+z
1/2+x,1/2-y,-z
1/2-x,1/2+y,1/2-z
1/2-x,1/2-y,-z
1/2+x,1/2+y,1/2-z
1/2-x,1/2+y,z
1/2+x,1/2-y,1/2+z
loop_
_atom_site_type_symbol
_atom_site_label
_atom_site_fract_x
_atom_site_fract_y
_atom_site_fract_z
Si Si1 0.840653 0.489504 0.657144
Si Si2 0.164891 0.545887 0.446780
Si Si3 0.665722 0.738461 0.250000
Si Si4 0.169859 0.772779 0.551495
Si Si5 0.833329 0.738543 0.349202
Si Si6 0.660011 0.510321 0.250000
O O1 0.819415 0.520495 0.600659
O O2 0.834996 0.375792 0.653169
O O3 0.733985 0.519165 0.699390
O O4 0.000000 0.515838 0.673287
O O5 0.167696 0.500000 0.500000
O O6 0.296031 0.617356 0.444107
O O7 0.000000 0.587377 0.442026
O O8 0.500000 0.769481 0.250000
O O9 0.749099 0.766952 0.299695
O O10 0.663013 0.624253 0.250000
O O11 0.250000 0.750000 0.500000
O O12 0.249318 0.734586 0.600640
O O13 0.000000 0.750991 0.550158
O O14 0.000000 0.768701 0.349791
O O15 0.500000 0.475813 0.250000
#
# Coordination Sequence:
#
# PCOD9475513 Si02
#       6
#    16  16   8  16  16   8
#     4   8  14  24  39  59  85 116 147 181 224 274
#     4   9  18  33  51  71  96 125 157 194 238 287
#     4   9  15  23  37  61  90 119 150 187 234 283
#     4  11  21  33  49  70  97 128 163 201 241 287
#     4   9  16  27  42  62  89 121 155 192 236 282
#     4   9  15  21  33  55  84 115 146 183 224 265
#
# _framework density 22.208525999999999
#
# number of rings (size 3 to 8) (size 9 to 14) (size 15 to 20)
#    0.000    2.800    0.000    4.200    0.000    7.600 
#    0.000    0.000    0.000    0.000    0.000    1.400 
#    0.000    3.200    0.000    0.000    0.000    0.000 
#
# Total GULP energy -223174.400842 kJ/mol
# GULP energy per Si atom -5579.360021 kJ/mol
# Density = 2.215798 g / cm^3
# Si number density = 22.208526 Si / 1000 Ang^3
#
#
#
# Elastic Constant Matrix: (Units=GPa)
#
#
# Indices 1 2 3 4 5 6 
#
# 1 206.8095 14.9083 150.0275 0.0000 0.0000 0.0000
# 2 14.9083 46.4667 0.8706 0.0000 0.0000 0.0000
# 3 150.0275 0.8706 251.7662 0.0000 0.0000 0.0000
# 4 0.0000 0.0000 0.0000 8.8796 0.0000 0.0000
# 5 0.0000 0.0000 0.0000 0.0000 -0.6783 0.0000
# 6 0.0000 0.0000 0.0000 0.0000 0.0000 7.3648
#
#
#
# Elastic Compliance Matrix: (Units=1/GPa)
#
#
# Indices 1 2 3 4 5 6 
#
# 1 0.008853 -0.002742 -0.005266 0.000000 0.000000 0.000000
# 2 -0.002742 0.022371 0.001556 0.000000 0.000000 0.000000
# 3 -0.005266 0.001556 0.007105 0.000000 0.000000 0.000000
# 4 0.000000 0.000000 0.000000 0.112618 0.000000 0.000000
# 5 0.000000 0.000000 0.000000 0.000000 -1.474170 0.000000
# 6 0.000000 0.000000 0.000000 0.000000 0.000000 0.135782
#
#
# Mechanical properties :
#
#
# Convention : Reuss Voigt Hill
#
# Bulk Modulus (GPa) = 39.32948 92.96170 66.14559
# Shear Modulus (GPa) = -4.28794 25.72893 10.72050
#
# Velocity S-wave (km/s) = -1.39103 3.40739 2.19947
# Velocity P-wave (km/s) = 3.89457 7.57825 6.02485
#
# Compressibility (1/GPa) = 0.02542622
#
# Stress axis : x y z
#
# Youngs Moduli (GPa) = 112.95183 44.70015 140.75199
#
# Poissons Ratio (x) = 0.12256 0.74123
# Poissons Ratio (y) = 0.30969 -0.21908
# Poissons Ratio (z) = 0.59483 -0.06958
#
# Static dielectric constant tensor:
#      x y z
#    x 1.770720 0.000000 0.000000 
#    y 0.000000 1.953100 0.000000 
#    z 0.000000 0.000000 1.838130 
# 
# From -- ./inp_files/59522.got.cif
#   From: 2010.05.17/outbox.cif.g08.bks.cpg/sg63_30_cif.got.tgz:59522.got - 2010.06.03 15:47:04.
