data_PCOD9475648
_publ_section_title
;
Structure prediction by ZEFSAII (Michael W. Deem and Ramdas Pophale) SiO2 
 PCOD9475648
Probable space group: C M C M
;
_chemical_formula_sum "Si O2"
_cell_formula_units_Z 112
_cell_length_a 31.639989
_cell_length_b 11.188765
_cell_length_c 17.266706
_cell_angle_alpha 90.000000
_cell_angle_beta 90.000000
_cell_angle_gamma 90.000000
_cell_volume 6112.628057
_symmetry_space_group_name_H-M "C M C M"
_symmetry_group_IT_number 63
_symmetry_cell_setting 'orthorhombic'
loop_
_space_group_symop_operation_xyz
x,y,z
-x,-y,1/2+z
x,-y,-z
-x,y,1/2-z
-x,-y,-z
x,y,1/2-z
-x,y,z
x,-y,1/2+z
1/2+x,1/2+y,z
1/2-x,1/2-y,1/2+z
1/2+x,1/2-y,-z
1/2-x,1/2+y,1/2-z
1/2-x,1/2-y,-z
1/2+x,1/2+y,1/2-z
1/2-x,1/2+y,z
1/2+x,1/2-y,1/2+z
loop_
_atom_site_type_symbol
_atom_site_label
_atom_site_fract_x
_atom_site_fract_y
_atom_site_fract_z
Si Si1 0.609598 0.795203 0.162293
Si Si2 0.881822 0.063135 0.916902
Si Si3 0.334940 0.236274 0.157970
Si Si4 0.827971 0.472713 0.409280
Si Si5 0.816356 0.903343 0.663978
Si Si6 0.744850 0.777086 0.408701
Si Si7 0.451830 0.592970 0.343359
O O1 0.600336 0.837527 0.250000
O O2 0.647471 0.698726 0.168535
O O3 0.570508 0.717134 0.130951
O O4 0.629788 0.898360 0.111189
O O5 0.870588 0.200849 0.897295
O O6 0.839201 0.001689 0.885973
O O7 0.922009 0.015828 0.869045
O O8 0.888039 0.000000 0.000000
O O9 0.343283 0.254660 0.250000
O O10 0.330124 0.095765 0.138199
O O11 0.289528 0.289898 0.133019
O O12 0.826373 0.500000 0.500000
O O13 0.787083 0.387794 0.393597
O O14 0.806942 0.946427 0.750000
O O15 0.776717 0.841323 0.625873
O O16 0.750000 0.750000 0.500000
O O17 0.451315 0.596927 0.250000
O O18 0.500000 0.582320 0.370166
#
# Coordination Sequence:
#
# PCOD9475648 Si02
#       7
#    16  16  16  16  16  16  16
#     4   8  16  33  58  83 109 144 189 234 283 345
#     4  11  23  37  59  85 121 156 193 244 296 355
#     4  12  26  39  58  86 117 161 206 247 303 364
#     4  11  23  38  58  80 118 158 199 245 300 352
#     4   9  18  35  56  75 103 146 194 241 289 333
#     4  11  22  38  56  80 111 151 201 256 298 346
#     4   9  18  36  65  95 118 145 187 241 298 359
#
# _framework density 18.322723
#
# number of rings (size 3 to 8) (size 9 to 14) (size 15 to 20)
#    0.000    1.857    1.429    3.857    6.000    2.571 
#    0.000    0.000    0.000    1.286    0.000    2.000 
#    0.000    0.000    0.000    0.000    0.000    0.000 
#
# Total GULP energy -312150.982128 kJ/mol
# GULP energy per Si atom -5574.124681 kJ/mol
# Density = 1.828102 g / cm^3
# Si number density = 18.322723 Si / 1000 Ang^3
#
#
#
# Elastic Constant Matrix: (Units=GPa)
#
#
# Indices 1 2 3 4 5 6 
#
# 1 107.5307 40.9298 -1.8203 0.0000 0.0000 0.0000
# 2 40.9298 88.3758 7.2896 0.0000 0.0000 0.0000
# 3 -1.8203 7.2896 37.5620 0.0000 0.0000 0.0000
# 4 0.0000 0.0000 0.0000 46.5548 0.0000 0.0000
# 5 0.0000 0.0000 0.0000 0.0000 14.5623 0.0000
# 6 0.0000 0.0000 0.0000 0.0000 0.0000 -4.1406
#
#
#
# Elastic Compliance Matrix: (Units=1/GPa)
#
#
# Indices 1 2 3 4 5 6 
#
# 1 0.011384 -0.005404 0.001600 0.000000 0.000000 0.000000
# 2 -0.005404 0.014065 -0.002991 0.000000 0.000000 0.000000
# 3 0.001600 -0.002991 0.027281 0.000000 0.000000 0.000000
# 4 0.000000 0.000000 0.000000 0.021480 0.000000 0.000000
# 5 0.000000 0.000000 0.000000 0.000000 0.068670 0.000000
# 6 0.000000 0.000000 0.000000 0.000000 0.000000 -0.241511
#
#
# Mechanical properties :
#
#
# Convention : Reuss Voigt Hill
#
# Bulk Modulus (GPa) = 25.54991 36.25185 30.90088
# Shear Modulus (GPa) = -69.45018 23.86661 -22.79179
#
# Velocity S-wave (km/s) = -6.16329 3.61303 -3.53073
# Velocity P-wave (km/s) = 6.05587 6.10192 0.52910
#
# Compressibility (1/GPa) = 0.03913909
#
# Stress axis : x y z
#
# Youngs Moduli (GPa) = 87.84417 71.09873 36.65583
#
# Poissons Ratio (x) = 0.38423 -0.05867
# Poissons Ratio (y) = 0.47473 0.10965
# Poissons Ratio (z) = -0.14059 0.21269
#
# Static dielectric constant tensor:
#      x y z
#    x 1.612310 0.000000 0.000000 
#    y 0.000000 1.694720 0.000000 
#    z 0.000000 0.000000 1.650870 
# 
# From -- ./inp_files/38521.got.cif
#   From: 2010.05.17/outbox.cif.g08.bks.cpg/sg63_20_cif.got.tgz:38521.got - 2010.06.03 15:47:04.
