data_PCOD9475844
_publ_section_title
;
Structure prediction by ZEFSAII (Michael W. Deem and Ramdas Pophale) SiO2 
 PCOD9475844
Probable space group: C M C M
;
_chemical_formula_sum "Si O2"
_cell_formula_units_Z 64
_cell_length_a 12.022159
_cell_length_b 19.939085
_cell_length_c 13.723152
_cell_angle_alpha 90.000000
_cell_angle_beta 90.000000
_cell_angle_gamma 90.000000
_cell_volume 3289.588433
_symmetry_space_group_name_H-M "C M C M"
_symmetry_group_IT_number 63
_symmetry_cell_setting 'orthorhombic'
loop_
_space_group_symop_operation_xyz
x,y,z
-x,-y,1/2+z
x,-y,-z
-x,y,1/2-z
-x,-y,-z
x,y,1/2-z
-x,y,z
x,-y,1/2+z
1/2+x,1/2+y,z
1/2-x,1/2-y,1/2+z
1/2+x,1/2-y,-z
1/2-x,1/2+y,1/2-z
1/2-x,1/2-y,-z
1/2+x,1/2+y,1/2-z
1/2-x,1/2+y,z
1/2+x,1/2-y,1/2+z
loop_
_atom_site_type_symbol
_atom_site_label
_atom_site_fract_x
_atom_site_fract_y
_atom_site_fract_z
Si Si1 0.277311 0.174890 0.966347
Si Si2 0.749814 0.492937 0.750000
Si Si3 0.000000 0.539746 0.250000
Si Si4 0.722498 0.648162 0.750000
Si Si5 0.872771 0.066127 0.066547
Si Si6 0.000000 0.348636 0.584166
Si Si7 0.500000 0.735762 0.750000
O O1 0.283896 0.167684 0.849955
O O2 0.250000 0.250000 0.000000
O O3 0.179539 0.126533 0.005187
O O4 0.390878 0.152686 0.017944
O O5 0.883425 0.499093 0.750000
O O6 0.701999 0.568212 0.750000
O O7 0.705412 0.452019 0.657313
O O8 0.000000 0.587582 0.155362
O O9 0.607915 0.689287 0.750000
O O10 0.000000 0.080527 0.096842
O O11 0.874186 0.000000 0.000000
O O12 0.000000 0.283947 0.655574
#
# Coordination Sequence:
#
# PCOD9475844 Si02
#       7
#    16   8   4   8  16   8   4
#     4  12  26  45  71 106 141 183 232 290 354 415
#     4  12  24  45  71 106 137 191 233 288 345 420
#     4  11  24  44  72 102 142 189 240 264 348 431
#     4  12  27  43  71 104 137 180 240 288 345 420
#     4  11  25  44  69 104 142 180 231 294 350 408
#     4  11  24  46  73  96 145 189 226 283 353 431
#     4  11  24  44  72 102 132 191 234 276 352 431
#
# _framework density 19.455321000000001
#
# number of rings (size 3 to 8) (size 9 to 14) (size 15 to 20)
#    0.000    0.500    7.500    0.375    5.250    2.500 
#    0.000    2.500    0.000    0.000    0.000    0.000 
#    0.000    0.000    0.000    0.000    0.000    0.000 
#
# Total GULP energy -178984.236361 kJ/mol
# GULP energy per Si atom -5593.257386 kJ/mol
# Density = 1.941104 g / cm^3
# Si number density = 19.455321 Si / 1000 Ang^3
#
#
#
# Elastic Constant Matrix: (Units=GPa)
#
#
# Indices 1 2 3 4 5 6 
#
# 1 114.7528 7.0782 29.2217 0.0000 0.0000 0.0000
# 2 7.0782 99.3421 22.2955 0.0000 0.0000 0.0000
# 3 29.2217 22.2955 146.2679 0.0000 0.0000 0.0000
# 4 0.0000 0.0000 0.0000 21.1287 0.0000 0.0000
# 5 0.0000 0.0000 0.0000 0.0000 8.8861 0.0000
# 6 0.0000 0.0000 0.0000 0.0000 0.0000 26.3088
#
#
#
# Elastic Compliance Matrix: (Units=1/GPa)
#
#
# Indices 1 2 3 4 5 6 
#
# 1 0.009188 -0.000251 -0.001797 0.000000 0.000000 0.000000
# 2 -0.000251 0.010430 -0.001540 0.000000 0.000000 0.000000
# 3 -0.001797 -0.001540 0.007430 0.000000 0.000000 0.000000
# 4 0.000000 0.000000 0.000000 0.047329 0.000000 0.000000
# 5 0.000000 0.000000 0.000000 0.000000 0.112535 0.000000
# 6 0.000000 0.000000 0.000000 0.000000 0.000000 0.038010
#
#
# Mechanical properties :
#
#
# Convention : Reuss Voigt Hill
#
# Bulk Modulus (GPa) = 50.32312 53.06150 51.69231
# Shear Modulus (GPa) = 20.94485 31.38256 26.16371
#
# Velocity S-wave (km/s) = 3.28466 4.02065 3.67114
# Velocity P-wave (km/s) = 6.34882 6.99191 6.67811
#
# Compressibility (1/GPa) = 0.01987158
#
# Stress axis : x y z
#
# Youngs Moduli (GPa) = 108.84305 95.88043 134.58052
#
# Poissons Ratio (x) = 0.02409 0.24187
# Poissons Ratio (y) = 0.02735 0.20720
# Poissons Ratio (z) = 0.19561 0.14762
#
# Static dielectric constant tensor:
#      x y z
#    x 1.663330 0.000000 0.000000 
#    y 0.000000 1.646250 0.000000 
#    z 0.000000 0.000000 1.669520 
# 
# From -- ./inp_files/29247.got.cif
#   From: 2010.05.17/outbox.cif.g08.bks.cpg/sg63_15_cif.got.tgz:29247.got - 2010.06.03 15:47:04.
