data_PCOD9475952
_publ_section_title
;
Structure prediction by ZEFSAII (Michael W. Deem and Ramdas Pophale) SiO2 
 PCOD9475952
Probable space group: C M C M
;
_chemical_formula_sum "Si O2"
_cell_formula_units_Z 96
_cell_length_a 7.378456
_cell_length_b 34.087160
_cell_length_c 19.151196
_cell_angle_alpha 90.000000
_cell_angle_beta 90.000000
_cell_angle_gamma 90.000000
_cell_volume 4816.728992
_symmetry_space_group_name_H-M "C M C M"
_symmetry_group_IT_number 63
_symmetry_cell_setting 'orthorhombic'
loop_
_space_group_symop_operation_xyz
x,y,z
-x,-y,1/2+z
x,-y,-z
-x,y,1/2-z
-x,-y,-z
x,y,1/2-z
-x,y,z
x,-y,1/2+z
1/2+x,1/2+y,z
1/2-x,1/2-y,1/2+z
1/2+x,1/2-y,-z
1/2-x,1/2+y,1/2-z
1/2-x,1/2-y,-z
1/2+x,1/2+y,1/2-z
1/2-x,1/2+y,z
1/2+x,1/2-y,1/2+z
loop_
_atom_site_type_symbol
_atom_site_label
_atom_site_fract_x
_atom_site_fract_y
_atom_site_fract_z
Si Si1 0.220467 0.917162 0.828686
Si Si2 0.216677 0.670588 0.671361
Si Si3 0.278967 0.663405 0.097627
Si Si4 0.778595 0.041521 0.030251
Si Si5 0.220332 0.242377 0.168619
Si Si6 0.784979 0.120960 0.961241
O O1 0.281528 0.925886 0.750000
O O2 0.272301 0.873067 0.852458
O O3 0.276584 0.946580 0.890855
O O4 0.000000 0.917764 0.828090
O O5 0.284013 0.662986 0.750000
O O6 0.281531 0.713895 0.647824
O O7 0.254816 0.637294 0.615408
O O8 0.000000 0.673462 0.675829
O O9 0.500000 0.664606 0.098422
O O10 0.215076 0.705526 0.123993
O O11 0.217829 0.651306 0.020179
O O12 0.000000 0.040550 0.030672
O O13 0.718774 0.077657 0.981078
O O14 0.717341 0.000000 0.000000
O O15 0.268251 0.236897 0.250000
O O16 0.000000 0.242097 0.165359
O O17 0.000000 0.119021 0.971408
#
# Coordination Sequence:
#
# PCOD9475952 Si02
#       6
#    16  16  16  16  16  16
#     4   8  12  18  31  52  77 104 132 163 201 241
#     4   9  18  31  44  58  79 109 143 175 203 234
#     4   8  13  21  35  57  82 103 127 165 208 246
#     4   8  14  25  39  56  83 113 135 162 202 245
#     4   8  13  22  37  56  79 109 141 169 200 239
#     4   9  17  28  43  63  84 107 134 166 210 254
#
# _framework density 19.930539
#
# number of rings (size 3 to 8) (size 9 to 14) (size 15 to 20)
#    0.000    3.667    0.000    3.500    0.000    3.000 
#    0.000    0.833    0.000    3.500    0.000    0.000 
#    0.000   16.000    0.000    0.000    0.000    0.000 
#
# Total GULP energy -267519.565557 kJ/mol
# GULP energy per Si atom -5573.324282 kJ/mol
# Density = 1.988518 g / cm^3
# Si number density = 19.930539 Si / 1000 Ang^3
#
#
#
# Elastic Constant Matrix: (Units=GPa)
#
#
# Indices 1 2 3 4 5 6 
#
# 1 66.3973 4.2737 0.7691 0.0000 0.0000 0.0000
# 2 4.2737 153.2337 117.5024 0.0000 0.0000 0.0000
# 3 0.7691 117.5024 152.8441 0.0000 0.0000 0.0000
# 4 0.0000 0.0000 0.0000 27.1849 0.0000 0.0000
# 5 0.0000 0.0000 0.0000 0.0000 -2.9342 0.0000
# 6 0.0000 0.0000 0.0000 0.0000 0.0000 -6.6729
#
#
#
# Elastic Compliance Matrix: (Units=1/GPa)
#
#
# Indices 1 2 3 4 5 6 
#
# 1 0.015111 -0.000885 0.000604 0.000000 0.000000 0.000000
# 2 -0.000885 0.015950 -0.012257 0.000000 0.000000 0.000000
# 3 0.000604 -0.012257 0.015963 0.000000 0.000000 0.000000
# 4 0.000000 0.000000 0.000000 0.036785 0.000000 0.000000
# 5 0.000000 0.000000 0.000000 0.000000 -0.340807 0.000000
# 6 0.000000 0.000000 0.000000 0.000000 0.000000 -0.149860
#
#
# Mechanical properties :
#
#
# Convention : Reuss Voigt Hill
#
# Bulk Modulus (GPa) = 45.56340 68.61839 57.09089
# Shear Modulus (GPa) = -13.35232 20.17757 3.41263
#
# Velocity S-wave (km/s) = -2.59113 3.18527 1.30995
# Velocity P-wave (km/s) = 3.73614 6.93047 5.56732
#
# Compressibility (1/GPa) = 0.02194744
#
# Stress axis : x y z
#
# Youngs Moduli (GPa) = 66.17789 62.69676 62.64615
#
# Poissons Ratio (x) = 0.05546 -0.03784
# Poissons Ratio (y) = 0.05854 0.76787
# Poissons Ratio (z) = -0.03997 0.76849
#
# Static dielectric constant tensor:
#      x y z
#    x 1.820080 0.000000 0.000000 
#    y 0.000000 1.682620 0.000000 
#    z 0.000000 0.000000 1.703230 
# 
# From -- ./inp_files/51382.got.cif
#   From: 2010.05.17/outbox.cif.g08.bks.cpg/sg63_26_cif.got.tgz:51382.got - 2010.06.03 15:47:04.
