data_PCOD9475920
_publ_section_title
;
Structure prediction by ZEFSAII (Michael W. Deem and Ramdas Pophale) SiO2 
 PCOD9475920
Probable space group: C M C M
;
_chemical_formula_sum "Si O2"
_cell_formula_units_Z 68
_cell_length_a 17.953661
_cell_length_b 20.658151
_cell_length_c 7.699057
_cell_angle_alpha 90.000000
_cell_angle_beta 90.000000
_cell_angle_gamma 90.000000
_cell_volume 2855.498939
_symmetry_space_group_name_H-M "C M C M"
_symmetry_group_IT_number 63
_symmetry_cell_setting 'orthorhombic'
loop_
_space_group_symop_operation_xyz
x,y,z
-x,-y,1/2+z
x,-y,-z
-x,y,1/2-z
-x,-y,-z
x,y,1/2-z
-x,y,z
x,-y,1/2+z
1/2+x,1/2+y,z
1/2-x,1/2-y,1/2+z
1/2+x,1/2-y,-z
1/2-x,1/2+y,1/2-z
1/2-x,1/2-y,-z
1/2+x,1/2+y,1/2-z
1/2-x,1/2+y,z
1/2+x,1/2-y,1/2+z
loop_
_atom_site_type_symbol
_atom_site_label
_atom_site_fract_x
_atom_site_fract_y
_atom_site_fract_z
Si Si1 0.126349 0.569339 0.053314
Si Si2 0.696941 0.808243 0.441737
Si Si3 0.413990 0.430536 0.458338
Si Si4 0.500000 0.085751 0.750000
Si Si5 0.088797 0.791192 0.453671
O O1 0.094971 0.564637 0.250000
O O2 0.159470 0.500000 0.000000
O O3 0.185576 0.627399 0.050223
O O4 0.064871 0.583460 0.905355
O O5 0.718864 0.828563 0.250000
O O6 0.750000 0.750000 0.500000
O O7 0.618444 0.770221 0.445387
O O8 0.378903 0.500000 0.500000
O O9 0.417669 0.425264 0.250000
O O10 0.500000 0.433225 0.525316
O O11 0.381539 0.361348 0.516637
O O12 0.108097 0.781815 0.250000
O O13 0.000000 0.794664 0.464246
#
# Coordination Sequence:
#
# PCOD9475920 Si02
#       5
#    16  16  16   4  16
#     4  12  25  44  71 108 150 190 235 299 359 436
#     4  12  26  46  66  93 131 179 230 283 350 427
#     4   8  14  26  46  73 110 146 187 238 298 357
#     4  12  24  44  70 114 152 186 242 286 374 430
#     4   9  19  36  58  88 120 159 208 266 333 404
#
# _framework density 23.813700999999998
#
# number of rings (size 3 to 8) (size 9 to 14) (size 15 to 20)
#    0.000    1.647    2.353    4.235    1.647    1.412 
#    0.000    3.529    0.000    2.824    0.000    0.000 
#    0.000    0.000    0.000    0.000    0.000    0.000 
#
# Total GULP energy -189308.669728 kJ/mol
# GULP energy per Si atom -5567.902051 kJ/mol
# Density = 2.375950 g / cm^3
# Si number density = 23.813701 Si / 1000 Ang^3
#
#
#
# Elastic Constant Matrix: (Units=GPa)
#
#
# Indices 1 2 3 4 5 6 
#
# 1 43.2177 29.0439 16.9648 0.0000 0.0000 0.0000
# 2 29.0439 182.1493 28.0376 0.0000 0.0000 0.0000
# 3 16.9648 28.0376 150.6018 0.0000 0.0000 0.0000
# 4 0.0000 0.0000 0.0000 31.1666 0.0000 0.0000
# 5 0.0000 0.0000 0.0000 0.0000 20.5939 0.0000
# 6 0.0000 0.0000 0.0000 0.0000 0.0000 -2.0941
#
#
#
# Elastic Compliance Matrix: (Units=1/GPa)
#
#
# Indices 1 2 3 4 5 6 
#
# 1 0.026653 -0.003899 -0.002276 0.000000 0.000000 0.000000
# 2 -0.003899 0.006222 -0.000719 0.000000 0.000000 0.000000
# 3 -0.002276 -0.000719 0.007030 0.000000 0.000000 0.000000
# 4 0.000000 0.000000 0.000000 0.032086 0.000000 0.000000
# 5 0.000000 0.000000 0.000000 0.000000 0.048558 0.000000
# 6 0.000000 0.000000 0.000000 0.000000 0.000000 -0.477526
#
#
# Mechanical properties :
#
#
# Convention : Reuss Voigt Hill
#
# Bulk Modulus (GPa) = 38.29127 58.22904 48.26015
# Shear Modulus (GPa) = -14.94853 30.06144 7.55646
#
# Velocity S-wave (km/s) = -2.50817 3.55682 1.78327
# Velocity P-wave (km/s) = 2.77967 6.43218 4.95477
#
# Compressibility (1/GPa) = 0.02611562
#
# Stress axis : x y z
#
# Youngs Moduli (GPa) = 37.51950 160.70791 142.24048
#
# Poissons Ratio (x) = 0.62667 0.32380
# Poissons Ratio (y) = 0.14630 0.10230
# Poissons Ratio (z) = 0.08541 0.11558
#
# Static dielectric constant tensor:
#      x y z
#    x 1.989530 0.000000 0.000000 
#    y 0.000000 1.965640 0.000000 
#    z 0.000000 0.000000 1.924740 
# 
# From -- ./inp_files/5891.got.cif
#   From: 2010.05.17/outbox.cif.g08.bks.cpg/sg63_3_cif.got.tgz:5891.got - 2010.06.03 15:47:04.
