data_PCOD9475959
_publ_section_title
;
Structure prediction by ZEFSAII (Michael W. Deem and Ramdas Pophale) SiO2 
 PCOD9475959
Probable space group: C M C M
;
_chemical_formula_sum "Si O2"
_cell_formula_units_Z 96
_cell_length_a 7.380767
_cell_length_b 33.865659
_cell_length_c 19.339286
_cell_angle_alpha 90.000000
_cell_angle_beta 90.000000
_cell_angle_gamma 90.000000
_cell_volume 4833.942305
_symmetry_space_group_name_H-M "C M C M"
_symmetry_group_IT_number 63
_symmetry_cell_setting 'orthorhombic'
loop_
_space_group_symop_operation_xyz
x,y,z
-x,-y,1/2+z
x,-y,-z
-x,y,1/2-z
-x,-y,-z
x,y,1/2-z
-x,y,z
x,-y,1/2+z
1/2+x,1/2+y,z
1/2-x,1/2-y,1/2+z
1/2+x,1/2-y,-z
1/2-x,1/2+y,1/2-z
1/2-x,1/2-y,-z
1/2+x,1/2+y,1/2-z
1/2-x,1/2+y,z
1/2+x,1/2-y,1/2+z
loop_
_atom_site_type_symbol
_atom_site_label
_atom_site_fract_x
_atom_site_fract_y
_atom_site_fract_z
Si Si1 0.721076 0.581712 0.827857
Si Si2 0.778907 0.829669 0.829043
Si Si3 0.721031 0.621724 0.041870
Si Si4 0.214961 0.160423 0.597538
Si Si5 0.716455 0.241131 0.827911
Si Si6 0.279218 0.458356 0.030652
O O1 0.781220 0.572248 0.750000
O O2 0.500000 0.581189 0.826789
O O3 0.780024 0.625994 0.850431
O O4 0.776362 0.553007 0.890963
O O5 0.722939 0.837065 0.750000
O O6 0.717254 0.861322 0.885102
O O7 0.721300 0.784983 0.848545
O O8 0.000000 0.830131 0.829336
O O9 0.500000 0.621687 0.043551
O O10 0.780557 0.650322 0.979290
O O11 0.775592 0.577930 0.018784
O O12 0.245371 0.204488 0.623091
O O13 0.000000 0.154842 0.595100
O O14 0.784224 0.232792 0.750000
O O15 0.500000 0.243798 0.823871
O O16 0.500000 0.458923 0.031533
O O17 0.218172 0.500000 0.000000
#
# Coordination Sequence:
#
# PCOD9475959 Si02
#       6
#    16  16  16  16  16  16
#     4   8  13  21  33  49  70  96 123 150 185 230
#     4   8  14  25  38  50  69  99 130 158 191 230
#     4   8  14  24  37  53  72  96 128 161 192 229
#     4   9  16  25  39  58  78 102 131 160 190 228
#     4   9  17  27  38  54  77 104 132 162 194 224
#     4   8  13  21  32  47  70  96 120 152 192 227
#
# _framework density 19.859566000000001
#
# number of rings (size 3 to 8) (size 9 to 14) (size 15 to 20)
#    0.000    3.667    0.000    3.500    0.000    1.667 
#    0.000    0.833    0.000    5.000    0.000    0.000 
#    0.000   10.667    0.000    0.000    0.000   28.667 
#
# Total GULP energy -267487.334292 kJ/mol
# GULP energy per Si atom -5572.652798 kJ/mol
# Density = 1.981437 g / cm^3
# Si number density = 19.859566 Si / 1000 Ang^3
#
#
#
# Elastic Constant Matrix: (Units=GPa)
#
#
# Indices 1 2 3 4 5 6 
#
# 1 65.1463 2.0173 4.7645 0.0000 0.0000 0.0000
# 2 2.0173 156.1371 133.7310 0.0000 0.0000 0.0000
# 3 4.7645 133.7310 176.8141 0.0000 0.0000 0.0000
# 4 0.0000 0.0000 0.0000 26.2443 0.0000 0.0000
# 5 0.0000 0.0000 0.0000 0.0000 -5.2612 0.0000
# 6 0.0000 0.0000 0.0000 0.0000 0.0000 9.5166
#
#
#
# Elastic Compliance Matrix: (Units=1/GPa)
#
#
# Indices 1 2 3 4 5 6 
#
# 1 0.015391 0.000444 -0.000751 0.000000 0.000000 0.000000
# 2 0.000444 0.018197 -0.013775 0.000000 0.000000 0.000000
# 3 -0.000751 -0.013775 0.016095 0.000000 0.000000 0.000000
# 4 0.000000 0.000000 0.000000 0.038103 0.000000 0.000000
# 5 0.000000 0.000000 0.000000 0.000000 -0.190070 0.000000
# 6 0.000000 0.000000 0.000000 0.000000 0.000000 0.105079
#
#
# Mechanical properties :
#
#
# Convention : Reuss Voigt Hill
#
# Bulk Modulus (GPa) = 46.46944 75.45812 60.96378
# Shear Modulus (GPa) = 131.11970 23.27226 77.19598
#
# Velocity S-wave (km/s) = 8.13430 3.42693 6.24142
# Velocity P-wave (km/s) = 10.56751 7.33054 9.09420
#
# Compressibility (1/GPa) = 0.02151952
#
# Stress axis : x y z
#
# Youngs Moduli (GPa) = 64.97212 54.95271 62.13222
#
# Poissons Ratio (x) = -0.02440 0.04663
# Poissons Ratio (y) = -0.02885 0.85589
# Poissons Ratio (z) = 0.04876 0.75699
#
# Static dielectric constant tensor:
#      x y z
#    x 1.847300 0.000000 0.000000 
#    y 0.000000 1.675040 0.000000 
#    z 0.000000 0.000000 1.694490 
# 
# From -- ./inp_files/53045.got.cif
#   From: 2010.05.17/outbox.cif.g08.bks.cpg/sg63_27_cif.got.tgz:53045.got - 2010.06.03 15:47:04.
