data_PCOD9475742
_publ_section_title
;
Structure prediction by ZEFSAII (Michael W. Deem and Ramdas Pophale) SiO2 
 PCOD9475742
Probable space group: C M C M
;
_chemical_formula_sum "Si O2"
_cell_formula_units_Z 72
_cell_length_a 9.344142
_cell_length_b 14.811326
_cell_length_c 26.444313
_cell_angle_alpha 90.000000
_cell_angle_beta 90.000000
_cell_angle_gamma 90.000000
_cell_volume 3659.870001
_symmetry_space_group_name_H-M "C M C M"
_symmetry_group_IT_number 63
_symmetry_cell_setting 'orthorhombic'
loop_
_space_group_symop_operation_xyz
x,y,z
-x,-y,1/2+z
x,-y,-z
-x,y,1/2-z
-x,-y,-z
x,y,1/2-z
-x,y,z
x,-y,1/2+z
1/2+x,1/2+y,z
1/2-x,1/2-y,1/2+z
1/2+x,1/2-y,-z
1/2-x,1/2+y,1/2-z
1/2-x,1/2-y,-z
1/2+x,1/2+y,1/2-z
1/2-x,1/2+y,z
1/2+x,1/2-y,1/2+z
loop_
_atom_site_type_symbol
_atom_site_label
_atom_site_fract_x
_atom_site_fract_y
_atom_site_fract_z
Si Si1 0.667016 0.055940 0.611828
Si Si2 0.828502 0.243000 0.631178
Si Si3 0.326946 0.906900 0.805913
Si Si4 0.161669 0.811220 0.961712
Si Si5 0.743140 0.500000 0.500000
O O1 0.500000 0.074428 0.622137
O O2 0.759107 0.144948 0.624238
O O3 0.717264 0.976329 0.649879
O O4 0.678163 0.028165 0.552462
O O5 0.795403 0.302259 0.680859
O O6 0.755775 0.304247 0.588209
O O7 0.000000 0.237690 0.624633
O O8 0.273257 0.931213 0.750000
O O9 0.500000 0.912362 0.805412
O O10 0.000000 0.777746 0.953926
O O11 0.157926 0.911410 0.983738
O O12 0.250000 0.750000 0.000000
#
# Coordination Sequence:
#
# PCOD9475742 Si02
#       5
#    16  16  16  16   8
#     4  11  23  39  63  94 126 166 208 256 311 375
#     4  11  23  40  62  91 124 163 207 258 312 369
#     4   9  20  41  65  89 121 164 211 258 314 377
#     4  12  25  40  61  91 127 165 203 250 304 371
#     4  12  24  38  62  94 130 164 202 258 308 376
#
# _framework density 19.672830000000001
#
# number of rings (size 3 to 8) (size 9 to 14) (size 15 to 20)
#    0.000    1.111    4.444    2.000    0.000    3.556 
#    0.000    0.000    0.000    4.667    0.000    0.000 
#    0.000    0.000    0.000    0.000    0.000    0.000 
#
# Total GULP energy -200710.834516 kJ/mol
# GULP energy per Si atom -5575.300959 kJ/mol
# Density = 1.962805 g / cm^3
# Si number density = 19.672830 Si / 1000 Ang^3
#
#
#
# Elastic Constant Matrix: (Units=GPa)
#
#
# Indices 1 2 3 4 5 6 
#
# 1 89.9907 48.9259 26.4194 0.0000 0.0000 0.0000
# 2 48.9259 148.7025 59.9603 0.0000 0.0000 0.0000
# 3 26.4194 59.9603 131.5753 0.0000 0.0000 0.0000
# 4 0.0000 0.0000 0.0000 28.3425 0.0000 0.0000
# 5 0.0000 0.0000 0.0000 0.0000 13.3183 0.0000
# 6 0.0000 0.0000 0.0000 0.0000 0.0000 1.3047
#
#
#
# Elastic Compliance Matrix: (Units=1/GPa)
#
#
# Indices 1 2 3 4 5 6 
#
# 1 0.013610 -0.004136 -0.000848 0.000000 0.000000 0.000000
# 2 -0.004136 0.009496 -0.003497 0.000000 0.000000 0.000000
# 3 -0.000848 -0.003497 0.009364 0.000000 0.000000 0.000000
# 4 0.000000 0.000000 0.000000 0.035283 0.000000 0.000000
# 5 0.000000 0.000000 0.000000 0.000000 0.075084 0.000000
# 6 0.000000 0.000000 0.000000 0.000000 0.000000 0.766432
#
#
# Mechanical properties :
#
#
# Convention : Reuss Voigt Hill
#
# Bulk Modulus (GPa) = 64.48272 71.20888 67.84580
# Shear Modulus (GPa) = 5.36827 24.25731 14.81279
#
# Velocity S-wave (km/s) = 1.65369 3.51527 2.74698
# Velocity P-wave (km/s) = 6.04111 7.26301 6.68006
#
# Compressibility (1/GPa) = 0.01550803
#
# Stress axis : x y z
#
# Youngs Moduli (GPa) = 73.47627 105.31153 106.79193
#
# Poissons Ratio (x) = 0.43557 0.09055
# Poissons Ratio (y) = 0.30390 0.37343
# Poissons Ratio (z) = 0.06230 0.36825
#
# Static dielectric constant tensor:
#      x y z
#    x 1.673710 0.000000 0.000000 
#    y 0.000000 1.730540 0.000000 
#    z 0.000000 0.000000 1.711910 
# 
# From -- ./inp_files/66337.got.cif
#   From: 2010.05.17/outbox.cif.g08.bks.cpg/sg63_34_cif.got.tgz:66337.got - 2010.06.03 15:47:04.
