data_PCOD9475716
_publ_section_title
;
Structure prediction by ZEFSAII (Michael W. Deem and Ramdas Pophale) SiO2 
 PCOD9475716
Probable space group: C M C M
;
_chemical_formula_sum "Si O2"
_cell_formula_units_Z 96
_cell_length_a 8.910985
_cell_length_b 23.888311
_cell_length_c 25.696876
_cell_angle_alpha 90.000000
_cell_angle_beta 90.000000
_cell_angle_gamma 90.000000
_cell_volume 5470.052391
_symmetry_space_group_name_H-M "C M C M"
_symmetry_group_IT_number 63
_symmetry_cell_setting 'orthorhombic'
loop_
_space_group_symop_operation_xyz
x,y,z
-x,-y,1/2+z
x,-y,-z
-x,y,1/2-z
-x,-y,-z
x,y,1/2-z
-x,y,z
x,-y,1/2+z
1/2+x,1/2+y,z
1/2-x,1/2-y,1/2+z
1/2+x,1/2-y,-z
1/2-x,1/2+y,1/2-z
1/2-x,1/2-y,-z
1/2+x,1/2+y,1/2-z
1/2-x,1/2+y,z
1/2+x,1/2-y,1/2+z
loop_
_atom_site_type_symbol
_atom_site_label
_atom_site_fract_x
_atom_site_fract_y
_atom_site_fract_z
Si Si1 0.678289 0.433664 0.002364
Si Si2 0.320085 0.565221 0.189266
Si Si3 0.820649 0.934996 0.311103
Si Si4 0.179069 0.246649 0.942458
Si Si5 0.821360 0.633646 0.597429
Si Si6 0.178245 0.371074 0.595308
O O1 0.500000 0.424372 0.007895
O O2 0.737172 0.404842 0.949995
O O3 0.705192 0.500000 0.000000
O O4 0.761879 0.405766 0.050885
O O5 0.284988 0.575211 0.250000
O O6 0.500000 0.571152 0.182926
O O7 0.283434 0.500105 0.177429
O O8 0.235606 0.605845 0.150186
O O9 0.790320 0.925285 0.250000
O O10 0.733437 0.893926 0.348998
O O11 0.000000 0.928681 0.319166
O O12 0.249819 0.194351 0.912534
O O13 0.207911 0.305386 0.913667
O O14 0.000000 0.239134 0.947241
O O15 0.250000 0.250000 0.000000
O O16 0.000000 0.637396 0.595313
O O17 0.000000 0.379970 0.590084
#
# Coordination Sequence:
#
# PCOD9475716 Si02
#       6
#    16  16  16  16  16  16
#     4  11  23  37  56  82 114 152 189 230 285 347
#     4   9  19  37  61  87 116 153 193 231 281 346
#     4   9  19  38  62  86 115 153 194 235 283 342
#     4  11  23  40  60  82 112 154 198 239 288 344
#     4  12  24  37  57  86 117 150 191 239 290 344
#     4  11  23  37  57  86 115 146 189 239 290 340
#
# _framework density 17.550107000000001
#
# number of rings (size 3 to 8) (size 9 to 14) (size 15 to 20)
#    0.000    1.500    1.667    5.000    0.000    8.667 
#    0.000    2.500    0.000    1.000    0.000    0.000 
#    0.000    0.000    0.000    0.000    0.000    0.000 
#
# Total GULP energy -268296.353179 kJ/mol
# GULP energy per Si atom -5589.507358 kJ/mol
# Density = 1.751016 g / cm^3
# Si number density = 17.550107 Si / 1000 Ang^3
#
#
#
# Elastic Constant Matrix: (Units=GPa)
#
#
# Indices 1 2 3 4 5 6 
#
# 1 104.4167 99.9406 69.3619 0.0000 0.0000 0.0000
# 2 99.9406 149.9935 88.4129 0.0000 0.0000 0.0000
# 3 69.3619 88.4129 99.3289 0.0000 0.0000 0.0000
# 4 0.0000 0.0000 0.0000 -39.2613 0.0000 0.0000
# 5 0.0000 0.0000 0.0000 0.0000 30.3027 0.0000
# 6 0.0000 0.0000 0.0000 0.0000 0.0000 28.6567
#
#
#
# Elastic Compliance Matrix: (Units=1/GPa)
#
#
# Indices 1 2 3 4 5 6 
#
# 1 0.028159 -0.015088 -0.006234 0.000000 0.000000 0.000000
# 2 -0.015088 0.022110 -0.009144 0.000000 0.000000 0.000000
# 3 -0.006234 -0.009144 0.022560 0.000000 0.000000 0.000000
# 4 0.000000 0.000000 0.000000 -0.025470 0.000000 0.000000
# 5 0.000000 0.000000 0.000000 0.000000 0.033000 0.000000
# 6 0.000000 0.000000 0.000000 0.000000 0.000000 0.034896
#
#
# Mechanical properties :
#
#
# Convention : Reuss Voigt Hill
#
# Bulk Modulus (GPa) = 84.05376 96.57445 90.31411
# Shear Modulus (GPa) = 27.75416 10.34120 19.04768
#
# Velocity S-wave (km/s) = 3.98103 2.43006 3.29801
# Velocity P-wave (km/s) = 8.31438 7.93857 8.12865
#
# Compressibility (1/GPa) = 0.01189715
#
# Stress axis : x y z
#
# Youngs Moduli (GPa) = 35.51236 45.22827 44.32608
#
# Poissons Ratio (x) = 0.68240 0.27633
# Poissons Ratio (y) = 0.53581 0.40533
# Poissons Ratio (z) = 0.22138 0.41358
#
# Static dielectric constant tensor:
#      x y z
#    x 1.585870 0.000000 0.000000 
#    y 0.000000 1.578770 0.000000 
#    z 0.000000 0.000000 1.573880 
# 
# From -- ./inp_files/59863.got.cif
#   From: 2010.05.17/outbox.cif.g08.bks.cpg/sg63_30_cif.got.tgz:59863.got - 2010.06.03 15:47:04.
