data_PCOD9475992
_publ_section_title
;
Structure prediction by ZEFSAII (Michael W. Deem and Ramdas Pophale) SiO2 
 PCOD9475992
Probable space group: C M C M
;
_chemical_formula_sum "Si O2"
_cell_formula_units_Z 96
_cell_length_a 7.513032
_cell_length_b 28.775123
_cell_length_c 24.675217
_cell_angle_alpha 90.000000
_cell_angle_beta 90.000000
_cell_angle_gamma 90.000000
_cell_volume 5334.496174
_symmetry_space_group_name_H-M "C M C M"
_symmetry_group_IT_number 63
_symmetry_cell_setting 'orthorhombic'
loop_
_space_group_symop_operation_xyz
x,y,z
-x,-y,1/2+z
x,-y,-z
-x,y,1/2-z
-x,-y,-z
x,y,1/2-z
-x,y,z
x,-y,1/2+z
1/2+x,1/2+y,z
1/2-x,1/2-y,1/2+z
1/2+x,1/2-y,-z
1/2-x,1/2+y,1/2-z
1/2-x,1/2-y,-z
1/2+x,1/2+y,1/2-z
1/2-x,1/2+y,z
1/2+x,1/2-y,1/2+z
loop_
_atom_site_type_symbol
_atom_site_label
_atom_site_fract_x
_atom_site_fract_y
_atom_site_fract_z
Si Si1 0.282500 0.176164 0.688337
Si Si2 0.788363 0.983113 0.418125
Si Si3 0.282065 0.426379 0.977895
Si Si4 0.214044 0.821770 0.975924
Si Si5 0.713234 0.070336 0.689575
Si Si6 0.212838 0.732223 0.585648
O O1 0.229745 0.187728 0.750000
O O2 0.500000 0.176407 0.687310
O O3 0.225189 0.122971 0.676870
O O4 0.218951 0.210833 0.641695
O O5 0.724148 0.034463 0.434742
O O6 0.000000 0.984821 0.425271
O O7 0.724347 0.946333 0.463468
O O8 0.755040 0.965065 0.358142
O O9 0.500000 0.424725 0.977723
O O10 0.219504 0.374073 0.968126
O O11 0.253853 0.803320 0.036283
O O12 0.000000 0.822721 0.970678
O O13 0.282150 0.782213 0.934652
O O14 0.778166 0.057791 0.750000
O O15 0.500000 0.072819 0.692359
O O16 0.000000 0.736729 0.591286
#
# Coordination Sequence:
#
# PCOD9475992 Si02
#       6
#    16  16  16  16  16  16
#     4   8  14  25  40  57  78 103 128 156 192 231
#     4   9  16  27  43  59  77 105 137 163 190 232
#     4   8  15  27  41  58  81 107 131 159 199 237
#     4   9  16  26  40  58  82 107 127 155 197 236
#     4   9  17  28  41  58  81 105 127 158 200 236
#     4   9  16  25  40  61  80 101 131 162 191 229
#
# _framework density 17.996077
#
# number of rings (size 3 to 8) (size 9 to 14) (size 15 to 20)
#    0.000    3.333    0.000    3.000    0.000    0.333 
#    0.000    2.500    0.000    2.500    0.000    4.667 
#    0.000    0.000    0.000    0.000    0.000    0.000 
#
# Total GULP energy -267455.730325 kJ/mol
# GULP energy per Si atom -5571.994382 kJ/mol
# Density = 1.795512 g / cm^3
# Si number density = 17.996077 Si / 1000 Ang^3
#
#
#
# Elastic Constant Matrix: (Units=GPa)
#
#
# Indices 1 2 3 4 5 6 
#
# 1 43.5452 4.6600 -1.4208 0.0000 0.0000 0.0000
# 2 4.6600 174.0787 109.2275 0.0000 0.0000 0.0000
# 3 -1.4208 109.2275 150.8795 0.0000 0.0000 0.0000
# 4 0.0000 0.0000 0.0000 25.6716 0.0000 0.0000
# 5 0.0000 0.0000 0.0000 0.0000 22.0399 0.0000
# 6 0.0000 0.0000 0.0000 0.0000 0.0000 -52.8026
#
#
#
# Elastic Compliance Matrix: (Units=1/GPa)
#
#
# Indices 1 2 3 4 5 6 
#
# 1 0.023153 -0.001386 0.001222 0.000000 0.000000 0.000000
# 2 -0.001386 0.010609 -0.007693 0.000000 0.000000 0.000000
# 3 0.001222 -0.007693 0.012209 0.000000 0.000000 0.000000
# 4 0.000000 0.000000 0.000000 0.038954 0.000000 0.000000
# 5 0.000000 0.000000 0.000000 0.000000 0.045372 0.000000
# 6 0.000000 0.000000 0.000000 0.000000 0.000000 -0.018938
#
#
# Mechanical properties :
#
#
# Convention : Reuss Voigt Hill
#
# Bulk Modulus (GPa) = 33.05282 65.93744 49.49513
# Shear Modulus (GPa) = 36.45424 16.05090 26.25257
#
# Velocity S-wave (km/s) = 4.50563 2.98973 3.82356
# Velocity P-wave (km/s) = 6.74346 6.97405 6.85972
#
# Compressibility (1/GPa) = 0.03025461
#
# Stress axis : x y z
#
# Youngs Moduli (GPa) = 43.19126 94.26131 81.90879
#
# Poissons Ratio (x) = 0.13068 -0.10006
# Poissons Ratio (y) = 0.05988 0.63014
# Poissons Ratio (z) = -0.05276 0.72517
#
# Static dielectric constant tensor:
#      x y z
#    x 1.689650 0.000000 0.000000 
#    y 0.000000 1.622790 0.000000 
#    z 0.000000 0.000000 1.614070 
# 
# From -- ./inp_files/42513.got.cif
#   From: 2010.05.17/outbox.cif.g08.bks.cpg/sg63_22_cif.got.tgz:42513.got - 2010.06.03 15:47:04.
