data_PCOD9475507
_publ_section_title
;
Structure prediction by ZEFSAII (Michael W. Deem and Ramdas Pophale) SiO2 
 PCOD9475507
Probable space group: C M C M
;
_chemical_formula_sum "Si O2"
_cell_formula_units_Z 80
_cell_length_a 28.090854
_cell_length_b 18.217854
_cell_length_c 8.925537
_cell_angle_alpha 90.000000
_cell_angle_beta 90.000000
_cell_angle_gamma 90.000000
_cell_volume 4567.688874
_symmetry_space_group_name_H-M "C M C M"
_symmetry_group_IT_number 63
_symmetry_cell_setting 'orthorhombic'
loop_
_space_group_symop_operation_xyz
x,y,z
-x,-y,1/2+z
x,-y,-z
-x,y,1/2-z
-x,-y,-z
x,y,1/2-z
-x,y,z
x,-y,1/2+z
1/2+x,1/2+y,z
1/2-x,1/2-y,1/2+z
1/2+x,1/2-y,-z
1/2-x,1/2+y,1/2-z
1/2-x,1/2-y,-z
1/2+x,1/2+y,1/2-z
1/2-x,1/2+y,z
1/2+x,1/2-y,1/2+z
loop_
_atom_site_type_symbol
_atom_site_label
_atom_site_fract_x
_atom_site_fract_y
_atom_site_fract_z
Si Si1 0.413932 0.924528 0.572029
Si Si2 0.947294 0.725218 0.570473
Si Si3 0.152118 0.790952 0.928302
Si Si4 0.816973 0.625508 0.928837
Si Si5 0.789737 0.077771 0.928850
O O1 0.417035 0.927758 0.750000
O O2 0.440481 0.853005 0.508833
O O3 0.359196 0.912983 0.519308
O O4 0.431803 0.000000 0.500000
O O5 0.943083 0.713289 0.750000
O O6 0.902883 0.776474 0.527747
O O7 0.000000 0.754644 0.538762
O O8 0.154089 0.805020 0.750000
O O9 0.178283 0.712949 0.955686
O O10 0.177029 0.856843 0.013514
O O11 0.824804 0.613794 0.750000
O O12 0.764978 0.596900 0.970379
O O13 0.791993 0.073376 0.750000
O O14 0.802909 0.000000 0.000000
#
# Coordination Sequence:
#
# PCOD9475507 Si02
#       5
#    16  16  16  16  16
#     4  11  21  32  49  74 106 141 175 212 252 295
#     4   9  19  37  58  77  99 130 168 211 260 310
#     4   9  18  34  55  78 104 132 165 207 254 306
#     4   9  19  35  53  75 104 139 176 209 247 297
#     4  11  22  34  51  76 106 139 173 210 252 299
#
# _framework density 17.514329
#
# number of rings (size 3 to 8) (size 9 to 14) (size 15 to 20)
#    0.000    2.200    0.000    4.800    0.000    7.200 
#    0.000    0.000    0.000    0.600    0.000    0.000 
#    0.000    0.000    0.000    0.000    0.000    0.000 
#
# Total GULP energy -223361.291448 kJ/mol
# GULP energy per Si atom -5584.032286 kJ/mol
# Density = 1.747447 g / cm^3
# Si number density = 17.514329 Si / 1000 Ang^3
#
#
#
# Elastic Constant Matrix: (Units=GPa)
#
#
# Indices 1 2 3 4 5 6 
#
# 1 66.3524 16.3287 17.1146 0.0000 0.0000 0.0000
# 2 16.3287 49.7093 19.4618 0.0000 0.0000 0.0000
# 3 17.1146 19.4618 34.8201 0.0000 0.0000 0.0000
# 4 0.0000 0.0000 0.0000 27.0420 0.0000 0.0000
# 5 0.0000 0.0000 0.0000 0.0000 20.2338 0.0000
# 6 0.0000 0.0000 0.0000 0.0000 0.0000 2.2434
#
#
#
# Elastic Compliance Matrix: (Units=1/GPa)
#
#
# Indices 1 2 3 4 5 6 
#
# 1 0.017617 -0.003068 -0.006944 0.000000 0.000000 0.000000
# 2 -0.003068 0.026287 -0.013184 0.000000 0.000000 0.000000
# 3 -0.006944 -0.013184 0.039501 0.000000 0.000000 0.000000
# 4 0.000000 0.000000 0.000000 0.036980 0.000000 0.000000
# 5 0.000000 0.000000 0.000000 0.000000 0.049422 0.000000
# 6 0.000000 0.000000 0.000000 0.000000 0.000000 0.445762
#
#
# Mechanical properties :
#
#
# Convention : Reuss Voigt Hill
#
# Bulk Modulus (GPa) = 27.01839 28.52132 27.76986
# Shear Modulus (GPa) = 7.41511 16.43562 11.92536
#
# Velocity S-wave (km/s) = 2.05984 3.06667 2.61222
# Velocity P-wave (km/s) = 4.59534 5.37208 4.99882
#
# Compressibility (1/GPa) = 0.03701182
#
# Stress axis : x y z
#
# Youngs Moduli (GPa) = 56.76252 38.04223 25.31571
#
# Poissons Ratio (x) = 0.11672 0.17580
# Poissons Ratio (y) = 0.17416 0.33377
# Poissons Ratio (z) = 0.39417 0.50155
#
# Static dielectric constant tensor:
#      x y z
#    x 1.610550 0.000000 0.000000 
#    y 0.000000 1.567910 0.000000 
#    z 0.000000 0.000000 1.583850 
# 
# From -- ./inp_files/11967.got.cif
#   From: 2010.05.17/outbox.cif.g08.bks.cpg/sg63_6_cif.got.tgz:11967.got - 2010.06.03 15:47:04.
