data_PCOD9475982
_publ_section_title
;
Structure prediction by ZEFSAII (Michael W. Deem and Ramdas Pophale) SiO2 
 PCOD9475982
Probable space group: C M C M
;
_chemical_formula_sum "Si O2"
_cell_formula_units_Z 80
_cell_length_a 27.956704
_cell_length_b 19.347766
_cell_length_c 7.557612
_cell_angle_alpha 90.000000
_cell_angle_beta 90.000000
_cell_angle_gamma 90.000000
_cell_volume 4087.910571
_symmetry_space_group_name_H-M "C M C M"
_symmetry_group_IT_number 63
_symmetry_cell_setting 'orthorhombic'
loop_
_space_group_symop_operation_xyz
x,y,z
-x,-y,1/2+z
x,-y,-z
-x,y,1/2-z
-x,-y,-z
x,y,1/2-z
-x,y,z
x,-y,1/2+z
1/2+x,1/2+y,z
1/2-x,1/2-y,1/2+z
1/2+x,1/2-y,-z
1/2-x,1/2+y,1/2-z
1/2-x,1/2-y,-z
1/2+x,1/2+y,1/2-z
1/2-x,1/2+y,z
1/2+x,1/2-y,1/2+z
loop_
_atom_site_type_symbol
_atom_site_label
_atom_site_fract_x
_atom_site_fract_y
_atom_site_fract_z
Si Si1 0.601350 0.783887 0.965920
Si Si2 0.446795 0.641162 0.534375
Si Si3 0.054588 0.424084 0.537943
Si Si4 0.652273 0.578100 0.961730
Si Si5 0.801025 0.217028 0.538109
O O1 0.601686 0.785320 0.750000
O O2 0.566623 0.720192 0.014057
O O3 0.583379 0.858006 0.028998
O O4 0.654560 0.763692 0.025370
O O5 0.447453 0.638424 0.750000
O O6 0.500000 0.622173 0.472768
O O7 0.401792 0.595064 0.473654
O O8 0.074976 0.500000 0.500000
O O9 0.052212 0.417663 0.750000
O O10 0.000000 0.422386 0.469431
O O11 0.650305 0.584369 0.750000
O O12 0.687522 0.639026 0.026489
O O13 0.666556 0.500000 0.000000
O O14 0.804665 0.214664 0.750000
O O15 0.750000 0.250000 0.500000
#
# Coordination Sequence:
#
# PCOD9475982 Si02
#       5
#    16  16  16  16  16
#     4   8  14  26  44  64  86 113 147 184 218 258
#     4   8  13  23  42  67  91 116 148 182 212 249
#     4   9  16  26  42  64  89 117 146 176 215 262
#     4   9  18  31  47  69  95 120 147 180 219 264
#     4   9  18  33  51  69  88 113 149 190 228 265
#
# _framework density 19.569898999999999
#
# number of rings (size 3 to 8) (size 9 to 14) (size 15 to 20)
#    0.000    3.400    0.000    3.000    0.000    3.600 
#    0.000    2.000    0.000    6.000    0.000    0.000 
#    0.000    0.000    0.000    0.000    0.000    0.000 
#
# Total GULP energy -222892.005321 kJ/mol
# GULP energy per Si atom -5572.300133 kJ/mol
# Density = 1.952536 g / cm^3
# Si number density = 19.569899 Si / 1000 Ang^3
#
#
#
# Elastic Constant Matrix: (Units=GPa)
#
#
# Indices 1 2 3 4 5 6 
#
# 1 116.4576 69.1865 5.1172 0.0000 0.0000 0.0000
# 2 69.1865 164.9247 3.5911 0.0000 0.0000 0.0000
# 3 5.1172 3.5911 43.5179 0.0000 0.0000 0.0000
# 4 0.0000 0.0000 0.0000 17.8211 0.0000 0.0000
# 5 0.0000 0.0000 0.0000 0.0000 8.9114 0.0000
# 6 0.0000 0.0000 0.0000 0.0000 0.0000 14.1974
#
#
#
# Elastic Compliance Matrix: (Units=1/GPa)
#
#
# Indices 1 2 3 4 5 6 
#
# 1 0.011477 -0.004794 -0.000954 0.000000 0.000000 0.000000
# 2 -0.004794 0.008077 -0.000103 0.000000 0.000000 0.000000
# 3 -0.000954 -0.000103 0.023100 0.000000 0.000000 0.000000
# 4 0.000000 0.000000 0.000000 0.056113 0.000000 0.000000
# 5 0.000000 0.000000 0.000000 0.000000 0.112215 0.000000
# 6 0.000000 0.000000 0.000000 0.000000 0.000000 0.070436
#
#
# Mechanical properties :
#
#
# Convention : Reuss Voigt Hill
#
# Bulk Modulus (GPa) = 32.30804 53.40999 42.85902
# Shear Modulus (GPa) = 16.47797 24.65300 20.56548
#
# Velocity S-wave (km/s) = 2.90488 3.55313 3.24523
# Velocity P-wave (km/s) = 5.27219 6.64712 5.99917
#
# Compressibility (1/GPa) = 0.03095204
#
# Stress axis : x y z
#
# Youngs Moduli (GPa) = 87.13344 123.81454 43.29057
#
# Poissons Ratio (x) = 0.59353 0.04130
# Poissons Ratio (y) = 0.41769 0.00445
# Poissons Ratio (z) = 0.08312 0.01273
#
# Static dielectric constant tensor:
#      x y z
#    x 1.680040 0.000000 0.000000 
#    y 0.000000 1.696570 0.000000 
#    z 0.000000 0.000000 1.760630 
# 
# From -- ./inp_files/11997.got.cif
#   From: 2010.05.17/outbox.cif.g08.bks.cpg/sg63_6_cif.got.tgz:11997.got - 2010.06.03 15:47:04.
