data_PCOD9475628
_publ_section_title
;
Structure prediction by ZEFSAII (Michael W. Deem and Ramdas Pophale) SiO2 
 PCOD9475628
Probable space group: C M C M
;
_chemical_formula_sum "Si O2"
_cell_formula_units_Z 88
_cell_length_a 17.293173
_cell_length_b 31.321151
_cell_length_c 8.313002
_cell_angle_alpha 90.000000
_cell_angle_beta 90.000000
_cell_angle_gamma 90.000000
_cell_volume 4502.671718
_symmetry_space_group_name_H-M "C M C M"
_symmetry_group_IT_number 63
_symmetry_cell_setting 'orthorhombic'
loop_
_space_group_symop_operation_xyz
x,y,z
-x,-y,1/2+z
x,-y,-z
-x,y,1/2-z
-x,-y,-z
x,y,1/2-z
-x,y,z
x,-y,1/2+z
1/2+x,1/2+y,z
1/2-x,1/2-y,1/2+z
1/2+x,1/2-y,-z
1/2-x,1/2+y,1/2-z
1/2-x,1/2-y,-z
1/2+x,1/2+y,1/2-z
1/2-x,1/2+y,z
1/2+x,1/2-y,1/2+z
loop_
_atom_site_type_symbol
_atom_site_label
_atom_site_fract_x
_atom_site_fract_y
_atom_site_fract_z
Si Si1 0.000000 0.450878 0.560349
Si Si2 0.809245 0.875980 0.052904
Si Si3 0.635477 0.888858 0.061301
Si Si4 0.911819 0.044901 0.943617
Si Si5 0.407701 0.798174 0.567297
Si Si6 0.409773 0.704661 0.946791
O O1 0.000000 0.500000 0.500000
O O2 0.075218 0.422971 0.509579
O O3 0.000000 0.453134 0.750000
O O4 0.806656 0.874436 0.250000
O O5 0.723083 0.887136 0.996308
O O6 0.864247 0.914515 0.002681
O O7 0.850125 0.831943 0.001571
O O8 0.638611 0.898179 0.250000
O O9 0.607818 0.840314 0.033490
O O10 0.913501 0.045288 0.750000
O O11 0.000000 0.047453 0.003203
O O12 0.877955 0.000000 0.000000
O O13 0.377741 0.804406 0.750000
O O14 0.500000 0.793753 0.578961
O O15 0.382475 0.751984 0.501910
O O16 0.410772 0.705316 0.750000
O O17 0.500000 0.696738 0.995206
#
# Coordination Sequence:
#
# PCOD9475628 Si02
#       6
#     8  16  16  16  16  16
#     4  12  26  46  68  86 106 136 182 234 285 344
#     4   9  18  31  49  78 113 143 180 227 271 321
#     4  11  22  36  56  83 113 145 178 222 278 331
#     4   9  17  31  52  75 101 137 177 216 258 311
#     4   9  17  31  53  78 106 145 190 230 267 321
#     4   8  14  27  50  79 110 149 192 229 265 313
#
# _framework density 19.543952000000001
#
# number of rings (size 3 to 8) (size 9 to 14) (size 15 to 20)
#    0.000    2.545    0.909    3.000    0.000    3.636 
#    0.000    3.636    0.000    2.182    0.000    2.545 
#    0.000    0.000    0.000    0.000    0.000    0.000 
#
# Total GULP energy -245212.115335 kJ/mol
# GULP energy per Si atom -5573.002621 kJ/mol
# Density = 1.949947 g / cm^3
# Si number density = 19.543952 Si / 1000 Ang^3
#
#
#
# Elastic Constant Matrix: (Units=GPa)
#
#
# Indices 1 2 3 4 5 6 
#
# 1 97.2302 81.8752 18.1082 0.0000 0.0000 0.0000
# 2 81.8752 181.7487 20.2992 0.0000 0.0000 0.0000
# 3 18.1082 20.2992 23.2481 0.0000 0.0000 0.0000
# 4 0.0000 0.0000 0.0000 21.8653 0.0000 0.0000
# 5 0.0000 0.0000 0.0000 0.0000 5.1255 0.0000
# 6 0.0000 0.0000 0.0000 0.0000 0.0000 15.1191
#
#
#
# Elastic Compliance Matrix: (Units=1/GPa)
#
#
# Indices 1 2 3 4 5 6 
#
# 1 0.017694 -0.007127 -0.007559 0.000000 0.000000 0.000000
# 2 -0.007127 0.008967 -0.002279 0.000000 0.000000 0.000000
# 3 -0.007559 -0.002279 0.050892 0.000000 0.000000 0.000000
# 4 0.000000 0.000000 0.000000 0.045735 0.000000 0.000000
# 5 0.000000 0.000000 0.000000 0.000000 0.195103 0.000000
# 6 0.000000 0.000000 0.000000 0.000000 0.000000 0.066142
#
#
# Mechanical properties :
#
#
# Convention : Reuss Voigt Hill
#
# Bulk Modulus (GPa) = 22.92335 60.31023 41.61679
# Shear Modulus (GPa) = 11.54728 20.55159 16.04944
#
# Velocity S-wave (km/s) = 2.43335 3.24629 2.86876
# Velocity P-wave (km/s) = 4.43278 6.70649 5.68447
#
# Compressibility (1/GPa) = 0.04362364
#
# Stress axis : x y z
#
# Youngs Moduli (GPa) = 56.51707 111.52008 19.64953
#
# Poissons Ratio (x) = 0.79475 0.14854
# Poissons Ratio (y) = 0.40277 0.04478
# Poissons Ratio (z) = 0.42723 0.25412
#
# Static dielectric constant tensor:
#      x y z
#    x 1.709820 0.000000 0.000000 
#    y 0.000000 1.698430 0.000000 
#    z 0.000000 0.000000 1.689170 
# 
# From -- ./inp_files/6899.got.cif
#   From: 2010.05.17/outbox.cif.g08.bks.cpg/sg63_4_cif.got.tgz:6899.got - 2010.06.03 15:47:04.
