data_PCOD9475967
_publ_section_title
;
Structure prediction by ZEFSAII (Michael W. Deem and Ramdas Pophale) SiO2 
 PCOD9475967
Probable space group: C M C M
;
_chemical_formula_sum "Si O2"
_cell_formula_units_Z 128
_cell_length_a 26.328430
_cell_length_b 24.352400
_cell_length_c 10.305446
_cell_angle_alpha 90.000000
_cell_angle_beta 90.000000
_cell_angle_gamma 90.000000
_cell_volume 6607.444485
_symmetry_space_group_name_H-M "C M C M"
_symmetry_group_IT_number 63
_symmetry_cell_setting 'orthorhombic'
loop_
_space_group_symop_operation_xyz
x,y,z
-x,-y,1/2+z
x,-y,-z
-x,y,1/2-z
-x,-y,-z
x,y,1/2-z
-x,y,z
x,-y,1/2+z
1/2+x,1/2+y,z
1/2-x,1/2-y,1/2+z
1/2+x,1/2-y,-z
1/2-x,1/2+y,1/2-z
1/2-x,1/2-y,-z
1/2+x,1/2+y,1/2-z
1/2-x,1/2+y,z
1/2+x,1/2-y,1/2+z
loop_
_atom_site_type_symbol
_atom_site_label
_atom_site_fract_x
_atom_site_fract_y
_atom_site_fract_z
Si Si1 0.908297 0.213226 0.907000
Si Si2 0.591043 0.832172 0.907198
Si Si3 0.698215 0.961349 0.613269
Si Si4 0.075327 0.452581 0.900111
Si Si5 0.662876 0.452668 0.097458
Si Si6 0.054899 0.095609 0.592361
Si Si7 0.704091 0.328804 0.098621
Si Si8 0.289323 0.834855 0.898017
O O1 0.912376 0.214052 0.750000
O O2 0.928020 0.272598 0.952487
O O3 0.936969 0.158675 0.952062
O O4 0.848342 0.203083 0.933124
O O5 0.587445 0.834390 0.750000
O O6 0.566177 0.889937 0.948589
O O7 0.651470 0.830390 0.936385
O O8 0.711971 0.987594 0.750000
O O9 0.714071 0.000000 0.500000
O O10 0.636899 0.955929 0.607200
O O11 0.719337 0.900436 0.607752
O O12 0.057853 0.459505 0.750000
O O13 0.058726 0.500000 0.000000
O O14 0.664471 0.468876 0.250000
O O15 0.604568 0.438518 0.058559
O O16 0.691190 0.393905 0.087168
O O17 0.679930 0.500000 0.000000
O O18 0.054876 0.097103 0.750000
O O19 0.000000 0.075050 0.548263
O O20 0.716425 0.318910 0.250000
O O21 0.749301 0.313494 0.001892
O O22 0.283670 0.813502 0.750000
#
# Coordination Sequence:
#
# PCOD9475967 Si02
#       8
#    16  16  16  16  16  16  16  16
#     4   8  14  26  43  60  80 107 135 165 206 254
#     4   8  14  25  40  57  78 106 139 172 208 250
#     4   8  14  23  33  46  65  90 121 158 197 231
#     4   8  13  22  36  53  74  99 126 157 192 229
#     4   9  18  31  45  63  88 115 143 178 220 265
#     4   8  14  26  45  68  91 112 136 172 219 267
#     4   9  18  30  41  55  77 106 140 175 209 246
#     4   9  17  27  38  54  76 103 137 174 209 245
#
# _framework density 19.372088999999999
#
# number of rings (size 3 to 8) (size 9 to 14) (size 15 to 20)
#    0.000    3.625    0.000    3.000    0.000    2.250 
#    0.000    4.375    0.000    0.750    0.000    0.000 
#    0.000    0.500    0.000    0.375    0.000    0.750 
#
# Total GULP energy -356378.154549 kJ/mol
# GULP energy per Si atom -5568.408665 kJ/mol
# Density = 1.932800 g / cm^3
# Si number density = 19.372089 Si / 1000 Ang^3
#
#
#
# Elastic Constant Matrix: (Units=GPa)
#
#
# Indices 1 2 3 4 5 6 
#
# 1 66.4094 3.4806 15.9424 0.0000 0.0000 0.0000
# 2 3.4806 125.0851 37.9543 0.0000 0.0000 0.0000
# 3 15.9424 37.9543 55.9621 0.0000 0.0000 0.0000
# 4 0.0000 0.0000 0.0000 9.0260 0.0000 0.0000
# 5 0.0000 0.0000 0.0000 0.0000 -0.9453 0.0000
# 6 0.0000 0.0000 0.0000 0.0000 0.0000 -3.1514
#
#
#
# Elastic Compliance Matrix: (Units=1/GPa)
#
#
# Indices 1 2 3 4 5 6 
#
# 1 0.016306 0.001203 -0.005461 0.000000 0.000000 0.000000
# 2 0.001203 0.010155 -0.007230 0.000000 0.000000 0.000000
# 3 -0.005461 -0.007230 0.024329 0.000000 0.000000 0.000000
# 4 0.000000 0.000000 0.000000 0.110791 0.000000 0.000000
# 5 0.000000 0.000000 0.000000 0.000000 -1.057876 0.000000
# 6 0.000000 0.000000 0.000000 0.000000 0.000000 -0.317324
#
#
# Mechanical properties :
#
#
# Convention : Reuss Voigt Hill
#
# Bulk Modulus (GPa) = 35.95375 40.24569 38.09972
# Shear Modulus (GPa) = -4.23237 13.65783 4.71273
#
# Velocity S-wave (km/s) = -1.47970 2.65811 1.56142
# Velocity P-wave (km/s) = 3.95986 5.49918 4.79173
#
# Compressibility (1/GPa) = 0.02781351
#
# Stress axis : x y z
#
# Youngs Moduli (GPa) = 61.32670 98.47519 41.10401
#
# Poissons Ratio (x) = -0.11851 0.22449
# Poissons Ratio (y) = -0.07380 0.29718
# Poissons Ratio (z) = 0.33493 0.71197
#
# Static dielectric constant tensor:
#      x y z
#    x 1.702620 0.000000 0.000000 
#    y 0.000000 1.723540 0.000000 
#    z 0.000000 0.000000 1.643570 
# 
# From -- ./inp_files/25307.got.cif
#   From: 2010.05.17/outbox.cif.g08.bks.cpg/sg63_13_cif.got.tgz:25307.got - 2010.06.03 15:47:04.
