data_PCOD9475797
_publ_section_title
;
Structure prediction by ZEFSAII (Michael W. Deem and Ramdas Pophale) SiO2 
 PCOD9475797
Probable space group: C M C M
;
_chemical_formula_sum "Si O2"
_cell_formula_units_Z 88
_cell_length_a 18.380128
_cell_length_b 14.808384
_cell_length_c 14.309124
_cell_angle_alpha 90.000000
_cell_angle_beta 90.000000
_cell_angle_gamma 90.000000
_cell_volume 3894.657276
_symmetry_space_group_name_H-M "C M C M"
_symmetry_group_IT_number 63
_symmetry_cell_setting 'orthorhombic'
loop_
_space_group_symop_operation_xyz
x,y,z
-x,-y,1/2+z
x,-y,-z
-x,y,1/2-z
-x,-y,-z
x,y,1/2-z
-x,y,z
x,-y,1/2+z
1/2+x,1/2+y,z
1/2-x,1/2-y,1/2+z
1/2+x,1/2-y,-z
1/2-x,1/2+y,1/2-z
1/2-x,1/2-y,-z
1/2+x,1/2+y,1/2-z
1/2-x,1/2+y,z
1/2+x,1/2-y,1/2+z
loop_
_atom_site_type_symbol
_atom_site_label
_atom_site_fract_x
_atom_site_fract_y
_atom_site_fract_z
Si Si1 0.790324 0.163874 0.361137
Si Si2 0.869431 0.158349 0.854298
Si Si3 0.881787 0.646200 0.362636
Si Si4 0.791830 0.368414 0.135818
Si Si5 0.577377 0.529541 0.393732
Si Si6 0.120260 0.500000 0.000000
O O1 0.787995 0.165758 0.250000
O O2 0.705973 0.143496 0.385420
O O3 0.813158 0.265345 0.388701
O O4 0.852237 0.091603 0.383654
O O5 0.846770 0.187297 0.750000
O O6 0.903993 0.250878 0.889719
O O7 0.792550 0.129197 0.897279
O O8 0.915106 0.068384 0.847340
O O9 0.893137 0.629860 0.250000
O O10 0.916675 0.573070 0.431305
O O11 0.797709 0.384008 0.250000
O O12 0.834953 0.440884 0.076058
O O13 0.574177 0.500000 0.500000
O O14 0.500000 0.572987 0.366438
#
# Coordination Sequence:
#
# PCOD9475797 Si02
#       6
#    16  16  16  16  16   8
#     4   9  19  36  53  71 108 146 180 227 267 327
#     4   9  19  36  53  71 108 146 180 227 267 327
#     4   9  20  34  50  81 111 141 182 225 277 322
#     4   9  20  34  50  81 111 141 182 225 277 322
#     4  11  24  35  51  82 114 144 183 230 266 318
#     4  12  20  26  52  78 102 146 164 220 278 322
#
# _framework density 22.595056
#
# number of rings (size 3 to 8) (size 9 to 14) (size 15 to 20)
#    0.000    2.364    0.000    4.364    7.636    5.818 
#    0.000    0.000    0.000    0.000    0.000    2.545 
#    0.000    5.818    0.000    0.000    0.000    0.000 
#
# Total GULP energy -245239.119543 kJ/mol
# GULP energy per Si atom -5573.616353 kJ/mol
# Density = 2.254363 g / cm^3
# Si number density = 22.595056 Si / 1000 Ang^3
#
#
#
# Elastic Constant Matrix: (Units=GPa)
#
#
# Indices 1 2 3 4 5 6 
#
# 1 78.6946 49.7942 7.4783 0.0000 0.0000 0.0000
# 2 49.7942 131.9633 44.5990 0.0000 0.0000 0.0000
# 3 7.4783 44.5990 100.5536 0.0000 0.0000 0.0000
# 4 0.0000 0.0000 0.0000 -29.4619 0.0000 0.0000
# 5 0.0000 0.0000 0.0000 0.0000 1.9561 0.0000
# 6 0.0000 0.0000 0.0000 0.0000 0.0000 -3.1032
#
#
#
# Elastic Compliance Matrix: (Units=1/GPa)
#
#
# Indices 1 2 3 4 5 6 
#
# 1 0.016983 -0.007036 0.001858 0.000000 0.000000 0.000000
# 2 -0.007036 0.011829 -0.004723 0.000000 0.000000 0.000000
# 3 0.001858 -0.004723 0.011902 0.000000 0.000000 0.000000
# 4 0.000000 0.000000 0.000000 -0.033942 0.000000 0.000000
# 5 0.000000 0.000000 0.000000 0.000000 0.511233 0.000000
# 6 0.000000 0.000000 0.000000 0.000000 0.000000 -0.322249
#
#
# Mechanical properties :
#
#
# Convention : Reuss Voigt Hill
#
# Bulk Modulus (GPa) = 47.82317 57.21718 52.52017
# Shear Modulus (GPa) = 22.46895 7.83418 15.15156
#
# Velocity S-wave (km/s) = 3.15686 1.86406 2.59235
# Velocity P-wave (km/s) = 5.87358 5.47821 5.67934
#
# Compressibility (1/GPa) = 0.02091037
#
# Stress axis : x y z
#
# Youngs Moduli (GPa) = 58.88270 84.53699 84.02121
#
# Poissons Ratio (x) = 0.59481 -0.15609
# Poissons Ratio (y) = 0.41430 0.39686
# Poissons Ratio (z) = -0.10939 0.39930
#
# Static dielectric constant tensor:
#      x y z
#    x 1.863540 0.000000 0.000000 
#    y 0.000000 1.802240 0.000000 
#    z 0.000000 0.000000 1.865050 
# 
# From -- ./inp_files/35203.got.cif
#   From: 2010.05.17/outbox.cif.g08.bks.cpg/sg63_18_cif.got.tgz:35203.got - 2010.06.03 15:47:04.
