data_PCOD9475451
_publ_section_title
;
Structure prediction by ZEFSAII (Michael W. Deem and Ramdas Pophale) SiO2 
 PCOD9475451
Probable space group: C M C M
;
_chemical_formula_sum "Si O2"
_cell_formula_units_Z 96
_cell_length_a 26.528404
_cell_length_b 23.200793
_cell_length_c 8.657488
_cell_angle_alpha 90.000000
_cell_angle_beta 90.000000
_cell_angle_gamma 90.000000
_cell_volume 5328.510799
_symmetry_space_group_name_H-M "C M C M"
_symmetry_group_IT_number 63
_symmetry_cell_setting 'orthorhombic'
loop_
_space_group_symop_operation_xyz
x,y,z
-x,-y,1/2+z
x,-y,-z
-x,y,1/2-z
-x,-y,-z
x,y,1/2-z
-x,y,z
x,-y,1/2+z
1/2+x,1/2+y,z
1/2-x,1/2-y,1/2+z
1/2+x,1/2-y,-z
1/2-x,1/2+y,1/2-z
1/2-x,1/2-y,-z
1/2+x,1/2+y,1/2-z
1/2-x,1/2+y,z
1/2+x,1/2-y,1/2+z
loop_
_atom_site_type_symbol
_atom_site_label
_atom_site_fract_x
_atom_site_fract_y
_atom_site_fract_z
Si Si1 0.157565 0.123121 0.569060
Si Si2 0.442103 0.192748 0.064274
Si Si3 0.942644 0.173595 0.938298
Si Si4 0.756776 0.436199 0.933591
Si Si5 0.651540 0.862420 0.424900
Si Si6 0.696888 0.735637 0.073618
O O1 0.158225 0.108324 0.750000
O O2 0.099603 0.127279 0.510981
O O3 0.202048 0.087415 0.488449
O O4 0.173023 0.189285 0.539895
O O5 0.438299 0.193908 0.250000
O O6 0.500000 0.179627 0.022102
O O7 0.432792 0.259651 0.011804
O O8 0.402910 0.145381 0.003154
O O9 0.940731 0.174232 0.750000
O O10 0.000000 0.159468 0.983755
O O11 0.757577 0.436895 0.750000
O O12 0.763307 0.500000 0.000000
O O13 0.803500 0.397116 0.992548
O O14 0.647050 0.884481 0.250000
O O15 0.668826 0.795987 0.419856
O O16 0.700587 0.712625 0.250000
O O17 0.750000 0.750000 0.000000
#
# Coordination Sequence:
#
# PCOD9475451 Si02
#       6
#    16  16  16  16  16  16
#     4  11  20  33  56  82 113 146 184 226 274 331
#     4   9  17  31  52  80 115 154 191 223 265 321
#     4   8  15  28  49  79 114 150 184 219 262 317
#     4  12  26  43  61  79 106 140 185 233 284 335
#     4  11  22  35  54  81 115 148 185 226 275 329
#     4  11  21  31  48  77 113 148 182 221 272 332
#
# _framework density 18.016290999999999
#
# number of rings (size 3 to 8) (size 9 to 14) (size 15 to 20)
#    0.000    1.667    3.333    4.000    0.000    1.667 
#    0.000    0.000    0.000    3.000    0.000    0.000 
#    0.000    0.000    0.000    0.000    0.000    0.000 
#
# Total GULP energy -267415.700645 kJ/mol
# GULP energy per Si atom -5571.160430 kJ/mol
# Density = 1.797529 g / cm^3
# Si number density = 18.016291 Si / 1000 Ang^3
#
#
#
# Elastic Constant Matrix: (Units=GPa)
#
#
# Indices 1 2 3 4 5 6 
#
# 1 131.6012 20.4042 42.1816 0.0000 0.0000 0.0000
# 2 20.4042 45.7104 20.1112 0.0000 0.0000 0.0000
# 3 42.1816 20.1112 70.2291 0.0000 0.0000 0.0000
# 4 0.0000 0.0000 0.0000 23.9985 0.0000 0.0000
# 5 0.0000 0.0000 0.0000 0.0000 18.8325 0.0000
# 6 0.0000 0.0000 0.0000 0.0000 0.0000 7.5704
#
#
#
# Elastic Compliance Matrix: (Units=1/GPa)
#
#
# Indices 1 2 3 4 5 6 
#
# 1 0.009567 -0.001993 -0.005175 0.000000 0.000000 0.000000
# 2 -0.001993 0.025446 -0.006090 0.000000 0.000000 0.000000
# 3 -0.005175 -0.006090 0.019091 0.000000 0.000000 0.000000
# 4 0.000000 0.000000 0.000000 0.041669 0.000000 0.000000
# 5 0.000000 0.000000 0.000000 0.000000 0.053100 0.000000
# 6 0.000000 0.000000 0.000000 0.000000 0.000000 0.132094
#
#
# Mechanical properties :
#
#
# Convention : Reuss Voigt Hill
#
# Bulk Modulus (GPa) = 36.24812 45.88161 41.06486
# Shear Modulus (GPa) = 15.78887 21.06985 18.42936
#
# Velocity S-wave (km/s) = 2.96356 3.42349 3.20179
# Velocity P-wave (km/s) = 5.64567 6.41475 6.04246
#
# Compressibility (1/GPa) = 0.02758764
#
# Stress axis : x y z
#
# Youngs Moduli (GPa) = 104.53100 39.29905 52.37999
#
# Poissons Ratio (x) = 0.07834 0.27107
# Poissons Ratio (y) = 0.20837 0.31897
# Poissons Ratio (z) = 0.54096 0.23931
#
# Static dielectric constant tensor:
#      x y z
#    x 1.689910 0.000000 0.000000 
#    y 0.000000 1.598330 0.000000 
#    z 0.000000 0.000000 1.637330 
# 
# From -- ./inp_files/12422.got.cif
#   From: 2010.05.17/outbox.cif.g08.bks.cpg/sg63_7_cif.got.tgz:12422.got - 2010.06.03 15:47:04.
