data_PCOD9475697
_publ_section_title
;
Structure prediction by ZEFSAII (Michael W. Deem and Ramdas Pophale) SiO2 
 PCOD9475697
Probable space group: C M C M
;
_chemical_formula_sum "Si O2"
_cell_formula_units_Z 116
_cell_length_a 20.012309
_cell_length_b 16.693029
_cell_length_c 18.129231
_cell_angle_alpha 90.000000
_cell_angle_beta 90.000000
_cell_angle_gamma 90.000000
_cell_volume 6056.360671
_symmetry_space_group_name_H-M "C M C M"
_symmetry_group_IT_number 63
_symmetry_cell_setting 'orthorhombic'
loop_
_space_group_symop_operation_xyz
x,y,z
-x,-y,1/2+z
x,-y,-z
-x,y,1/2-z
-x,-y,-z
x,y,1/2-z
-x,y,z
x,-y,1/2+z
1/2+x,1/2+y,z
1/2-x,1/2-y,1/2+z
1/2+x,1/2-y,-z
1/2-x,1/2+y,1/2-z
1/2-x,1/2-y,-z
1/2+x,1/2+y,1/2-z
1/2-x,1/2+y,z
1/2+x,1/2-y,1/2+z
loop_
_atom_site_type_symbol
_atom_site_label
_atom_site_fract_x
_atom_site_fract_y
_atom_site_fract_z
Si Si1 0.265977 0.596941 0.337088
Si Si2 0.922044 0.826032 0.447839
Si Si3 0.840043 0.379048 0.425823
Si Si4 0.610398 0.292793 0.880949
Si Si5 0.302867 0.445154 0.426978
Si Si6 0.000000 0.200483 0.250000
Si Si7 0.872926 0.349094 0.591590
Si Si8 0.425789 0.001798 0.162922
O O1 0.255528 0.599682 0.250000
O O2 0.328251 0.650104 0.361753
O O3 0.284360 0.506925 0.362267
O O4 0.200592 0.633464 0.376217
O O5 0.915537 0.816134 0.536991
O O6 0.871755 0.896354 0.422504
O O7 0.895925 0.742785 0.412174
O O8 0.000000 0.839872 0.430080
O O9 0.862989 0.297813 0.387154
O O10 0.760222 0.385487 0.432967
O O11 0.871015 0.379345 0.507345
O O12 0.870016 0.453049 0.380819
O O13 0.557434 0.298950 0.815640
O O14 0.304485 0.500000 0.500000
O O15 0.920664 0.406214 0.638691
O O16 0.415198 0.994195 0.250000
O O17 0.500000 0.969875 0.145362
#
# Coordination Sequence:
#
# PCOD9475697 Si02
#       8
#    16  16  16  16  16   4  16  16
#     4  12  24  43  66  97 129 173 222 275 334 397
#     4  11  24  43  68 100 131 176 229 276 330 396
#     4  11  23  39  65  94 131 168 215 274 330 391
#     4  11  24  40  67  94 132 177 216 270 335 404
#     4  12  22  42  68  99 134 170 224 277 329 397
#     4  12  24  44  60  98 146 172 218 280 348 404
#     4  11  22  42  66  91 127 172 225 270 325 394
#     4  11  24  38  60  94 131 172 214 267 335 402
#
# _framework density 19.153417000000001
#
# number of rings (size 3 to 8) (size 9 to 14) (size 15 to 20)
#    0.000    0.690    5.517    2.069    1.931    4.138 
#    1.241    1.379    0.000    1.655    0.000    0.000 
#    0.000    0.000    0.000    0.000    0.000    0.000 
#
# Total GULP energy -323626.050741 kJ/mol
# GULP energy per Si atom -5579.759496 kJ/mol
# Density = 1.910982 g / cm^3
# Si number density = 19.153417 Si / 1000 Ang^3
#
#
#
# Elastic Constant Matrix: (Units=GPa)
#
#
# Indices 1 2 3 4 5 6 
#
# 1 154.9595 39.1922 25.3588 0.0000 0.0000 0.0000
# 2 39.1922 21.8885 9.2618 0.0000 0.0000 0.0000
# 3 25.3588 9.2618 45.6075 0.0000 0.0000 0.0000
# 4 0.0000 0.0000 0.0000 12.7045 0.0000 0.0000
# 5 0.0000 0.0000 0.0000 0.0000 30.7071 0.0000
# 6 0.0000 0.0000 0.0000 0.0000 0.0000 -27.8123
#
#
#
# Elastic Compliance Matrix: (Units=1/GPa)
#
#
# Indices 1 2 3 4 5 6 
#
# 1 0.012057 -0.020515 -0.002538 0.000000 0.000000 0.000000
# 2 -0.020515 0.084887 -0.005832 0.000000 0.000000 0.000000
# 3 -0.002538 -0.005832 0.024522 0.000000 0.000000 0.000000
# 4 0.000000 0.000000 0.000000 0.078712 0.000000 0.000000
# 5 0.000000 0.000000 0.000000 0.000000 0.032566 0.000000
# 6 0.000000 0.000000 0.000000 0.000000 0.000000 -0.035955
#
#
# Mechanical properties :
#
#
# Convention : Reuss Voigt Hill
#
# Bulk Modulus (GPa) = 15.69952 41.12012 28.40982
# Shear Modulus (GPa) = 18.12974 13.02938 15.57956
#
# Velocity S-wave (km/s) = 3.07995 2.61102 2.85513
# Velocity P-wave (km/s) = 4.56756 5.53221 5.07287
#
# Compressibility (1/GPa) = 0.06369623
#
# Stress axis : x y z
#
# Youngs Moduli (GPa) = 82.93723 11.78040 40.78030
#
# Poissons Ratio (x) = 0.24168 0.10350
# Poissons Ratio (y) = 1.70147 0.23781
# Poissons Ratio (z) = 0.21049 0.06870
#
# Static dielectric constant tensor:
#      x y z
#    x 1.736420 0.000000 0.000000 
#    y 0.000000 1.675250 0.000000 
#    z 0.000000 0.000000 1.644990 
# 
# From -- ./inp_files/45895.got.cif
#   From: 2010.05.17/outbox.cif.g08.bks.cpg/sg63_23_cif.got.tgz:45895.got - 2010.06.03 15:47:04.
