data_PCOD9475418
_publ_section_title
;
Structure prediction by ZEFSAII (Michael W. Deem and Ramdas Pophale) SiO2 
 PCOD9475418
Probable space group: C M C M
;
_chemical_formula_sum "Si O2"
_cell_formula_units_Z 80
_cell_length_a 30.671535
_cell_length_b 22.973226
_cell_length_c 8.980158
_cell_angle_alpha 90.000000
_cell_angle_beta 90.000000
_cell_angle_gamma 90.000000
_cell_volume 6327.635796
_symmetry_space_group_name_H-M "C M C M"
_symmetry_group_IT_number 63
_symmetry_cell_setting 'orthorhombic'
loop_
_space_group_symop_operation_xyz
x,y,z
-x,-y,1/2+z
x,-y,-z
-x,y,1/2-z
-x,-y,-z
x,y,1/2-z
-x,y,z
x,-y,1/2+z
1/2+x,1/2+y,z
1/2-x,1/2-y,1/2+z
1/2+x,1/2-y,-z
1/2-x,1/2+y,1/2-z
1/2-x,1/2-y,-z
1/2+x,1/2+y,1/2-z
1/2-x,1/2+y,z
1/2+x,1/2-y,1/2+z
loop_
_atom_site_type_symbol
_atom_site_label
_atom_site_fract_x
_atom_site_fract_y
_atom_site_fract_z
Si Si1 0.818227 0.755685 0.421116
Si Si2 0.049554 0.062661 0.570969
Si Si3 0.714817 0.563185 0.427714
Si Si4 0.134312 0.132613 0.569559
Si Si5 0.732638 0.839399 0.420321
O O1 0.825857 0.738301 0.250000
O O2 0.855725 0.800378 0.471703
O O3 0.774955 0.796667 0.422323
O O4 0.806784 0.699744 0.518578
O O5 0.050435 0.056603 0.750000
O O6 0.086646 0.108931 0.530585
O O7 0.000000 0.078544 0.527101
O O8 0.059736 0.000000 0.500000
O O9 0.720014 0.500000 0.500000
O O10 0.712436 0.559535 0.250000
O O11 0.670589 0.592206 0.492491
O O12 0.753625 0.606245 0.478891
O O13 0.140157 0.128755 0.750000
O O14 0.725832 0.857558 0.250000
#
# Coordination Sequence:
#
# PCOD9475418 Si02
#       5
#    16  16  16  16  16
#     4   8  14  24  37  52  69  89 113 143 178 212
#     4   9  17  28  40  53  70  93 120 151 187 223
#     4  11  20  28  38  52  71  94 120 149 181 214
#     4   9  17  28  40  54  71  91 119 153 185 218
#     4   9  16  26  38  52  70  90 114 143 175 211
#
# _framework density 12.642951999999999
#
# number of rings (size 3 to 8) (size 9 to 14) (size 15 to 20)
#    0.000    2.800    0.000    4.200    0.000    7.200 
#    0.000    0.000    0.000    0.000    0.000    0.000 
#    0.000    0.000    0.000    0.000    0.000    1.000 
#
# Total GULP energy -222708.442153 kJ/mol
# GULP energy per Si atom -5567.711054 kJ/mol
# Density = 1.261418 g / cm^3
# Si number density = 12.642952 Si / 1000 Ang^3
#
#
#
# Elastic Constant Matrix: (Units=GPa)
#
#
# Indices 1 2 3 4 5 6 
#
# 1 67.2660 43.1821 21.7932 0.0000 0.0000 0.0000
# 2 43.1821 61.9517 33.1268 0.0000 0.0000 0.0000
# 3 21.7932 33.1268 52.6905 0.0000 0.0000 0.0000
# 4 0.0000 0.0000 0.0000 19.4880 0.0000 0.0000
# 5 0.0000 0.0000 0.0000 0.0000 12.1509 0.0000
# 6 0.0000 0.0000 0.0000 0.0000 0.0000 23.8723
#
#
#
# Elastic Compliance Matrix: (Units=1/GPa)
#
#
# Indices 1 2 3 4 5 6 
#
# 1 0.026941 -0.019313 0.000999 0.000000 0.000000 0.000000
# 2 -0.019313 0.038161 -0.016004 0.000000 0.000000 0.000000
# 3 0.000999 -0.016004 0.028627 0.000000 0.000000 0.000000
# 4 0.000000 0.000000 0.000000 0.051314 0.000000 0.000000
# 5 0.000000 0.000000 0.000000 0.000000 0.082298 0.000000
# 6 0.000000 0.000000 0.000000 0.000000 0.000000 0.041889
#
#
# Mechanical properties :
#
#
# Convention : Reuss Voigt Hill
#
# Bulk Modulus (GPa) = 39.85079 42.01249 40.93164
# Shear Modulus (GPa) = 14.44128 16.68933 15.56531
#
# Velocity S-wave (km/s) = 3.38337 3.63719 3.51257
# Velocity P-wave (km/s) = 6.84482 7.13730 6.99259
#
# Compressibility (1/GPa) = 0.02509361
#
# Stress axis : x y z
#
# Youngs Moduli (GPa) = 37.11863 26.20493 34.93172
#
# Poissons Ratio (x) = 0.50609 -0.03490
# Poissons Ratio (y) = 0.71686 0.55905
# Poissons Ratio (z) = -0.03709 0.41938
#
# Static dielectric constant tensor:
#      x y z
#    x 1.410750 0.000000 0.000000 
#    y 0.000000 1.406330 0.000000 
#    z 0.000000 0.000000 1.427640 
# 
# From -- ./inp_files/14295.got.cif
#   From: 2010.05.17/outbox.cif.g08.bks.cpg/sg63_8_cif.got.tgz:14295.got - 2010.06.03 15:47:04.
