data_PCOD9475108
_publ_section_title
;
Structure prediction by ZEFSAII (Michael W. Deem and Ramdas Pophale) SiO2 
 PCOD9475108
Probable space group: C M C M
;
_chemical_formula_sum "Si O2"
_cell_formula_units_Z 112
_cell_length_a 17.172525
_cell_length_b 11.608173
_cell_length_c 27.226434
_cell_angle_alpha 90.000000
_cell_angle_beta 90.000000
_cell_angle_gamma 90.000000
_cell_volume 5427.362033
_symmetry_space_group_name_H-M "C M C M"
_symmetry_group_IT_number 63
_symmetry_cell_setting 'orthorhombic'
loop_
_space_group_symop_operation_xyz
x,y,z
-x,-y,1/2+z
x,-y,-z
-x,y,1/2-z
-x,-y,-z
x,y,1/2-z
-x,y,z
x,-y,1/2+z
1/2+x,1/2+y,z
1/2-x,1/2-y,1/2+z
1/2+x,1/2-y,-z
1/2-x,1/2+y,1/2-z
1/2-x,1/2-y,-z
1/2+x,1/2+y,1/2-z
1/2-x,1/2+y,z
1/2+x,1/2-y,1/2+z
loop_
_atom_site_type_symbol
_atom_site_label
_atom_site_fract_x
_atom_site_fract_y
_atom_site_fract_z
Si Si1 0.408379 0.041868 0.353963
Si Si2 0.673002 0.750927 0.806196
Si Si3 0.587251 0.328934 0.615029
Si Si4 0.652536 0.173790 0.692822
Si Si5 0.691443 0.998034 0.559186
Si Si6 0.228412 0.754551 0.943121
Si Si7 0.094089 0.003167 0.695877
O O1 0.500000 0.032784 0.343522
O O2 0.376585 0.168049 0.341304
O O3 0.387765 0.004208 0.409407
O O4 0.355033 0.959787 0.319988
O O5 0.671712 0.795862 0.750000
O O6 0.763256 0.728533 0.819692
O O7 0.631518 0.627736 0.805541
O O8 0.500000 0.353475 0.599014
O O9 0.590069 0.231905 0.657265
O O10 0.640052 0.285596 0.570924
O O11 0.619473 0.435092 0.647363
O O12 0.637824 0.190221 0.750000
O O13 0.729493 0.874111 0.573467
O O14 0.681809 0.000000 0.500000
O O15 0.736487 0.118652 0.573064
O O16 0.250000 0.750000 0.000000
O O17 0.115371 0.952405 0.750000
O O18 0.000000 0.007669 0.694498
#
# Coordination Sequence:
#
# PCOD9475108 Si02
#       7
#    16  16  16  16  16  16  16
#     4  12  25  40  63  96 131 171 218 276 340 397
#     4  10  23  40  61  90 131 179 223 267 322 396
#     4  11  22  37  61  91 125 165 213 267 328 393
#     4  11  24  38  59  90 128 172 216 259 313 387
#     4  10  23  43  68  95 126 170 220 280 343 409
#     4  10  22  42  68  96 124 166 219 278 341 403
#     4   9  19  36  59  90 130 174 215 262 324 393
#
# _framework density 20.636175000000001
#
# number of rings (size 3 to 8) (size 9 to 14) (size 15 to 20)
#    0.000    1.571    1.429    2.571    4.000    3.429 
#    0.000    2.143    0.000    3.857    0.000    0.000 
#    0.000    0.000    0.000    0.000    0.000    0.000 
#
# Total GULP energy -312029.321042 kJ/mol
# GULP energy per Si atom -5571.952161 kJ/mol
# Density = 2.058921 g / cm^3
# Si number density = 20.636175 Si / 1000 Ang^3
#
#
#
# Elastic Constant Matrix: (Units=GPa)
#
#
# Indices 1 2 3 4 5 6 
#
# 1 59.1636 26.6320 43.2368 0.0000 0.0000 0.0000
# 2 26.6320 113.8478 20.6256 0.0000 0.0000 0.0000
# 3 43.2368 20.6256 88.8175 0.0000 0.0000 0.0000
# 4 0.0000 0.0000 0.0000 11.4210 0.0000 0.0000
# 5 0.0000 0.0000 0.0000 0.0000 -45.3609 0.0000
# 6 0.0000 0.0000 0.0000 0.0000 0.0000 25.4823
#
#
#
# Elastic Compliance Matrix: (Units=1/GPa)
#
#
# Indices 1 2 3 4 5 6 
#
# 1 0.028097 -0.004274 -0.012685 0.000000 0.000000 0.000000
# 2 -0.004274 0.009820 -0.000200 0.000000 0.000000 0.000000
# 3 -0.012685 -0.000200 0.017480 0.000000 0.000000 0.000000
# 4 0.000000 0.000000 0.000000 0.087558 0.000000 0.000000
# 5 0.000000 0.000000 0.000000 0.000000 -0.022045 0.000000
# 6 0.000000 0.000000 0.000000 0.000000 0.000000 0.039243
#
#
# Mechanical properties :
#
#
# Convention : Reuss Voigt Hill
#
# Bulk Modulus (GPa) = 47.44076 49.20195 48.32135
# Shear Modulus (GPa) = 24.81436 9.73079 17.27257
#
# Velocity S-wave (km/s) = 3.47143 2.17385 2.89624
# Velocity P-wave (km/s) = 6.25354 5.49501 5.88651
#
# Compressibility (1/GPa) = 0.02107892
#
# Stress axis : x y z
#
# Youngs Moduli (GPa) = 35.59160 101.83602 57.20676
#
# Poissons Ratio (x) = 0.43529 0.72566
# Poissons Ratio (y) = 0.15213 0.01142
# Poissons Ratio (z) = 0.45148 0.02032
#
# Static dielectric constant tensor:
#      x y z
#    x 1.721490 0.000000 0.000000 
#    y 0.000000 1.826050 0.000000 
#    z 0.000000 0.000000 1.638120 
# 
# From -- ./inp_files/73436.got.cif
#   From: 2010.05.17/outbox.cif.g08.bks.cpg/sg63_37_cif.got.tgz:73436.got - 2010.06.03 15:47:04.
