data_PCOD9475995
_publ_section_title
;
Structure prediction by ZEFSAII (Michael W. Deem and Ramdas Pophale) SiO2 
 PCOD9475995
Probable space group: C M C M
;
_chemical_formula_sum "Si O2"
_cell_formula_units_Z 64
_cell_length_a 7.884291
_cell_length_b 41.646067
_cell_length_c 10.402376
_cell_angle_alpha 90.000000
_cell_angle_beta 90.000000
_cell_angle_gamma 90.000000
_cell_volume 3415.617156
_symmetry_space_group_name_H-M "C M C M"
_symmetry_group_IT_number 63
_symmetry_cell_setting 'orthorhombic'
loop_
_space_group_symop_operation_xyz
x,y,z
-x,-y,1/2+z
x,-y,-z
-x,y,1/2-z
-x,-y,-z
x,y,1/2-z
-x,y,z
x,-y,1/2+z
1/2+x,1/2+y,z
1/2-x,1/2-y,1/2+z
1/2+x,1/2-y,-z
1/2-x,1/2+y,1/2-z
1/2-x,1/2-y,-z
1/2+x,1/2+y,1/2-z
1/2-x,1/2+y,z
1/2+x,1/2-y,1/2+z
loop_
_atom_site_type_symbol
_atom_site_label
_atom_site_fract_x
_atom_site_fract_y
_atom_site_fract_z
Si Si1 0.203836 0.598845 0.605270
Si Si2 0.795969 0.848724 0.604889
Si Si3 0.703973 0.723754 0.395028
Si Si4 0.707224 0.026055 0.897127
O O1 0.264987 0.606790 0.750000
O O2 0.249087 0.625085 0.500091
O O3 0.261955 0.562582 0.573223
O O4 0.000000 0.597516 0.610808
O O5 0.736154 0.856594 0.750000
O O6 0.736119 0.812477 0.573312
O O7 0.000000 0.847633 0.609218
O O8 0.764030 0.731658 0.250000
O O9 0.500000 0.722588 0.390359
O O10 0.750000 0.750000 0.500000
O O11 0.756976 0.018668 0.750000
O O12 0.500000 0.974228 0.100227
O O13 0.766850 0.000000 0.000000
#
# Coordination Sequence:
#
# PCOD9475995 Si02
#       4
#    16  16  16  16
#     4   9  18  31  47  71 100 125 154 195 238 279
#     4   9  19  35  51  68  94 127 160 193 231 277
#     4   9  19  35  52  71  96 124 155 193 235 278
#     4   8  14  25  41  63  92 122 151 187 231 276
#
# _framework density 18.737463999999999
#
# number of rings (size 3 to 8) (size 9 to 14) (size 15 to 20)
#    0.000    3.250    0.000    3.000    0.000    4.500 
#    0.000   10.000    0.000    0.750    0.000    0.000 
#    0.000    0.000    0.000    0.000    0.000    0.000 
#
# Total GULP energy -178313.017486 kJ/mol
# GULP energy per Si atom -5572.281796 kJ/mol
# Density = 1.869482 g / cm^3
# Si number density = 18.737464 Si / 1000 Ang^3
#
#
#
# Elastic Constant Matrix: (Units=GPa)
#
#
# Indices 1 2 3 4 5 6 
#
# 1 15.5842 11.8937 11.0646 0.0000 0.0000 0.0000
# 2 11.8937 185.4688 166.2482 0.0000 0.0000 0.0000
# 3 11.0646 166.2482 182.8005 0.0000 0.0000 0.0000
# 4 0.0000 0.0000 0.0000 45.8852 0.0000 0.0000
# 5 0.0000 0.0000 0.0000 0.0000 23.1855 0.0000
# 6 0.0000 0.0000 0.0000 0.0000 0.0000 16.3041
#
#
#
# Elastic Compliance Matrix: (Units=1/GPa)
#
#
# Indices 1 2 3 4 5 6 
#
# 1 0.067492 -0.003606 -0.000806 0.000000 0.000000 0.000000
# 2 -0.003606 0.029369 -0.026492 0.000000 0.000000 0.000000
# 3 -0.000806 -0.026492 0.029612 0.000000 0.000000 0.000000
# 4 0.000000 0.000000 0.000000 0.021794 0.000000 0.000000
# 5 0.000000 0.000000 0.000000 0.000000 0.043130 0.000000
# 6 0.000000 0.000000 0.000000 0.000000 0.000000 0.061334
#
#
# Mechanical properties :
#
#
# Convention : Reuss Voigt Hill
#
# Bulk Modulus (GPa) = 15.46395 84.69628 50.08012
# Shear Modulus (GPa) = 14.87682 30.05142 22.46412
#
# Velocity S-wave (km/s) = 2.82079 4.00911 3.46625
# Velocity P-wave (km/s) = 4.34511 8.16886 6.54257
#
# Compressibility (1/GPa) = 0.06466652
#
# Stress axis : x y z
#
# Youngs Moduli (GPa) = 14.81663 34.04928 33.77000
#
# Poissons Ratio (x) = 0.12277 0.02722
# Poissons Ratio (y) = 0.05342 0.89462
# Poissons Ratio (z) = 0.01194 0.90202
#
# Static dielectric constant tensor:
#      x y z
#    x 1.705020 0.000000 0.000000 
#    y 0.000000 1.637590 0.000000 
#    z 0.000000 0.000000 1.638980 
# 
# From -- ./inp_files/3101.got.cif
#   From: 2010.05.17/outbox.cif.g08.bks.cpg/sg63_2_cif.got.tgz:3101.got - 2010.06.03 15:47:04.
