data_PCOD9475909
_publ_section_title
;
Structure prediction by ZEFSAII (Michael W. Deem and Ramdas Pophale) SiO2 
 PCOD9475909
Probable space group: C M C M
;
_chemical_formula_sum "Si O2"
_cell_formula_units_Z 100
_cell_length_a 17.848176
_cell_length_b 20.082064
_cell_length_c 14.707055
_cell_angle_alpha 90.000000
_cell_angle_beta 90.000000
_cell_angle_gamma 90.000000
_cell_volume 5271.423438
_symmetry_space_group_name_H-M "C M C M"
_symmetry_group_IT_number 63
_symmetry_cell_setting 'orthorhombic'
loop_
_space_group_symop_operation_xyz
x,y,z
-x,-y,1/2+z
x,-y,-z
-x,y,1/2-z
-x,-y,-z
x,y,1/2-z
-x,y,z
x,-y,1/2+z
1/2+x,1/2+y,z
1/2-x,1/2-y,1/2+z
1/2+x,1/2-y,-z
1/2-x,1/2+y,1/2-z
1/2-x,1/2-y,-z
1/2+x,1/2+y,1/2-z
1/2-x,1/2+y,z
1/2+x,1/2-y,1/2+z
loop_
_atom_site_type_symbol
_atom_site_label
_atom_site_fract_x
_atom_site_fract_y
_atom_site_fract_z
Si Si1 0.582815 0.193346 0.500308
Si Si2 0.918052 0.041907 0.639977
Si Si3 0.205937 0.657849 0.854790
Si Si4 0.500000 0.975229 0.750000
Si Si5 0.622282 0.304840 0.144598
Si Si6 0.890494 0.449989 0.918528
Si Si7 0.743729 0.506031 0.641129
O O1 0.500000 0.198636 0.542034
O O2 0.646851 0.189127 0.576445
O O3 0.593820 0.252164 0.427932
O O4 0.587629 0.124227 0.445473
O O5 0.917969 0.035496 0.750000
O O6 0.907062 0.120810 0.623431
O O7 0.842309 0.005479 0.608404
O O8 0.000000 0.019844 0.607175
O O9 0.179967 0.661761 0.750000
O O10 0.287419 0.691772 0.860125
O O11 0.221658 0.579774 0.875401
O O12 0.434741 0.972582 0.829559
O O13 0.601517 0.289477 0.250000
O O14 0.801177 0.454666 0.902035
O O15 0.909051 0.500000 0.000000
O O16 0.742718 0.497116 0.750000
#
# Coordination Sequence:
#
# PCOD9475909 Si02
#       7
#    16  16  16   4  16  16  16
#     4  12  24  33  52  81 113 143 181 225 270 329
#     4   8  14  28  53  84 107 132 170 222 277 330
#     4   9  19  38  55  75 101 141 186 222 265 321
#     4  12  26  40  56  70 114 156 194 240 264 322
#     4   9  19  34  56  79 110 140 172 217 277 333
#     4  12  24  39  52  78 109 154 193 226 274 322
#     4   9  17  33  54  73 103 144 181 222 272 321
#
# _framework density 18.970208
#
# number of rings (size 3 to 8) (size 9 to 14) (size 15 to 20)
#    0.000    2.080    3.200    3.120    1.120    1.280 
#    0.000    0.000    0.000    0.480    0.000    1.120 
#    0.000    2.880    0.000    0.000    0.000    0.000 
#
# Total GULP energy -278570.486309 kJ/mol
# GULP energy per Si atom -5571.409726 kJ/mol
# Density = 1.892703 g / cm^3
# Si number density = 18.970208 Si / 1000 Ang^3
#
#
#
# Elastic Constant Matrix: (Units=GPa)
#
#
# Indices 1 2 3 4 5 6 
#
# 1 147.1568 12.9699 35.3384 0.0000 0.0000 0.0000
# 2 12.9699 15.6158 0.4376 0.0000 0.0000 0.0000
# 3 35.3384 0.4376 86.4596 0.0000 0.0000 0.0000
# 4 0.0000 0.0000 0.0000 18.2314 0.0000 0.0000
# 5 0.0000 0.0000 0.0000 0.0000 19.6540 0.0000
# 6 0.0000 0.0000 0.0000 0.0000 0.0000 157.9066
#
#
#
# Elastic Compliance Matrix: (Units=1/GPa)
#
#
# Indices 1 2 3 4 5 6 
#
# 1 0.008181 -0.006702 -0.003310 0.000000 0.000000 0.000000
# 2 -0.006702 0.069538 0.002387 0.000000 0.000000 0.000000
# 3 -0.003310 0.002387 0.012907 0.000000 0.000000 0.000000
# 4 0.000000 0.000000 0.000000 0.054850 0.000000 0.000000
# 5 0.000000 0.000000 0.000000 0.000000 0.050880 0.000000
# 6 0.000000 0.000000 0.000000 0.000000 0.000000 0.006333
#
#
# Mechanical properties :
#
#
# Convention : Reuss Voigt Hill
#
# Bulk Modulus (GPa) = 13.26679 38.52490 25.89585
# Shear Modulus (GPa) = 20.57075 52.52415 36.54745
#
# Velocity S-wave (km/s) = 3.29655 5.26762 4.39403
# Velocity P-wave (km/s) = 4.63663 7.57293 6.27884
#
# Compressibility (1/GPa) = 0.07537616
#
# Stress axis : x y z
#
# Youngs Moduli (GPa) = 122.23418 14.38073 77.47821
#
# Poissons Ratio (x) = 0.09638 0.25644
# Poissons Ratio (y) = 0.81923 -0.18497
# Poissons Ratio (z) = 0.40458 -0.03433
#
# Static dielectric constant tensor:
#      x y z
#    x 1.707700 0.000000 0.000000 
#    y 0.000000 1.631460 0.000000 
#    z 0.000000 0.000000 1.671040 
# 
# From -- ./inp_files/34197.got.cif
#   From: 2010.05.17/outbox.cif.g08.bks.cpg/sg63_18_cif.got.tgz:34197.got - 2010.06.03 15:47:04.
