data_PCOD9475986
_publ_section_title
;
Structure prediction by ZEFSAII (Michael W. Deem and Ramdas Pophale) SiO2 
 PCOD9475986
Probable space group: C M C M
;
_chemical_formula_sum "Si O2"
_cell_formula_units_Z 96
_cell_length_a 7.427067
_cell_length_b 23.846957
_cell_length_c 28.409322
_cell_angle_alpha 90.000000
_cell_angle_beta 90.000000
_cell_angle_gamma 90.000000
_cell_volume 5031.658753
_symmetry_space_group_name_H-M "C M C M"
_symmetry_group_IT_number 63
_symmetry_cell_setting 'orthorhombic'
loop_
_space_group_symop_operation_xyz
x,y,z
-x,-y,1/2+z
x,-y,-z
-x,y,1/2-z
-x,-y,-z
x,y,1/2-z
-x,y,z
x,-y,1/2+z
1/2+x,1/2+y,z
1/2-x,1/2-y,1/2+z
1/2+x,1/2-y,-z
1/2-x,1/2+y,1/2-z
1/2-x,1/2-y,-z
1/2+x,1/2+y,1/2-z
1/2-x,1/2+y,z
1/2+x,1/2-y,1/2+z
loop_
_atom_site_type_symbol
_atom_site_label
_atom_site_fract_x
_atom_site_fract_y
_atom_site_fract_z
Si Si1 0.717501 0.861625 0.351262
Si Si2 0.282449 0.871456 0.250000
Si Si3 0.781942 0.166396 0.027983
Si Si4 0.779710 0.961318 0.955559
Si Si5 0.293601 0.501889 0.250000
Si Si6 0.211133 0.722704 0.928048
Si Si7 0.788086 0.006195 0.645749
O O1 0.500000 0.862238 0.354311
O O2 0.770165 0.843751 0.298698
O O3 0.789987 0.817979 0.388863
O O4 0.771817 0.926313 0.357805
O O5 0.500000 0.877472 0.250000
O O6 0.205770 0.934164 0.250000
O O7 0.727262 0.189398 0.977030
O O8 0.000000 0.166232 0.029136
O O9 0.723258 0.103010 0.036591
O O10 0.716743 0.214595 0.063916
O O11 0.000000 0.963203 0.955283
O O12 0.718285 0.981825 0.903797
O O13 0.723529 0.000000 0.000000
O O14 0.500000 0.522579 0.250000
O O15 0.214868 0.513769 0.302649
O O16 0.000000 0.729672 0.917193
O O17 0.000000 0.992658 0.647415
#
# Coordination Sequence:
#
# PCOD9475986 Si02
#       7
#    16   8  16  16   8  16  16
#     4   9  16  26  40  59  81 103 128 158 194 231
#     4   8  14  24  38  55  77 103 127 154 189 230
#     4   9  17  29  43  58  77 103 133 160 190 231
#     4   9  16  25  39  59  80 102 129 159 190 229
#     4   8  14  24  38  57  79 101 127 162 197 224
#     4   9  17  28  42  59  79 102 129 163 197 229
#     4   9  16  26  41  60  81 104 131 162 195 231
#
# _framework density 19.079197000000001
#
# number of rings (size 3 to 8) (size 9 to 14) (size 15 to 20)
#    0.000    3.167    0.000    1.000    0.000    2.000 
#    0.000    0.833    0.000    4.000    0.000    7.000 
#    0.000    0.000    0.000   26.833    0.000   20.000 
#
# Total GULP energy -267217.736439 kJ/mol
# GULP energy per Si atom -5567.036176 kJ/mol
# Density = 1.903577 g / cm^3
# Si number density = 19.079197 Si / 1000 Ang^3
#
#
#
# Elastic Constant Matrix: (Units=GPa)
#
#
# Indices 1 2 3 4 5 6 
#
# 1 57.8638 -7.3780 -4.8493 0.0000 0.0000 0.0000
# 2 -7.3780 102.3735 55.4251 0.0000 0.0000 0.0000
# 3 -4.8493 55.4251 120.6232 0.0000 0.0000 0.0000
# 4 0.0000 0.0000 0.0000 27.2159 0.0000 0.0000
# 5 0.0000 0.0000 0.0000 0.0000 8.9767 0.0000
# 6 0.0000 0.0000 0.0000 0.0000 0.0000 20.2122
#
#
#
# Elastic Compliance Matrix: (Units=1/GPa)
#
#
# Indices 1 2 3 4 5 6 
#
# 1 0.017445 0.001168 0.000165 0.000000 0.000000 0.000000
# 2 0.001168 0.013081 -0.005964 0.000000 0.000000 0.000000
# 3 0.000165 -0.005964 0.011037 0.000000 0.000000 0.000000
# 4 0.000000 0.000000 0.000000 0.036743 0.000000 0.000000
# 5 0.000000 0.000000 0.000000 0.000000 0.111400 0.000000
# 6 0.000000 0.000000 0.000000 0.000000 0.000000 0.049475
#
#
# Mechanical properties :
#
#
# Convention : Reuss Voigt Hill
#
# Bulk Modulus (GPa) = 30.95880 40.80623 35.88251
# Shear Modulus (GPa) = 19.28936 27.12512 23.20724
#
# Velocity S-wave (km/s) = 3.18310 3.77465 3.49142
# Velocity P-wave (km/s) = 5.45630 6.35858 5.92464
#
# Compressibility (1/GPa) = 0.03230100
#
# Stress axis : x y z
#
# Youngs Moduli (GPa) = 57.32400 76.44629 90.60320
#
# Poissons Ratio (x) = -0.08930 -0.01491
# Poissons Ratio (y) = -0.06696 0.54033
# Poissons Ratio (z) = -0.00943 0.45590
#
# Static dielectric constant tensor:
#      x y z
#    x 1.727420 0.000000 0.000000 
#    y 0.000000 1.626500 0.000000 
#    z 0.000000 0.000000 1.714880 
# 
# From -- ./inp_files/61886.got.cif
#   From: 2010.05.17/outbox.cif.g08.bks.cpg/sg63_31_cif.got.tgz:61886.got - 2010.06.03 15:47:04.
