data_PCOD9475474
_publ_section_title
;
Structure prediction by ZEFSAII (Michael W. Deem and Ramdas Pophale) SiO2 
 PCOD9475474
Probable space group: C M C M
;
_chemical_formula_sum "Si O2"
_cell_formula_units_Z 68
_cell_length_a 9.763462
_cell_length_b 16.946678
_cell_length_c 18.998980
_cell_angle_alpha 90.000000
_cell_angle_beta 90.000000
_cell_angle_gamma 90.000000
_cell_volume 3143.537919
_symmetry_space_group_name_H-M "C M C M"
_symmetry_group_IT_number 63
_symmetry_cell_setting 'orthorhombic'
loop_
_space_group_symop_operation_xyz
x,y,z
-x,-y,1/2+z
x,-y,-z
-x,y,1/2-z
-x,-y,-z
x,y,1/2-z
-x,y,z
x,-y,1/2+z
1/2+x,1/2+y,z
1/2-x,1/2-y,1/2+z
1/2+x,1/2-y,-z
1/2-x,1/2+y,1/2-z
1/2-x,1/2-y,-z
1/2+x,1/2+y,1/2-z
1/2-x,1/2+y,z
1/2+x,1/2-y,1/2+z
loop_
_atom_site_type_symbol
_atom_site_label
_atom_site_fract_x
_atom_site_fract_y
_atom_site_fract_z
Si Si1 0.500000 0.006629 0.660135
Si Si2 0.000000 0.825027 0.038456
Si Si3 0.000000 0.682030 0.361747
Si Si4 0.206761 0.949926 0.396875
Si Si5 0.000000 0.135098 0.250000
Si Si6 0.000000 0.080576 0.091635
Si Si7 0.145570 0.893057 0.250000
Si Si8 0.224122 0.269231 0.750000
O O1 0.500000 0.013707 0.750000
O O2 0.500000 0.913026 0.641095
O O3 0.367743 0.042786 0.619447
O O4 0.000000 0.736072 0.067970
O O5 0.866211 0.873561 0.067755
O O6 0.000000 0.840641 0.955130
O O7 0.133741 0.708009 0.317667
O O8 0.153171 0.944922 0.317484
O O9 0.134153 0.028119 0.427050
O O10 0.000000 0.094369 0.174231
O O11 0.137246 0.184964 0.250000
O O12 0.254246 0.823788 0.250000
O O13 0.000000 0.849119 0.250000
#
# Coordination Sequence:
#
# PCOD9475474 Si02
#       8
#     8   8   8  16   4   8   8   8
#     4  12  24  34  62 105 147 169 218 281 341 372
#     4  11  23  46  72  87 130 187 233 265 327 411
#     4  11  21  41  65  90 134 180 219 255 332 409
#     4  11  21  38  64 100 131 173 219 283 320 394
#     4  12  26  40  62 104 132 154 224 300 332 372
#     4  11  24  43  71  95 120 170 240 279 326 391
#     4  12  17  35  67  98 123 176 224 265 322 387
#     4  11  20  37  63  92 132 170 212 275 324 399
#
# _framework density 21.631677
#
# number of rings (size 3 to 8) (size 9 to 14) (size 15 to 20)
#    0.000    0.706    8.235    3.529    0.000    0.941 
#    0.000    7.059    0.000    0.000    0.000    0.000 
#    0.000    0.000    0.000    0.000    0.000    0.000 
#
# Total GULP energy -189466.484910 kJ/mol
# GULP energy per Si atom -5572.543674 kJ/mol
# Density = 2.158244 g / cm^3
# Si number density = 21.631677 Si / 1000 Ang^3
#
#
#
# Elastic Constant Matrix: (Units=GPa)
#
#
# Indices 1 2 3 4 5 6 
#
# 1 167.2079 35.0365 17.7737 0.0000 0.0000 0.0000
# 2 35.0365 67.4729 20.1737 0.0000 0.0000 0.0000
# 3 17.7737 20.1737 100.2083 0.0000 0.0000 0.0000
# 4 0.0000 0.0000 0.0000 20.8016 0.0000 0.0000
# 5 0.0000 0.0000 0.0000 0.0000 -2.0589 0.0000
# 6 0.0000 0.0000 0.0000 0.0000 0.0000 19.1250
#
#
#
# Elastic Compliance Matrix: (Units=1/GPa)
#
#
# Indices 1 2 3 4 5 6 
#
# 1 0.006736 -0.003342 -0.000522 0.000000 0.000000 0.000000
# 2 -0.003342 0.017428 -0.002916 0.000000 0.000000 0.000000
# 3 -0.000522 -0.002916 0.010659 0.000000 0.000000 0.000000
# 4 0.000000 0.000000 0.000000 0.048073 0.000000 0.000000
# 5 0.000000 0.000000 0.000000 0.000000 -0.485698 0.000000
# 6 0.000000 0.000000 0.000000 0.000000 0.000000 0.052287
#
#
# Mechanical properties :
#
#
# Convention : Reuss Voigt Hill
#
# Bulk Modulus (GPa) = 47.02869 53.42854 50.22861
# Shear Modulus (GPa) = -15.15761 25.03390 4.93814
#
# Velocity S-wave (km/s) = -2.64997 3.40557 1.51254
# Velocity P-wave (km/s) = 3.52487 6.34167 5.13037
#
# Compressibility (1/GPa) = 0.02126362
#
# Stress axis : x y z
#
# Youngs Moduli (GPa) = 148.44903 57.37932 93.81911
#
# Poissons Ratio (x) = 0.19175 0.04898
# Poissons Ratio (y) = 0.49610 0.27356
# Poissons Ratio (z) = 0.07749 0.16731
#
# Static dielectric constant tensor:
#      x y z
#    x 1.872780 0.000000 0.000000 
#    y 0.000000 1.795010 0.000000 
#    z 0.000000 0.000000 1.654560 
# 
# From -- ./inp_files/50555.got.cif
#   From: 2010.05.17/outbox.cif.g08.bks.cpg/sg63_26_cif.got.tgz:50555.got - 2010.06.03 15:47:04.
