data_PCOD9475638
_publ_section_title
;
Structure prediction by ZEFSAII (Michael W. Deem and Ramdas Pophale) SiO2 
 PCOD9475638
Probable space group: C M C M
;
_chemical_formula_sum "Si O2"
_cell_formula_units_Z 84
_cell_length_a 20.411075
_cell_length_b 26.548538
_cell_length_c 7.389952
_cell_angle_alpha 90.000000
_cell_angle_beta 90.000000
_cell_angle_gamma 90.000000
_cell_volume 4004.498229
_symmetry_space_group_name_H-M "C M C M"
_symmetry_group_IT_number 63
_symmetry_cell_setting 'orthorhombic'
loop_
_space_group_symop_operation_xyz
x,y,z
-x,-y,1/2+z
x,-y,-z
-x,y,1/2-z
-x,-y,-z
x,y,1/2-z
-x,y,z
x,-y,1/2+z
1/2+x,1/2+y,z
1/2-x,1/2-y,1/2+z
1/2+x,1/2-y,-z
1/2-x,1/2+y,1/2-z
1/2-x,1/2-y,-z
1/2+x,1/2+y,1/2-z
1/2-x,1/2+y,z
1/2+x,1/2-y,1/2+z
loop_
_atom_site_type_symbol
_atom_site_label
_atom_site_fract_x
_atom_site_fract_y
_atom_site_fract_z
Si Si1 0.929173 0.584986 0.529591
Si Si2 0.616421 0.195308 0.969517
Si Si3 0.500000 0.345346 0.250000
Si Si4 0.788179 0.554904 0.965219
Si Si5 0.259446 0.337487 0.469071
Si Si6 0.595437 0.694695 0.458085
O O1 0.929412 0.582893 0.750000
O O2 0.919610 0.643791 0.478840
O O3 0.863211 0.557771 0.465013
O O4 0.000000 0.566292 0.466863
O O5 0.616367 0.196164 0.750000
O O6 0.692478 0.190335 0.026279
O O7 0.585118 0.247816 0.026191
O O8 0.443027 0.341457 0.091426
O O9 0.792416 0.560892 0.750000
O O10 0.749679 0.604243 0.028595
O O11 0.759578 0.500000 0.000000
O O12 0.261354 0.335761 0.250000
O O13 0.326743 0.314783 0.537023
O O14 0.574438 0.309319 0.750000
#
# Coordination Sequence:
#
# PCOD9475638 Si02
#       6
#    16  16   4  16  16  16
#     4   8  14  26  45  70 103 150 191 225 269 319
#     4   8  16  29  52  79 106 146 192 233 268 322
#     4  12  26  40  52  82 122 148 180 232 272 334
#     4   9  18  31  51  75 105 139 181 233 283 328
#     4   9  17  35  55  78 110 143 182 235 289 323
#     4  11  22  37  58  82 111 152 191 224 275 333
#
# _framework density 20.976410999999999
#
# number of rings (size 3 to 8) (size 9 to 14) (size 15 to 20)
#    0.000    2.857    0.952    3.143    1.333    1.143 
#    1.714    0.000    2.095    0.000    0.000    0.667 
#    0.000    0.000    0.000    0.000    0.000    0.000 
#
# Total GULP energy -233958.950141 kJ/mol
# GULP energy per Si atom -5570.451194 kJ/mol
# Density = 2.092867 g / cm^3
# Si number density = 20.976411 Si / 1000 Ang^3
#
#
#
# Elastic Constant Matrix: (Units=GPa)
#
#
# Indices 1 2 3 4 5 6 
#
# 1 62.3608 -0.5212 6.8494 0.0000 0.0000 0.0000
# 2 -0.5212 62.2091 -3.2009 0.0000 0.0000 0.0000
# 3 6.8494 -3.2009 98.2351 0.0000 0.0000 0.0000
# 4 0.0000 0.0000 0.0000 3.1006 0.0000 0.0000
# 5 0.0000 0.0000 0.0000 0.0000 204.3237 0.0000
# 6 0.0000 0.0000 0.0000 0.0000 0.0000 44.3765
#
#
#
# Elastic Compliance Matrix: (Units=1/GPa)
#
#
# Indices 1 2 3 4 5 6 
#
# 1 0.016160 0.000078 -0.001124 0.000000 0.000000 0.000000
# 2 0.000078 0.016102 0.000519 0.000000 0.000000 0.000000
# 3 -0.001124 0.000519 0.010275 0.000000 0.000000 0.000000
# 4 0.000000 0.000000 0.000000 0.322523 0.000000 0.000000
# 5 0.000000 0.000000 0.000000 0.000000 0.004894 0.000000
# 6 0.000000 0.000000 0.000000 0.000000 0.000000 0.022534
#
#
# Mechanical properties :
#
#
# Convention : Reuss Voigt Hill
#
# Bulk Modulus (GPa) = 24.10674 25.45108 24.77891
# Shear Modulus (GPa) = 12.27383 65.00532 38.63958
#
# Velocity S-wave (km/s) = 2.42156 5.57288 4.29657
# Velocity P-wave (km/s) = 4.39726 7.31908 6.03758
#
# Compressibility (1/GPa) = 0.04148218
#
# Stress axis : x y z
#
# Youngs Moduli (GPa) = 61.88175 62.10340 97.32390
#
# Poissons Ratio (x) = -0.00482 0.10941
# Poissons Ratio (y) = -0.00480 -0.05054
# Poissons Ratio (z) = 0.06957 -0.03225
#
# Static dielectric constant tensor:
#      x y z
#    x 1.742460 0.000000 0.000000 
#    y 0.000000 1.771200 0.000000 
#    z 0.000000 0.000000 1.790950 
# 
# From -- ./inp_files/23975.got.cif
#   From: 2010.05.17/outbox.cif.g08.bks.cpg/sg63_12_cif.got.tgz:23975.got - 2010.06.03 15:47:04.
