data_PCOD9475120
_publ_section_title
;
Structure prediction by ZEFSAII (Michael W. Deem and Ramdas Pophale) SiO2 
 PCOD9475120
Probable space group: C M C M
;
_chemical_formula_sum "Si O2"
_cell_formula_units_Z 64
_cell_length_a 29.778430
_cell_length_b 5.036275
_cell_length_c 18.044914
_cell_angle_alpha 90.000000
_cell_angle_beta 90.000000
_cell_angle_gamma 90.000000
_cell_volume 2706.238385
_symmetry_space_group_name_H-M "C M C M"
_symmetry_group_IT_number 63
_symmetry_cell_setting 'orthorhombic'
loop_
_space_group_symop_operation_xyz
x,y,z
-x,-y,1/2+z
x,-y,-z
-x,y,1/2-z
-x,-y,-z
x,y,1/2-z
-x,y,z
x,-y,1/2+z
1/2+x,1/2+y,z
1/2-x,1/2-y,1/2+z
1/2+x,1/2-y,-z
1/2-x,1/2+y,1/2-z
1/2-x,1/2-y,-z
1/2+x,1/2+y,1/2-z
1/2-x,1/2+y,z
1/2+x,1/2-y,1/2+z
loop_
_atom_site_type_symbol
_atom_site_label
_atom_site_fract_x
_atom_site_fract_y
_atom_site_fract_z
Si Si1 0.549675 0.434705 0.667643
Si Si2 0.597983 0.748332 0.550618
Si Si3 0.276189 0.556470 0.339868
Si Si4 0.360439 0.911410 0.334801
O O1 0.552690 0.560449 0.750000
O O2 0.500000 0.314927 0.660941
O O3 0.558065 0.643481 0.602732
O O4 0.590732 0.228940 0.663964
O O5 0.611581 0.500000 0.500000
O O6 0.585986 0.000000 0.500000
O O7 0.635564 0.850806 0.607639
O O8 0.275594 0.543951 0.250000
O O9 0.262323 0.264313 0.364871
O O10 0.323077 0.697951 0.357519
O O11 0.351040 0.999043 0.250000
#
# Coordination Sequence:
#
# PCOD9475120 Si02
#       4
#    16  16  16  16
#     4  10  23  44  70 101 134 172 221 271 325 391
#     4  12  25  44  65  95 133 181 222 267 322 390
#     4   9  19  34  60  97 128 159 210 273 329 384
#     4  10  22  42  70  97 133 175 219 273 334 387
#
# _framework density 23.649062000000001
#
# number of rings (size 3 to 8) (size 9 to 14) (size 15 to 20)
#    0.000    1.750    2.500    0.750    3.500    2.000 
#    0.000    2.500    0.000    4.500    0.000    0.000 
#    0.000    0.000    0.000    0.000    0.000    0.000 
#
# Total GULP energy -178950.779068 kJ/mol
# GULP energy per Si atom -5592.211846 kJ/mol
# Density = 2.359524 g / cm^3
# Si number density = 23.649062 Si / 1000 Ang^3
#
#
#
# Elastic Constant Matrix: (Units=GPa)
#
#
# Indices 1 2 3 4 5 6 
#
# 1 126.0788 17.6746 19.9376 0.0000 0.0000 0.0000
# 2 17.6746 116.3743 49.5015 0.0000 0.0000 0.0000
# 3 19.9376 49.5015 121.3596 0.0000 0.0000 0.0000
# 4 0.0000 0.0000 0.0000 -75.8701 0.0000 0.0000
# 5 0.0000 0.0000 0.0000 0.0000 -6.3907 0.0000
# 6 0.0000 0.0000 0.0000 0.0000 0.0000 28.7022
#
#
#
# Elastic Compliance Matrix: (Units=1/GPa)
#
#
# Indices 1 2 3 4 5 6 
#
# 1 0.008206 -0.000814 -0.001016 0.000000 0.000000 0.000000
# 2 -0.000814 0.010478 -0.004140 0.000000 0.000000 0.000000
# 3 -0.001016 -0.004140 0.010096 0.000000 0.000000 0.000000
# 4 0.000000 0.000000 0.000000 -0.013180 0.000000 0.000000
# 5 0.000000 0.000000 0.000000 0.000000 -0.156478 0.000000
# 6 0.000000 0.000000 0.000000 0.000000 0.000000 0.034841
#
#
# Mechanical properties :
#
#
# Convention : Reuss Voigt Hill
#
# Bulk Modulus (GPa) = 59.38563 59.78226 59.58394
# Shear Modulus (GPa) = -56.50664 7.73488 -24.38588
#
# Velocity S-wave (km/s) = -4.89343 1.81047 -3.21465
# Velocity P-wave (km/s) = 2.60036 5.45015 3.38691
#
# Compressibility (1/GPa) = 0.01683909
#
# Stress axis : x y z
#
# Youngs Moduli (GPa) = 121.85668 95.44158 99.05340
#
# Poissons Ratio (x) = 0.07770 0.10065
# Poissons Ratio (y) = 0.09921 0.41008
# Poissons Ratio (z) = 0.12382 0.39513
#
# Static dielectric constant tensor:
#      x y z
#    x 1.922360 0.000000 0.000000 
#    y 0.000000 1.922740 0.000000 
#    z 0.000000 0.000000 1.924520 
# 
# From -- ./inp_files/49299.got.cif
#   From: 2010.05.17/outbox.cif.g08.bks.cpg/sg63_25_cif.got.tgz:49299.got - 2010.06.03 15:47:04.
