data_PCOD9475035
_publ_section_title
;
Structure prediction by ZEFSAII (Michael W. Deem and Ramdas Pophale) SiO2 
 PCOD9475035
Probable space group: C M C M
;
_chemical_formula_sum "Si O2"
_cell_formula_units_Z 96
_cell_length_a 14.379244
_cell_length_b 20.697966
_cell_length_c 16.170003
_cell_angle_alpha 90.000000
_cell_angle_beta 90.000000
_cell_angle_gamma 90.000000
_cell_volume 4812.534135
_symmetry_space_group_name_H-M "C M C M"
_symmetry_group_IT_number 63
_symmetry_cell_setting 'orthorhombic'
loop_
_space_group_symop_operation_xyz
x,y,z
-x,-y,1/2+z
x,-y,-z
-x,y,1/2-z
-x,-y,-z
x,y,1/2-z
-x,y,z
x,-y,1/2+z
1/2+x,1/2+y,z
1/2-x,1/2-y,1/2+z
1/2+x,1/2-y,-z
1/2-x,1/2+y,1/2-z
1/2-x,1/2-y,-z
1/2+x,1/2+y,1/2-z
1/2-x,1/2+y,z
1/2+x,1/2-y,1/2+z
loop_
_atom_site_type_symbol
_atom_site_label
_atom_site_fract_x
_atom_site_fract_y
_atom_site_fract_z
Si Si1 0.737900 0.750947 0.900913
Si Si2 0.390909 0.005275 0.901083
Si Si3 0.245517 0.102776 0.345462
Si Si4 0.111601 0.142873 0.657607
Si Si5 0.894709 0.349822 0.151584
Si Si6 0.104090 0.076031 0.491636
O O1 0.730143 0.822908 0.865586
O O2 0.648396 0.713003 0.866988
O O3 0.825495 0.707987 0.870853
O O4 0.750000 0.750000 0.000000
O O5 0.500000 0.997070 0.877646
O O6 0.364153 0.078802 0.877835
O O7 0.326960 0.949573 0.861936
O O8 0.383216 0.000000 0.000000
O O9 0.216016 0.097137 0.250000
O O10 0.165404 0.089797 0.412281
O O11 0.146090 0.125052 0.750000
O O12 0.143372 0.100675 0.579268
O O13 0.000000 0.139285 0.660159
O O14 0.899112 0.352697 0.250000
O O15 0.000000 0.338742 0.118917
O O16 0.000000 0.103882 0.481184
O O17 0.097220 0.000000 0.500000
#
# Coordination Sequence:
#
# PCOD9475035 Si02
#       6
#    16  16  16  16  16  16
#     4  12  24  41  64  92 131 168 209 264 321 386
#     4  10  22  42  66  94 129 169 216 267 322 382
#     4  12  25  39  62  98 134 170 211 262 328 384
#     4  10  22  42  67  92 122 166 215 261 314 378
#     4  10  22  41  65  92 123 166 217 262 309 374
#     4  10  23  43  64  90 126 166 214 265 315 375
#
# _framework density 19.947911000000001
#
# number of rings (size 3 to 8) (size 9 to 14) (size 15 to 20)
#    0.000    1.333    1.667    3.500    2.333    4.000 
#    0.000    1.667    0.000    0.000    0.000    0.000 
#    0.000    0.000    0.000    0.000    0.000    0.000 
#
# Total GULP energy -268003.390043 kJ/mol
# GULP energy per Si atom -5583.403959 kJ/mol
# Density = 1.990251 g / cm^3
# Si number density = 19.947911 Si / 1000 Ang^3
#
#
#
# Elastic Constant Matrix: (Units=GPa)
#
#
# Indices 1 2 3 4 5 6 
#
# 1 57.9363 17.2931 31.9647 0.0000 0.0000 0.0000
# 2 17.2931 78.7486 7.1297 0.0000 0.0000 0.0000
# 3 31.9647 7.1297 143.2069 0.0000 0.0000 0.0000
# 4 0.0000 0.0000 0.0000 16.1970 0.0000 0.0000
# 5 0.0000 0.0000 0.0000 0.0000 20.1429 0.0000
# 6 0.0000 0.0000 0.0000 0.0000 0.0000 8.4881
#
#
#
# Elastic Compliance Matrix: (Units=1/GPa)
#
#
# Indices 1 2 3 4 5 6 
#
# 1 0.020983 -0.004203 -0.004474 0.000000 0.000000 0.000000
# 2 -0.004203 0.013598 0.000261 0.000000 0.000000 0.000000
# 3 -0.004474 0.000261 0.007969 0.000000 0.000000 0.000000
# 4 0.000000 0.000000 0.000000 0.061740 0.000000 0.000000
# 5 0.000000 0.000000 0.000000 0.000000 0.049645 0.000000
# 6 0.000000 0.000000 0.000000 0.000000 0.000000 0.117812
#
#
# Mechanical properties :
#
#
# Convention : Reuss Voigt Hill
#
# Bulk Modulus (GPa) = 38.88365 43.62965 41.25665
# Shear Modulus (GPa) = 16.82641 23.86590 20.34615
#
# Velocity S-wave (km/s) = 2.90749 3.46267 3.19715
# Velocity P-wave (km/s) = 5.55034 6.15679 5.86141
#
# Compressibility (1/GPa) = 0.02571775
#
# Stress axis : x y z
#
# Youngs Moduli (GPa) = 47.65664 73.54062 125.49231
#
# Poissons Ratio (x) = 0.30908 0.56150
# Poissons Ratio (y) = 0.20029 -0.03277
# Poissons Ratio (z) = 0.21323 -0.01920
#
# Static dielectric constant tensor:
#      x y z
#    x 1.780340 0.000000 0.000000 
#    y 0.000000 1.725640 0.000000 
#    z 0.000000 0.000000 1.699900 
# 
# From -- ./inp_files/31854.got.cif
#   From: 2010.05.17/outbox.cif.g08.bks.cpg/sg63_16_cif.got.tgz:31854.got - 2010.06.03 15:47:04.
