data_PCOD9475637
_publ_section_title
;
Structure prediction by ZEFSAII (Michael W. Deem and Ramdas Pophale) SiO2 
 PCOD9475637
Probable space group: C M C M
;
_chemical_formula_sum "Si O2"
_cell_formula_units_Z 80
_cell_length_a 19.166930
_cell_length_b 27.430289
_cell_length_c 8.782333
_cell_angle_alpha 90.000000
_cell_angle_beta 90.000000
_cell_angle_gamma 90.000000
_cell_volume 4617.350473
_symmetry_space_group_name_H-M "C M C M"
_symmetry_group_IT_number 63
_symmetry_cell_setting 'orthorhombic'
loop_
_space_group_symop_operation_xyz
x,y,z
-x,-y,1/2+z
x,-y,-z
-x,y,1/2-z
-x,-y,-z
x,y,1/2-z
-x,y,z
x,-y,1/2+z
1/2+x,1/2+y,z
1/2-x,1/2-y,1/2+z
1/2+x,1/2-y,-z
1/2-x,1/2+y,1/2-z
1/2-x,1/2-y,-z
1/2+x,1/2+y,1/2-z
1/2-x,1/2+y,z
1/2+x,1/2-y,1/2+z
loop_
_atom_site_type_symbol
_atom_site_label
_atom_site_fract_x
_atom_site_fract_y
_atom_site_fract_z
Si Si1 0.922455 0.553979 0.933493
Si Si2 0.858270 0.948117 0.431821
Si Si3 0.420317 0.655689 0.933997
Si Si4 0.215195 0.798142 0.931336
Si Si5 0.281946 0.105566 0.933791
O O1 0.920130 0.550794 0.750000
O O2 0.857882 0.587190 0.981298
O O3 0.000000 0.571738 0.977308
O O4 0.913899 0.500000 0.000000
O O5 0.864049 0.951659 0.250000
O O6 0.902082 0.900279 0.479584
O O7 0.777959 0.934275 0.469802
O O8 0.878583 0.000000 0.500000
O O9 0.413073 0.657880 0.750000
O O10 0.500000 0.667211 0.974090
O O11 0.362659 0.690825 0.006603
O O12 0.213981 0.795207 0.750000
O O13 0.250000 0.750000 0.000000
O O14 0.259656 0.844679 0.986867
O O15 0.280363 0.112501 0.750000
#
# Coordination Sequence:
#
# PCOD9475637 Si02
#       5
#    16  16  16  16  16
#     4   9  17  29  47  72 103 138 172 209 255 304
#     4   9  17  28  45  71 102 137 172 205 244 292
#     4   9  19  37  57  77 106 140 170 206 255 304
#     4  11  22  37  58  80 101 129 169 214 261 310
#     4   9  18  33  50  70 100 135 172 214 259 306
#
# _framework density 17.325955
#
# number of rings (size 3 to 8) (size 9 to 14) (size 15 to 20)
#    0.000    2.600    0.000    3.600    0.000    4.800 
#    0.000    1.000    0.000    3.600    0.000    0.000 
#    0.000    0.000    0.000    0.000    0.000    0.000 
#
# Total GULP energy -223056.222133 kJ/mol
# GULP energy per Si atom -5576.405553 kJ/mol
# Density = 1.728652 g / cm^3
# Si number density = 17.325955 Si / 1000 Ang^3
#
#
#
# Elastic Constant Matrix: (Units=GPa)
#
#
# Indices 1 2 3 4 5 6 
#
# 1 161.6207 64.0972 46.8182 0.0000 0.0000 0.0000
# 2 64.0972 95.9731 35.4992 0.0000 0.0000 0.0000
# 3 46.8182 35.4992 36.5166 0.0000 0.0000 0.0000
# 4 0.0000 0.0000 0.0000 32.0307 0.0000 0.0000
# 5 0.0000 0.0000 0.0000 0.0000 20.8354 0.0000
# 6 0.0000 0.0000 0.0000 0.0000 0.0000 12.3224
#
#
#
# Elastic Compliance Matrix: (Units=1/GPa)
#
#
# Indices 1 2 3 4 5 6 
#
# 1 0.010419 -0.003150 -0.010296 0.000000 0.000000 0.000000
# 2 -0.003150 0.017222 -0.012704 0.000000 0.000000 0.000000
# 3 -0.010296 -0.012704 0.052935 0.000000 0.000000 0.000000
# 4 0.000000 0.000000 0.000000 0.031220 0.000000 0.000000
# 5 0.000000 0.000000 0.000000 0.000000 0.047995 0.000000
# 6 0.000000 0.000000 0.000000 0.000000 0.000000 0.081153
#
#
# Mechanical properties :
#
#
# Convention : Reuss Voigt Hill
#
# Bulk Modulus (GPa) = 35.36460 65.21552 50.29006
# Shear Modulus (GPa) = 16.51959 22.88407 19.70183
#
# Velocity S-wave (km/s) = 3.09116 3.63822 3.37579
# Velocity P-wave (km/s) = 5.76160 7.44116 6.65458
#
# Compressibility (1/GPa) = 0.02827687
#
# Stress axis : x y z
#
# Youngs Moduli (GPa) = 95.97606 58.06372 18.89108
#
# Poissons Ratio (x) = 0.18292 0.19450
# Poissons Ratio (y) = 0.30235 0.23998
# Poissons Ratio (z) = 0.98818 0.73762
#
# Static dielectric constant tensor:
#      x y z
#    x 1.609130 0.000000 0.000000 
#    y 0.000000 1.555910 0.000000 
#    z 0.000000 0.000000 1.580600 
# 
# From -- ./inp_files/6434.got.cif
#   From: 2010.05.17/outbox.cif.g08.bks.cpg/sg63_4_cif.got.tgz:6434.got - 2010.06.03 15:47:04.
