data_PCOD9475548
_publ_section_title
;
Structure prediction by ZEFSAII (Michael W. Deem and Ramdas Pophale) SiO2 
 PCOD9475548
Probable space group: C M C M
;
_chemical_formula_sum "Si O2"
_cell_formula_units_Z 96
_cell_length_a 8.564548
_cell_length_b 25.948822
_cell_length_c 23.898139
_cell_angle_alpha 90.000000
_cell_angle_beta 90.000000
_cell_angle_gamma 90.000000
_cell_volume 5311.120776
_symmetry_space_group_name_H-M "C M C M"
_symmetry_group_IT_number 63
_symmetry_cell_setting 'orthorhombic'
loop_
_space_group_symop_operation_xyz
x,y,z
-x,-y,1/2+z
x,-y,-z
-x,y,1/2-z
-x,-y,-z
x,y,1/2-z
-x,y,z
x,-y,1/2+z
1/2+x,1/2+y,z
1/2-x,1/2-y,1/2+z
1/2+x,1/2-y,-z
1/2-x,1/2+y,1/2-z
1/2-x,1/2-y,-z
1/2+x,1/2+y,1/2-z
1/2-x,1/2+y,z
1/2+x,1/2-y,1/2+z
loop_
_atom_site_type_symbol
_atom_site_label
_atom_site_fract_x
_atom_site_fract_y
_atom_site_fract_z
Si Si1 0.316267 0.906759 0.126516
Si Si2 0.313849 0.560116 0.508001
Si Si3 0.690158 0.189792 0.313757
Si Si4 0.812387 0.807423 0.184293
Si Si5 0.813527 0.403540 0.608148
Si Si6 0.185702 0.993942 0.814928
O O1 0.500000 0.914420 0.133332
O O2 0.267988 0.917261 0.062655
O O3 0.268164 0.850134 0.146665
O O4 0.227859 0.949038 0.164201
O O5 0.269159 0.500000 0.500000
O O6 0.500000 0.561983 0.516212
O O7 0.266297 0.589525 0.451727
O O8 0.741327 0.177978 0.250000
O O9 0.500000 0.189038 0.312931
O O10 0.735733 0.248411 0.327780
O O11 0.740893 0.146858 0.357714
O O12 0.778831 0.817085 0.250000
O O13 0.000000 0.810890 0.177340
O O14 0.772012 0.452936 0.645989
O O15 0.000000 0.400881 0.600628
O O16 0.229051 0.987294 0.750000
O O17 0.000000 0.986230 0.820658
#
# Coordination Sequence:
#
# PCOD9475548 Si02
#       6
#    16  16  16  16  16  16
#     4  12  24  37  57  84 113 144 188 240 287 330
#     4  11  23  40  60  79 109 153 195 231 278 343
#     4   8  16  33  58  87 117 150 185 224 277 337
#     4   9  18  36  61  85 114 153 190 224 273 339
#     4  11  21  35  59  88 116 144 186 238 285 331
#     4  11  23  37  54  80 115 152 187 224 276 342
#
# _framework density 18.075281
#
# number of rings (size 3 to 8) (size 9 to 14) (size 15 to 20)
#    0.000    1.667    1.667    5.000    0.000    5.000 
#    0.000    2.500    0.000    2.000    0.000    0.000 
#    0.000    0.000    0.000    0.000    0.000    0.000 
#
# Total GULP energy -268190.734245 kJ/mol
# GULP energy per Si atom -5587.306963 kJ/mol
# Density = 1.803414 g / cm^3
# Si number density = 18.075281 Si / 1000 Ang^3
#
#
#
# Elastic Constant Matrix: (Units=GPa)
#
#
# Indices 1 2 3 4 5 6 
#
# 1 18.3485 1.9732 5.9627 0.0000 0.0000 0.0000
# 2 1.9732 80.4271 20.4519 0.0000 0.0000 0.0000
# 3 5.9627 20.4519 55.1707 0.0000 0.0000 0.0000
# 4 0.0000 0.0000 0.0000 15.1719 0.0000 0.0000
# 5 0.0000 0.0000 0.0000 0.0000 172.4516 0.0000
# 6 0.0000 0.0000 0.0000 0.0000 0.0000 19.7722
#
#
#
# Elastic Compliance Matrix: (Units=1/GPa)
#
#
# Indices 1 2 3 4 5 6 
#
# 1 0.056487 0.000184 -0.006173 0.000000 0.000000 0.000000
# 2 0.000184 0.013728 -0.005109 0.000000 0.000000 0.000000
# 3 -0.006173 -0.005109 0.020687 0.000000 0.000000 0.000000
# 4 0.000000 0.000000 0.000000 0.065911 0.000000 0.000000
# 5 0.000000 0.000000 0.000000 0.000000 0.005799 0.000000
# 6 0.000000 0.000000 0.000000 0.000000 0.000000 0.050576
#
#
# Mechanical properties :
#
#
# Convention : Reuss Voigt Hill
#
# Bulk Modulus (GPa) = 14.55493 23.41354 18.98423
# Shear Modulus (GPa) = 19.35841 49.84971 34.60406
#
# Velocity S-wave (km/s) = 3.27615 5.25726 4.38018
# Velocity P-wave (km/s) = 4.73083 7.05926 6.00891
#
# Compressibility (1/GPa) = 0.06870525
#
# Stress axis : x y z
#
# Youngs Moduli (GPa) = 17.70329 72.84242 48.34036
#
# Poissons Ratio (x) = -0.01340 0.29841
# Poissons Ratio (y) = -0.00326 0.24697
# Poissons Ratio (z) = 0.10928 0.37215
#
# Static dielectric constant tensor:
#      x y z
#    x 1.610640 0.000000 0.000000 
#    y 0.000000 1.604870 0.000000 
#    z 0.000000 0.000000 1.593760 
# 
# From -- ./inp_files/59881.got.cif
#   From: 2010.05.17/outbox.cif.g08.bks.cpg/sg63_30_cif.got.tgz:59881.got - 2010.06.03 15:47:04.
