data_PCOD9475705
_publ_section_title
;
Structure prediction by ZEFSAII (Michael W. Deem and Ramdas Pophale) SiO2 
 PCOD9475705
Probable space group: C M C M
;
_chemical_formula_sum "Si O2"
_cell_formula_units_Z 80
_cell_length_a 14.956914
_cell_length_b 31.094594
_cell_length_c 9.258144
_cell_angle_alpha 90.000000
_cell_angle_beta 90.000000
_cell_angle_gamma 90.000000
_cell_volume 4305.769912
_symmetry_space_group_name_H-M "C M C M"
_symmetry_group_IT_number 63
_symmetry_cell_setting 'orthorhombic'
loop_
_space_group_symop_operation_xyz
x,y,z
-x,-y,1/2+z
x,-y,-z
-x,y,1/2-z
-x,-y,-z
x,y,1/2-z
-x,y,z
x,-y,1/2+z
1/2+x,1/2+y,z
1/2-x,1/2-y,1/2+z
1/2+x,1/2-y,-z
1/2-x,1/2+y,1/2-z
1/2-x,1/2-y,-z
1/2+x,1/2+y,1/2-z
1/2-x,1/2+y,z
1/2+x,1/2-y,1/2+z
loop_
_atom_site_type_symbol
_atom_site_label
_atom_site_fract_x
_atom_site_fract_y
_atom_site_fract_z
Si Si1 0.000000 0.802451 0.575625
Si Si2 0.500000 0.202756 0.574231
Si Si3 0.357530 0.638175 0.925216
Si Si4 0.351262 0.863476 0.074414
Si Si5 0.141186 0.457830 0.416373
Si Si6 0.140653 0.957977 0.415696
O O1 0.000000 0.752353 0.531601
O O2 0.915481 0.826912 0.507485
O O3 0.000000 0.805238 0.750000
O O4 0.500000 0.202521 0.750000
O O5 0.586157 0.175370 0.526550
O O6 0.367363 0.641462 0.750000
O O7 0.252645 0.642826 0.961166
O O8 0.386146 0.589516 0.967540
O O9 0.355178 0.865604 0.250000
O O10 0.383650 0.910710 0.024372
O O11 0.110715 0.500000 0.500000
O O12 0.113048 0.460851 0.250000
O O13 0.250287 0.457748 0.418277
O O14 0.113046 0.961800 0.250000
O O15 0.110197 0.000000 0.500000
#
# Coordination Sequence:
#
# PCOD9475705 Si02
#       6
#     8   8  16  16  16  16
#     4  11  23  35  50  75 100 124 163 215 262 295
#     4   9  18  33  52  75 101 126 162 213 254 289
#     4   9  18  34  54  74  99 133 168 199 240 298
#     4   8  15  30  52  74  98 133 170 199 237 294
#     4   8  13  23  42  69  98 128 161 193 230 279
#     4   8  14  25  44  70  97 126 160 195 232 280
#
# _framework density 18.579719999999998
#
# number of rings (size 3 to 8) (size 9 to 14) (size 15 to 20)
#    0.000    3.400    0.000    2.700    0.000    1.600 
#    0.000    4.000    0.000    3.600    0.000    0.000 
#    0.000    0.000    0.000    0.000    0.000    0.000 
#
# Total GULP energy -222891.412786 kJ/mol
# GULP energy per Si atom -5572.285320 kJ/mol
# Density = 1.853743 g / cm^3
# Si number density = 18.579720 Si / 1000 Ang^3
#
#
#
# Elastic Constant Matrix: (Units=GPa)
#
#
# Indices 1 2 3 4 5 6 
#
# 1 89.2177 80.4760 23.7037 0.0000 0.0000 0.0000
# 2 80.4760 234.9461 59.6097 0.0000 0.0000 0.0000
# 3 23.7037 59.6097 29.0768 0.0000 0.0000 0.0000
# 4 0.0000 0.0000 0.0000 28.6162 0.0000 0.0000
# 5 0.0000 0.0000 0.0000 0.0000 16.9219 0.0000
# 6 0.0000 0.0000 0.0000 0.0000 0.0000 38.4109
#
#
#
# Elastic Compliance Matrix: (Units=1/GPa)
#
#
# Indices 1 2 3 4 5 6 
#
# 1 0.016426 -0.004645 -0.003868 0.000000 0.000000 0.000000
# 2 -0.004645 0.010183 -0.017090 0.000000 0.000000 0.000000
# 3 -0.003868 -0.017090 0.072581 0.000000 0.000000 0.000000
# 4 0.000000 0.000000 0.000000 0.034945 0.000000 0.000000
# 5 0.000000 0.000000 0.000000 0.000000 0.059095 0.000000
# 6 0.000000 0.000000 0.000000 0.000000 0.000000 0.026034
#
#
# Mechanical properties :
#
#
# Convention : Reuss Voigt Hill
#
# Bulk Modulus (GPa) = 20.84019 75.64660 48.24339
# Shear Modulus (GPa) = 17.45406 29.41988 23.43697
#
# Velocity S-wave (km/s) = 3.06831 3.98356 3.55551
# Velocity P-wave (km/s) = 4.87788 7.87155 6.54809
#
# Compressibility (1/GPa) = 0.04798422
#
# Stress axis : x y z
#
# Youngs Moduli (GPa) = 60.87858 98.19889 13.77770
#
# Poissons Ratio (x) = 0.45614 0.05329
# Poissons Ratio (y) = 0.28278 0.23546
# Poissons Ratio (z) = 0.23548 1.67823
#
# Static dielectric constant tensor:
#      x y z
#    x 1.689820 0.000000 0.000000 
#    y 0.000000 1.644410 0.000000 
#    z 0.000000 0.000000 1.617940 
# 
# From -- ./inp_files/6516.got.cif
#   From: 2010.05.17/outbox.cif.g08.bks.cpg/sg63_4_cif.got.tgz:6516.got - 2010.06.03 15:47:04.
