data_PCOD9475316
_publ_section_title
;
Structure prediction by ZEFSAII (Michael W. Deem and Ramdas Pophale) SiO2 
 PCOD9475316
Probable space group: C M C M
;
_chemical_formula_sum "Si O2"
_cell_formula_units_Z 52
_cell_length_a 26.262492
_cell_length_b 8.700718
_cell_length_c 10.514471
_cell_angle_alpha 90.000000
_cell_angle_beta 90.000000
_cell_angle_gamma 90.000000
_cell_volume 2402.583297
_symmetry_space_group_name_H-M "C M C M"
_symmetry_group_IT_number 63
_symmetry_cell_setting 'orthorhombic'
loop_
_space_group_symop_operation_xyz
x,y,z
-x,-y,1/2+z
x,-y,-z
-x,y,1/2-z
-x,-y,-z
x,y,1/2-z
-x,y,z
x,-y,1/2+z
1/2+x,1/2+y,z
1/2-x,1/2-y,1/2+z
1/2+x,1/2-y,-z
1/2-x,1/2+y,1/2-z
1/2-x,1/2-y,-z
1/2+x,1/2+y,1/2-z
1/2-x,1/2+y,z
1/2+x,1/2-y,1/2+z
loop_
_atom_site_type_symbol
_atom_site_label
_atom_site_fract_x
_atom_site_fract_y
_atom_site_fract_z
Si Si1 0.349652 0.121811 0.890198
Si Si2 0.413860 0.667782 0.547903
Si Si3 0.500000 0.752678 0.750000
Si Si4 0.324776 0.649506 0.750000
Si Si5 0.225936 0.821550 0.750000
O O1 0.359690 0.053153 0.750000
O O2 0.301876 0.235485 0.867729
O O3 0.397878 0.223753 0.931630
O O4 0.340150 0.000000 0.000000
O O5 0.430499 0.500000 0.500000
O O6 0.455561 0.741228 0.638925
O O7 0.361994 0.647484 0.629326
O O8 0.285303 0.789328 0.750000
O O9 0.289783 0.497722 0.750000
#
# Coordination Sequence:
#
# PCOD9475316 Si02
#       5
#    16  16   4   8   8
#     4  10  24  44  68  97 140 182 226 278 342 410
#     4  11  22  46  68  99 140 177 234 291 347 408
#     4  10  26  38  80 102 124 178 240 292 364 392
#     4  11  24  39  69 102 144 183 228 280 337 418
#     4  10  24  41  61 108 136 188 228 276 338 410
#
# _framework density 21.643370999999998
#
# number of rings (size 3 to 8) (size 9 to 14) (size 15 to 20)
#    0.923    0.615    3.077    0.462   10.769    2.462 
#    0.000    0.769    0.000    0.000    0.000    0.000 
#    0.000    0.000    0.000    0.000    0.000    0.000 
#
# Total GULP energy -144804.827754 kJ/mol
# GULP energy per Si atom -5569.416452 kJ/mol
# Density = 2.159411 g / cm^3
# Si number density = 21.643371 Si / 1000 Ang^3
#
#
#
# Elastic Constant Matrix: (Units=GPa)
#
#
# Indices 1 2 3 4 5 6 
#
# 1 96.9423 25.8091 28.2737 0.0000 0.0000 0.0000
# 2 25.8091 76.6500 35.8179 0.0000 0.0000 0.0000
# 3 28.2737 35.8179 136.2030 0.0000 0.0000 0.0000
# 4 0.0000 0.0000 0.0000 23.5249 0.0000 0.0000
# 5 0.0000 0.0000 0.0000 0.0000 34.0342 0.0000
# 6 0.0000 0.0000 0.0000 0.0000 0.0000 -4.9806
#
#
#
# Elastic Compliance Matrix: (Units=1/GPa)
#
#
# Indices 1 2 3 4 5 6 
#
# 1 0.011621 -0.003176 -0.001577 0.000000 0.000000 0.000000
# 2 -0.003176 0.015742 -0.003480 0.000000 0.000000 0.000000
# 3 -0.001577 -0.003480 0.008585 0.000000 0.000000 0.000000
# 4 0.000000 0.000000 0.000000 0.042508 0.000000 0.000000
# 5 0.000000 0.000000 0.000000 0.000000 0.029382 0.000000
# 6 0.000000 0.000000 0.000000 0.000000 0.000000 -0.200779
#
#
# Mechanical properties :
#
#
# Convention : Reuss Voigt Hill
#
# Bulk Modulus (GPa) = 51.33329 54.39964 52.86646
# Shear Modulus (GPa) = -71.44841 25.17533 -23.13654
#
# Velocity S-wave (km/s) = -5.75181 3.41426 -3.27309
# Velocity P-wave (km/s) = 4.51019 6.38216 3.19297
#
# Compressibility (1/GPa) = 0.01948054
#
# Stress axis : x y z
#
# Youngs Moduli (GPa) = 86.05160 63.52393 116.48695
#
# Poissons Ratio (x) = 0.20175 0.18372
# Poissons Ratio (y) = 0.27329 0.40543
# Poissons Ratio (z) = 0.13572 0.22109
#
# Static dielectric constant tensor:
#      x y z
#    x 1.754060 0.000000 0.000000 
#    y 0.000000 1.825100 0.000000 
#    z 0.000000 0.000000 1.809740 
# 
# From -- ./inp_files/24534.got.cif
#   From: 2010.05.17/outbox.cif.g08.bks.cpg/sg63_13_cif.got.tgz:24534.got - 2010.06.03 15:47:04.
