data_PCOD9475508
_publ_section_title
;
Structure prediction by ZEFSAII (Michael W. Deem and Ramdas Pophale) SiO2 
 PCOD9475508
Probable space group: C M C M
;
_chemical_formula_sum "Si O2"
_cell_formula_units_Z 80
_cell_length_a 8.709387
_cell_length_b 18.635664
_cell_length_c 27.300796
_cell_angle_alpha 90.000000
_cell_angle_beta 90.000000
_cell_angle_gamma 90.000000
_cell_volume 4431.061422
_symmetry_space_group_name_H-M "C M C M"
_symmetry_group_IT_number 63
_symmetry_cell_setting 'orthorhombic'
loop_
_space_group_symop_operation_xyz
x,y,z
-x,-y,1/2+z
x,-y,-z
-x,y,1/2-z
-x,-y,-z
x,y,1/2-z
-x,y,z
x,-y,1/2+z
1/2+x,1/2+y,z
1/2-x,1/2-y,1/2+z
1/2+x,1/2-y,-z
1/2-x,1/2+y,1/2-z
1/2-x,1/2-y,-z
1/2+x,1/2+y,1/2-z
1/2-x,1/2+y,z
1/2+x,1/2-y,1/2+z
loop_
_atom_site_type_symbol
_atom_site_label
_atom_site_fract_x
_atom_site_fract_y
_atom_site_fract_z
Si Si1 0.818583 0.090844 0.802548
Si Si2 0.180874 0.083234 0.196188
Si Si3 0.184205 0.829432 0.503721
Si Si4 0.817744 0.581883 0.406345
Si Si5 0.813464 0.921211 0.091491
O O1 0.751708 0.115436 0.750000
O O2 0.759474 0.112021 0.856276
O O3 0.000000 0.108546 0.801592
O O4 0.807596 0.003861 0.803006
O O5 0.233782 0.108665 0.250000
O O6 0.269717 0.107612 0.148091
O O7 0.000000 0.099785 0.191204
O O8 0.250000 0.750000 0.500000
O O9 0.247067 0.868657 0.551767
O O10 0.229365 0.874446 0.455336
O O11 0.000000 0.827594 0.505537
O O12 0.751751 0.501421 0.412861
O O13 0.000000 0.580298 0.410415
O O14 0.000000 0.926538 0.093370
#
# Coordination Sequence:
#
# PCOD9475508 Si02
#       5
#    16  16  16  16  16
#     4   7  10  20  42  71  98 122 152 192 239 292
#     4   8  14  27  48  73 102 135 168 203 247 297
#     4  11  23  38  54  71  97 134 176 220 264 312
#     4  11  21  32  51  79 108 135 168 211 255 303
#     4   9  18  33  53  76 101 132 170 209 252 304
#
# _framework density 18.054365000000001
#
# number of rings (size 3 to 8) (size 9 to 14) (size 15 to 20)
#    0.000    2.800    0.000    5.400    0.000    4.400 
#    0.000    0.000    0.000    1.200    0.000    2.800 
#    0.000    0.000    0.000    0.000    0.000    0.000 
#
# Total GULP energy -222798.955465 kJ/mol
# GULP energy per Si atom -5569.973887 kJ/mol
# Density = 1.801327 g / cm^3
# Si number density = 18.054365 Si / 1000 Ang^3
#
#
#
# Elastic Constant Matrix: (Units=GPa)
#
#
# Indices 1 2 3 4 5 6 
#
# 1 39.0265 23.6904 53.3247 0.0000 0.0000 0.0000
# 2 23.6904 56.8871 70.8756 0.0000 0.0000 0.0000
# 3 53.3247 70.8756 217.0893 0.0000 0.0000 0.0000
# 4 0.0000 0.0000 0.0000 -5.4962 0.0000 0.0000
# 5 0.0000 0.0000 0.0000 0.0000 12.8634 0.0000
# 6 0.0000 0.0000 0.0000 0.0000 0.0000 19.1480
#
#
#
# Elastic Compliance Matrix: (Units=1/GPa)
#
#
# Indices 1 2 3 4 5 6 
#
# 1 0.040389 -0.007517 -0.007467 0.000000 0.000000 0.000000
# 2 -0.007517 0.031031 -0.008285 0.000000 0.000000 0.000000
# 3 -0.007467 -0.008285 0.009145 0.000000 0.000000 0.000000
# 4 0.000000 0.000000 0.000000 -0.181945 0.000000 0.000000
# 5 0.000000 0.000000 0.000000 0.000000 0.077740 0.000000
# 6 0.000000 0.000000 0.000000 0.000000 0.000000 0.052225
#
#
# Mechanical properties :
#
#
# Convention : Reuss Voigt Hill
#
# Bulk Modulus (GPa) = 29.38714 67.64270 48.51492
# Shear Modulus (GPa) = 57.82722 16.31053 37.06887
#
# Velocity S-wave (km/s) = 5.66560 3.00894 4.53612
# Velocity P-wave (km/s) = 7.68837 7.04408 7.37327
#
# Compressibility (1/GPa) = 0.03402849
#
# Stress axis : x y z
#
# Youngs Moduli (GPa) = 24.75911 32.22607 109.34632
#
# Poissons Ratio (x) = 0.24224 0.81647
# Poissons Ratio (y) = 0.18611 0.90588
# Poissons Ratio (z) = 0.18487 0.26698
#
# Static dielectric constant tensor:
#      x y z
#    x 1.635610 0.000000 0.000000 
#    y 0.000000 1.578050 0.000000 
#    z 0.000000 0.000000 1.686090 
# 
# From -- ./inp_files/66599.got.cif
#   From: 2010.05.17/outbox.cif.g08.bks.cpg/sg63_34_cif.got.tgz:66599.got - 2010.06.03 15:47:04.
