data_PCOD9475561
_publ_section_title
;
Structure prediction by ZEFSAII (Michael W. Deem and Ramdas Pophale) SiO2 
 PCOD9475561
Probable space group: C M C M
;
_chemical_formula_sum "Si O2"
_cell_formula_units_Z 96
_cell_length_a 12.563671
_cell_length_b 22.369852
_cell_length_c 16.432232
_cell_angle_alpha 90.000000
_cell_angle_beta 90.000000
_cell_angle_gamma 90.000000
_cell_volume 4618.237080
_symmetry_space_group_name_H-M "C M C M"
_symmetry_group_IT_number 63
_symmetry_cell_setting 'orthorhombic'
loop_
_space_group_symop_operation_xyz
x,y,z
-x,-y,1/2+z
x,-y,-z
-x,y,1/2-z
-x,-y,-z
x,y,1/2-z
-x,y,z
x,-y,1/2+z
1/2+x,1/2+y,z
1/2-x,1/2-y,1/2+z
1/2+x,1/2-y,-z
1/2-x,1/2+y,1/2-z
1/2-x,1/2-y,-z
1/2+x,1/2+y,1/2-z
1/2-x,1/2+y,z
1/2+x,1/2-y,1/2+z
loop_
_atom_site_type_symbol
_atom_site_label
_atom_site_fract_x
_atom_site_fract_y
_atom_site_fract_z
Si Si1 0.500000 0.417525 0.420450
Si Si2 0.500000 0.445722 0.612324
Si Si3 0.381504 0.912732 0.930517
Si Si4 0.116461 0.726832 0.651548
Si Si5 0.381098 0.953096 0.118984
Si Si6 0.794112 0.863226 0.342113
Si Si7 0.311810 0.640379 0.156146
O O1 0.500000 0.431376 0.516038
O O2 0.500000 0.482850 0.377177
O O3 0.395222 0.381275 0.394953
O O4 0.603870 0.413276 0.647658
O O5 0.500000 0.888804 0.914840
O O6 0.287257 0.870785 0.902359
O O7 0.369688 0.975577 0.882466
O O8 0.375600 0.931081 0.025082
O O9 0.115034 0.718884 0.750000
O O10 0.217642 0.688828 0.623036
O O11 0.131969 0.796890 0.635983
O O12 0.000000 0.707160 0.620420
O O13 0.500000 0.938517 0.149736
O O14 0.285516 0.919687 0.161631
O O15 0.828306 0.847702 0.250000
O O16 0.275953 0.643826 0.250000
#
# Coordination Sequence:
#
# PCOD9475561 Si02
#       7
#     8   8  16  16  16  16  16
#     4  11  25  41  57  87 125 159 188 233 308 367
#     4  11  23  41  63  83 119 161 196 241 292 351
#     4   9  19  35  54  81 119 154 184 229 293 353
#     4   9  19  38  60  82 111 149 194 241 292 343
#     4   9  18  35  57  80 113 155 191 229 285 345
#     4  11  22  37  59  85 115 150 191 239 290 347
#     4  11  21  36  61  87 111 150 201 247 288 341
#
# _framework density 20.787153
#
# number of rings (size 3 to 8) (size 9 to 14) (size 15 to 20)
#    0.000    2.000    0.833    4.000    0.000    7.333 
#    1.500    5.000    0.000    0.000    0.000    0.000 
#    0.000    0.000    0.000    0.000    0.000    0.000 
#
# Total GULP energy -268171.143544 kJ/mol
# GULP energy per Si atom -5586.898824 kJ/mol
# Density = 2.073984 g / cm^3
# Si number density = 20.787153 Si / 1000 Ang^3
#
#
#
# Elastic Constant Matrix: (Units=GPa)
#
#
# Indices 1 2 3 4 5 6 
#
# 1 139.5404 41.3892 23.0875 0.0000 0.0000 0.0000
# 2 41.3892 74.8027 8.9982 0.0000 0.0000 0.0000
# 3 23.0875 8.9982 33.7402 0.0000 0.0000 0.0000
# 4 0.0000 0.0000 0.0000 18.9343 0.0000 0.0000
# 5 0.0000 0.0000 0.0000 0.0000 59.0049 0.0000
# 6 0.0000 0.0000 0.0000 0.0000 0.0000 29.8711
#
#
#
# Elastic Compliance Matrix: (Units=1/GPa)
#
#
# Indices 1 2 3 4 5 6 
#
# 1 0.009381 -0.004565 -0.005202 0.000000 0.000000 0.000000
# 2 -0.004565 0.016033 -0.001152 0.000000 0.000000 0.000000
# 3 -0.005202 -0.001152 0.033505 0.000000 0.000000 0.000000
# 4 0.000000 0.000000 0.000000 0.052814 0.000000 0.000000
# 5 0.000000 0.000000 0.000000 0.000000 0.016948 0.000000
# 6 0.000000 0.000000 0.000000 0.000000 0.000000 0.033477
#
#
# Mechanical properties :
#
#
# Convention : Reuss Voigt Hill
#
# Bulk Modulus (GPa) = 26.96785 43.89256 35.43020
# Shear Modulus (GPa) = 25.46394 33.20262 29.33328
#
# Velocity S-wave (km/s) = 3.50377 4.00092 3.76057
# Velocity P-wave (km/s) = 5.41942 6.51952 5.99476
#
# Compressibility (1/GPa) = 0.03708120
#
# Stress axis : x y z
#
# Youngs Moduli (GPa) = 106.59803 62.37167 29.84631
#
# Poissons Ratio (x) = 0.28472 0.15525
# Poissons Ratio (y) = 0.48661 0.03439
# Poissons Ratio (z) = 0.55450 0.07186
#
# Static dielectric constant tensor:
#      x y z
#    x 1.726290 0.000000 0.000000 
#    y 0.000000 1.743100 0.000000 
#    z 0.000000 0.000000 1.764710 
# 
# From -- ./inp_files/42587.got.cif
#   From: 2010.05.17/outbox.cif.g08.bks.cpg/sg63_22_cif.got.tgz:42587.got - 2010.06.03 15:47:04.
