data_PCOD9475573
_publ_section_title
;
Structure prediction by ZEFSAII (Michael W. Deem and Ramdas Pophale) SiO2 
 PCOD9475573
Probable space group: C M C M
;
_chemical_formula_sum "Si O2"
_cell_formula_units_Z 112
_cell_length_a 23.697689
_cell_length_b 14.481686
_cell_length_c 18.125788
_cell_angle_alpha 90.000000
_cell_angle_beta 90.000000
_cell_angle_gamma 90.000000
_cell_volume 6220.453078
_symmetry_space_group_name_H-M "C M C M"
_symmetry_group_IT_number 63
_symmetry_cell_setting 'orthorhombic'
loop_
_space_group_symop_operation_xyz
x,y,z
-x,-y,1/2+z
x,-y,-z
-x,y,1/2-z
-x,-y,-z
x,y,1/2-z
-x,y,z
x,-y,1/2+z
1/2+x,1/2+y,z
1/2-x,1/2-y,1/2+z
1/2+x,1/2-y,-z
1/2-x,1/2+y,1/2-z
1/2-x,1/2-y,-z
1/2+x,1/2+y,1/2-z
1/2-x,1/2+y,z
1/2+x,1/2-y,1/2+z
loop_
_atom_site_type_symbol
_atom_site_label
_atom_site_fract_x
_atom_site_fract_y
_atom_site_fract_z
Si Si1 0.830349 0.819744 0.837998
Si Si2 0.435283 0.280590 0.938606
Si Si3 0.436316 0.390426 0.410119
Si Si4 0.678998 0.489716 0.412551
Si Si5 0.729387 0.314899 0.336937
Si Si6 0.612012 0.211196 0.335862
Si Si7 0.567348 0.097238 0.034014
O O1 0.834902 0.826418 0.750000
O O2 0.889900 0.800199 0.876477
O O3 0.786264 0.738600 0.856248
O O4 0.807937 0.915576 0.871367
O O5 0.500000 0.283232 0.912810
O O6 0.424517 0.181054 0.976376
O O7 0.429790 0.354059 0.005747
O O8 0.500000 0.425598 0.400257
O O9 0.386009 0.461017 0.394799
O O10 0.426139 0.299137 0.360400
O O11 0.684522 0.500000 0.500000
O O12 0.716926 0.405698 0.383734
O O13 0.730558 0.339110 0.250000
O O14 0.675990 0.246514 0.347081
O O15 0.603388 0.189773 0.250000
O O16 0.597351 0.128290 0.390777
O O17 0.500000 0.091784 0.048408
O O18 0.585945 0.000000 0.000000
#
# Coordination Sequence:
#
# PCOD9475573 Si02
#       7
#    16  16  16  16  16  16  16
#     4  11  23  40  59  80 111 153 192 230 283 336
#     4   9  18  36  58  80 113 151 185 226 279 339
#     4   9  18  33  55  84 118 148 174 219 284 339
#     4  11  21  37  59  88 112 146 190 232 274 333
#     4   9  21  41  58  78 116 151 179 232 289 327
#     4   9  17  33  56  81 108 143 188 234 280 334
#     4   9  18  34  54  79 113 149 185 233 288 331
#
# _framework density 18.005119000000001
#
# number of rings (size 3 to 8) (size 9 to 14) (size 15 to 20)
#    0.000    2.429    1.429    1.714    0.000    3.429 
#    2.571    0.714    0.000    2.571    0.000    0.000 
#    0.000    0.000    0.000    0.000    0.000    0.000 
#
# Total GULP energy -312596.707022 kJ/mol
# GULP energy per Si atom -5582.084054 kJ/mol
# Density = 1.796414 g / cm^3
# Si number density = 18.005119 Si / 1000 Ang^3
#
#
#
# Elastic Constant Matrix: (Units=GPa)
#
#
# Indices 1 2 3 4 5 6 
#
# 1 73.4118 38.5533 53.6000 0.0000 0.0000 0.0000
# 2 38.5533 90.3424 56.2342 0.0000 0.0000 0.0000
# 3 53.6000 56.2342 97.7921 0.0000 0.0000 0.0000
# 4 0.0000 0.0000 0.0000 27.9478 0.0000 0.0000
# 5 0.0000 0.0000 0.0000 0.0000 26.1651 0.0000
# 6 0.0000 0.0000 0.0000 0.0000 0.0000 19.3096
#
#
#
# Elastic Compliance Matrix: (Units=1/GPa)
#
#
# Indices 1 2 3 4 5 6 
#
# 1 0.023254 -0.003099 -0.010963 0.000000 0.000000 0.000000
# 2 -0.003099 0.017653 -0.008452 0.000000 0.000000 0.000000
# 3 -0.010963 -0.008452 0.021095 0.000000 0.000000 0.000000
# 4 0.000000 0.000000 0.000000 0.035781 0.000000 0.000000
# 5 0.000000 0.000000 0.000000 0.000000 0.038219 0.000000
# 6 0.000000 0.000000 0.000000 0.000000 0.000000 0.051788
#
#
# Mechanical properties :
#
#
# Convention : Reuss Voigt Hill
#
# Bulk Modulus (GPa) = 58.92025 62.03571 60.47798
# Shear Modulus (GPa) = 20.96636 22.22841 21.59739
#
# Velocity S-wave (km/s) = 3.41613 3.51744 3.46716
# Velocity P-wave (km/s) = 6.95379 7.14324 7.04915
#
# Compressibility (1/GPa) = 0.01697209
#
# Stress axis : x y z
#
# Youngs Moduli (GPa) = 43.00312 56.64809 47.40418
#
# Poissons Ratio (x) = 0.17558 0.51971
# Poissons Ratio (y) = 0.13328 0.40067
# Poissons Ratio (z) = 0.47146 0.47880
#
# Static dielectric constant tensor:
#      x y z
#    x 1.617100 0.000000 0.000000 
#    y 0.000000 1.613900 0.000000 
#    z 0.000000 0.000000 1.596480 
# 
# From -- ./inp_files/36905.got.cif
#   From: 2010.05.17/outbox.cif.g08.bks.cpg/sg63_19_cif.got.tgz:36905.got - 2010.06.03 15:47:04.
