data_PCOD9475538
_publ_section_title
;
Structure prediction by ZEFSAII (Michael W. Deem and Ramdas Pophale) SiO2 
 PCOD9475538
Probable space group: C M C M
;
_chemical_formula_sum "Si O2"
_cell_formula_units_Z 68
_cell_length_a 16.913307
_cell_length_b 22.730719
_cell_length_c 9.026877
_cell_angle_alpha 90.000000
_cell_angle_beta 90.000000
_cell_angle_gamma 90.000000
_cell_volume 3470.397565
_symmetry_space_group_name_H-M "C M C M"
_symmetry_group_IT_number 63
_symmetry_cell_setting 'orthorhombic'
loop_
_space_group_symop_operation_xyz
x,y,z
-x,-y,1/2+z
x,-y,-z
-x,y,1/2-z
-x,-y,-z
x,y,1/2-z
-x,y,z
x,-y,1/2+z
1/2+x,1/2+y,z
1/2-x,1/2-y,1/2+z
1/2+x,1/2-y,-z
1/2-x,1/2+y,1/2-z
1/2-x,1/2-y,-z
1/2+x,1/2+y,1/2-z
1/2-x,1/2+y,z
1/2+x,1/2-y,1/2+z
loop_
_atom_site_type_symbol
_atom_site_label
_atom_site_fract_x
_atom_site_fract_y
_atom_site_fract_z
Si Si1 0.909142 0.159561 0.924462
Si Si2 0.833727 0.265780 0.425512
Si Si3 0.195887 0.939936 0.575336
Si Si4 0.500000 0.062445 0.750000
Si Si5 0.155642 0.404217 0.411532
O O1 0.890652 0.162387 0.750000
O O2 0.000000 0.140827 0.942193
O O3 0.896362 0.223321 0.996894
O O4 0.850655 0.114784 0.005521
O O5 0.830254 0.253618 0.250000
O O6 0.750000 0.250000 0.500000
O O7 0.852950 0.334666 0.442967
O O8 0.185123 0.941678 0.750000
O O9 0.288251 0.932054 0.533558
O O10 0.167623 0.000000 0.500000
O O11 0.429294 0.067951 0.877518
O O12 0.198899 0.408932 0.250000
#
# Coordination Sequence:
#
# PCOD9475538 Si02
#       5
#    16  16  16   4  16
#     4  11  25  42  62  95 134 172 216 268 315 375
#     4  11  21  34  62  93 131 170 211 257 312 382
#     4  12  25  43  69  92 122 169 215 266 321 387
#     4   8  20  40  68  92 124 176 196 276 312 382
#     4   9  20  39  64  91 126 164 212 252 320 376
#
# _framework density 19.594296
#
# number of rings (size 3 to 8) (size 9 to 14) (size 15 to 20)
#    0.706    0.706    2.353    3.529    1.647    3.294 
#    0.000    1.176    0.000    0.000    0.000    0.000 
#    0.000    0.000    0.000    0.000    0.000    0.000 
#
# Total GULP energy -189307.517316 kJ/mol
# GULP energy per Si atom -5567.868156 kJ/mol
# Density = 1.954970 g / cm^3
# Si number density = 19.594296 Si / 1000 Ang^3
#
#
#
# Elastic Constant Matrix: (Units=GPa)
#
#
# Indices 1 2 3 4 5 6 
#
# 1 73.5173 -4.2426 34.5231 0.0000 0.0000 0.0000
# 2 -4.2426 49.8652 34.8634 0.0000 0.0000 0.0000
# 3 34.5231 34.8634 128.9335 0.0000 0.0000 0.0000
# 4 0.0000 0.0000 0.0000 27.6706 0.0000 0.0000
# 5 0.0000 0.0000 0.0000 0.0000 22.5851 0.0000
# 6 0.0000 0.0000 0.0000 0.0000 0.0000 -3.2246
#
#
#
# Elastic Compliance Matrix: (Units=1/GPa)
#
#
# Indices 1 2 3 4 5 6 
#
# 1 0.016746 0.005623 -0.006004 0.000000 0.000000 0.000000
# 2 0.005623 0.026617 -0.008703 0.000000 0.000000 0.000000
# 3 -0.006004 -0.008703 0.011717 0.000000 0.000000 0.000000
# 4 0.000000 0.000000 0.000000 0.036139 0.000000 0.000000
# 5 0.000000 0.000000 0.000000 0.000000 0.044277 0.000000
# 6 0.000000 0.000000 0.000000 0.000000 0.000000 -0.310118
#
#
# Mechanical properties :
#
#
# Convention : Reuss Voigt Hill
#
# Bulk Modulus (GPa) = 27.09182 42.51154 34.80168
# Shear Modulus (GPa) = -34.68647 21.88434 -6.40106
#
# Velocity S-wave (km/s) = -4.21198 3.34559 -1.80939
# Velocity P-wave (km/s) = 3.13017 6.05532 3.66531
#
# Compressibility (1/GPa) = 0.03691151
#
# Stress axis : x y z
#
# Youngs Moduli (GPa) = 59.71464 37.56992 85.34704
#
# Poissons Ratio (x) = -0.21125 0.51245
# Poissons Ratio (y) = -0.33576 0.74275
# Poissons Ratio (z) = 0.35855 0.32696
#
# Static dielectric constant tensor:
#      x y z
#    x 1.686440 0.000000 0.000000 
#    y 0.000000 1.723730 0.000000 
#    z 0.000000 0.000000 1.682450 
# 
# From -- ./inp_files/6105.got.cif
#   From: 2010.05.17/outbox.cif.g08.bks.cpg/sg63_4_cif.got.tgz:6105.got - 2010.06.03 15:47:04.
