data_PCOD9475900
_publ_section_title
;
Structure prediction by ZEFSAII (Michael W. Deem and Ramdas Pophale) SiO2 
 PCOD9475900
Probable space group: C M C M
;
_chemical_formula_sum "Si O2"
_cell_formula_units_Z 72
_cell_length_a 21.175205
_cell_length_b 8.572998
_cell_length_c 19.721320
_cell_angle_alpha 90.000000
_cell_angle_beta 90.000000
_cell_angle_gamma 90.000000
_cell_volume 3580.109631
_symmetry_space_group_name_H-M "C M C M"
_symmetry_group_IT_number 63
_symmetry_cell_setting 'orthorhombic'
loop_
_space_group_symop_operation_xyz
x,y,z
-x,-y,1/2+z
x,-y,-z
-x,y,1/2-z
-x,-y,-z
x,y,1/2-z
-x,y,z
x,-y,1/2+z
1/2+x,1/2+y,z
1/2-x,1/2-y,1/2+z
1/2+x,1/2-y,-z
1/2-x,1/2+y,1/2-z
1/2-x,1/2-y,-z
1/2+x,1/2+y,1/2-z
1/2-x,1/2+y,z
1/2+x,1/2-y,1/2+z
loop_
_atom_site_type_symbol
_atom_site_label
_atom_site_fract_x
_atom_site_fract_y
_atom_site_fract_z
Si Si1 0.211572 0.793474 0.892360
Si Si2 0.344218 0.286198 0.250000
Si Si3 0.425865 0.713898 0.883191
Si Si4 0.762553 0.931960 0.750000
Si Si5 0.867095 0.000000 0.500000
Si Si6 0.163962 0.542768 0.422014
O O1 0.205621 0.868388 0.818511
O O2 0.190451 0.614630 0.888876
O O3 0.285274 0.818647 0.910617
O O4 0.174399 0.888147 0.950875
O O5 0.386001 0.323293 0.184462
O O6 0.311866 0.114174 0.250000
O O7 0.280298 0.387206 0.250000
O O8 0.500000 0.702726 0.871065
O O9 0.402750 0.889998 0.899215
O O10 0.406786 0.606524 0.947544
O O11 0.161414 0.500000 0.500000
#
# Coordination Sequence:
#
# PCOD9475900 Si02
#       6
#    16   8  16   8   8  16
#     4  12  23  39  69 102 134 166 215 284 348 384
#     4  12  25  44  71 103 136 169 218 277 337 400
#     4  12  27  46  67  94 135 187 229 266 321 400
#     4  12  24  40  69 105 133 163 210 279 347 394
#     4  12  23  46  70  96 131 176 230 284 328 390
#     4  12  23  40  67 100 135 168 219 279 338 394
#
# _framework density 20.111115000000002
#
# number of rings (size 3 to 8) (size 9 to 14) (size 15 to 20)
#    0.000    0.000    7.778    4.000    0.000    0.444 
#    0.000    0.000    0.000    0.000    0.000    0.000 
#    0.000    0.000    0.000    0.000    0.000    0.000 
#
# Total GULP energy -201230.732509 kJ/mol
# GULP energy per Si atom -5589.742570 kJ/mol
# Density = 2.006534 g / cm^3
# Si number density = 20.111115 Si / 1000 Ang^3
#
#
#
# Elastic Constant Matrix: (Units=GPa)
#
#
# Indices 1 2 3 4 5 6 
#
# 1 132.3871 43.3913 48.3647 0.0000 0.0000 0.0000
# 2 43.3913 86.6045 32.5085 0.0000 0.0000 0.0000
# 3 48.3647 32.5085 158.0445 0.0000 0.0000 0.0000
# 4 0.0000 0.0000 0.0000 16.0392 0.0000 0.0000
# 5 0.0000 0.0000 0.0000 0.0000 23.5818 0.0000
# 6 0.0000 0.0000 0.0000 0.0000 0.0000 20.6645
#
#
#
# Elastic Compliance Matrix: (Units=1/GPa)
#
#
# Indices 1 2 3 4 5 6 
#
# 1 0.009653 -0.004040 -0.002123 0.000000 0.000000 0.000000
# 2 -0.004040 0.014203 -0.001685 0.000000 0.000000 0.000000
# 3 -0.002123 -0.001685 0.007324 0.000000 0.000000 0.000000
# 4 0.000000 0.000000 0.000000 0.062347 0.000000 0.000000
# 5 0.000000 0.000000 0.000000 0.000000 0.042406 0.000000
# 6 0.000000 0.000000 0.000000 0.000000 0.000000 0.048392
#
#
# Mechanical properties :
#
#
# Convention : Reuss Voigt Hill
#
# Bulk Modulus (GPa) = 64.58223 69.50723 67.04473
# Shear Modulus (GPa) = 24.36854 28.90855 26.63855
#
# Velocity S-wave (km/s) = 3.48472 3.79547 3.64341
# Velocity P-wave (km/s) = 6.95510 7.33786 7.14904
#
# Compressibility (1/GPa) = 0.01548414
#
# Stress axis : x y z
#
# Youngs Moduli (GPa) = 103.59169 70.40615 136.54254
#
# Poissons Ratio (x) = 0.28441 0.28990
# Poissons Ratio (y) = 0.41847 0.23012
# Poissons Ratio (z) = 0.21994 0.11866
#
# Static dielectric constant tensor:
#      x y z
#    x 1.675730 0.000000 0.000000 
#    y 0.000000 1.774360 0.000000 
#    z 0.000000 0.000000 1.749750 
# 
# From -- ./inp_files/56356.got.cif
#   From: 2010.05.17/outbox.cif.g08.bks.cpg/sg63_29_cif.got.tgz:56356.got - 2010.06.03 15:47:04.
