data_PCOD9475140
_publ_section_title
;
Structure prediction by ZEFSAII (Michael W. Deem and Ramdas Pophale) SiO2 
 PCOD9475140
Probable space group: C M C M
;
_chemical_formula_sum "Si O2"
_cell_formula_units_Z 48
_cell_length_a 15.491279
_cell_length_b 10.378593
_cell_length_c 13.906385
_cell_angle_alpha 90.000000
_cell_angle_beta 90.000000
_cell_angle_gamma 90.000000
_cell_volume 2235.836315
_symmetry_space_group_name_H-M "C M C M"
_symmetry_group_IT_number 63
_symmetry_cell_setting 'orthorhombic'
loop_
_space_group_symop_operation_xyz
x,y,z
-x,-y,1/2+z
x,-y,-z
-x,y,1/2-z
-x,-y,-z
x,y,1/2-z
-x,y,z
x,-y,1/2+z
1/2+x,1/2+y,z
1/2-x,1/2-y,1/2+z
1/2+x,1/2-y,-z
1/2-x,1/2+y,1/2-z
1/2-x,1/2-y,-z
1/2+x,1/2+y,1/2-z
1/2-x,1/2+y,z
1/2+x,1/2-y,1/2+z
loop_
_atom_site_type_symbol
_atom_site_label
_atom_site_fract_x
_atom_site_fract_y
_atom_site_fract_z
Si Si1 0.182533 0.011229 0.634298
Si Si2 0.500000 0.150786 0.521812
Si Si3 0.674150 0.781726 0.366510
Si Si4 0.500000 0.633548 0.633984
O O1 0.183397 0.013765 0.750000
O O2 0.254235 0.113961 0.604326
O O3 0.086395 0.055787 0.606990
O O4 0.200501 0.864073 0.607190
O O5 0.584319 0.187155 0.582849
O O6 0.500000 0.233372 0.423812
O O7 0.500000 0.000000 0.500000
O O8 0.664260 0.786811 0.250000
O O9 0.500000 0.653053 0.750000
#
# Coordination Sequence:
#
# PCOD9475140 Si02
#       4
#    16   8  16   8
#     4   9  20  40  70  99 127 172 213 261 326 385
#     4  12  28  42  61 100 129 177 219 266 328 374
#     4  10  22  43  69  98 133 168 213 265 323 389
#     4  10  23  44  65  90 129 171 221 267 321 388
#
# _framework density 21.468478000000001
#
# number of rings (size 3 to 8) (size 9 to 14) (size 15 to 20)
#    0.000    2.000    0.000    1.500    4.667    8.000 
#    0.000    0.000    0.000    0.000    0.000    0.000 
#    0.000    0.000    0.000    0.000    0.000    0.000 
#
# Total GULP energy -134326.155982 kJ/mol
# GULP energy per Si atom -5596.923166 kJ/mol
# Density = 2.141961 g / cm^3
# Si number density = 21.468478 Si / 1000 Ang^3
#
#
#
# Elastic Constant Matrix: (Units=GPa)
#
#
# Indices 1 2 3 4 5 6 
#
# 1 191.9128 115.6544 41.9171 0.0000 0.0000 0.0000
# 2 115.6544 244.7771 49.6490 0.0000 0.0000 0.0000
# 3 41.9171 49.6490 133.9548 0.0000 0.0000 0.0000
# 4 0.0000 0.0000 0.0000 26.9999 0.0000 0.0000
# 5 0.0000 0.0000 0.0000 0.0000 -1.6463 0.0000
# 6 0.0000 0.0000 0.0000 0.0000 0.0000 7.7687
#
#
#
# Elastic Compliance Matrix: (Units=1/GPa)
#
#
# Indices 1 2 3 4 5 6 
#
# 1 0.007434 -0.003288 -0.001108 0.000000 0.000000 0.000000
# 2 -0.003288 0.005872 -0.001147 0.000000 0.000000 0.000000
# 3 -0.001108 -0.001147 0.008237 0.000000 0.000000 0.000000
# 4 0.000000 0.000000 0.000000 0.037037 0.000000 0.000000
# 5 0.000000 0.000000 0.000000 0.000000 -0.607432 0.000000
# 6 0.000000 0.000000 0.000000 0.000000 0.000000 0.128722
#
#
# Mechanical properties :
#
#
# Convention : Reuss Voigt Hill
#
# Bulk Modulus (GPa) = 95.63076 109.45396 102.54236
# Shear Modulus (GPa) = -12.32869 30.85273 9.26202
#
# Velocity S-wave (km/s) = -2.39899 3.79505 2.07933
# Velocity P-wave (km/s) = 6.08012 8.38436 7.32343
#
# Compressibility (1/GPa) = 0.01045689
#
# Stress axis : x y z
#
# Youngs Moduli (GPa) = 134.51712 170.31315 121.40219
#
# Poissons Ratio (x) = 0.55996 0.13447
# Poissons Ratio (y) = 0.44227 0.13930
# Poissons Ratio (z) = 0.14900 0.19542
#
# Static dielectric constant tensor:
#      x y z
#    x 1.718510 0.000000 0.000000 
#    y 0.000000 1.735120 0.000000 
#    z 0.000000 0.000000 1.780690 
# 
# From -- ./inp_files/30763.got.cif
#   From: 2010.05.17/outbox.cif.g08.bks.cpg/sg63_16_cif.got.tgz:30763.got - 2010.06.03 15:47:04.
