data_PCOD9475342
_publ_section_title
;
Structure prediction by ZEFSAII (Michael W. Deem and Ramdas Pophale) SiO2 
 PCOD9475342
Probable space group: C M C M
;
_chemical_formula_sum "Si O2"
_cell_formula_units_Z 64
_cell_length_a 30.103701
_cell_length_b 5.010436
_cell_length_c 18.435284
_cell_angle_alpha 90.000000
_cell_angle_beta 90.000000
_cell_angle_gamma 90.000000
_cell_volume 2780.643057
_symmetry_space_group_name_H-M "C M C M"
_symmetry_group_IT_number 63
_symmetry_cell_setting 'orthorhombic'
loop_
_space_group_symop_operation_xyz
x,y,z
-x,-y,1/2+z
x,-y,-z
-x,y,1/2-z
-x,-y,-z
x,y,1/2-z
-x,y,z
x,-y,1/2+z
1/2+x,1/2+y,z
1/2-x,1/2-y,1/2+z
1/2+x,1/2-y,-z
1/2-x,1/2+y,1/2-z
1/2-x,1/2-y,-z
1/2+x,1/2+y,1/2-z
1/2-x,1/2+y,z
1/2+x,1/2-y,1/2+z
loop_
_atom_site_type_symbol
_atom_site_label
_atom_site_fract_x
_atom_site_fract_y
_atom_site_fract_z
Si Si1 0.412357 0.743132 0.550534
Si Si2 0.717470 0.107596 0.574410
Si Si3 0.365264 0.033479 0.666852
Si Si4 0.048321 0.084034 0.168172
O O1 0.398661 0.500000 0.500000
O O2 0.450442 0.629682 0.603476
O O3 0.422081 0.000000 0.500000
O O4 0.375284 0.801028 0.610278
O O5 0.744099 0.383875 0.577080
O O6 0.681358 0.137950 0.637502
O O7 0.693751 0.000000 0.500000
O O8 0.361935 0.950821 0.750000
O O9 0.408736 0.224969 0.660412
O O10 0.051320 0.966060 0.250000
O O11 0.000000 0.223907 0.164368
#
# Coordination Sequence:
#
# PCOD9475342 Si02
#       4
#    16  16  16  16
#     4  12  25  45  71 102 140 191 242 299 355 420
#     4  10  24  44  71 104 141 184 233 292 363 432
#     4  11  25  46  75 106 146 193 242 296 363 432
#     4  10  24  47  73 106 149 195 242 295 361 433
#
# _framework density 23.016258000000001
#
# number of rings (size 3 to 8) (size 9 to 14) (size 15 to 20)
#    0.000    1.250    2.500    1.500    3.500    4.000 
#    0.000    2.500    0.000    0.000    0.000    0.000 
#    0.000    0.000    0.000    0.000    0.000    0.000 
#
# Total GULP energy -178491.544682 kJ/mol
# GULP energy per Si atom -5577.860771 kJ/mol
# Density = 2.296387 g / cm^3
# Si number density = 23.016258 Si / 1000 Ang^3
#
#
#
# Elastic Constant Matrix: (Units=GPa)
#
#
# Indices 1 2 3 4 5 6 
#
# 1 103.8710 20.5172 62.2643 0.0000 0.0000 0.0000
# 2 20.5172 102.7242 62.4312 0.0000 0.0000 0.0000
# 3 62.2643 62.4312 213.9654 0.0000 0.0000 0.0000
# 4 0.0000 0.0000 0.0000 -78.4508 0.0000 0.0000
# 5 0.0000 0.0000 0.0000 0.0000 47.3449 0.0000
# 6 0.0000 0.0000 0.0000 0.0000 0.0000 20.1003
#
#
#
# Elastic Compliance Matrix: (Units=1/GPa)
#
#
# Indices 1 2 3 4 5 6 
#
# 1 0.011670 -0.000324 -0.003301 0.000000 0.000000 0.000000
# 2 -0.000324 0.011842 -0.003361 0.000000 0.000000 0.000000
# 3 -0.003301 -0.003361 0.006615 0.000000 0.000000 0.000000
# 4 0.000000 0.000000 0.000000 -0.012747 0.000000 0.000000
# 5 0.000000 0.000000 0.000000 0.000000 0.021122 0.000000
# 6 0.000000 0.000000 0.000000 0.000000 0.000000 0.049750
#
#
# Mechanical properties :
#
#
# Convention : Reuss Voigt Hill
#
# Bulk Modulus (GPa) = 61.90411 78.99844 70.45128
# Shear Modulus (GPa) = 46.46357 16.15542 31.30949
#
# Velocity S-wave (km/s) = 4.49790 2.65224 3.69225
# Velocity P-wave (km/s) = 7.34364 6.61639 6.98948
#
# Compressibility (1/GPa) = 0.01615402
#
# Stress axis : x y z
#
# Youngs Moduli (GPa) = 85.68663 84.44355 151.17079
#
# Poissons Ratio (x) = 0.02740 0.49908
# Poissons Ratio (y) = 0.02780 0.50807
# Poissons Ratio (z) = 0.28289 0.28381
#
# Static dielectric constant tensor:
#      x y z
#    x 1.920390 0.000000 0.000000 
#    y 0.000000 1.926620 0.000000 
#    z 0.000000 0.000000 1.924570 
# 
# From -- ./inp_files/49321.got.cif
#   From: 2010.05.17/outbox.cif.g08.bks.cpg/sg63_25_cif.got.tgz:49321.got - 2010.06.03 15:47:04.
