data_PCOD9475755
_publ_section_title
;
Structure prediction by ZEFSAII (Michael W. Deem and Ramdas Pophale) SiO2 
 PCOD9475755
Probable space group: C M C M
;
_chemical_formula_sum "Si O2"
_cell_formula_units_Z 68
_cell_length_a 7.536060
_cell_length_b 23.952830
_cell_length_c 17.839427
_cell_angle_alpha 90.000000
_cell_angle_beta 90.000000
_cell_angle_gamma 90.000000
_cell_volume 3220.194326
_symmetry_space_group_name_H-M "C M C M"
_symmetry_group_IT_number 63
_symmetry_cell_setting 'orthorhombic'
loop_
_space_group_symop_operation_xyz
x,y,z
-x,-y,1/2+z
x,-y,-z
-x,y,1/2-z
-x,-y,-z
x,y,1/2-z
-x,y,z
x,-y,1/2+z
1/2+x,1/2+y,z
1/2-x,1/2-y,1/2+z
1/2+x,1/2-y,-z
1/2-x,1/2+y,1/2-z
1/2-x,1/2-y,-z
1/2+x,1/2+y,1/2-z
1/2-x,1/2+y,z
1/2+x,1/2-y,1/2+z
loop_
_atom_site_type_symbol
_atom_site_label
_atom_site_fract_x
_atom_site_fract_y
_atom_site_fract_z
Si Si1 0.294606 0.884489 0.373654
Si Si2 0.211974 0.814102 0.982436
Si Si3 0.000000 0.144521 0.750000
Si Si4 0.293410 0.369066 0.834194
Si Si5 0.287736 0.005555 0.336246
O O1 0.500000 0.883577 0.346322
O O2 0.286946 0.852781 0.452097
O O3 0.156701 0.858147 0.315520
O O4 0.242151 0.950011 0.381430
O O5 0.283194 0.832011 0.900748
O O6 0.000000 0.822425 0.982092
O O7 0.250000 0.750000 0.000000
O O8 0.215435 0.364519 0.750000
O O9 0.500000 0.353848 0.827605
O O10 0.284880 0.434144 0.857635
O O11 0.230110 0.994421 0.250000
O O12 0.500000 0.011463 0.337030
#
# Coordination Sequence:
#
# PCOD9475755 Si02
#       5
#    16  16   4  16  16
#     4  11  23  40  65  99 134 170 212 264 322 387
#     4  11  24  44  63  89 127 172 221 278 329 377
#     4  12  22  40  68 100 134 168 218 254 328 386
#     4   9  20  38  63  90 123 167 213 260 323 390
#     4   9  18  33  57  91 130 164 202 254 314 381
#
# _framework density 21.116738000000002
#
# number of rings (size 3 to 8) (size 9 to 14) (size 15 to 20)
#    0.000    1.882    2.353    1.059    1.647    2.824 
#    2.118    4.706    0.000    0.000    0.000    0.000 
#    0.000    0.000    0.000    0.000    0.000    0.000 
#
# Total GULP energy -189284.823443 kJ/mol
# GULP energy per Si atom -5567.200689 kJ/mol
# Density = 2.106867 g / cm^3
# Si number density = 21.116738 Si / 1000 Ang^3
#
#
#
# Elastic Constant Matrix: (Units=GPa)
#
#
# Indices 1 2 3 4 5 6 
#
# 1 104.0069 -5.9890 24.8965 0.0000 0.0000 0.0000
# 2 -5.9890 125.6475 90.8018 0.0000 0.0000 0.0000
# 3 24.8965 90.8018 147.7769 0.0000 0.0000 0.0000
# 4 0.0000 0.0000 0.0000 205.9267 0.0000 0.0000
# 5 0.0000 0.0000 0.0000 0.0000 16.5096 0.0000
# 6 0.0000 0.0000 0.0000 0.0000 0.0000 20.9802
#
#
#
# Elastic Compliance Matrix: (Units=1/GPa)
#
#
# Indices 1 2 3 4 5 6 
#
# 1 0.010715 0.003265 -0.003812 0.000000 0.000000 0.000000
# 2 0.003265 0.015311 -0.009958 0.000000 0.000000 0.000000
# 3 -0.003812 -0.009958 0.013528 0.000000 0.000000 0.000000
# 4 0.000000 0.000000 0.000000 0.004856 0.000000 0.000000
# 5 0.000000 0.000000 0.000000 0.000000 0.060571 0.000000
# 6 0.000000 0.000000 0.000000 0.000000 0.000000 0.047664
#
#
# Mechanical properties :
#
#
# Convention : Reuss Voigt Hill
#
# Bulk Modulus (GPa) = 53.92202 66.31664 60.11933
# Shear Modulus (GPa) = 27.80345 66.53146 47.16745
#
# Velocity S-wave (km/s) = 3.63251 5.61915 4.73128
# Velocity P-wave (km/s) = 6.57146 8.57746 7.64058
#
# Compressibility (1/GPa) = 0.01854530
#
# Stress axis : x y z
#
# Youngs Moduli (GPa) = 93.32584 65.31451 73.92283
#
# Poissons Ratio (x) = -0.21327 0.28176
# Poissons Ratio (y) = -0.30473 0.73610
# Poissons Ratio (z) = 0.35572 0.65038
#
# Static dielectric constant tensor:
#      x y z
#    x 1.777830 0.000000 0.000000 
#    y 0.000000 1.745820 0.000000 
#    z 0.000000 0.000000 1.773950 
# 
# From -- ./inp_files/27782.got.cif
#   From: 2010.05.17/outbox.cif.g08.bks.cpg/sg63_14_cif.got.tgz:27782.got - 2010.06.03 15:47:04.
