data_PCOD9475185
_publ_section_title
;
Structure prediction by ZEFSAII (Michael W. Deem and Ramdas Pophale) SiO2 
 PCOD9475185
Probable space group: C M C M
;
_chemical_formula_sum "Si O2"
_cell_formula_units_Z 72
_cell_length_a 21.793729
_cell_length_b 16.720668
_cell_length_c 9.238199
_cell_angle_alpha 90.000000
_cell_angle_beta 90.000000
_cell_angle_gamma 90.000000
_cell_volume 3366.452439
_symmetry_space_group_name_H-M "C M C M"
_symmetry_group_IT_number 63
_symmetry_cell_setting 'orthorhombic'
loop_
_space_group_symop_operation_xyz
x,y,z
-x,-y,1/2+z
x,-y,-z
-x,y,1/2-z
-x,-y,-z
x,y,1/2-z
-x,y,z
x,-y,1/2+z
1/2+x,1/2+y,z
1/2-x,1/2-y,1/2+z
1/2+x,1/2-y,-z
1/2-x,1/2+y,1/2-z
1/2-x,1/2-y,-z
1/2+x,1/2+y,1/2-z
1/2-x,1/2+y,z
1/2+x,1/2-y,1/2+z
loop_
_atom_site_type_symbol
_atom_site_label
_atom_site_fract_x
_atom_site_fract_y
_atom_site_fract_z
Si Si1 0.819084 0.077540 0.750000
Si Si2 0.359352 0.000000 0.500000
Si Si3 0.157788 0.703781 0.250000
Si Si4 0.146670 0.824044 0.997119
Si Si5 0.727826 0.395029 0.750000
Si Si6 0.315513 0.112092 0.750000
Si Si7 0.426802 0.755017 0.250000
Si Si8 0.069623 0.413756 0.750000
O O1 0.858382 0.102248 0.609568
O O2 0.756668 0.132909 0.750000
O O3 0.794689 0.986674 0.750000
O O4 0.322366 0.941277 0.394901
O O5 0.401568 0.949791 0.606255
O O6 0.166095 0.751572 0.398222
O O7 0.200348 0.624951 0.250000
O O8 0.086770 0.678719 0.250000
O O9 0.199585 0.850613 0.887754
O O10 0.090799 0.796445 0.893646
O O11 0.372911 0.174920 0.750000
O O12 0.500000 0.777761 0.250000
O O13 0.000000 0.432619 0.750000
#
# Coordination Sequence:
#
# PCOD9475185 Si02
#       8
#     8   8   8  16   8   8   8   8
#     4  11  25  39  66 102 138 165 217 270 338 408
#     4  10  23  40  54  92 136 180 223 258 322 382
#     4  11  23  38  60  95 134 172 215 270 328 384
#     4  10  25  41  65  96 134 170 218 273 327 388
#     4  11  22  40  66  94 137 173 210 263 337 407
#     4  11  25  38  66  97 140 179 213 265 329 401
#     4  11  26  47  69  93 127 180 233 274 326 391
#     4  11  23  38  59  83 126 179 232 272 312 375
#
# _framework density 21.387501
#
# number of rings (size 3 to 8) (size 9 to 14) (size 15 to 20)
#    0.000    1.333    0.000    4.333   15.556    5.333 
#    0.000    1.667    0.000   10.667    0.000    1.556 
#    0.000    0.000    0.000    0.000    0.000    0.000 
#
# Total GULP energy -200899.852546 kJ/mol
# GULP energy per Si atom -5580.551460 kJ/mol
# Density = 2.133882 g / cm^3
# Si number density = 21.387501 Si / 1000 Ang^3
#
#
#
# Elastic Constant Matrix: (Units=GPa)
#
#
# Indices 1 2 3 4 5 6 
#
# 1 74.0699 23.4478 37.1563 0.0000 0.0000 0.0000
# 2 23.4478 77.1628 46.9334 0.0000 0.0000 0.0000
# 3 37.1563 46.9334 175.0669 0.0000 0.0000 0.0000
# 4 0.0000 0.0000 0.0000-1825.7428 0.0000 0.0000
# 5 0.0000 0.0000 0.0000 0.0000 53.6920 0.0000
# 6 0.0000 0.0000 0.0000 0.0000 0.0000 -2.4659
#
#
#
# Elastic Compliance Matrix: (Units=1/GPa)
#
#
# Indices 1 2 3 4 5 6 
#
# 1 0.015781 -0.003296 -0.002466 0.000000 0.000000 0.000000
# 2 -0.003296 0.016173 -0.003636 0.000000 0.000000 0.000000
# 3 -0.002466 -0.003636 0.007210 0.000000 0.000000 0.000000
# 4 0.000000 0.000000 0.000000 -0.000548 0.000000 0.000000
# 5 0.000000 0.000000 0.000000 0.000000 0.018625 0.000000
# 6 0.000000 0.000000 0.000000 0.000000 0.000000 -0.405537
#
#
# Mechanical properties :
#
#
# Convention : Reuss Voigt Hill
#
# Bulk Modulus (GPa) = 49.09517 60.15273 54.62395
# Shear Modulus (GPa) = -15.49375 -340.31921 -177.90648
#
# Velocity S-wave (km/s) = -2.69444 -12.62799 -9.13034
# Velocity P-wave (km/s) = 3.65032 13.58069 9.24960
#
# Compressibility (1/GPa) = 0.02036860
#
# Stress axis : x y z
#
# Youngs Moduli (GPa) = 63.36734 61.83223 138.69047
#
# Poissons Ratio (x) = 0.20378 0.34199
# Poissons Ratio (y) = 0.20883 0.50432
# Poissons Ratio (z) = 0.15625 0.22484
#
# Static dielectric constant tensor:
#      x y z
#    x 1.724660 0.000000 0.000000 
#    y 0.000000 1.866510 0.000000 
#    z 0.000000 0.000000 1.782380 
# 
# From -- ./inp_files/7950.got.cif
#   From: 2010.05.17/outbox.cif.g08.bks.cpg/sg63_4_cif.got.tgz:7950.got - 2010.06.03 15:47:04.
