data_PCOD9475472
_publ_section_title
;
Structure prediction by ZEFSAII (Michael W. Deem and Ramdas Pophale) SiO2 
 PCOD9475472
Probable space group: C M C M
;
_chemical_formula_sum "Si O2"
_cell_formula_units_Z 88
_cell_length_a 17.889215
_cell_length_b 15.873658
_cell_length_c 17.265266
_cell_angle_alpha 90.000000
_cell_angle_beta 90.000000
_cell_angle_gamma 90.000000
_cell_volume 4902.770638
_symmetry_space_group_name_H-M "C M C M"
_symmetry_group_IT_number 63
_symmetry_cell_setting 'orthorhombic'
loop_
_space_group_symop_operation_xyz
x,y,z
-x,-y,1/2+z
x,-y,-z
-x,y,1/2-z
-x,-y,-z
x,y,1/2-z
-x,y,z
x,-y,1/2+z
1/2+x,1/2+y,z
1/2-x,1/2-y,1/2+z
1/2+x,1/2-y,-z
1/2-x,1/2+y,1/2-z
1/2-x,1/2-y,-z
1/2+x,1/2+y,1/2-z
1/2-x,1/2+y,z
1/2+x,1/2-y,1/2+z
loop_
_atom_site_type_symbol
_atom_site_label
_atom_site_fract_x
_atom_site_fract_y
_atom_site_fract_z
Si Si1 0.336259 0.000000 0.500000
Si Si2 0.647448 0.683119 0.944545
Si Si3 0.705346 0.581012 0.093200
Si Si4 0.916839 0.953458 0.158647
Si Si5 0.785989 0.739336 0.839174
Si Si6 0.411526 0.171185 0.553056
O O1 0.281244 0.035088 0.432751
O O2 0.384910 0.077556 0.531061
O O3 0.592453 0.632566 0.888828
O O4 0.720989 0.704758 0.895060
O O5 0.671892 0.622258 0.014838
O O6 0.612770 0.765965 0.983402
O O7 0.646729 0.515960 0.128494
O O8 0.716129 0.659748 0.150188
O O9 0.907951 0.938863 0.250000
O O10 0.000000 0.988934 0.145082
O O11 0.775133 0.715761 0.750000
O O12 0.863572 0.703952 0.873646
O O13 0.500000 0.175615 0.565415
#
# Coordination Sequence:
#
# PCOD9475472 Si02
#       6
#     8  16  16  16  16  16
#     4  12  19  40  61  86 116 148 204 252 279 344
#     4  11  20  39  61  84 115 156 206 241 285 355
#     4  11  20  37  61  87 115 153 202 244 287 357
#     4  11  23  36  54  87 126 157 189 243 312 362
#     4  11  22  39  63  88 119 154 197 249 298 353
#     4  11  23  38  62  91 119 156 200 247 299 350
#
# _framework density 17.949034000000001
#
# number of rings (size 3 to 8) (size 9 to 14) (size 15 to 20)
#    0.000    0.909    5.455    3.000    0.000    4.727 
#    0.000    0.909    0.000    0.000    0.000    0.000 
#    0.000    0.000    0.000    0.000    0.000    0.000 
#
# Total GULP energy -245865.910276 kJ/mol
# GULP energy per Si atom -5587.861597 kJ/mol
# Density = 1.790818 g / cm^3
# Si number density = 17.949034 Si / 1000 Ang^3
#
#
#
# Elastic Constant Matrix: (Units=GPa)
#
#
# Indices 1 2 3 4 5 6 
#
# 1 96.1717 10.2453 22.6270 0.0000 0.0000 0.0000
# 2 10.2453 75.7701 18.7528 0.0000 0.0000 0.0000
# 3 22.6270 18.7528 82.4163 0.0000 0.0000 0.0000
# 4 0.0000 0.0000 0.0000 18.9946 0.0000 0.0000
# 5 0.0000 0.0000 0.0000 0.0000 23.6665 0.0000
# 6 0.0000 0.0000 0.0000 0.0000 0.0000 17.4209
#
#
#
# Elastic Compliance Matrix: (Units=1/GPa)
#
#
# Indices 1 2 3 4 5 6 
#
# 1 0.011161 -0.000796 -0.002883 0.000000 0.000000 0.000000
# 2 -0.000796 0.014042 -0.002977 0.000000 0.000000 0.000000
# 3 -0.002883 -0.002977 0.013602 0.000000 0.000000 0.000000
# 4 0.000000 0.000000 0.000000 0.052647 0.000000 0.000000
# 5 0.000000 0.000000 0.000000 0.000000 0.042254 0.000000
# 6 0.000000 0.000000 0.000000 0.000000 0.000000 0.057402
#
#
# Mechanical properties :
#
#
# Convention : Reuss Voigt Hill
#
# Bulk Modulus (GPa) = 39.22380 39.73425 39.47903
# Shear Modulus (GPa) = 23.48328 25.53194 24.50761
#
# Velocity S-wave (km/s) = 3.62101 3.77565 3.69914
# Velocity P-wave (km/s) = 6.27556 6.41816 6.34726
#
# Compressibility (1/GPa) = 0.02549472
#
# Stress axis : x y z
#
# Youngs Moduli (GPa) = 89.59621 71.21436 73.51642
#
# Poissons Ratio (x) = 0.05666 0.21196
# Poissons Ratio (y) = 0.07128 0.21884
# Poissons Ratio (z) = 0.25833 0.21198
#
# Static dielectric constant tensor:
#      x y z
#    x 1.603890 0.000000 0.000000 
#    y 0.000000 1.625680 0.000000 
#    z 0.000000 0.000000 1.599830 
# 
# From -- ./inp_files/45534.got.cif
#   From: 2010.05.17/outbox.cif.g08.bks.cpg/sg63_23_cif.got.tgz:45534.got - 2010.06.03 15:47:04.
