data_PCOD9475261
_publ_section_title
;
Structure prediction by ZEFSAII (Michael W. Deem and Ramdas Pophale) SiO2 
 PCOD9475261
Probable space group: C M C M
;
_chemical_formula_sum "Si O2"
_cell_formula_units_Z 52
_cell_length_a 17.601969
_cell_length_b 8.852231
_cell_length_c 17.041969
_cell_angle_alpha 90.000000
_cell_angle_beta 90.000000
_cell_angle_gamma 90.000000
_cell_volume 2655.423297
_symmetry_space_group_name_H-M "C M C M"
_symmetry_group_IT_number 63
_symmetry_cell_setting 'orthorhombic'
loop_
_space_group_symop_operation_xyz
x,y,z
-x,-y,1/2+z
x,-y,-z
-x,y,1/2-z
-x,-y,-z
x,y,1/2-z
-x,y,z
x,-y,1/2+z
1/2+x,1/2+y,z
1/2-x,1/2-y,1/2+z
1/2+x,1/2-y,-z
1/2-x,1/2+y,1/2-z
1/2-x,1/2-y,-z
1/2+x,1/2+y,1/2-z
1/2-x,1/2+y,z
1/2+x,1/2-y,1/2+z
loop_
_atom_site_type_symbol
_atom_site_label
_atom_site_fract_x
_atom_site_fract_y
_atom_site_fract_z
Si Si1 0.500000 0.881191 0.424744
Si Si2 0.411913 0.305948 0.250000
Si Si3 0.805584 0.883067 0.104720
Si Si4 0.338983 0.270034 0.937449
Si Si5 0.500000 0.981175 0.750000
O O1 0.574861 0.779063 0.428470
O O2 0.500000 0.944999 0.335806
O O3 0.500000 0.000000 0.500000
O O4 0.500000 0.368618 0.250000
O O5 0.361554 0.347872 0.175537
O O6 0.426894 0.127978 0.250000
O O7 0.716255 0.843288 0.110144
O O8 0.818825 0.059242 0.087233
O O9 0.826408 0.775324 0.031237
#
# Coordination Sequence:
#
# PCOD9475261 Si02
#       5
#     8   8  16  16   4
#     4  12  26  42  70  98 140 178 224 282 334 398
#     4  10  24  40  68  96 138 172 218 278 338 392
#     4  10  23  43  67  99 133 172 226 272 340 397
#     4  10  25  42  71  95 133 177 224 273 336 401
#     4  10  26  40  64 102 134 168 230 266 342 400
#
# _framework density 19.582564999999999
#
# number of rings (size 3 to 8) (size 9 to 14) (size 15 to 20)
#    0.462    1.231    0.000    1.846   17.231    4.923 
#    0.000    0.000    0.000    0.000    0.000    0.000 
#    0.000    0.000    0.000    0.000    0.000    0.000 
#
# Total GULP energy -144791.327207 kJ/mol
# GULP energy per Si atom -5568.897200 kJ/mol
# Density = 1.953799 g / cm^3
# Si number density = 19.582565 Si / 1000 Ang^3
#
#
#
# Elastic Constant Matrix: (Units=GPa)
#
#
# Indices 1 2 3 4 5 6 
#
# 1 208.2564 65.7435 58.8682 0.0000 0.0000 0.0000
# 2 65.7435 78.3583 32.7689 0.0000 0.0000 0.0000
# 3 58.8682 32.7689 126.4535 0.0000 0.0000 0.0000
# 4 0.0000 0.0000 0.0000 24.1677 0.0000 0.0000
# 5 0.0000 0.0000 0.0000 0.0000 22.5993 0.0000
# 6 0.0000 0.0000 0.0000 0.0000 0.0000 40.5625
#
#
#
# Elastic Compliance Matrix: (Units=1/GPa)
#
#
# Indices 1 2 3 4 5 6 
#
# 1 0.006927 -0.005006 -0.001928 0.000000 0.000000 0.000000
# 2 -0.005006 0.017930 -0.002316 0.000000 0.000000 0.000000
# 3 -0.001928 -0.002316 0.009406 0.000000 0.000000 0.000000
# 4 0.000000 0.000000 0.000000 0.041378 0.000000 0.000000
# 5 0.000000 0.000000 0.000000 0.000000 0.044249 0.000000
# 6 0.000000 0.000000 0.000000 0.000000 0.000000 0.024653
#
#
# Mechanical properties :
#
#
# Convention : Reuss Voigt Hill
#
# Bulk Modulus (GPa) = 63.43522 80.86995 72.15258
# Shear Modulus (GPa) = 29.70959 34.51175 32.11067
#
# Velocity S-wave (km/s) = 3.89928 4.20261 4.05379
# Velocity P-wave (km/s) = 7.26199 8.05828 7.67048
#
# Compressibility (1/GPa) = 0.01576411
#
# Stress axis : x y z
#
# Youngs Moduli (GPa) = 144.36625 55.77165 106.32004
#
# Poissons Ratio (x) = 0.27917 0.20493
# Poissons Ratio (y) = 0.72264 0.24625
# Poissons Ratio (z) = 0.27827 0.12917
#
# Static dielectric constant tensor:
#      x y z
#    x 1.738490 0.000000 0.000000 
#    y 0.000000 1.680370 0.000000 
#    z 0.000000 0.000000 1.772750 
# 
# From -- ./inp_files/44916.got.cif
#   From: 2010.05.17/outbox.cif.g08.bks.cpg/sg63_23_cif.got.tgz:44916.got - 2010.06.03 15:47:04.
