data_PCOD9475788
_publ_section_title
;
Structure prediction by ZEFSAII (Michael W. Deem and Ramdas Pophale) SiO2 
 PCOD9475788
Probable space group: C M C M
;
_chemical_formula_sum "Si O2"
_cell_formula_units_Z 64
_cell_length_a 17.091163
_cell_length_b 11.445180
_cell_length_c 14.411440
_cell_angle_alpha 90.000000
_cell_angle_beta 90.000000
_cell_angle_gamma 90.000000
_cell_volume 2819.042487
_symmetry_space_group_name_H-M "C M C M"
_symmetry_group_IT_number 63
_symmetry_cell_setting 'orthorhombic'
loop_
_space_group_symop_operation_xyz
x,y,z
-x,-y,1/2+z
x,-y,-z
-x,y,1/2-z
-x,-y,-z
x,y,1/2-z
-x,y,z
x,-y,1/2+z
1/2+x,1/2+y,z
1/2-x,1/2-y,1/2+z
1/2+x,1/2-y,-z
1/2-x,1/2+y,1/2-z
1/2-x,1/2-y,-z
1/2+x,1/2+y,1/2-z
1/2-x,1/2+y,z
1/2+x,1/2-y,1/2+z
loop_
_atom_site_type_symbol
_atom_site_label
_atom_site_fract_x
_atom_site_fract_y
_atom_site_fract_z
Si Si1 0.604192 0.249247 0.250000
Si Si2 0.000000 0.475087 0.750000
Si Si3 0.735126 0.408461 0.566581
Si Si4 0.500000 0.823739 0.404488
Si Si5 0.624013 0.257829 0.452004
Si Si6 0.000000 0.117203 0.250000
Si Si7 0.833481 0.983981 0.250000
O O1 0.579569 0.282917 0.356138
O O2 0.675590 0.343772 0.250000
O O3 0.575751 0.112629 0.250000
O O4 0.000000 0.561816 0.838999
O O5 0.776660 0.500000 0.500000
O O6 0.659272 0.365039 0.509803
O O7 0.797959 0.308247 0.582171
O O8 0.708453 0.464656 0.660846
O O9 0.573367 0.814380 0.474251
O O10 0.500000 0.707929 0.337703
O O11 0.077202 0.034638 0.250000
#
# Coordination Sequence:
#
# PCOD9475788 Si02
#       7
#     8   4  16   8  16   4   8
#     4  12  25  44  65 107 142 186 236 300 354 429
#     4  11  29  46  66 110 143 189 244 298 376 423
#     4  11  24  45  70 105 143 191 236 295 367 427
#     4  11  25  49  74 100 146 188 247 294 367 438
#     4  11  25  45  73 104 144 190 241 298 362 435
#     4  11  23  42  74 108 133 197 230 302 354 427
#     4  12  23  46  73 108 151 182 246 296 360 436
#
# _framework density 22.702743000000002
#
# number of rings (size 3 to 8) (size 9 to 14) (size 15 to 20)
#    0.000    0.750    5.000    1.875    3.500    1.000 
#    0.000    2.500    0.000    0.000    0.000    0.000 
#    0.000    0.000    0.000    0.000    0.000    0.000 
#
# Total GULP energy -178175.443995 kJ/mol
# GULP energy per Si atom -5567.982625 kJ/mol
# Density = 2.265107 g / cm^3
# Si number density = 22.702743 Si / 1000 Ang^3
#
#
#
# Elastic Constant Matrix: (Units=GPa)
#
#
# Indices 1 2 3 4 5 6 
#
# 1 72.7226 29.1685 49.0339 0.0000 0.0000 0.0000
# 2 29.1685 122.0980 65.7785 0.0000 0.0000 0.0000
# 3 49.0339 65.7785 209.9750 0.0000 0.0000 0.0000
# 4 0.0000 0.0000 0.0000 51.7684 0.0000 0.0000
# 5 0.0000 0.0000 0.0000 0.0000 17.0143 0.0000
# 6 0.0000 0.0000 0.0000 0.0000 0.0000 25.3700
#
#
#
# Elastic Compliance Matrix: (Units=1/GPa)
#
#
# Indices 1 2 3 4 5 6 
#
# 1 0.016837 -0.002291 -0.003214 0.000000 0.000000 0.000000
# 2 -0.002291 0.010165 -0.002649 0.000000 0.000000 0.000000
# 3 -0.003214 -0.002649 0.006343 0.000000 0.000000 0.000000
# 4 0.000000 0.000000 0.000000 0.019317 0.000000 0.000000
# 5 0.000000 0.000000 0.000000 0.000000 0.058774 0.000000
# 6 0.000000 0.000000 0.000000 0.000000 0.000000 0.039417
#
#
# Mechanical properties :
#
#
# Convention : Reuss Voigt Hill
#
# Bulk Modulus (GPa) = 58.69864 76.97303 67.83583
# Shear Modulus (GPa) = 28.92866 36.21820 32.57343
#
# Velocity S-wave (km/s) = 3.57352 3.99848 3.79196
# Velocity P-wave (km/s) = 6.55272 7.43609 7.00834
#
# Compressibility (1/GPa) = 0.01703617
#
# Stress axis : x y z
#
# Youngs Moduli (GPa) = 59.39360 98.38009 157.65358
#
# Poissons Ratio (x) = 0.22535 0.50673
# Poissons Ratio (y) = 0.13605 0.41768
# Poissons Ratio (z) = 0.19090 0.26064
#
# Static dielectric constant tensor:
#      x y z
#    x 1.946480 0.000000 0.000000 
#    y 0.000000 1.870700 0.000000 
#    z 0.000000 0.000000 1.854170 
# 
# From -- ./inp_files/33456.got.cif
#   From: 2010.05.17/outbox.cif.g08.bks.cpg/sg63_17_cif.got.tgz:33456.got - 2010.06.03 15:47:04.
