data_PCOD9475758
_publ_section_title
;
Structure prediction by ZEFSAII (Michael W. Deem and Ramdas Pophale) SiO2 
 PCOD9475758
Probable space group: C M C M
;
_chemical_formula_sum "Si O2"
_cell_formula_units_Z 64
_cell_length_a 15.547773
_cell_length_b 9.735367
_cell_length_c 22.589832
_cell_angle_alpha 90.000000
_cell_angle_beta 90.000000
_cell_angle_gamma 90.000000
_cell_volume 3419.270980
_symmetry_space_group_name_H-M "C M C M"
_symmetry_group_IT_number 63
_symmetry_cell_setting 'orthorhombic'
loop_
_space_group_symop_operation_xyz
x,y,z
-x,-y,1/2+z
x,-y,-z
-x,y,1/2-z
-x,-y,-z
x,y,1/2-z
-x,y,z
x,-y,1/2+z
1/2+x,1/2+y,z
1/2-x,1/2-y,1/2+z
1/2+x,1/2-y,-z
1/2-x,1/2+y,1/2-z
1/2-x,1/2-y,-z
1/2+x,1/2+y,1/2-z
1/2-x,1/2+y,z
1/2+x,1/2-y,1/2+z
loop_
_atom_site_type_symbol
_atom_site_label
_atom_site_fract_x
_atom_site_fract_y
_atom_site_fract_z
Si Si1 0.500000 0.107490 0.447586
Si Si2 0.599472 0.029533 0.250000
Si Si3 0.663009 0.700470 0.380900
Si Si4 0.170443 0.469083 0.623187
Si Si5 0.097874 0.802585 0.750000
Si Si6 0.500000 0.357413 0.965644
O O1 0.585153 0.079443 0.410257
O O2 0.500000 0.250685 0.480592
O O3 0.500000 0.000000 0.500000
O O4 0.500000 0.079425 0.250000
O O5 0.650996 0.068167 0.308536
O O6 0.594250 0.863627 0.250000
O O7 0.746300 0.612733 0.398546
O O8 0.640901 0.660689 0.312590
O O9 0.582804 0.666579 0.423495
O O10 0.678924 0.865412 0.382700
O O11 0.000000 0.854884 0.750000
O O12 0.500000 0.500000 0.000000
#
# Coordination Sequence:
#
# PCOD9475758 Si02
#       6
#     8   8  16  16   8   8
#     4  12  24  45  65  89 123 172 216 255 304 375
#     4   9  17  36  65  96 123 164 205 254 317 382
#     4  11  23  42  66  98 126 166 209 260 318 375
#     4  11  23  40  68  95 129 164 211 260 316 377
#     4   9  17  36  69  92 125 162 205 256 317 378
#     4  12  28  45  65  89 129 170 218 262 312 371
#
# _framework density 18.717438999999999
#
# number of rings (size 3 to 8) (size 9 to 14) (size 15 to 20)
#    0.000    1.250    5.000    0.750    3.500    2.000 
#    0.000    0.000    0.000    3.000    0.000    0.000 
#    0.000    0.000    0.000    0.000    0.000    0.000 
#
# Total GULP energy -178644.993639 kJ/mol
# GULP energy per Si atom -5582.656051 kJ/mol
# Density = 1.867484 g / cm^3
# Si number density = 18.717439 Si / 1000 Ang^3
#
#
#
# Elastic Constant Matrix: (Units=GPa)
#
#
# Indices 1 2 3 4 5 6 
#
# 1 184.9124 67.2090 61.3551 0.0000 0.0000 0.0000
# 2 67.2090 116.2532 54.9286 0.0000 0.0000 0.0000
# 3 61.3551 54.9286 112.3676 0.0000 0.0000 0.0000
# 4 0.0000 0.0000 0.0000 27.8559 0.0000 0.0000
# 5 0.0000 0.0000 0.0000 0.0000 -28.3542 0.0000
# 6 0.0000 0.0000 0.0000 0.0000 0.0000 22.9188
#
#
#
# Elastic Compliance Matrix: (Units=1/GPa)
#
#
# Indices 1 2 3 4 5 6 
#
# 1 0.007357 -0.003063 -0.002520 0.000000 0.000000 0.000000
# 2 -0.003063 0.012460 -0.004419 0.000000 0.000000 0.000000
# 3 -0.002520 -0.004419 0.012435 0.000000 0.000000 0.000000
# 4 0.000000 0.000000 0.000000 0.035899 0.000000 0.000000
# 5 0.000000 0.000000 0.000000 0.000000 -0.035268 0.000000
# 6 0.000000 0.000000 0.000000 0.000000 0.000000 0.043632
#
#
# Mechanical properties :
#
#
# Convention : Reuss Voigt Hill
#
# Bulk Modulus (GPa) = 81.63245 86.72428 84.17836
# Shear Modulus (GPa) = 49.70050 19.82014 34.76032
#
# Velocity S-wave (km/s) = 5.15856 3.25762 4.31409
# Velocity P-wave (km/s) = 8.89880 7.78354 8.35979
#
# Compressibility (1/GPa) = 0.01225003
#
# Stress axis : x y z
#
# Youngs Moduli (GPa) = 135.91849 80.25459 80.41575
#
# Poissons Ratio (x) = 0.24580 0.20266
# Poissons Ratio (y) = 0.41628 0.35533
# Poissons Ratio (z) = 0.34253 0.35462
#
# Static dielectric constant tensor:
#      x y z
#    x 1.710000 0.000000 0.000000 
#    y 0.000000 1.593800 0.000000 
#    z 0.000000 0.000000 1.664830 
# 
# From -- ./inp_files/62389.got.cif
#   From: 2010.05.17/outbox.cif.g08.bks.cpg/sg63_32_cif.got.tgz:62389.got - 2010.06.03 15:47:04.
