data_PCOD9475607
_publ_section_title
;
Structure prediction by ZEFSAII (Michael W. Deem and Ramdas Pophale) SiO2 
 PCOD9475607
Probable space group: C M C M
;
_chemical_formula_sum "Si O2"
_cell_formula_units_Z 80
_cell_length_a 8.875975
_cell_length_b 19.557507
_cell_length_c 26.035650
_cell_angle_alpha 90.000000
_cell_angle_beta 90.000000
_cell_angle_gamma 90.000000
_cell_volume 4519.579076
_symmetry_space_group_name_H-M "C M C M"
_symmetry_group_IT_number 63
_symmetry_cell_setting 'orthorhombic'
loop_
_space_group_symop_operation_xyz
x,y,z
-x,-y,1/2+z
x,-y,-z
-x,y,1/2-z
-x,-y,-z
x,y,1/2-z
-x,y,z
x,-y,1/2+z
1/2+x,1/2+y,z
1/2-x,1/2-y,1/2+z
1/2+x,1/2-y,-z
1/2-x,1/2+y,1/2-z
1/2-x,1/2-y,-z
1/2+x,1/2+y,1/2-z
1/2-x,1/2+y,z
1/2+x,1/2-y,1/2+z
loop_
_atom_site_type_symbol
_atom_site_label
_atom_site_fract_x
_atom_site_fract_y
_atom_site_fract_z
Si Si1 0.820103 0.555706 0.043204
Si Si2 0.181976 0.294481 0.654675
Si Si3 0.819805 0.956552 0.250000
Si Si4 0.816570 0.799169 0.250000
Si Si5 0.679093 0.703301 0.043952
Si Si6 0.179583 0.453495 0.660972
O O1 0.730271 0.625293 0.034561
O O2 0.787678 0.530755 0.101194
O O3 0.000000 0.570986 0.041621
O O4 0.786757 0.500000 0.000000
O O5 0.229412 0.242845 0.699407
O O6 0.256001 0.278119 0.600092
O O7 0.219399 0.373326 0.668758
O O8 0.000000 0.291806 0.649152
O O9 0.766251 0.877733 0.250000
O O10 0.761983 0.997228 0.299721
O O11 0.000000 0.955979 0.250000
O O12 0.000000 0.799092 0.250000
O O13 0.500000 0.709227 0.043780
O O14 0.750000 0.750000 0.000000
O O15 0.000000 0.459627 0.669078
#
# Coordination Sequence:
#
# PCOD9475607 Si02
#       6
#    16  16   8   8  16  16
#     4   9  19  37  59  82 108 139 178 222 269 322
#     4   9  18  37  60  77  99 138 185 223 261 314
#     4  11  22  33  49  77 110 137 168 216 266 313
#     4   9  19  35  55  79 106 137 174 220 272 319
#     4  11  22  36  55  81 112 144 181 223 269 320
#     4   9  18  34  56  77 100 136 176 213 258 315
#
# _framework density 17.700763999999999
#
# number of rings (size 3 to 8) (size 9 to 14) (size 15 to 20)
#    0.000    2.400    0.000    3.900    0.000    6.800 
#    0.000    6.500    0.000    0.000    0.000    0.000 
#    0.000    0.000    0.000    0.000    0.000    0.000 
#
# Total GULP energy -223257.069019 kJ/mol
# GULP energy per Si atom -5581.426725 kJ/mol
# Density = 1.766048 g / cm^3
# Si number density = 17.700764 Si / 1000 Ang^3
#
#
#
# Elastic Constant Matrix: (Units=GPa)
#
#
# Indices 1 2 3 4 5 6 
#
# 1 56.1001 58.6875 70.2994 0.0000 0.0000 0.0000
# 2 58.6875 129.3395 128.4910 0.0000 0.0000 0.0000
# 3 70.2994 128.4910 168.9805 0.0000 0.0000 0.0000
# 4 0.0000 0.0000 0.0000 37.7343 0.0000 0.0000
# 5 0.0000 0.0000 0.0000 0.0000 29.3845 0.0000
# 6 0.0000 0.0000 0.0000 0.0000 0.0000 26.2404
#
#
#
# Elastic Compliance Matrix: (Units=1/GPa)
#
#
# Indices 1 2 3 4 5 6 
#
# 1 0.038478 -0.006364 -0.011168 0.000000 0.000000 0.000000
# 2 -0.006364 0.032662 -0.022188 0.000000 0.000000 0.000000
# 3 -0.011168 -0.022188 0.027436 0.000000 0.000000 0.000000
# 4 0.000000 0.000000 0.000000 0.026501 0.000000 0.000000
# 5 0.000000 0.000000 0.000000 0.000000 0.034032 0.000000
# 6 0.000000 0.000000 0.000000 0.000000 0.000000 0.038109
#
#
# Mechanical properties :
#
#
# Convention : Reuss Voigt Hill
#
# Bulk Modulus (GPa) = 52.26207 96.59731 74.42969
# Shear Modulus (GPa) = 17.66551 25.13465 21.40008
#
# Velocity S-wave (km/s) = 3.16255 3.77234 3.48083
# Velocity P-wave (km/s) = 6.55172 8.58283 7.63512
#
# Compressibility (1/GPa) = 0.01913433
#
# Stress axis : x y z
#
# Youngs Moduli (GPa) = 25.98867 30.61674 36.44882
#
# Poissons Ratio (x) = 0.19485 0.40708
# Poissons Ratio (y) = 0.16540 0.80873
# Poissons Ratio (z) = 0.29025 0.67933
#
# Static dielectric constant tensor:
#      x y z
#    x 1.593620 0.000000 0.000000 
#    y 0.000000 1.584870 0.000000 
#    z 0.000000 0.000000 1.589310 
# 
# From -- ./inp_files/66678.got.cif
#   From: 2010.05.17/outbox.cif.g08.bks.cpg/sg63_34_cif.got.tgz:66678.got - 2010.06.03 15:47:04.
