data_PCOD9475116
_publ_section_title
;
Structure prediction by ZEFSAII (Michael W. Deem and Ramdas Pophale) SiO2 
 PCOD9475116
Probable space group: C M C M
;
_chemical_formula_sum "Si O2"
_cell_formula_units_Z 64
_cell_length_a 11.175515
_cell_length_b 14.235604
_cell_length_c 17.394107
_cell_angle_alpha 90.000000
_cell_angle_beta 90.000000
_cell_angle_gamma 90.000000
_cell_volume 2767.232066
_symmetry_space_group_name_H-M "C M C M"
_symmetry_group_IT_number 63
_symmetry_cell_setting 'orthorhombic'
loop_
_space_group_symop_operation_xyz
x,y,z
-x,-y,1/2+z
x,-y,-z
-x,y,1/2-z
-x,-y,-z
x,y,1/2-z
-x,y,z
x,-y,1/2+z
1/2+x,1/2+y,z
1/2-x,1/2-y,1/2+z
1/2+x,1/2-y,-z
1/2-x,1/2+y,1/2-z
1/2-x,1/2-y,-z
1/2+x,1/2+y,1/2-z
1/2-x,1/2+y,z
1/2+x,1/2-y,1/2+z
loop_
_atom_site_type_symbol
_atom_site_label
_atom_site_fract_x
_atom_site_fract_y
_atom_site_fract_z
Si Si1 0.128297 0.013897 0.591986
Si Si2 0.631578 0.796949 0.463632
Si Si3 0.130002 0.413384 0.604446
Si Si4 0.198251 0.792903 0.339911
O O1 0.133421 0.122695 0.615394
O O2 0.000000 0.974463 0.619357
O O3 0.130562 0.000000 0.500000
O O4 0.249073 0.967512 0.624347
O O5 0.500000 0.753392 0.474246
O O6 0.750000 0.750000 0.500000
O O7 0.628157 0.893004 0.512175
O O8 0.667573 0.798589 0.374958
O O9 0.142727 0.308885 0.640883
O O10 0.000000 0.453404 0.626284
O O11 0.192915 0.809468 0.250000
#
# Coordination Sequence:
#
# PCOD9475116 Si02
#       4
#    16  16  16  16
#     4  11  24  42  68 101 134 175 228 281 338 408
#     4   9  19  37  63  95 128 169 220 270 325 393
#     4  10  22  42  69  97 129 174 227 278 332 404
#     4  11  24  43  66  98 139 181 223 280 350 412
#
# _framework density 23.127803
#
# number of rings (size 3 to 8) (size 9 to 14) (size 15 to 20)
#    0.000    1.750    2.500    0.750    0.000   10.000 
#    0.000    0.000    0.000    0.000    0.000    0.000 
#    0.000    0.000    0.000    0.000    0.000    0.000 
#
# Total GULP energy -178527.819510 kJ/mol
# GULP energy per Si atom -5578.994360 kJ/mol
# Density = 2.307516 g / cm^3
# Si number density = 23.127803 Si / 1000 Ang^3
#
#
#
# Elastic Constant Matrix: (Units=GPa)
#
#
# Indices 1 2 3 4 5 6 
#
# 1 262.5100 70.2058 24.4128 0.0000 0.0000 0.0000
# 2 70.2058 101.1052 21.7833 0.0000 0.0000 0.0000
# 3 24.4128 21.7833 98.3751 0.0000 0.0000 0.0000
# 4 0.0000 0.0000 0.0000 14.2980 0.0000 0.0000
# 5 0.0000 0.0000 0.0000 0.0000 0.8712 0.0000
# 6 0.0000 0.0000 0.0000 0.0000 0.0000 22.9890
#
#
#
# Elastic Compliance Matrix: (Units=1/GPa)
#
#
# Indices 1 2 3 4 5 6 
#
# 1 0.004698 -0.003162 -0.000466 0.000000 0.000000 0.000000
# 2 -0.003162 0.012514 -0.001986 0.000000 0.000000 0.000000
# 3 -0.000466 -0.001986 0.010721 0.000000 0.000000 0.000000
# 4 0.000000 0.000000 0.000000 0.069940 0.000000 0.000000
# 5 0.000000 0.000000 0.000000 0.000000 1.147788 0.000000
# 6 0.000000 0.000000 0.000000 0.000000 0.000000 0.043499
#
#
# Mechanical properties :
#
#
# Convention : Reuss Voigt Hill
#
# Bulk Modulus (GPa) = 59.86275 77.19933 68.53104
# Shear Modulus (GPa) = 3.82861 30.67087 17.24974
#
# Velocity S-wave (km/s) = 1.28802 3.64558 2.73398
# Velocity P-wave (km/s) = 5.30581 7.15348 6.29777
#
# Compressibility (1/GPa) = 0.01670488
#
# Stress axis : x y z
#
# Youngs Moduli (GPa) = 212.83954 79.90804 93.27834
#
# Poissons Ratio (x) = 0.25268 0.04345
# Poissons Ratio (y) = 0.67303 0.18528
# Poissons Ratio (z) = 0.09913 0.15873
#
# Static dielectric constant tensor:
#      x y z
#    x 1.939900 0.000000 0.000000 
#    y 0.000000 1.933390 0.000000 
#    z 0.000000 0.000000 1.897480 
# 
# From -- ./inp_files/41496.got.cif
#   From: 2010.05.17/outbox.cif.g08.bks.cpg/sg63_21_cif.got.tgz:41496.got - 2010.06.03 15:47:04.
