data_PCOD9475639
_publ_section_title
;
Structure prediction by ZEFSAII (Michael W. Deem and Ramdas Pophale) SiO2 
 PCOD9475639
Probable space group: C M C M
;
_chemical_formula_sum "Si O2"
_cell_formula_units_Z 80
_cell_length_a 17.148408
_cell_length_b 11.806154
_cell_length_c 21.795996
_cell_angle_alpha 90.000000
_cell_angle_beta 90.000000
_cell_angle_gamma 90.000000
_cell_volume 4412.746420
_symmetry_space_group_name_H-M "C M C M"
_symmetry_group_IT_number 63
_symmetry_cell_setting 'orthorhombic'
loop_
_space_group_symop_operation_xyz
x,y,z
-x,-y,1/2+z
x,-y,-z
-x,y,1/2-z
-x,-y,-z
x,y,1/2-z
-x,y,z
x,-y,1/2+z
1/2+x,1/2+y,z
1/2-x,1/2-y,1/2+z
1/2+x,1/2-y,-z
1/2-x,1/2+y,1/2-z
1/2-x,1/2-y,-z
1/2+x,1/2+y,1/2-z
1/2-x,1/2+y,z
1/2+x,1/2-y,1/2+z
loop_
_atom_site_type_symbol
_atom_site_label
_atom_site_fract_x
_atom_site_fract_y
_atom_site_fract_z
Si Si1 0.343233 0.919677 0.056668
Si Si2 0.405959 0.968649 0.820245
Si Si3 0.839161 0.056319 0.580426
Si Si4 0.092105 0.168324 0.461692
Si Si5 0.589969 0.706876 0.677446
O O1 0.249771 0.928964 0.060134
O O2 0.371216 0.792107 0.044732
O O3 0.374369 0.959528 0.123038
O O4 0.370001 0.000000 0.000000
O O5 0.380311 0.997005 0.750000
O O6 0.500000 0.975606 0.820028
O O7 0.385847 0.837086 0.833158
O O8 0.891865 0.120727 0.529892
O O9 0.855576 0.118836 0.643531
O O10 0.865167 0.925609 0.580311
O O11 0.000000 0.171435 0.449278
O O12 0.590872 0.689408 0.750000
O O13 0.500000 0.693613 0.656454
#
# Coordination Sequence:
#
# PCOD9475639 Si02
#       5
#    16  16  16  16  16
#     4  12  24  37  61  90 122 154 201 250 299 355
#     4   9  20  39  61  86 119 157 196 243 299 357
#     4  11  22  37  59  82 122 156 190 245 307 350
#     4  11  23  39  59  86 117 158 198 238 295 357
#     4   9  18  35  61  86 110 151 204 245 287 357
#
# _framework density 18.129297999999999
#
# number of rings (size 3 to 8) (size 9 to 14) (size 15 to 20)
#    0.000    1.600    2.000    6.000    2.800    4.000 
#    0.000    1.000    0.000    3.600    0.000    0.000 
#    0.000    0.000    0.000    0.000    0.000    0.000 
#
# Total GULP energy -223254.529148 kJ/mol
# GULP energy per Si atom -5581.363229 kJ/mol
# Density = 1.808804 g / cm^3
# Si number density = 18.129298 Si / 1000 Ang^3
#
#
#
# Elastic Constant Matrix: (Units=GPa)
#
#
# Indices 1 2 3 4 5 6 
#
# 1 74.5832 54.5896 9.0315 0.0000 0.0000 0.0000
# 2 54.5896 156.5950 67.6960 0.0000 0.0000 0.0000
# 3 9.0315 67.6960 65.5375 0.0000 0.0000 0.0000
# 4 0.0000 0.0000 0.0000 24.4504 0.0000 0.0000
# 5 0.0000 0.0000 0.0000 0.0000 57.1884 0.0000
# 6 0.0000 0.0000 0.0000 0.0000 0.0000 16.7843
#
#
#
# Elastic Compliance Matrix: (Units=1/GPa)
#
#
# Indices 1 2 3 4 5 6 
#
# 1 0.020120 -0.010507 0.008080 0.000000 0.000000 0.000000
# 2 -0.010507 0.017025 -0.016138 0.000000 0.000000 0.000000
# 3 0.008080 -0.016138 0.030814 0.000000 0.000000 0.000000
# 4 0.000000 0.000000 0.000000 0.040899 0.000000 0.000000
# 5 0.000000 0.000000 0.000000 0.000000 0.017486 0.000000
# 6 0.000000 0.000000 0.000000 0.000000 0.000000 0.059579
#
#
# Mechanical properties :
#
#
# Convention : Reuss Voigt Hill
#
# Bulk Modulus (GPa) = 32.43582 62.14998 47.29290
# Shear Modulus (GPa) = 21.42897 30.71120 26.07009
#
# Velocity S-wave (km/s) = 3.44176 4.12030 3.79622
# Velocity P-wave (km/s) = 5.80728 7.54929 6.73485
#
# Compressibility (1/GPa) = 0.03083011
#
# Stress axis : x y z
#
# Youngs Moduli (GPa) = 49.70259 58.73712 32.45257
#
# Poissons Ratio (x) = 0.61715 -0.26223
# Poissons Ratio (y) = 0.52222 0.52371
# Poissons Ratio (z) = -0.40161 0.94789
#
# Static dielectric constant tensor:
#      x y z
#    x 1.630310 0.000000 0.000000 
#    y 0.000000 1.617630 0.000000 
#    z 0.000000 0.000000 1.629750 
# 
# From -- ./inp_files/62571.got.cif
#   From: 2010.05.17/outbox.cif.g08.bks.cpg/sg63_32_cif.got.tgz:62571.got - 2010.06.03 15:47:04.
