data_PCOD9475560
_publ_section_title
;
Structure prediction by ZEFSAII (Michael W. Deem and Ramdas Pophale) SiO2 
 PCOD9475560
Probable space group: C M C M
;
_chemical_formula_sum "Si O2"
_cell_formula_units_Z 96
_cell_length_a 22.171051
_cell_length_b 14.649060
_cell_length_c 14.576591
_cell_angle_alpha 90.000000
_cell_angle_beta 90.000000
_cell_angle_gamma 90.000000
_cell_volume 4734.258930
_symmetry_space_group_name_H-M "C M C M"
_symmetry_group_IT_number 63
_symmetry_cell_setting 'orthorhombic'
loop_
_space_group_symop_operation_xyz
x,y,z
-x,-y,1/2+z
x,-y,-z
-x,y,1/2-z
-x,-y,-z
x,y,1/2-z
-x,y,z
x,-y,1/2+z
1/2+x,1/2+y,z
1/2-x,1/2-y,1/2+z
1/2+x,1/2-y,-z
1/2-x,1/2+y,1/2-z
1/2-x,1/2-y,-z
1/2+x,1/2+y,1/2-z
1/2-x,1/2+y,z
1/2+x,1/2-y,1/2+z
loop_
_atom_site_type_symbol
_atom_site_label
_atom_site_fract_x
_atom_site_fract_y
_atom_site_fract_z
Si Si1 0.882521 0.563298 0.089390
Si Si2 0.251293 0.475129 0.892607
Si Si3 0.712800 0.272794 0.853470
Si Si4 0.671195 0.650296 0.850828
Si Si5 0.387993 0.254696 0.992219
Si Si6 0.500000 0.762312 0.135786
Si Si7 0.000000 0.534129 0.850062
O O1 0.818084 0.543815 0.137058
O O2 0.940967 0.525597 0.139329
O O3 0.880280 0.500000 0.000000
O O4 0.894840 0.666613 0.057811
O O5 0.284504 0.380287 0.872693
O O6 0.288593 0.558795 0.851431
O O7 0.249658 0.500000 0.000000
O O8 0.691111 0.254634 0.750000
O O9 0.779240 0.230700 0.861076
O O10 0.669823 0.230304 0.929405
O O11 0.642103 0.659029 0.750000
O O12 0.627655 0.662783 0.937952
O O13 0.440698 0.274202 0.918161
O O14 0.500000 0.746963 0.250000
O O15 0.500000 0.869178 0.098742
O O16 0.000000 0.573094 0.750000
#
# Coordination Sequence:
#
# PCOD9475560 Si02
#       7
#    16  16  16  16  16   8   8
#     4  11  21  36  60  86 125 174 213 247 310 373
#     4  11  21  38  64  92 129 173 209 260 329 382
#     4  11  22  38  62  94 128 169 215 264 321 384
#     4  11  24  39  61  95 131 170 216 263 323 388
#     4  12  22  42  64  87 132 168 212 268 318 378
#     4  11  25  43  66  95 123 170 223 270 322 379
#     4  11  24  38  56  89 127 169 221 259 302 381
#
# _framework density 20.277723999999999
#
# number of rings (size 3 to 8) (size 9 to 14) (size 15 to 20)
#    0.000    0.833    5.000    4.250    0.000    2.000 
#    0.000    0.417    0.000    2.000    0.000    2.333 
#    0.000    0.000    0.000    0.000    0.000    0.000 
#
# Total GULP energy -267635.382448 kJ/mol
# GULP energy per Si atom -5575.737134 kJ/mol
# Density = 2.023157 g / cm^3
# Si number density = 20.277724 Si / 1000 Ang^3
#
#
#
# Elastic Constant Matrix: (Units=GPa)
#
#
# Indices 1 2 3 4 5 6 
#
# 1 66.5674 3.4029 42.9212 0.0000 0.0000 0.0000
# 2 3.4029 74.2299 7.7842 0.0000 0.0000 0.0000
# 3 42.9212 7.7842 111.2324 0.0000 0.0000 0.0000
# 4 0.0000 0.0000 0.0000 18.5573 0.0000 0.0000
# 5 0.0000 0.0000 0.0000 0.0000 34.2698 0.0000
# 6 0.0000 0.0000 0.0000 0.0000 0.0000 37.6810
#
#
#
# Elastic Compliance Matrix: (Units=1/GPa)
#
#
# Indices 1 2 3 4 5 6 
#
# 1 0.019999 -0.000108 -0.007709 0.000000 0.000000 0.000000
# 2 -0.000108 0.013572 -0.000908 0.000000 0.000000 0.000000
# 3 -0.007709 -0.000908 0.012029 0.000000 0.000000 0.000000
# 4 0.000000 0.000000 0.000000 0.053887 0.000000 0.000000
# 5 0.000000 0.000000 0.000000 0.000000 0.029180 0.000000
# 6 0.000000 0.000000 0.000000 0.000000 0.000000 0.026539
#
#
# Mechanical properties :
#
#
# Convention : Reuss Voigt Hill
#
# Bulk Modulus (GPa) = 35.52675 40.02737 37.77706
# Shear Modulus (GPa) = 27.46665 31.29637 29.38151
#
# Velocity S-wave (km/s) = 3.68438 3.93286 3.81064
# Velocity P-wave (km/s) = 5.97140 6.35654 6.16698
#
# Compressibility (1/GPa) = 0.02814780
#
# Stress axis : x y z
#
# Youngs Moduli (GPa) = 50.00324 73.68200 83.13580
#
# Poissons Ratio (x) = 0.00798 0.64092
# Poissons Ratio (y) = 0.00542 0.07548
# Poissons Ratio (z) = 0.38549 0.06690
#
# Static dielectric constant tensor:
#      x y z
#    x 1.753370 0.000000 0.000000 
#    y 0.000000 1.748320 0.000000 
#    z 0.000000 0.000000 1.750340 
# 
# From -- ./inp_files/35420.got.cif
#   From: 2010.05.17/outbox.cif.g08.bks.cpg/sg63_18_cif.got.tgz:35420.got - 2010.06.03 15:47:04.
