data_PCOD9475222
_publ_section_title
;
Structure prediction by ZEFSAII (Michael W. Deem and Ramdas Pophale) SiO2 
 PCOD9475222
Probable space group: C M C M
;
_chemical_formula_sum "Si O2"
_cell_formula_units_Z 52
_cell_length_a 5.149596
_cell_length_b 27.180081
_cell_length_c 19.497713
_cell_angle_alpha 90.000000
_cell_angle_beta 90.000000
_cell_angle_gamma 90.000000
_cell_volume 2729.025407
_symmetry_space_group_name_H-M "C M C M"
_symmetry_group_IT_number 63
_symmetry_cell_setting 'orthorhombic'
loop_
_space_group_symop_operation_xyz
x,y,z
-x,-y,1/2+z
x,-y,-z
-x,y,1/2-z
-x,-y,-z
x,y,1/2-z
-x,y,z
x,-y,1/2+z
1/2+x,1/2+y,z
1/2-x,1/2-y,1/2+z
1/2+x,1/2-y,-z
1/2-x,1/2+y,1/2-z
1/2-x,1/2-y,-z
1/2+x,1/2+y,1/2-z
1/2-x,1/2+y,z
1/2+x,1/2-y,1/2+z
loop_
_atom_site_type_symbol
_atom_site_label
_atom_site_fract_x
_atom_site_fract_y
_atom_site_fract_z
Si Si1 0.500000 0.387879 0.038467
Si Si2 0.000000 0.521140 0.172388
Si Si3 0.500000 0.683084 0.250000
Si Si4 0.000000 0.600068 0.448670
Si Si5 0.500000 0.451533 0.172609
Si Si6 0.500000 0.730010 0.540219
Si Si7 0.000000 0.308074 0.851320
O O1 0.250225 0.405456 0.996200
O O2 0.500000 0.411134 0.113801
O O3 0.500000 0.328835 0.042019
O O4 0.000000 0.562131 0.114308
O O5 0.250497 0.486626 0.165944
O O6 0.000000 0.543019 0.250000
O O7 0.265208 0.683672 0.308918
O O8 0.000000 0.653741 0.414313
O O9 0.500000 0.430639 0.250000
O O10 0.750000 0.750000 0.500000
O O11 0.500000 0.753752 0.615817
#
# Coordination Sequence:
#
# PCOD9475222 Si02
#       7
#     8   8   4   8   8   8   8
#     4  12  24  41  68  95 123 171 213 266 313 369
#     4  10  23  42  63  92 127 171 201 256 327 381
#     4  10  24  38  60  88 124 174 204 266 314 358
#     4  12  24  39  65 102 127 163 214 257 323 376
#     4  10  23  45  65  87 128 166 214 261 315 380
#     4  12  22  42  66  89 128 172 207 260 325 380
#     4  11  22  42  61  91 135 163 210 265 310 388
#
# _framework density 19.054423
#
# number of rings (size 3 to 8) (size 9 to 14) (size 15 to 20)
#    0.000    0.923    3.077    3.692    2.154    3.692 
#    5.538    0.000    3.385    0.000    0.000    0.000 
#    0.000    0.000    0.000    0.000    0.000    0.000 
#
# Total GULP energy -144832.815767 kJ/mol
# GULP energy per Si atom -5570.492914 kJ/mol
# Density = 1.901105 g / cm^3
# Si number density = 19.054423 Si / 1000 Ang^3
#
#
#
# Elastic Constant Matrix: (Units=GPa)
#
#
# Indices 1 2 3 4 5 6 
#
# 1 206.9733 34.5652 69.4130 0.0000 0.0000 0.0000
# 2 34.5652 92.2709 75.6012 0.0000 0.0000 0.0000
# 3 69.4130 75.6012 158.0911 0.0000 0.0000 0.0000
# 4 0.0000 0.0000 0.0000 -31.5406 0.0000 0.0000
# 5 0.0000 0.0000 0.0000 0.0000 53.7640 0.0000
# 6 0.0000 0.0000 0.0000 0.0000 0.0000 37.7846
#
#
#
# Elastic Compliance Matrix: (Units=1/GPa)
#
#
# Indices 1 2 3 4 5 6 
#
# 1 0.005667 -0.000138 -0.002422 0.000000 0.000000 0.000000
# 2 -0.000138 0.017823 -0.008462 0.000000 0.000000 0.000000
# 3 -0.002422 -0.008462 0.011436 0.000000 0.000000 0.000000
# 4 0.000000 0.000000 0.000000 -0.031705 0.000000 0.000000
# 5 0.000000 0.000000 0.000000 0.000000 0.018600 0.000000
# 6 0.000000 0.000000 0.000000 0.000000 0.000000 0.026466
#
#
# Mechanical properties :
#
#
# Convention : Reuss Voigt Hill
#
# Bulk Modulus (GPa) = 77.63947 90.72156 84.18052
# Shear Modulus (GPa) = 67.00134 30.51866 48.76000
#
# Velocity S-wave (km/s) = 5.93629 4.00641 5.06413
# Velocity P-wave (km/s) = 9.37126 8.31366 8.85826
#
# Compressibility (1/GPa) = 0.01288005
#
# Stress axis : x y z
#
# Youngs Moduli (GPa) = 176.46261 56.10674 87.44511
#
# Poissons Ratio (x) = 0.00777 0.21179
# Poissons Ratio (y) = 0.02443 0.74000
# Poissons Ratio (z) = 0.42739 0.47480
#
# Static dielectric constant tensor:
#      x y z
#    x 1.639270 0.000000 0.000000 
#    y 0.000000 1.654310 0.000000 
#    z 0.000000 0.000000 1.682520 
# 
# From -- ./inp_files/38986.got.cif
#   From: 2010.05.17/outbox.cif.g08.bks.cpg/sg63_20_cif.got.tgz:38986.got - 2010.06.03 15:47:04.
