data_PCOD9475043
_publ_section_title
;
Structure prediction by ZEFSAII (Michael W. Deem and Ramdas Pophale) SiO2 
 PCOD9475043
Probable space group: C M C M
;
_chemical_formula_sum "Si O2"
_cell_formula_units_Z 56
_cell_length_a 30.836907
_cell_length_b 9.903623
_cell_length_c 10.143536
_cell_angle_alpha 90.000000
_cell_angle_beta 90.000000
_cell_angle_gamma 90.000000
_cell_volume 3097.806492
_symmetry_space_group_name_H-M "C M C M"
_symmetry_group_IT_number 63
_symmetry_cell_setting 'orthorhombic'
loop_
_space_group_symop_operation_xyz
x,y,z
-x,-y,1/2+z
x,-y,-z
-x,y,1/2-z
-x,-y,-z
x,y,1/2-z
-x,y,z
x,-y,1/2+z
1/2+x,1/2+y,z
1/2-x,1/2-y,1/2+z
1/2+x,1/2-y,-z
1/2-x,1/2+y,1/2-z
1/2-x,1/2-y,-z
1/2+x,1/2+y,1/2-z
1/2-x,1/2+y,z
1/2+x,1/2-y,1/2+z
loop_
_atom_site_type_symbol
_atom_site_label
_atom_site_fract_x
_atom_site_fract_y
_atom_site_fract_z
Si Si1 0.708298 0.393314 0.750000
Si Si2 0.406111 0.744877 0.905589
Si Si3 0.704426 0.930117 0.250000
Si Si4 0.000000 0.868327 0.091898
Si Si5 0.153621 0.000000 0.000000
Si Si6 0.354892 0.000000 0.000000
O O1 0.714628 0.230804 0.750000
O O2 0.752720 0.477925 0.750000
O O3 0.682188 0.437585 0.618473
O O4 0.403012 0.769253 0.750000
O O5 0.456152 0.713899 0.936801
O O6 0.377182 0.615721 0.941815
O O7 0.385460 0.871936 0.977238
O O8 0.675915 0.968378 0.376713
O O9 0.000000 0.901561 0.250000
O O10 0.000000 0.000000 0.000000
#
# Coordination Sequence:
#
# PCOD9475043 Si02
#       6
#     8  16   8   8   8   8
#     4  12  28  42  64  97 126 170 217 272 333 385
#     4  11  23  42  69  98 132 171 216 266 324 386
#     4  12  28  44  66  95 130 168 221 276 333 385
#     4  10  22  41  66 102 136 168 212 271 318 382
#     4  12  23  41  68  92 130 170 214 261 325 396
#     4  12  25  45  68  92 134 174 218 267 327 394
#
# _framework density 18.077307999999999
#
# number of rings (size 3 to 8) (size 9 to 14) (size 15 to 20)
#    0.000    0.571    7.143    0.857    4.000    2.857 
#    2.571    0.000    0.000    0.000    0.000    0.000 
#    0.000    0.000    0.000    0.000    0.000    0.000 
#
# Total GULP energy -156528.594150 kJ/mol
# GULP energy per Si atom -5590.306934 kJ/mol
# Density = 1.803616 g / cm^3
# Si number density = 18.077308 Si / 1000 Ang^3
#
#
#
# Elastic Constant Matrix: (Units=GPa)
#
#
# Indices 1 2 3 4 5 6 
#
# 1 168.8917 65.5354 62.8165 0.0000 0.0000 0.0000
# 2 65.5354 108.5399 18.5245 0.0000 0.0000 0.0000
# 3 62.8165 18.5245 93.1357 0.0000 0.0000 0.0000
# 4 0.0000 0.0000 0.0000 28.1932 0.0000 0.0000
# 5 0.0000 0.0000 0.0000 0.0000 25.9602 0.0000
# 6 0.0000 0.0000 0.0000 0.0000 0.0000 39.0950
#
#
#
# Elastic Compliance Matrix: (Units=1/GPa)
#
#
# Indices 1 2 3 4 5 6 
#
# 1 0.010031 -0.005074 -0.005756 0.000000 0.000000 0.000000
# 2 -0.005074 0.012104 0.001015 0.000000 0.000000 0.000000
# 3 -0.005756 0.001015 0.014417 0.000000 0.000000 0.000000
# 4 0.000000 0.000000 0.000000 0.035470 0.000000 0.000000
# 5 0.000000 0.000000 0.000000 0.000000 0.038520 0.000000
# 6 0.000000 0.000000 0.000000 0.000000 0.000000 0.025579
#
#
# Mechanical properties :
#
#
# Convention : Reuss Voigt Hill
#
# Bulk Modulus (GPa) = 59.09743 73.81333 66.45538
# Shear Modulus (GPa) = 30.98053 33.56242 32.27148
#
# Velocity S-wave (km/s) = 4.14427 4.31351 4.22974
# Velocity P-wave (km/s) = 7.46073 8.10735 7.79075
#
# Compressibility (1/GPa) = 0.01692121
#
# Stress axis : x y z
#
# Youngs Moduli (GPa) = 99.69337 82.61955 69.36032
#
# Poissons Ratio (x) = 0.41922 0.39925
# Poissons Ratio (y) = 0.50585 -0.07039
# Poissons Ratio (z) = 0.57385 -0.08385
#
# Static dielectric constant tensor:
#      x y z
#    x 1.597780 0.000000 0.000000 
#    y 0.000000 1.579310 0.000000 
#    z 0.000000 0.000000 1.608000 
# 
# From -- ./inp_files/13688.got.cif
#   From: 2010.05.17/outbox.cif.g08.bks.cpg/sg63_7_cif.got.tgz:13688.got - 2010.06.03 15:47:04.
