data_PCOD9475940
_publ_section_title
;
Structure prediction by ZEFSAII (Michael W. Deem and Ramdas Pophale) SiO2 
 PCOD9475940
Probable space group: C M C M
;
_chemical_formula_sum "Si O2"
_cell_formula_units_Z 80
_cell_length_a 7.432310
_cell_length_b 20.197170
_cell_length_c 27.058768
_cell_angle_alpha 90.000000
_cell_angle_beta 90.000000
_cell_angle_gamma 90.000000
_cell_volume 4061.835731
_symmetry_space_group_name_H-M "C M C M"
_symmetry_group_IT_number 63
_symmetry_cell_setting 'orthorhombic'
loop_
_space_group_symop_operation_xyz
x,y,z
-x,-y,1/2+z
x,-y,-z
-x,y,1/2-z
-x,-y,-z
x,y,1/2-z
-x,y,z
x,-y,1/2+z
1/2+x,1/2+y,z
1/2-x,1/2-y,1/2+z
1/2+x,1/2-y,-z
1/2-x,1/2+y,1/2-z
1/2-x,1/2-y,-z
1/2+x,1/2+y,1/2-z
1/2-x,1/2+y,z
1/2+x,1/2-y,1/2+z
loop_
_atom_site_type_symbol
_atom_site_label
_atom_site_fract_x
_atom_site_fract_y
_atom_site_fract_z
Si Si1 0.785924 0.673420 0.856364
Si Si2 0.720964 0.324440 0.858389
Si Si3 0.284508 0.573996 0.945001
Si Si4 0.292373 0.835016 0.250000
Si Si5 0.708155 0.673828 0.250000
Si Si6 0.719737 0.423058 0.944058
O O1 0.721244 0.748255 0.866355
O O2 0.758948 0.624795 0.901854
O O3 0.712799 0.647262 0.803517
O O4 0.000000 0.679987 0.848907
O O5 0.500000 0.325030 0.857689
O O6 0.782891 0.345875 0.803425
O O7 0.780093 0.372568 0.902038
O O8 0.500000 0.570556 0.947821
O O9 0.222841 0.498886 0.934699
O O10 0.222641 0.594282 0.000006
O O11 0.500000 0.858352 0.250000
O O12 0.290957 0.754372 0.250000
O O13 0.500000 0.652446 0.250000
O O14 0.500000 0.421956 0.943315
#
# Coordination Sequence:
#
# PCOD9475940 Si02
#       6
#    16  16  16   8   8  16
#     4   9  16  27  45  65  82 103 135 174 208 240
#     4   8  13  23  41  62  80 102 137 175 205 237
#     4   9  17  29  43  59  84 116 141 163 202 253
#     4   7  12  24  40  59  83 107 128 157 208 258
#     4   7  10  18  35  59  81  99 128 173 210 232
#     4   8  15  28  42  55  80 118 145 162 199 251
#
# _framework density 19.695527999999999
#
# number of rings (size 3 to 8) (size 9 to 14) (size 15 to 20)
#    0.000    3.800    0.000    3.600    0.000    0.800 
#    0.000    3.500    0.000    3.600    0.000    0.000 
#    0.000    0.000    0.000    0.000    0.000    0.000 
#
# Total GULP energy -222707.351377 kJ/mol
# GULP energy per Si atom -5567.683784 kJ/mol
# Density = 1.965070 g / cm^3
# Si number density = 19.695528 Si / 1000 Ang^3
#
#
#
# Elastic Constant Matrix: (Units=GPa)
#
#
# Indices 1 2 3 4 5 6 
#
# 1 57.8807 2.7471 5.3205 0.0000 0.0000 0.0000
# 2 2.7471 93.2883 127.2443 0.0000 0.0000 0.0000
# 3 5.3205 127.2443 248.0609 0.0000 0.0000 0.0000
# 4 0.0000 0.0000 0.0000 -38.7907 0.0000 0.0000
# 5 0.0000 0.0000 0.0000 0.0000 0.4831 0.0000
# 6 0.0000 0.0000 0.0000 0.0000 0.0000 -14.1851
#
#
#
# Elastic Compliance Matrix: (Units=1/GPa)
#
#
# Indices 1 2 3 4 5 6 
#
# 1 0.017311 -0.000011 -0.000366 0.000000 0.000000 0.000000
# 2 -0.000011 0.035692 -0.018308 0.000000 0.000000 0.000000
# 3 -0.000366 -0.018308 0.013430 0.000000 0.000000 0.000000
# 4 0.000000 0.000000 0.000000 -0.025779 0.000000 0.000000
# 5 0.000000 0.000000 0.000000 0.000000 2.070062 0.000000
# 6 0.000000 0.000000 0.000000 0.000000 0.000000 -0.070496
#
#
# Mechanical properties :
#
#
# Convention : Reuss Voigt Hill
#
# Bulk Modulus (GPa) = 34.40724 74.42822 54.41773
# Shear Modulus (GPa) = 2.39547 7.09599 4.74573
#
# Velocity S-wave (km/s) = 1.10403 1.90017 1.55395
# Velocity P-wave (km/s) = 4.37409 6.53343 5.55960
#
# Compressibility (1/GPa) = 0.02906365
#
# Stress axis : x y z
#
# Youngs Moduli (GPa) = 57.76660 28.01760 74.45814
#
# Poissons Ratio (x) = 0.00031 0.02722
# Poissons Ratio (y) = 0.00064 1.36319
# Poissons Ratio (z) = 0.02112 0.51295
#
# Static dielectric constant tensor:
#      x y z
#    x 1.778500 0.000000 0.000000 
#    y 0.000000 1.648380 0.000000 
#    z 0.000000 0.000000 1.730940 
# 
# From -- ./inp_files/59780.got.cif
#   From: 2010.05.17/outbox.cif.g08.bks.cpg/sg63_30_cif.got.tgz:59780.got - 2010.06.03 15:47:04.
