data_PCOD9475776
_publ_section_title
;
Structure prediction by ZEFSAII (Michael W. Deem and Ramdas Pophale) SiO2 
 PCOD9475776
Probable space group: C M C M
;
_chemical_formula_sum "Si O2"
_cell_formula_units_Z 64
_cell_length_a 28.527092
_cell_length_b 11.473164
_cell_length_c 10.323156
_cell_angle_alpha 90.000000
_cell_angle_beta 90.000000
_cell_angle_gamma 90.000000
_cell_volume 3378.727717
_symmetry_space_group_name_H-M "C M C M"
_symmetry_group_IT_number 63
_symmetry_cell_setting 'orthorhombic'
loop_
_space_group_symop_operation_xyz
x,y,z
-x,-y,1/2+z
x,-y,-z
-x,y,1/2-z
-x,-y,-z
x,y,1/2-z
-x,y,z
x,-y,1/2+z
1/2+x,1/2+y,z
1/2-x,1/2-y,1/2+z
1/2+x,1/2-y,-z
1/2-x,1/2+y,1/2-z
1/2-x,1/2-y,-z
1/2+x,1/2+y,1/2-z
1/2-x,1/2+y,z
1/2+x,1/2-y,1/2+z
loop_
_atom_site_type_symbol
_atom_site_label
_atom_site_fract_x
_atom_site_fract_y
_atom_site_fract_z
Si Si1 0.694509 0.745137 0.750000
Si Si2 0.352103 0.360903 0.994050
Si Si3 0.195140 0.738891 0.750000
Si Si4 0.052467 0.746185 0.905853
Si Si5 0.084927 0.500000 0.500000
Si Si6 0.351057 0.984337 0.750000
O O1 0.668960 0.692884 0.624639
O O2 0.749455 0.718835 0.750000
O O3 0.687845 0.884486 0.750000
O O4 0.321748 0.309846 0.875501
O O5 0.405377 0.318587 0.969006
O O6 0.349932 0.500000 0.000000
O O7 0.169701 0.613818 0.750000
O O8 0.059299 0.744539 0.750000
O O9 0.000000 0.790950 0.932514
O O10 0.056506 0.614094 0.958118
O O11 0.117462 0.530592 0.377595
#
# Coordination Sequence:
#
# PCOD9475776 Si02
#       6
#     8  16   8  16   8   8
#     4  12  27  42  69 102 129 174 225 273 324 378
#     4  12  25  45  67  96 137 172 222 271 321 390
#     4  12  25  48  65  96 133 180 219 265 330 394
#     4  11  23  42  68  96 130 176 216 264 335 394
#     4  12  19  42  62 100 132 164 214 276 327 384
#     4  12  22  40  73  90 134 168 217 278 326 370
#
# _framework density 18.942039999999999
#
# number of rings (size 3 to 8) (size 9 to 14) (size 15 to 20)
#    0.000    0.250    7.500    1.875    3.500    0.500 
#    0.000    1.875    0.000    0.000    0.000    0.000 
#    0.000    0.000    0.000    0.000    0.000    0.000 
#
# Total GULP energy -178997.425109 kJ/mol
# GULP energy per Si atom -5593.669535 kJ/mol
# Density = 1.889893 g / cm^3
# Si number density = 18.942040 Si / 1000 Ang^3
#
#
#
# Elastic Constant Matrix: (Units=GPa)
#
#
# Indices 1 2 3 4 5 6 
#
# 1 162.8018 42.5344 72.2809 0.0000 0.0000 0.0000
# 2 42.5344 135.9663 43.7386 0.0000 0.0000 0.0000
# 3 72.2809 43.7386 159.2220 0.0000 0.0000 0.0000
# 4 0.0000 0.0000 0.0000 18.8041 0.0000 0.0000
# 5 0.0000 0.0000 0.0000 0.0000 14.0855 0.0000
# 6 0.0000 0.0000 0.0000 0.0000 0.0000 7.9028
#
#
#
# Elastic Compliance Matrix: (Units=1/GPa)
#
#
# Indices 1 2 3 4 5 6 
#
# 1 0.007947 -0.001454 -0.003208 0.000000 0.000000 0.000000
# 2 -0.001454 0.008334 -0.001629 0.000000 0.000000 0.000000
# 3 -0.003208 -0.001629 0.008184 0.000000 0.000000 0.000000
# 4 0.000000 0.000000 0.000000 0.053180 0.000000 0.000000
# 5 0.000000 0.000000 0.000000 0.000000 0.070995 0.000000
# 6 0.000000 0.000000 0.000000 0.000000 0.000000 0.126538
#
#
# Mechanical properties :
#
#
# Convention : Reuss Voigt Hill
#
# Bulk Modulus (GPa) = 84.15923 86.12201 85.14062
# Shear Modulus (GPa) = 17.13964 28.12086 22.63025
#
# Velocity S-wave (km/s) = 3.01133 3.85720 3.46021
# Velocity P-wave (km/s) = 7.52444 8.08715 7.81086
#
# Compressibility (1/GPa) = 0.01188224
#
# Stress axis : x y z
#
# Youngs Moduli (GPa) = 125.83952 119.99456 122.18297
#
# Poissons Ratio (x) = 0.17447 0.39197
# Poissons Ratio (y) = 0.18296 0.19907
# Poissons Ratio (z) = 0.40370 0.19550
#
# Static dielectric constant tensor:
#      x y z
#    x 1.650110 0.000000 0.000000 
#    y 0.000000 1.630820 0.000000 
#    z 0.000000 0.000000 1.631410 
# 
# From -- ./inp_files/13793.got.cif
#   From: 2010.05.17/outbox.cif.g08.bks.cpg/sg63_7_cif.got.tgz:13793.got - 2010.06.03 15:47:04.
