data_PCOD9475166
_publ_section_title
;
Structure prediction by ZEFSAII (Michael W. Deem and Ramdas Pophale) SiO2 
 PCOD9475166
Probable space group: C M C M
;
_chemical_formula_sum "Si O2"
_cell_formula_units_Z 84
_cell_length_a 11.671676
_cell_length_b 15.377956
_cell_length_c 23.241565
_cell_angle_alpha 90.000000
_cell_angle_beta 90.000000
_cell_angle_gamma 90.000000
_cell_volume 4171.547621
_symmetry_space_group_name_H-M "C M C M"
_symmetry_group_IT_number 63
_symmetry_cell_setting 'orthorhombic'
loop_
_space_group_symop_operation_xyz
x,y,z
-x,-y,1/2+z
x,-y,-z
-x,y,1/2-z
-x,-y,-z
x,y,1/2-z
-x,y,z
x,-y,1/2+z
1/2+x,1/2+y,z
1/2-x,1/2-y,1/2+z
1/2+x,1/2-y,-z
1/2-x,1/2+y,1/2-z
1/2-x,1/2-y,-z
1/2+x,1/2+y,1/2-z
1/2-x,1/2+y,z
1/2+x,1/2-y,1/2+z
loop_
_atom_site_type_symbol
_atom_site_label
_atom_site_fract_x
_atom_site_fract_y
_atom_site_fract_z
Si Si1 0.360975 0.391469 0.750000
Si Si2 0.500000 0.798060 0.376505
Si Si3 0.246848 0.998683 0.931087
Si Si4 0.000000 0.477820 0.067109
Si Si5 0.761743 0.084807 0.750000
Si Si6 0.000000 0.616970 0.750000
Si Si7 0.286252 0.321013 0.627820
Si Si8 0.637032 0.661773 0.866174
O O1 0.500000 0.381575 0.750000
O O2 0.327895 0.493157 0.750000
O O3 0.305547 0.348250 0.693932
O O4 0.500000 0.876484 0.420596
O O5 0.500000 0.829569 0.309871
O O6 0.388555 0.742871 0.387238
O O7 0.196717 0.908929 0.907979
O O8 0.378408 0.992575 0.908312
O O9 0.185611 0.085668 0.907964
O O10 0.247008 0.000000 0.000000
O O11 0.000000 0.500000 0.000000
O O12 0.624107 0.069973 0.750000
O O13 0.801207 0.138244 0.694114
O O14 0.174911 0.260348 0.618227
O O15 0.500000 0.654744 0.861861
#
# Coordination Sequence:
#
# PCOD9475166 Si02
#       8
#     8   8  16   8   8   4  16  16
#     4  12  24  42  71 105 138 181 222 272 343 412
#     4  12  22  44  73 103 130 181 234 279 337 403
#     4  11  26  47  69  99 135 180 232 284 340 401
#     4  10  22  48  72  94 136 177 231 294 336 396
#     4  12  23  43  71 100 139 180 222 274 345 401
#     4  12  22  42  72 100 138 178 228 288 324 408
#     4  12  25  43  72 102 135 178 230 277 334 415
#     4  12  26  46  67 101 142 178 218 283 344 405
#
# _framework density 20.136410999999999
#
# number of rings (size 3 to 8) (size 9 to 14) (size 15 to 20)
#    0.000    0.381    6.667    2.000    2.667    1.143 
#    1.714    0.000    0.000    0.000    0.000    0.000 
#    0.000    0.000    0.000    0.000    0.000    0.000 
#
# Total GULP energy -234588.945114 kJ/mol
# GULP energy per Si atom -5585.451074 kJ/mol
# Density = 2.009058 g / cm^3
# Si number density = 20.136411 Si / 1000 Ang^3
#
#
#
# Elastic Constant Matrix: (Units=GPa)
#
#
# Indices 1 2 3 4 5 6 
#
# 1 101.7648 5.6843 26.7789 0.0000 0.0000 0.0000
# 2 5.6843 112.5167 45.3211 0.0000 0.0000 0.0000
# 3 26.7789 45.3211 85.4088 0.0000 0.0000 0.0000
# 4 0.0000 0.0000 0.0000 90.9443 0.0000 0.0000
# 5 0.0000 0.0000 0.0000 0.0000 23.1572 0.0000
# 6 0.0000 0.0000 0.0000 0.0000 0.0000 52.1544
#
#
#
# Elastic Compliance Matrix: (Units=1/GPa)
#
#
# Indices 1 2 3 4 5 6 
#
# 1 0.010805 0.001041 -0.003940 0.000000 0.000000 0.000000
# 2 0.001041 0.011404 -0.006378 0.000000 0.000000 0.000000
# 3 -0.003940 -0.006378 0.016328 0.000000 0.000000 0.000000
# 4 0.000000 0.000000 0.000000 0.010996 0.000000 0.000000
# 5 0.000000 0.000000 0.000000 0.000000 0.043183 0.000000
# 6 0.000000 0.000000 0.000000 0.000000 0.000000 0.019174
#
#
# Mechanical properties :
#
#
# Convention : Reuss Voigt Hill
#
# Bulk Modulus (GPa) = 50.04128 50.58433 50.31280
# Shear Modulus (GPa) = 36.46834 48.04491 42.25663
#
# Velocity S-wave (km/s) = 4.26028 4.88994 4.58593
# Velocity P-wave (km/s) = 7.00750 7.55363 7.28569
#
# Compressibility (1/GPa) = 0.01998350
#
# Stress axis : x y z
#
# Youngs Moduli (GPa) = 92.54697 87.68918 61.24374
#
# Poissons Ratio (x) = -0.09131 0.24133
# Poissons Ratio (y) = -0.09637 0.39060
# Poissons Ratio (z) = 0.36468 0.55927
#
# Static dielectric constant tensor:
#      x y z
#    x 1.737260 0.000000 0.000000 
#    y 0.000000 1.737830 0.000000 
#    z 0.000000 0.000000 1.729100 
# 
# From -- ./inp_files/61319.got.cif
#   From: 2010.05.17/outbox.cif.g08.bks.cpg/sg63_31_cif.got.tgz:61319.got - 2010.06.03 15:47:04.
