data_PCOD9475198
_publ_section_title
;
Structure prediction by ZEFSAII (Michael W. Deem and Ramdas Pophale) SiO2 
 PCOD9475198
Probable space group: C M C M
;
_chemical_formula_sum "Si O2"
_cell_formula_units_Z 112
_cell_length_a 22.542037
_cell_length_b 11.139090
_cell_length_c 22.869443
_cell_angle_alpha 90.000000
_cell_angle_beta 90.000000
_cell_angle_gamma 90.000000
_cell_volume 5742.466343
_symmetry_space_group_name_H-M "C M C M"
_symmetry_group_IT_number 63
_symmetry_cell_setting 'orthorhombic'
loop_
_space_group_symop_operation_xyz
x,y,z
-x,-y,1/2+z
x,-y,-z
-x,y,1/2-z
-x,-y,-z
x,y,1/2-z
-x,y,z
x,-y,1/2+z
1/2+x,1/2+y,z
1/2-x,1/2-y,1/2+z
1/2+x,1/2-y,-z
1/2-x,1/2+y,1/2-z
1/2-x,1/2-y,-z
1/2+x,1/2+y,1/2-z
1/2-x,1/2+y,z
1/2+x,1/2-y,1/2+z
loop_
_atom_site_type_symbol
_atom_site_label
_atom_site_fract_x
_atom_site_fract_y
_atom_site_fract_z
Si Si1 0.932385 0.357728 0.511605
Si Si2 0.364941 0.743479 0.402830
Si Si3 0.760172 0.123540 0.465004
Si Si4 0.067645 0.919166 0.817636
Si Si5 0.676279 0.397608 0.317388
Si Si6 0.188583 0.442560 0.182697
Si Si7 0.348962 0.158053 0.115579
O O1 0.930550 0.500000 0.500000
O O2 0.892369 0.297922 0.461722
O O3 0.907404 0.333288 0.576337
O O4 0.000000 0.316147 0.506209
O O5 0.315985 0.647926 0.423394
O O6 0.415517 0.683864 0.363194
O O7 0.332422 0.842205 0.362929
O O8 0.750000 0.250000 0.500000
O O9 0.700496 0.107282 0.428452
O O10 0.769917 0.000000 0.500000
O O11 0.071744 0.877288 0.750000
O O12 0.000000 0.962205 0.826734
O O13 0.119001 0.018466 0.824795
O O14 0.675338 0.353777 0.250000
O O15 0.740315 0.460944 0.324578
O O16 0.671405 0.286284 0.360843
O O17 0.179061 0.405285 0.250000
O O18 0.152008 0.562487 0.167860
#
# Coordination Sequence:
#
# PCOD9475198 Si02
#       7
#    16  16  16  16  16  16  16
#     4  11  24  41  61  87 124 170 214 260 319 382
#     4  12  22  40  67  94 128 164 213 267 324 383
#     4  12  25  39  63  96 132 169 210 262 326 396
#     4  10  23  43  65  90 126 172 219 265 318 383
#     4  10  23  40  63  95 129 168 208 258 322 386
#     4  11  23  39  63  98 129 163 208 267 330 388
#     4  12  22  40  63  89 128 165 211 259 318 385
#
# _framework density 19.503814999999999
#
# number of rings (size 3 to 8) (size 9 to 14) (size 15 to 20)
#    0.000    0.857    4.286    3.429    2.000    0.571 
#    0.000    0.000    0.000    4.714    0.000    0.000 
#    0.000    0.000    0.000    0.000    0.000    0.000 
#
# Total GULP energy -312855.920649 kJ/mol
# GULP energy per Si atom -5586.712869 kJ/mol
# Density = 1.945942 g / cm^3
# Si number density = 19.503815 Si / 1000 Ang^3
#
#
#
# Elastic Constant Matrix: (Units=GPa)
#
#
# Indices 1 2 3 4 5 6 
#
# 1 106.3400 14.3395 44.0610 0.0000 0.0000 0.0000
# 2 14.3395 58.7622 36.3458 0.0000 0.0000 0.0000
# 3 44.0610 36.3458 74.9396 0.0000 0.0000 0.0000
# 4 0.0000 0.0000 0.0000 38.1136 0.0000 0.0000
# 5 0.0000 0.0000 0.0000 0.0000 31.2995 0.0000
# 6 0.0000 0.0000 0.0000 0.0000 0.0000 24.1866
#
#
#
# Elastic Compliance Matrix: (Units=1/GPa)
#
#
# Indices 1 2 3 4 5 6 
#
# 1 0.012621 0.002157 -0.008467 0.000000 0.000000 0.000000
# 2 0.002157 0.024679 -0.013238 0.000000 0.000000 0.000000
# 3 -0.008467 -0.013238 0.024742 0.000000 0.000000 0.000000
# 4 0.000000 0.000000 0.000000 0.026237 0.000000 0.000000
# 5 0.000000 0.000000 0.000000 0.000000 0.031949 0.000000
# 6 0.000000 0.000000 0.000000 0.000000 0.000000 0.041345
#
#
# Mechanical properties :
#
#
# Convention : Reuss Voigt Hill
#
# Bulk Modulus (GPa) = 43.57703 47.72603 45.65153
# Shear Modulus (GPa) = 24.00169 28.40630 26.20400
#
# Velocity S-wave (km/s) = 3.51182 3.82048 3.66940
# Velocity P-wave (km/s) = 6.23179 6.63210 6.43505
#
# Compressibility (1/GPa) = 0.02294787
#
# Stress axis : x y z
#
# Youngs Moduli (GPa) = 79.23268 40.52000 40.41643
#
# Poissons Ratio (x) = -0.08740 0.34220
# Poissons Ratio (y) = -0.17091 0.53502
# Poissons Ratio (z) = 0.67084 0.53639
#
# Static dielectric constant tensor:
#      x y z
#    x 1.670220 0.000000 0.000000 
#    y 0.000000 1.693800 0.000000 
#    z 0.000000 0.000000 1.711980 
# 
# From -- ./inp_files/57645.got.cif
#   From: 2010.05.17/outbox.cif.g08.bks.cpg/sg63_29_cif.got.tgz:57645.got - 2010.06.03 15:47:04.
