data_PCOD9475139
_publ_section_title
;
Structure prediction by ZEFSAII (Michael W. Deem and Ramdas Pophale) SiO2 
 PCOD9475139
Probable space group: C M C M
;
_chemical_formula_sum "Si O2"
_cell_formula_units_Z 68
_cell_length_a 7.700422
_cell_length_b 19.517081
_cell_length_c 18.971525
_cell_angle_alpha 90.000000
_cell_angle_beta 90.000000
_cell_angle_gamma 90.000000
_cell_volume 2851.225937
_symmetry_space_group_name_H-M "C M C M"
_symmetry_group_IT_number 63
_symmetry_cell_setting 'orthorhombic'
loop_
_space_group_symop_operation_xyz
x,y,z
-x,-y,1/2+z
x,-y,-z
-x,y,1/2-z
-x,-y,-z
x,y,1/2-z
-x,y,z
x,-y,1/2+z
1/2+x,1/2+y,z
1/2-x,1/2-y,1/2+z
1/2+x,1/2-y,-z
1/2-x,1/2+y,1/2-z
1/2-x,1/2-y,-z
1/2+x,1/2+y,1/2-z
1/2-x,1/2+y,z
1/2+x,1/2-y,1/2+z
loop_
_atom_site_type_symbol
_atom_site_label
_atom_site_fract_x
_atom_site_fract_y
_atom_site_fract_z
Si Si1 0.000000 0.551069 0.250000
Si Si2 0.710790 0.139353 0.884652
Si Si3 0.309144 0.512644 0.145836
Si Si4 0.203428 0.615449 0.042438
Si Si5 0.289879 0.714176 0.171954
O O1 0.847503 0.544065 0.310348
O O2 0.500000 0.135023 0.880261
O O3 0.784825 0.068799 0.854904
O O4 0.762476 0.207408 0.843080
O O5 0.763645 0.143419 0.966880
O O6 0.500000 0.530949 0.172318
O O7 0.292227 0.546072 0.068707
O O8 0.231373 0.669484 0.105588
O O9 0.000000 0.601624 0.034361
O O10 0.225304 0.692632 0.250000
O O11 0.500000 0.711309 0.173066
#
# Coordination Sequence:
#
# PCOD9475139 Si02
#       5
#     4  16  16  16  16
#     4  12  26  48  66 102 152 172 224 286 348 410
#     4  10  22  43  69  97 136 183 229 288 347 401
#     4  12  26  43  73 103 135 184 229 280 344 408
#     4  11  23  42  66  97 138 183 230 287 346 404
#     4  10  23  40  64  95 134 181 234 286 343 409
#
# _framework density 23.84939
#
# number of rings (size 3 to 8) (size 9 to 14) (size 15 to 20)
#    0.000    1.176    2.353    2.471    3.294    6.118 
#    0.000    0.000    0.000    0.000    0.000    0.000 
#    0.000    0.000    0.000    0.000    0.000    0.000 
#
# Total GULP energy -189846.921882 kJ/mol
# GULP energy per Si atom -5583.732997 kJ/mol
# Density = 2.379511 g / cm^3
# Si number density = 23.849390 Si / 1000 Ang^3
#
#
#
# Elastic Constant Matrix: (Units=GPa)
#
#
# Indices 1 2 3 4 5 6 
#
# 1 124.8115 -0.8598 26.5451 0.0000 0.0000 0.0000
# 2 -0.8598 100.8032 3.5035 0.0000 0.0000 0.0000
# 3 26.5451 3.5035 106.3511 0.0000 0.0000 0.0000
# 4 0.0000 0.0000 0.0000 25.0706 0.0000 0.0000
# 5 0.0000 0.0000 0.0000 0.0000 -29.6592 0.0000
# 6 0.0000 0.0000 0.0000 0.0000 0.0000 13.3944
#
#
#
# Elastic Compliance Matrix: (Units=1/GPa)
#
#
# Indices 1 2 3 4 5 6 
#
# 1 0.008463 0.000146 -0.002117 0.000000 0.000000 0.000000
# 2 0.000146 0.009934 -0.000364 0.000000 0.000000 0.000000
# 3 -0.002117 -0.000364 0.009943 0.000000 0.000000 0.000000
# 4 0.000000 0.000000 0.000000 0.039887 0.000000 0.000000
# 5 0.000000 0.000000 0.000000 0.000000 -0.033716 0.000000
# 6 0.000000 0.000000 0.000000 0.000000 0.000000 0.074658
#
#
# Mechanical properties :
#
#
# Convention : Reuss Voigt Hill
#
# Bulk Modulus (GPa) = 42.24650 43.37150 42.80900
# Shear Modulus (GPa) = 41.07443 21.94630 31.51037
#
# Velocity S-wave (km/s) = 4.15449 3.03678 3.63881
# Velocity P-wave (km/s) = 6.38478 5.52459 5.97020
#
# Compressibility (1/GPa) = 0.02367060
#
# Stress axis : x y z
#
# Youngs Moduli (GPa) = 118.15607 100.66238 100.57061
#
# Poissons Ratio (x) = -0.01467 0.21293
# Poissons Ratio (y) = -0.01722 0.03657
# Poissons Ratio (z) = 0.25017 0.03661
#
# Static dielectric constant tensor:
#      x y z
#    x 1.878810 0.000000 0.000000 
#    y 0.000000 1.902850 0.000000 
#    z 0.000000 0.000000 1.952090 
# 
# From -- ./inp_files/39965.got.cif
#   From: 2010.05.17/outbox.cif.g08.bks.cpg/sg63_20_cif.got.tgz:39965.got - 2010.06.03 15:47:04.
