data_PCOD9475367
_publ_section_title
;
Structure prediction by ZEFSAII (Michael W. Deem and Ramdas Pophale) SiO2 
 PCOD9475367
Probable space group: C M C M
;
_chemical_formula_sum "Si O2"
_cell_formula_units_Z 68
_cell_length_a 19.896641
_cell_length_b 17.027510
_cell_length_c 9.245773
_cell_angle_alpha 90.000000
_cell_angle_beta 90.000000
_cell_angle_gamma 90.000000
_cell_volume 3132.377779
_symmetry_space_group_name_H-M "C M C M"
_symmetry_group_IT_number 63
_symmetry_cell_setting 'orthorhombic'
loop_
_space_group_symop_operation_xyz
x,y,z
-x,-y,1/2+z
x,-y,-z
-x,y,1/2-z
-x,-y,-z
x,y,1/2-z
-x,y,z
x,-y,1/2+z
1/2+x,1/2+y,z
1/2-x,1/2-y,1/2+z
1/2+x,1/2-y,-z
1/2-x,1/2+y,1/2-z
1/2-x,1/2-y,-z
1/2+x,1/2+y,1/2-z
1/2-x,1/2+y,z
1/2+x,1/2-y,1/2+z
loop_
_atom_site_type_symbol
_atom_site_label
_atom_site_fract_x
_atom_site_fract_y
_atom_site_fract_z
Si Si1 0.000000 0.292962 0.250000
Si Si2 0.860389 0.244164 0.250000
Si Si3 0.246069 0.439514 0.750000
Si Si4 0.715923 0.885019 0.250000
Si Si5 0.419393 0.340308 0.250000
Si Si6 0.109036 0.652982 0.250000
Si Si7 0.500000 0.093743 0.025594
Si Si8 0.680123 0.632779 0.501481
O O1 0.938523 0.233146 0.250000
O O2 0.000000 0.350521 0.386834
O O3 0.851642 0.337256 0.250000
O O4 0.830358 0.205725 0.106362
O O5 0.209261 0.522446 0.750000
O O6 0.186879 0.374161 0.750000
O O7 0.294870 0.432723 0.888061
O O8 0.758852 0.858435 0.387734
O O9 0.500000 0.346691 0.250000
O O10 0.399078 0.247418 0.250000
O O11 0.384263 0.376474 0.393811
O O12 0.066892 0.617879 0.384579
O O13 0.500000 0.000000 0.000000
#
# Coordination Sequence:
#
# PCOD9475367 Si02
#       8
#     4   8   8   8   8   8   8  16
#     4  12  26  40  64 100 132 166 234 274 310 392
#     4  11  25  39  67 101 133 172 222 276 323 379
#     4  11  26  43  67 103 137 176 217 276 337 399
#     4  11  24  43  69  95 138 176 216 263 340 402
#     4  11  23  45  73  96 130 176 222 276 342 395
#     4  11  25  42  65  94 141 183 222 264 332 398
#     4  11  25  41  57  91 143 190 223 260 311 398
#     4  10  25  43  67  99 134 166 225 278 328 394
#
# _framework density 21.708748
#
# number of rings (size 3 to 8) (size 9 to 14) (size 15 to 20)
#    0.000    1.176    1.176    3.529   18.118    0.000 
#    0.000    0.000    0.000   11.294    3.059    0.000 
#    0.000    0.000    0.000    0.000    0.000    0.000 
#
# Total GULP energy -189973.921519 kJ/mol
# GULP energy per Si atom -5587.468280 kJ/mol
# Density = 2.165934 g / cm^3
# Si number density = 21.708748 Si / 1000 Ang^3
#
#
#
# Elastic Constant Matrix: (Units=GPa)
#
#
# Indices 1 2 3 4 5 6 
#
# 1 107.9812 7.0386 29.6395 0.0000 0.0000 0.0000
# 2 7.0386 35.5106 12.0857 0.0000 0.0000 0.0000
# 3 29.6395 12.0857 163.1961 0.0000 0.0000 0.0000
# 4 0.0000 0.0000 0.0000 26.3169 0.0000 0.0000
# 5 0.0000 0.0000 0.0000 0.0000 10.5656 0.0000
# 6 0.0000 0.0000 0.0000 0.0000 0.0000 15.1796
#
#
#
# Elastic Compliance Matrix: (Units=1/GPa)
#
#
# Indices 1 2 3 4 5 6 
#
# 1 0.009812 -0.001373 -0.001680 0.000000 0.000000 0.000000
# 2 -0.001373 0.029081 -0.001904 0.000000 0.000000 0.000000
# 3 -0.001680 -0.001904 0.006574 0.000000 0.000000 0.000000
# 4 0.000000 0.000000 0.000000 0.037998 0.000000 0.000000
# 5 0.000000 0.000000 0.000000 0.000000 0.094647 0.000000
# 6 0.000000 0.000000 0.000000 0.000000 0.000000 0.065878
#
#
# Mechanical properties :
#
#
# Convention : Reuss Voigt Hill
#
# Bulk Modulus (GPa) = 28.12838 44.91283 36.52060
# Shear Modulus (GPa) = 18.81437 27.60737 23.21087
#
# Velocity S-wave (km/s) = 2.94712 3.56998 3.27340
# Velocity P-wave (km/s) = 4.95641 6.14221 5.58089
#
# Compressibility (1/GPa) = 0.03555129
#
# Stress axis : x y z
#
# Youngs Moduli (GPa) = 101.92040 34.38692 152.11918
#
# Poissons Ratio (x) = 0.04721 0.25561
# Poissons Ratio (y) = 0.13992 0.28968
# Poissons Ratio (z) = 0.17126 0.06548
#
# Static dielectric constant tensor:
#      x y z
#    x 1.748350 0.000000 0.000000 
#    y 0.000000 1.796680 0.000000 
#    z 0.000000 0.000000 1.585910 
# 
# From -- ./inp_files/7686.got.cif
#   From: 2010.05.17/outbox.cif.g08.bks.cpg/sg63_4_cif.got.tgz:7686.got - 2010.06.03 15:47:04.
