data_PCOD9475457
_publ_section_title
;
Structure prediction by ZEFSAII (Michael W. Deem and Ramdas Pophale) SiO2 
 PCOD9475457
Probable space group: C M C M
;
_chemical_formula_sum "Si O2"
_cell_formula_units_Z 68
_cell_length_a 7.433522
_cell_length_b 23.668957
_cell_length_c 17.687504
_cell_angle_alpha 90.000000
_cell_angle_beta 90.000000
_cell_angle_gamma 90.000000
_cell_volume 3112.005120
_symmetry_space_group_name_H-M "C M C M"
_symmetry_group_IT_number 63
_symmetry_cell_setting 'orthorhombic'
loop_
_space_group_symop_operation_xyz
x,y,z
-x,-y,1/2+z
x,-y,-z
-x,y,1/2-z
-x,-y,-z
x,y,1/2-z
-x,y,z
x,-y,1/2+z
1/2+x,1/2+y,z
1/2-x,1/2-y,1/2+z
1/2+x,1/2-y,-z
1/2-x,1/2+y,1/2-z
1/2-x,1/2-y,-z
1/2+x,1/2+y,1/2-z
1/2-x,1/2+y,z
1/2+x,1/2-y,1/2+z
loop_
_atom_site_type_symbol
_atom_site_label
_atom_site_fract_x
_atom_site_fract_y
_atom_site_fract_z
Si Si1 0.500000 0.595044 0.250000
Si Si2 0.714046 0.748550 0.089715
Si Si3 0.717769 0.938969 0.473864
Si Si4 0.779955 0.366517 0.336178
Si Si5 0.795740 0.376096 0.874630
O O1 0.342963 0.599114 0.315674
O O2 0.500000 0.745165 0.100454
O O3 0.776213 0.806099 0.129503
O O4 0.791877 0.691895 0.126126
O O5 0.750000 0.750000 0.000000
O O6 0.500000 0.942517 0.468455
O O7 0.780839 0.915214 0.393685
O O8 0.756297 0.894701 0.540432
O O9 0.784099 0.000000 0.500000
O O10 0.721736 0.373802 0.250000
O O11 0.000000 0.366504 0.336440
O O12 0.000000 0.395982 0.860976
#
# Coordination Sequence:
#
# PCOD9475457 Si02
#       5
#     4  16  16  16  16
#     4  12  26  44  62  94 134 168 212 280 326 388
#     4  11  20  34  60  89 128 171 213 263 322 393
#     4   9  18  37  62  91 127 170 219 267 320 385
#     4   9  18  31  54  88 127 168 213 263 319 380
#     4  11  23  41  64  96 129 171 217 264 329 400
#
# _framework density 21.850863
#
# number of rings (size 3 to 8) (size 9 to 14) (size 15 to 20)
#    0.000    1.882    3.529    1.059    1.647    0.000 
#    2.118    0.588    0.000    0.000    0.000    0.000 
#    0.000    0.000    0.000    0.000    0.000    0.000 
#
# Total GULP energy -189552.667642 kJ/mol
# GULP energy per Si atom -5575.078460 kJ/mol
# Density = 2.180113 g / cm^3
# Si number density = 21.850863 Si / 1000 Ang^3
#
#
#
# Elastic Constant Matrix: (Units=GPa)
#
#
# Indices 1 2 3 4 5 6 
#
# 1 101.3344 -4.5590 34.3704 0.0000 0.0000 0.0000
# 2 -4.5590 115.6364 61.5764 0.0000 0.0000 0.0000
# 3 34.3704 61.5764 193.0912 0.0000 0.0000 0.0000
# 4 0.0000 0.0000 0.0000 12.1785 0.0000 0.0000
# 5 0.0000 0.0000 0.0000 0.0000 24.4660 0.0000
# 6 0.0000 0.0000 0.0000 0.0000 0.0000 9.9474
#
#
#
# Elastic Compliance Matrix: (Units=1/GPa)
#
#
# Indices 1 2 3 4 5 6 
#
# 1 0.010787 0.001744 -0.002476 0.000000 0.000000 0.000000
# 2 0.001744 0.010699 -0.003722 0.000000 0.000000 0.000000
# 3 -0.002476 -0.003722 0.006807 0.000000 0.000000 0.000000
# 4 0.000000 0.000000 0.000000 0.082112 0.000000 0.000000
# 5 0.000000 0.000000 0.000000 0.000000 0.040873 0.000000
# 6 0.000000 0.000000 0.000000 0.000000 0.000000 0.100529
#
#
# Mechanical properties :
#
#
# Convention : Reuss Voigt Hill
#
# Bulk Modulus (GPa) = 51.59187 65.87086 58.73136
# Shear Modulus (GPa) = 18.71430 30.56333 24.63882
#
# Velocity S-wave (km/s) = 2.92970 3.74401 3.36160
# Velocity P-wave (km/s) = 5.92506 6.99294 6.48103
#
# Compressibility (1/GPa) = 0.01938290
#
# Stress axis : x y z
#
# Youngs Moduli (GPa) = 92.70741 93.47016 146.91528
#
# Poissons Ratio (x) = -0.16299 0.36378
# Poissons Ratio (y) = -0.16166 0.54684
# Poissons Ratio (z) = 0.22956 0.34791
#
# Static dielectric constant tensor:
#      x y z
#    x 1.800220 0.000000 0.000000 
#    y 0.000000 2.757400 0.000000 
#    z 0.000000 0.000000 1.754940 
# 
# From -- ./inp_files/39946.got.cif
#   From: 2010.05.17/outbox.cif.g08.bks.cpg/sg63_20_cif.got.tgz:39946.got - 2010.06.03 15:47:04.
