data_PCOD9475659
_publ_section_title
;
Structure prediction by ZEFSAII (Michael W. Deem and Ramdas Pophale) SiO2 
 PCOD9475659
Probable space group: C M C M
;
_chemical_formula_sum "Si O2"
_cell_formula_units_Z 52
_cell_length_a 21.624582
_cell_length_b 7.416849
_cell_length_c 15.380613
_cell_angle_alpha 90.000000
_cell_angle_beta 90.000000
_cell_angle_gamma 90.000000
_cell_volume 2466.838986
_symmetry_space_group_name_H-M "C M C M"
_symmetry_group_IT_number 63
_symmetry_cell_setting 'orthorhombic'
loop_
_space_group_symop_operation_xyz
x,y,z
-x,-y,1/2+z
x,-y,-z
-x,y,1/2-z
-x,-y,-z
x,y,1/2-z
-x,y,z
x,-y,1/2+z
1/2+x,1/2+y,z
1/2-x,1/2-y,1/2+z
1/2+x,1/2-y,-z
1/2-x,1/2+y,1/2-z
1/2-x,1/2-y,-z
1/2+x,1/2+y,1/2-z
1/2-x,1/2+y,z
1/2+x,1/2-y,1/2+z
loop_
_atom_site_type_symbol
_atom_site_label
_atom_site_fract_x
_atom_site_fract_y
_atom_site_fract_z
Si Si1 0.288348 0.670436 0.651744
Si Si2 0.337414 0.951492 0.404775
Si Si3 0.000000 0.000000 0.000000
Si Si4 0.098917 0.101758 0.349105
O O1 0.262719 0.660225 0.750000
O O2 0.229770 0.644450 0.589859
O O3 0.337942 0.512800 0.640416
O O4 0.323070 0.859477 0.641095
O O5 0.383175 0.811778 0.359688
O O6 0.361465 0.000000 0.500000
O O7 0.053362 0.957655 0.925222
O O8 0.076968 0.068803 0.250000
#
# Coordination Sequence:
#
# PCOD9475659 Si02
#       4
#    16  16   4  16
#     4  11  22  38  64  99 137 174 218 276 351 423
#     4  12  23  37  65 103 141 173 219 281 354 420
#     4  12  26  48  70  90 126 186 244 276 318 404
#     4  11  25  45  69  98 138 183 229 288 348 407
#
# _framework density 21.079608
#
# number of rings (size 3 to 8) (size 9 to 14) (size 15 to 20)
#    0.000    0.615    3.077    6.000    2.154    0.000 
#    0.000    6.923    0.000    7.385    0.000    0.000 
#    0.000    0.000    0.000    0.000    0.000    0.000 
#
# Total GULP energy -144854.558177 kJ/mol
# GULP energy per Si atom -5571.329161 kJ/mol
# Density = 2.103163 g / cm^3
# Si number density = 21.079608 Si / 1000 Ang^3
#
#
#
# Elastic Constant Matrix: (Units=GPa)
#
#
# Indices 1 2 3 4 5 6 
#
# 1 44.9276 3.6571 38.8239 0.0000 0.0000 0.0000
# 2 3.6571 103.0904 27.1292 0.0000 0.0000 0.0000
# 3 38.8239 27.1292 126.8265 0.0000 0.0000 0.0000
# 4 0.0000 0.0000 0.0000 33.1944 0.0000 0.0000
# 5 0.0000 0.0000 0.0000 0.0000 33.2937 0.0000
# 6 0.0000 0.0000 0.0000 0.0000 0.0000 -9.4961
#
#
#
# Elastic Compliance Matrix: (Units=1/GPa)
#
#
# Indices 1 2 3 4 5 6 
#
# 1 0.030468 0.001456 -0.009638 0.000000 0.000000 0.000000
# 2 0.001456 0.010348 -0.002659 0.000000 0.000000 0.000000
# 3 -0.009638 -0.002659 0.011404 0.000000 0.000000 0.000000
# 4 0.000000 0.000000 0.000000 0.030126 0.000000 0.000000
# 5 0.000000 0.000000 0.000000 0.000000 0.030036 0.000000
# 6 0.000000 0.000000 0.000000 0.000000 0.000000 -0.105307
#
#
# Mechanical properties :
#
#
# Convention : Reuss Voigt Hill
#
# Bulk Modulus (GPa) = 32.74713 46.00719 39.37716
# Shear Modulus (GPa) = 128.40930 25.08071 76.74500
#
# Velocity S-wave (km/s) = 7.81336 3.45310 6.04039
# Velocity P-wave (km/s) = 9.84717 6.14584 8.20787
#
# Compressibility (1/GPa) = 0.03053703
#
# Stress axis : x y z
#
# Youngs Moduli (GPa) = 32.82091 96.63349 87.68808
#
# Poissons Ratio (x) = -0.14066 0.84516
# Poissons Ratio (y) = -0.04777 0.23318
# Poissons Ratio (z) = 0.31634 0.25697
#
# Static dielectric constant tensor:
#      x y z
#    x 1.708750 0.000000 0.000000 
#    y 0.000000 1.775790 0.000000 
#    z 0.000000 0.000000 1.772790 
# 
# From -- ./inp_files/34671.got.cif
#   From: 2010.05.17/outbox.cif.g08.bks.cpg/sg63_18_cif.got.tgz:34671.got - 2010.06.03 15:47:04.
