data_PCOD9475499
_publ_section_title
;
Structure prediction by ZEFSAII (Michael W. Deem and Ramdas Pophale) SiO2 
 PCOD9475499
Probable space group: C M C M
;
_chemical_formula_sum "Si O2"
_cell_formula_units_Z 104
_cell_length_a 23.332010
_cell_length_b 31.320184
_cell_length_c 8.008481
_cell_angle_alpha 90.000000
_cell_angle_beta 90.000000
_cell_angle_gamma 90.000000
_cell_volume 5852.300370
_symmetry_space_group_name_H-M "C M C M"
_symmetry_group_IT_number 63
_symmetry_cell_setting 'orthorhombic'
loop_
_space_group_symop_operation_xyz
x,y,z
-x,-y,1/2+z
x,-y,-z
-x,y,1/2-z
-x,-y,-z
x,y,1/2-z
-x,y,z
x,-y,1/2+z
1/2+x,1/2+y,z
1/2-x,1/2-y,1/2+z
1/2+x,1/2-y,-z
1/2-x,1/2+y,1/2-z
1/2-x,1/2-y,-z
1/2+x,1/2+y,1/2-z
1/2-x,1/2+y,z
1/2+x,1/2-y,1/2+z
loop_
_atom_site_type_symbol
_atom_site_label
_atom_site_fract_x
_atom_site_fract_y
_atom_site_fract_z
Si Si1 0.388174 0.603017 0.051425
Si Si2 0.933727 0.378374 0.955065
Si Si3 0.930263 0.284851 0.556429
Si Si4 0.000000 0.049519 0.948066
Si Si5 0.652283 0.951832 0.548602
Si Si6 0.434401 0.307339 0.048946
Si Si7 0.282595 0.451762 0.951685
O O1 0.383732 0.604387 0.250000
O O2 0.330641 0.580685 0.984445
O O3 0.443390 0.574196 0.008905
O O4 0.398190 0.651110 0.991607
O O5 0.933161 0.377226 0.750000
O O6 0.914724 0.331133 0.015199
O O7 0.892043 0.416059 0.010876
O O8 0.000000 0.385461 0.003523
O O9 0.911230 0.285367 0.750000
O O10 0.913200 0.238834 0.483428
O O11 0.000000 0.284135 0.557206
O O12 0.000000 0.051696 0.750000
O O13 0.000000 0.000000 0.000000
O O14 0.653042 0.949839 0.750000
O O15 0.717530 0.944095 0.488502
O O16 0.635932 0.000000 0.500000
O O17 0.437141 0.303580 0.250000
O O18 0.500000 0.314405 0.989254
O O19 0.281629 0.449451 0.750000
O O20 0.298651 0.500000 0.000000
#
# Coordination Sequence:
#
# PCOD9475499 Si02
#       7
#    16  16  16   8  16  16  16
#     4  11  21  32  46  65  89 118 152 189 229 276
#     4   8  13  23  43  71  97 120 149 186 224 262
#     4   7  11  21  39  64  91 116 146 185 220 256
#     4  12  24  36  48  66  92 118 146 186 237 282
#     4   9  17  30  47  67  92 121 153 188 224 264
#     4   9  16  27  44  66  90 115 146 188 232 270
#     4   9  19  33  47  63  84 116 156 190 222 264
#
# _framework density 17.770790999999999
#
# number of rings (size 3 to 8) (size 9 to 14) (size 15 to 20)
#    0.000    2.923    0.769    3.462    0.000    2.769 
#    0.000    0.000    0.000    1.846    0.000    2.154 
#    0.000    0.000    0.000    0.000    0.000    0.154 
#
# Total GULP energy -289649.160411 kJ/mol
# GULP energy per Si atom -5570.176162 kJ/mol
# Density = 1.773034 g / cm^3
# Si number density = 17.770791 Si / 1000 Ang^3
#
#
#
# Elastic Constant Matrix: (Units=GPa)
#
#
# Indices 1 2 3 4 5 6 
#
# 1 83.3630 102.9654 5.5977 0.0000 0.0000 0.0000
# 2 102.9654 210.3378 8.4099 0.0000 0.0000 0.0000
# 3 5.5977 8.4099 14.5758 0.0000 0.0000 0.0000
# 4 0.0000 0.0000 0.0000 14.6560 0.0000 0.0000
# 5 0.0000 0.0000 0.0000 0.0000 -0.0455 0.0000
# 6 0.0000 0.0000 0.0000 0.0000 0.0000 17.6251
#
#
#
# Elastic Compliance Matrix: (Units=1/GPa)
#
#
# Indices 1 2 3 4 5 6 
#
# 1 0.030483 -0.014796 -0.003170 0.000000 0.000000 0.000000
# 2 -0.014796 0.012048 -0.001269 0.000000 0.000000 0.000000
# 3 -0.003170 -0.001269 0.070556 0.000000 0.000000 0.000000
# 4 0.000000 0.000000 0.000000 0.068232 0.000000 0.000000
# 5 0.000000 0.000000 0.000000 0.000000-21.957077 0.000000
# 6 0.000000 0.000000 0.000000 0.000000 0.000000 0.056737
#
#
# Mechanical properties :
#
#
# Convention : Reuss Voigt Hill
#
# Bulk Modulus (GPa) = 13.40165 60.24697 36.82431
# Shear Modulus (GPa) = -0.23089 19.20068 9.48490
#
# Velocity S-wave (km/s) = -0.36084 3.29061 2.31278
# Velocity P-wave (km/s) = 2.71738 6.95797 5.28192
#
# Compressibility (1/GPa) = 0.07461769
#
# Stress axis : x y z
#
# Youngs Moduli (GPa) = 32.80494 83.00293 14.17306
#
# Poissons Ratio (x) = 1.22807 0.04493
# Poissons Ratio (y) = 0.48537 0.01799
# Poissons Ratio (z) = 0.10400 0.10535
#
# Static dielectric constant tensor:
#      x y z
#    x 1.596090 0.000000 0.000000 
#    y 0.000000 1.621980 0.000000 
#    z 0.000000 0.000000 1.638230 
# 
# From -- ./inp_files/11084.got.cif
#   From: 2010.05.17/outbox.cif.g08.bks.cpg/sg63_6_cif.got.tgz:11084.got - 2010.06.03 15:47:04.
