data_PCOD9475290
_publ_section_title
;
Structure prediction by ZEFSAII (Michael W. Deem and Ramdas Pophale) SiO2 
 PCOD9475290
Probable space group: C M C M
;
_chemical_formula_sum "Si O2"
_cell_formula_units_Z 68
_cell_length_a 7.232796
_cell_length_b 24.292798
_cell_length_c 14.937158
_cell_angle_alpha 90.000000
_cell_angle_beta 90.000000
_cell_angle_gamma 90.000000
_cell_volume 2624.531139
_symmetry_space_group_name_H-M "C M C M"
_symmetry_group_IT_number 63
_symmetry_cell_setting 'orthorhombic'
loop_
_space_group_symop_operation_xyz
x,y,z
-x,-y,1/2+z
x,-y,-z
-x,y,1/2-z
-x,-y,-z
x,y,1/2-z
-x,y,z
x,-y,1/2+z
1/2+x,1/2+y,z
1/2-x,1/2-y,1/2+z
1/2+x,1/2-y,-z
1/2-x,1/2+y,1/2-z
1/2-x,1/2-y,-z
1/2+x,1/2+y,1/2-z
1/2-x,1/2+y,z
1/2+x,1/2-y,1/2+z
loop_
_atom_site_type_symbol
_atom_site_label
_atom_site_fract_x
_atom_site_fract_y
_atom_site_fract_z
Si Si1 0.711514 0.137270 0.347844
Si Si2 0.722020 0.765608 0.149547
Si Si3 0.774395 0.629673 0.543584
Si Si4 0.782154 0.485212 0.395169
Si Si5 0.000000 0.028269 0.250000
O O1 0.801362 0.126961 0.250000
O O2 0.500000 0.117685 0.343529
O O3 0.705853 0.203813 0.358100
O O4 0.791350 0.119155 0.442563
O O5 0.765529 0.785302 0.250000
O O6 0.500000 0.761341 0.142362
O O7 0.785949 0.811028 0.079389
O O8 0.726113 0.579349 0.608204
O O9 0.000000 0.630410 0.539754
O O10 0.761242 0.500000 0.500000
O O11 0.660674 0.520305 0.328547
O O12 0.000000 0.489637 0.374256
#
# Coordination Sequence:
#
# PCOD9475290 Si02
#       5
#    16  16  16  16   4
#     4   9  17  31  49  75 112 152 199 254 300 361
#     4   9  17  29  48  73 109 150 196 251 305 361
#     4   9  18  34  56  80 113 155 201 251 308 373
#     4  10  23  45  70  98 131 172 214 261 327 398
#     4  12  24  44  72 100 136 160 212 276 332 372
#
# _framework density 25.909389999999998
#
# number of rings (size 3 to 8) (size 9 to 14) (size 15 to 20)
#    0.000    2.588    0.000    1.412    1.647    0.000 
#    6.353    0.000    0.000    0.000    0.000    0.000 
#    0.000    0.000    0.000    0.000    0.000    0.000 
#
# Total GULP energy -189860.211145 kJ/mol
# GULP energy per Si atom -5584.123857 kJ/mol
# Density = 2.585042 g / cm^3
# Si number density = 25.909390 Si / 1000 Ang^3
#
#
#
# Elastic Constant Matrix: (Units=GPa)
#
#
# Indices 1 2 3 4 5 6 
#
# 1 145.4257 -14.4730 31.0117 0.0000 0.0000 0.0000
# 2 -14.4730 123.4079 35.2361 0.0000 0.0000 0.0000
# 3 31.0117 35.2361 137.2098 0.0000 0.0000 0.0000
# 4 0.0000 0.0000 0.0000 46.9255 0.0000 0.0000
# 5 0.0000 0.0000 0.0000 0.0000 -77.6234 0.0000
# 6 0.0000 0.0000 0.0000 0.0000 0.0000 44.5517
#
#
#
# Elastic Compliance Matrix: (Units=1/GPa)
#
#
# Indices 1 2 3 4 5 6 
#
# 1 0.007462 0.001464 -0.002062 0.000000 0.000000 0.000000
# 2 0.001464 0.009032 -0.002650 0.000000 0.000000 0.000000
# 3 -0.002062 -0.002650 0.008435 0.000000 0.000000 0.000000
# 4 0.000000 0.000000 0.000000 0.021310 0.000000 0.000000
# 5 0.000000 0.000000 0.000000 0.000000 -0.012883 0.000000
# 6 0.000000 0.000000 0.000000 0.000000 0.000000 0.022446
#
#
# Mechanical properties :
#
#
# Convention : Reuss Voigt Hill
#
# Bulk Modulus (GPa) = 54.25665 56.62143 55.43904
# Shear Modulus (GPa) = 73.05354 26.38865 49.72110
#
# Velocity S-wave (km/s) = 5.31573 3.19485 4.38543
# Velocity P-wave (km/s) = 7.65914 5.95907 6.86196
#
# Compressibility (1/GPa) = 0.01843092
#
# Stress axis : x y z
#
# Youngs Moduli (GPa) = 134.01448 110.72217 118.55568
#
# Poissons Ratio (x) = -0.16210 0.24452
# Poissons Ratio (y) = -0.19620 0.31420
# Poissons Ratio (z) = 0.27640 0.29344
#
# Static dielectric constant tensor:
#      x y z
#    x 2.045440 0.000000 0.000000 
#    y 0.000000 2.067390 0.000000 
#    z 0.000000 0.000000 1.991660 
# 
# From -- ./inp_files/27768.got.cif
#   From: 2010.05.17/outbox.cif.g08.bks.cpg/sg63_14_cif.got.tgz:27768.got - 2010.06.03 15:47:04.
