data_PCOD9475835
_publ_section_title
;
Structure prediction by ZEFSAII (Michael W. Deem and Ramdas Pophale) SiO2 
 PCOD9475835
Probable space group: C M C M
;
_chemical_formula_sum "Si O2"
_cell_formula_units_Z 68
_cell_length_a 22.397429
_cell_length_b 17.374200
_cell_length_c 8.730348
_cell_angle_alpha 90.000000
_cell_angle_beta 90.000000
_cell_angle_gamma 90.000000
_cell_volume 3397.305017
_symmetry_space_group_name_H-M "C M C M"
_symmetry_group_IT_number 63
_symmetry_cell_setting 'orthorhombic'
loop_
_space_group_symop_operation_xyz
x,y,z
-x,-y,1/2+z
x,-y,-z
-x,y,1/2-z
-x,-y,-z
x,y,1/2-z
-x,y,z
x,-y,1/2+z
1/2+x,1/2+y,z
1/2-x,1/2-y,1/2+z
1/2+x,1/2-y,-z
1/2-x,1/2+y,1/2-z
1/2-x,1/2-y,-z
1/2+x,1/2+y,1/2-z
1/2-x,1/2+y,z
1/2+x,1/2-y,1/2+z
loop_
_atom_site_type_symbol
_atom_site_label
_atom_site_fract_x
_atom_site_fract_y
_atom_site_fract_z
Si Si1 0.344904 0.583157 0.069754
Si Si2 0.723821 0.170057 0.430907
Si Si3 0.566214 0.294469 0.428760
Si Si4 0.904722 0.367214 0.067732
Si Si5 0.000000 0.500000 0.500000
O O1 0.358695 0.584280 0.250000
O O2 0.276197 0.607920 0.050657
O O3 0.355823 0.500000 0.000000
O O4 0.384698 0.646471 0.985748
O O5 0.712946 0.182320 0.250000
O O6 0.750000 0.250000 0.500000
O O7 0.663397 0.139149 0.508330
O O8 0.575534 0.275386 0.250000
O O9 0.500000 0.328336 0.445186
O O10 0.570058 0.216536 0.525100
O O11 0.905951 0.379730 0.250000
O O12 0.947226 0.432552 0.996745
#
# Coordination Sequence:
#
# PCOD9475835 Si02
#       5
#    16  16  16  16   4
#     4  11  25  44  68 100 137 179 229 287 350 414
#     4  11  24  43  70 103 138 181 233 289 351 421
#     4  11  24  43  70 100 134 177 226 282 346 417
#     4  12  26  45  70 100 139 186 235 289 351 420
#     4  12  30  48  68 106 148 192 242 294 358 436
#
# _framework density 20.015865999999999
#
# number of rings (size 3 to 8) (size 9 to 14) (size 15 to 20)
#    0.000    0.706    3.529    3.176    1.647    8.471 
#    0.000    0.000    0.000    0.000    0.000    0.000 
#    0.000    0.000    0.000    0.000    0.000    0.000 
#
# Total GULP energy -189586.944794 kJ/mol
# GULP energy per Si atom -5576.086612 kJ/mol
# Density = 1.997031 g / cm^3
# Si number density = 20.015866 Si / 1000 Ang^3
#
#
#
# Elastic Constant Matrix: (Units=GPa)
#
#
# Indices 1 2 3 4 5 6 
#
# 1 142.4647 36.5718 29.7028 0.0000 0.0000 0.0000
# 2 36.5718 118.2443 2.6146 0.0000 0.0000 0.0000
# 3 29.7028 2.6146 36.9875 0.0000 0.0000 0.0000
# 4 0.0000 0.0000 0.0000 15.6587 0.0000 0.0000
# 5 0.0000 0.0000 0.0000 0.0000 19.3847 0.0000
# 6 0.0000 0.0000 0.0000 0.0000 0.0000 55.2326
#
#
#
# Elastic Compliance Matrix: (Units=1/GPa)
#
#
# Indices 1 2 3 4 5 6 
#
# 1 0.009213 -0.002690 -0.007208 0.000000 0.000000 0.000000
# 2 -0.002690 0.009256 0.001506 0.000000 0.000000 0.000000
# 3 -0.007208 0.001506 0.032718 0.000000 0.000000 0.000000
# 4 0.000000 0.000000 0.000000 0.063862 0.000000 0.000000
# 5 0.000000 0.000000 0.000000 0.000000 0.051587 0.000000
# 6 0.000000 0.000000 0.000000 0.000000 0.000000 0.018105
#
#
# Mechanical properties :
#
#
# Convention : Reuss Voigt Hill
#
# Bulk Modulus (GPa) = 29.06784 48.38609 38.72696
# Shear Modulus (GPa) = 23.47500 33.30903 28.39201
#
# Velocity S-wave (km/s) = 3.42836 4.08380 3.77035
# Velocity P-wave (km/s) = 5.49777 6.81637 6.19227
#
# Compressibility (1/GPa) = 0.03440228
#
# Stress axis : x y z
#
# Youngs Moduli (GPa) = 108.54642 108.04078 30.56412
#
# Poissons Ratio (x) = 0.29063 0.22031
# Poissons Ratio (y) = 0.29199 -0.04603
# Poissons Ratio (z) = 0.78241 -0.16270
#
# Static dielectric constant tensor:
#      x y z
#    x 1.765540 0.000000 0.000000 
#    y 0.000000 1.653710 0.000000 
#    z 0.000000 0.000000 1.703690 
# 
# From -- ./inp_files/7612.got.cif
#   From: 2010.05.17/outbox.cif.g08.bks.cpg/sg63_4_cif.got.tgz:7612.got - 2010.06.03 15:47:04.
