data_PCOD9475403
_publ_section_title
;
Structure prediction by ZEFSAII (Michael W. Deem and Ramdas Pophale) SiO2 
 PCOD9475403
Probable space group: C M C M
;
_chemical_formula_sum "Si O2"
_cell_formula_units_Z 96
_cell_length_a 18.439334
_cell_length_b 13.164119
_cell_length_c 23.418037
_cell_angle_alpha 90.000000
_cell_angle_beta 90.000000
_cell_angle_gamma 90.000000
_cell_volume 5684.437795
_symmetry_space_group_name_H-M "C M C M"
_symmetry_group_IT_number 63
_symmetry_cell_setting 'orthorhombic'
loop_
_space_group_symop_operation_xyz
x,y,z
-x,-y,1/2+z
x,-y,-z
-x,y,1/2-z
-x,-y,-z
x,y,1/2-z
-x,y,z
x,-y,1/2+z
1/2+x,1/2+y,z
1/2-x,1/2-y,1/2+z
1/2+x,1/2-y,-z
1/2-x,1/2+y,1/2-z
1/2-x,1/2-y,-z
1/2+x,1/2+y,1/2-z
1/2-x,1/2+y,z
1/2+x,1/2-y,1/2+z
loop_
_atom_site_type_symbol
_atom_site_label
_atom_site_fract_x
_atom_site_fract_y
_atom_site_fract_z
Si Si1 0.413999 0.399479 0.318664
Si Si2 0.640795 0.012808 0.407449
Si Si3 0.413040 0.167906 0.185581
Si Si4 0.818142 0.172826 0.492313
Si Si5 0.916052 0.356680 0.010122
Si Si6 0.692768 0.509567 0.592928
O O1 0.406077 0.410974 0.250000
O O2 0.500000 0.412923 0.331687
O O3 0.392534 0.282345 0.333080
O O4 0.362156 0.471962 0.355167
O O5 0.610109 0.078744 0.356042
O O6 0.633310 0.087217 0.462547
O O7 0.722303 0.981573 0.392842
O O8 0.597720 0.914460 0.430153
O O9 0.385633 0.152006 0.250000
O O10 0.500000 0.169520 0.187571
O O11 0.750000 0.250000 0.500000
O O12 0.889050 0.242370 0.487925
O O13 0.813363 0.100125 0.437311
O O14 0.821830 0.096552 0.545721
O O15 0.000000 0.367225 0.993516
#
# Coordination Sequence:
#
# PCOD9475403 Si02
#       6
#    16  16  16  16  16  16
#     4   9  20  39  59  81 110 144 189 239 279 322
#     4  11  19  32  52  80 109 139 177 227 268 332
#     4   9  18  33  54  78 106 139 176 227 278 318
#     4  11  20  38  51  78 117 145 178 226 280 330
#     4  11  21  33  54  78 108 148 183 220 274 329
#     4  11  22  33  60  79 107 152 180 224 288 331
#
# _framework density 16.888213
#
# number of rings (size 3 to 8) (size 9 to 14) (size 15 to 20)
#    0.000    1.667    3.333    5.000    0.000    3.333 
#    0.000    1.667    0.000    1.000    0.000    2.333 
#    0.000    0.000    0.000    0.000    0.000    0.000 
#
# Total GULP energy -267596.153940 kJ/mol
# GULP energy per Si atom -5574.919874 kJ/mol
# Density = 1.684978 g / cm^3
# Si number density = 16.888213 Si / 1000 Ang^3
#
#
#
# Elastic Constant Matrix: (Units=GPa)
#
#
# Indices 1 2 3 4 5 6 
#
# 1 79.2558 31.1628 27.6898 0.0000 0.0000 0.0000
# 2 31.1628 92.6656 33.8756 0.0000 0.0000 0.0000
# 3 27.6898 33.8756 61.5739 0.0000 0.0000 0.0000
# 4 0.0000 0.0000 0.0000 25.4278 0.0000 0.0000
# 5 0.0000 0.0000 0.0000 0.0000 19.3542 0.0000
# 6 0.0000 0.0000 0.0000 0.0000 0.0000 19.6566
#
#
#
# Elastic Compliance Matrix: (Units=1/GPa)
#
#
# Indices 1 2 3 4 5 6 
#
# 1 0.015779 -0.003395 -0.005228 0.000000 0.000000 0.000000
# 2 -0.003395 0.014239 -0.006307 0.000000 0.000000 0.000000
# 3 -0.005228 -0.006307 0.022061 0.000000 0.000000 0.000000
# 4 0.000000 0.000000 0.000000 0.039327 0.000000 0.000000
# 5 0.000000 0.000000 0.000000 0.000000 0.051668 0.000000
# 6 0.000000 0.000000 0.000000 0.000000 0.000000 0.050874
#
#
# Mechanical properties :
#
#
# Convention : Reuss Voigt Hill
#
# Bulk Modulus (GPa) = 45.00590 46.55019 45.77804
# Shear Modulus (GPa) = 21.62496 22.27217 21.94857
#
# Velocity S-wave (km/s) = 3.58226 3.63547 3.60896
# Velocity P-wave (km/s) = 6.61946 6.72649 6.67319
#
# Compressibility (1/GPa) = 0.02221931
#
# Stress axis : x y z
#
# Youngs Moduli (GPa) = 63.37618 70.23035 45.32802
#
# Poissons Ratio (x) = 0.23844 0.23697
# Poissons Ratio (y) = 0.21517 0.28588
# Poissons Ratio (z) = 0.33132 0.44293
#
# Static dielectric constant tensor:
#      x y z
#    x 1.579350 0.000000 0.000000 
#    y 0.000000 1.581770 0.000000 
#    z 0.000000 0.000000 2.000450 
# 
# From -- ./inp_files/56561.got.cif
#   From: 2010.05.17/outbox.cif.g08.bks.cpg/sg63_29_cif.got.tgz:56561.got - 2010.06.03 15:47:04.
