data_PCOD9475270
_publ_section_title
;
Structure prediction by ZEFSAII (Michael W. Deem and Ramdas Pophale) SiO2 
 PCOD9475270
Probable space group: C M C M
;
_chemical_formula_sum "Si O2"
_cell_formula_units_Z 72
_cell_length_a 7.434492
_cell_length_b 18.344860
_cell_length_c 28.024294
_cell_angle_alpha 90.000000
_cell_angle_beta 90.000000
_cell_angle_gamma 90.000000
_cell_volume 3822.085348
_symmetry_space_group_name_H-M "C M C M"
_symmetry_group_IT_number 63
_symmetry_cell_setting 'orthorhombic'
loop_
_space_group_symop_operation_xyz
x,y,z
-x,-y,1/2+z
x,-y,-z
-x,y,1/2-z
-x,-y,-z
x,y,1/2-z
-x,y,z
x,-y,1/2+z
1/2+x,1/2+y,z
1/2-x,1/2-y,1/2+z
1/2+x,1/2-y,-z
1/2-x,1/2+y,1/2-z
1/2-x,1/2-y,-z
1/2+x,1/2+y,1/2-z
1/2-x,1/2+y,z
1/2+x,1/2-y,1/2+z
loop_
_atom_site_type_symbol
_atom_site_label
_atom_site_fract_x
_atom_site_fract_y
_atom_site_fract_z
Si Si1 0.715895 0.097160 0.048031
Si Si2 0.795816 0.405824 0.161515
Si Si3 0.000000 0.853562 0.621374
Si Si4 0.216129 0.575630 0.556453
Si Si5 0.000000 0.724680 0.696452
Si Si6 0.000000 0.014580 0.196316
O O1 0.500000 0.106894 0.052233
O O2 0.827668 0.141412 0.086712
O O3 0.755929 0.010890 0.056117
O O4 0.777072 0.110705 0.993305
O O5 0.726257 0.393922 0.107542
O O6 0.670612 0.462232 0.188110
O O7 0.000000 0.437151 0.157179
O O8 0.830780 0.329896 0.188262
O O9 0.000000 0.783787 0.655157
O O10 0.000000 0.923044 0.656571
O O11 0.000000 0.582042 0.554188
O O12 0.000000 0.753947 0.750000
O O13 0.000000 0.044113 0.250000
#
# Coordination Sequence:
#
# PCOD9475270 Si02
#       6
#    16  16   8  16   8   8
#     4   9  18  32  55  87 123 149 178 230 287 342
#     4   9  20  39  63  81 110 150 193 235 282 340
#     4  12  23  36  56  89 119 151 186 237 290 342
#     4   8  14  31  58  87 114 148 186 229 280 335
#     4  10  23  44  60  74 119 163 186 232 304 343
#     4  12  23  35  61  89 105 137 208 258 270 318
#
# _framework density 18.837883000000001
#
# number of rings (size 3 to 8) (size 9 to 14) (size 15 to 20)
#    0.667    1.778    2.222    2.333    0.000    2.667 
#    2.000    1.111    0.000    1.333    0.000    0.000 
#    0.000    0.000    0.000    0.000    0.000    0.000 
#
# Total GULP energy -200552.635713 kJ/mol
# GULP energy per Si atom -5570.906548 kJ/mol
# Density = 1.879501 g / cm^3
# Si number density = 18.837883 Si / 1000 Ang^3
#
#
#
# Elastic Constant Matrix: (Units=GPa)
#
#
# Indices 1 2 3 4 5 6 
#
# 1 71.4955 4.7581 17.3331 0.0000 0.0000 0.0000
# 2 4.7581 19.9938 -2.2226 0.0000 0.0000 0.0000
# 3 17.3331 -2.2226 124.2311 0.0000 0.0000 0.0000
# 4 0.0000 0.0000 0.0000 19.6965 0.0000 0.0000
# 5 0.0000 0.0000 0.0000 0.0000 -6.7226 0.0000
# 6 0.0000 0.0000 0.0000 0.0000 0.0000 3.2435
#
#
#
# Elastic Compliance Matrix: (Units=1/GPa)
#
#
# Indices 1 2 3 4 5 6 
#
# 1 0.014751 -0.003747 -0.002125 0.000000 0.000000 0.000000
# 2 -0.003747 0.051067 0.001436 0.000000 0.000000 0.000000
# 3 -0.002125 0.001436 0.008372 0.000000 0.000000 0.000000
# 4 0.000000 0.000000 0.000000 0.050770 0.000000 0.000000
# 5 0.000000 0.000000 0.000000 0.000000 -0.148753 0.000000
# 6 0.000000 0.000000 0.000000 0.000000 0.000000 0.308309
#
#
# Mechanical properties :
#
#
# Convention : Reuss Voigt Hill
#
# Bulk Modulus (GPa) = 15.30951 28.38418 21.84685
# Shear Modulus (GPa) = 15.86492 16.30028 16.08260
#
# Velocity S-wave (km/s) = 2.90518 2.94478 2.92505
# Velocity P-wave (km/s) = 4.40433 5.16358 4.79899
#
# Compressibility (1/GPa) = 0.06531886
#
# Stress axis : x y z
#
# Youngs Moduli (GPa) = 67.78987 19.58217 119.44963
#
# Poissons Ratio (x) = 0.07337 0.25385
# Poissons Ratio (y) = 0.25399 -0.17158
# Poissons Ratio (z) = 0.14407 -0.02813
#
# Static dielectric constant tensor:
#      x y z
#    x 1.694780 0.000000 0.000000 
#    y 0.000000 1.622910 0.000000 
#    z 0.000000 0.000000 1.685590 
# 
# From -- ./inp_files/59357.got.cif
#   From: 2010.05.17/outbox.cif.g08.bks.cpg/sg63_30_cif.got.tgz:59357.got - 2010.06.03 15:47:04.
