data_PCOD9475442
_publ_section_title
;
Structure prediction by ZEFSAII (Michael W. Deem and Ramdas Pophale) SiO2 
 PCOD9475442
Probable space group: C M C M
;
_chemical_formula_sum "Si O2"
_cell_formula_units_Z 88
_cell_length_a 25.903094
_cell_length_b 25.797207
_cell_length_c 7.747320
_cell_angle_alpha 90.000000
_cell_angle_beta 90.000000
_cell_angle_gamma 90.000000
_cell_volume 5176.972104
_symmetry_space_group_name_H-M "C M C M"
_symmetry_group_IT_number 63
_symmetry_cell_setting 'orthorhombic'
loop_
_space_group_symop_operation_xyz
x,y,z
-x,-y,1/2+z
x,-y,-z
-x,y,1/2-z
-x,-y,-z
x,y,1/2-z
-x,y,z
x,-y,1/2+z
1/2+x,1/2+y,z
1/2-x,1/2-y,1/2+z
1/2+x,1/2-y,-z
1/2-x,1/2+y,1/2-z
1/2-x,1/2-y,-z
1/2+x,1/2+y,1/2-z
1/2-x,1/2+y,z
1/2+x,1/2-y,1/2+z
loop_
_atom_site_type_symbol
_atom_site_label
_atom_site_fract_x
_atom_site_fract_y
_atom_site_fract_z
Si Si1 0.000000 0.059342 0.455868
Si Si2 0.332719 0.759147 0.957552
Si Si3 0.601264 0.383211 0.051241
Si Si4 0.242625 0.833716 0.540937
Si Si5 0.059164 0.771894 0.038853
Si Si6 0.203311 0.939801 0.945745
O O1 0.949558 0.082801 0.540838
O O2 0.000000 0.068827 0.250000
O O3 0.000000 0.000000 0.500000
O O4 0.333190 0.762388 0.750000
O O5 0.293024 0.802753 0.022993
O O6 0.392312 0.763835 0.014716
O O7 0.306282 0.703505 0.999587
O O8 0.618111 0.376120 0.250000
O O9 0.580583 0.328173 0.983543
O O10 0.646283 0.414554 0.957017
O O11 0.244853 0.835745 0.750000
O O12 0.236284 0.892320 0.471886
O O13 0.057136 0.772132 0.250000
O O14 0.000000 0.762684 0.980569
O O15 0.220953 0.942318 0.750000
O O16 0.203094 0.000000 0.000000
#
# Coordination Sequence:
#
# PCOD9475442 Si02
#       6
#     8  16  16  16  16  16
#     4  12  24  36  46  58  78 112 154 198 237 266
#     4   9  16  29  49  69  89 116 145 180 227 274
#     4  11  20  33  48  64  86 115 153 191 226 266
#     4   9  18  30  46  68  91 113 146 188 227 270
#     4   9  16  27  46  69  90 114 146 180 217 265
#     4  11  22  34  46  64  90 119 153 191 230 269
#
# _framework density 16.998353000000002
#
# number of rings (size 3 to 8) (size 9 to 14) (size 15 to 20)
#    0.000    2.000    2.727    2.455    0.000    0.727 
#    0.000    0.000    0.000    0.000    0.000    0.000 
#    0.000    0.727    0.000    0.545    0.000    1.091 
#
# Total GULP energy -245013.051705 kJ/mol
# GULP energy per Si atom -5568.478448 kJ/mol
# Density = 1.695966 g / cm^3
# Si number density = 16.998353 Si / 1000 Ang^3
#
#
#
# Elastic Constant Matrix: (Units=GPa)
#
#
# Indices 1 2 3 4 5 6 
#
# 1 135.2439 65.4563 -0.6941 0.0000 0.0000 0.0000
# 2 65.4563 90.4849 2.7244 0.0000 0.0000 0.0000
# 3 -0.6941 2.7244 32.4791 0.0000 0.0000 0.0000
# 4 0.0000 0.0000 0.0000 -4.9330 0.0000 0.0000
# 5 0.0000 0.0000 0.0000 0.0000 4.0488 0.0000
# 6 0.0000 0.0000 0.0000 0.0000 0.0000 29.8056
#
#
#
# Elastic Compliance Matrix: (Units=1/GPa)
#
#
# Indices 1 2 3 4 5 6 
#
# 1 0.011406 -0.008279 0.000938 0.000000 0.000000 0.000000
# 2 -0.008279 0.017089 -0.001610 0.000000 0.000000 0.000000
# 3 0.000938 -0.001610 0.030944 0.000000 0.000000 0.000000
# 4 0.000000 0.000000 0.000000 -0.202718 0.000000 0.000000
# 5 0.000000 0.000000 0.000000 0.000000 0.246988 0.000000
# 6 0.000000 0.000000 0.000000 0.000000 0.000000 0.033551
#
#
# Mechanical properties :
#
#
# Convention : Reuss Voigt Hill
#
# Bulk Modulus (GPa) = 24.07523 43.68680 33.88101
# Shear Modulus (GPa) = 29.58441 18.49903 24.04172
#
# Velocity S-wave (km/s) = 4.17637 3.30249 3.76487
# Velocity P-wave (km/s) = 6.11965 6.34810 6.23492
#
# Compressibility (1/GPa) = 0.04153647
#
# Stress axis : x y z
#
# Youngs Moduli (GPa) = 87.67392 58.51646 32.31626
#
# Poissons Ratio (x) = 0.48447 -0.03032
# Poissons Ratio (y) = 0.72587 0.05204
# Poissons Ratio (z) = -0.08226 0.09424
#
# Static dielectric constant tensor:
#      x y z
#    x 1.601190 0.000000 0.000000 
#    y 0.000000 1.599370 0.000000 
#    z 0.000000 0.000000 1.645460 
# 
# From -- ./inp_files/14791.got.cif
#   From: 2010.05.17/outbox.cif.g08.bks.cpg/sg63_8_cif.got.tgz:14791.got - 2010.06.03 15:47:04.
