data_PCOD9475701
_publ_section_title
;
Structure prediction by ZEFSAII (Michael W. Deem and Ramdas Pophale) SiO2 
 PCOD9475701
Probable space group: C M C M
;
_chemical_formula_sum "Si O2"
_cell_formula_units_Z 48
_cell_length_a 14.918455
_cell_length_b 9.129927
_cell_length_c 15.245662
_cell_angle_alpha 90.000000
_cell_angle_beta 90.000000
_cell_angle_gamma 90.000000
_cell_volume 2076.526323
_symmetry_space_group_name_H-M "C M C M"
_symmetry_group_IT_number 63
_symmetry_cell_setting 'orthorhombic'
loop_
_space_group_symop_operation_xyz
x,y,z
-x,-y,1/2+z
x,-y,-z
-x,y,1/2-z
-x,-y,-z
x,y,1/2-z
-x,y,z
x,-y,1/2+z
1/2+x,1/2+y,z
1/2-x,1/2-y,1/2+z
1/2+x,1/2-y,-z
1/2-x,1/2+y,1/2-z
1/2-x,1/2-y,-z
1/2+x,1/2+y,1/2-z
1/2-x,1/2+y,z
1/2+x,1/2-y,1/2+z
loop_
_atom_site_type_symbol
_atom_site_label
_atom_site_fract_x
_atom_site_fract_y
_atom_site_fract_z
Si Si1 0.836916 0.404081 0.651792
Si Si2 0.500000 0.292995 0.143378
Si Si3 0.000000 0.136291 0.141446
Si Si4 0.313558 0.774888 0.084576
O O1 0.864991 0.447840 0.750000
O O2 0.913681 0.298505 0.614078
O O3 0.747120 0.309335 0.655487
O O4 0.821405 0.552664 0.600124
O O5 0.500000 0.293655 0.250000
O O6 0.500000 0.462956 0.119888
O O7 0.912023 0.207099 0.097205
O O8 0.000000 0.154364 0.250000
O O9 0.250000 0.750000 0.000000
#
# Coordination Sequence:
#
# PCOD9475701 Si02
#       4
#    16   8   8  16
#     4  11  22  42  68  99 138 189 241 289 349 433
#     4   9  21  40  71 106 135 176 246 307 344 407
#     4  11  23  46  75 104 141 196 251 297 355 441
#     4  12  26  43  68 104 143 183 233 299 363 418
#
# _framework density 23.115527
#
# number of rings (size 3 to 8) (size 9 to 14) (size 15 to 20)
#    0.000    1.000    0.000    7.000    0.000    5.333 
#    0.000    8.333    0.000    0.000    0.000    0.000 
#    0.000    0.000    0.000    0.000    0.000    0.000 
#
# Total GULP energy -134197.615430 kJ/mol
# GULP energy per Si atom -5591.567310 kJ/mol
# Density = 2.306291 g / cm^3
# Si number density = 23.115527 Si / 1000 Ang^3
#
#
#
# Elastic Constant Matrix: (Units=GPa)
#
#
# Indices 1 2 3 4 5 6 
#
# 1 235.0746 97.1889 48.1557 0.0000 0.0000 0.0000
# 2 97.1889 205.7278 60.0384 0.0000 0.0000 0.0000
# 3 48.1557 60.0384 133.9069 0.0000 0.0000 0.0000
# 4 0.0000 0.0000 0.0000 38.6384 0.0000 0.0000
# 5 0.0000 0.0000 0.0000 0.0000 52.1176 0.0000
# 6 0.0000 0.0000 0.0000 0.0000 0.0000 -9.5814
#
#
#
# Elastic Compliance Matrix: (Units=1/GPa)
#
#
# Indices 1 2 3 4 5 6 
#
# 1 0.005382 -0.002276 -0.000915 0.000000 0.000000 0.000000
# 2 -0.002276 0.006555 -0.002120 0.000000 0.000000 0.000000
# 3 -0.000915 -0.002120 0.008748 0.000000 0.000000 0.000000
# 4 0.000000 0.000000 0.000000 0.025881 0.000000 0.000000
# 5 0.000000 0.000000 0.000000 0.000000 0.019187 0.000000
# 6 0.000000 0.000000 0.000000 0.000000 0.000000 -0.104369
#
#
# Mechanical properties :
#
#
# Convention : Reuss Voigt Hill
#
# Bulk Modulus (GPa) = 99.38408 109.49726 104.44067
# Shear Modulus (GPa) = -202.92740 40.85669 -81.03535
#
# Velocity S-wave (km/s) = -9.37971 4.20873 -5.92729
# Velocity P-wave (km/s) = 8.61495 8.43150 1.25043
#
# Compressibility (1/GPa) = 0.01006197
#
# Stress axis : x y z
#
# Youngs Moduli (GPa) = 185.79515 152.56398 114.31464
#
# Poissons Ratio (x) = 0.34717 0.10463
# Poissons Ratio (y) = 0.42279 0.24240
# Poissons Ratio (z) = 0.17006 0.32351
#
# Static dielectric constant tensor:
#      x y z
#    x 1.856240 0.000000 0.000000 
#    y 0.000000 1.778780 0.000000 
#    z 0.000000 0.000000 2.043030 
# 
# From -- ./inp_files/43205.got.cif
#   From: 2010.05.17/outbox.cif.g08.bks.cpg/sg63_22_cif.got.tgz:43205.got - 2010.06.03 15:47:04.
