data_PCOD9475546
_publ_section_title
;
Structure prediction by ZEFSAII (Michael W. Deem and Ramdas Pophale) SiO2 
 PCOD9475546
Probable space group: C M C M
;
_chemical_formula_sum "Si O2"
_cell_formula_units_Z 80
_cell_length_a 29.911841
_cell_length_b 7.746975
_cell_length_c 16.260613
_cell_angle_alpha 90.000000
_cell_angle_beta 90.000000
_cell_angle_gamma 90.000000
_cell_volume 3768.011433
_symmetry_space_group_name_H-M "C M C M"
_symmetry_group_IT_number 63
_symmetry_cell_setting 'orthorhombic'
loop_
_space_group_symop_operation_xyz
x,y,z
-x,-y,1/2+z
x,-y,-z
-x,y,1/2-z
-x,-y,-z
x,y,1/2-z
-x,y,z
x,-y,1/2+z
1/2+x,1/2+y,z
1/2-x,1/2-y,1/2+z
1/2+x,1/2-y,-z
1/2-x,1/2+y,1/2-z
1/2-x,1/2-y,-z
1/2+x,1/2+y,1/2-z
1/2-x,1/2+y,z
1/2+x,1/2-y,1/2+z
loop_
_atom_site_type_symbol
_atom_site_label
_atom_site_fract_x
_atom_site_fract_y
_atom_site_fract_z
Si Si1 0.220148 0.300959 0.420254
Si Si2 0.891069 0.677974 0.394913
Si Si3 0.119432 0.717064 0.909205
Si Si4 0.298549 0.851692 0.659534
Si Si5 0.449274 0.507717 0.600777
O O1 0.250000 0.250000 0.500000
O O2 0.171184 0.218505 0.408562
O O3 0.254371 0.260409 0.347404
O O4 0.207205 0.500167 0.408727
O O5 0.889998 0.474283 0.371690
O O6 0.889587 0.690526 0.493658
O O7 0.843797 0.748361 0.361573
O O8 0.930903 0.805572 0.370731
O O9 0.085700 0.859203 0.874601
O O10 0.303205 0.927444 0.750000
O O11 0.449530 0.500000 0.500000
O O12 0.500000 0.477579 0.628020
#
# Coordination Sequence:
#
# PCOD9475546 Si02
#       5
#    16  16  16  16  16
#     4  11  21  35  57  81 111 158 202 241 288 363
#     4   9  18  33  52  75 110 149 188 234 290 351
#     4   9  18  32  52  81 109 147 197 237 286 352
#     4  11  23  36  52  82 117 152 195 244 297 353
#     4   9  18  31  52  83 114 143 186 247 302 347
#
# _framework density 21.231356999999999
#
# number of rings (size 3 to 8) (size 9 to 14) (size 15 to 20)
#    0.000    2.200    2.000    1.200    2.800    2.400 
#    0.000    4.000    0.000    0.600    0.000    0.000 
#    0.000    0.000    0.000    0.000    0.000    0.000 
#
# Total GULP energy -222748.632054 kJ/mol
# GULP energy per Si atom -5568.715801 kJ/mol
# Density = 2.118303 g / cm^3
# Si number density = 21.231357 Si / 1000 Ang^3
#
#
#
# Elastic Constant Matrix: (Units=GPa)
#
#
# Indices 1 2 3 4 5 6 
#
# 1 198.1347 74.4360 11.3175 0.0000 0.0000 0.0000
# 2 74.4360 69.1135 12.7813 0.0000 0.0000 0.0000
# 3 11.3175 12.7813 47.5188 0.0000 0.0000 0.0000
# 4 0.0000 0.0000 0.0000 9.9040 0.0000 0.0000
# 5 0.0000 0.0000 0.0000 0.0000 -1.3404 0.0000
# 6 0.0000 0.0000 0.0000 0.0000 0.0000 38.2294
#
#
#
# Elastic Compliance Matrix: (Units=1/GPa)
#
#
# Indices 1 2 3 4 5 6 
#
# 1 0.008487 -0.009225 0.000460 0.000000 0.000000 0.000000
# 2 -0.009225 0.025254 -0.004596 0.000000 0.000000 0.000000
# 3 0.000460 -0.004596 0.022171 0.000000 0.000000 0.000000
# 4 0.000000 0.000000 0.000000 0.100969 0.000000 0.000000
# 5 0.000000 0.000000 0.000000 0.000000 -0.746028 0.000000
# 6 0.000000 0.000000 0.000000 0.000000 0.000000 0.026158
#
#
# Mechanical properties :
#
#
# Convention : Reuss Voigt Hill
#
# Bulk Modulus (GPa) = 34.25784 56.87074 45.56429
# Shear Modulus (GPa) = -9.49598 23.77408 7.13905
#
# Velocity S-wave (km/s) = -2.11715 3.34992 1.83570
# Velocity P-wave (km/s) = 3.19282 6.46583 5.09907
#
# Compressibility (1/GPa) = 0.02919039
#
# Stress axis : x y z
#
# Youngs Moduli (GPa) = 117.83357 39.59697 45.10438
#
# Poissons Ratio (x) = 0.36529 -0.02075
# Poissons Ratio (y) = 1.08704 0.20728
# Poissons Ratio (z) = -0.05421 0.18197
#
# Static dielectric constant tensor:
#      x y z
#    x 1.841340 0.000000 0.000000 
#    y 0.000000 1.843260 0.000000 
#    z 0.000000 0.000000 1.766620 
# 
# From -- ./inp_files/48812.got.cif
#   From: 2010.05.17/outbox.cif.g08.bks.cpg/sg63_25_cif.got.tgz:48812.got - 2010.06.03 15:47:04.
