data_PCOD9475227
_publ_section_title
;
Structure prediction by ZEFSAII (Michael W. Deem and Ramdas Pophale) SiO2 
 PCOD9475227
Probable space group: C M C M
;
_chemical_formula_sum "Si O2"
_cell_formula_units_Z 96
_cell_length_a 20.270865
_cell_length_b 17.195119
_cell_length_c 14.987138
_cell_angle_alpha 90.000000
_cell_angle_beta 90.000000
_cell_angle_gamma 90.000000
_cell_volume 5223.915861
_symmetry_space_group_name_H-M "C M C M"
_symmetry_group_IT_number 63
_symmetry_cell_setting 'orthorhombic'
loop_
_space_group_symop_operation_xyz
x,y,z
-x,-y,1/2+z
x,-y,-z
-x,y,1/2-z
-x,-y,-z
x,y,1/2-z
-x,y,z
x,-y,1/2+z
1/2+x,1/2+y,z
1/2-x,1/2-y,1/2+z
1/2+x,1/2-y,-z
1/2-x,1/2+y,1/2-z
1/2-x,1/2-y,-z
1/2+x,1/2+y,1/2-z
1/2-x,1/2+y,z
1/2+x,1/2-y,1/2+z
loop_
_atom_site_type_symbol
_atom_site_label
_atom_site_fract_x
_atom_site_fract_y
_atom_site_fract_z
Si Si1 0.182806 0.559027 0.750000
Si Si2 0.620458 0.454149 0.907252
Si Si3 0.573862 0.437222 0.250000
Si Si4 0.922824 0.778548 0.566752
Si Si5 0.809887 0.274898 0.565113
Si Si6 0.774315 0.452148 0.908315
Si Si7 0.921212 0.690070 0.750000
Si Si8 0.195428 0.180436 0.750000
O O1 0.189773 0.503953 0.664883
O O2 0.116863 0.609218 0.750000
O O3 0.243237 0.620724 0.750000
O O4 0.585190 0.507223 0.834608
O O5 0.588175 0.370224 0.919009
O O6 0.697325 0.443113 0.881586
O O7 0.618790 0.500000 0.000000
O O8 0.500000 0.405146 0.250000
O O9 0.629099 0.370949 0.250000
O O10 0.876185 0.749763 0.486854
O O11 0.903420 0.736664 0.659781
O O12 0.000000 0.763133 0.549523
O O13 0.750000 0.250000 0.500000
O O14 0.804859 0.367127 0.579685
O O15 0.803086 0.231364 0.659848
O O16 0.775687 0.500000 0.000000
O O17 0.000000 0.680695 0.750000
#
# Coordination Sequence:
#
# PCOD9475227 Si02
#       8
#     8  16   8  16  16  16   8   8
#     4  12  23  41  65  89 123 158 206 264 310 365
#     4  11  22  38  59  88 126 167 206 245 304 372
#     4  12  25  40  59  90 133 172 206 247 301 375
#     4  11  23  40  64  93 128 167 211 256 306 370
#     4  12  24  41  65  92 124 165 211 259 313 367
#     4  11  22  39  63  92 122 157 202 259 309 363
#     4  10  23  42  65  92 119 160 212 265 317 363
#     4  12  25  39  61  93 123 166 210 254 312 371
#
# _framework density 18.377019000000001
#
# number of rings (size 3 to 8) (size 9 to 14) (size 15 to 20)
#    0.000    0.667    3.333    5.500    0.000    4.000 
#    0.000    0.833    0.000    4.000    0.000    0.000 
#    0.000    0.000    0.000    0.000    0.000    0.000 
#
# Total GULP energy -268545.288819 kJ/mol
# GULP energy per Si atom -5594.693517 kJ/mol
# Density = 1.833519 g / cm^3
# Si number density = 18.377019 Si / 1000 Ang^3
#
#
#
# Elastic Constant Matrix: (Units=GPa)
#
#
# Indices 1 2 3 4 5 6 
#
# 1 51.8474 36.4508 39.8610 0.0000 0.0000 0.0000
# 2 36.4508 139.0162 62.7740 0.0000 0.0000 0.0000
# 3 39.8610 62.7740 131.3152 0.0000 0.0000 0.0000
# 4 0.0000 0.0000 0.0000 29.4056 0.0000 0.0000
# 5 0.0000 0.0000 0.0000 0.0000 19.0877 0.0000
# 6 0.0000 0.0000 0.0000 0.0000 0.0000 19.1991
#
#
#
# Elastic Compliance Matrix: (Units=1/GPa)
#
#
# Indices 1 2 3 4 5 6 
#
# 1 0.027048 -0.004316 -0.006147 0.000000 0.000000 0.000000
# 2 -0.004316 0.009862 -0.003404 0.000000 0.000000 0.000000
# 3 -0.006147 -0.003404 0.011109 0.000000 0.000000 0.000000
# 4 0.000000 0.000000 0.000000 0.034007 0.000000 0.000000
# 5 0.000000 0.000000 0.000000 0.000000 0.052390 0.000000
# 6 0.000000 0.000000 0.000000 0.000000 0.000000 0.052086
#
#
# Mechanical properties :
#
#
# Convention : Reuss Voigt Hill
#
# Bulk Modulus (GPa) = 49.30148 66.70561 58.00354
# Shear Modulus (GPa) = 22.62458 25.74467 24.18462
#
# Velocity S-wave (km/s) = 3.51256 3.74694 3.63164
# Velocity P-wave (km/s) = 6.58307 7.42271 7.01546
#
# Compressibility (1/GPa) = 0.02028337
#
# Stress axis : x y z
#
# Youngs Moduli (GPa) = 36.97149 101.39446 90.01981
#
# Poissons Ratio (x) = 0.43765 0.55336
# Poissons Ratio (y) = 0.15958 0.30647
# Poissons Ratio (z) = 0.22727 0.34519
#
# Static dielectric constant tensor:
#      x y z
#    x 1.627800 0.000000 0.000000 
#    y 0.000000 1.593560 0.000000 
#    z 0.000000 0.000000 1.613420 
# 
# From -- ./inp_files/35457.got.cif
#   From: 2010.05.17/outbox.cif.g08.bks.cpg/sg63_18_cif.got.tgz:35457.got - 2010.06.03 15:47:04.
