data_PCOD9475375
_publ_section_title
;
Structure prediction by ZEFSAII (Michael W. Deem and Ramdas Pophale) SiO2 
 PCOD9475375
Probable space group: C M C M
;
_chemical_formula_sum "Si O2"
_cell_formula_units_Z 68
_cell_length_a 19.810924
_cell_length_b 8.199465
_cell_length_c 20.606200
_cell_angle_alpha 90.000000
_cell_angle_beta 90.000000
_cell_angle_gamma 90.000000
_cell_volume 3347.250068
_symmetry_space_group_name_H-M "C M C M"
_symmetry_group_IT_number 63
_symmetry_cell_setting 'orthorhombic'
loop_
_space_group_symop_operation_xyz
x,y,z
-x,-y,1/2+z
x,-y,-z
-x,y,1/2-z
-x,-y,-z
x,y,1/2-z
-x,y,z
x,-y,1/2+z
1/2+x,1/2+y,z
1/2-x,1/2-y,1/2+z
1/2+x,1/2-y,-z
1/2-x,1/2+y,1/2-z
1/2-x,1/2-y,-z
1/2+x,1/2+y,1/2-z
1/2-x,1/2+y,z
1/2+x,1/2-y,1/2+z
loop_
_atom_site_type_symbol
_atom_site_label
_atom_site_fract_x
_atom_site_fract_y
_atom_site_fract_z
Si Si1 0.174535 0.190151 0.110318
Si Si2 0.075415 0.692268 0.000001
Si Si3 0.174536 0.809844 0.389681
Si Si4 0.390239 0.696357 0.750000
Si Si5 0.500000 0.000002 0.750000
Si Si6 0.609761 0.696352 0.250000
O O1 0.250000 0.249998 0.097467
O O2 0.153593 0.215601 0.184861
O O3 0.173689 0.999997 0.096544
O O4 0.118520 0.264917 0.063294
O O5 0.118520 0.735079 0.063296
O O6 0.000000 0.767078 0.000001
O O7 0.067790 0.500000 0.000000
O O8 0.153594 0.784395 0.315138
O O9 0.414087 0.500002 0.750000
O O10 0.442257 0.849326 0.750000
O O11 0.442257 0.150678 0.750000
#
# Coordination Sequence:
#
# PCOD9475375 Si02
#       6
#    16  16  16   8   4   8
#     4  11  24  44  69  97 135 176 225 281 335 402
#     4  11  26  43  66  97 133 175 228 275 339 412
#     4  11  24  44  69  97 135 176 225 281 335 402
#     4  10  26  44  69 106 137 178 228 277 337 404
#     4  12  26  40  76  96 152 176 216 278 348 398
#     4  10  26  44  69 106 137 178 228 277 337 404
#
# _framework density 20.315183999999999
#
# number of rings (size 3 to 8) (size 9 to 14) (size 15 to 20)
#    0.000    1.176    0.000    3.882    9.882    1.882 
#    0.000    0.000    0.000    0.000    0.000    0.000 
#    0.000    0.000    0.000    0.000    0.000    0.000 
#
# Total GULP energy -189269.226107 kJ/mol
# GULP energy per Si atom -5566.741944 kJ/mol
# Density = 2.026895 g / cm^3
# Si number density = 20.315184 Si / 1000 Ang^3
#
#
#
# Elastic Constant Matrix: (Units=GPa)
#
#
# Indices 1 2 3 4 5 6 
#
# 1 199.8990 76.6707 78.8079 0.0000 0.0000 0.0000
# 2 76.6707 122.2277 37.5133 0.0000 0.0000 0.0000
# 3 78.8079 37.5133 141.8620 0.0000 0.0000 0.0000
# 4 0.0000 0.0000 0.0000 22.7223 0.0000 0.0000
# 5 0.0000 0.0000 0.0000 0.0000 -1.9489 0.0000
# 6 0.0000 0.0000 0.0000 0.0000 0.0000 40.4024
#
#
#
# Elastic Compliance Matrix: (Units=1/GPa)
#
#
# Indices 1 2 3 4 5 6 
#
# 1 0.007790 -0.003873 -0.003304 0.000000 0.000000 0.000000
# 2 -0.003873 0.010829 -0.000712 0.000000 0.000000 0.000000
# 3 -0.003304 -0.000712 0.009073 0.000000 0.000000 0.000000
# 4 0.000000 0.000000 0.000000 0.044010 0.000000 0.000000
# 5 0.000000 0.000000 0.000000 0.000000 -0.513121 0.000000
# 6 0.000000 0.000000 0.000000 0.000000 0.000000 0.024751
#
#
# Mechanical properties :
#
#
# Convention : Reuss Voigt Hill
#
# Bulk Modulus (GPa) = 83.92713 94.44140 89.18426
# Shear Modulus (GPa) = -12.59704 30.30161 8.85228
#
# Velocity S-wave (km/s) = -2.49284 3.86628 2.08972
# Velocity P-wave (km/s) = 5.75469 8.15597 7.05820
#
# Compressibility (1/GPa) = 0.01191510
#
# Stress axis : x y z
#
# Youngs Moduli (GPa) = 128.36409 92.34164 110.22083
#
# Poissons Ratio (x) = 0.35762 0.36413
# Poissons Ratio (y) = 0.49713 0.07850
# Poissons Ratio (z) = 0.42407 0.06577
#
# Static dielectric constant tensor:
#      x y z
#    x 1.335800 0.000000 0.000000 
#    y 0.000000 1.727480 0.000000 
#    z 0.000000 0.000000 1.716600 
# 
# From -- ./inp_files/50521.got.cif
#   From: 2010.05.17/outbox.cif.g08.bks.cpg/sg63_26_cif.got.tgz:50521.got - 2010.06.03 15:47:04.
