data_PCOD9475894
_publ_section_title
;
Structure prediction by ZEFSAII (Michael W. Deem and Ramdas Pophale) SiO2 
 PCOD9475894
Probable space group: C M C M
;
_chemical_formula_sum "Si O2"
_cell_formula_units_Z 100
_cell_length_a 19.911217
_cell_length_b 33.731932
_cell_length_c 7.349761
_cell_angle_alpha 90.000000
_cell_angle_beta 90.000000
_cell_angle_gamma 90.000000
_cell_volume 4936.421539
_symmetry_space_group_name_H-M "C M C M"
_symmetry_group_IT_number 63
_symmetry_cell_setting 'orthorhombic'
loop_
_space_group_symop_operation_xyz
x,y,z
-x,-y,1/2+z
x,-y,-z
-x,y,1/2-z
-x,-y,-z
x,y,1/2-z
-x,y,z
x,-y,1/2+z
1/2+x,1/2+y,z
1/2-x,1/2-y,1/2+z
1/2+x,1/2-y,-z
1/2-x,1/2+y,1/2-z
1/2-x,1/2-y,-z
1/2+x,1/2+y,1/2-z
1/2-x,1/2+y,z
1/2+x,1/2-y,1/2+z
loop_
_atom_site_type_symbol
_atom_site_label
_atom_site_fract_x
_atom_site_fract_y
_atom_site_fract_z
Si Si1 0.500000 0.461487 0.750000
Si Si2 0.115655 0.061068 0.970039
Si Si3 0.576577 0.275874 0.468196
Si Si4 0.340982 0.351037 0.029946
Si Si5 0.691121 0.127667 0.972647
Si Si6 0.076188 0.313962 0.033863
Si Si7 0.732447 0.956508 0.034504
O O1 0.441343 0.458309 0.590426
O O2 0.106063 0.055834 0.750000
O O3 0.118825 0.108486 0.010318
O O4 0.189866 0.045963 0.025969
O O5 0.574162 0.279585 0.250000
O O6 0.500000 0.279493 0.536111
O O7 0.622696 0.311507 0.536539
O O8 0.600043 0.231287 0.507512
O O9 0.338730 0.349398 0.250000
O O10 0.263893 0.355540 0.970746
O O11 0.689765 0.128683 0.750000
O O12 0.629594 0.154394 0.037162
O O13 0.691686 0.081699 0.031950
O O14 0.071735 0.320197 0.250000
O O15 0.000000 0.317027 0.960593
O O16 0.736914 0.951375 0.250000
O O17 0.704346 0.000000 0.000000
#
# Coordination Sequence:
#
# PCOD9475894 Si02
#       7
#     4  16  16  16  16  16  16
#     4  12  22  32  54  78 102 144 176 226 260 322
#     4   9  20  36  51  73 103 139 179 220 270 310
#     4   9  17  28  44  65  91 131 170 204 251 302
#     4   8  15  30  49  67  92 131 176 215 250 300
#     4   8  15  30  51  73  94 127 166 199 253 310
#     4   9  17  30  47  70 100 130 161 202 248 307
#     4   9  18  34  58  75  95 127 162 211 254 306
#
# _framework density 20.25759
#
# number of rings (size 3 to 8) (size 9 to 14) (size 15 to 20)
#    0.000    3.200    0.000    2.160    2.240    0.640 
#    1.440    1.200    1.760    0.480    0.000    0.000 
#    0.000    0.000    0.000    0.000    0.000    0.000 
#
# Total GULP energy -278439.366785 kJ/mol
# GULP energy per Si atom -5568.787336 kJ/mol
# Density = 2.021148 g / cm^3
# Si number density = 20.257590 Si / 1000 Ang^3
#
#
#
# Elastic Constant Matrix: (Units=GPa)
#
#
# Indices 1 2 3 4 5 6 
#
# 1 68.0147 85.0454 14.2602 0.0000 0.0000 0.0000
# 2 85.0454 187.4462 7.8341 0.0000 0.0000 0.0000
# 3 14.2602 7.8341 88.7096 0.0000 0.0000 0.0000
# 4 0.0000 0.0000 0.0000 9.9154 0.0000 0.0000
# 5 0.0000 0.0000 0.0000 0.0000 -7.2452 0.0000
# 6 0.0000 0.0000 0.0000 0.0000 0.0000 -158.2444
#
#
#
# Elastic Compliance Matrix: (Units=1/GPa)
#
#
# Indices 1 2 3 4 5 6 
#
# 1 0.035546 -0.015948 -0.004306 0.000000 0.000000 0.000000
# 2 -0.015948 0.012509 0.001459 0.000000 0.000000 0.000000
# 3 -0.004306 0.001459 0.011836 0.000000 0.000000 0.000000
# 4 0.000000 0.000000 0.000000 0.100854 0.000000 0.000000
# 5 0.000000 0.000000 0.000000 0.000000 -0.138022 0.000000
# 6 0.000000 0.000000 0.000000 0.000000 0.000000 -0.006319
#
#
# Mechanical properties :
#
#
# Convention : Reuss Voigt Hill
#
# Bulk Modulus (GPa) = 44.83746 62.04999 53.44373
# Shear Modulus (GPa) = 81.39745 -15.31279 33.04233
#
# Velocity S-wave (km/s) = 6.34574 -2.75235 4.04308
# Velocity P-wave (km/s) = 8.71051 4.53832 6.94512
#
# Compressibility (1/GPa) = 0.02230278
#
# Stress axis : x y z
#
# Youngs Moduli (GPa) = 28.13234 79.93990 84.48753
#
# Poissons Ratio (x) = 1.27485 0.36378
# Poissons Ratio (y) = 0.44864 -0.12326
# Poissons Ratio (z) = 0.12113 -0.11662
#
# Static dielectric constant tensor:
#      x y z
#    x 1.684990 0.000000 0.000000 
#    y 0.000000 1.756760 0.000000 
#    z 0.000000 0.000000 1.791770 
# 
# From -- ./inp_files/9132.got.cif
#   From: 2010.05.17/outbox.cif.g08.bks.cpg/sg63_5_cif.got.tgz:9132.got - 2010.06.03 15:47:04.
