data_PCOD9475619
_publ_section_title
;
Structure prediction by ZEFSAII (Michael W. Deem and Ramdas Pophale) SiO2 
 PCOD9475619
Probable space group: C M C M
;
_chemical_formula_sum "Si O2"
_cell_formula_units_Z 96
_cell_length_a 8.543531
_cell_length_b 19.968237
_cell_length_c 30.040545
_cell_angle_alpha 90.000000
_cell_angle_beta 90.000000
_cell_angle_gamma 90.000000
_cell_volume 5124.894501
_symmetry_space_group_name_H-M "C M C M"
_symmetry_group_IT_number 63
_symmetry_cell_setting 'orthorhombic'
loop_
_space_group_symop_operation_xyz
x,y,z
-x,-y,1/2+z
x,-y,-z
-x,y,1/2-z
-x,-y,-z
x,y,1/2-z
-x,y,z
x,-y,1/2+z
1/2+x,1/2+y,z
1/2-x,1/2-y,1/2+z
1/2+x,1/2-y,-z
1/2-x,1/2+y,1/2-z
1/2-x,1/2-y,-z
1/2+x,1/2+y,1/2-z
1/2-x,1/2+y,z
1/2+x,1/2-y,1/2+z
loop_
_atom_site_type_symbol
_atom_site_label
_atom_site_fract_x
_atom_site_fract_y
_atom_site_fract_z
Si Si1 0.183698 0.313479 0.026186
Si Si2 0.688201 0.988489 0.878907
Si Si3 0.319616 0.567045 0.470537
Si Si4 0.190671 0.237988 0.800930
Si Si5 0.812239 0.139828 0.879682
Si Si6 0.309433 0.109085 0.300523
O O1 0.264326 0.326299 0.073746
O O2 0.000000 0.305677 0.033454
O O3 0.250000 0.250000 0.000000
O O4 0.218269 0.377481 0.995291
O O5 0.500000 0.987456 0.881136
O O6 0.743800 0.065120 0.877601
O O7 0.756369 0.952310 0.922321
O O8 0.741092 0.946073 0.835911
O O9 0.315621 0.500000 0.500000
O O10 0.500000 0.590088 0.468129
O O11 0.239442 0.222689 0.750000
O O12 0.242380 0.185268 0.838079
O O13 0.238635 0.314555 0.811582
O O14 0.000000 0.237378 0.801125
O O15 0.000000 0.135035 0.878249
O O16 0.259010 0.094422 0.250000
O O17 0.500000 0.109069 0.300657
#
# Coordination Sequence:
#
# PCOD9475619 Si02
#       6
#    16  16  16  16  16  16
#     4  12  26  43  63  88 120 156 197 242 292 354
#     4  11  22  35  58  88 117 156 198 241 294 353
#     4  11  23  41  63  86 118 157 196 243 295 347
#     4   8  16  33  57  83 112 150 196 244 293 346
#     4  11  22  37  58  86 120 155 196 245 294 348
#     4   8  16  33  56  84 115 148 193 244 292 348
#
# _framework density 18.732092000000002
#
# number of rings (size 3 to 8) (size 9 to 14) (size 15 to 20)
#    0.000    1.833    1.667    4.000    2.333    1.333 
#    0.000    0.000    0.000    3.000    0.000    9.333 
#    0.000    0.000    0.000    0.000    0.000    0.000 
#
# Total GULP energy -268069.321335 kJ/mol
# GULP energy per Si atom -5584.777528 kJ/mol
# Density = 1.868946 g / cm^3
# Si number density = 18.732092 Si / 1000 Ang^3
#
#
#
# Elastic Constant Matrix: (Units=GPa)
#
#
# Indices 1 2 3 4 5 6 
#
# 1 30.4908 -11.8702 0.5161 0.0000 0.0000 0.0000
# 2 -11.8702 61.6256 57.1317 0.0000 0.0000 0.0000
# 3 0.5161 57.1317 139.3019 0.0000 0.0000 0.0000
# 4 0.0000 0.0000 0.0000 40.2518 0.0000 0.0000
# 5 0.0000 0.0000 0.0000 0.0000 -12.8652 0.0000
# 6 0.0000 0.0000 0.0000 0.0000 0.0000 27.5477
#
#
#
# Elastic Compliance Matrix: (Units=1/GPa)
#
#
# Indices 1 2 3 4 5 6 
#
# 1 0.037499 0.011862 -0.005004 0.000000 0.000000 0.000000
# 2 0.011862 0.029934 -0.012321 0.000000 0.000000 0.000000
# 3 -0.005004 -0.012321 0.012250 0.000000 0.000000 0.000000
# 4 0.000000 0.000000 0.000000 0.024844 0.000000 0.000000
# 5 0.000000 0.000000 0.000000 0.000000 -0.077729 0.000000
# 6 0.000000 0.000000 0.000000 0.000000 0.000000 0.036301
#
#
# Mechanical properties :
#
#
# Convention : Reuss Voigt Hill
#
# Bulk Modulus (GPa) = 14.54367 35.88594 25.21480
# Shear Modulus (GPa) = 51.57635 23.36292 37.46964
#
# Velocity S-wave (km/s) = 5.25295 3.53542 4.47731
# Velocity P-wave (km/s) = 6.67624 5.98871 6.34180
#
# Compressibility (1/GPa) = 0.06875846
#
# Stress axis : x y z
#
# Youngs Moduli (GPa) = 26.66714 33.40668 81.63072
#
# Poissons Ratio (x) = -0.39627 0.40847
# Poissons Ratio (y) = -0.31633 1.00575
# Poissons Ratio (z) = 0.13344 0.41160
#
# Static dielectric constant tensor:
#      x y z
#    x 1.642830 0.000000 0.000000 
#    y 0.000000 1.619010 0.000000 
#    z 0.000000 0.000000 1.623850 
# 
# From -- ./inp_files/66941.got.cif
#   From: 2010.05.17/outbox.cif.g08.bks.cpg/sg63_34_cif.got.tgz:66941.got - 2010.06.03 15:47:04.
