data_PCOD9475196
_publ_section_title
;
Structure prediction by ZEFSAII (Michael W. Deem and Ramdas Pophale) SiO2 
 PCOD9475196
Probable space group: C M C M
;
_chemical_formula_sum "Si O2"
_cell_formula_units_Z 64
_cell_length_a 13.418162
_cell_length_b 12.071055
_cell_length_c 18.186196
_cell_angle_alpha 90.000000
_cell_angle_beta 90.000000
_cell_angle_gamma 90.000000
_cell_volume 2945.643109
_symmetry_space_group_name_H-M "C M C M"
_symmetry_group_IT_number 63
_symmetry_cell_setting 'orthorhombic'
loop_
_space_group_symop_operation_xyz
x,y,z
-x,-y,1/2+z
x,-y,-z
-x,y,1/2-z
-x,-y,-z
x,y,1/2-z
-x,y,z
x,-y,1/2+z
1/2+x,1/2+y,z
1/2-x,1/2-y,1/2+z
1/2+x,1/2-y,-z
1/2-x,1/2+y,1/2-z
1/2-x,1/2-y,-z
1/2+x,1/2+y,1/2-z
1/2-x,1/2+y,z
1/2+x,1/2-y,1/2+z
loop_
_atom_site_type_symbol
_atom_site_label
_atom_site_fract_x
_atom_site_fract_y
_atom_site_fract_z
Si Si1 0.111925 0.150035 0.036168
Si Si2 0.669606 0.877254 0.510815
Si Si3 0.620606 0.229946 0.166371
Si Si4 0.381128 0.515040 0.829625
O O1 0.212411 0.122146 0.991925
O O2 0.000000 0.123734 0.006981
O O3 0.129071 0.078954 0.109284
O O4 0.118277 0.283060 0.038695
O O5 0.657822 0.838739 0.595887
O O6 0.629752 0.000000 0.500000
O O7 0.647152 0.194165 0.250000
O O8 0.500000 0.226538 0.161909
O O9 0.654140 0.358571 0.158976
O O10 0.342858 0.477483 0.750000
O O11 0.500000 0.528291 0.824743
#
# Coordination Sequence:
#
# PCOD9475196 Si02
#       4
#    16  16  16  16
#     4  10  23  40  62  89 121 161 202 251 307 360
#     4  11  25  40  59  91 127 161 203 251 300 365
#     4   9  19  38  65  92 120 159 204 250 304 366
#     4   8  16  34  62  92 117 149 200 257 304 348
#
# _framework density 21.727003
#
# number of rings (size 3 to 8) (size 9 to 14) (size 15 to 20)
#    0.000    2.500    0.000    2.250    7.000    3.500 
#    0.000    1.250    0.000    3.000    0.000    0.000 
#    0.000    0.000    0.000    0.000    0.000    0.000 
#
# Total GULP energy -178319.186974 kJ/mol
# GULP energy per Si atom -5572.474593 kJ/mol
# Density = 2.167755 g / cm^3
# Si number density = 21.727003 Si / 1000 Ang^3
#
#
#
# Elastic Constant Matrix: (Units=GPa)
#
#
# Indices 1 2 3 4 5 6 
#
# 1 94.2979 17.4266 23.6895 0.0000 0.0000 0.0000
# 2 17.4266 183.6721 69.1279 0.0000 0.0000 0.0000
# 3 23.6895 69.1279 163.5942 0.0000 0.0000 0.0000
# 4 0.0000 0.0000 0.0000 21.7795 0.0000 0.0000
# 5 0.0000 0.0000 0.0000 0.0000 18.0625 0.0000
# 6 0.0000 0.0000 0.0000 0.0000 0.0000 5.6715
#
#
#
# Elastic Compliance Matrix: (Units=1/GPa)
#
#
# Indices 1 2 3 4 5 6 
#
# 1 0.011048 -0.000530 -0.001376 0.000000 0.000000 0.000000
# 2 -0.000530 0.006500 -0.002670 0.000000 0.000000 0.000000
# 3 -0.001376 -0.002670 0.007440 0.000000 0.000000 0.000000
# 4 0.000000 0.000000 0.000000 0.045915 0.000000 0.000000
# 5 0.000000 0.000000 0.000000 0.000000 0.055363 0.000000
# 6 0.000000 0.000000 0.000000 0.000000 0.000000 0.176319
#
#
# Mechanical properties :
#
#
# Convention : Reuss Voigt Hill
#
# Bulk Modulus (GPa) = 63.14633 73.56137 68.35385
# Shear Modulus (GPa) = 15.77211 31.19073 23.48142
#
# Velocity S-wave (km/s) = 2.69722 3.79301 3.29104
# Velocity P-wave (km/s) = 6.23110 7.28788 6.78011
#
# Compressibility (1/GPa) = 0.01583623
#
# Stress axis : x y z
#
# Youngs Moduli (GPa) = 90.51142 153.85627 134.40921
#
# Poissons Ratio (x) = 0.08162 0.18491
# Poissons Ratio (y) = 0.04801 0.35882
# Poissons Ratio (z) = 0.12452 0.41074
#
# Static dielectric constant tensor:
#      x y z
#    x 1.815600 0.000000 0.000000 
#    y 0.000000 1.839880 0.000000 
#    z 0.000000 0.000000 1.847530 
# 
# From -- ./inp_files/43436.got.cif
#   From: 2010.05.17/outbox.cif.g08.bks.cpg/sg63_22_cif.got.tgz:43436.got - 2010.06.03 15:47:04.
