data_PCOD9475520
_publ_section_title
;
Structure prediction by ZEFSAII (Michael W. Deem and Ramdas Pophale) SiO2 
 PCOD9475520
Probable space group: C M C M
;
_chemical_formula_sum "Si O2"
_cell_formula_units_Z 96
_cell_length_a 22.315987
_cell_length_b 8.865455
_cell_length_c 25.928475
_cell_angle_alpha 90.000000
_cell_angle_beta 90.000000
_cell_angle_gamma 90.000000
_cell_volume 5129.725237
_symmetry_space_group_name_H-M "C M C M"
_symmetry_group_IT_number 63
_symmetry_cell_setting 'orthorhombic'
loop_
_space_group_symop_operation_xyz
x,y,z
-x,-y,1/2+z
x,-y,-z
-x,y,1/2-z
-x,-y,-z
x,y,1/2-z
-x,y,z
x,-y,1/2+z
1/2+x,1/2+y,z
1/2-x,1/2-y,1/2+z
1/2+x,1/2-y,-z
1/2-x,1/2+y,1/2-z
1/2-x,1/2-y,-z
1/2+x,1/2+y,1/2-z
1/2-x,1/2+y,z
1/2+x,1/2-y,1/2+z
loop_
_atom_site_type_symbol
_atom_site_label
_atom_site_fract_x
_atom_site_fract_y
_atom_site_fract_z
Si Si1 0.667178 0.763504 0.308809
Si Si2 0.566353 0.676687 0.512596
Si Si3 0.776212 0.870842 0.538248
Si Si4 0.294623 0.114826 0.309220
Si Si5 0.849320 0.634150 0.088533
Si Si6 0.887104 0.703404 0.910106
O O1 0.647287 0.742358 0.250000
O O2 0.724924 0.656484 0.317797
O O3 0.613912 0.747944 0.350298
O O4 0.692972 0.935222 0.313766
O O5 0.573494 0.500000 0.500000
O O6 0.500000 0.700029 0.535583
O O7 0.616648 0.750863 0.550147
O O8 0.568967 0.751150 0.455872
O O9 0.750000 0.750000 0.500000
O O10 0.717347 0.916322 0.569951
O O11 0.826329 0.788067 0.571057
O O12 0.798620 0.000000 0.500000
O O13 0.308480 0.159741 0.250000
O O14 0.335763 0.190809 0.353421
O O15 0.884682 0.477357 0.089084
#
# Coordination Sequence:
#
# PCOD9475520 Si02
#       6
#    16  16  16  16  16  16
#     4   9  18  31  48  75 111 144 176 210 249 304
#     4  11  25  41  56  76 100 132 176 226 275 319
#     4  12  20  29  45  78 113 139 174 213 257 313
#     4   9  18  31  49  77 111 143 175 210 250 303
#     4  11  21  34  53  78 108 143 176 212 262 315
#     4  11  21  33  53  78 107 144 175 213 264 315
#
# _framework density 18.714452999999999
#
# number of rings (size 3 to 8) (size 9 to 14) (size 15 to 20)
#    0.000    1.500    5.000    1.000    0.000    2.667 
#    0.000    0.000    0.000    1.000    0.000    7.000 
#    0.000    0.000    0.000    0.000    0.000    0.000 
#
# Total GULP energy -267255.952925 kJ/mol
# GULP energy per Si atom -5567.832353 kJ/mol
# Density = 1.867186 g / cm^3
# Si number density = 18.714453 Si / 1000 Ang^3
#
#
#
# Elastic Constant Matrix: (Units=GPa)
#
#
# Indices 1 2 3 4 5 6 
#
# 1 58.4992 0.6094 16.7564 0.0000 0.0000 0.0000
# 2 0.6094 42.4162 21.8456 0.0000 0.0000 0.0000
# 3 16.7564 21.8456 121.7398 0.0000 0.0000 0.0000
# 4 0.0000 0.0000 0.0000 18.3634 0.0000 0.0000
# 5 0.0000 0.0000 0.0000 0.0000 11.6993 0.0000
# 6 0.0000 0.0000 0.0000 0.0000 0.0000 8.4273
#
#
#
# Elastic Compliance Matrix: (Units=1/GPa)
#
#
# Indices 1 2 3 4 5 6 
#
# 1 0.017843 0.001111 -0.002655 0.000000 0.000000 0.000000
# 2 0.001111 0.026046 -0.004827 0.000000 0.000000 0.000000
# 3 -0.002655 -0.004827 0.009446 0.000000 0.000000 0.000000
# 4 0.000000 0.000000 0.000000 0.054456 0.000000 0.000000
# 5 0.000000 0.000000 0.000000 0.000000 0.085475 0.000000
# 6 0.000000 0.000000 0.000000 0.000000 0.000000 0.118662
#
#
# Mechanical properties :
#
#
# Convention : Reuss Voigt Hill
#
# Bulk Modulus (GPa) = 24.63469 33.45313 29.04391
# Shear Modulus (GPa) = 14.78413 19.92759 17.35586
#
# Velocity S-wave (km/s) = 2.81372 3.26670 3.04863
# Velocity P-wave (km/s) = 4.87319 5.66947 5.28634
#
# Compressibility (1/GPa) = 0.04059316
#
# Stress axis : x y z
#
# Youngs Moduli (GPa) = 56.04352 38.39387 105.86637
#
# Poissons Ratio (x) = -0.04266 0.28111
# Poissons Ratio (y) = -0.06228 0.51099
# Poissons Ratio (z) = 0.14882 0.18532
#
# Static dielectric constant tensor:
#      x y z
#    x 1.448880 0.000000 0.000000 
#    y 0.000000 1.644940 0.000000 
#    z 0.000000 0.000000 1.727340 
# 
# From -- ./inp_files/70254.got.cif
#   From: 2010.05.17/outbox.cif.g08.bks.cpg/sg63_36_cif.got.tgz:70254.got - 2010.06.03 15:47:04.
