data_PCOD9475811
_publ_section_title
;
Structure prediction by ZEFSAII (Michael W. Deem and Ramdas Pophale) SiO2 
 PCOD9475811
Probable space group: C M C M
;
_chemical_formula_sum "Si O2"
_cell_formula_units_Z 80
_cell_length_a 8.997465
_cell_length_b 18.527769
_cell_length_c 25.653910
_cell_angle_alpha 90.000000
_cell_angle_beta 90.000000
_cell_angle_gamma 90.000000
_cell_volume 4276.582556
_symmetry_space_group_name_H-M "C M C M"
_symmetry_group_IT_number 63
_symmetry_cell_setting 'orthorhombic'
loop_
_space_group_symop_operation_xyz
x,y,z
-x,-y,1/2+z
x,-y,-z
-x,y,1/2-z
-x,-y,-z
x,y,1/2-z
-x,y,z
x,-y,1/2+z
1/2+x,1/2+y,z
1/2-x,1/2-y,1/2+z
1/2+x,1/2-y,-z
1/2-x,1/2+y,1/2-z
1/2-x,1/2-y,-z
1/2+x,1/2+y,1/2-z
1/2-x,1/2+y,z
1/2+x,1/2-y,1/2+z
loop_
_atom_site_type_symbol
_atom_site_label
_atom_site_fract_x
_atom_site_fract_y
_atom_site_fract_z
Si Si1 0.676529 0.661453 0.688877
Si Si2 0.822545 0.331044 0.810761
Si Si3 0.176820 0.578358 0.903994
Si Si4 0.823833 0.828137 0.004571
Si Si5 0.675252 0.577023 0.099208
O O1 0.704805 0.647467 0.750000
O O2 0.500000 0.650449 0.679626
O O3 0.708333 0.746268 0.679052
O O4 0.770472 0.611877 0.650840
O O5 0.787766 0.345357 0.750000
O O6 0.734280 0.381244 0.850114
O O7 0.000000 0.341470 0.817599
O O8 0.237547 0.497315 0.908276
O O9 0.000000 0.579766 0.908384
O O10 0.249699 0.627002 0.948977
O O11 0.802907 0.871864 0.950880
O O12 0.000000 0.820944 0.014229
O O13 0.750000 0.750000 0.000000
O O14 0.500000 0.561592 0.104019
#
# Coordination Sequence:
#
# PCOD9475811 Si02
#       5
#    16  16  16  16  16
#     4   9  19  38  63  88 117 155 196 240 291 345
#     4   9  19  37  61  88 117 151 192 237 286 342
#     4  12  25  39  59  87 119 156 195 239 292 345
#     4  11  24  42  64  89 117 150 192 240 290 348
#     4  11  24  40  59  85 117 154 194 238 289 343
#
# _framework density 18.706524999999999
#
# number of rings (size 3 to 8) (size 9 to 14) (size 15 to 20)
#    0.000    1.600    0.000    6.000    0.000   11.200 
#    0.000    2.000    0.000    0.000    0.000    0.000 
#    0.000    0.000    0.000    0.000    0.000    0.000 
#
# Total GULP energy -223696.627982 kJ/mol
# GULP energy per Si atom -5592.415700 kJ/mol
# Density = 1.866395 g / cm^3
# Si number density = 18.706525 Si / 1000 Ang^3
#
#
#
# Elastic Constant Matrix: (Units=GPa)
#
#
# Indices 1 2 3 4 5 6 
#
# 1 140.5067 112.5098 91.6981 0.0000 0.0000 0.0000
# 2 112.5098 142.7976 80.1330 0.0000 0.0000 0.0000
# 3 91.6981 80.1330 87.8510 0.0000 0.0000 0.0000
# 4 0.0000 0.0000 0.0000 102.4220 0.0000 0.0000
# 5 0.0000 0.0000 0.0000 0.0000 35.9812 0.0000
# 6 0.0000 0.0000 0.0000 0.0000 0.0000 32.4949
#
#
#
# Elastic Compliance Matrix: (Units=1/GPa)
#
#
# Indices 1 2 3 4 5 6 
#
# 1 0.030453 -0.012612 -0.020283 0.000000 0.000000 0.000000
# 2 -0.012612 0.019569 -0.004686 0.000000 0.000000 0.000000
# 3 -0.020283 -0.004686 0.036828 0.000000 0.000000 0.000000
# 4 0.000000 0.000000 0.000000 0.009764 0.000000 0.000000
# 5 0.000000 0.000000 0.000000 0.000000 0.027792 0.000000
# 6 0.000000 0.000000 0.000000 0.000000 0.000000 0.030774
#
#
# Mechanical properties :
#
#
# Convention : Reuss Voigt Hill
#
# Bulk Modulus (GPa) = 85.54767 104.42635 94.98701
# Shear Modulus (GPa) = 21.34587 39.96723 30.65655
#
# Velocity S-wave (km/s) = 3.38167 4.62729 4.05262
# Velocity P-wave (km/s) = 7.81526 9.19205 8.53147
#
# Compressibility (1/GPa) = 0.01168939
#
# Stress axis : x y z
#
# Youngs Moduli (GPa) = 32.83767 51.10024 27.15326
#
# Poissons Ratio (x) = 0.64447 0.55074
# Poissons Ratio (y) = 0.41414 0.12724
# Poissons Ratio (z) = 0.66603 0.23946
#
# Static dielectric constant tensor:
#      x y z
#    x 1.621450 0.000000 0.000000 
#    y 0.000000 1.612730 0.000000 
#    z 0.000000 0.000000 1.626890 
# 
# From -- ./inp_files/66629.got.cif
#   From: 2010.05.17/outbox.cif.g08.bks.cpg/sg63_34_cif.got.tgz:66629.got - 2010.06.03 15:47:04.
