data_PCOD9475988
_publ_section_title
;
Structure prediction by ZEFSAII (Michael W. Deem and Ramdas Pophale) SiO2 
 PCOD9475988
Probable space group: C M C M
;
_chemical_formula_sum "Si O2"
_cell_formula_units_Z 112
_cell_length_a 7.429979
_cell_length_b 24.325664
_cell_length_c 31.113713
_cell_angle_alpha 90.000000
_cell_angle_beta 90.000000
_cell_angle_gamma 90.000000
_cell_volume 5623.466747
_symmetry_space_group_name_H-M "C M C M"
_symmetry_group_IT_number 63
_symmetry_cell_setting 'orthorhombic'
loop_
_space_group_symop_operation_xyz
x,y,z
-x,-y,1/2+z
x,-y,-z
-x,y,1/2-z
-x,-y,-z
x,y,1/2-z
-x,y,z
x,-y,1/2+z
1/2+x,1/2+y,z
1/2-x,1/2-y,1/2+z
1/2+x,1/2-y,-z
1/2-x,1/2+y,1/2-z
1/2-x,1/2-y,-z
1/2+x,1/2+y,1/2-z
1/2-x,1/2+y,z
1/2+x,1/2-y,1/2+z
loop_
_atom_site_type_symbol
_atom_site_label
_atom_site_fract_x
_atom_site_fract_y
_atom_site_fract_z
Si Si1 0.715889 0.376667 0.509046
Si Si2 0.285132 0.007644 0.202283
Si Si3 0.707473 0.477583 0.941025
Si Si4 0.719280 0.099184 0.140300
Si Si5 0.215782 0.931599 0.378863
Si Si6 0.720189 0.676284 0.919484
Si Si7 0.785386 0.700259 0.091399
O O1 0.500000 0.382500 0.506015
O O2 0.784274 0.438024 0.521648
O O3 0.778841 0.349023 0.465156
O O4 0.753160 0.334329 0.547838
O O5 0.214024 0.996348 0.250000
O O6 0.500000 0.011919 0.205502
O O7 0.253349 0.961465 0.166042
O O8 0.221590 0.065761 0.182216
O O9 0.500000 0.489803 0.952042
O O10 0.712369 0.436620 0.899924
O O11 0.787234 0.532213 0.919284
O O12 0.500000 0.097792 0.138776
O O13 0.778376 0.161198 0.130373
O O14 0.273866 0.868819 0.384096
O O15 0.000000 0.932485 0.383424
O O16 0.500000 0.678469 0.920623
O O17 0.785922 0.738052 0.912018
O O18 0.000000 0.704886 0.096239
#
# Coordination Sequence:
#
# PCOD9475988 Si02
#       7
#    16  16  16  16  16  16  16
#     4   9  16  26  40  59  82 110 147 184 211 233
#     4   9  17  30  48  67  83  99 125 165 209 251
#     4   8  14  24  39  58  80 107 139 174 205 235
#     4   8  14  25  42  61  80 103 129 161 205 248
#     4   9  17  29  43  61  86 113 139 166 203 250
#     4   9  17  27  40  59  85 116 145 173 203 238
#     4   9  16  27  42  59  82 112 143 174 207 240
#
# _framework density 19.916540999999999
#
# number of rings (size 3 to 8) (size 9 to 14) (size 15 to 20)
#    0.000    3.286    0.000    0.429    0.000    0.857 
#    0.000    4.286    0.000    0.857    0.000   14.000 
#    0.000    0.000    0.000    0.000    0.000    0.000 
#
# Total GULP energy -312004.558573 kJ/mol
# GULP energy per Si atom -5571.509975 kJ/mol
# Density = 1.987121 g / cm^3
# Si number density = 19.916541 Si / 1000 Ang^3
#
#
#
# Elastic Constant Matrix: (Units=GPa)
#
#
# Indices 1 2 3 4 5 6 
#
# 1 64.3099 2.6491 -0.2046 0.0000 0.0000 0.0000
# 2 2.6491 162.6335 68.9533 0.0000 0.0000 0.0000
# 3 -0.2046 68.9533 114.8040 0.0000 0.0000 0.0000
# 4 0.0000 0.0000 0.0000 15.8377 0.0000 0.0000
# 5 0.0000 0.0000 0.0000 0.0000 9.9603 0.0000
# 6 0.0000 0.0000 0.0000 0.0000 0.0000 -73.0027
#
#
#
# Elastic Compliance Matrix: (Units=1/GPa)
#
#
# Indices 1 2 3 4 5 6 
#
# 1 0.015565 -0.000356 0.000242 0.000000 0.000000 0.000000
# 2 -0.000356 0.008258 -0.004960 0.000000 0.000000 0.000000
# 3 0.000242 -0.004960 0.011690 0.000000 0.000000 0.000000
# 4 0.000000 0.000000 0.000000 0.063141 0.000000 0.000000
# 5 0.000000 0.000000 0.000000 0.000000 0.100399 0.000000
# 6 0.000000 0.000000 0.000000 0.000000 0.000000 -0.013698
#
#
# Mechanical properties :
#
#
# Convention : Reuss Voigt Hill
#
# Bulk Modulus (GPa) = 39.42675 53.83811 46.63243
# Shear Modulus (GPa) = 24.51484 8.58235 16.54860
#
# Velocity S-wave (km/s) = 3.51219 2.07810 2.88566
# Velocity P-wave (km/s) = 6.02381 5.73137 5.87941
#
# Compressibility (1/GPa) = 0.02536349
#
# Stress axis : x y z
#
# Youngs Moduli (GPa) = 64.24616 121.09943 85.54175
#
# Poissons Ratio (x) = 0.04310 -0.02066
# Poissons Ratio (y) = 0.02287 0.42432
# Poissons Ratio (z) = -0.01552 0.60069
#
# Static dielectric constant tensor:
#      x y z
#    x 1.669330 0.000000 0.000000 
#    y 0.000000 1.742760 0.000000 
#    z 0.000000 0.000000 1.704290 
# 
# From -- ./inp_files/68756.got.cif
#   From: 2010.05.17/outbox.cif.g08.bks.cpg/sg63_35_cif.got.tgz:68756.got - 2010.06.03 15:47:04.
