data_PCOD9475101
_publ_section_title
;
Structure prediction by ZEFSAII (Michael W. Deem and Ramdas Pophale) SiO2 
 PCOD9475101
Probable space group: C M C M
;
_chemical_formula_sum "Si O2"
_cell_formula_units_Z 68
_cell_length_a 9.872338
_cell_length_b 17.266109
_cell_length_c 19.490940
_cell_angle_alpha 90.000000
_cell_angle_beta 90.000000
_cell_angle_gamma 90.000000
_cell_volume 3322.364509
_symmetry_space_group_name_H-M "C M C M"
_symmetry_group_IT_number 63
_symmetry_cell_setting 'orthorhombic'
loop_
_space_group_symop_operation_xyz
x,y,z
-x,-y,1/2+z
x,-y,-z
-x,y,1/2-z
-x,-y,-z
x,y,1/2-z
-x,y,z
x,-y,1/2+z
1/2+x,1/2+y,z
1/2-x,1/2-y,1/2+z
1/2+x,1/2-y,-z
1/2-x,1/2+y,1/2-z
1/2-x,1/2-y,-z
1/2+x,1/2+y,1/2-z
1/2-x,1/2+y,z
1/2+x,1/2-y,1/2+z
loop_
_atom_site_type_symbol
_atom_site_label
_atom_site_fract_x
_atom_site_fract_y
_atom_site_fract_z
Si Si1 0.153306 0.611369 0.831191
Si Si2 0.500000 0.000000 0.500000
Si Si3 0.841703 0.961647 0.670552
Si Si4 0.725235 0.127963 0.454642
Si Si5 0.353048 0.700230 0.581250
O O1 0.146410 0.625576 0.750000
O O2 0.245482 0.535737 0.841302
O O3 0.228677 0.680484 0.869111
O O4 0.000000 0.597776 0.857795
O O5 0.618570 0.063558 0.477944
O O6 0.821309 0.936786 0.750000
O O7 0.797888 0.899067 0.614841
O O8 0.000000 0.981661 0.662641
O O9 0.655873 0.211031 0.441844
O O10 0.830750 0.145110 0.515677
O O11 0.500000 0.685278 0.613341
#
# Coordination Sequence:
#
# PCOD9475101 Si02
#       5
#    16   4  16  16  16
#     4  10  23  41  65  96 132 176 225 279 341 405
#     4  12  24  44  64  96 132 174 218 274 336 398
#     4  10  22  42  67  97 133 176 228 283 340 408
#     4  11  25  40  67  97 135 175 226 278 338 399
#     4  11  24  42  64  97 135 177 226 279 336 407
#
# _framework density 20.467351000000001
#
# number of rings (size 3 to 8) (size 9 to 14) (size 15 to 20)
#    0.000    1.412    1.176    2.824    6.588    4.235 
#    0.000    5.882    0.000    0.000    0.000    0.000 
#    0.000    0.000    0.000    0.000    0.000    0.000 
#
# Total GULP energy -189529.991879 kJ/mol
# GULP energy per Si atom -5574.411526 kJ/mol
# Density = 2.042077 g / cm^3
# Si number density = 20.467351 Si / 1000 Ang^3
#
#
#
# Elastic Constant Matrix: (Units=GPa)
#
#
# Indices 1 2 3 4 5 6 
#
# 1 170.2485 57.7028 46.8785 0.0000 0.0000 0.0000
# 2 57.7028 101.9817 52.2635 0.0000 0.0000 0.0000
# 3 46.8785 52.2635 71.5406 0.0000 0.0000 0.0000
# 4 0.0000 0.0000 0.0000 17.0074 0.0000 0.0000
# 5 0.0000 0.0000 0.0000 0.0000 16.0124 0.0000
# 6 0.0000 0.0000 0.0000 0.0000 0.0000 -1.7214
#
#
#
# Elastic Compliance Matrix: (Units=1/GPa)
#
#
# Indices 1 2 3 4 5 6 
#
# 1 0.007639 -0.002808 -0.002954 0.000000 0.000000 0.000000
# 2 -0.002808 0.016706 -0.010364 0.000000 0.000000 0.000000
# 3 -0.002954 -0.010364 0.023485 0.000000 0.000000 0.000000
# 4 0.000000 0.000000 0.000000 0.058798 0.000000 0.000000
# 5 0.000000 0.000000 0.000000 0.000000 0.062452 0.000000
# 6 0.000000 0.000000 0.000000 0.000000 0.000000 -0.580933
#
#
# Mechanical properties :
#
#
# Convention : Reuss Voigt Hill
#
# Bulk Modulus (GPa) = 64.19674 73.05117 68.62395
# Shear Modulus (GPa) = -13.35445 18.72141 2.68348
#
# Velocity S-wave (km/s) = -2.55713 3.02768 1.14628
# Velocity P-wave (km/s) = 4.76602 6.92759 5.94586
#
# Compressibility (1/GPa) = 0.01557712
#
# Stress axis : x y z
#
# Youngs Moduli (GPa) = 130.90683 59.85781 42.57981
#
# Poissons Ratio (x) = 0.16811 0.12578
# Poissons Ratio (y) = 0.36764 0.44131
# Poissons Ratio (z) = 0.38669 0.62039
#
# Static dielectric constant tensor:
#      x y z
#    x 1.721720 0.000000 0.000000 
#    y 0.000000 1.710050 0.000000 
#    z 0.000000 0.000000 1.769170 
# 
# From -- ./inp_files/50494.got.cif
#   From: 2010.05.17/outbox.cif.g08.bks.cpg/sg63_26_cif.got.tgz:50494.got - 2010.06.03 15:47:04.
