data_PCOD9475254
_publ_section_title
;
Structure prediction by ZEFSAII (Michael W. Deem and Ramdas Pophale) SiO2 
 PCOD9475254
Probable space group: C M C M
;
_chemical_formula_sum "Si O2"
_cell_formula_units_Z 72
_cell_length_a 17.949740
_cell_length_b 24.035586
_cell_length_c 8.675824
_cell_angle_alpha 90.000000
_cell_angle_beta 90.000000
_cell_angle_gamma 90.000000
_cell_volume 3743.032607
_symmetry_space_group_name_H-M "C M C M"
_symmetry_group_IT_number 63
_symmetry_cell_setting 'orthorhombic'
loop_
_space_group_symop_operation_xyz
x,y,z
-x,-y,1/2+z
x,-y,-z
-x,y,1/2-z
-x,-y,-z
x,y,1/2-z
-x,y,z
x,-y,1/2+z
1/2+x,1/2+y,z
1/2-x,1/2-y,1/2+z
1/2+x,1/2-y,-z
1/2-x,1/2+y,1/2-z
1/2-x,1/2-y,-z
1/2+x,1/2+y,1/2-z
1/2-x,1/2+y,z
1/2+x,1/2-y,1/2+z
loop_
_atom_site_type_symbol
_atom_site_label
_atom_site_fract_x
_atom_site_fract_y
_atom_site_fract_z
Si Si1 0.913081 0.135284 0.936098
Si Si2 0.833651 0.251143 0.565006
Si Si3 0.216247 0.937937 0.566085
Si Si4 0.500000 0.061322 0.564850
Si Si5 0.144625 0.369466 0.435293
O O1 0.907472 0.130221 0.750000
O O2 0.878478 0.195482 0.978644
O O3 0.000000 0.131950 0.978240
O O4 0.862111 0.088157 0.012135
O O5 0.831192 0.253703 0.750000
O O6 0.750000 0.250000 0.500000
O O7 0.867481 0.307590 0.498115
O O8 0.220499 0.939566 0.750000
O O9 0.280626 0.897293 0.501552
O O10 0.226247 0.000000 0.500000
O O11 0.500000 0.059293 0.750000
O O12 0.574412 0.093373 0.517351
O O13 0.500000 0.000000 0.500000
O O14 0.150617 0.367913 0.250000
#
# Coordination Sequence:
#
# PCOD9475254 Si02
#       5
#    16  16  16   8  16
#     4  10  23  43  65  92 128 167 210 261 312 368
#     4  11  22  38  64  94 125 163 205 254 310 369
#     4  12  25  42  66  93 122 163 210 259 316 378
#     4  10  24  42  62  90 126 168 209 260 313 366
#     4  11  23  41  63  92 128 165 210 260 310 372
#
# _framework density 19.23574
#
# number of rings (size 3 to 8) (size 9 to 14) (size 15 to 20)
#    0.000    1.111    2.222    4.000    1.556    5.333 
#    0.000    0.000    0.000    0.000    0.000    0.000 
#    0.000    0.000    0.000    0.000    0.000    0.000 
#
# Total GULP energy -201359.631163 kJ/mol
# GULP energy per Si atom -5593.323088 kJ/mol
# Density = 1.919196 g / cm^3
# Si number density = 19.235740 Si / 1000 Ang^3
#
#
#
# Elastic Constant Matrix: (Units=GPa)
#
#
# Indices 1 2 3 4 5 6 
#
# 1 83.1356 -4.8567 20.5625 0.0000 0.0000 0.0000
# 2 -4.8567 78.0525 19.2436 0.0000 0.0000 0.0000
# 3 20.5625 19.2436 59.1758 0.0000 0.0000 0.0000
# 4 0.0000 0.0000 0.0000 38.9014 0.0000 0.0000
# 5 0.0000 0.0000 0.0000 0.0000 11.3340 0.0000
# 6 0.0000 0.0000 0.0000 0.0000 0.0000 35.1027
#
#
#
# Elastic Compliance Matrix: (Units=1/GPa)
#
#
# Indices 1 2 3 4 5 6 
#
# 1 0.013489 0.002169 -0.005392 0.000000 0.000000 0.000000
# 2 0.002169 0.014277 -0.005397 0.000000 0.000000 0.000000
# 3 -0.005392 -0.005397 0.020528 0.000000 0.000000 0.000000
# 4 0.000000 0.000000 0.000000 0.025706 0.000000 0.000000
# 5 0.000000 0.000000 0.000000 0.000000 0.088230 0.000000
# 6 0.000000 0.000000 0.000000 0.000000 0.000000 0.028488
#
#
# Mechanical properties :
#
#
# Convention : Reuss Voigt Hill
#
# Bulk Modulus (GPa) = 32.20250 32.25142 32.22696
# Shear Modulus (GPa) = 22.90328 29.42858 26.16593
#
# Velocity S-wave (km/s) = 3.45434 3.91563 3.69219
# Velocity P-wave (km/s) = 5.71728 6.10292 5.91324
#
# Compressibility (1/GPa) = 0.03105349
#
# Stress axis : x y z
#
# Youngs Moduli (GPa) = 74.13441 70.04106 48.71508
#
# Poissons Ratio (x) = -0.15191 0.26270
# Poissons Ratio (y) = -0.16079 0.26289
# Poissons Ratio (z) = 0.39977 0.37798
#
# Static dielectric constant tensor:
#      x y z
#    x 1.656910 0.000000 0.000000 
#    y 0.000000 1.648770 0.000000 
#    z 0.000000 0.000000 1.644760 
# 
# From -- ./inp_files/6106.got.cif
#   From: 2010.05.17/outbox.cif.g08.bks.cpg/sg63_4_cif.got.tgz:6106.got - 2010.06.03 15:47:04.
