data_PCOD9475902
_publ_section_title
;
Structure prediction by ZEFSAII (Michael W. Deem and Ramdas Pophale) SiO2 
 PCOD9475902
Probable space group: C M C M
;
_chemical_formula_sum "Si O2"
_cell_formula_units_Z 56
_cell_length_a 18.793956
_cell_length_b 9.805744
_cell_length_c 15.005743
_cell_angle_alpha 90.000000
_cell_angle_beta 90.000000
_cell_angle_gamma 90.000000
_cell_volume 2765.389189
_symmetry_space_group_name_H-M "C M C M"
_symmetry_group_IT_number 63
_symmetry_cell_setting 'orthorhombic'
loop_
_space_group_symop_operation_xyz
x,y,z
-x,-y,1/2+z
x,-y,-z
-x,y,1/2-z
-x,-y,-z
x,y,1/2-z
-x,y,z
x,-y,1/2+z
1/2+x,1/2+y,z
1/2-x,1/2-y,1/2+z
1/2+x,1/2-y,-z
1/2-x,1/2+y,1/2-z
1/2-x,1/2-y,-z
1/2+x,1/2+y,1/2-z
1/2-x,1/2+y,z
1/2+x,1/2-y,1/2+z
loop_
_atom_site_type_symbol
_atom_site_label
_atom_site_fract_x
_atom_site_fract_y
_atom_site_fract_z
Si Si1 0.764571 0.619967 0.941882
Si Si2 0.312022 0.618443 0.750000
Si Si3 0.580443 0.361272 0.750000
Si Si4 0.921159 0.371293 0.750000
Si Si5 0.421371 0.883893 0.109038
O O1 0.735600 0.620329 0.840341
O O2 0.849613 0.611780 0.944340
O O3 0.730827 0.500000 0.000000
O O4 0.750000 0.750000 0.000000
O O5 0.361264 0.481474 0.750000
O O6 0.361410 0.754690 0.750000
O O7 0.500000 0.419621 0.750000
O O8 0.585213 0.254272 0.668152
O O9 0.917967 0.478393 0.831607
O O10 0.000000 0.307059 0.750000
O O11 0.500000 0.878671 0.066657
#
# Coordination Sequence:
#
# PCOD9475902 Si02
#       5
#    16   8   8   8  16
#     4  12  26  41  62  94 123 158 208 249 300 370
#     4  12  23  40  63  88 130 164 188 256 315 342
#     4   9  18  35  62  90 117 160 204 237 301 374
#     4   9  18  35  64  94 117 158 210 245 295 362
#     4   9  19  38  61  86 120 159 201 250 298 354
#
# _framework density 20.250313999999999
#
# number of rings (size 3 to 8) (size 9 to 14) (size 15 to 20)
#    0.000    1.714    0.000    7.286    0.000    4.000 
#    0.000    2.857    0.000    7.714    0.000    0.000 
#    0.000    0.000    0.000    0.000    0.000    0.000 
#
# Total GULP energy -156095.243587 kJ/mol
# GULP energy per Si atom -5574.830128 kJ/mol
# Density = 2.020422 g / cm^3
# Si number density = 20.250314 Si / 1000 Ang^3
#
#
#
# Elastic Constant Matrix: (Units=GPa)
#
#
# Indices 1 2 3 4 5 6 
#
# 1 156.3472 60.2726 64.2940 0.0000 0.0000 0.0000
# 2 60.2726 145.2820 55.5705 0.0000 0.0000 0.0000
# 3 64.2940 55.5705 117.9685 0.0000 0.0000 0.0000
# 4 0.0000 0.0000 0.0000 17.8510 0.0000 0.0000
# 5 0.0000 0.0000 0.0000 0.0000 16.7210 0.0000
# 6 0.0000 0.0000 0.0000 0.0000 0.0000 32.9169
#
#
#
# Elastic Compliance Matrix: (Units=1/GPa)
#
#
# Indices 1 2 3 4 5 6 
#
# 1 0.008791 -0.002213 -0.003748 0.000000 0.000000 0.000000
# 2 -0.002213 0.008953 -0.003011 0.000000 0.000000 0.000000
# 3 -0.003748 -0.003011 0.011938 0.000000 0.000000 0.000000
# 4 0.000000 0.000000 0.000000 0.056019 0.000000 0.000000
# 5 0.000000 0.000000 0.000000 0.000000 0.059805 0.000000
# 6 0.000000 0.000000 0.000000 0.000000 0.000000 0.030380
#
#
# Mechanical properties :
#
#
# Convention : Reuss Voigt Hill
#
# Bulk Modulus (GPa) = 85.20593 86.65244 85.92919
# Shear Modulus (GPa) = 25.28521 29.46182 27.37352
#
# Velocity S-wave (km/s) = 3.53743 3.81843 3.68061
# Velocity P-wave (km/s) = 7.67152 7.89456 7.78384
#
# Compressibility (1/GPa) = 0.01173627
#
# Stress axis : x y z
#
# Youngs Moduli (GPa) = 113.75698 111.69249 83.76406
#
# Poissons Ratio (x) = 0.24719 0.31399
# Poissons Ratio (y) = 0.25176 0.25224
# Poissons Ratio (z) = 0.42641 0.33634
#
# Static dielectric constant tensor:
#      x y z
#    x 1.780910 0.000000 0.000000 
#    y 0.000000 1.733010 0.000000 
#    z 0.000000 0.000000 1.736530 
# 
# From -- ./inp_files/34815.got.cif
#   From: 2010.05.17/outbox.cif.g08.bks.cpg/sg63_18_cif.got.tgz:34815.got - 2010.06.03 15:47:04.
