data_PCOD9475415
_publ_section_title
;
Structure prediction by ZEFSAII (Michael W. Deem and Ramdas Pophale) SiO2 
 PCOD9475415
Probable space group: C M C M
;
_chemical_formula_sum "Si O2"
_cell_formula_units_Z 80
_cell_length_a 14.361295
_cell_length_b 13.120700
_cell_length_c 21.964564
_cell_angle_alpha 90.000000
_cell_angle_beta 90.000000
_cell_angle_gamma 90.000000
_cell_volume 4138.788139
_symmetry_space_group_name_H-M "C M C M"
_symmetry_group_IT_number 63
_symmetry_cell_setting 'orthorhombic'
loop_
_space_group_symop_operation_xyz
x,y,z
-x,-y,1/2+z
x,-y,-z
-x,y,1/2-z
-x,-y,-z
x,y,1/2-z
-x,y,z
x,-y,1/2+z
1/2+x,1/2+y,z
1/2-x,1/2-y,1/2+z
1/2+x,1/2-y,-z
1/2-x,1/2+y,1/2-z
1/2-x,1/2-y,-z
1/2+x,1/2+y,1/2-z
1/2-x,1/2+y,z
1/2+x,1/2-y,1/2+z
loop_
_atom_site_type_symbol
_atom_site_label
_atom_site_fract_x
_atom_site_fract_y
_atom_site_fract_z
Si Si1 0.000000 0.609356 0.393299
Si Si2 0.646990 0.934048 0.380710
Si Si3 0.000000 0.323486 0.466260
Si Si4 0.000000 0.086001 0.050551
Si Si5 0.650427 0.484564 0.368646
Si Si6 0.000000 0.176840 0.823997
Si Si7 0.389745 0.158041 0.750000
Si Si8 0.386779 0.599339 0.250000
O O1 0.089419 0.539304 0.378905
O O2 0.000000 0.632301 0.465648
O O3 0.000000 0.711601 0.353607
O O4 0.753261 0.952541 0.398746
O O5 0.588582 0.863037 0.427038
O O6 0.648846 0.886686 0.312896
O O7 0.000000 0.201666 0.470560
O O8 0.909998 0.059959 0.090230
O O9 0.000000 0.000000 0.000000
O O10 0.588329 0.387143 0.349250
O O11 0.662300 0.548884 0.307387
O O12 0.000000 0.179037 0.750000
O O13 0.500000 0.135475 0.750000
O O14 0.378325 0.279623 0.750000
O O15 0.500000 0.575741 0.250000
#
# Coordination Sequence:
#
# PCOD9475415 Si02
#       8
#     8  16   8   8  16   8   8   8
#     4  11  26  43  64  91 133 173 217 261 322 382
#     4  11  24  41  65  95 130 168 217 264 317 386
#     4  11  23  47  67  90 129 180 213 266 319 378
#     4  11  24  42  68  93 123 162 218 267 311 381
#     4  11  22  42  64  96 123 166 211 265 321 381
#     4  11  23  42  62  92 133 171 203 268 335 384
#     4  11  21  36  64  99 125 165 214 264 322 383
#     4  11  19  38  66  93 127 165 208 264 322 387
#
# _framework density 19.329329999999999
#
# number of rings (size 3 to 8) (size 9 to 14) (size 15 to 20)
#    0.000    1.000    5.000    4.200    1.400    4.800 
#    0.000    3.000    0.000    0.000    0.000    0.000 
#    0.000    0.000    0.000    0.000    0.000    0.000 
#
# Total GULP energy -223500.779716 kJ/mol
# GULP energy per Si atom -5587.519493 kJ/mol
# Density = 1.928534 g / cm^3
# Si number density = 19.329330 Si / 1000 Ang^3
#
#
#
# Elastic Constant Matrix: (Units=GPa)
#
#
# Indices 1 2 3 4 5 6 
#
# 1 118.2328 31.5486 7.8851 0.0000 0.0000 0.0000
# 2 31.5486 132.2368 28.4910 0.0000 0.0000 0.0000
# 3 7.8851 28.4910 71.7713 0.0000 0.0000 0.0000
# 4 0.0000 0.0000 0.0000 40.0501 0.0000 0.0000
# 5 0.0000 0.0000 0.0000 0.0000 -8.3794 0.0000
# 6 0.0000 0.0000 0.0000 0.0000 0.0000 -0.9666
#
#
#
# Elastic Compliance Matrix: (Units=1/GPa)
#
#
# Indices 1 2 3 4 5 6 
#
# 1 0.009034 -0.002123 -0.000150 0.000000 0.000000 0.000000
# 2 -0.002123 0.008768 -0.003248 0.000000 0.000000 0.000000
# 3 -0.000150 -0.003248 0.015239 0.000000 0.000000 0.000000
# 4 0.000000 0.000000 0.000000 0.024969 0.000000 0.000000
# 5 0.000000 0.000000 0.000000 0.000000 -0.119341 0.000000
# 6 0.000000 0.000000 0.000000 0.000000 0.000000 -1.034528
#
#
# Mechanical properties :
#
#
# Convention : Reuss Voigt Hill
#
# Bulk Modulus (GPa) = 45.45298 50.89894 48.17596
# Shear Modulus (GPa) = -4.64044 23.09524 9.22740
#
# Velocity S-wave (km/s) = -1.55111 3.46038 2.18727
# Velocity P-wave (km/s) = 4.51200 6.50809 5.59971
#
# Compressibility (1/GPa) = 0.02200076
#
# Stress axis : x y z
#
# Youngs Moduli (GPa) = 110.68807 114.04571 65.62211
#
# Poissons Ratio (x) = 0.24213 0.00983
# Poissons Ratio (y) = 0.23501 0.21311
# Poissons Ratio (z) = 0.01658 0.37037
#
# Static dielectric constant tensor:
#      x y z
#    x 1.869430 0.000000 0.000000 
#    y 0.000000 1.646220 0.000000 
#    z 0.000000 0.000000 1.637050 
# 
# From -- ./inp_files/62647.got.cif
#   From: 2010.05.17/outbox.cif.g08.bks.cpg/sg63_32_cif.got.tgz:62647.got - 2010.06.03 15:47:04.
