data_PCOD9475603
_publ_section_title
;
Structure prediction by ZEFSAII (Michael W. Deem and Ramdas Pophale) SiO2 
 PCOD9475603
Probable space group: C M C M
;
_chemical_formula_sum "Si O2"
_cell_formula_units_Z 64
_cell_length_a 27.960070
_cell_length_b 9.736819
_cell_length_c 12.984515
_cell_angle_alpha 90.000000
_cell_angle_beta 90.000000
_cell_angle_gamma 90.000000
_cell_volume 3534.932161
_symmetry_space_group_name_H-M "C M C M"
_symmetry_group_IT_number 63
_symmetry_cell_setting 'orthorhombic'
loop_
_space_group_symop_operation_xyz
x,y,z
-x,-y,1/2+z
x,-y,-z
-x,y,1/2-z
-x,-y,-z
x,y,1/2-z
-x,y,z
x,-y,1/2+z
1/2+x,1/2+y,z
1/2-x,1/2-y,1/2+z
1/2+x,1/2-y,-z
1/2-x,1/2+y,1/2-z
1/2-x,1/2-y,-z
1/2+x,1/2+y,1/2-z
1/2-x,1/2+y,z
1/2+x,1/2-y,1/2+z
loop_
_atom_site_type_symbol
_atom_site_label
_atom_site_fract_x
_atom_site_fract_y
_atom_site_fract_z
Si Si1 0.423347 0.961136 0.750000
Si Si2 0.327735 0.785244 0.750000
Si Si3 0.500000 0.115550 0.416731
Si Si4 0.500000 0.364919 0.928856
Si Si5 0.075840 0.203757 0.250000
Si Si6 0.755115 0.623762 0.423636
Si Si7 0.822634 0.953928 0.750000
O O1 0.375063 0.875814 0.750000
O O2 0.454005 0.909674 0.846731
O O3 0.420104 0.128441 0.750000
O O4 0.297279 0.833908 0.652380
O O5 0.332400 0.618864 0.750000
O O6 0.500000 0.251916 0.482240
O O7 0.500000 0.000000 0.500000
O O8 0.454813 0.343486 0.850923
O O9 0.500000 0.500000 0.000000
O O10 0.127774 0.131272 0.250000
O O11 0.766417 0.500000 0.500000
O O12 0.750000 0.750000 0.500000
O O13 0.709663 0.586056 0.350342
#
# Coordination Sequence:
#
# PCOD9475603 Si02
#       7
#     8   8   8   8   8  16   8
#     4  11  25  40  68  95 127 168 211 267 308 376
#     4  11  26  42  64  99 128 162 215 263 316 375
#     4  11  21  45  65  89 128 168 217 255 309 374
#     4  11  25  43  67  92 128 174 208 259 318 377
#     4  11  25  44  62  95 133 162 213 265 318 370
#     4  11  24  45  66  89 129 172 208 257 319 376
#     4  11  26  42  64  97 132 160 211 271 310 377
#
# _framework density 18.105014000000001
#
# number of rings (size 3 to 8) (size 9 to 14) (size 15 to 20)
#    0.000    1.000    5.000    0.750    7.000    5.000 
#    0.000    0.000    0.000    0.000    0.000    0.000 
#    0.000    0.000    0.000    0.000    0.000    0.000 
#
# Total GULP energy -178487.384046 kJ/mol
# GULP energy per Si atom -5577.730751 kJ/mol
# Density = 1.806381 g / cm^3
# Si number density = 18.105014 Si / 1000 Ang^3
#
#
#
# Elastic Constant Matrix: (Units=GPa)
#
#
# Indices 1 2 3 4 5 6 
#
# 1 170.4631 89.1904 88.4080 0.0000 0.0000 0.0000
# 2 89.1904 220.8470 105.0463 0.0000 0.0000 0.0000
# 3 88.4080 105.0463 178.5871 0.0000 0.0000 0.0000
# 4 0.0000 0.0000 0.0000 46.7753 0.0000 0.0000
# 5 0.0000 0.0000 0.0000 0.0000 -0.4435 0.0000
# 6 0.0000 0.0000 0.0000 0.0000 0.0000 30.9301
#
#
#
# Elastic Compliance Matrix: (Units=1/GPa)
#
#
# Indices 1 2 3 4 5 6 
#
# 1 0.008474 -0.001981 -0.003030 0.000000 0.000000 0.000000
# 2 -0.001981 0.006750 -0.002990 0.000000 0.000000 0.000000
# 3 -0.003030 -0.002990 0.008858 0.000000 0.000000 0.000000
# 4 0.000000 0.000000 0.000000 0.021379 0.000000 0.000000
# 5 0.000000 0.000000 0.000000 0.000000 -2.254640 0.000000
# 6 0.000000 0.000000 0.000000 0.000000 0.000000 0.032331
#
#
# Mechanical properties :
#
#
# Convention : Reuss Voigt Hill
#
# Bulk Modulus (GPa) = 123.74700 126.13186 124.93943
# Shear Modulus (GPa) = -2.31680 34.60253 16.14286
#
# Velocity S-wave (km/s) = -1.13244 4.37648 2.98925
# Velocity P-wave (km/s) = 8.17240 9.76505 9.00401
#
# Compressibility (1/GPa) = 0.00808100
#
# Stress axis : x y z
#
# Youngs Moduli (GPa) = 118.00280 148.14247 112.89323
#
# Poissons Ratio (x) = 0.29352 0.34204
# Poissons Ratio (y) = 0.23380 0.33752
# Poissons Ratio (z) = 0.35752 0.44290
#
# Static dielectric constant tensor:
#      x y z
#    x 1.634680 0.000000 0.000000 
#    y 0.000000 1.576030 0.000000 
#    z 0.000000 0.000000 1.476220 
# 
# From -- ./inp_files/25552.got.cif
#   From: 2010.05.17/outbox.cif.g08.bks.cpg/sg63_13_cif.got.tgz:25552.got - 2010.06.03 15:47:04.
