data_PCOD9475327
_publ_section_title
;
Structure prediction by ZEFSAII (Michael W. Deem and Ramdas Pophale) SiO2 
 PCOD9475327
Probable space group: C M C M
;
_chemical_formula_sum "Si O2"
_cell_formula_units_Z 52
_cell_length_a 8.256418
_cell_length_b 19.799893
_cell_length_c 14.916039
_cell_angle_alpha 90.000000
_cell_angle_beta 90.000000
_cell_angle_gamma 90.000000
_cell_volume 2438.417270
_symmetry_space_group_name_H-M "C M C M"
_symmetry_group_IT_number 63
_symmetry_cell_setting 'orthorhombic'
loop_
_space_group_symop_operation_xyz
x,y,z
-x,-y,1/2+z
x,-y,-z
-x,y,1/2-z
-x,-y,-z
x,y,1/2-z
-x,y,z
x,-y,1/2+z
1/2+x,1/2+y,z
1/2-x,1/2-y,1/2+z
1/2+x,1/2-y,-z
1/2-x,1/2+y,1/2-z
1/2-x,1/2-y,-z
1/2+x,1/2+y,1/2-z
1/2-x,1/2+y,z
1/2+x,1/2-y,1/2+z
loop_
_atom_site_type_symbol
_atom_site_label
_atom_site_fract_x
_atom_site_fract_y
_atom_site_fract_z
Si Si1 0.689739 0.295515 0.580565
Si Si2 0.000000 0.488718 0.110455
Si Si3 0.318123 0.275263 0.250000
Si Si4 0.176823 0.047790 0.412599
Si Si5 0.000000 0.370537 0.250000
O O1 0.500000 0.282374 0.599298
O O2 0.750000 0.250000 0.500000
O O3 0.793596 0.272656 0.664868
O O4 0.704409 0.374704 0.559798
O O5 0.166516 0.523529 0.140367
O O6 0.000000 0.415935 0.158716
O O7 0.000000 0.500000 0.000000
O O8 0.500000 0.305430 0.250000
O O9 0.167176 0.327576 0.250000
O O10 0.000000 0.044060 0.367451
O O11 0.167718 0.000000 0.500000
#
# Coordination Sequence:
#
# PCOD9475327 Si02
#       5
#    16   8   8  16   4
#     4  11  24  43  73 107 146 191 242 303 361 438
#     4  10  24  42  72  98 142 185 228 296 350 438
#     4  12  28  47  71 105 147 191 249 306 369 437
#     4   9  21  40  66 101 137 177 232 280 349 425
#     4  12  28  50  70 110 144 180 250 300 368 446
#
# _framework density 21.325306999999999
#
# number of rings (size 3 to 8) (size 9 to 14) (size 15 to 20)
#    0.000    1.538    1.538    0.923   12.923    2.462 
#    0.000    1.538    0.000    0.000    0.000    0.000 
#    0.000    0.000    0.000    0.000    0.000    0.000 
#
# Total GULP energy -145075.289723 kJ/mol
# GULP energy per Si atom -5579.818836 kJ/mol
# Density = 2.127677 g / cm^3
# Si number density = 21.325307 Si / 1000 Ang^3
#
#
#
# Elastic Constant Matrix: (Units=GPa)
#
#
# Indices 1 2 3 4 5 6 
#
# 1 199.6657 79.6822 14.3763 0.0000 0.0000 0.0000
# 2 79.6822 138.9891 46.8818 0.0000 0.0000 0.0000
# 3 14.3763 46.8818 119.0485 0.0000 0.0000 0.0000
# 4 0.0000 0.0000 0.0000 34.8946 0.0000 0.0000
# 5 0.0000 0.0000 0.0000 0.0000 9.8541 0.0000
# 6 0.0000 0.0000 0.0000 0.0000 0.0000 28.0456
#
#
#
# Elastic Compliance Matrix: (Units=1/GPa)
#
#
# Indices 1 2 3 4 5 6 
#
# 1 0.006559 -0.004028 0.000794 0.000000 0.000000 0.000000
# 2 -0.004028 0.010771 -0.003755 0.000000 0.000000 0.000000
# 3 0.000794 -0.003755 0.009783 0.000000 0.000000 0.000000
# 4 0.000000 0.000000 0.000000 0.028658 0.000000 0.000000
# 5 0.000000 0.000000 0.000000 0.000000 0.101481 0.000000
# 6 0.000000 0.000000 0.000000 0.000000 0.000000 0.035656
#
#
# Mechanical properties :
#
#
# Convention : Reuss Voigt Hill
#
# Bulk Modulus (GPa) = 76.13604 82.17601 79.15603
# Shear Modulus (GPa) = 23.66723 35.67639 29.67181
#
# Velocity S-wave (km/s) = 3.33501 4.09462 3.73418
# Velocity P-wave (km/s) = 7.11403 7.80850 7.46934
#
# Compressibility (1/GPa) = 0.01313438
#
# Stress axis : x y z
#
# Youngs Moduli (GPa) = 152.47028 92.84496 102.22011
#
# Poissons Ratio (x) = 0.37398 -0.08118
# Poissons Ratio (y) = 0.61414 0.38385
# Poissons Ratio (z) = -0.12109 0.34864
#
# Static dielectric constant tensor:
#      x y z
#    x 1.835600 0.000000 0.000000 
#    y 0.000000 1.715210 0.000000 
#    z 0.000000 0.000000 1.717640 
# 
# From -- ./inp_files/39555.got.cif
#   From: 2010.05.17/outbox.cif.g08.bks.cpg/sg63_20_cif.got.tgz:39555.got - 2010.06.03 15:47:04.
