data_PCOD9475703
_publ_section_title
;
Structure prediction by ZEFSAII (Michael W. Deem and Ramdas Pophale) SiO2 
 PCOD9475703
Probable space group: C M C M
;
_chemical_formula_sum "Si O2"
_cell_formula_units_Z 96
_cell_length_a 18.316335
_cell_length_b 9.854299
_cell_length_c 22.481295
_cell_angle_alpha 90.000000
_cell_angle_beta 90.000000
_cell_angle_gamma 90.000000
_cell_volume 4057.753285
_symmetry_space_group_name_H-M "C M C M"
_symmetry_group_IT_number 63
_symmetry_cell_setting 'orthorhombic'
loop_
_space_group_symop_operation_xyz
x,y,z
-x,-y,1/2+z
x,-y,-z
-x,y,1/2-z
-x,-y,-z
x,y,1/2-z
-x,y,z
x,-y,1/2+z
1/2+x,1/2+y,z
1/2-x,1/2-y,1/2+z
1/2+x,1/2-y,-z
1/2-x,1/2+y,1/2-z
1/2-x,1/2-y,-z
1/2+x,1/2+y,1/2-z
1/2-x,1/2+y,z
1/2+x,1/2-y,1/2+z
loop_
_atom_site_type_symbol
_atom_site_label
_atom_site_fract_x
_atom_site_fract_y
_atom_site_fract_z
Si Si1 0.913307 0.884248 0.400553
Si Si2 0.295907 0.213852 0.819033
Si Si3 0.911872 0.801609 0.602252
Si Si4 0.785187 0.451224 0.617243
Si Si5 0.139884 0.647462 0.011021
Si Si6 0.913887 0.654395 0.182667
O O1 0.887869 0.772743 0.448349
O O2 0.899830 0.809650 0.337642
O O3 0.000000 0.892860 0.408337
O O4 0.888895 0.039663 0.405001
O O5 0.287013 0.179949 0.750000
O O6 0.380127 0.246211 0.835689
O O7 0.254300 0.348412 0.838932
O O8 0.262916 0.099942 0.863145
O O9 0.867402 0.716223 0.553134
O O10 0.000000 0.789207 0.596044
O O11 0.788548 0.402439 0.548879
O O12 0.869888 0.439887 0.637950
O O13 0.101354 0.500000 0.000000
O O14 0.890816 0.630902 0.250000
O O15 0.000000 0.631188 0.177494
#
# Coordination Sequence:
#
# PCOD9475703 Si02
#       6
#    16  16  16  16  16  16
#     4   9  20  37  62  98 138 179 222 274 342 413
#     4  12  27  48  72 101 140 188 236 292 351 418
#     4  11  25  45  70 106 144 185 232 288 354 418
#     4  11  26  47  70 101 135 182 237 285 351 419
#     4  11  22  44  69 100 136 178 229 287 345 410
#     4   9  18  36  66 100 133 173 227 289 346 409
#
# _framework density 23.658411000000001
#
# number of rings (size 3 to 8) (size 9 to 14) (size 15 to 20)
#    0.000    1.500    1.667    2.500    4.667    5.667 
#    0.000    1.667    0.000    0.000    0.000    0.000 
#    0.000    0.000    0.000    0.000    0.000    0.000 
#
# Total GULP energy -267725.066145 kJ/mol
# GULP energy per Si atom -5577.605545 kJ/mol
# Density = 2.360456 g / cm^3
# Si number density = 23.658411 Si / 1000 Ang^3
#
#
#
# Elastic Constant Matrix: (Units=GPa)
#
#
# Indices 1 2 3 4 5 6 
#
# 1 61.2381 14.0996 20.1732 0.0000 0.0000 0.0000
# 2 14.0996 132.8004 -10.4968 0.0000 0.0000 0.0000
# 3 20.1732 -10.4968 60.5042 0.0000 0.0000 0.0000
# 4 0.0000 0.0000 0.0000 22.9251 0.0000 0.0000
# 5 0.0000 0.0000 0.0000 0.0000 20.3179 0.0000
# 6 0.0000 0.0000 0.0000 0.0000 0.0000 24.5669
#
#
#
# Elastic Compliance Matrix: (Units=1/GPa)
#
#
# Indices 1 2 3 4 5 6 
#
# 1 0.019176 -0.002577 -0.006841 0.000000 0.000000 0.000000
# 2 -0.002577 0.007981 0.002244 0.000000 0.000000 0.000000
# 3 -0.006841 0.002244 0.019198 0.000000 0.000000 0.000000
# 4 0.000000 0.000000 0.000000 0.043620 0.000000 0.000000
# 5 0.000000 0.000000 0.000000 0.000000 0.049218 0.000000
# 6 0.000000 0.000000 0.000000 0.000000 0.000000 0.040705
#
#
# Mechanical properties :
#
#
# Convention : Reuss Voigt Hill
#
# Bulk Modulus (GPa) = 31.24236 33.56609 32.40423
# Shear Modulus (GPa) = 24.40030 28.94642 26.67336
#
# Velocity S-wave (km/s) = 3.21496 3.50167 3.36137
# Velocity P-wave (km/s) = 5.19765 5.52879 5.36578
#
# Compressibility (1/GPa) = 0.03200782
#
# Stress axis : x y z
#
# Youngs Moduli (GPa) = 52.14717 125.29729 52.08906
#
# Poissons Ratio (x) = 0.32285 0.35633
# Poissons Ratio (y) = 0.13437 -0.11687
# Poissons Ratio (z) = 0.35673 -0.28113
#
# Static dielectric constant tensor:
#      x y z
#    x 1.963570 0.000000 0.000000 
#    y 0.000000 1.923250 0.000000 
#    z 0.000000 0.000000 1.912000 
# 
# From -- ./inp_files/64937.got.cif
#   From: 2010.05.17/outbox.cif.g08.bks.cpg/sg63_33_cif.got.tgz:64937.got - 2010.06.03 15:47:04.
