data_PCOD9475157
_publ_section_title
;
Structure prediction by ZEFSAII (Michael W. Deem and Ramdas Pophale) SiO2 
 PCOD9475157
Probable space group: C M C M
;
_chemical_formula_sum "Si O2"
_cell_formula_units_Z 60
_cell_length_a 11.333120
_cell_length_b 19.861775
_cell_length_c 14.277751
_cell_angle_alpha 90.000000
_cell_angle_beta 90.000000
_cell_angle_gamma 90.000000
_cell_volume 3213.862918
_symmetry_space_group_name_H-M "C M C M"
_symmetry_group_IT_number 63
_symmetry_cell_setting 'orthorhombic'
loop_
_space_group_symop_operation_xyz
x,y,z
-x,-y,1/2+z
x,-y,-z
-x,y,1/2-z
-x,-y,-z
x,y,1/2-z
-x,y,z
x,-y,1/2+z
1/2+x,1/2+y,z
1/2-x,1/2-y,1/2+z
1/2+x,1/2-y,-z
1/2-x,1/2+y,1/2-z
1/2-x,1/2-y,-z
1/2+x,1/2+y,1/2-z
1/2-x,1/2+y,z
1/2+x,1/2-y,1/2+z
loop_
_atom_site_type_symbol
_atom_site_label
_atom_site_fract_x
_atom_site_fract_y
_atom_site_fract_z
Si Si1 0.140858 0.252114 0.250000
Si Si2 0.000000 0.636699 0.143180
Si Si3 0.140643 0.931851 0.445801
Si Si4 0.500000 0.003190 0.250000
Si Si5 0.249816 0.686108 0.432808
Si Si6 0.772593 0.592713 0.750000
O O1 0.186513 0.210735 0.160935
O O2 0.192142 0.328251 0.250000
O O3 0.000000 0.256911 0.250000
O O4 0.117986 0.660696 0.091682
O O5 0.000000 0.665559 0.250000
O O6 0.000000 0.556047 0.162755
O O7 0.180791 0.871901 0.513330
O O8 0.200885 0.923359 0.344678
O O9 0.000000 0.931465 0.433380
O O10 0.174890 0.000000 0.500000
O O11 0.613138 0.955421 0.250000
O O12 0.250000 0.750000 0.500000
#
# Coordination Sequence:
#
# PCOD9475157 Si02
#       6
#     8   8  16   4  16   8
#     4  12  25  43  64 101 137 173 222 280 343 405
#     4  10  24  45  68  98 134 184 229 277 350 414
#     4  11  26  45  69 101 137 182 230 279 345 413
#     4  10  22  44  70  96 136 180 226 280 352 408
#     4  12  25  43  70  99 136 180 227 284 343 411
#     4  12  23  43  70 100 141 174 230 288 341 407
#
# _framework density 18.669122999999999
#
# number of rings (size 3 to 8) (size 9 to 14) (size 15 to 20)
#    0.400    0.267    4.667    2.800    3.733    2.133 
#    2.400    4.000    0.000    0.000    0.000    0.000 
#    0.000    0.000    0.000    0.000    0.000    0.000 
#
# Total GULP energy -167673.061571 kJ/mol
# GULP energy per Si atom -5589.102052 kJ/mol
# Density = 1.862663 g / cm^3
# Si number density = 18.669123 Si / 1000 Ang^3
#
#
#
# Elastic Constant Matrix: (Units=GPa)
#
#
# Indices 1 2 3 4 5 6 
#
# 1 110.7981 66.1964 74.8273 0.0000 0.0000 0.0000
# 2 66.1964 179.8403 94.5881 0.0000 0.0000 0.0000
# 3 74.8273 94.5881 186.2732 0.0000 0.0000 0.0000
# 4 0.0000 0.0000 0.0000 5.9632 0.0000 0.0000
# 5 0.0000 0.0000 0.0000 0.0000 33.7793 0.0000
# 6 0.0000 0.0000 0.0000 0.0000 0.0000 27.2342
#
#
#
# Elastic Compliance Matrix: (Units=1/GPa)
#
#
# Indices 1 2 3 4 5 6 
#
# 1 0.013386 -0.002864 -0.003923 0.000000 0.000000 0.000000
# 2 -0.002864 0.008199 -0.003013 0.000000 0.000000 0.000000
# 3 -0.003923 -0.003013 0.008474 0.000000 0.000000 0.000000
# 4 0.000000 0.000000 0.000000 0.167694 0.000000 0.000000
# 5 0.000000 0.000000 0.000000 0.000000 0.029604 0.000000
# 6 0.000000 0.000000 0.000000 0.000000 0.000000 0.036719
#
#
# Mechanical properties :
#
#
# Convention : Reuss Voigt Hill
#
# Bulk Modulus (GPa) = 95.60485 105.34835 100.47660
# Shear Modulus (GPa) = 17.41176 29.48200 23.44688
#
# Velocity S-wave (km/s) = 3.05724 3.97821 3.54774
# Velocity P-wave (km/s) = 7.98647 8.81211 8.40942
#
# Compressibility (1/GPa) = 0.01045972
#
# Stress axis : x y z
#
# Youngs Moduli (GPa) = 74.70639 121.96001 118.00231
#
# Poissons Ratio (x) = 0.34927 0.46292
# Poissons Ratio (y) = 0.21394 0.35556
# Poissons Ratio (z) = 0.29307 0.36749
#
# Static dielectric constant tensor:
#      x y z
#    x 1.613310 0.000000 0.000000 
#    y 0.000000 1.589760 0.000000 
#    z 0.000000 0.000000 1.564490 
# 
# From -- ./inp_files/17185.got.cif
#   From: 2010.05.17/outbox.cif.g08.bks.cpg/sg63_9_cif.got.tgz:17185.got - 2010.06.03 15:47:04.
