data_PCOD9475016
_publ_section_title
;
Structure prediction by ZEFSAII (Michael W. Deem and Ramdas Pophale) SiO2 
 PCOD9475016
Probable space group: C M C M
;
_chemical_formula_sum "Si O2"
_cell_formula_units_Z 56
_cell_length_a 20.198827
_cell_length_b 7.905339
_cell_length_c 13.715186
_cell_angle_alpha 90.000000
_cell_angle_beta 90.000000
_cell_angle_gamma 90.000000
_cell_volume 2190.021354
_symmetry_space_group_name_H-M "C M C M"
_symmetry_group_IT_number 63
_symmetry_cell_setting 'orthorhombic'
loop_
_space_group_symop_operation_xyz
x,y,z
-x,-y,1/2+z
x,-y,-z
-x,y,1/2-z
-x,-y,-z
x,y,1/2-z
-x,y,z
x,-y,1/2+z
1/2+x,1/2+y,z
1/2-x,1/2-y,1/2+z
1/2+x,1/2-y,-z
1/2-x,1/2+y,1/2-z
1/2-x,1/2-y,-z
1/2+x,1/2+y,1/2-z
1/2-x,1/2+y,z
1/2+x,1/2-y,1/2+z
loop_
_atom_site_type_symbol
_atom_site_label
_atom_site_fract_x
_atom_site_fract_y
_atom_site_fract_z
Si Si1 0.500000 0.199863 0.132279
Si Si2 0.000000 0.911093 0.869041
Si Si3 0.250000 0.750000 0.000000
Si Si4 0.146372 0.199788 0.136258
Si Si5 0.355936 0.096319 0.136700
O O1 0.500000 0.206158 0.250000
O O2 0.500000 0.393693 0.099240
O O3 0.432721 0.106864 0.106943
O O4 0.070841 0.830925 0.896493
O O5 0.000000 0.903002 0.750000
O O6 0.293645 0.625122 0.075611
O O7 0.184528 0.714223 0.065867
O O8 0.149853 0.149400 0.250000
O O9 0.164156 0.400176 0.129021
O O10 0.349430 0.148096 0.250000
#
# Coordination Sequence:
#
# PCOD9475016 Si02
#       5
#     8   8   8  16  16
#     4   9  19  38  65  92 119 157 206 258 307 359
#     4   9  19  38  65  92 119 157 206 258 307 359
#     4  12  24  38  60  92 124 162 208 254 300 364
#     4  10  22  41  64  90 123 163 206 254 309 368
#     4  10  22  41  64  90 123 163 206 254 309 368
#
# _framework density 25.570526000000001
#
# number of rings (size 3 to 8) (size 9 to 14) (size 15 to 20)
#    0.000    2.000    0.000    2.571    0.000    9.143 
#    0.000   10.000    0.000    0.000    0.000    0.000 
#    0.000    0.000    0.000    0.000    0.000    0.000 
#
# Total GULP energy -155876.484857 kJ/mol
# GULP energy per Si atom -5567.017316 kJ/mol
# Density = 2.551233 g / cm^3
# Si number density = 25.570526 Si / 1000 Ang^3
#
#
#
# Elastic Constant Matrix: (Units=GPa)
#
#
# Indices 1 2 3 4 5 6 
#
# 1 103.3040 0.1844 32.1675 0.0000 0.0000 0.0000
# 2 0.1844 50.1821 1.7395 0.0000 0.0000 0.0000
# 3 32.1675 1.7395 128.6894 0.0000 0.0000 0.0000
# 4 0.0000 0.0000 0.0000 38.2443 0.0000 0.0000
# 5 0.0000 0.0000 0.0000 0.0000 46.8782 0.0000
# 6 0.0000 0.0000 0.0000 0.0000 0.0000 -455.6267
#
#
#
# Elastic Compliance Matrix: (Units=1/GPa)
#
#
# Indices 1 2 3 4 5 6 
#
# 1 0.010497 0.000052 -0.002625 0.000000 0.000000 0.000000
# 2 0.000052 0.019937 -0.000283 0.000000 0.000000 0.000000
# 3 -0.002625 -0.000283 0.008431 0.000000 0.000000 0.000000
# 4 0.000000 0.000000 0.000000 0.026148 0.000000 0.000000
# 5 0.000000 0.000000 0.000000 0.000000 0.021332 0.000000
# 6 0.000000 0.000000 0.000000 0.000000 0.000000 -0.002195
#
#
# Mechanical properties :
#
#
# Convention : Reuss Voigt Hill
#
# Bulk Modulus (GPa) = 30.16115 38.92871 34.54493
# Shear Modulus (GPa) = 49.54855 -57.56190 -4.00668
#
# Velocity S-wave (km/s) = 4.40673 -4.74973 -1.25312
# Velocity P-wave (km/s) = 6.14111 3.85003 3.38308
#
# Compressibility (1/GPa) = 0.03315524
#
# Stress axis : x y z
#
# Youngs Moduli (GPa) = 95.26203 50.15791 118.61642
#
# Poissons Ratio (x) = -0.00263 0.31133
# Poissons Ratio (y) = -0.00499 0.03352
# Poissons Ratio (z) = 0.25003 0.01417
#
# Static dielectric constant tensor:
#      x y z
#    x 1.670500 0.000000 0.000000 
#    y 0.000000 2.256730 0.000000 
#    z 0.000000 0.000000 2.338460 
# 
# From -- ./inp_files/34800.got.cif
#   From: 2010.05.17/outbox.cif.g08.bks.cpg/sg63_18_cif.got.tgz:34800.got - 2010.06.03 15:47:04.
