data_PCOD9475033
_publ_section_title
;
Structure prediction by ZEFSAII (Michael W. Deem and Ramdas Pophale) SiO2 
 PCOD9475033
Probable space group: C M C M
;
_chemical_formula_sum "Si O2"
_cell_formula_units_Z 116
_cell_length_a 22.967022
_cell_length_b 24.801946
_cell_length_c 10.125584
_cell_angle_alpha 90.000000
_cell_angle_beta 90.000000
_cell_angle_gamma 90.000000
_cell_volume 5767.804411
_symmetry_space_group_name_H-M "C M C M"
_symmetry_group_IT_number 63
_symmetry_cell_setting 'orthorhombic'
loop_
_space_group_symop_operation_xyz
x,y,z
-x,-y,1/2+z
x,-y,-z
-x,y,1/2-z
-x,-y,-z
x,y,1/2-z
-x,y,z
x,-y,1/2+z
1/2+x,1/2+y,z
1/2-x,1/2-y,1/2+z
1/2+x,1/2-y,-z
1/2-x,1/2+y,1/2-z
1/2-x,1/2-y,-z
1/2+x,1/2+y,1/2-z
1/2-x,1/2+y,z
1/2+x,1/2-y,1/2+z
loop_
_atom_site_type_symbol
_atom_site_label
_atom_site_fract_x
_atom_site_fract_y
_atom_site_fract_z
Si Si1 0.500000 0.082201 0.750000
Si Si2 0.267849 0.956283 0.110504
Si Si3 0.263353 0.300440 0.905696
Si Si4 0.662766 0.627950 0.903440
Si Si5 0.102908 0.562933 0.538880
Si Si6 0.066980 0.262573 0.401835
Si Si7 0.432267 0.632395 0.099308
Si Si8 0.365979 0.164205 0.395602
O O1 0.551425 0.079377 0.635741
O O2 0.264875 0.985652 0.250000
O O3 0.215350 0.914479 0.103928
O O4 0.332260 0.931181 0.100092
O O5 0.261746 0.000000 0.000000
O O6 0.277279 0.288514 0.750000
O O7 0.204174 0.335788 0.903970
O O8 0.250000 0.250000 0.000000
O O9 0.313399 0.329671 0.988371
O O10 0.652649 0.646168 0.750000
O O11 0.604991 0.608056 0.979076
O O12 0.095920 0.500000 0.500000
O O13 0.106546 0.605512 0.419655
O O14 0.080742 0.276048 0.250000
O O15 0.068609 0.197882 0.414909
O O16 0.109160 0.294573 0.497288
O O17 0.000000 0.279644 0.425907
O O18 0.411271 0.620283 0.250000
O O19 0.500000 0.616493 0.091904
O O20 0.381187 0.184395 0.250000
#
# Coordination Sequence:
#
# PCOD9475033 Si02
#       8
#     4  16  16  16  16  16  16  16
#     4  12  26  44  66  92 112 162 212 256 328 382
#     4  10  22  41  65  90 122 158 200 254 310 367
#     4  11  23  39  58  87 122 160 204 255 314 372
#     4  11  22  37  60  92 123 161 203 247 305 372
#     4  11  25  44  64  86 119 154 206 264 316 379
#     4   9  20  37  58  81 113 158 204 246 297 364
#     4   9  19  38  62  92 127 164 206 252 299 362
#     4  11  25  40  58  84 119 159 201 259 316 365
#
# _framework density 20.111640000000001
#
# number of rings (size 3 to 8) (size 9 to 14) (size 15 to 20)
#    0.000    1.655    2.069    2.690    2.897    6.069 
#    0.000    1.379    0.000    0.414    0.000    0.000 
#    0.000    0.000    0.000    0.000    0.000    0.000 
#
# Total GULP energy -322980.145599 kJ/mol
# GULP energy per Si atom -5568.623200 kJ/mol
# Density = 2.006586 g / cm^3
# Si number density = 20.111640 Si / 1000 Ang^3
#
#
#
# Elastic Constant Matrix: (Units=GPa)
#
#
# Indices 1 2 3 4 5 6 
#
# 1 113.5183 13.4060 66.3732 0.0000 0.0000 0.0000
# 2 13.4060 19.6473 14.9822 0.0000 0.0000 0.0000
# 3 66.3732 14.9822 158.8820 0.0000 0.0000 0.0000
# 4 0.0000 0.0000 0.0000 14.9071 0.0000 0.0000
# 5 0.0000 0.0000 0.0000 0.0000 40.4129 0.0000
# 6 0.0000 0.0000 0.0000 0.0000 0.0000 14.1612
#
#
#
# Elastic Compliance Matrix: (Units=1/GPa)
#
#
# Indices 1 2 3 4 5 6 
#
# 1 0.012050 -0.004723 -0.004588 0.000000 0.000000 0.000000
# 2 -0.004723 0.056692 -0.003373 0.000000 0.000000 0.000000
# 3 -0.004588 -0.003373 0.008529 0.000000 0.000000 0.000000
# 4 0.000000 0.000000 0.000000 0.067082 0.000000 0.000000
# 5 0.000000 0.000000 0.000000 0.000000 0.024745 0.000000
# 6 0.000000 0.000000 0.000000 0.000000 0.000000 0.070615
#
#
# Mechanical properties :
#
#
# Convention : Reuss Voigt Hill
#
# Bulk Modulus (GPa) = 19.26696 53.50782 36.38739
# Shear Modulus (GPa) = 17.70646 27.04864 22.37755
#
# Velocity S-wave (km/s) = 2.97039 3.67130 3.33928
# Velocity P-wave (km/s) = 4.62224 6.68090 5.74454
#
# Compressibility (1/GPa) = 0.05190232
#
# Stress axis : x y z
#
# Youngs Moduli (GPa) = 82.98938 17.63904 117.24889
#
# Poissons Ratio (x) = 0.08331 0.53799
# Poissons Ratio (y) = 0.39196 0.39547
# Poissons Ratio (z) = 0.38079 0.05950
#
# Static dielectric constant tensor:
#      x y z
#    x 1.773030 0.000000 0.000000 
#    y 0.000000 1.731740 0.000000 
#    z 0.000000 0.000000 1.715200 
# 
# From -- ./inp_files/10914.got.cif
#   From: 2010.05.17/outbox.cif.g08.bks.cpg/sg63_6_cif.got.tgz:10914.got - 2010.06.03 15:47:04.
