data_PCOD9475746
_publ_section_title
;
Structure prediction by ZEFSAII (Michael W. Deem and Ramdas Pophale) SiO2 
 PCOD9475746
Probable space group: C M C M
;
_chemical_formula_sum "Si O2"
_cell_formula_units_Z 64
_cell_length_a 24.861165
_cell_length_b 8.429085
_cell_length_c 16.777050
_cell_angle_alpha 90.000000
_cell_angle_beta 90.000000
_cell_angle_gamma 90.000000
_cell_volume 3515.746136
_symmetry_space_group_name_H-M "C M C M"
_symmetry_group_IT_number 63
_symmetry_cell_setting 'orthorhombic'
loop_
_space_group_symop_operation_xyz
x,y,z
-x,-y,1/2+z
x,-y,-z
-x,y,1/2-z
-x,-y,-z
x,y,1/2-z
-x,y,z
x,-y,1/2+z
1/2+x,1/2+y,z
1/2-x,1/2-y,1/2+z
1/2+x,1/2-y,-z
1/2-x,1/2+y,1/2-z
1/2-x,1/2-y,-z
1/2+x,1/2+y,1/2-z
1/2-x,1/2+y,z
1/2+x,1/2-y,1/2+z
loop_
_atom_site_type_symbol
_atom_site_label
_atom_site_fract_x
_atom_site_fract_y
_atom_site_fract_z
Si Si1 0.897312 0.890509 0.424443
Si Si2 0.500000 0.279696 0.842550
Si Si3 0.880830 0.210613 0.343727
Si Si4 0.000000 0.833203 0.342021
Si Si5 0.809781 0.686115 0.985778
O O1 0.849321 0.782279 0.455349
O O2 0.946304 0.789931 0.389208
O O3 0.914918 0.000000 0.500000
O O4 0.879929 0.020522 0.358925
O O5 0.500000 0.231660 0.750000
O O6 0.559253 0.233017 0.873403
O O7 0.500000 0.472705 0.843847
O O8 0.876102 0.243573 0.250000
O O9 0.834018 0.280461 0.398104
O O10 0.000000 0.783193 0.250000
O O11 0.811172 0.500000 0.000000
O O12 0.750000 0.750000 0.000000
#
# Coordination Sequence:
#
# PCOD9475746 Si02
#       5
#    16   8  16   8  16
#     4   9  17  31  55  81 109 140 177 219 266 316
#     4   7  12  25  51  82 110 135 168 211 258 309
#     4   9  17  34  59  86 110 140 179 221 263 314
#     4   9  15  27  49  82 114 141 174 213 253 311
#     4  11  23  40  56  75 106 144 184 226 273 323
#
# _framework density 18.203817999999998
#
# number of rings (size 3 to 8) (size 9 to 14) (size 15 to 20)
#    0.000    2.750    0.000    4.875    0.000    3.000 
#    0.000   11.250    0.000    1.500    0.000    0.000 
#    0.000    0.000    0.000    0.000    0.000    0.000 
#
# Total GULP energy -178228.001797 kJ/mol
# GULP energy per Si atom -5569.625056 kJ/mol
# Density = 1.816239 g / cm^3
# Si number density = 18.203818 Si / 1000 Ang^3
#
#
#
# Elastic Constant Matrix: (Units=GPa)
#
#
# Indices 1 2 3 4 5 6 
#
# 1 173.1982 44.8162 97.6831 0.0000 0.0000 0.0000
# 2 44.8162 50.6741 27.6875 0.0000 0.0000 0.0000
# 3 97.6831 27.6875 86.8358 0.0000 0.0000 0.0000
# 4 0.0000 0.0000 0.0000 15.0505 0.0000 0.0000
# 5 0.0000 0.0000 0.0000 0.0000 27.2567 0.0000
# 6 0.0000 0.0000 0.0000 0.0000 0.0000 20.9774
#
#
#
# Elastic Compliance Matrix: (Units=1/GPa)
#
#
# Indices 1 2 3 4 5 6 
#
# 1 0.016993 -0.005551 -0.017346 0.000000 0.000000 0.000000
# 2 -0.005551 0.025711 -0.001953 0.000000 0.000000 0.000000
# 3 -0.017346 -0.001953 0.031651 0.000000 0.000000 0.000000
# 4 0.000000 0.000000 0.000000 0.066443 0.000000 0.000000
# 5 0.000000 0.000000 0.000000 0.000000 0.036688 0.000000
# 6 0.000000 0.000000 0.000000 0.000000 0.000000 0.047670
#
#
# Mechanical properties :
#
#
# Convention : Reuss Voigt Hill
#
# Bulk Modulus (GPa) = 40.56018 72.34242 56.45130
# Shear Modulus (GPa) = 17.66312 22.02501 19.84407
#
# Velocity S-wave (km/s) = 3.11834 3.48215 3.30526
# Velocity P-wave (km/s) = 5.94095 7.48289 6.75606
#
# Compressibility (1/GPa) = 0.02465472
#
# Stress axis : x y z
#
# Youngs Moduli (GPa) = 58.84705 38.89441 31.59410
#
# Poissons Ratio (x) = 0.21591 0.54803
# Poissons Ratio (y) = 0.32668 0.06171
# Poissons Ratio (z) = 1.02076 0.07596
#
# Static dielectric constant tensor:
#      x y z
#    x 1.662780 0.000000 0.000000 
#    y 0.000000 1.620530 0.000000 
#    z 0.000000 0.000000 1.647470 
# 
# From -- ./inp_files/46562.got.cif
#   From: 2010.05.17/outbox.cif.g08.bks.cpg/sg63_24_cif.got.tgz:46562.got - 2010.06.03 15:47:04.
