data_PCOD9475972
_publ_section_title
;
Structure prediction by ZEFSAII (Michael W. Deem and Ramdas Pophale) SiO2 
 PCOD9475972
Probable space group: C M C M
;
_chemical_formula_sum "Si O2"
_cell_formula_units_Z 96
_cell_length_a 14.906341
_cell_length_b 32.592093
_cell_length_c 9.629213
_cell_angle_alpha 90.000000
_cell_angle_beta 90.000000
_cell_angle_gamma 90.000000
_cell_volume 4678.149499
_symmetry_space_group_name_H-M "C M C M"
_symmetry_group_IT_number 63
_symmetry_cell_setting 'orthorhombic'
loop_
_space_group_symop_operation_xyz
x,y,z
-x,-y,1/2+z
x,-y,-z
-x,y,1/2-z
-x,-y,-z
x,y,1/2-z
-x,y,z
x,-y,1/2+z
1/2+x,1/2+y,z
1/2-x,1/2-y,1/2+z
1/2+x,1/2-y,-z
1/2-x,1/2+y,1/2-z
1/2-x,1/2-y,-z
1/2+x,1/2+y,1/2-z
1/2-x,1/2+y,z
1/2+x,1/2-y,1/2+z
loop_
_atom_site_type_symbol
_atom_site_label
_atom_site_fract_x
_atom_site_fract_y
_atom_site_fract_z
Si Si1 0.642583 0.716110 0.092244
Si Si2 0.892737 0.127416 0.409324
Si Si3 0.109630 0.961551 0.587963
Si Si4 0.890242 0.539641 0.910025
Si Si5 0.891968 0.617110 0.090561
Si Si6 0.356022 0.790030 0.593400
O O1 0.606397 0.716332 0.250000
O O2 0.626625 0.671403 0.024892
O O3 0.749996 0.718631 0.102518
O O4 0.607422 0.754533 0.005524
O O5 0.857979 0.129805 0.250000
O O6 0.861894 0.083494 0.466593
O O7 0.000000 0.124738 0.401883
O O8 0.134688 0.964749 0.750000
O O9 0.000000 0.962598 0.583962
O O10 0.142454 0.000000 0.500000
O O11 0.860279 0.537560 0.750000
O O12 0.000000 0.539915 0.907497
O O13 0.863905 0.500000 0.000000
O O14 0.861128 0.580987 0.989276
O O15 0.859834 0.611368 0.250000
O O16 0.867788 0.663167 0.044210
O O17 0.000000 0.614997 0.094600
O O18 0.393130 0.788122 0.750000
#
# Coordination Sequence:
#
# PCOD9475972 Si02
#       6
#    16  16  16  16  16  16
#     4   9  17  30  47  63  81 110 144 174 208 255
#     4   8  14  25  42  64  86 108 137 172 207 243
#     4   8  13  22  37  57  81 106 131 160 194 234
#     4   9  16  26  42  65  91 116 143 176 214 256
#     4   9  17  29  44  62  86 115 145 178 216 255
#     4   9  18  31  45  62  84 111 142 175 214 257
#
# _framework density 20.520935000000001
#
# number of rings (size 3 to 8) (size 9 to 14) (size 15 to 20)
#    0.000    3.333    0.000    1.500    0.000    3.333 
#    0.000    0.833    0.000    2.000    0.000    2.333 
#    0.000    0.000    0.000    0.000    0.000    0.000 
#
# Total GULP energy -267460.286633 kJ/mol
# GULP energy per Si atom -5572.089305 kJ/mol
# Density = 2.047423 g / cm^3
# Si number density = 20.520935 Si / 1000 Ang^3
#
#
#
# Elastic Constant Matrix: (Units=GPa)
#
#
# Indices 1 2 3 4 5 6 
#
# 1 49.2641 -0.4858 7.7767 0.0000 0.0000 0.0000
# 2 -0.4858 251.3311 113.7576 0.0000 0.0000 0.0000
# 3 7.7767 113.7576 89.3461 0.0000 0.0000 0.0000
# 4 0.0000 0.0000 0.0000 36.4520 0.0000 0.0000
# 5 0.0000 0.0000 0.0000 0.0000 -15.3202 0.0000
# 6 0.0000 0.0000 0.0000 0.0000 0.0000 29.2176
#
#
#
# Elastic Compliance Matrix: (Units=1/GPa)
#
#
# Indices 1 2 3 4 5 6 
#
# 1 0.021020 0.002050 -0.004440 0.000000 0.000000 0.000000
# 2 0.002050 0.009590 -0.012389 0.000000 0.000000 0.000000
# 3 -0.004440 -0.012389 0.027353 0.000000 0.000000 0.000000
# 4 0.000000 0.000000 0.000000 0.027433 0.000000 0.000000
# 5 0.000000 0.000000 0.000000 0.000000 -0.065273 0.000000
# 6 0.000000 0.000000 0.000000 0.000000 0.000000 0.034226
#
#
# Mechanical properties :
#
#
# Convention : Reuss Voigt Hill
#
# Bulk Modulus (GPa) = 35.20445 70.22647 52.71546
# Shear Modulus (GPa) = 53.54729 27.99608 40.77169
#
# Velocity S-wave (km/s) = 5.11377 3.69761 4.46223
# Velocity P-wave (km/s) = 7.21527 7.24748 7.23139
#
# Compressibility (1/GPa) = 0.02840550
#
# Stress axis : x y z
#
# Youngs Moduli (GPa) = 47.57406 104.27144 36.55901
#
# Poissons Ratio (x) = -0.21378 0.16232
# Poissons Ratio (y) = -0.09754 0.45293
# Poissons Ratio (z) = 0.21123 1.29183
#
# Static dielectric constant tensor:
#      x y z
#    x 1.773310 0.000000 0.000000 
#    y 0.000000 1.754420 0.000000 
#    z 0.000000 0.000000 1.715350 
# 
# From -- ./inp_files/10429.got.cif
#   From: 2010.05.17/outbox.cif.g08.bks.cpg/sg63_6_cif.got.tgz:10429.got - 2010.06.03 15:47:04.
