data_PCOD9475635
_publ_section_title
;
Structure prediction by ZEFSAII (Michael W. Deem and Ramdas Pophale) SiO2 
 PCOD9475635
Probable space group: C M C M
;
_chemical_formula_sum "Si O2"
_cell_formula_units_Z 64
_cell_length_a 7.611285
_cell_length_b 23.222960
_cell_length_c 17.258697
_cell_angle_alpha 90.000000
_cell_angle_beta 90.000000
_cell_angle_gamma 90.000000
_cell_volume 3050.588034
_symmetry_space_group_name_H-M "C M C M"
_symmetry_group_IT_number 63
_symmetry_cell_setting 'orthorhombic'
loop_
_space_group_symop_operation_xyz
x,y,z
-x,-y,1/2+z
x,-y,-z
-x,y,1/2-z
-x,-y,-z
x,y,1/2-z
-x,y,z
x,-y,1/2+z
1/2+x,1/2+y,z
1/2-x,1/2-y,1/2+z
1/2+x,1/2-y,-z
1/2-x,1/2+y,1/2-z
1/2-x,1/2-y,-z
1/2+x,1/2+y,1/2-z
1/2-x,1/2+y,z
1/2+x,1/2-y,1/2+z
loop_
_atom_site_type_symbol
_atom_site_label
_atom_site_fract_x
_atom_site_fract_y
_atom_site_fract_z
Si Si1 0.299845 0.280864 0.918363
Si Si2 0.785624 0.607963 0.750000
Si Si3 0.784729 0.258727 0.250000
Si Si4 0.212467 0.587240 0.057253
Si Si5 0.285958 0.967235 0.392494
O O1 0.500000 0.262656 0.909827
O O2 0.219207 0.265809 0.833421
O O3 0.283968 0.349539 0.928230
O O4 0.250000 0.250000 0.000000
O O5 0.737169 0.674160 0.750000
O O6 0.724233 0.573020 0.675782
O O7 0.000000 0.606873 0.750000
O O8 0.000000 0.252324 0.250000
O O9 0.267738 0.534111 0.112220
O O10 0.000000 0.592037 0.059687
O O11 0.263272 0.562871 0.972972
O O12 0.500000 0.968260 0.392188
#
# Coordination Sequence:
#
# PCOD9475635 Si02
#       5
#    16   8   8  16  16
#     4  11  22  37  56  79 107 144 182 220 264 315
#     4   9  14  25  46  71  95 127 172 217 256 303
#     4   9  20  35  53  77 107 141 180 219 264 321
#     4   9  17  32  51  75 104 134 169 214 264 316
#     4   8  15  27  48  74 100 130 169 214 260 309
#
# _framework density 20.979561
#
# number of rings (size 3 to 8) (size 9 to 14) (size 15 to 20)
#    0.000    2.750    0.000    3.750    0.000    5.000 
#    0.000    6.250    0.000    0.000    0.000    1.750 
#    0.000    0.000    0.000    0.000    0.000    0.000 
#
# Total GULP energy -178279.905618 kJ/mol
# GULP energy per Si atom -5571.247051 kJ/mol
# Density = 2.093181 g / cm^3
# Si number density = 20.979561 Si / 1000 Ang^3
#
#
#
# Elastic Constant Matrix: (Units=GPa)
#
#
# Indices 1 2 3 4 5 6 
#
# 1 37.9973 -13.7821 11.6767 0.0000 0.0000 0.0000
# 2 -13.7821 161.4885 99.8881 0.0000 0.0000 0.0000
# 3 11.6767 99.8881 152.3037 0.0000 0.0000 0.0000
# 4 0.0000 0.0000 0.0000 36.1236 0.0000 0.0000
# 5 0.0000 0.0000 0.0000 0.0000 7.4608 0.0000
# 6 0.0000 0.0000 0.0000 0.0000 0.0000 23.4591
#
#
#
# Elastic Compliance Matrix: (Units=1/GPa)
#
#
# Indices 1 2 3 4 5 6 
#
# 1 0.030948 0.006913 -0.006907 0.000000 0.000000 0.000000
# 2 0.006913 0.011964 -0.008376 0.000000 0.000000 0.000000
# 3 -0.006907 -0.008376 0.012589 0.000000 0.000000 0.000000
# 4 0.000000 0.000000 0.000000 0.027683 0.000000 0.000000
# 5 0.000000 0.000000 0.000000 0.000000 0.134034 0.000000
# 6 0.000000 0.000000 0.000000 0.000000 0.000000 0.042627
#
#
# Mechanical properties :
#
#
# Convention : Reuss Voigt Hill
#
# Bulk Modulus (GPa) = 25.79930 60.81723 43.30826
# Shear Modulus (GPa) = 17.27089 30.34248 23.80668
#
# Velocity S-wave (km/s) = 2.87230 3.80713 3.37227
# Velocity P-wave (km/s) = 4.82951 6.95539 5.98755
#
# Compressibility (1/GPa) = 0.03876074
#
# Stress axis : x y z
#
# Youngs Moduli (GPa) = 32.31257 83.58733 79.43484
#
# Poissons Ratio (x) = -0.57787 0.54864
# Poissons Ratio (y) = -0.22339 0.66537
# Poissons Ratio (z) = 0.22318 0.70015
#
# Static dielectric constant tensor:
#      x y z
#    x 1.823520 0.000000 0.000000 
#    y 0.000000 1.707650 0.000000 
#    z 0.000000 0.000000 1.787320 
# 
# From -- ./inp_files/39859.got.cif
#   From: 2010.05.17/outbox.cif.g08.bks.cpg/sg63_20_cif.got.tgz:39859.got - 2010.06.03 15:47:04.
