data_PCOD9475142
_publ_section_title
;
Structure prediction by ZEFSAII (Michael W. Deem and Ramdas Pophale) SiO2 
 PCOD9475142
Probable space group: C M C M
;
_chemical_formula_sum "Si O2"
_cell_formula_units_Z 64
_cell_length_a 13.578572
_cell_length_b 29.292548
_cell_length_c 8.498265
_cell_angle_alpha 90.000000
_cell_angle_beta 90.000000
_cell_angle_gamma 90.000000
_cell_volume 3380.193165
_symmetry_space_group_name_H-M "C M C M"
_symmetry_group_IT_number 63
_symmetry_cell_setting 'orthorhombic'
loop_
_space_group_symop_operation_xyz
x,y,z
-x,-y,1/2+z
x,-y,-z
-x,y,1/2-z
-x,-y,-z
x,y,1/2-z
-x,y,z
x,-y,1/2+z
1/2+x,1/2+y,z
1/2-x,1/2-y,1/2+z
1/2+x,1/2-y,-z
1/2-x,1/2+y,1/2-z
1/2-x,1/2-y,-z
1/2+x,1/2+y,1/2-z
1/2-x,1/2+y,z
1/2+x,1/2-y,1/2+z
loop_
_atom_site_type_symbol
_atom_site_label
_atom_site_fract_x
_atom_site_fract_y
_atom_site_fract_z
Si Si1 0.696274 0.205759 0.562988
Si Si2 0.500000 0.643483 0.938553
Si Si3 0.288827 0.386049 0.935385
Si Si4 0.389256 0.948149 0.061024
Si Si5 0.000000 0.747673 0.440414
O O1 0.707558 0.199759 0.750000
O O2 0.750000 0.250000 0.500000
O O3 0.739866 0.162338 0.476288
O O4 0.588257 0.218814 0.511673
O O5 0.500000 0.643723 0.750000
O O6 0.500000 0.697940 0.987218
O O7 0.399934 0.618366 0.995481
O O8 0.297694 0.393239 0.750000
O O9 0.207702 0.421663 0.001373
O O10 0.387047 0.947342 0.250000
O O11 0.500000 0.930275 0.013255
O O12 0.384502 0.000000 0.000000
O O13 0.000000 0.747062 0.250000
#
# Coordination Sequence:
#
# PCOD9475142 Si02
#       5
#    16   8  16  16   8
#     4  12  24  39  59  86 122 164 210 258 309 366
#     4  11  23  41  64  88 124 167 213 260 313 370
#     4  12  25  41  64  93 127 166 212 258 312 373
#     4  10  22  43  70  98 129 162 203 253 313 373
#     4  11  23  39  59  84 118 163 210 260 314 368
#
# _framework density 18.933827999999998
#
# number of rings (size 3 to 8) (size 9 to 14) (size 15 to 20)
#    0.000    0.750    2.500    6.000    1.750    2.500 
#    0.000    0.625    0.000    0.000    0.000    0.000 
#    0.000    0.000    0.000    0.000    0.000    0.000 
#
# Total GULP energy -178549.101104 kJ/mol
# GULP energy per Si atom -5579.659410 kJ/mol
# Density = 1.889073 g / cm^3
# Si number density = 18.933828 Si / 1000 Ang^3
#
#
#
# Elastic Constant Matrix: (Units=GPa)
#
#
# Indices 1 2 3 4 5 6 
#
# 1 208.6466 62.3745 39.8726 0.0000 0.0000 0.0000
# 2 62.3745 77.7033 15.8085 0.0000 0.0000 0.0000
# 3 39.8726 15.8085 89.9293 0.0000 0.0000 0.0000
# 4 0.0000 0.0000 0.0000 30.3580 0.0000 0.0000
# 5 0.0000 0.0000 0.0000 0.0000 30.8928 0.0000
# 6 0.0000 0.0000 0.0000 0.0000 0.0000 28.3092
#
#
#
# Elastic Compliance Matrix: (Units=1/GPa)
#
#
# Indices 1 2 3 4 5 6 
#
# 1 0.006664 -0.004925 -0.002089 0.000000 0.000000 0.000000
# 2 -0.004925 0.016986 -0.000802 0.000000 0.000000 0.000000
# 3 -0.002089 -0.000802 0.012187 0.000000 0.000000 0.000000
# 4 0.000000 0.000000 0.000000 0.032940 0.000000 0.000000
# 5 0.000000 0.000000 0.000000 0.000000 0.032370 0.000000
# 6 0.000000 0.000000 0.000000 0.000000 0.000000 0.035324
#
#
# Mechanical properties :
#
#
# Convention : Reuss Voigt Hill
#
# Bulk Modulus (GPa) = 49.49275 68.04338 58.76807
# Shear Modulus (GPa) = 31.47847 35.12690 33.30269
#
# Velocity S-wave (km/s) = 4.08186 4.31193 4.19847
# Velocity P-wave (km/s) = 6.95788 7.79781 7.38979
#
# Compressibility (1/GPa) = 0.02020498
#
# Stress axis : x y z
#
# Youngs Moduli (GPa) = 150.05574 58.87285 82.05355
#
# Poissons Ratio (x) = 0.28992 0.17142
# Poissons Ratio (y) = 0.73895 0.06585
# Poissons Ratio (z) = 0.31348 0.04724
#
# Static dielectric constant tensor:
#      x y z
#    x 1.636190 0.000000 0.000000 
#    y 0.000000 1.623210 0.000000 
#    z 0.000000 0.000000 1.641240 
# 
# From -- ./inp_files/3144.got.cif
#   From: 2010.05.17/outbox.cif.g08.bks.cpg/sg63_2_cif.got.tgz:3144.got - 2010.06.03 15:47:04.
