data_PCOD9475165
_publ_section_title
;
Structure prediction by ZEFSAII (Michael W. Deem and Ramdas Pophale) SiO2 
 PCOD9475165
Probable space group: C M C M
;
_chemical_formula_sum "Si O2"
_cell_formula_units_Z 88
_cell_length_a 12.053946
_cell_length_b 15.467619
_cell_length_c 23.924741
_cell_angle_alpha 90.000000
_cell_angle_beta 90.000000
_cell_angle_gamma 90.000000
_cell_volume 4460.668532
_symmetry_space_group_name_H-M "C M C M"
_symmetry_group_IT_number 63
_symmetry_cell_setting 'orthorhombic'
loop_
_space_group_symop_operation_xyz
x,y,z
-x,-y,1/2+z
x,-y,-z
-x,y,1/2-z
-x,-y,-z
x,y,1/2-z
-x,y,z
x,-y,1/2+z
1/2+x,1/2+y,z
1/2-x,1/2-y,1/2+z
1/2+x,1/2-y,-z
1/2-x,1/2+y,1/2-z
1/2-x,1/2-y,-z
1/2+x,1/2+y,1/2-z
1/2-x,1/2+y,z
1/2+x,1/2-y,1/2+z
loop_
_atom_site_type_symbol
_atom_site_label
_atom_site_fract_x
_atom_site_fract_y
_atom_site_fract_z
Si Si1 0.258167 0.852081 0.997392
Si Si2 0.500000 0.014465 0.640362
Si Si3 0.000000 0.347326 0.687246
Si Si4 0.232443 0.268450 0.817467
Si Si5 0.756776 0.585708 0.623251
Si Si6 0.000000 0.410286 0.968003
Si Si7 0.633209 0.408116 0.614388
O O1 0.234762 0.892748 0.058040
O O2 0.250000 0.750000 0.000000
O O3 0.386652 0.866439 0.983597
O O4 0.182995 0.890620 0.947755
O O5 0.500000 0.951279 0.692628
O O6 0.500000 0.936721 0.595707
O O7 0.387725 0.066694 0.631810
O O8 0.115769 0.311502 0.664041
O O9 0.000000 0.309961 0.750000
O O10 0.245167 0.271137 0.750000
O O11 0.231593 0.170268 0.839971
O O12 0.325520 0.327742 0.847451
O O13 0.688684 0.497903 0.635959
O O14 0.000000 0.500000 0.000000
O O15 0.500000 0.413808 0.613321
#
# Coordination Sequence:
#
# PCOD9475165 Si02
#       7
#    16   8   8  16  16   8  16
#     4  12  24  41  68 102 137 180 228 281 342 412
#     4  12  22  42  74  97 134 176 231 282 339 408
#     4  10  22  46  74  98 129 174 232 290 332 397
#     4  11  26  48  73 103 136 178 234 286 341 406
#     4  12  25  43  70 104 136 181 229 280 345 407
#     4  12  20  40  66  93 131 174 219 279 337 401
#     4  12  27  47  67 100 147 185 225 281 348 413
#
# _framework density 19.727982999999998
#
# number of rings (size 3 to 8) (size 9 to 14) (size 15 to 20)
#    0.000    0.364    7.273    0.545    3.818    3.273 
#    0.000    0.000    0.000    0.000    0.000    0.000 
#    0.000    0.000    0.000    0.000    0.000    0.000 
#
# Total GULP energy -245712.753529 kJ/mol
# GULP energy per Si atom -5584.380762 kJ/mol
# Density = 1.968308 g / cm^3
# Si number density = 19.727983 Si / 1000 Ang^3
#
#
#
# Elastic Constant Matrix: (Units=GPa)
#
#
# Indices 1 2 3 4 5 6 
#
# 1 155.1796 55.6298 35.3103 0.0000 0.0000 0.0000
# 2 55.6298 138.9829 48.4929 0.0000 0.0000 0.0000
# 3 35.3103 48.4929 109.8655 0.0000 0.0000 0.0000
# 4 0.0000 0.0000 0.0000 28.0848 0.0000 0.0000
# 5 0.0000 0.0000 0.0000 0.0000 66.7565 0.0000
# 6 0.0000 0.0000 0.0000 0.0000 0.0000 43.6866
#
#
#
# Elastic Compliance Matrix: (Units=1/GPa)
#
#
# Indices 1 2 3 4 5 6 
#
# 1 0.007681 -0.002616 -0.001314 0.000000 0.000000 0.000000
# 2 -0.002616 0.009396 -0.003306 0.000000 0.000000 0.000000
# 3 -0.001314 -0.003306 0.010984 0.000000 0.000000 0.000000
# 4 0.000000 0.000000 0.000000 0.035606 0.000000 0.000000
# 5 0.000000 0.000000 0.000000 0.000000 0.014980 0.000000
# 6 0.000000 0.000000 0.000000 0.000000 0.000000 0.022890
#
#
# Mechanical properties :
#
#
# Convention : Reuss Voigt Hill
#
# Bulk Modulus (GPa) = 73.59526 75.87711 74.73619
# Shear Modulus (GPa) = 41.48034 45.34524 43.41279
#
# Velocity S-wave (km/s) = 4.59040 4.79949 4.69611
# Velocity P-wave (km/s) = 8.09208 8.32218 8.20794
#
# Compressibility (1/GPa) = 0.01358783
#
# Stress axis : x y z
#
# Youngs Moduli (GPa) = 130.19291 106.43002 91.04355
#
# Poissons Ratio (x) = 0.27841 0.11963
# Poissons Ratio (y) = 0.34057 0.30103
# Poissons Ratio (z) = 0.17107 0.35190
#
# Static dielectric constant tensor:
#      x y z
#    x 1.669440 0.000000 0.000000 
#    y 0.000000 1.599900 0.000000 
#    z 0.000000 0.000000 1.476310 
# 
# From -- ./inp_files/61284.got.cif
#   From: 2010.05.17/outbox.cif.g08.bks.cpg/sg63_31_cif.got.tgz:61284.got - 2010.06.03 15:47:04.
