data_PCOD9475460
_publ_section_title
;
Structure prediction by ZEFSAII (Michael W. Deem and Ramdas Pophale) SiO2 
 PCOD9475460
Probable space group: C M C M
;
_chemical_formula_sum "Si O2"
_cell_formula_units_Z 96
_cell_length_a 8.368987
_cell_length_b 25.549992
_cell_length_c 24.242946
_cell_angle_alpha 90.000000
_cell_angle_beta 90.000000
_cell_angle_gamma 90.000000
_cell_volume 5183.809770
_symmetry_space_group_name_H-M "C M C M"
_symmetry_group_IT_number 63
_symmetry_cell_setting 'orthorhombic'
loop_
_space_group_symop_operation_xyz
x,y,z
-x,-y,1/2+z
x,-y,-z
-x,y,1/2-z
-x,-y,-z
x,y,1/2-z
-x,y,z
x,-y,1/2+z
1/2+x,1/2+y,z
1/2-x,1/2-y,1/2+z
1/2+x,1/2-y,-z
1/2-x,1/2+y,1/2-z
1/2-x,1/2-y,-z
1/2+x,1/2+y,1/2-z
1/2-x,1/2+y,z
1/2+x,1/2-y,1/2+z
loop_
_atom_site_type_symbol
_atom_site_label
_atom_site_fract_x
_atom_site_fract_y
_atom_site_fract_z
Si Si1 0.694805 0.273451 0.750000
Si Si2 0.304932 0.234299 0.868833
Si Si3 0.189504 0.019008 0.560960
Si Si4 0.689645 0.136014 0.561577
Si Si5 0.807967 0.104166 0.250000
Si Si6 0.310493 0.332807 0.942852
Si Si7 0.312645 0.073373 0.368274
O O1 0.500000 0.272267 0.750000
O O2 0.748746 0.246464 0.693333
O O3 0.740443 0.334531 0.750000
O O4 0.500000 0.234901 0.868500
O O5 0.254739 0.178947 0.893999
O O6 0.256054 0.281497 0.909443
O O7 0.227051 0.080044 0.566801
O O8 0.000000 0.010088 0.565104
O O9 0.241619 0.000000 0.500000
O O10 0.274966 0.982901 0.605754
O O11 0.500000 0.128387 0.567690
O O12 0.724219 0.158956 0.500860
O O13 0.743141 0.078154 0.194561
O O14 0.000000 0.102195 0.250000
O O15 0.500000 0.328573 0.953138
O O16 0.278949 0.383065 0.904416
O O17 0.500000 0.084480 0.372386
#
# Coordination Sequence:
#
# PCOD9475460 Si02
#       7
#     8  16  16  16   8  16  16
#     4   9  16  33  60  85 112 153 196 234 277 345
#     4   9  19  34  56  86 118 154 198 240 292 357
#     4  11  23  40  62  84 113 157 204 244 296 363
#     4  11  22  36  56  87 122 156 194 247 304 352
#     4  11  21  39  66  89 120 159 198 238 287 353
#     4  11  20  35  58  86 119 158 198 236 290 361
#     4  12  24  38  60  92 124 151 194 251 300 342
#
# _framework density 18.519197999999999
#
# number of rings (size 3 to 8) (size 9 to 14) (size 15 to 20)
#    0.000    1.333    3.333    3.750    0.000    0.667 
#    0.000    3.333    0.000    2.000    0.000    0.000 
#    0.000    0.000    0.000    0.000    0.000    0.000 
#
# Total GULP energy -268294.875862 kJ/mol
# GULP energy per Si atom -5589.476580 kJ/mol
# Density = 1.847705 g / cm^3
# Si number density = 18.519198 Si / 1000 Ang^3
#
#
#
# Elastic Constant Matrix: (Units=GPa)
#
#
# Indices 1 2 3 4 5 6 
#
# 1 24.3204 -3.2171 -0.2828 0.0000 0.0000 0.0000
# 2 -3.2171 121.9580 60.0111 0.0000 0.0000 0.0000
# 3 -0.2828 60.0111 127.9073 0.0000 0.0000 0.0000
# 4 0.0000 0.0000 0.0000 29.6729 0.0000 0.0000
# 5 0.0000 0.0000 0.0000 0.0000 15.0312 0.0000
# 6 0.0000 0.0000 0.0000 0.0000 0.0000 -1.1258
#
#
#
# Elastic Compliance Matrix: (Units=1/GPa)
#
#
# Indices 1 2 3 4 5 6 
#
# 1 0.041291 0.001358 -0.000546 0.000000 0.000000 0.000000
# 2 0.001358 0.010705 -0.005020 0.000000 0.000000 0.000000
# 3 -0.000546 -0.005020 0.010172 0.000000 0.000000 0.000000
# 4 0.000000 0.000000 0.000000 0.033701 0.000000 0.000000
# 5 0.000000 0.000000 0.000000 0.000000 0.066528 0.000000
# 6 0.000000 0.000000 0.000000 0.000000 0.000000 -0.888243
#
#
# Mechanical properties :
#
#
# Convention : Reuss Voigt Hill
#
# Bulk Modulus (GPa) = 18.60362 43.02315 30.81339
# Shear Modulus (GPa) = -7.14784 23.22728 8.03972
#
# Velocity S-wave (km/s) = -1.96674 3.54535 2.08584
# Velocity P-wave (km/s) = 2.21585 6.32783 4.74085
#
# Compressibility (1/GPa) = 0.05375297
#
# Stress axis : x y z
#
# Youngs Moduli (GPa) = 24.21839 93.41102 98.30821
#
# Poissons Ratio (x) = -0.12683 0.05365
# Poissons Ratio (y) = -0.03288 0.49348
# Poissons Ratio (z) = 0.01322 0.46890
#
# Static dielectric constant tensor:
#      x y z
#    x 1.626280 0.000000 0.000000 
#    y 0.000000 1.615440 0.000000 
#    z 0.000000 0.000000 1.616190 
# 
# From -- ./inp_files/60012.got.cif
#   From: 2010.05.17/outbox.cif.g08.bks.cpg/sg63_31_cif.got.tgz:60012.got - 2010.06.03 15:47:04.
