data_PCOD9475579
_publ_section_title
;
Structure prediction by ZEFSAII (Michael W. Deem and Ramdas Pophale) SiO2 
 PCOD9475579
Probable space group: C M C M
;
_chemical_formula_sum "Si O2"
_cell_formula_units_Z 112
_cell_length_a 17.777995
_cell_length_b 11.808466
_cell_length_c 30.135133
_cell_angle_alpha 90.000000
_cell_angle_beta 90.000000
_cell_angle_gamma 90.000000
_cell_volume 6326.294071
_symmetry_space_group_name_H-M "C M C M"
_symmetry_group_IT_number 63
_symmetry_cell_setting 'orthorhombic'
loop_
_space_group_symop_operation_xyz
x,y,z
-x,-y,1/2+z
x,-y,-z
-x,y,1/2-z
-x,-y,-z
x,y,1/2-z
-x,y,z
x,-y,1/2+z
1/2+x,1/2+y,z
1/2-x,1/2-y,1/2+z
1/2+x,1/2-y,-z
1/2-x,1/2+y,1/2-z
1/2-x,1/2-y,-z
1/2+x,1/2+y,1/2-z
1/2-x,1/2+y,z
1/2+x,1/2-y,1/2+z
loop_
_atom_site_type_symbol
_atom_site_label
_atom_site_fract_x
_atom_site_fract_y
_atom_site_fract_z
Si Si1 0.085103 0.574052 0.439502
Si Si2 0.413806 0.227401 0.150069
Si Si3 0.831470 0.087156 0.599028
Si Si4 0.908762 0.846544 0.581154
Si Si5 0.590890 0.989098 0.800721
Si Si6 0.162336 0.234857 0.510397
Si Si7 0.154797 0.382899 0.384622
O O1 0.087634 0.650012 0.394506
O O2 0.133208 0.641714 0.475056
O O3 0.112592 0.452915 0.423270
O O4 0.000000 0.569369 0.454908
O O5 0.500000 0.259056 0.158904
O O6 0.367165 0.337809 0.138301
O O7 0.387136 0.140834 0.187883
O O8 0.846208 0.152041 0.552549
O O9 0.742246 0.090371 0.607249
O O10 0.870358 0.965083 0.595002
O O11 0.883193 0.816100 0.530912
O O12 0.870821 0.746323 0.609984
O O13 0.000000 0.848979 0.584832
O O14 0.608343 0.017629 0.750000
O O15 0.500000 0.994946 0.806882
O O16 0.628911 0.068568 0.837234
O O17 0.250000 0.250000 0.500000
#
# Coordination Sequence:
#
# PCOD9475579 Si02
#       7
#    16  16  16  16  16  16  16
#     4   9  18  33  54  75 103 142 189 241 284 324
#     4   8  16  33  57  83 106 138 185 232 281 339
#     4  11  23  37  58  79 119 159 194 237 297 345
#     4  12  25  38  57  87 121 163 207 245 291 360
#     4   9  18  36  65  92 113 143 189 243 295 356
#     4  11  21  38  55  80 112 155 203 252 291 336
#     4  11  22  37  59  83 119 154 195 242 301 359
#
# _framework density 17.703887999999999
#
# number of rings (size 3 to 8) (size 9 to 14) (size 15 to 20)
#    0.000    1.857    1.429    4.286    4.000    2.857 
#    0.000    2.143    0.000    0.857    0.000    2.000 
#    0.000    0.000    0.000    0.000    0.000    0.000 
#
# Total GULP energy -312538.282171 kJ/mol
# GULP energy per Si atom -5581.040753 kJ/mol
# Density = 1.766359 g / cm^3
# Si number density = 17.703888 Si / 1000 Ang^3
#
#
#
# Elastic Constant Matrix: (Units=GPa)
#
#
# Indices 1 2 3 4 5 6 
#
# 1 101.0430 44.5393 31.1944 0.0000 0.0000 0.0000
# 2 44.5393 126.3112 43.8508 0.0000 0.0000 0.0000
# 3 31.1944 43.8508 101.3744 0.0000 0.0000 0.0000
# 4 0.0000 0.0000 0.0000 21.9710 0.0000 0.0000
# 5 0.0000 0.0000 0.0000 0.0000 18.6599 0.0000
# 6 0.0000 0.0000 0.0000 0.0000 0.0000 24.7910
#
#
#
# Elastic Compliance Matrix: (Units=1/GPa)
#
#
# Indices 1 2 3 4 5 6 
#
# 1 0.012126 -0.003507 -0.002214 0.000000 0.000000 0.000000
# 2 -0.003507 0.010330 -0.003389 0.000000 0.000000 0.000000
# 3 -0.002214 -0.003389 0.012012 0.000000 0.000000 0.000000
# 4 0.000000 0.000000 0.000000 0.045515 0.000000 0.000000
# 5 0.000000 0.000000 0.000000 0.000000 0.053591 0.000000
# 6 0.000000 0.000000 0.000000 0.000000 0.000000 0.040337
#
#
# Mechanical properties :
#
#
# Convention : Reuss Voigt Hill
#
# Bulk Modulus (GPa) = 61.55042 63.09972 62.32507
# Shear Modulus (GPa) = 25.31023 27.02731 26.16877
#
# Velocity S-wave (km/s) = 3.78516 3.91145 3.84883
# Velocity P-wave (km/s) = 7.34475 7.49122 7.41835
#
# Compressibility (1/GPa) = 0.01624684
#
# Stress axis : x y z
#
# Youngs Moduli (GPa) = 82.46497 96.80282 83.25076
#
# Poissons Ratio (x) = 0.33951 0.18435
# Poissons Ratio (y) = 0.28922 0.28216
# Poissons Ratio (z) = 0.18261 0.32809
#
# Static dielectric constant tensor:
#      x y z
#    x 2.006640 0.000000 0.000000 
#    y 0.000000 1.621800 0.000000 
#    z 0.000000 0.000000 1.603620 
# 
# From -- ./inp_files/73451.got.cif
#   From: 2010.05.17/outbox.cif.g08.bks.cpg/sg63_37_cif.got.tgz:73451.got - 2010.06.03 15:47:04.
