data_PCOD9475725
_publ_section_title
;
Structure prediction by ZEFSAII (Michael W. Deem and Ramdas Pophale) SiO2 
 PCOD9475725
Probable space group: C M C M
;
_chemical_formula_sum "Si O2"
_cell_formula_units_Z 68
_cell_length_a 23.868518
_cell_length_b 15.788321
_cell_length_c 7.351049
_cell_angle_alpha 90.000000
_cell_angle_beta 90.000000
_cell_angle_gamma 90.000000
_cell_volume 2770.197415
_symmetry_space_group_name_H-M "C M C M"
_symmetry_group_IT_number 63
_symmetry_cell_setting 'orthorhombic'
loop_
_space_group_symop_operation_xyz
x,y,z
-x,-y,1/2+z
x,-y,-z
-x,y,1/2-z
-x,-y,-z
x,y,1/2-z
-x,y,z
x,-y,1/2+z
1/2+x,1/2+y,z
1/2-x,1/2-y,1/2+z
1/2+x,1/2-y,-z
1/2-x,1/2+y,1/2-z
1/2-x,1/2-y,-z
1/2+x,1/2+y,1/2-z
1/2-x,1/2+y,z
1/2+x,1/2-y,1/2+z
loop_
_atom_site_type_symbol
_atom_site_label
_atom_site_fract_x
_atom_site_fract_y
_atom_site_fract_z
Si Si1 0.500000 0.829282 0.750000
Si Si2 0.560207 0.600660 0.032551
Si Si3 0.295016 0.141125 0.968066
Si Si4 0.083173 0.595069 0.965543
Si Si5 0.823434 0.828095 0.963711
O O1 0.451262 0.840871 0.589780
O O2 0.559234 0.613402 0.250000
O O3 0.500000 0.633384 0.959692
O O4 0.618143 0.638292 0.959971
O O5 0.561502 0.500000 0.000000
O O6 0.293935 0.141398 0.750000
O O7 0.351403 0.093703 0.021638
O O8 0.306285 0.236596 0.039009
O O9 0.232351 0.114712 0.021769
O O10 0.078824 0.615082 0.750000
O O11 0.061427 0.500000 0.000000
O O12 0.833100 0.815653 0.750000
#
# Coordination Sequence:
#
# PCOD9475725 Si02
#       5
#     4  16  16  16  16
#     4  12  24  40  62  82 116 158 186 246 290 342
#     4   9  18  33  54  79 109 141 179 223 276 335
#     4   9  20  37  55  82 110 144 187 235 282 332
#     4  11  23  38  60  85 116 153 197 239 286 344
#     4   9  18  35  59  78 108 148 186 229 283 339
#
# _framework density 24.546984999999999
#
# number of rings (size 3 to 8) (size 9 to 14) (size 15 to 20)
#    0.000    2.353    1.176    0.706    1.647    1.882 
#    2.118    4.706    0.000    0.000    0.000    0.000 
#    0.000    0.000    0.000    0.000    0.000    0.000 
#
# Total GULP energy -189353.023573 kJ/mol
# GULP energy per Si atom -5569.206576 kJ/mol
# Density = 2.449112 g / cm^3
# Si number density = 24.546985 Si / 1000 Ang^3
#
#
#
# Elastic Constant Matrix: (Units=GPa)
#
#
# Indices 1 2 3 4 5 6 
#
# 1 274.5071 47.0288 17.6818 0.0000 0.0000 0.0000
# 2 47.0288 29.7910 -12.7091 0.0000 0.0000 0.0000
# 3 17.6818 -12.7091 136.9341 0.0000 0.0000 0.0000
# 4 0.0000 0.0000 0.0000 5.1084 0.0000 0.0000
# 5 0.0000 0.0000 0.0000 0.0000 35.1315 0.0000
# 6 0.0000 0.0000 0.0000 0.0000 0.0000 39.4096
#
#
#
# Elastic Compliance Matrix: (Units=1/GPa)
#
#
# Indices 1 2 3 4 5 6 
#
# 1 0.005279 -0.008980 -0.001515 0.000000 0.000000 0.000000
# 2 -0.008980 0.050226 0.005821 0.000000 0.000000 0.000000
# 3 -0.001515 0.005821 0.008039 0.000000 0.000000 0.000000
# 4 0.000000 0.000000 0.000000 0.195756 0.000000 0.000000
# 5 0.000000 0.000000 0.000000 0.000000 0.028464 0.000000
# 6 0.000000 0.000000 0.000000 0.000000 0.000000 0.025375
#
#
# Mechanical properties :
#
#
# Convention : Reuss Voigt Hill
#
# Bulk Modulus (GPa) = 18.45141 60.58168 39.51654
# Shear Modulus (GPa) = 14.68206 41.87861 28.28033
#
# Velocity S-wave (km/s) = 2.44830 4.13493 3.39793
# Velocity P-wave (km/s) = 3.94022 6.89422 5.61496
#
# Compressibility (1/GPa) = 0.05419641
#
# Stress axis : x y z
#
# Youngs Moduli (GPa) = 189.43314 19.90989 124.39842
#
# Poissons Ratio (x) = 0.17879 0.18847
# Poissons Ratio (y) = 1.70107 -0.72414
# Poissons Ratio (z) = 0.28700 -0.11590
#
# Static dielectric constant tensor:
#      x y z
#    x 2.011160 0.000000 0.000000 
#    y 0.000000 2.008290 0.000000 
#    z 0.000000 0.000000 1.945840 
# 
# From -- ./inp_files/9864.got.cif
#   From: 2010.05.17/outbox.cif.g08.bks.cpg/sg63_5_cif.got.tgz:9864.got - 2010.06.03 15:47:04.
