data_PCOD9475585
_publ_section_title
;
Structure prediction by ZEFSAII (Michael W. Deem and Ramdas Pophale) SiO2 
 PCOD9475585
Probable space group: C M C M
;
_chemical_formula_sum "Si O2"
_cell_formula_units_Z 56
_cell_length_a 17.915622
_cell_length_b 18.379186
_cell_length_c 8.498727
_cell_angle_alpha 90.000000
_cell_angle_beta 90.000000
_cell_angle_gamma 90.000000
_cell_volume 2798.414500
_symmetry_space_group_name_H-M "C M C M"
_symmetry_group_IT_number 63
_symmetry_cell_setting 'orthorhombic'
loop_
_space_group_symop_operation_xyz
x,y,z
-x,-y,1/2+z
x,-y,-z
-x,y,1/2-z
-x,-y,-z
x,y,1/2-z
-x,y,z
x,-y,1/2+z
1/2+x,1/2+y,z
1/2-x,1/2-y,1/2+z
1/2+x,1/2-y,-z
1/2-x,1/2+y,1/2-z
1/2-x,1/2-y,-z
1/2+x,1/2+y,1/2-z
1/2-x,1/2+y,z
1/2+x,1/2-y,1/2+z
loop_
_atom_site_type_symbol
_atom_site_label
_atom_site_fract_x
_atom_site_fract_y
_atom_site_fract_z
Si Si1 0.139670 0.673757 0.938897
Si Si2 0.914656 0.166268 0.058222
Si Si3 0.500000 0.081876 0.438109
Si Si4 0.774179 0.079791 0.438227
O O1 0.142231 0.672541 0.750000
O O2 0.120045 0.755925 0.989461
O O3 0.215823 0.640331 0.004320
O O4 0.072497 0.623204 0.997842
O O5 0.916684 0.166305 0.250000
O O6 0.857050 0.103830 0.008722
O O7 0.000000 0.158883 0.003116
O O8 0.500000 0.082547 0.250000
O O9 0.500000 0.000000 0.500000
O O10 0.772321 0.078370 0.250000
O O11 0.754032 0.000000 0.500000
#
# Coordination Sequence:
#
# PCOD9475585 Si02
#       4
#    16  16   8  16
#     4  11  21  39  64  88 119 156 199 246 300 359
#     4   9  19  38  64  90 118 156 199 248 303 356
#     4  12  24  38  58  88 123 158 197 242 295 356
#     4  11  23  39  60  88 123 160 202 248 298 354
#
# _framework density 20.011331999999999
#
# number of rings (size 3 to 8) (size 9 to 14) (size 15 to 20)
#    0.000    1.429    1.429    4.714    0.000    0.571 
#    0.000    4.286    0.000    0.000    0.000    0.000 
#    0.000    0.000    0.000    0.000    0.000    0.000 
#
# Total GULP energy -156534.237086 kJ/mol
# GULP energy per Si atom -5590.508467 kJ/mol
# Density = 1.996579 g / cm^3
# Si number density = 20.011332 Si / 1000 Ang^3
#
#
#
# Elastic Constant Matrix: (Units=GPa)
#
#
# Indices 1 2 3 4 5 6 
#
# 1 128.6273 2.8634 14.5142 0.0000 0.0000 0.0000
# 2 2.8634 9.5196 2.9764 0.0000 0.0000 0.0000
# 3 14.5142 2.9764 57.7385 0.0000 0.0000 0.0000
# 4 0.0000 0.0000 0.0000 6.9646 0.0000 0.0000
# 5 0.0000 0.0000 0.0000 0.0000 -691.0813 0.0000
# 6 0.0000 0.0000 0.0000 0.0000 0.0000 53.4395
#
#
#
# Elastic Compliance Matrix: (Units=1/GPa)
#
#
# Indices 1 2 3 4 5 6 
#
# 1 0.008032 -0.001814 -0.001926 0.000000 0.000000 0.000000
# 2 -0.001814 0.107177 -0.005069 0.000000 0.000000 0.000000
# 3 -0.001926 -0.005069 0.018065 0.000000 0.000000 0.000000
# 4 0.000000 0.000000 0.000000 0.143583 0.000000 0.000000
# 5 0.000000 0.000000 0.000000 0.000000 -0.001447 0.000000
# 6 0.000000 0.000000 0.000000 0.000000 0.000000 0.018713
#
#
# Mechanical properties :
#
#
# Convention : Reuss Voigt Hill
#
# Bulk Modulus (GPa) = 8.64626 26.28815 17.46721
# Shear Modulus (GPa) = 14.27381 -114.43334 -50.07977
#
# Velocity S-wave (km/s) = 2.67364 -7.57023 -5.00800
# Velocity P-wave (km/s) = 3.72306 7.95274 4.96915
#
# Compressibility (1/GPa) = 0.11565692
#
# Stress axis : x y z
#
# Youngs Moduli (GPa) = 124.50106 9.33036 55.35624
#
# Poissons Ratio (x) = 0.01692 0.10659
# Poissons Ratio (y) = 0.22583 0.28060
# Poissons Ratio (z) = 0.23974 0.04730
#
# Static dielectric constant tensor:
#      x y z
#    x 1.702290 0.000000 0.000000 
#    y 0.000000 1.671380 0.000000 
#    z 0.000000 0.000000 1.673750 
# 
# From -- ./inp_files/3995.got.cif
#   From: 2010.05.17/outbox.cif.g08.bks.cpg/sg63_2_cif.got.tgz:3995.got - 2010.06.03 15:47:04.
