data_PCOD9475686
_publ_section_title
;
Structure prediction by ZEFSAII (Michael W. Deem and Ramdas Pophale) SiO2 
 PCOD9475686
Probable space group: C M C M
;
_chemical_formula_sum "Si O2"
_cell_formula_units_Z 64
_cell_length_a 10.077208
_cell_length_b 17.569531
_cell_length_c 17.949737
_cell_angle_alpha 90.000000
_cell_angle_beta 90.000000
_cell_angle_gamma 90.000000
_cell_volume 3178.033575
_symmetry_space_group_name_H-M "C M C M"
_symmetry_group_IT_number 63
_symmetry_cell_setting 'orthorhombic'
loop_
_space_group_symop_operation_xyz
x,y,z
-x,-y,1/2+z
x,-y,-z
-x,y,1/2-z
-x,-y,-z
x,y,1/2-z
-x,y,z
x,-y,1/2+z
1/2+x,1/2+y,z
1/2-x,1/2-y,1/2+z
1/2+x,1/2-y,-z
1/2-x,1/2+y,1/2-z
1/2-x,1/2-y,-z
1/2+x,1/2+y,1/2-z
1/2-x,1/2+y,z
1/2+x,1/2-y,1/2+z
loop_
_atom_site_type_symbol
_atom_site_label
_atom_site_fract_x
_atom_site_fract_y
_atom_site_fract_z
Si Si1 0.000000 0.003397 0.159659
Si Si2 0.783718 0.115783 0.838454
Si Si3 0.500000 0.320893 0.659976
Si Si4 0.500000 0.932558 0.396870
Si Si5 0.273216 0.769412 0.913679
Si Si6 0.500000 0.891630 0.927945
O O1 0.128052 0.955549 0.135430
O O2 0.000000 0.004703 0.250000
O O3 0.000000 0.090438 0.136517
O O4 0.797419 0.122732 0.750000
O O5 0.632006 0.099915 0.859515
O O6 0.830800 0.193582 0.876021
O O7 0.500000 0.314326 0.750000
O O8 0.366833 0.285253 0.626313
O O9 0.500000 0.906740 0.483161
O O10 0.500000 0.024511 0.392272
O O11 0.371597 0.841110 0.907533
O O12 0.250000 0.750000 0.000000
#
# Coordination Sequence:
#
# PCOD9475686 Si02
#       6
#     8  16   8   8  16   8
#     4   9  21  40  62  91 124 162 212 267 319 381
#     4  11  22  41  66  92 127 171 217 266 325 391
#     4  11  24  44  68  95 129 171 217 265 325 391
#     4  11  22  41  63  94 128 171 218 265 321 395
#     4  12  23  42  63  97 132 172 215 274 322 387
#     4  11  24  41  63  94 135 167 213 271 331 379
#
# _framework density 20.13824
#
# number of rings (size 3 to 8) (size 9 to 14) (size 15 to 20)
#    0.000    1.000    2.500    4.875    0.000    0.000 
#    0.000    6.875    0.000    0.000    0.000    0.000 
#    0.000    0.000    0.000    0.000    0.000    0.000 
#
# Total GULP energy -179003.950933 kJ/mol
# GULP energy per Si atom -5593.873467 kJ/mol
# Density = 2.009240 g / cm^3
# Si number density = 20.138240 Si / 1000 Ang^3
#
#
#
# Elastic Constant Matrix: (Units=GPa)
#
#
# Indices 1 2 3 4 5 6 
#
# 1 109.1875 28.2390 18.7768 0.0000 0.0000 0.0000
# 2 28.2390 135.2706 30.8129 0.0000 0.0000 0.0000
# 3 18.7768 30.8129 81.2947 0.0000 0.0000 0.0000
# 4 0.0000 0.0000 0.0000 32.7787 0.0000 0.0000
# 5 0.0000 0.0000 0.0000 0.0000 16.6853 0.0000
# 6 0.0000 0.0000 0.0000 0.0000 0.0000 45.1214
#
#
#
# Elastic Compliance Matrix: (Units=1/GPa)
#
#
# Indices 1 2 3 4 5 6 
#
# 1 0.009877 -0.001688 -0.001642 0.000000 0.000000 0.000000
# 2 -0.001688 0.008380 -0.002786 0.000000 0.000000 0.000000
# 3 -0.001642 -0.002786 0.013736 0.000000 0.000000 0.000000
# 4 0.000000 0.000000 0.000000 0.030508 0.000000 0.000000
# 5 0.000000 0.000000 0.000000 0.000000 0.059933 0.000000
# 6 0.000000 0.000000 0.000000 0.000000 0.000000 0.022162
#
#
# Mechanical properties :
#
#
# Convention : Reuss Voigt Hill
#
# Bulk Modulus (GPa) = 50.60352 53.49003 52.04677
# Shear Modulus (GPa) = 30.59689 35.44535 33.02112
#
# Velocity S-wave (km/s) = 3.90210 4.19991 4.05374
# Velocity P-wave (km/s) = 6.74422 7.08082 6.91457
#
# Compressibility (1/GPa) = 0.01976147
#
# Stress axis : x y z
#
# Youngs Moduli (GPa) = 101.24082 119.33662 72.80061
#
# Poissons Ratio (x) = 0.20145 0.11951
# Poissons Ratio (y) = 0.17090 0.20284
# Poissons Ratio (z) = 0.16620 0.33250
#
# Static dielectric constant tensor:
#      x y z
#    x 1.690330 0.000000 0.000000 
#    y 0.000000 1.722800 0.000000 
#    z 0.000000 0.000000 1.663930 
# 
# From -- ./inp_files/50422.got.cif
#   From: 2010.05.17/outbox.cif.g08.bks.cpg/sg63_26_cif.got.tgz:50422.got - 2010.06.03 15:47:04.
