data_PCOD9475535
_publ_section_title
;
Structure prediction by ZEFSAII (Michael W. Deem and Ramdas Pophale) SiO2 
 PCOD9475535
Probable space group: C M C M
;
_chemical_formula_sum "Si O2"
_cell_formula_units_Z 112
_cell_length_a 15.117161
_cell_length_b 26.139850
_cell_length_c 14.327622
_cell_angle_alpha 90.000000
_cell_angle_beta 90.000000
_cell_angle_gamma 90.000000
_cell_volume 5661.707708
_symmetry_space_group_name_H-M "C M C M"
_symmetry_group_IT_number 63
_symmetry_cell_setting 'orthorhombic'
loop_
_space_group_symop_operation_xyz
x,y,z
-x,-y,1/2+z
x,-y,-z
-x,y,1/2-z
-x,-y,-z
x,y,1/2-z
-x,y,z
x,-y,1/2+z
1/2+x,1/2+y,z
1/2-x,1/2-y,1/2+z
1/2+x,1/2-y,-z
1/2-x,1/2+y,1/2-z
1/2-x,1/2-y,-z
1/2+x,1/2+y,1/2-z
1/2-x,1/2+y,z
1/2+x,1/2-y,1/2+z
loop_
_atom_site_type_symbol
_atom_site_label
_atom_site_fract_x
_atom_site_fract_y
_atom_site_fract_z
Si Si1 0.100733 0.702994 0.139806
Si Si2 0.901934 0.592123 0.048879
Si Si3 0.848064 0.956918 0.353409
Si Si4 0.274461 0.569445 0.141468
Si Si5 0.688004 0.694109 0.860410
Si Si6 0.097658 0.118552 0.002290
Si Si7 0.329556 0.111978 0.853660
O O1 0.107231 0.691721 0.250000
O O2 0.109962 0.650098 0.085944
O O3 0.172434 0.746483 0.117811
O O4 0.000000 0.722739 0.123125
O O5 0.821264 0.561640 0.094672
O O6 0.000000 0.574121 0.075002
O O7 0.890876 0.595473 0.937935
O O8 0.886986 0.947902 0.250000
O O9 0.900425 0.932385 0.438183
O O10 0.754393 0.926603 0.354768
O O11 0.828194 0.016514 0.363928
O O12 0.264642 0.583456 0.250000
O O13 0.328580 0.610748 0.081410
O O14 0.664092 0.687059 0.750000
O O15 0.625306 0.662554 0.929717
O O16 0.784099 0.667690 0.870432
O O17 0.000000 0.126782 0.041046
O O18 0.368664 0.110976 0.750000
#
# Coordination Sequence:
#
# PCOD9475535 Si02
#       7
#    16  16  16  16  16  16  16
#     4   9  18  32  52  82 113 140 182 235 277 321
#     4  11  22  37  59  81 106 148 193 232 279 330
#     4   9  19  36  58  79 110 145 179 223 277 331
#     4  11  23  39  55  76 112 151 185 231 277 322
#     4   9  17  33  58  84 112 143 179 229 284 326
#     4  11  21  34  57  86 114 146 184 224 275 338
#     4   9  18  35  56  83 111 138 176 227 280 336
#
# _framework density 19.782018000000001
#
# number of rings (size 3 to 8) (size 9 to 14) (size 15 to 20)
#    0.000    2.143    2.857    2.571    0.000    4.857 
#    0.000    2.857    0.000    2.571    0.000    2.000 
#    0.000    0.000    0.000    0.000    0.000    0.000 
#
# Total GULP energy -312409.715913 kJ/mol
# GULP energy per Si atom -5578.744927 kJ/mol
# Density = 1.973699 g / cm^3
# Si number density = 19.782018 Si / 1000 Ang^3
#
#
#
# Elastic Constant Matrix: (Units=GPa)
#
#
# Indices 1 2 3 4 5 6 
#
# 1 53.5161 -21.3245 17.8034 0.0000 0.0000 0.0000
# 2 -21.3245 12.2811 -6.5508 0.0000 0.0000 0.0000
# 3 17.8034 -6.5508 83.3248 0.0000 0.0000 0.0000
# 4 0.0000 0.0000 0.0000 18.9553 0.0000 0.0000
# 5 0.0000 0.0000 0.0000 0.0000 7.0256 0.0000
# 6 0.0000 0.0000 0.0000 0.0000 0.0000 9.2606
#
#
#
# Elastic Compliance Matrix: (Units=1/GPa)
#
#
# Indices 1 2 3 4 5 6 
#
# 1 0.062612 0.106028 -0.005042 0.000000 0.000000 0.000000
# 2 0.106028 0.264537 -0.001857 0.000000 0.000000 0.000000
# 3 -0.005042 -0.001857 0.012933 0.000000 0.000000 0.000000
# 4 0.000000 0.000000 0.000000 0.052756 0.000000 0.000000
# 5 0.000000 0.000000 0.000000 0.000000 0.142337 0.000000
# 6 0.000000 0.000000 0.000000 0.000000 0.000000 0.107984
#
#
# Mechanical properties :
#
#
# Convention : Reuss Voigt Hill
#
# Bulk Modulus (GPa) = 1.85756 14.33091 8.09424
# Shear Modulus (GPa) = 8.00836 17.66124 12.83480
#
# Velocity S-wave (km/s) = 2.01422 2.99121 2.54994
# Velocity P-wave (km/s) = 2.52002 4.38063 3.57354
#
# Compressibility (1/GPa) = 0.53833917
#
# Stress axis : x y z
#
# Youngs Moduli (GPa) = 15.97138 3.78018 77.32415
#
# Poissons Ratio (x) = -0.40080 0.38988
# Poissons Ratio (y) = -1.69341 0.14357
# Poissons Ratio (z) = 0.08053 0.00702
#
# Static dielectric constant tensor:
#      x y z
#    x 1.715080 0.000000 0.000000 
#    y 0.000000 1.705900 0.000000 
#    z 0.000000 0.000000 1.706660 
# 
# From -- ./inp_files/32527.got.cif
#   From: 2010.05.17/outbox.cif.g08.bks.cpg/sg63_17_cif.got.tgz:32527.got - 2010.06.03 15:47:04.
