data_PCOD9475424
_publ_section_title
;
Structure prediction by ZEFSAII (Michael W. Deem and Ramdas Pophale) SiO2 
 PCOD9475424
Probable space group: C M C M
;
_chemical_formula_sum "Si O2"
_cell_formula_units_Z 80
_cell_length_a 18.406820
_cell_length_b 14.959933
_cell_length_c 14.113665
_cell_angle_alpha 90.000000
_cell_angle_beta 90.000000
_cell_angle_gamma 90.000000
_cell_volume 3886.406455
_symmetry_space_group_name_H-M "C M C M"
_symmetry_group_IT_number 63
_symmetry_cell_setting 'orthorhombic'
loop_
_space_group_symop_operation_xyz
x,y,z
-x,-y,1/2+z
x,-y,-z
-x,y,1/2-z
-x,-y,-z
x,y,1/2-z
-x,y,z
x,-y,1/2+z
1/2+x,1/2+y,z
1/2-x,1/2-y,1/2+z
1/2+x,1/2-y,-z
1/2-x,1/2+y,1/2-z
1/2-x,1/2-y,-z
1/2+x,1/2+y,1/2-z
1/2-x,1/2+y,z
1/2+x,1/2-y,1/2+z
loop_
_atom_site_type_symbol
_atom_site_label
_atom_site_fract_x
_atom_site_fract_y
_atom_site_fract_z
Si Si1 0.206845 0.214862 0.640280
Si Si2 0.208229 0.582951 0.363607
Si Si3 0.578386 0.045243 0.634846
Si Si4 0.880921 0.260243 0.138143
Si Si5 0.356793 0.405741 0.977226
O O1 0.192781 0.193723 0.750000
O O2 0.181132 0.315821 0.618707
O O3 0.294070 0.221768 0.628097
O O4 0.171611 0.143743 0.571301
O O5 0.220235 0.575716 0.250000
O O6 0.147431 0.512710 0.393684
O O7 0.284452 0.570996 0.416032
O O8 0.581588 0.047738 0.750000
O O9 0.500000 0.006395 0.608737
O O10 0.583468 0.148042 0.603923
O O11 0.895826 0.248035 0.250000
O O12 0.898608 0.170388 0.081685
O O13 0.393820 0.500000 0.000000
#
# Coordination Sequence:
#
# PCOD9475424 Si02
#       5
#    16  16  16  16  16
#     4   9  18  31  48  68  94 130 165 204 248 294
#     4   9  17  30  48  73 103 131 161 198 248 304
#     4   9  17  30  51  78 107 137 165 198 243 300
#     4   9  17  30  47  70  99 128 162 200 244 296
#     4  11  20  29  47  69  96 131 166 209 250 287
#
# _framework density 20.584568999999998
#
# number of rings (size 3 to 8) (size 9 to 14) (size 15 to 20)
#    0.000    2.600    0.000    5.400    0.000    3.200 
#    0.000    0.000    0.000   15.600    0.000    0.000 
#    0.000    6.400    0.000    0.000    0.000    0.000 
#
# Total GULP energy -223446.365904 kJ/mol
# GULP energy per Si atom -5586.159148 kJ/mol
# Density = 2.053772 g / cm^3
# Si number density = 20.584569 Si / 1000 Ang^3
#
#
#
# Elastic Constant Matrix: (Units=GPa)
#
#
# Indices 1 2 3 4 5 6 
#
# 1 41.3286 21.0398 -0.3045 0.0000 0.0000 0.0000
# 2 21.0398 103.3445 35.2253 0.0000 0.0000 0.0000
# 3 -0.3045 35.2253 82.6288 0.0000 0.0000 0.0000
# 4 0.0000 0.0000 0.0000 32.5818 0.0000 0.0000
# 5 0.0000 0.0000 0.0000 0.0000 -12.4648 0.0000
# 6 0.0000 0.0000 0.0000 0.0000 0.0000 -5.7057
#
#
#
# Elastic Compliance Matrix: (Units=1/GPa)
#
#
# Indices 1 2 3 4 5 6 
#
# 1 0.027583 -0.006611 0.002920 0.000000 0.000000 0.000000
# 2 -0.006611 0.012906 -0.005526 0.000000 0.000000 0.000000
# 3 0.002920 -0.005526 0.014469 0.000000 0.000000 0.000000
# 4 0.000000 0.000000 0.000000 0.030692 0.000000 0.000000
# 5 0.000000 0.000000 0.000000 0.000000 -0.080226 0.000000
# 6 0.000000 0.000000 0.000000 0.000000 0.000000 -0.175263
#
#
# Mechanical properties :
#
#
# Convention : Reuss Voigt Hill
#
# Bulk Modulus (GPa) = 27.37943 37.69146 32.53545
# Shear Modulus (GPa) = -35.91201 14.30501 -10.80350
#
# Velocity S-wave (km/s) = -4.18138 2.63903 -2.29341
# Velocity P-wave (km/s) = 3.15945 5.25702 2.97104
#
# Compressibility (1/GPa) = 0.03652376
#
# Stress axis : x y z
#
# Youngs Moduli (GPa) = 36.25372 77.48376 69.11339
#
# Poissons Ratio (x) = 0.51224 -0.20181
# Poissons Ratio (y) = 0.23967 0.38194
# Poissons Ratio (z) = -0.10586 0.42820
#
# Static dielectric constant tensor:
#      x y z
#    x 1.715610 0.000000 0.000000 
#    y 0.000000 1.765010 0.000000 
#    z 0.000000 0.000000 1.769460 
# 
# From -- ./inp_files/35097.got.cif
#   From: 2010.05.17/outbox.cif.g08.bks.cpg/sg63_18_cif.got.tgz:35097.got - 2010.06.03 15:47:04.
