data_PCOD9475095
_publ_section_title
;
Structure prediction by ZEFSAII (Michael W. Deem and Ramdas Pophale) SiO2 
 PCOD9475095
Probable space group: C M C M
;
_chemical_formula_sum "Si O2"
_cell_formula_units_Z 112
_cell_length_a 22.021000
_cell_length_b 15.186073
_cell_length_c 15.746800
_cell_angle_alpha 90.000000
_cell_angle_beta 90.000000
_cell_angle_gamma 90.000000
_cell_volume 5265.926968
_symmetry_space_group_name_H-M "C M C M"
_symmetry_group_IT_number 63
_symmetry_cell_setting 'orthorhombic'
loop_
_space_group_symop_operation_xyz
x,y,z
-x,-y,1/2+z
x,-y,-z
-x,y,1/2-z
-x,-y,-z
x,y,1/2-z
-x,y,z
x,-y,1/2+z
1/2+x,1/2+y,z
1/2-x,1/2-y,1/2+z
1/2+x,1/2-y,-z
1/2-x,1/2+y,1/2-z
1/2-x,1/2-y,-z
1/2+x,1/2+y,1/2-z
1/2-x,1/2+y,z
1/2+x,1/2-y,1/2+z
loop_
_atom_site_type_symbol
_atom_site_label
_atom_site_fract_x
_atom_site_fract_y
_atom_site_fract_z
Si Si1 0.128910 0.160848 0.944455
Si Si2 0.155677 0.667870 0.151827
Si Si3 0.929219 0.487445 0.898063
Si Si4 0.342340 0.143987 0.656462
Si Si5 0.757379 0.394020 0.996954
Si Si6 0.571329 0.503179 0.848164
Si Si7 0.569993 0.699143 0.388824
O O1 0.140113 0.231967 0.871433
O O2 0.190879 0.146801 0.996238
O O3 0.109031 0.067471 0.907312
O O4 0.079375 0.198401 0.009700
O O5 0.172031 0.657485 0.250000
O O6 0.098410 0.605765 0.129481
O O7 0.208229 0.636248 0.087714
O O8 0.887964 0.561854 0.855187
O O9 0.000000 0.495905 0.876407
O O10 0.922935 0.500000 0.000000
O O11 0.313504 0.140426 0.750000
O O12 0.295168 0.138189 0.579245
O O13 0.383835 0.230370 0.648374
O O14 0.755038 0.500000 0.000000
O O15 0.580955 0.526568 0.750000
O O16 0.500000 0.514579 0.868451
O O17 0.584603 0.400149 0.860082
O O18 0.500000 0.718596 0.366527
#
# Coordination Sequence:
#
# PCOD9475095 Si02
#       7
#    16  16  16  16  16  16  16
#     4  12  25  45  68  96 134 181 229 281 340 407
#     4  12  25  44  68  97 135 178 227 283 343 405
#     4  11  22  42  70 100 140 184 226 278 343 413
#     4  12  24  41  67 101 139 180 224 278 340 403
#     4  12  25  48  69  97 138 181 230 286 337 406
#     4  10  22  42  67 100 137 174 227 285 339 403
#     4  11  23  42  68  99 135 177 226 281 344 404
#
# _framework density 21.268809999999998
#
# number of rings (size 3 to 8) (size 9 to 14) (size 15 to 20)
#    0.000    0.571    4.286    3.857    0.000    7.143 
#    0.000    2.143    0.000    0.000    0.000    0.000 
#    0.000    0.000    0.000    0.000    0.000    0.000 
#
# Total GULP energy -313623.585662 kJ/mol
# GULP energy per Si atom -5600.421173 kJ/mol
# Density = 2.122040 g / cm^3
# Si number density = 21.268810 Si / 1000 Ang^3
#
#
#
# Elastic Constant Matrix: (Units=GPa)
#
#
# Indices 1 2 3 4 5 6 
#
# 1 54.9313 8.9331 27.0784 0.0000 0.0000 0.0000
# 2 8.9331 75.0326 19.9365 0.0000 0.0000 0.0000
# 3 27.0784 19.9365 125.2876 0.0000 0.0000 0.0000
# 4 0.0000 0.0000 0.0000 24.1837 0.0000 0.0000
# 5 0.0000 0.0000 0.0000 0.0000 -3.8224 0.0000
# 6 0.0000 0.0000 0.0000 0.0000 0.0000 16.2909
#
#
#
# Elastic Compliance Matrix: (Units=1/GPa)
#
#
# Indices 1 2 3 4 5 6 
#
# 1 0.020500 -0.001319 -0.004221 0.000000 0.000000 0.000000
# 2 -0.001319 0.014001 -0.001943 0.000000 0.000000 0.000000
# 3 -0.004221 -0.001943 0.009203 0.000000 0.000000 0.000000
# 4 0.000000 0.000000 0.000000 0.041350 0.000000 0.000000
# 5 0.000000 0.000000 0.000000 0.000000 -0.261614 0.000000
# 6 0.000000 0.000000 0.000000 0.000000 0.000000 0.061384
#
#
# Mechanical properties :
#
#
# Convention : Reuss Voigt Hill
#
# Bulk Modulus (GPa) = 34.79686 40.79417 37.79552
# Shear Modulus (GPa) = -55.16824 20.61734 -17.27545
#
# Velocity S-wave (km/s) = -5.09852 3.11685 -2.85308
# Velocity P-wave (km/s) = 4.27362 5.67229 2.63734
#
# Compressibility (1/GPa) = 0.02873822
#
# Stress axis : x y z
#
# Youngs Moduli (GPa) = 48.78124 71.42451 108.66027
#
# Poissons Ratio (x) = 0.09422 0.45862
# Poissons Ratio (y) = 0.06435 0.21110
# Poissons Ratio (z) = 0.20589 0.13876
#
# Static dielectric constant tensor:
#      x y z
#    x 1.734410 0.000000 0.000000 
#    y 0.000000 1.751110 0.000000 
#    z 0.000000 0.000000 1.779220 
# 
# From -- ./inp_files/36854.got.cif
#   From: 2010.05.17/outbox.cif.g08.bks.cpg/sg63_19_cif.got.tgz:36854.got - 2010.06.03 15:47:04.
