data_PCOD9475880
_publ_section_title
;
Structure prediction by ZEFSAII (Michael W. Deem and Ramdas Pophale) SiO2 
 PCOD9475880
Probable space group: C M C M
;
_chemical_formula_sum "Si O2"
_cell_formula_units_Z 52
_cell_length_a 15.366003
_cell_length_b 7.310004
_cell_length_c 18.356925
_cell_angle_alpha 90.000000
_cell_angle_beta 90.000000
_cell_angle_gamma 90.000000
_cell_volume 2061.951576
_symmetry_space_group_name_H-M "C M C M"
_symmetry_group_IT_number 63
_symmetry_cell_setting 'orthorhombic'
loop_
_space_group_symop_operation_xyz
x,y,z
-x,-y,1/2+z
x,-y,-z
-x,y,1/2-z
-x,-y,-z
x,y,1/2-z
-x,y,z
x,-y,1/2+z
1/2+x,1/2+y,z
1/2-x,1/2-y,1/2+z
1/2+x,1/2-y,-z
1/2-x,1/2+y,1/2-z
1/2-x,1/2-y,-z
1/2+x,1/2+y,1/2-z
1/2-x,1/2+y,z
1/2+x,1/2-y,1/2+z
loop_
_atom_site_type_symbol
_atom_site_label
_atom_site_fract_x
_atom_site_fract_y
_atom_site_fract_z
Si Si1 0.348268 0.110852 0.166491
Si Si2 0.098837 0.656034 0.550702
Si Si3 0.847776 0.983246 0.868352
Si Si4 0.000000 0.082050 0.250000
O O1 0.375823 0.143131 0.250000
O O2 0.247602 0.051156 0.164777
O O3 0.358286 0.299505 0.122336
O O4 0.400119 0.948659 0.128430
O O5 0.141108 0.500000 0.500000
O O6 0.144506 0.848363 0.563018
O O7 0.000000 0.687170 0.525708
O O8 0.923813 0.927512 0.813284
#
# Coordination Sequence:
#
# PCOD9475880 Si02
#       4
#    16  16  16   4
#     4  12  25  43  73 105 139 179 229 290 348 408
#     4  11  28  48  69 101 143 190 232 279 347 416
#     4  12  25  44  70 103 144 172 232 286 346 408
#     4  12  24  40  72 110 136 176 222 298 348 400
#
# _framework density 25.218824999999999
#
# number of rings (size 3 to 8) (size 9 to 14) (size 15 to 20)
#    0.000    0.308    7.692    0.000    4.308    3.077 
#    0.000    3.077    0.000    0.000    0.000    0.000 
#    0.000    0.000    0.000    0.000    0.000    0.000 
#
# Total GULP energy -145099.500660 kJ/mol
# GULP energy per Si atom -5580.750025 kJ/mol
# Density = 2.516143 g / cm^3
# Si number density = 25.218825 Si / 1000 Ang^3
#
#
#
# Elastic Constant Matrix: (Units=GPa)
#
#
# Indices 1 2 3 4 5 6 
#
# 1 104.0678 -4.8215 7.8259 0.0000 0.0000 0.0000
# 2 -4.8215 179.0303 29.6258 0.0000 0.0000 0.0000
# 3 7.8259 29.6258 49.1164 0.0000 0.0000 0.0000
# 4 0.0000 0.0000 0.0000 14.4364 0.0000 0.0000
# 5 0.0000 0.0000 0.0000 0.0000 12.1561 0.0000
# 6 0.0000 0.0000 0.0000 0.0000 0.0000 -2.3104
#
#
#
# Elastic Compliance Matrix: (Units=1/GPa)
#
#
# Indices 1 2 3 4 5 6 
#
# 1 0.009779 0.000579 -0.001907 0.000000 0.000000 0.000000
# 2 0.000579 0.006239 -0.003856 0.000000 0.000000 0.000000
# 3 -0.001907 -0.003856 0.022989 0.000000 0.000000 0.000000
# 4 0.000000 0.000000 0.000000 0.069269 0.000000 0.000000
# 5 0.000000 0.000000 0.000000 0.000000 0.082263 0.000000
# 6 0.000000 0.000000 0.000000 0.000000 0.000000 -0.432826
#
#
# Mechanical properties :
#
#
# Convention : Reuss Voigt Hill
#
# Bulk Modulus (GPa) = 34.91636 44.16389 39.54013
# Shear Modulus (GPa) = -22.48496 24.82873 1.17188
#
# Velocity S-wave (km/s) = -2.98920 3.14113 0.68242
# Velocity P-wave (km/s) = 1.40060 5.54129 4.04151
#
# Compressibility (1/GPa) = 0.02863987
#
# Stress axis : x y z
#
# Youngs Moduli (GPa) = 102.25593 160.27522 43.49846
#
# Poissons Ratio (x) = -0.09280 0.08297
# Poissons Ratio (y) = -0.05921 0.16771
# Poissons Ratio (z) = 0.19505 0.61796
#
# Static dielectric constant tensor:
#      x y z
#    x 1.883900 0.000000 0.000000 
#    y 0.000000 1.966370 0.000000 
#    z 0.000000 0.000000 2.073170 
# 
# From -- ./inp_files/44885.got.cif
#   From: 2010.05.17/outbox.cif.g08.bks.cpg/sg63_23_cif.got.tgz:44885.got - 2010.06.03 15:47:04.
