data_PCOD9475652
_publ_section_title
;
Structure prediction by ZEFSAII (Michael W. Deem and Ramdas Pophale) SiO2 
 PCOD9475652
Probable space group: C M C M
;
_chemical_formula_sum "Si O2"
_cell_formula_units_Z 96
_cell_length_a 11.887075
_cell_length_b 14.514131
_cell_length_c 28.469326
_cell_angle_alpha 90.000000
_cell_angle_beta 90.000000
_cell_angle_gamma 90.000000
_cell_volume 4911.828865
_symmetry_space_group_name_H-M "C M C M"
_symmetry_group_IT_number 63
_symmetry_cell_setting 'orthorhombic'
loop_
_space_group_symop_operation_xyz
x,y,z
-x,-y,1/2+z
x,-y,-z
-x,y,1/2-z
-x,-y,-z
x,y,1/2-z
-x,y,z
x,-y,1/2+z
1/2+x,1/2+y,z
1/2-x,1/2-y,1/2+z
1/2+x,1/2-y,-z
1/2-x,1/2+y,1/2-z
1/2-x,1/2-y,-z
1/2+x,1/2+y,1/2-z
1/2-x,1/2+y,z
1/2+x,1/2-y,1/2+z
loop_
_atom_site_type_symbol
_atom_site_label
_atom_site_fract_x
_atom_site_fract_y
_atom_site_fract_z
Si Si1 0.000000 0.372091 0.803544
Si Si2 0.276204 0.419485 0.352754
Si Si3 0.871700 0.376835 0.953459
Si Si4 0.870281 0.715719 0.694829
Si Si5 0.269081 0.872596 0.641958
Si Si6 0.000000 0.848185 0.195829
Si Si7 0.130003 0.400319 0.441390
O O1 0.111756 0.394159 0.832807
O O2 0.000000 0.408986 0.750000
O O3 0.000000 0.261480 0.800260
O O4 0.181872 0.384030 0.316290
O O5 0.291782 0.528844 0.356772
O O6 0.390916 0.377447 0.333418
O O7 0.222954 0.383458 0.401759
O O8 0.793861 0.342698 0.911513
O O9 0.872861 0.488319 0.947387
O O10 0.000000 0.344489 0.946178
O O11 0.841028 0.359070 0.007562
O O12 0.862290 0.733657 0.750000
O O13 0.797530 0.793166 0.668612
O O14 0.000000 0.719731 0.680418
O O15 0.000000 0.884749 0.250000
O O16 0.000000 0.373698 0.429322
#
# Coordination Sequence:
#
# PCOD9475652 Si02
#       7
#     8  16  16  16  16   8  16
#     4  11  22  38  60  86 115 153 201 253 290 332
#     4  11  23  39  63  87 116 153 201 243 291 349
#     4   8  14  29  56  89 117 148 188 237 291 346
#     4  11  25  42  58  82 120 159 195 243 300 352
#     4  11  22  38  63  89 119 153 199 243 290 350
#     4  11  24  42  60  80 117 163 199 243 302 350
#     4   8  15  30  57  88 118 148 187 238 294 347
#
# _framework density 19.544654000000001
#
# number of rings (size 3 to 8) (size 9 to 14) (size 15 to 20)
#    0.000    2.000    2.500    2.500    3.500    2.667 
#    0.000    0.833    1.833    2.000    0.000    0.000 
#    0.000    0.000    0.000    0.000    0.000    0.000 
#
# Total GULP energy -267799.696005 kJ/mol
# GULP energy per Si atom -5579.160333 kJ/mol
# Density = 1.950017 g / cm^3
# Si number density = 19.544654 Si / 1000 Ang^3
#
#
#
# Elastic Constant Matrix: (Units=GPa)
#
#
# Indices 1 2 3 4 5 6 
#
# 1 95.0795 6.2653 56.2381 0.0000 0.0000 0.0000
# 2 6.2653 47.0943 10.8221 0.0000 0.0000 0.0000
# 3 56.2381 10.8221 129.0628 0.0000 0.0000 0.0000
# 4 0.0000 0.0000 0.0000 15.3643 0.0000 0.0000
# 5 0.0000 0.0000 0.0000 0.0000 -17.9976 0.0000
# 6 0.0000 0.0000 0.0000 0.0000 0.0000 -5.1222
#
#
#
# Elastic Compliance Matrix: (Units=1/GPa)
#
#
# Indices 1 2 3 4 5 6 
#
# 1 0.014180 -0.000476 -0.006139 0.000000 0.000000 0.000000
# 2 -0.000476 0.021667 -0.001610 0.000000 0.000000 0.000000
# 3 -0.006139 -0.001610 0.010558 0.000000 0.000000 0.000000
# 4 0.000000 0.000000 0.000000 0.065086 0.000000 0.000000
# 5 0.000000 0.000000 0.000000 0.000000 -0.055563 0.000000
# 6 0.000000 0.000000 0.000000 0.000000 0.000000 -0.195227
#
#
# Mechanical properties :
#
#
# Convention : Reuss Voigt Hill
#
# Bulk Modulus (GPa) = 33.38136 46.43196 39.90666
# Shear Modulus (GPa) = -44.30081 11.64295 -16.32893
#
# Velocity S-wave (km/s) = -4.76610 2.44337 -2.89358
# Velocity P-wave (km/s) = 3.62918 5.63635 3.04939
#
# Compressibility (1/GPa) = 0.02995684
#
# Stress axis : x y z
#
# Youngs Moduli (GPa) = 70.52216 46.15279 94.71398
#
# Poissons Ratio (x) = 0.02196 0.58144
# Poissons Ratio (y) = 0.03355 0.15244
# Poissons Ratio (z) = 0.43293 0.07428
#
# Static dielectric constant tensor:
#      x y z
#    x 1.661390 0.000000 0.000000 
#    y 0.000000 1.670290 0.000000 
#    z 0.000000 0.000000 1.724900 
# 
# From -- ./inp_files/72808.got.cif
#   From: 2010.05.17/outbox.cif.g08.bks.cpg/sg63_37_cif.got.tgz:72808.got - 2010.06.03 15:47:04.
