data_PCOD9475825
_publ_section_title
;
Structure prediction by ZEFSAII (Michael W. Deem and Ramdas Pophale) SiO2 
 PCOD9475825
Probable space group: C M C M
;
_chemical_formula_sum "Si O2"
_cell_formula_units_Z 64
_cell_length_a 15.204944
_cell_length_b 11.770042
_cell_length_c 18.261886
_cell_angle_alpha 90.000000
_cell_angle_beta 90.000000
_cell_angle_gamma 90.000000
_cell_volume 3268.198790
_symmetry_space_group_name_H-M "C M C M"
_symmetry_group_IT_number 63
_symmetry_cell_setting 'orthorhombic'
loop_
_space_group_symop_operation_xyz
x,y,z
-x,-y,1/2+z
x,-y,-z
-x,y,1/2-z
-x,-y,-z
x,y,1/2-z
-x,y,z
x,-y,1/2+z
1/2+x,1/2+y,z
1/2-x,1/2-y,1/2+z
1/2+x,1/2-y,-z
1/2-x,1/2+y,1/2-z
1/2-x,1/2-y,-z
1/2+x,1/2+y,1/2-z
1/2-x,1/2+y,z
1/2+x,1/2-y,1/2+z
loop_
_atom_site_type_symbol
_atom_site_label
_atom_site_fract_x
_atom_site_fract_y
_atom_site_fract_z
Si Si1 0.856709 0.247703 0.083986
Si Si2 0.896102 0.529898 0.667458
Si Si3 0.000000 0.053644 0.081446
Si Si4 0.153184 0.317232 0.919077
Si Si5 0.500000 0.318206 0.162930
O O1 0.882354 0.340719 0.143847
O O2 0.915312 0.134825 0.090348
O O3 0.753301 0.223034 0.088906
O O4 0.873883 0.300942 0.003529
O O5 0.863443 0.509154 0.750000
O O6 0.852524 0.445643 0.609464
O O7 0.000000 0.505410 0.666299
O O8 0.000000 0.948827 0.137154
O O9 0.000000 0.000000 0.000000
O O10 0.085658 0.243274 0.870947
O O11 0.500000 0.307280 0.250000
#
# Coordination Sequence:
#
# PCOD9475825 Si02
#       5
#    16  16   8  16   8
#     4  11  25  43  71  98 135 176 230 276 339 404
#     4  11  24  42  66  98 134 172 221 278 340 400
#     4  12  24  45  69  98 137 182 222 280 335 414
#     4  11  24  43  70 101 130 176 228 285 333 407
#     4  12  26  45  69  99 137 182 226 280 349 405
#
# _framework density 19.582652
#
# number of rings (size 3 to 8) (size 9 to 14) (size 15 to 20)
#    0.000    0.750    5.000    1.500    3.500    4.000 
#    0.000    0.000    0.000    0.000    0.000    0.000 
#    0.000    0.000    0.000    0.000    0.000    0.000 
#
# Total GULP energy -178994.841015 kJ/mol
# GULP energy per Si atom -5593.588782 kJ/mol
# Density = 1.953808 g / cm^3
# Si number density = 19.582652 Si / 1000 Ang^3
#
#
#
# Elastic Constant Matrix: (Units=GPa)
#
#
# Indices 1 2 3 4 5 6 
#
# 1 88.6227 27.1351 36.9002 0.0000 0.0000 0.0000
# 2 27.1351 107.5246 19.5785 0.0000 0.0000 0.0000
# 3 36.9002 19.5785 68.7517 0.0000 0.0000 0.0000
# 4 0.0000 0.0000 0.0000 13.9360 0.0000 0.0000
# 5 0.0000 0.0000 0.0000 0.0000 19.1872 0.0000
# 6 0.0000 0.0000 0.0000 0.0000 0.0000 24.0498
#
#
#
# Elastic Compliance Matrix: (Units=1/GPa)
#
#
# Indices 1 2 3 4 5 6 
#
# 1 0.015127 -0.002467 -0.007416 0.000000 0.000000 0.000000
# 2 -0.002467 0.010211 -0.001584 0.000000 0.000000 0.000000
# 3 -0.007416 -0.001584 0.018977 0.000000 0.000000 0.000000
# 4 0.000000 0.000000 0.000000 0.071757 0.000000 0.000000
# 5 0.000000 0.000000 0.000000 0.000000 0.052118 0.000000
# 6 0.000000 0.000000 0.000000 0.000000 0.000000 0.041580
#
#
# Mechanical properties :
#
#
# Convention : Reuss Voigt Hill
#
# Bulk Modulus (GPa) = 46.77173 48.01408 47.39290
# Shear Modulus (GPa) = 20.84795 23.52027 22.18411
#
# Velocity S-wave (km/s) = 3.26638 3.46942 3.36943
# Velocity P-wave (km/s) = 6.17752 6.37346 6.27626
#
# Compressibility (1/GPa) = 0.02138044
#
# Stress axis : x y z
#
# Youngs Moduli (GPa) = 66.10596 97.93197 52.69636
#
# Poissons Ratio (x) = 0.24161 0.39082
# Poissons Ratio (y) = 0.16309 0.08346
# Poissons Ratio (z) = 0.49027 0.15510
#
# Static dielectric constant tensor:
#      x y z
#    x 1.669440 0.000000 0.000000 
#    y 0.000000 1.669450 0.000000 
#    z 0.000000 0.000000 1.671230 
# 
# From -- ./inp_files/33428.got.cif
#   From: 2010.05.17/outbox.cif.g08.bks.cpg/sg63_17_cif.got.tgz:33428.got - 2010.06.03 15:47:04.
