data_PCOD9475091
_publ_section_title
;
Structure prediction by ZEFSAII (Michael W. Deem and Ramdas Pophale) SiO2 
 PCOD9475091
Probable space group: C M C M
;
_chemical_formula_sum "Si O2"
_cell_formula_units_Z 104
_cell_length_a 22.510491
_cell_length_b 9.328940
_cell_length_c 25.890210
_cell_angle_alpha 90.000000
_cell_angle_beta 90.000000
_cell_angle_gamma 90.000000
_cell_volume 5436.918725
_symmetry_space_group_name_H-M "C M C M"
_symmetry_group_IT_number 63
_symmetry_cell_setting 'orthorhombic'
loop_
_space_group_symop_operation_xyz
x,y,z
-x,-y,1/2+z
x,-y,-z
-x,y,1/2-z
-x,-y,-z
x,y,1/2-z
-x,y,z
x,-y,1/2+z
1/2+x,1/2+y,z
1/2-x,1/2-y,1/2+z
1/2+x,1/2-y,-z
1/2-x,1/2+y,1/2-z
1/2-x,1/2-y,-z
1/2+x,1/2+y,1/2-z
1/2-x,1/2+y,z
1/2+x,1/2-y,1/2+z
loop_
_atom_site_type_symbol
_atom_site_label
_atom_site_fract_x
_atom_site_fract_y
_atom_site_fract_z
Si Si1 0.234969 0.500000 0.500000
Si Si2 0.432409 0.657497 0.049267
Si Si3 0.865613 0.308248 0.958161
Si Si4 0.282297 0.372008 0.810820
Si Si5 0.431988 0.041797 0.607063
Si Si6 0.670917 0.460664 0.407606
Si Si7 0.169199 0.555555 0.810027
O O1 0.190662 0.633469 0.490558
O O2 0.275850 0.513197 0.550887
O O3 0.500000 0.605973 0.045727
O O4 0.431958 0.797039 0.085710
O O5 0.386527 0.544036 0.071484
O O6 0.406894 0.714008 0.995134
O O7 0.902746 0.440167 0.936040
O O8 0.842472 0.207581 0.912050
O O9 0.297802 0.395899 0.750000
O O10 0.315247 0.473901 0.851810
O O11 0.214332 0.423165 0.816462
O O12 0.296902 0.205891 0.823257
O O13 0.500000 0.998994 0.617358
O O14 0.388524 0.037480 0.655556
O O15 0.153384 0.565787 0.750000
#
# Coordination Sequence:
#
# PCOD9475091 Si02
#       7
#     8  16  16  16  16  16  16
#     4  12  24  38  60  96 128 162 212 250 318 378
#     4  11  23  43  62  87 126 168 213 252 302 377
#     4  12  24  40  61  92 129 168 204 260 310 375
#     4  10  23  41  65  95 127 162 206 257 320 377
#     4  11  23  41  64  90 123 168 212 253 307 374
#     4  12  25  38  64  93 128 165 207 264 312 375
#     4  10  22  42  66  93 123 161 207 261 314 371
#
# _framework density 19.128481000000001
#
# number of rings (size 3 to 8) (size 9 to 14) (size 15 to 20)
#    0.000    0.923    4.615    1.846    4.308    3.385 
#    0.000    0.000    0.000    0.462    0.000    0.000 
#    0.000    0.000    0.000    0.000    0.000    0.000 
#
# Total GULP energy -290628.210192 kJ/mol
# GULP energy per Si atom -5589.004042 kJ/mol
# Density = 1.908494 g / cm^3
# Si number density = 19.128481 Si / 1000 Ang^3
#
#
#
# Elastic Constant Matrix: (Units=GPa)
#
#
# Indices 1 2 3 4 5 6 
#
# 1 145.9728 37.8660 65.3647 0.0000 0.0000 0.0000
# 2 37.8660 46.7015 28.7813 0.0000 0.0000 0.0000
# 3 65.3647 28.7813 73.0936 0.0000 0.0000 0.0000
# 4 0.0000 0.0000 0.0000 25.1754 0.0000 0.0000
# 5 0.0000 0.0000 0.0000 0.0000 -2.1323 0.0000
# 6 0.0000 0.0000 0.0000 0.0000 0.0000 11.9018
#
#
#
# Elastic Compliance Matrix: (Units=1/GPa)
#
#
# Indices 1 2 3 4 5 6 
#
# 1 0.011996 -0.004113 -0.009108 0.000000 0.000000 0.000000
# 2 -0.004113 0.029684 -0.008010 0.000000 0.000000 0.000000
# 3 -0.009108 -0.008010 0.024980 0.000000 0.000000 0.000000
# 4 0.000000 0.000000 0.000000 0.039721 0.000000 0.000000
# 5 0.000000 0.000000 0.000000 0.000000 -0.468972 0.000000
# 6 0.000000 0.000000 0.000000 0.000000 0.000000 0.084021
#
#
# Mechanical properties :
#
#
# Convention : Reuss Voigt Hill
#
# Bulk Modulus (GPa) = 41.32643 58.86577 50.09610
# Shear Modulus (GPa) = -21.92581 15.90605 -3.00988
#
# Velocity S-wave (km/s) = -3.38929 2.88677 -1.25576
# Velocity P-wave (km/s) = 2.51698 6.47703 4.91361
#
# Compressibility (1/GPa) = 0.02419759
#
# Stress axis : x y z
#
# Youngs Moduli (GPa) = 83.36106 33.68793 40.03232
#
# Poissons Ratio (x) = 0.13857 0.36461
# Poissons Ratio (y) = 0.34290 0.32066
# Poissons Ratio (z) = 0.75924 0.26984
#
# Static dielectric constant tensor:
#      x y z
#    x 1.647790 0.000000 0.000000 
#    y 0.000000 1.683250 0.000000 
#    z 0.000000 0.000000 1.666970 
# 
# From -- ./inp_files/70386.got.cif
#   From: 2010.05.17/outbox.cif.g08.bks.cpg/sg63_36_cif.got.tgz:70386.got - 2010.06.03 15:47:04.
