data_PCOD9475808
_publ_section_title
;
Structure prediction by ZEFSAII (Michael W. Deem and Ramdas Pophale) SiO2 
 PCOD9475808
Probable space group: C M C M
;
_chemical_formula_sum "Si O2"
_cell_formula_units_Z 88
_cell_length_a 24.973374
_cell_length_b 9.489316
_cell_length_c 17.964649
_cell_angle_alpha 90.000000
_cell_angle_beta 90.000000
_cell_angle_gamma 90.000000
_cell_volume 4257.266786
_symmetry_space_group_name_H-M "C M C M"
_symmetry_group_IT_number 63
_symmetry_cell_setting 'orthorhombic'
loop_
_space_group_symop_operation_xyz
x,y,z
-x,-y,1/2+z
x,-y,-z
-x,y,1/2-z
-x,-y,-z
x,y,1/2-z
-x,y,z
x,-y,1/2+z
1/2+x,1/2+y,z
1/2-x,1/2-y,1/2+z
1/2+x,1/2-y,-z
1/2-x,1/2+y,1/2-z
1/2-x,1/2-y,-z
1/2+x,1/2+y,1/2-z
1/2-x,1/2+y,z
1/2+x,1/2-y,1/2+z
loop_
_atom_site_type_symbol
_atom_site_label
_atom_site_fract_x
_atom_site_fract_y
_atom_site_fract_z
Si Si1 0.000000 0.610595 0.375580
Si Si2 0.561738 0.390534 0.937786
Si Si3 0.284839 0.978584 0.588132
Si Si4 0.295718 0.686345 0.836948
Si Si5 0.077896 0.141011 0.663696
Si Si6 0.403819 0.925259 0.080434
O O1 0.046379 0.736287 0.379018
O O2 0.047625 0.489380 0.372028
O O3 0.500000 0.357225 0.957521
O O4 0.562624 0.486246 0.864268
O O5 0.591403 0.242789 0.929719
O O6 0.583328 0.500000 0.000000
O O7 0.282361 0.816761 0.610496
O O8 0.276985 0.000000 0.500000
O O9 0.240456 0.058966 0.635346
O O10 0.344645 0.034055 0.607160
O O11 0.285403 0.718428 0.750000
O O12 0.358652 0.655951 0.844777
O O13 0.063732 0.162414 0.750000
O O14 0.412077 0.000000 0.000000
#
# Coordination Sequence:
#
# PCOD9475808 Si02
#       6
#     8  16  16  16  16  16
#     4  12  20  42  68  94 140 182 228 268 335 410
#     4  11  24  39  65  99 133 174 217 272 333 401
#     4  11  25  45  71 102 134 178 232 294 341 406
#     4  11  25  47  69  99 136 181 230 282 353 418
#     4  11  25  44  67  95 136 185 226 276 342 414
#     4  11  24  41  68 103 139 174 226 283 344 411
#
# _framework density 20.670539000000002
#
# number of rings (size 3 to 8) (size 9 to 14) (size 15 to 20)
#    0.000    0.909    3.636    2.727    7.636    0.727 
#    0.000    2.727    0.000    0.000    0.000    0.000 
#    0.000    0.000    0.000    0.000    0.000    0.000 
#
# Total GULP energy -244984.133484 kJ/mol
# GULP energy per Si atom -5567.821216 kJ/mol
# Density = 2.062349 g / cm^3
# Si number density = 20.670539 Si / 1000 Ang^3
#
#
#
# Elastic Constant Matrix: (Units=GPa)
#
#
# Indices 1 2 3 4 5 6 
#
# 1 81.1161 -0.0827 15.8920 0.0000 0.0000 0.0000
# 2 -0.0827 110.5585 -5.5496 0.0000 0.0000 0.0000
# 3 15.8920 -5.5496 49.6476 0.0000 0.0000 0.0000
# 4 0.0000 0.0000 0.0000 12.6512 0.0000 0.0000
# 5 0.0000 0.0000 0.0000 0.0000 -0.9399 0.0000
# 6 0.0000 0.0000 0.0000 0.0000 0.0000 5.3404
#
#
#
# Elastic Compliance Matrix: (Units=1/GPa)
#
#
# Indices 1 2 3 4 5 6 
#
# 1 0.013157 -0.000203 -0.004234 0.000000 0.000000 0.000000
# 2 -0.000203 0.009099 0.001082 0.000000 0.000000 0.000000
# 3 -0.004234 0.001082 0.021618 0.000000 0.000000 0.000000
# 4 0.000000 0.000000 0.000000 0.079044 0.000000 0.000000
# 5 0.000000 0.000000 0.000000 0.000000 -1.063898 0.000000
# 6 0.000000 0.000000 0.000000 0.000000 0.000000 0.187253
#
#
# Mechanical properties :
#
#
# Convention : Reuss Voigt Hill
#
# Bulk Modulus (GPa) = 26.90716 29.09350 28.00033
# Shear Modulus (GPa) = -6.80616 18.81450 6.00417
#
# Velocity S-wave (km/s) = -1.81655 3.02024 1.70617
# Velocity P-wave (km/s) = 2.94035 5.12522 4.17813
#
# Compressibility (1/GPa) = 0.03716483
#
# Stress axis : x y z
#
# Youngs Moduli (GPa) = 76.00304 109.90045 46.25715
#
# Poissons Ratio (x) = 0.02228 0.19587
# Poissons Ratio (y) = 0.01541 -0.05005
# Poissons Ratio (z) = 0.32182 -0.11891
#
# Static dielectric constant tensor:
#      x y z
#    x 1.716400 0.000000 0.000000 
#    y 0.000000 1.695460 0.000000 
#    z 0.000000 0.000000 1.829920 
# 
# From -- ./inp_files/57345.got.cif
#   From: 2010.05.17/outbox.cif.g08.bks.cpg/sg63_29_cif.got.tgz:57345.got - 2010.06.03 15:47:04.
