data_PCOD9475859
_publ_section_title
;
Structure prediction by ZEFSAII (Michael W. Deem and Ramdas Pophale) SiO2 
 PCOD9475859
Probable space group: C M C M
;
_chemical_formula_sum "Si O2"
_cell_formula_units_Z 64
_cell_length_a 7.847498
_cell_length_b 28.789401
_cell_length_c 13.891143
_cell_angle_alpha 90.000000
_cell_angle_beta 90.000000
_cell_angle_gamma 90.000000
_cell_volume 3138.353242
_symmetry_space_group_name_H-M "C M C M"
_symmetry_group_IT_number 63
_symmetry_cell_setting 'orthorhombic'
loop_
_space_group_symop_operation_xyz
x,y,z
-x,-y,1/2+z
x,-y,-z
-x,y,1/2-z
-x,-y,-z
x,y,1/2-z
-x,y,z
x,-y,1/2+z
1/2+x,1/2+y,z
1/2-x,1/2-y,1/2+z
1/2+x,1/2-y,-z
1/2-x,1/2+y,1/2-z
1/2-x,1/2-y,-z
1/2+x,1/2+y,1/2-z
1/2-x,1/2+y,z
1/2+x,1/2-y,1/2+z
loop_
_atom_site_type_symbol
_atom_site_label
_atom_site_fract_x
_atom_site_fract_y
_atom_site_fract_z
Si Si1 0.804714 0.728664 0.132487
Si Si2 0.500000 0.901259 0.364341
Si Si3 0.192842 0.946281 0.024565
Si Si4 0.000000 0.705280 0.867726
Si Si5 0.793748 0.623499 0.361615
O O1 0.805602 0.728853 0.250000
O O2 0.668514 0.766861 0.101366
O O3 0.752059 0.676128 0.106496
O O4 0.000000 0.737351 0.102868
O O5 0.500000 0.900621 0.250000
O O6 0.666439 0.926990 0.403188
O O7 0.500000 0.847884 0.400287
O O8 0.000000 0.942109 0.061708
O O9 0.212718 0.914924 0.929269
O O10 0.225462 0.000000 0.000000
O O11 0.000000 0.705040 0.750000
O O12 0.743551 0.618032 0.250000
O O13 0.000000 0.619382 0.366061
#
# Coordination Sequence:
#
# PCOD9475859 Si02
#       5
#    16   8  16   8  16
#     4   8  15  29  52  85 121 154 192 244 302 361
#     4  11  25  45  66  88 123 172 218 256 298 362
#     4  11  25  44  65  91 126 162 205 263 318 371
#     4   9  18  33  57  86 117 162 208 242 296 364
#     4   9  18  35  64  96 125 158 198 252 320 381
#
# _framework density 20.392861
#
# number of rings (size 3 to 8) (size 9 to 14) (size 15 to 20)
#    0.000    2.500    1.250    1.875    1.750    3.000 
#    0.000    6.250    0.000    0.000    0.000    0.000 
#    0.000    0.000    0.000    0.000    0.000    0.000 
#
# Total GULP energy -178936.677854 kJ/mol
# GULP energy per Si atom -5591.771183 kJ/mol
# Density = 2.034645 g / cm^3
# Si number density = 20.392861 Si / 1000 Ang^3
#
#
#
# Elastic Constant Matrix: (Units=GPa)
#
#
# Indices 1 2 3 4 5 6 
#
# 1 125.2840 119.7532 43.9119 0.0000 0.0000 0.0000
# 2 119.7532 176.2625 49.0079 0.0000 0.0000 0.0000
# 3 43.9119 49.0079 82.0193 0.0000 0.0000 0.0000
# 4 0.0000 0.0000 0.0000 29.7318 0.0000 0.0000
# 5 0.0000 0.0000 0.0000 0.0000 -15.8325 0.0000
# 6 0.0000 0.0000 0.0000 0.0000 0.0000 31.4551
#
#
#
# Elastic Compliance Matrix: (Units=1/GPa)
#
#
# Indices 1 2 3 4 5 6 
#
# 1 0.023654 -0.015050 -0.003672 0.000000 0.000000 0.000000
# 2 -0.015050 0.016379 -0.001729 0.000000 0.000000 0.000000
# 3 -0.003672 -0.001729 0.015191 0.000000 0.000000 0.000000
# 4 0.000000 0.000000 0.000000 0.033634 0.000000 0.000000
# 5 0.000000 0.000000 0.000000 0.000000 -0.063161 0.000000
# 6 0.000000 0.000000 0.000000 0.000000 0.000000 0.031791
#
#
# Mechanical properties :
#
#
# Convention : Reuss Voigt Hill
#
# Bulk Modulus (GPa) = 69.81747 89.87910 79.84829
# Shear Modulus (GPa) = 48.46613 20.46374 34.46493
#
# Velocity S-wave (km/s) = 4.88035 3.17120 4.11548
# Velocity P-wave (km/s) = 8.12820 7.58803 7.86276
#
# Compressibility (1/GPa) = 0.01432306
#
# Stress axis : x y z
#
# Youngs Moduli (GPa) = 42.27553 61.05317 65.82741
#
# Poissons Ratio (x) = 0.91885 0.24169
# Poissons Ratio (y) = 0.63625 0.11383
# Poissons Ratio (z) = 0.15522 0.10558
#
# Static dielectric constant tensor:
#      x y z
#    x 1.706640 0.000000 0.000000 
#    y 0.000000 1.680450 0.000000 
#    z 0.000000 0.000000 1.768520 
# 
# From -- ./inp_files/27559.got.cif
#   From: 2010.05.17/outbox.cif.g08.bks.cpg/sg63_14_cif.got.tgz:27559.got - 2010.06.03 15:47:04.
