data_PCOD9475241
_publ_section_title
;
Structure prediction by ZEFSAII (Michael W. Deem and Ramdas Pophale) SiO2 
 PCOD9475241
Probable space group: C M C M
;
_chemical_formula_sum "Si O2"
_cell_formula_units_Z 84
_cell_length_a 12.423949
_cell_length_b 29.156483
_cell_length_c 12.668830
_cell_angle_alpha 90.000000
_cell_angle_beta 90.000000
_cell_angle_gamma 90.000000
_cell_volume 4589.139975
_symmetry_space_group_name_H-M "C M C M"
_symmetry_group_IT_number 63
_symmetry_cell_setting 'orthorhombic'
loop_
_space_group_symop_operation_xyz
x,y,z
-x,-y,1/2+z
x,-y,-z
-x,y,1/2-z
-x,-y,-z
x,y,1/2-z
-x,y,z
x,-y,1/2+z
1/2+x,1/2+y,z
1/2-x,1/2-y,1/2+z
1/2+x,1/2-y,-z
1/2-x,1/2+y,1/2-z
1/2-x,1/2-y,-z
1/2+x,1/2+y,1/2-z
1/2-x,1/2+y,z
1/2+x,1/2-y,1/2+z
loop_
_atom_site_type_symbol
_atom_site_label
_atom_site_fract_x
_atom_site_fract_y
_atom_site_fract_z
Si Si1 0.123346 0.214165 0.377116
Si Si2 0.372757 0.025296 0.750000
Si Si3 0.128793 0.316904 0.368907
Si Si4 0.242000 0.627762 0.044808
Si Si5 0.804819 0.957600 0.420068
Si Si6 0.626401 0.085593 0.250000
Si Si7 0.000000 0.962678 0.250000
O O1 0.121922 0.211044 0.250000
O O2 0.166192 0.265445 0.399609
O O3 0.189659 0.171793 0.420456
O O4 0.000000 0.211335 0.415189
O O5 0.500000 0.037673 0.750000
O O6 0.305845 0.042619 0.851520
O O7 0.364369 0.969687 0.750000
O O8 0.168555 0.327793 0.250000
O O9 0.162267 0.353288 0.455381
O O10 0.000000 0.314251 0.363517
O O11 0.182445 0.606256 0.145912
O O12 0.311732 0.588438 0.989110
O O13 0.904722 0.962380 0.341496
O O14 0.800625 0.000000 0.500000
O O15 0.500000 0.097230 0.250000
#
# Coordination Sequence:
#
# PCOD9475241 Si02
#       7
#    16   8  16  16  16   8   4
#     4   9  19  38  60  86 118 157 204 254 303 362
#     4  10  23  43  61  86 127 161 206 261 317 371
#     4   9  20  38  60  87 120 159 203 248 307 372
#     4  12  22  37  62  92 123 159 207 254 310 366
#     4  11  24  43  64  92 122 168 211 253 316 369
#     4  11  23  39  60  90 127 162 203 259 310 374
#     4  10  26  46  62  84 134 166 210 266 304 366
#
# _framework density 18.304082999999999
#
# number of rings (size 3 to 8) (size 9 to 14) (size 15 to 20)
#    0.000    1.714    2.857    2.571    4.000    1.905 
#    0.000    0.000    0.000    0.000    4.952    0.000 
#    0.000    0.000    0.000    0.000    0.000    0.000 
#
# Total GULP energy -233857.060506 kJ/mol
# GULP energy per Si atom -5568.025250 kJ/mol
# Density = 1.826242 g / cm^3
# Si number density = 18.304083 Si / 1000 Ang^3
#
#
#
# Elastic Constant Matrix: (Units=GPa)
#
#
# Indices 1 2 3 4 5 6 
#
# 1 77.0018 4.2875 34.8161 0.0000 0.0000 0.0000
# 2 4.2875 66.5686 34.2513 0.0000 0.0000 0.0000
# 3 34.8161 34.2513 107.5436 0.0000 0.0000 0.0000
# 4 0.0000 0.0000 0.0000 22.7965 0.0000 0.0000
# 5 0.0000 0.0000 0.0000 0.0000 19.4946 0.0000
# 6 0.0000 0.0000 0.0000 0.0000 0.0000 16.1663
#
#
#
# Elastic Compliance Matrix: (Units=1/GPa)
#
#
# Indices 1 2 3 4 5 6 
#
# 1 0.015408 0.001883 -0.005588 0.000000 0.000000 0.000000
# 2 0.001883 0.018196 -0.006405 0.000000 0.000000 0.000000
# 3 -0.005588 -0.006405 0.013147 0.000000 0.000000 0.000000
# 4 0.000000 0.000000 0.000000 0.043866 0.000000 0.000000
# 5 0.000000 0.000000 0.000000 0.000000 0.051296 0.000000
# 6 0.000000 0.000000 0.000000 0.000000 0.000000 0.061857
#
#
# Mechanical properties :
#
#
# Convention : Reuss Voigt Hill
#
# Bulk Modulus (GPa) = 37.69015 44.20265 40.94640
# Shear Modulus (GPa) = 21.47436 23.54209 22.50823
#
# Velocity S-wave (km/s) = 3.42892 3.59021 3.51049
# Velocity P-wave (km/s) = 6.02598 6.43332 6.23298
#
# Compressibility (1/GPa) = 0.02653213
#
# Stress axis : x y z
#
# Youngs Moduli (GPa) = 64.89947 54.95624 76.06034
#
# Poissons Ratio (x) = -0.10347 0.42502
# Poissons Ratio (y) = -0.12219 0.48715
# Poissons Ratio (z) = 0.36266 0.35198
#
# Static dielectric constant tensor:
#      x y z
#    x 1.612480 0.000000 0.000000 
#    y 0.000000 1.636730 0.000000 
#    z 0.000000 0.000000 1.567390 
# 
# From -- ./inp_files/18024.got.cif
#   From: 2010.05.17/outbox.cif.g08.bks.cpg/sg63_10_cif.got.tgz:18024.got - 2010.06.03 15:47:04.
