data_PCOD9475345
_publ_section_title
;
Structure prediction by ZEFSAII (Michael W. Deem and Ramdas Pophale) SiO2 
 PCOD9475345
Probable space group: C M C M
;
_chemical_formula_sum "Si O2"
_cell_formula_units_Z 72
_cell_length_a 14.632698
_cell_length_b 25.105453
_cell_length_c 10.559187
_cell_angle_alpha 90.000000
_cell_angle_beta 90.000000
_cell_angle_gamma 90.000000
_cell_volume 3879.028342
_symmetry_space_group_name_H-M "C M C M"
_symmetry_group_IT_number 63
_symmetry_cell_setting 'orthorhombic'
loop_
_space_group_symop_operation_xyz
x,y,z
-x,-y,1/2+z
x,-y,-z
-x,y,1/2-z
-x,-y,-z
x,y,1/2-z
-x,y,z
x,-y,1/2+z
1/2+x,1/2+y,z
1/2-x,1/2-y,1/2+z
1/2+x,1/2-y,-z
1/2-x,1/2+y,1/2-z
1/2-x,1/2-y,-z
1/2+x,1/2+y,1/2-z
1/2-x,1/2+y,z
1/2+x,1/2-y,1/2+z
loop_
_atom_site_type_symbol
_atom_site_label
_atom_site_fract_x
_atom_site_fract_y
_atom_site_fract_z
Si Si1 0.282204 0.500000 0.500000
Si Si2 0.000000 0.658603 0.101204
Si Si3 0.392784 0.528131 0.750000
Si Si4 0.392400 0.656306 0.750000
Si Si5 0.316005 0.699090 0.013356
Si Si6 0.807458 0.397691 0.896874
Si Si7 0.500000 0.748719 0.107423
O O1 0.344670 0.506199 0.624192
O O2 0.221220 0.552581 0.482216
O O3 0.090870 0.624108 0.079724
O O4 0.000000 0.676109 0.250000
O O5 0.000000 0.707235 0.003350
O O6 0.500000 0.514755 0.750000
O O7 0.384029 0.592347 0.750000
O O8 0.500000 0.669593 0.750000
O O9 0.346308 0.680134 0.874437
O O10 0.250000 0.750000 0.000000
O O11 0.261139 0.651218 0.078290
O O12 0.408000 0.714736 0.087491
O O13 0.801917 0.413912 0.750000
O O14 0.500000 0.771420 0.250000
#
# Coordination Sequence:
#
# PCOD9475345 Si02
#       7
#     8   8   8   8  16  16   8
#     4  12  23  45  68  96 136 170 220 276 328 386
#     4  10  24  45  69  95 127 175 226 263 324 396
#     4  11  24  44  67  98 130 176 220 273 326 391
#     4  11  24  42  65  92 128 174 228 257 314 403
#     4  12  25  40  65  94 132 171 213 270 326 384
#     4  11  24  44  68  96 131 175 219 272 328 390
#     4  12  26  42  61 100 137 167 216 274 328 383
#
# _framework density 18.561350000000001
#
# number of rings (size 3 to 8) (size 9 to 14) (size 15 to 20)
#    0.000    0.667    6.667    1.000    4.667    0.444 
#    4.000    0.000    0.000    0.000    0.000    0.000 
#    0.000    0.000    0.000    0.000    0.000    0.000 
#
# Total GULP energy -201325.284309 kJ/mol
# GULP energy per Si atom -5592.369009 kJ/mol
# Density = 1.851910 g / cm^3
# Si number density = 18.561350 Si / 1000 Ang^3
#
#
#
# Elastic Constant Matrix: (Units=GPa)
#
#
# Indices 1 2 3 4 5 6 
#
# 1 156.7335 61.3917 55.7020 0.0000 0.0000 0.0000
# 2 61.3917 99.4213 28.3301 0.0000 0.0000 0.0000
# 3 55.7020 28.3301 118.8693 0.0000 0.0000 0.0000
# 4 0.0000 0.0000 0.0000 22.0924 0.0000 0.0000
# 5 0.0000 0.0000 0.0000 0.0000 22.6315 0.0000
# 6 0.0000 0.0000 0.0000 0.0000 0.0000 19.7482
#
#
#
# Elastic Compliance Matrix: (Units=1/GPa)
#
#
# Indices 1 2 3 4 5 6 
#
# 1 0.009465 -0.004915 -0.003264 0.000000 0.000000 0.000000
# 2 -0.004915 0.013343 -0.000877 0.000000 0.000000 0.000000
# 3 -0.003264 -0.000877 0.010151 0.000000 0.000000 0.000000
# 4 0.000000 0.000000 0.000000 0.045264 0.000000 0.000000
# 5 0.000000 0.000000 0.000000 0.000000 0.044186 0.000000
# 6 0.000000 0.000000 0.000000 0.000000 0.000000 0.050638
#
#
# Mechanical properties :
#
#
# Convention : Reuss Voigt Hill
#
# Bulk Modulus (GPa) = 67.34997 73.98574 70.66785
# Shear Modulus (GPa) = 25.49610 28.20110 26.84860
#
# Velocity S-wave (km/s) = 3.71025 3.90211 3.80739
# Velocity P-wave (km/s) = 7.39719 7.76199 7.58179
#
# Compressibility (1/GPa) = 0.01484782
#
# Stress axis : x y z
#
# Youngs Moduli (GPa) = 105.64843 74.94645 98.51055
#
# Poissons Ratio (x) = 0.36834 0.32155
# Poissons Ratio (y) = 0.51922 0.08639
# Poissons Ratio (z) = 0.34485 0.06573
#
# Static dielectric constant tensor:
#      x y z
#    x 1.624590 0.000000 0.000000 
#    y 0.000000 1.619370 0.000000 
#    z 0.000000 0.000000 1.622610 
# 
# From -- ./inp_files/4754.got.cif
#   From: 2010.05.17/outbox.cif.g08.bks.cpg/sg63_3_cif.got.tgz:4754.got - 2010.06.03 15:47:04.
