data_PCOD9475257
_publ_section_title
;
Structure prediction by ZEFSAII (Michael W. Deem and Ramdas Pophale) SiO2 
 PCOD9475257
Probable space group: C M C M
;
_chemical_formula_sum "Si O2"
_cell_formula_units_Z 48
_cell_length_a 16.445644
_cell_length_b 9.141433
_cell_length_c 14.601070
_cell_angle_alpha 90.000000
_cell_angle_beta 90.000000
_cell_angle_gamma 90.000000
_cell_volume 2195.077451
_symmetry_space_group_name_H-M "C M C M"
_symmetry_group_IT_number 63
_symmetry_cell_setting 'orthorhombic'
loop_
_space_group_symop_operation_xyz
x,y,z
-x,-y,1/2+z
x,-y,-z
-x,y,1/2-z
-x,-y,-z
x,y,1/2-z
-x,y,z
x,-y,1/2+z
1/2+x,1/2+y,z
1/2-x,1/2-y,1/2+z
1/2+x,1/2-y,-z
1/2-x,1/2+y,1/2-z
1/2-x,1/2-y,-z
1/2+x,1/2+y,1/2-z
1/2-x,1/2+y,z
1/2+x,1/2-y,1/2+z
loop_
_atom_site_type_symbol
_atom_site_label
_atom_site_fract_x
_atom_site_fract_y
_atom_site_fract_z
Si Si1 0.500000 0.175603 0.505388
Si Si2 0.500000 0.556496 0.104282
Si Si3 0.728081 0.777475 0.750000
Si Si4 0.178811 0.657209 0.451374
Si Si5 0.864812 0.020717 0.250000
O O1 0.500000 0.265979 0.599752
O O2 0.587353 0.217896 0.463365
O O3 0.500000 0.000000 0.500000
O O4 0.421616 0.507217 0.161282
O O5 0.500000 0.500000 0.000000
O O6 0.694828 0.847139 0.656542
O O7 0.822426 0.821077 0.750000
O O8 0.701772 0.608204 0.750000
O O9 0.181482 0.500000 0.500000
O O10 0.250000 0.750000 0.500000
#
# Coordination Sequence:
#
# PCOD9475257 Si02
#       5
#     8   8   8  16   8
#     4  10  23  43  67  94 131 178 225 280 349 417
#     4  11  23  46  70  98 136 181 237 291 352 425
#     4  12  24  42  66 102 140 178 234 293 357 427
#     4  11  24  43  67  98 136 182 231 289 353 423
#     4  11  26  42  70 103 136 186 234 293 359 429
#
# _framework density 21.86711
#
# number of rings (size 3 to 8) (size 9 to 14) (size 15 to 20)
#    0.000    1.000    0.000    6.000    0.000    7.333 
#    0.000    6.667    0.000    2.000    0.000    0.000 
#    0.000    0.000    0.000    0.000    0.000    0.000 
#
# Total GULP energy -134043.341667 kJ/mol
# GULP energy per Si atom -5585.139236 kJ/mol
# Density = 2.181734 g / cm^3
# Si number density = 21.867110 Si / 1000 Ang^3
#
#
#
# Elastic Constant Matrix: (Units=GPa)
#
#
# Indices 1 2 3 4 5 6 
#
# 1 199.6176 52.7954 74.3328 0.0000 0.0000 0.0000
# 2 52.7954 130.9835 52.2001 0.0000 0.0000 0.0000
# 3 74.3328 52.2001 180.0655 0.0000 0.0000 0.0000
# 4 0.0000 0.0000 0.0000 35.4035 0.0000 0.0000
# 5 0.0000 0.0000 0.0000 0.0000 -15.6236 0.0000
# 6 0.0000 0.0000 0.0000 0.0000 0.0000 31.6776
#
#
#
# Elastic Compliance Matrix: (Units=1/GPa)
#
#
# Indices 1 2 3 4 5 6 
#
# 1 0.006230 -0.001680 -0.002085 0.000000 0.000000 0.000000
# 2 -0.001680 0.009085 -0.001940 0.000000 0.000000 0.000000
# 3 -0.002085 -0.001940 0.006977 0.000000 0.000000 0.000000
# 4 0.000000 0.000000 0.000000 0.028246 0.000000 0.000000
# 5 0.000000 0.000000 0.000000 0.000000 -0.064006 0.000000
# 6 0.000000 0.000000 0.000000 0.000000 0.000000 0.031568
#
#
# Mechanical properties :
#
#
# Convention : Reuss Voigt Hill
#
# Bulk Modulus (GPa) = 91.89937 96.59146 94.24542
# Shear Modulus (GPa) = 150.88523 32.38071 91.63297
#
# Velocity S-wave (km/s) = 8.31570 3.85228 6.48039
# Velocity P-wave (km/s) = 11.58959 8.00342 9.95925
#
# Compressibility (1/GPa) = 0.01088147
#
# Stress axis : x y z
#
# Youngs Moduli (GPa) = 160.50457 110.07134 143.33705
#
# Poissons Ratio (x) = 0.18497 0.29883
# Poissons Ratio (y) = 0.26971 0.27808
# Poissons Ratio (z) = 0.33462 0.21354
#
# Static dielectric constant tensor:
#      x y z
#    x 1.928680 0.000000 0.000000 
#    y 0.000000 1.879570 0.000000 
#    z 0.000000 0.000000 1.759890 
# 
# From -- ./inp_files/30797.got.cif
#   From: 2010.05.17/outbox.cif.g08.bks.cpg/sg63_16_cif.got.tgz:30797.got - 2010.06.03 15:47:04.
