data_PCOD9475706
_publ_section_title
;
Structure prediction by ZEFSAII (Michael W. Deem and Ramdas Pophale) SiO2 
 PCOD9475706
Probable space group: C M C M
;
_chemical_formula_sum "Si O2"
_cell_formula_units_Z 80
_cell_length_a 28.747821
_cell_length_b 8.376040
_cell_length_c 16.529001
_cell_angle_alpha 90.000000
_cell_angle_beta 90.000000
_cell_angle_gamma 90.000000
_cell_volume 3980.066062
_symmetry_space_group_name_H-M "C M C M"
_symmetry_group_IT_number 63
_symmetry_cell_setting 'orthorhombic'
loop_
_space_group_symop_operation_xyz
x,y,z
-x,-y,1/2+z
x,-y,-z
-x,y,1/2-z
-x,-y,-z
x,y,1/2-z
-x,y,z
x,-y,1/2+z
1/2+x,1/2+y,z
1/2-x,1/2-y,1/2+z
1/2+x,1/2-y,-z
1/2-x,1/2+y,1/2-z
1/2-x,1/2-y,-z
1/2+x,1/2+y,1/2-z
1/2-x,1/2+y,z
1/2+x,1/2-y,1/2+z
loop_
_atom_site_type_symbol
_atom_site_label
_atom_site_fract_x
_atom_site_fract_y
_atom_site_fract_z
Si Si1 0.729540 0.289103 0.911755
Si Si2 0.693629 0.602506 0.658875
Si Si3 0.862243 0.593287 0.584405
Si Si4 0.098021 0.720884 0.157956
Si Si5 0.449372 0.194042 0.505829
O O1 0.711667 0.467963 0.901434
O O2 0.771849 0.251501 0.851824
O O3 0.685099 0.178754 0.891945
O O4 0.750000 0.250000 0.000000
O O5 0.696470 0.539224 0.750000
O O6 0.641626 0.662178 0.644446
O O7 0.852190 0.500000 0.500000
O O8 0.881749 0.458741 0.644563
O O9 0.904190 0.716513 0.562509
O O10 0.081009 0.737592 0.250000
O O11 0.062056 0.748943 0.085219
O O12 0.500000 0.251799 0.533560
O O13 0.451790 0.000000 0.500000
#
# Coordination Sequence:
#
# PCOD9475706 Si02
#       5
#    16  16  16  16  16
#     4  12  22  34  53  74  99 134 178 215 246 299
#     4  11  23  36  50  73 106 138 168 209 260 305
#     4   9  18  32  50  73 100 129 162 207 254 294
#     4   9  18  32  50  73 101 132 167 204 246 302
#     4   8  15  30  51  75 101 126 158 206 257 295
#
# _framework density 20.100169999999999
#
# number of rings (size 3 to 8) (size 9 to 14) (size 15 to 20)
#    0.000    2.600    0.000    6.000    0.000    3.600 
#    0.000    0.000    0.000    2.400    0.000    0.000 
#    0.000    0.000    0.000    0.000    0.000    0.000 
#
# Total GULP energy -223073.302146 kJ/mol
# GULP energy per Si atom -5576.832554 kJ/mol
# Density = 2.005442 g / cm^3
# Si number density = 20.100170 Si / 1000 Ang^3
#
#
#
# Elastic Constant Matrix: (Units=GPa)
#
#
# Indices 1 2 3 4 5 6 
#
# 1 64.6214 -2.5718 8.1747 0.0000 0.0000 0.0000
# 2 -2.5718 35.7892 16.4072 0.0000 0.0000 0.0000
# 3 8.1747 16.4072 66.2630 0.0000 0.0000 0.0000
# 4 0.0000 0.0000 0.0000 20.6022 0.0000 0.0000
# 5 0.0000 0.0000 0.0000 0.0000 12.0590 0.0000
# 6 0.0000 0.0000 0.0000 0.0000 0.0000 4.6783
#
#
#
# Elastic Compliance Matrix: (Units=1/GPa)
#
#
# Indices 1 2 3 4 5 6 
#
# 1 0.015886 0.002301 -0.002530 0.000000 0.000000 0.000000
# 2 0.002301 0.031853 -0.008171 0.000000 0.000000 0.000000
# 3 -0.002530 -0.008171 0.017427 0.000000 0.000000 0.000000
# 4 0.000000 0.000000 0.000000 0.048539 0.000000 0.000000
# 5 0.000000 0.000000 0.000000 0.000000 0.082925 0.000000
# 6 0.000000 0.000000 0.000000 0.000000 0.000000 0.213752
#
#
# Mechanical properties :
#
#
# Convention : Reuss Voigt Hill
#
# Bulk Modulus (GPa) = 20.67521 23.41044 22.04282
# Shear Modulus (GPa) = 11.27899 17.11214 14.19556
#
# Velocity S-wave (km/s) = 2.37141 2.92094 2.66040
# Velocity P-wave (km/s) = 4.21978 4.80084 4.51966
#
# Compressibility (1/GPa) = 0.04836709
#
# Stress axis : x y z
#
# Youngs Moduli (GPa) = 62.94714 31.39462 57.38342
#
# Poissons Ratio (x) = -0.07225 0.14516
# Poissons Ratio (y) = -0.14486 0.46887
# Poissons Ratio (z) = 0.15924 0.25652
#
# Static dielectric constant tensor:
#      x y z
#    x 1.729930 0.000000 0.000000 
#    y 0.000000 1.756420 0.000000 
#    z 0.000000 0.000000 1.753090 
# 
# From -- ./inp_files/49432.got.cif
#   From: 2010.05.17/outbox.cif.g08.bks.cpg/sg63_25_cif.got.tgz:49432.got - 2010.06.03 15:47:04.
