data_PCOD9475244
_publ_section_title
;
Structure prediction by ZEFSAII (Michael W. Deem and Ramdas Pophale) SiO2 
 PCOD9475244
Probable space group: C M C M
;
_chemical_formula_sum "Si O2"
_cell_formula_units_Z 112
_cell_length_a 21.474609
_cell_length_b 14.849100
_cell_length_c 15.906479
_cell_angle_alpha 90.000000
_cell_angle_beta 90.000000
_cell_angle_gamma 90.000000
_cell_volume 5072.236017
_symmetry_space_group_name_H-M "C M C M"
_symmetry_group_IT_number 63
_symmetry_cell_setting 'orthorhombic'
loop_
_space_group_symop_operation_xyz
x,y,z
-x,-y,1/2+z
x,-y,-z
-x,y,1/2-z
-x,-y,-z
x,y,1/2-z
-x,y,z
x,-y,1/2+z
1/2+x,1/2+y,z
1/2-x,1/2-y,1/2+z
1/2+x,1/2-y,-z
1/2-x,1/2+y,1/2-z
1/2-x,1/2-y,-z
1/2+x,1/2+y,1/2-z
1/2-x,1/2+y,z
1/2+x,1/2-y,1/2+z
loop_
_atom_site_type_symbol
_atom_site_label
_atom_site_fract_x
_atom_site_fract_y
_atom_site_fract_z
Si Si1 0.075386 0.732690 0.652214
Si Si2 0.199885 0.815026 0.151041
Si Si3 0.760978 0.485451 0.406409
Si Si4 0.367117 0.574024 0.350867
Si Si5 0.432198 0.608021 0.648357
Si Si6 0.842314 0.369929 0.657429
Si Si7 0.928153 0.608062 0.001437
O O1 0.091359 0.711500 0.750000
O O2 0.108860 0.826573 0.628355
O O3 0.092385 0.655170 0.585520
O O4 0.000000 0.745095 0.649994
O O5 0.202138 0.838522 0.250000
O O6 0.129792 0.839336 0.120422
O O7 0.208648 0.708830 0.143361
O O8 0.247886 0.881057 0.107860
O O9 0.784123 0.500000 0.500000
O O10 0.695506 0.538261 0.394499
O O11 0.809554 0.533820 0.346171
O O12 0.355817 0.571543 0.250000
O O13 0.418658 0.497285 0.369059
O O14 0.433953 0.617908 0.750000
O O15 0.500000 0.635557 0.615026
O O16 0.869673 0.353188 0.750000
O O17 0.890053 0.361970 0.582269
O O18 0.000000 0.633695 0.012945
O O19 0.925349 0.500000 0.000000
#
# Coordination Sequence:
#
# PCOD9475244 Si02
#       7
#    16  16  16  16  16  16  16
#     4   9  18  35  63  95 126 164 208 254 306 368
#     4   9  20  38  59  84 119 158 202 255 308 368
#     4  11  23  39  61  87 122 163 203 260 317 375
#     4   9  17  32  56  87 123 159 200 246 299 366
#     4   8  13  25  50  82 116 151 187 233 292 359
#     4  11  24  43  66  89 120 164 214 264 318 376
#     4  10  23  43  64  90 127 163 205 264 319 370
#
# _framework density 22.080991000000001
#
# number of rings (size 3 to 8) (size 9 to 14) (size 15 to 20)
#    0.000    2.429    0.000    3.000    2.000    3.714 
#    2.571    2.857    0.000    2.143    0.000    0.000 
#    0.000    0.000    0.000    0.000    0.000    0.000 
#
# Total GULP energy -312792.221997 kJ/mol
# GULP energy per Si atom -5585.575393 kJ/mol
# Density = 2.203073 g / cm^3
# Si number density = 22.080991 Si / 1000 Ang^3
#
#
#
# Elastic Constant Matrix: (Units=GPa)
#
#
# Indices 1 2 3 4 5 6 
#
# 1 49.0595 -3.4695 15.6139 0.0000 0.0000 0.0000
# 2 -3.4695 73.9661 30.1398 0.0000 0.0000 0.0000
# 3 15.6139 30.1398 84.4581 0.0000 0.0000 0.0000
# 4 0.0000 0.0000 0.0000 21.8940 0.0000 0.0000
# 5 0.0000 0.0000 0.0000 0.0000 19.3321 0.0000
# 6 0.0000 0.0000 0.0000 0.0000 0.0000 18.9522
#
#
#
# Elastic Compliance Matrix: (Units=1/GPa)
#
#
# Indices 1 2 3 4 5 6 
#
# 1 0.022282 0.003187 -0.005257 0.000000 0.000000 0.000000
# 2 0.003187 0.016276 -0.006398 0.000000 0.000000 0.000000
# 3 -0.005257 -0.006398 0.015095 0.000000 0.000000 0.000000
# 4 0.000000 0.000000 0.000000 0.045675 0.000000 0.000000
# 5 0.000000 0.000000 0.000000 0.000000 0.051727 0.000000
# 6 0.000000 0.000000 0.000000 0.000000 0.000000 0.052764
#
#
# Mechanical properties :
#
#
# Convention : Reuss Voigt Hill
#
# Bulk Modulus (GPa) = 27.23391 32.45022 29.84207
# Shear Modulus (GPa) = 21.45988 23.04896 22.25442
#
# Velocity S-wave (km/s) = 3.12087 3.23435 3.17812
# Velocity P-wave (km/s) = 5.03456 5.35499 5.19725
#
# Compressibility (1/GPa) = 0.03671893
#
# Stress axis : x y z
#
# Youngs Moduli (GPa) = 44.87964 61.43986 66.24703
#
# Poissons Ratio (x) = -0.19582 0.34824
# Poissons Ratio (y) = -0.14304 0.42382
# Poissons Ratio (z) = 0.23592 0.39306
#
# Static dielectric constant tensor:
#      x y z
#    x 1.823370 0.000000 0.000000 
#    y 0.000000 1.813380 0.000000 
#    z 0.000000 0.000000 1.791330 
# 
# From -- ./inp_files/36958.got.cif
#   From: 2010.05.17/outbox.cif.g08.bks.cpg/sg63_19_cif.got.tgz:36958.got - 2010.06.03 15:47:04.
