data_PCOD9475265
_publ_section_title
;
Structure prediction by ZEFSAII (Michael W. Deem and Ramdas Pophale) SiO2 
 PCOD9475265
Probable space group: C M C M
;
_chemical_formula_sum "Si O2"
_cell_formula_units_Z 80
_cell_length_a 23.536663
_cell_length_b 7.538376
_cell_length_c 16.880051
_cell_angle_alpha 90.000000
_cell_angle_beta 90.000000
_cell_angle_gamma 90.000000
_cell_volume 2994.997326
_symmetry_space_group_name_H-M "C M C M"
_symmetry_group_IT_number 63
_symmetry_cell_setting 'orthorhombic'
loop_
_space_group_symop_operation_xyz
x,y,z
-x,-y,1/2+z
x,-y,-z
-x,y,1/2-z
-x,-y,-z
x,y,1/2-z
-x,y,z
x,-y,1/2+z
1/2+x,1/2+y,z
1/2-x,1/2-y,1/2+z
1/2+x,1/2-y,-z
1/2-x,1/2+y,1/2-z
1/2-x,1/2-y,-z
1/2+x,1/2+y,1/2-z
1/2-x,1/2+y,z
1/2+x,1/2-y,1/2+z
loop_
_atom_site_type_symbol
_atom_site_label
_atom_site_fract_x
_atom_site_fract_y
_atom_site_fract_z
Si Si1 0.134118 0.682246 0.655400
Si Si2 0.822151 0.782227 0.333963
Si Si3 0.730204 0.399674 0.916885
Si Si4 0.934932 0.031119 0.624943
Si Si5 0.063542 0.386532 0.921055
O O1 0.145415 0.697104 0.750000
O O2 0.187958 0.734324 0.600409
O O3 0.106924 0.490885 0.636591
O O4 0.088621 0.834086 0.630440
O O5 0.806461 0.701459 0.250000
O O6 0.793968 0.667388 0.403968
O O7 0.886663 0.851946 0.331362
O O8 0.788750 0.966574 0.348197
O O9 0.720749 0.500000 0.000000
O O10 0.933685 0.176368 0.552944
O O11 0.000000 0.027816 0.652408
O O12 0.000000 0.404969 0.886220
O O13 0.067203 0.500000 0.000000
#
# Coordination Sequence:
#
# PCOD9475265 Si02
#       5
#    16  16  16  16  16
#     4  11  25  44  71 106 147 192 242 305 371 437
#     4  11  24  43  68  99 138 179 230 294 362 431
#     4  11  25  44  70 103 136 187 239 294 356 436
#     4  10  23  43  70 103 143 187 241 299 363 434
#     4  10  24  43  69 105 145 192 244 299 366 442
#
# _framework density 26.711209
#
# number of rings (size 3 to 8) (size 9 to 14) (size 15 to 20)
#    0.000    1.400    0.000    4.800    8.400    5.200 
#    0.000    7.000    0.000    0.000    0.000    0.000 
#    0.000    0.000    0.000    0.000    0.000    0.000 
#
# Total GULP energy -223020.413676 kJ/mol
# GULP energy per Si atom -5575.510342 kJ/mol
# Density = 2.665041 g / cm^3
# Si number density = 26.711209 Si / 1000 Ang^3
#
#
#
# Elastic Constant Matrix: (Units=GPa)
#
#
# Indices 1 2 3 4 5 6 
#
# 1 194.0603 57.1915 43.6828 0.0000 0.0000 0.0000
# 2 57.1915 154.8428 -1.0553 0.0000 0.0000 0.0000
# 3 43.6828 -1.0553 100.7264 0.0000 0.0000 0.0000
# 4 0.0000 0.0000 0.0000 5.6468 0.0000 0.0000
# 5 0.0000 0.0000 0.0000 0.0000 -3.2726 0.0000
# 6 0.0000 0.0000 0.0000 0.0000 0.0000 41.9031
#
#
#
# Elastic Compliance Matrix: (Units=1/GPa)
#
#
# Indices 1 2 3 4 5 6 
#
# 1 0.006508 -0.002423 -0.002848 0.000000 0.000000 0.000000
# 2 -0.002423 0.007361 0.001128 0.000000 0.000000 0.000000
# 3 -0.002848 0.001128 0.011175 0.000000 0.000000 0.000000
# 4 0.000000 0.000000 0.000000 0.177093 0.000000 0.000000
# 5 0.000000 0.000000 0.000000 0.000000 -0.305568 0.000000
# 6 0.000000 0.000000 0.000000 0.000000 0.000000 0.023865
#
#
# Mechanical properties :
#
#
# Convention : Reuss Voigt Hill
#
# Bulk Modulus (GPa) = 59.67402 72.14083 65.90742
# Shear Modulus (GPa) = -76.10999 32.17614 -21.96692
#
# Velocity S-wave (km/s) = -5.34374 3.47449 -2.87084
# Velocity P-wave (km/s) = 3.96044 6.56981 3.70657
#
# Compressibility (1/GPa) = 0.01675771
#
# Stress axis : x y z
#
# Youngs Moduli (GPa) = 153.65127 135.85336 89.48737
#
# Poissons Ratio (x) = 0.32921 0.25485
# Poissons Ratio (y) = 0.37233 -0.10094
# Poissons Ratio (z) = 0.43758 -0.15325
#
# Static dielectric constant tensor:
#      x y z
#    x 2.198850 0.000000 0.000000 
#    y 0.000000 2.190330 0.000000 
#    z 0.000000 0.000000 2.375520 
# 
# From -- ./inp_files/48731.got.cif
#   From: 2010.05.17/outbox.cif.g08.bks.cpg/sg63_25_cif.got.tgz:48731.got - 2010.06.03 15:47:04.
