data_PCOD9475699
_publ_section_title
;
Structure prediction by ZEFSAII (Michael W. Deem and Ramdas Pophale) SiO2 
 PCOD9475699
Probable space group: C M C M
;
_chemical_formula_sum "Si O2"
_cell_formula_units_Z 52
_cell_length_a 7.737559
_cell_length_b 16.528727
_cell_length_c 17.862965
_cell_angle_alpha 90.000000
_cell_angle_beta 90.000000
_cell_angle_gamma 90.000000
_cell_volume 2284.530326
_symmetry_space_group_name_H-M "C M C M"
_symmetry_group_IT_number 63
_symmetry_cell_setting 'orthorhombic'
loop_
_space_group_symop_operation_xyz
x,y,z
-x,-y,1/2+z
x,-y,-z
-x,y,1/2-z
-x,-y,-z
x,y,1/2-z
-x,y,z
x,-y,1/2+z
1/2+x,1/2+y,z
1/2-x,1/2-y,1/2+z
1/2+x,1/2-y,-z
1/2-x,1/2+y,1/2-z
1/2-x,1/2-y,-z
1/2+x,1/2+y,1/2-z
1/2-x,1/2+y,z
1/2+x,1/2-y,1/2+z
loop_
_atom_site_type_symbol
_atom_site_label
_atom_site_fract_x
_atom_site_fract_y
_atom_site_fract_z
Si Si1 0.794111 0.670302 0.830451
Si Si2 0.705731 0.408650 0.486343
Si Si3 0.000000 0.906103 0.750000
Si Si4 0.807990 0.352470 0.642629
O O1 0.745502 0.632296 0.750000
O O2 0.709636 0.758560 0.835097
O O3 0.000000 0.684084 0.830378
O O4 0.749152 0.619646 0.903173
O O5 0.765796 0.500000 0.500000
O O6 0.500000 0.405381 0.494608
O O7 0.784611 0.356271 0.553125
O O8 0.153783 0.898916 0.684736
O O9 0.000000 0.382672 0.661341
#
# Coordination Sequence:
#
# PCOD9475699 Si02
#       4
#    16  16   4  16
#     4  11  22  42  67  99 135 169 221 282 329 394
#     4  11  25  45  65  93 138 181 224 276 332 398
#     4  12  22  44  66 106 136 164 230 274 330 390
#     4  12  23  42  72  99 134 176 218 278 335 391
#
# _framework density 22.761790999999999
#
# number of rings (size 3 to 8) (size 9 to 14) (size 15 to 20)
#    0.000    0.615    4.615    3.231    0.000    4.308 
#    2.769    0.000    0.000    0.000    0.000    0.000 
#    0.000    0.000    0.000    0.000    0.000    0.000 
#
# Total GULP energy -145007.500669 kJ/mol
# GULP energy per Si atom -5577.211564 kJ/mol
# Density = 2.270998 g / cm^3
# Si number density = 22.761791 Si / 1000 Ang^3
#
#
#
# Elastic Constant Matrix: (Units=GPa)
#
#
# Indices 1 2 3 4 5 6 
#
# 1 156.7268 1.8218 39.5663 0.0000 0.0000 0.0000
# 2 1.8218 29.0180 41.2947 0.0000 0.0000 0.0000
# 3 39.5663 41.2947 235.7821 0.0000 0.0000 0.0000
# 4 0.0000 0.0000 0.0000 -14.1935 0.0000 0.0000
# 5 0.0000 0.0000 0.0000 0.0000 30.5468 0.0000
# 6 0.0000 0.0000 0.0000 0.0000 0.0000 -6.8513
#
#
#
# Elastic Compliance Matrix: (Units=1/GPa)
#
#
# Indices 1 2 3 4 5 6 
#
# 1 0.006716 0.001575 -0.001403 0.000000 0.000000 0.000000
# 2 0.001575 0.046271 -0.008368 0.000000 0.000000 0.000000
# 3 -0.001403 -0.008368 0.005942 0.000000 0.000000 0.000000
# 4 0.000000 0.000000 0.000000 -0.070455 0.000000 0.000000
# 5 0.000000 0.000000 0.000000 0.000000 0.032737 0.000000
# 6 0.000000 0.000000 0.000000 0.000000 0.000000 -0.145958
#
#
# Mechanical properties :
#
#
# Convention : Reuss Voigt Hill
#
# Bulk Modulus (GPa) = 23.50896 65.21027 44.35961
# Shear Modulus (GPa) = -53.09232 24.49001 -14.30116
#
# Velocity S-wave (km/s) = -4.83486 3.28369 -2.50930
# Velocity P-wave (km/s) = 4.56258 6.56415 3.33698
#
# Compressibility (1/GPa) = 0.04253698
#
# Stress axis : x y z
#
# Youngs Moduli (GPa) = 148.88962 21.61185 168.28777
#
# Poissons Ratio (x) = -0.03403 0.23608
# Poissons Ratio (y) = -0.23446 1.40825
# Poissons Ratio (z) = 0.20887 0.18085
#
# Static dielectric constant tensor:
#      x y z
#    x 1.835650 0.000000 0.000000 
#    y 0.000000 1.865160 0.000000 
#    z 0.000000 0.000000 1.829930 
# 
# From -- ./inp_files/27117.got.cif
#   From: 2010.05.17/outbox.cif.g08.bks.cpg/sg63_14_cif.got.tgz:27117.got - 2010.06.03 15:47:04.
