data_PCOD9475250
_publ_section_title
;
Structure prediction by ZEFSAII (Michael W. Deem and Ramdas Pophale) SiO2 
 PCOD9475250
Probable space group: C M C M
;
_chemical_formula_sum "Si O2"
_cell_formula_units_Z 96
_cell_length_a 8.691402
_cell_length_b 20.059641
_cell_length_c 28.165521
_cell_angle_alpha 90.000000
_cell_angle_beta 90.000000
_cell_angle_gamma 90.000000
_cell_volume 4910.557301
_symmetry_space_group_name_H-M "C M C M"
_symmetry_group_IT_number 63
_symmetry_cell_setting 'orthorhombic'
loop_
_space_group_symop_operation_xyz
x,y,z
-x,-y,1/2+z
x,-y,-z
-x,y,1/2-z
-x,-y,-z
x,y,1/2-z
-x,y,z
x,-y,1/2+z
1/2+x,1/2+y,z
1/2-x,1/2-y,1/2+z
1/2+x,1/2-y,-z
1/2-x,1/2+y,1/2-z
1/2-x,1/2-y,-z
1/2+x,1/2+y,1/2-z
1/2-x,1/2+y,z
1/2+x,1/2-y,1/2+z
loop_
_atom_site_type_symbol
_atom_site_label
_atom_site_fract_x
_atom_site_fract_y
_atom_site_fract_z
Si Si1 0.682075 0.023119 0.645532
Si Si2 0.680766 0.263552 0.637800
Si Si3 0.322538 0.650881 0.694491
Si Si4 0.313937 0.393581 0.805164
Si Si5 0.814799 0.047223 0.544911
Si Si6 0.316319 0.296534 0.458498
O O1 0.500000 0.033206 0.649435
O O2 0.735119 0.960389 0.676422
O O3 0.771924 0.087093 0.665011
O O4 0.731824 0.017196 0.590861
O O5 0.500000 0.267146 0.627016
O O6 0.713995 0.211030 0.679378
O O7 0.731209 0.334368 0.658997
O O8 0.765108 0.235451 0.591465
O O9 0.310256 0.636152 0.750000
O O10 0.500000 0.668244 0.683690
O O11 0.274669 0.379436 0.750000
O O12 0.500000 0.400668 0.807414
O O13 0.768009 0.125196 0.538443
O O14 0.000000 0.046624 0.552628
O O15 0.782483 0.000000 0.500000
O O16 0.500000 0.296048 0.461781
O O17 0.250000 0.250000 0.500000
#
# Coordination Sequence:
#
# PCOD9475250 Si02
#       6
#    16  16  16  16  16  16
#     4  12  25  40  63  95 129 164 208 264 316 370
#     4  11  23  41  66  95 128 165 211 263 318 378
#     4  11  23  40  64  92 125 167 210 256 314 378
#     4  10  23  43  65  90 126 172 215 256 310 375
#     4  10  23  44  68  92 123 167 213 256 313 381
#     4  11  24  42  66  95 129 167 210 260 318 378
#
# _framework density 19.549716
#
# number of rings (size 3 to 8) (size 9 to 14) (size 15 to 20)
#    0.000    1.167    1.667    4.000    2.333    6.667 
#    0.000    0.000    0.000    0.000    0.000    0.000 
#    0.000    0.000    0.000    0.000    0.000    0.000 
#
# Total GULP energy -268337.210946 kJ/mol
# GULP energy per Si atom -5590.358561 kJ/mol
# Density = 1.950522 g / cm^3
# Si number density = 19.549716 Si / 1000 Ang^3
#
#
#
# Elastic Constant Matrix: (Units=GPa)
#
#
# Indices 1 2 3 4 5 6 
#
# 1 15.9032 2.0430 22.0500 0.0000 0.0000 0.0000
# 2 2.0430 43.3264 0.1034 0.0000 0.0000 0.0000
# 3 22.0500 0.1034 85.0984 0.0000 0.0000 0.0000
# 4 0.0000 0.0000 0.0000 38.8742 0.0000 0.0000
# 5 0.0000 0.0000 0.0000 0.0000 33.5462 0.0000
# 6 0.0000 0.0000 0.0000 0.0000 0.0000 29.4518
#
#
#
# Elastic Compliance Matrix: (Units=1/GPa)
#
#
# Indices 1 2 3 4 5 6 
#
# 1 0.099050 -0.004609 -0.025660 0.000000 0.000000 0.000000
# 2 -0.004609 0.023295 0.001166 0.000000 0.000000 0.000000
# 3 -0.025660 0.001166 0.018398 0.000000 0.000000 0.000000
# 4 0.000000 0.000000 0.000000 0.025724 0.000000 0.000000
# 5 0.000000 0.000000 0.000000 0.000000 0.029810 0.000000
# 6 0.000000 0.000000 0.000000 0.000000 0.000000 0.033954
#
#
# Mechanical properties :
#
#
# Convention : Reuss Voigt Hill
#
# Bulk Modulus (GPa) = 12.11560 21.41341 16.76451
# Shear Modulus (GPa) = 15.82532 28.38321 22.10427
#
# Velocity S-wave (km/s) = 2.84824 3.81445 3.36619
# Velocity P-wave (km/s) = 4.12643 5.51154 4.86850
#
# Compressibility (1/GPa) = 0.08253820
#
# Stress axis : x y z
#
# Youngs Moduli (GPa) = 10.09589 42.92734 54.35255
#
# Poissons Ratio (x) = 0.19786 1.39466
# Poissons Ratio (y) = 0.04653 -0.06338
# Poissons Ratio (z) = 0.25906 -0.05005
#
# Static dielectric constant tensor:
#      x y z
#    x 1.669450 0.000000 0.000000 
#    y 0.000000 1.674390 0.000000 
#    z 0.000000 0.000000 1.683040 
# 
# From -- ./inp_files/66881.got.cif
#   From: 2010.05.17/outbox.cif.g08.bks.cpg/sg63_34_cif.got.tgz:66881.got - 2010.06.03 15:47:04.
