data_PCOD9475814
_publ_section_title
;
Structure prediction by ZEFSAII (Michael W. Deem and Ramdas Pophale) SiO2 
 PCOD9475814
Probable space group: C M C M
;
_chemical_formula_sum "Si O2"
_cell_formula_units_Z 80
_cell_length_a 7.880492
_cell_length_b 14.878110
_cell_length_c 31.547575
_cell_angle_alpha 90.000000
_cell_angle_beta 90.000000
_cell_angle_gamma 90.000000
_cell_volume 3698.853063
_symmetry_space_group_name_H-M "C M C M"
_symmetry_group_IT_number 63
_symmetry_cell_setting 'orthorhombic'
loop_
_space_group_symop_operation_xyz
x,y,z
-x,-y,1/2+z
x,-y,-z
-x,y,1/2-z
-x,-y,-z
x,y,1/2-z
-x,y,z
x,-y,1/2+z
1/2+x,1/2+y,z
1/2-x,1/2-y,1/2+z
1/2+x,1/2-y,-z
1/2-x,1/2+y,1/2-z
1/2-x,1/2-y,-z
1/2+x,1/2+y,1/2-z
1/2-x,1/2+y,z
1/2+x,1/2-y,1/2+z
loop_
_atom_site_type_symbol
_atom_site_label
_atom_site_fract_x
_atom_site_fract_y
_atom_site_fract_z
Si Si1 0.795981 0.595187 0.613467
Si Si2 0.704196 0.109794 0.114205
Si Si3 0.798260 0.756445 0.048848
Si Si4 0.201698 0.088456 0.204393
Si Si5 0.697630 0.118293 0.795983
O O1 0.732936 0.492812 0.609535
O O2 0.756275 0.652957 0.572415
O O3 0.728921 0.639552 0.657465
O O4 0.000000 0.591281 0.618083
O O5 0.500000 0.107485 0.111499
O O6 0.771205 0.175123 0.077869
O O7 0.750659 0.139744 0.161809
O O8 0.000000 0.751958 0.050956
O O9 0.750000 0.750000 0.000000
O O10 0.242437 0.131304 0.250000
O O11 0.000000 0.071936 0.203397
O O12 0.292812 0.991254 0.203347
O O13 0.772904 0.144708 0.750000
O O14 0.500000 0.146784 0.795300
#
# Coordination Sequence:
#
# PCOD9475814 Si02
#       5
#    16  16  16  16  16
#     4   9  18  35  58  82 109 143 181 220 262 312
#     4   9  20  38  58  79 108 147 182 213 261 326
#     4  11  24  41  59  80 106 137 177 226 277 326
#     4   9  16  26  46  79 113 142 176 220 263 302
#     4   8  14  27  49  76 108 148 185 212 251 314
#
# _framework density 21.628328
#
# number of rings (size 3 to 8) (size 9 to 14) (size 15 to 20)
#    0.000    2.800    0.000    2.400    0.000    6.800 
#    0.000    5.000    0.000    3.600    0.000    0.000 
#    0.000    0.000    0.000    0.000    0.000    0.000 
#
# Total GULP energy -223056.128308 kJ/mol
# GULP energy per Si atom -5576.403208 kJ/mol
# Density = 2.157910 g / cm^3
# Si number density = 21.628328 Si / 1000 Ang^3
#
#
#
# Elastic Constant Matrix: (Units=GPa)
#
#
# Indices 1 2 3 4 5 6 
#
# 1 26.1606 5.0154 0.2843 0.0000 0.0000 0.0000
# 2 5.0154 79.4808 62.1635 0.0000 0.0000 0.0000
# 3 0.2843 62.1635 211.7919 0.0000 0.0000 0.0000
# 4 0.0000 0.0000 0.0000 41.3692 0.0000 0.0000
# 5 0.0000 0.0000 0.0000 0.0000 26.3956 0.0000
# 6 0.0000 0.0000 0.0000 0.0000 0.0000 11.8211
#
#
#
# Elastic Compliance Matrix: (Units=1/GPa)
#
#
# Indices 1 2 3 4 5 6 
#
# 1 0.038815 -0.003126 0.000865 0.000000 0.000000 0.000000
# 2 -0.003126 0.016582 -0.004863 0.000000 0.000000 0.000000
# 3 0.000865 -0.004863 0.006148 0.000000 0.000000 0.000000
# 4 0.000000 0.000000 0.000000 0.024173 0.000000 0.000000
# 5 0.000000 0.000000 0.000000 0.000000 0.037885 0.000000
# 6 0.000000 0.000000 0.000000 0.000000 0.000000 0.084594
#
#
# Mechanical properties :
#
#
# Convention : Reuss Voigt Hill
#
# Bulk Modulus (GPa) = 21.14249 50.26218 35.70234
# Shear Modulus (GPa) = 20.98984 32.58188 26.78586
#
# Velocity S-wave (km/s) = 3.11863 3.88551 3.52300
# Velocity P-wave (km/s) = 4.77121 6.58931 5.75254
#
# Compressibility (1/GPa) = 0.04729812
#
# Stress axis : x y z
#
# Youngs Moduli (GPa) = 25.76302 60.30530 162.66046
#
# Poissons Ratio (x) = 0.18853 -0.14078
# Poissons Ratio (y) = 0.08054 0.79100
# Poissons Ratio (z) = -0.02230 0.29326
#
# Static dielectric constant tensor:
#      x y z
#    x 1.801960 0.000000 0.000000 
#    y 0.000000 1.704310 0.000000 
#    z 0.000000 0.000000 1.262520 
# 
# From -- ./inp_files/66642.got.cif
#   From: 2010.05.17/outbox.cif.g08.bks.cpg/sg63_34_cif.got.tgz:66642.got - 2010.06.03 15:47:04.
