data_PCOD9475090
_publ_section_title
;
Structure prediction by ZEFSAII (Michael W. Deem and Ramdas Pophale) SiO2 
 PCOD9475090
Probable space group: C M C M
;
_chemical_formula_sum "Si O2"
_cell_formula_units_Z 72
_cell_length_a 13.884507
_cell_length_b 29.641704
_cell_length_c 8.479030
_cell_angle_alpha 90.000000
_cell_angle_beta 90.000000
_cell_angle_gamma 90.000000
_cell_volume 3489.633374
_symmetry_space_group_name_H-M "C M C M"
_symmetry_group_IT_number 63
_symmetry_cell_setting 'orthorhombic'
loop_
_space_group_symop_operation_xyz
x,y,z
-x,-y,1/2+z
x,-y,-z
-x,y,1/2-z
-x,-y,-z
x,y,1/2-z
-x,y,z
x,-y,1/2+z
1/2+x,1/2+y,z
1/2-x,1/2-y,1/2+z
1/2+x,1/2-y,-z
1/2-x,1/2+y,1/2-z
1/2-x,1/2-y,-z
1/2+x,1/2+y,1/2-z
1/2-x,1/2+y,z
1/2+x,1/2-y,1/2+z
loop_
_atom_site_type_symbol
_atom_site_label
_atom_site_fract_x
_atom_site_fract_y
_atom_site_fract_z
Si Si1 0.782468 0.298943 0.558832
Si Si2 0.682565 0.041780 0.430834
Si Si3 0.000000 0.326281 0.934487
Si Si4 0.185963 0.113818 0.560994
Si Si5 0.000000 0.422761 0.074152
Si Si6 0.000000 0.947805 0.061889
O O1 0.779917 0.301792 0.750000
O O2 0.750000 0.250000 0.500000
O O3 0.894298 0.309345 0.505830
O O4 0.705490 0.334593 0.486313
O O5 0.658646 0.035321 0.250000
O O6 0.735261 0.088278 0.457546
O O7 0.591188 0.046576 0.542280
O O8 0.742960 0.000000 0.500000
O O9 0.000000 0.314997 0.750000
O O10 0.000000 0.380237 0.958412
O O11 0.201689 0.109285 0.750000
O O12 0.090368 0.084938 0.521926
O O13 0.000000 0.404317 0.250000
O O14 0.000000 0.952945 0.250000
O O15 0.000000 0.000000 0.000000
#
# Coordination Sequence:
#
# PCOD9475090 Si02
#       6
#    16  16   8  16   8   8
#     4  11  24  43  68  97 130 171 218 273 331 395
#     4  12  24  39  59  89 128 168 211 259 313 377
#     4  10  22  42  66  92 129 169 209 259 322 380
#     4  11  23  42  65  93 127 168 217 272 333 394
#     4  12  23  37  61  91 124 165 207 250 304 369
#     4  10  24  43  66  95 132 174 222 279 338 399
#
# _framework density 20.632541
#
# number of rings (size 3 to 8) (size 9 to 14) (size 15 to 20)
#    0.000    0.889    2.222    5.333    0.000    5.333 
#    0.000    4.444    0.000    0.000    0.000    0.000 
#    0.000    0.000    0.000    0.000    0.000    0.000 
#
# Total GULP energy -200741.206935 kJ/mol
# GULP energy per Si atom -5576.144637 kJ/mol
# Density = 2.058558 g / cm^3
# Si number density = 20.632541 Si / 1000 Ang^3
#
#
#
# Elastic Constant Matrix: (Units=GPa)
#
#
# Indices 1 2 3 4 5 6 
#
# 1 100.0381 47.6735 24.9152 0.0000 0.0000 0.0000
# 2 47.6735 166.2859 11.4063 0.0000 0.0000 0.0000
# 3 24.9152 11.4063 67.6256 0.0000 0.0000 0.0000
# 4 0.0000 0.0000 0.0000 41.1698 0.0000 0.0000
# 5 0.0000 0.0000 0.0000 0.0000 18.7050 0.0000
# 6 0.0000 0.0000 0.0000 0.0000 0.0000 27.2565
#
#
#
# Elastic Compliance Matrix: (Units=1/GPa)
#
#
# Indices 1 2 3 4 5 6 
#
# 1 0.012601 -0.003333 -0.004080 0.000000 0.000000 0.000000
# 2 -0.003333 0.006966 0.000053 0.000000 0.000000 0.000000
# 3 -0.004080 0.000053 0.016282 0.000000 0.000000 0.000000
# 4 0.000000 0.000000 0.000000 0.024290 0.000000 0.000000
# 5 0.000000 0.000000 0.000000 0.000000 0.053462 0.000000
# 6 0.000000 0.000000 0.000000 0.000000 0.000000 0.036689
#
#
# Mechanical properties :
#
#
# Convention : Reuss Voigt Hill
#
# Bulk Modulus (GPa) = 47.33088 55.77106 51.55097
# Shear Modulus (GPa) = 29.06126 34.08988 31.57557
#
# Velocity S-wave (km/s) = 3.75709 4.06918 3.91625
# Velocity P-wave (km/s) = 6.46612 7.01192 6.74454
#
# Compressibility (1/GPa) = 0.02112786
#
# Stress axis : x y z
#
# Youngs Moduli (GPa) = 79.36121 143.56330 61.41884
#
# Poissons Ratio (x) = 0.47845 0.25061
# Poissons Ratio (y) = 0.26448 -0.00325
# Poissons Ratio (z) = 0.32382 -0.00761
#
# Static dielectric constant tensor:
#      x y z
#    x 1.831200 0.000000 0.000000 
#    y 0.000000 1.813540 0.000000 
#    z 0.000000 0.000000 1.685970 
# 
# From -- ./inp_files/4710.got.cif
#   From: 2010.05.17/outbox.cif.g08.bks.cpg/sg63_3_cif.got.tgz:4710.got - 2010.06.03 15:47:04.
