data_PCOD9475936
_publ_section_title
;
Structure prediction by ZEFSAII (Michael W. Deem and Ramdas Pophale) SiO2 
 PCOD9475936
Probable space group: C M C M
;
_chemical_formula_sum "Si O2"
_cell_formula_units_Z 96
_cell_length_a 7.360206
_cell_length_b 31.940711
_cell_length_c 22.377919
_cell_angle_alpha 90.000000
_cell_angle_beta 90.000000
_cell_angle_gamma 90.000000
_cell_volume 5260.829739
_symmetry_space_group_name_H-M "C M C M"
_symmetry_group_IT_number 63
_symmetry_cell_setting 'orthorhombic'
loop_
_space_group_symop_operation_xyz
x,y,z
-x,-y,1/2+z
x,-y,-z
-x,y,1/2-z
-x,-y,-z
x,y,1/2-z
-x,y,z
x,-y,1/2+z
1/2+x,1/2+y,z
1/2-x,1/2-y,1/2+z
1/2+x,1/2-y,-z
1/2-x,1/2+y,1/2-z
1/2-x,1/2-y,-z
1/2+x,1/2+y,1/2-z
1/2-x,1/2+y,z
1/2+x,1/2-y,1/2+z
loop_
_atom_site_type_symbol
_atom_site_label
_atom_site_fract_x
_atom_site_fract_y
_atom_site_fract_z
Si Si1 0.286924 0.011300 0.429278
Si Si2 0.781549 0.307944 0.545439
Si Si3 0.278051 0.900265 0.539158
Si Si4 0.277847 0.152963 0.681755
Si Si5 0.714199 0.219072 0.914273
Si Si6 0.278339 0.921877 0.403198
O O1 0.500000 0.013739 0.413518
O O2 0.213312 0.058431 0.425665
O O3 0.276945 0.000000 0.500000
O O4 0.213851 0.969879 0.396990
O O5 0.719740 0.354646 0.561243
O O6 0.736222 0.268997 0.587745
O O7 0.712667 0.296112 0.478743
O O8 0.000000 0.309343 0.542622
O O9 0.500000 0.901543 0.540221
O O10 0.226785 0.905362 0.469251
O O11 0.216988 0.154838 0.750000
O O12 0.500000 0.153089 0.682841
O O13 0.216634 0.192024 0.641000
O O14 0.222338 0.110712 0.647232
O O15 0.500000 0.210289 0.916720
O O16 0.500000 0.922843 0.403339
#
# Coordination Sequence:
#
# PCOD9475936 Si02
#       6
#    16  16  16  16  16  16
#     4   7  10  14  24  42  65  90 110 133 169 208
#     4   9  15  23  37  53  72  97 122 148 182 221
#     4   8  11  17  29  47  69  91 112 139 176 214
#     4   9  15  22  33  48  68  96 123 147 181 220
#     4   9  16  25  35  51  74  96 120 152 185 217
#     4   8  11  17  27  43  68  91 112 141 174 211
#
# _framework density 18.248072000000001
#
# number of rings (size 3 to 8) (size 9 to 14) (size 15 to 20)
#    0.000    3.667    1.667    2.000    0.000    0.000 
#    0.000    0.000    0.000    0.500    0.000    1.167 
#    0.000   11.333    0.000    0.000    0.000    0.000 
#
# Total GULP energy -267211.829853 kJ/mol
# GULP energy per Si atom -5566.913122 kJ/mol
# Density = 1.820654 g / cm^3
# Si number density = 18.248072 Si / 1000 Ang^3
#
#
#
# Elastic Constant Matrix: (Units=GPa)
#
#
# Indices 1 2 3 4 5 6 
#
# 1 63.3440 0.2985 5.3733 0.0000 0.0000 0.0000
# 2 0.2985 205.7355 81.3324 0.0000 0.0000 0.0000
# 3 5.3733 81.3324 82.2873 0.0000 0.0000 0.0000
# 4 0.0000 0.0000 0.0000 17.6980 0.0000 0.0000
# 5 0.0000 0.0000 0.0000 0.0000 -10.6594 0.0000
# 6 0.0000 0.0000 0.0000 0.0000 0.0000 4.5615
#
#
#
# Elastic Compliance Matrix: (Units=1/GPa)
#
#
# Indices 1 2 3 4 5 6 
#
# 1 0.015925 0.000637 -0.001669 0.000000 0.000000 0.000000
# 2 0.000637 0.008003 -0.007952 0.000000 0.000000 0.000000
# 3 -0.001669 -0.007952 0.020121 0.000000 0.000000 0.000000
# 4 0.000000 0.000000 0.000000 0.056504 0.000000 0.000000
# 5 0.000000 0.000000 0.000000 0.000000 -0.093814 0.000000
# 6 0.000000 0.000000 0.000000 0.000000 0.000000 0.219225
#
#
# Mechanical properties :
#
#
# Convention : Reuss Voigt Hill
#
# Bulk Modulus (GPa) = 38.34222 58.37502 48.35862
# Shear Modulus (GPa) = 19.79198 19.94420 19.86809
#
# Velocity S-wave (km/s) = 3.29691 3.30956 3.30324
# Velocity P-wave (km/s) = 5.96239 6.83106 6.41145
#
# Compressibility (1/GPa) = 0.02608091
#
# Stress axis : x y z
#
# Youngs Moduli (GPa) = 62.79267 124.94805 49.69857
#
# Poissons Ratio (x) = -0.07957 0.08297
# Poissons Ratio (y) = -0.03999 0.39520
# Poissons Ratio (z) = 0.10482 0.99359
#
# Static dielectric constant tensor:
#      x y z
#    x 1.772970 0.000000 0.000000 
#    y 0.000000 1.686670 0.000000 
#    z 0.000000 0.000000 1.570840 
# 
# From -- ./inp_files/62071.got.cif
#   From: 2010.05.17/outbox.cif.g08.bks.cpg/sg63_32_cif.got.tgz:62071.got - 2010.06.03 15:47:04.
