data_PCOD9475552
_publ_section_title
;
Structure prediction by ZEFSAII (Michael W. Deem and Ramdas Pophale) SiO2 
 PCOD9475552
Probable space group: C M C M
;
_chemical_formula_sum "Si O2"
_cell_formula_units_Z 80
_cell_length_a 16.804922
_cell_length_b 9.392524
_cell_length_c 26.449577
_cell_angle_alpha 90.000000
_cell_angle_beta 90.000000
_cell_angle_gamma 90.000000
_cell_volume 4174.817982
_symmetry_space_group_name_H-M "C M C M"
_symmetry_group_IT_number 63
_symmetry_cell_setting 'orthorhombic'
loop_
_space_group_symop_operation_xyz
x,y,z
-x,-y,1/2+z
x,-y,-z
-x,y,1/2-z
-x,-y,-z
x,y,1/2-z
-x,y,z
x,-y,1/2+z
1/2+x,1/2+y,z
1/2-x,1/2-y,1/2+z
1/2+x,1/2-y,-z
1/2-x,1/2+y,1/2-z
1/2-x,1/2-y,-z
1/2+x,1/2+y,1/2-z
1/2-x,1/2+y,z
1/2+x,1/2-y,1/2+z
loop_
_atom_site_type_symbol
_atom_site_label
_atom_site_fract_x
_atom_site_fract_y
_atom_site_fract_z
Si Si1 0.683745 0.744181 0.364581
Si Si2 0.093996 0.013892 0.598755
Si Si3 0.242694 0.882748 0.463563
Si Si4 0.195221 0.532508 0.308194
Si Si5 0.906139 0.795489 0.194846
O O1 0.609992 0.648462 0.383522
O O2 0.714937 0.832057 0.412728
O O3 0.744124 0.623020 0.343388
O O4 0.677449 0.870362 0.323666
O O5 0.000000 0.035483 0.587294
O O6 0.155850 0.059102 0.554632
O O7 0.118646 0.111815 0.646950
O O8 0.250000 0.750000 0.500000
O O9 0.281225 0.000000 0.500000
O O10 0.222385 0.537748 0.250000
O O11 0.117191 0.631631 0.311870
O O12 0.873037 0.840999 0.250000
O O13 0.000000 0.811510 0.197007
#
# Coordination Sequence:
#
# PCOD9475552 Si02
#       5
#    16  16  16  16  16
#     4  12  22  40  60  92 126 162 213 258 313 374
#     4  11  24  42  66  95 128 163 209 263 318 379
#     4  12  23  42  67  89 118 165 210 264 322 376
#     4  11  21  35  62  93 127 167 215 260 306 379
#     4   9  19  37  60  88 127 170 204 248 316 379
#
# _framework density 19.162513000000001
#
# number of rings (size 3 to 8) (size 9 to 14) (size 15 to 20)
#    0.000    1.000    6.000    0.600    0.000    4.400 
#    0.000    0.000    0.000    1.200    0.000    0.000 
#    0.000    0.000    0.000    0.000    0.000    0.000 
#
# Total GULP energy -222757.143000 kJ/mol
# GULP energy per Si atom -5568.928575 kJ/mol
# Density = 1.911890 g / cm^3
# Si number density = 19.162513 Si / 1000 Ang^3
#
#
#
# Elastic Constant Matrix: (Units=GPa)
#
#
# Indices 1 2 3 4 5 6 
#
# 1 27.7833 14.1643 15.4549 0.0000 0.0000 0.0000
# 2 14.1643 131.8863 27.6010 0.0000 0.0000 0.0000
# 3 15.4549 27.6010 92.6051 0.0000 0.0000 0.0000
# 4 0.0000 0.0000 0.0000 49.1886 0.0000 0.0000
# 5 0.0000 0.0000 0.0000 0.0000 -0.0391 0.0000
# 6 0.0000 0.0000 0.0000 0.0000 0.0000 30.4237
#
#
#
# Elastic Compliance Matrix: (Units=1/GPa)
#
#
# Indices 1 2 3 4 5 6 
#
# 1 0.040874 -0.003159 -0.005880 0.000000 0.000000 0.000000
# 2 -0.003159 0.008331 -0.001956 0.000000 0.000000 0.000000
# 3 -0.005880 -0.001956 0.012363 0.000000 0.000000 0.000000
# 4 0.000000 0.000000 0.000000 0.020330 0.000000 0.000000
# 5 0.000000 0.000000 0.000000 0.000000-25.591187 0.000000
# 6 0.000000 0.000000 0.000000 0.000000 0.000000 0.032869
#
#
# Mechanical properties :
#
#
# Convention : Reuss Voigt Hill
#
# Bulk Modulus (GPa) = 25.26652 40.74612 33.00632
# Shear Modulus (GPa) = -0.19653 28.91826 14.36087
#
# Velocity S-wave (km/s) = -0.32060 3.88894 2.74053
# Velocity P-wave (km/s) = 3.61621 6.44009 5.22263
#
# Compressibility (1/GPa) = 0.03957807
#
# Stress axis : x y z
#
# Youngs Moduli (GPa) = 24.46523 120.03510 80.88814
#
# Poissons Ratio (x) = 0.37923 0.47561
# Poissons Ratio (y) = 0.07729 0.15820
# Poissons Ratio (z) = 0.14385 0.23476
#
# Static dielectric constant tensor:
#      x y z
#    x 1.698570 0.000000 0.000000 
#    y 0.000000 1.659530 0.000000 
#    z 0.000000 0.000000 1.795630 
# 
# From -- ./inp_files/69718.got.cif
#   From: 2010.05.17/outbox.cif.g08.bks.cpg/sg63_35_cif.got.tgz:69718.got - 2010.06.03 15:47:04.
