data_PCOD9475337
_publ_section_title
;
Structure prediction by ZEFSAII (Michael W. Deem and Ramdas Pophale) SiO2 
 PCOD9475337
Probable space group: C M C M
;
_chemical_formula_sum "Si O2"
_cell_formula_units_Z 72
_cell_length_a 17.192303
_cell_length_b 25.113892
_cell_length_c 8.454935
_cell_angle_alpha 90.000000
_cell_angle_beta 90.000000
_cell_angle_gamma 90.000000
_cell_volume 3650.550428
_symmetry_space_group_name_H-M "C M C M"
_symmetry_group_IT_number 63
_symmetry_cell_setting 'orthorhombic'
loop_
_space_group_symop_operation_xyz
x,y,z
-x,-y,1/2+z
x,-y,-z
-x,y,1/2-z
-x,-y,-z
x,y,1/2-z
-x,y,z
x,-y,1/2+z
1/2+x,1/2+y,z
1/2-x,1/2-y,1/2+z
1/2+x,1/2-y,-z
1/2-x,1/2+y,1/2-z
1/2-x,1/2-y,-z
1/2+x,1/2+y,1/2-z
1/2-x,1/2+y,z
1/2+x,1/2-y,1/2+z
loop_
_atom_site_type_symbol
_atom_site_label
_atom_site_fract_x
_atom_site_fract_y
_atom_site_fract_z
Si Si1 0.500000 0.939637 0.559816
Si Si2 0.088524 0.941909 0.440645
Si Si3 0.876853 0.648268 0.061774
Si Si4 0.085839 0.236570 0.061956
Si Si5 0.703169 0.348139 0.438900
O O1 0.500000 0.942184 0.750000
O O2 0.574959 0.904125 0.511370
O O3 0.500000 0.000000 0.500000
O O4 0.087578 0.942134 0.250000
O O5 0.146829 0.896026 0.491681
O O6 0.000000 0.932174 0.496399
O O7 0.112451 0.000000 0.500000
O O8 0.887822 0.654443 0.250000
O O9 0.908569 0.701213 0.978253
O O10 0.786017 0.646088 0.021205
O O11 0.091792 0.229170 0.250000
O O12 0.000000 0.217007 0.008980
O O13 0.156326 0.205405 0.980730
O O14 0.714534 0.350414 0.250000
#
# Coordination Sequence:
#
# PCOD9475337 Si02
#       5
#     8  16  16  16  16
#     4  10  24  44  68  92 118 160 207 256 313 368
#     4   9  19  36  57  81 113 154 196 239 291 349
#     4  11  23  42  63  87 120 157 200 250 306 362
#     4  11  23  39  62  91 122 159 201 247 302 362
#     4  11  23  38  59  89 123 160 201 247 302 363
#
# _framework density 19.723053
#
# number of rings (size 3 to 8) (size 9 to 14) (size 15 to 20)
#    0.000    1.556    1.111    3.333    0.000    6.667 
#    0.000    6.667    0.000    0.000    0.000    0.000 
#    0.000    0.000    0.000    0.000    0.000    0.000 
#
# Total GULP energy -201197.438761 kJ/mol
# GULP energy per Si atom -5588.817743 kJ/mol
# Density = 1.967816 g / cm^3
# Si number density = 19.723053 Si / 1000 Ang^3
#
#
#
# Elastic Constant Matrix: (Units=GPa)
#
#
# Indices 1 2 3 4 5 6 
#
# 1 112.4210 54.5644 7.5464 0.0000 0.0000 0.0000
# 2 54.5644 112.7490 -5.3208 0.0000 0.0000 0.0000
# 3 7.5464 -5.3208 15.1538 0.0000 0.0000 0.0000
# 4 0.0000 0.0000 0.0000 35.0779 0.0000 0.0000
# 5 0.0000 0.0000 0.0000 0.0000 1.3666 0.0000
# 6 0.0000 0.0000 0.0000 0.0000 0.0000 2.8855
#
#
#
# Elastic Compliance Matrix: (Units=1/GPa)
#
#
# Indices 1 2 3 4 5 6 
#
# 1 0.012636 -0.006520 -0.008582 0.000000 0.000000 0.000000
# 2 -0.006520 0.012383 0.007595 0.000000 0.000000 0.000000
# 3 -0.008582 0.007595 0.072930 0.000000 0.000000 0.000000
# 4 0.000000 0.000000 0.000000 0.028508 0.000000 0.000000
# 5 0.000000 0.000000 0.000000 0.000000 0.731766 0.000000
# 6 0.000000 0.000000 0.000000 0.000000 0.000000 0.346563
#
#
# Mechanical properties :
#
#
# Convention : Reuss Voigt Hill
#
# Bulk Modulus (GPa) = 12.05766 39.32266 25.69016
# Shear Modulus (GPa) = 4.00819 20.10157 12.05488
#
# Velocity S-wave (km/s) = 1.42711 3.19594 2.47494
# Velocity P-wave (km/s) = 2.97360 5.79650 4.60661
#
# Compressibility (1/GPa) = 0.08293486
#
# Stress axis : x y z
#
# Youngs Moduli (GPa) = 79.14077 80.75597 13.71178
#
# Poissons Ratio (x) = 0.52653 0.11767
# Poissons Ratio (y) = 0.51600 -0.10414
# Poissons Ratio (z) = 0.67916 -0.61332
#
# Static dielectric constant tensor:
#      x y z
#    x 1.700220 0.000000 0.000000 
#    y 0.000000 1.674730 0.000000 
#    z 0.000000 0.000000 1.669230 
# 
# From -- ./inp_files/4604.got.cif
#   From: 2010.05.17/outbox.cif.g08.bks.cpg/sg63_3_cif.got.tgz:4604.got - 2010.06.03 15:47:04.
