data_PCOD9475178
_publ_section_title
;
Structure prediction by ZEFSAII (Michael W. Deem and Ramdas Pophale) SiO2 
 PCOD9475178
Probable space group: C M C M
;
_chemical_formula_sum "Si O2"
_cell_formula_units_Z 80
_cell_length_a 7.651560
_cell_length_b 29.834829
_cell_length_c 17.992813
_cell_angle_alpha 90.000000
_cell_angle_beta 90.000000
_cell_angle_gamma 90.000000
_cell_volume 4107.453045
_symmetry_space_group_name_H-M "C M C M"
_symmetry_group_IT_number 63
_symmetry_cell_setting 'orthorhombic'
loop_
_space_group_symop_operation_xyz
x,y,z
-x,-y,1/2+z
x,-y,-z
-x,y,1/2-z
-x,-y,-z
x,y,1/2-z
-x,y,z
x,-y,1/2+z
1/2+x,1/2+y,z
1/2-x,1/2-y,1/2+z
1/2+x,1/2-y,-z
1/2-x,1/2+y,1/2-z
1/2-x,1/2-y,-z
1/2+x,1/2+y,1/2-z
1/2-x,1/2+y,z
1/2+x,1/2-y,1/2+z
loop_
_atom_site_type_symbol
_atom_site_label
_atom_site_fract_x
_atom_site_fract_y
_atom_site_fract_z
Si Si1 0.292714 0.854956 0.334385
Si Si2 0.208573 0.264895 0.084194
Si Si3 0.000000 0.392623 0.838127
Si Si4 0.291072 0.446807 0.416211
Si Si5 0.288946 0.547786 0.410052
Si Si6 0.000000 0.707885 0.161722
O O1 0.219633 0.850738 0.250000
O O2 0.500000 0.849320 0.328077
O O3 0.236720 0.815471 0.391034
O O4 0.263834 0.904192 0.368408
O O5 0.327003 0.233018 0.134467
O O6 0.000000 0.260192 0.095675
O O7 0.250000 0.250000 0.000000
O O8 0.173100 0.418439 0.863687
O O9 0.000000 0.342415 0.869511
O O10 0.000000 0.390146 0.750000
O O11 0.500000 0.447591 0.414795
O O12 0.236785 0.496510 0.390522
O O13 0.243099 0.443781 0.503183
O O14 0.500000 0.552457 0.401609
O O15 0.000000 0.706951 0.250000
#
# Coordination Sequence:
#
# PCOD9475178 Si02
#       6
#    16  16   8  16  16   8
#     4  10  23  39  59  93 131 164 201 254 324 388
#     4  11  24  43  68  97 127 167 218 268 321 389
#     4  11  26  41  63  91 119 170 219 255 318 372
#     4   9  20  37  61  92 123 165 207 249 319 377
#     4   9  21  41  62  90 127 163 211 264 305 372
#     4  11  26  46  65  93 133 172 213 269 328 379
#
# _framework density 19.476789
#
# number of rings (size 3 to 8) (size 9 to 14) (size 15 to 20)
#    0.000    2.000    1.000    1.800    7.000    4.400 
#    0.000    4.000    0.000    0.000    0.000    0.000 
#    0.000    0.000    0.000    0.000    0.000    0.000 
#
# Total GULP energy -223177.243059 kJ/mol
# GULP energy per Si atom -5579.431076 kJ/mol
# Density = 1.943246 g / cm^3
# Si number density = 19.476789 Si / 1000 Ang^3
#
#
#
# Elastic Constant Matrix: (Units=GPa)
#
#
# Indices 1 2 3 4 5 6 
#
# 1 81.7501 42.2275 24.6974 0.0000 0.0000 0.0000
# 2 42.2275 162.4354 67.8838 0.0000 0.0000 0.0000
# 3 24.6974 67.8838 87.4138 0.0000 0.0000 0.0000
# 4 0.0000 0.0000 0.0000 6.8175 0.0000 0.0000
# 5 0.0000 0.0000 0.0000 0.0000 27.8715 0.0000
# 6 0.0000 0.0000 0.0000 0.0000 0.0000 34.7245
#
#
#
# Elastic Compliance Matrix: (Units=1/GPa)
#
#
# Indices 1 2 3 4 5 6 
#
# 1 0.014300 -0.003004 -0.001707 0.000000 0.000000 0.000000
# 2 -0.003004 0.009745 -0.006719 0.000000 0.000000 0.000000
# 3 -0.001707 -0.006719 0.017140 0.000000 0.000000 0.000000
# 4 0.000000 0.000000 0.000000 0.146682 0.000000 0.000000
# 5 0.000000 0.000000 0.000000 0.000000 0.035879 0.000000
# 6 0.000000 0.000000 0.000000 0.000000 0.000000 0.028798
#
#
# Mechanical properties :
#
#
# Convention : Reuss Voigt Hill
#
# Bulk Modulus (GPa) = 54.57257 66.80185 60.68721
# Shear Modulus (GPa) = 17.76115 27.00207 22.38161
#
# Velocity S-wave (km/s) = 3.02307 3.72744 3.39358
# Velocity P-wave (km/s) = 6.34550 7.27308 6.82507
#
# Compressibility (1/GPa) = 0.01832422
#
# Stress axis : x y z
#
# Youngs Moduli (GPa) = 69.93067 102.61383 58.34203
#
# Poissons Ratio (x) = 0.30824 0.09962
# Poissons Ratio (y) = 0.21007 0.39202
# Poissons Ratio (z) = 0.11940 0.68949
#
# Static dielectric constant tensor:
#      x y z
#    x 1.667080 0.000000 0.000000 
#    y 0.000000 1.707220 0.000000 
#    z 0.000000 0.000000 1.694220 
# 
# From -- ./inp_files/40601.got.cif
#   From: 2010.05.17/outbox.cif.g08.bks.cpg/sg63_21_cif.got.tgz:40601.got - 2010.06.03 15:47:04.
