data_PCOD9475098
_publ_section_title
;
Structure prediction by ZEFSAII (Michael W. Deem and Ramdas Pophale) SiO2 
 PCOD9475098
Probable space group: C M C M
;
_chemical_formula_sum "Si O2"
_cell_formula_units_Z 96
_cell_length_a 22.193607
_cell_length_b 26.184244
_cell_length_c 8.601824
_cell_angle_alpha 90.000000
_cell_angle_beta 90.000000
_cell_angle_gamma 90.000000
_cell_volume 4998.716228
_symmetry_space_group_name_H-M "C M C M"
_symmetry_group_IT_number 63
_symmetry_cell_setting 'orthorhombic'
loop_
_space_group_symop_operation_xyz
x,y,z
-x,-y,1/2+z
x,-y,-z
-x,y,1/2-z
-x,-y,-z
x,y,1/2-z
-x,y,z
x,-y,1/2+z
1/2+x,1/2+y,z
1/2-x,1/2-y,1/2+z
1/2+x,1/2-y,-z
1/2-x,1/2+y,1/2-z
1/2-x,1/2-y,-z
1/2+x,1/2+y,1/2-z
1/2-x,1/2+y,z
1/2+x,1/2-y,1/2+z
loop_
_atom_site_type_symbol
_atom_site_label
_atom_site_fract_x
_atom_site_fract_y
_atom_site_fract_z
Si Si1 0.704913 0.851199 0.437808
Si Si2 0.655809 0.645066 0.563795
Si Si3 0.375764 0.244207 0.563676
Si Si4 0.868347 0.552710 0.063424
Si Si5 0.500000 0.800143 0.935476
Si Si6 0.430201 0.443632 0.936369
Si Si7 0.000000 0.421284 0.563571
O O1 0.702069 0.853265 0.250000
O O2 0.774206 0.857780 0.485838
O O3 0.675121 0.797148 0.485533
O O4 0.666465 0.897532 0.506139
O O5 0.653572 0.642154 0.750000
O O6 0.633570 0.700428 0.509295
O O7 0.614645 0.599878 0.496637
O O8 0.373998 0.248309 0.750000
O O9 0.440080 0.222876 0.509851
O O10 0.868655 0.552140 0.250000
O O11 0.937261 0.556925 0.002550
O O12 0.841537 0.500000 0.000000
O O13 0.500000 0.791307 0.750000
O O14 0.500000 0.860761 0.962598
O O15 0.428019 0.444838 0.750000
O O16 0.500000 0.432909 0.983379
O O17 0.414691 0.500000 0.000000
O O18 0.000000 0.429411 0.750000
#
# Coordination Sequence:
#
# PCOD9475098 Si02
#       7
#    16  16  16  16   8  16   8
#     4  10  23  42  61  86 121 162 205 251 301 357
#     4  11  24  41  64  92 123 161 204 245 296 362
#     4  11  23  40  62  91 125 159 202 252 305 355
#     4  11  22  38  60  87 119 158 205 255 306 361
#     4  11  21  38  62  90 122 159 204 249 301 360
#     4  10  22  42  67  94 124 156 195 246 304 361
#     4   9  19  36  58  86 117 154 202 252 303 356
#
# _framework density 19.204931999999999
#
# number of rings (size 3 to 8) (size 9 to 14) (size 15 to 20)
#    0.000    1.500    1.667    3.000    1.167    3.667 
#    0.000    1.250    0.000    0.000    0.000    0.000 
#    0.000    0.000    0.000    0.000    0.000    0.000 
#
# Total GULP energy -268265.332180 kJ/mol
# GULP energy per Si atom -5588.861087 kJ/mol
# Density = 1.916122 g / cm^3
# Si number density = 19.204932 Si / 1000 Ang^3
#
#
#
# Elastic Constant Matrix: (Units=GPa)
#
#
# Indices 1 2 3 4 5 6 
#
# 1 124.1343 76.5709 32.6573 0.0000 0.0000 0.0000
# 2 76.5709 145.2522 35.9305 0.0000 0.0000 0.0000
# 3 32.6573 35.9305 34.7748 0.0000 0.0000 0.0000
# 4 0.0000 0.0000 0.0000 35.1787 0.0000 0.0000
# 5 0.0000 0.0000 0.0000 0.0000 22.6706 0.0000
# 6 0.0000 0.0000 0.0000 0.0000 0.0000 -103.9880
#
#
#
# Elastic Compliance Matrix: (Units=1/GPa)
#
#
# Indices 1 2 3 4 5 6 
#
# 1 0.013072 -0.005178 -0.006926 0.000000 0.000000 0.000000
# 2 -0.005178 0.011299 -0.006812 0.000000 0.000000 0.000000
# 3 -0.006926 -0.006812 0.042299 0.000000 0.000000 0.000000
# 4 0.000000 0.000000 0.000000 0.028426 0.000000 0.000000
# 5 0.000000 0.000000 0.000000 0.000000 0.044110 0.000000
# 6 0.000000 0.000000 0.000000 0.000000 0.000000 -0.009616
#
#
# Mechanical properties :
#
#
# Convention : Reuss Voigt Hill
#
# Bulk Modulus (GPa) = 34.67606 66.05319 50.36462
# Shear Modulus (GPa) = 28.24306 1.37244 14.80775
#
# Velocity S-wave (km/s) = 3.83902 0.84627 2.77977
# Velocity P-wave (km/s) = 6.14376 5.95176 6.04852
#
# Compressibility (1/GPa) = 0.02883834
#
# Stress axis : x y z
#
# Youngs Moduli (GPa) = 76.50166 88.50261 23.64095
#
# Poissons Ratio (x) = 0.45823 0.16374
# Poissons Ratio (y) = 0.39609 0.16105
# Poissons Ratio (z) = 0.52985 0.60291
#
# Static dielectric constant tensor:
#      x y z
#    x 1.683250 0.000000 0.000000 
#    y 0.000000 1.637060 0.000000 
#    z 0.000000 0.000000 1.652120 
# 
# From -- ./inp_files/10557.got.cif
#   From: 2010.05.17/outbox.cif.g08.bks.cpg/sg63_6_cif.got.tgz:10557.got - 2010.06.03 15:47:04.
