data_PCOD9475833
_publ_section_title
;
Structure prediction by ZEFSAII (Michael W. Deem and Ramdas Pophale) SiO2 
 PCOD9475833
Probable space group: C M C M
;
_chemical_formula_sum "Si O2"
_cell_formula_units_Z 64
_cell_length_a 9.713813
_cell_length_b 10.112376
_cell_length_c 34.453775
_cell_angle_alpha 90.000000
_cell_angle_beta 90.000000
_cell_angle_gamma 90.000000
_cell_volume 3384.384997
_symmetry_space_group_name_H-M "C M C M"
_symmetry_group_IT_number 63
_symmetry_cell_setting 'orthorhombic'
loop_
_space_group_symop_operation_xyz
x,y,z
-x,-y,1/2+z
x,-y,-z
-x,y,1/2-z
-x,-y,-z
x,y,1/2-z
-x,y,z
x,-y,1/2+z
1/2+x,1/2+y,z
1/2-x,1/2-y,1/2+z
1/2+x,1/2-y,-z
1/2-x,1/2+y,1/2-z
1/2-x,1/2-y,-z
1/2+x,1/2+y,1/2-z
1/2-x,1/2+y,z
1/2+x,1/2-y,1/2+z
loop_
_atom_site_type_symbol
_atom_site_label
_atom_site_fract_x
_atom_site_fract_y
_atom_site_fract_z
Si Si1 0.000000 0.540915 0.294127
Si Si2 0.162848 0.360894 0.477133
Si Si3 0.251388 0.863401 0.847042
Si Si4 0.837543 0.887239 0.101157
Si Si5 0.500000 0.274604 0.794111
O O1 0.129886 0.585819 0.318867
O O2 0.000000 0.593756 0.250000
O O3 0.000000 0.383190 0.291979
O O4 0.169077 0.500000 0.500000
O O5 0.250000 0.250000 0.500000
O O6 0.238176 0.379328 0.435998
O O7 0.000000 0.325524 0.473132
O O8 0.305489 0.740556 0.872407
O O9 0.130087 0.819002 0.818821
O O10 0.199409 0.980818 0.874906
O O11 0.000000 0.887893 0.090633
O O12 0.500000 0.327448 0.750000
#
# Coordination Sequence:
#
# PCOD9475833 Si02
#       5
#     8  16  16  16   8
#     4  11  24  43  67  95 135 177 221 280 333 387
#     4  11  26  46  70 101 133 172 219 269 326 395
#     4  12  24  43  65 100 131 175 225 271 330 392
#     4  12  26  42  68  97 136 173 216 273 328 392
#     4  11  24  43  67  97 133 176 223 277 335 391
#
# _framework density 18.910378000000001
#
# number of rings (size 3 to 8) (size 9 to 14) (size 15 to 20)
#    0.000    0.500    5.000    3.000    3.500    6.000 
#    0.000    1.250    0.000    0.000    0.000    0.000 
#    0.000    0.000    0.000    0.000    0.000    0.000 
#
# Total GULP energy -178964.533576 kJ/mol
# GULP energy per Si atom -5592.641674 kJ/mol
# Density = 1.886734 g / cm^3
# Si number density = 18.910378 Si / 1000 Ang^3
#
#
#
# Elastic Constant Matrix: (Units=GPa)
#
#
# Indices 1 2 3 4 5 6 
#
# 1 201.2574 48.6398 81.2211 0.0000 0.0000 0.0000
# 2 48.6398 98.8385 41.5949 0.0000 0.0000 0.0000
# 3 81.2211 41.5949 145.6395 0.0000 0.0000 0.0000
# 4 0.0000 0.0000 0.0000 289.2379 0.0000 0.0000
# 5 0.0000 0.0000 0.0000 0.0000 44.1557 0.0000
# 6 0.0000 0.0000 0.0000 0.0000 0.0000 25.0568
#
#
#
# Elastic Compliance Matrix: (Units=1/GPa)
#
#
# Indices 1 2 3 4 5 6 
#
# 1 0.006733 -0.001970 -0.003192 0.000000 0.000000 0.000000
# 2 -0.001970 0.012076 -0.002350 0.000000 0.000000 0.000000
# 3 -0.003192 -0.002350 0.009318 0.000000 0.000000 0.000000
# 4 0.000000 0.000000 0.000000 0.003457 0.000000 0.000000
# 5 0.000000 0.000000 0.000000 0.000000 0.022647 0.000000
# 6 0.000000 0.000000 0.000000 0.000000 0.000000 0.039909
#
#
# Mechanical properties :
#
#
# Convention : Reuss Voigt Hill
#
# Bulk Modulus (GPa) = 76.32565 87.62745 81.97655
# Shear Modulus (GPa) = 44.03981 89.97540 67.00760
#
# Velocity S-wave (km/s) = 4.83107 6.90530 5.95913
# Velocity P-wave (km/s) = 8.45981 10.48887 9.52851
#
# Compressibility (1/GPa) = 0.01310176
#
# Stress axis : x y z
#
# Youngs Moduli (GPa) = 148.51727 82.80827 107.32072
#
# Poissons Ratio (x) = 0.16314 0.34261
# Poissons Ratio (y) = 0.29258 0.25224
# Poissons Ratio (z) = 0.47412 0.19462
#
# Static dielectric constant tensor:
#      x y z
#    x 1.548380 0.000000 0.000000 
#    y 0.000000 1.634390 0.000000 
#    z 0.000000 0.000000 1.628340 
# 
# From -- ./inp_files/71376.got.cif
#   From: 2010.05.17/outbox.cif.g08.bks.cpg/sg63_36_cif.got.tgz:71376.got - 2010.06.03 15:47:04.
