data_PCOD9475150
_publ_section_title
;
Structure prediction by ZEFSAII (Michael W. Deem and Ramdas Pophale) SiO2 
 PCOD9475150
Probable space group: C M C M
;
_chemical_formula_sum "Si O2"
_cell_formula_units_Z 100
_cell_length_a 28.264953
_cell_length_b 5.194868
_cell_length_c 28.389639
_cell_angle_alpha 90.000000
_cell_angle_beta 90.000000
_cell_angle_gamma 90.000000
_cell_volume 4168.527342
_symmetry_space_group_name_H-M "C M C M"
_symmetry_group_IT_number 63
_symmetry_cell_setting 'orthorhombic'
loop_
_space_group_symop_operation_xyz
x,y,z
-x,-y,1/2+z
x,-y,-z
-x,y,1/2-z
-x,-y,-z
x,y,1/2-z
-x,y,z
x,-y,1/2+z
1/2+x,1/2+y,z
1/2-x,1/2-y,1/2+z
1/2+x,1/2-y,-z
1/2-x,1/2+y,1/2-z
1/2-x,1/2-y,-z
1/2+x,1/2+y,1/2-z
1/2-x,1/2+y,z
1/2+x,1/2-y,1/2+z
loop_
_atom_site_type_symbol
_atom_site_label
_atom_site_fract_x
_atom_site_fract_y
_atom_site_fract_z
Si Si1 0.642257 0.784769 0.873235
Si Si2 0.186147 0.361296 0.453515
Si Si3 0.947371 0.011507 0.119763
Si Si4 0.411963 0.876643 0.301657
Si Si5 0.000000 0.585809 0.250000
Si Si6 0.222466 0.086263 0.369361
Si Si7 0.077486 0.249141 0.471603
O O1 0.592854 0.689695 0.894411
O O2 0.627253 0.973179 0.831322
O O3 0.671676 0.534301 0.856876
O O4 0.672368 0.928639 0.913266
O O5 0.205350 0.500000 0.500000
O O6 0.216625 0.146927 0.425775
O O7 0.134853 0.246568 0.467351
O O8 0.932351 0.137528 0.169149
O O9 0.943005 0.233238 0.080601
O O10 0.000000 0.909755 0.120748
O O11 0.394572 0.793341 0.250000
O O12 0.457578 0.056287 0.290123
O O13 0.242035 0.360793 0.352981
O O14 0.063806 0.500000 0.500000
O O15 0.061530 0.000000 0.500000
#
# Coordination Sequence:
#
# PCOD9475150 Si02
#       7
#    16  16  16  16   4  16  16
#     4  12  24  46  69 107 143 198 239 309 380 443
#     4  11  24  43  70 100 149 200 253 307 375 443
#     4  12  24  39  69 102 145 198 248 305 369 443
#     4  10  22  44  68 103 149 183 242 299 378 441
#     4   8  20  44  70 108 144 188 244 310 368 470
#     4  12  26  46  73 108 145 191 250 309 371 444
#     4  11  24  42  65  97 141 200 252 303 353 433
#
# _framework density 23.989287000000001
#
# number of rings (size 3 to 8) (size 9 to 14) (size 15 to 20)
#    0.480    0.320    5.600    1.920    1.120    1.920 
#    0.000    0.800    0.000    1.440    0.000    0.000 
#    0.000    0.000    0.000    0.000    0.000    0.000 
#
# Total GULP energy -279060.608283 kJ/mol
# GULP energy per Si atom -5581.212166 kJ/mol
# Density = 2.393469 g / cm^3
# Si number density = 23.989287 Si / 1000 Ang^3
#
#
#
# Elastic Constant Matrix: (Units=GPa)
#
#
# Indices 1 2 3 4 5 6 
#
# 1 100.6901 36.4438 2.6919 0.0000 0.0000 0.0000
# 2 36.4438 132.6901 30.5062 0.0000 0.0000 0.0000
# 3 2.6919 30.5062 96.1953 0.0000 0.0000 0.0000
# 4 0.0000 0.0000 0.0000 12.9619 0.0000 0.0000
# 5 0.0000 0.0000 0.0000 0.0000 18.3873 0.0000
# 6 0.0000 0.0000 0.0000 0.0000 0.0000 5.4466
#
#
#
# Elastic Compliance Matrix: (Units=1/GPa)
#
#
# Indices 1 2 3 4 5 6 
#
# 1 0.011072 -0.003203 0.000706 0.000000 0.000000 0.000000
# 2 -0.003203 0.009056 -0.002782 0.000000 0.000000 0.000000
# 3 0.000706 -0.002782 0.011258 0.000000 0.000000 0.000000
# 4 0.000000 0.000000 0.000000 0.077149 0.000000 0.000000
# 5 0.000000 0.000000 0.000000 0.000000 0.054385 0.000000
# 6 0.000000 0.000000 0.000000 0.000000 0.000000 0.183601
#
#
# Mechanical properties :
#
#
# Convention : Reuss Voigt Hill
#
# Bulk Modulus (GPa) = 48.01477 52.09546 50.05512
# Shear Modulus (GPa) = 13.73540 24.68806 19.21173
#
# Velocity S-wave (km/s) = 2.39543 3.21148 2.83299
# Velocity P-wave (km/s) = 5.26396 5.95943 5.62246
#
# Compressibility (1/GPa) = 0.02082692
#
# Stress axis : x y z
#
# Youngs Moduli (GPa) = 90.31807 110.42654 88.82516
#
# Poissons Ratio (x) = 0.35373 -0.06271
# Poissons Ratio (y) = 0.28931 0.24713
# Poissons Ratio (z) = -0.06377 0.30723
#
# Static dielectric constant tensor:
#      x y z
#    x 1.939130 0.000000 0.000000 
#    y 0.000000 1.981990 0.000000 
#    z 0.000000 0.000000 2.095820 
# 
# From -- ./inp_files/74484.got.cif
#   From: 2010.05.17/outbox.cif.g08.bks.cpg/sg63_38_cif.got.tgz:74484.got - 2010.06.03 15:47:04.
