data_PCOD9475714
_publ_section_title
;
Structure prediction by ZEFSAII (Michael W. Deem and Ramdas Pophale) SiO2 
 PCOD9475714
Probable space group: C M C M
;
_chemical_formula_sum "Si O2"
_cell_formula_units_Z 80
_cell_length_a 9.936930
_cell_length_b 25.423105
_cell_length_c 14.929533
_cell_angle_alpha 90.000000
_cell_angle_beta 90.000000
_cell_angle_gamma 90.000000
_cell_volume 3771.612311
_symmetry_space_group_name_H-M "C M C M"
_symmetry_group_IT_number 63
_symmetry_cell_setting 'orthorhombic'
loop_
_space_group_symop_operation_xyz
x,y,z
-x,-y,1/2+z
x,-y,-z
-x,y,1/2-z
-x,-y,-z
x,y,1/2-z
-x,y,z
x,-y,1/2+z
1/2+x,1/2+y,z
1/2-x,1/2-y,1/2+z
1/2+x,1/2-y,-z
1/2-x,1/2+y,1/2-z
1/2-x,1/2-y,-z
1/2+x,1/2+y,1/2-z
1/2-x,1/2+y,z
1/2+x,1/2-y,1/2+z
loop_
_atom_site_type_symbol
_atom_site_label
_atom_site_fract_x
_atom_site_fract_y
_atom_site_fract_z
Si Si1 0.644438 0.666308 0.146988
Si Si2 0.151684 0.011483 0.859164
Si Si3 0.653958 0.368091 0.141724
Si Si4 0.652215 0.918771 0.859934
Si Si5 0.156850 0.723142 0.925428
O O1 0.636603 0.649218 0.250000
O O2 0.500000 0.653366 0.103374
O O3 0.768479 0.633489 0.109209
O O4 0.657634 0.728933 0.145624
O O5 0.152947 0.011486 0.750000
O O6 0.176808 0.071555 0.887352
O O7 0.000000 0.996169 0.886210
O O8 0.260780 0.969111 0.888233
O O9 0.658514 0.367451 0.250000
O O10 0.500000 0.352801 0.116562
O O11 0.765970 0.328390 0.106801
O O12 0.646053 0.919080 0.750000
O O13 0.500000 0.919919 0.892684
O O14 0.000000 0.713966 0.949802
O O15 0.250000 0.750000 0.000000
#
# Coordination Sequence:
#
# PCOD9475714 Si02
#       5
#    16  16  16  16  16
#     4   9  18  33  52  73  98 130 167 204 245 298
#     4   8  14  26  45  70 101 134 163 194 239 295
#     4   9  18  33  54  79 105 134 169 208 250 298
#     4   9  16  25  42  72 104 130 159 199 245 289
#     4  11  23  37  53  73 100 135 173 213 258 305
#
# _framework density 21.211088
#
# number of rings (size 3 to 8) (size 9 to 14) (size 15 to 20)
#    0.000    2.800    0.000    3.000    0.000    6.000 
#    0.000    4.000    0.000    1.200    0.000    8.400 
#    0.000    0.000    0.000    0.000    0.000    0.000 
#
# Total GULP energy -223140.543073 kJ/mol
# GULP energy per Si atom -5578.513577 kJ/mol
# Density = 2.116281 g / cm^3
# Si number density = 21.211088 Si / 1000 Ang^3
#
#
#
# Elastic Constant Matrix: (Units=GPa)
#
#
# Indices 1 2 3 4 5 6 
#
# 1 199.1271 97.3856 15.3293 0.0000 0.0000 0.0000
# 2 97.3856 100.5056 -1.9124 0.0000 0.0000 0.0000
# 3 15.3293 -1.9124 38.4016 0.0000 0.0000 0.0000
# 4 0.0000 0.0000 0.0000 6.7376 0.0000 0.0000
# 5 0.0000 0.0000 0.0000 0.0000 8.6264 0.0000
# 6 0.0000 0.0000 0.0000 0.0000 0.0000 38.4473
#
#
#
# Elastic Compliance Matrix: (Units=1/GPa)
#
#
# Indices 1 2 3 4 5 6 
#
# 1 0.010302 -0.010070 -0.004614 0.000000 0.000000 0.000000
# 2 -0.010070 0.019802 0.005006 0.000000 0.000000 0.000000
# 3 -0.004614 0.005006 0.028132 0.000000 0.000000 0.000000
# 4 0.000000 0.000000 0.000000 0.148420 0.000000 0.000000
# 5 0.000000 0.000000 0.000000 0.000000 0.115923 0.000000
# 6 0.000000 0.000000 0.000000 0.000000 0.000000 0.026010
#
#
# Mechanical properties :
#
#
# Convention : Reuss Voigt Hill
#
# Bulk Modulus (GPa) = 25.72010 62.18215 43.95112
# Shear Modulus (GPa) = 13.12665 25.91106 19.51886
#
# Velocity S-wave (km/s) = 2.49038 3.49890 3.03680
# Velocity P-wave (km/s) = 4.51901 6.76037 5.74996
#
# Compressibility (1/GPa) = 0.03888010
#
# Stress axis : x y z
#
# Youngs Moduli (GPa) = 97.06929 50.49929 35.54718
#
# Poissons Ratio (x) = 0.50852 0.16401
# Poissons Ratio (y) = 0.97748 -0.17795
# Poissons Ratio (z) = 0.44786 -0.25279
#
# Static dielectric constant tensor:
#      x y z
#    x 1.758260 0.000000 0.000000 
#    y 0.000000 1.758570 0.000000 
#    z 0.000000 0.000000 2.202110 
# 
# From -- ./inp_files/40452.got.cif
#   From: 2010.05.17/outbox.cif.g08.bks.cpg/sg63_21_cif.got.tgz:40452.got - 2010.06.03 15:47:04.
