data_PCOD9475563
_publ_section_title
;
Structure prediction by ZEFSAII (Michael W. Deem and Ramdas Pophale) SiO2 
 PCOD9475563
Probable space group: C M C M
;
_chemical_formula_sum "Si O2"
_cell_formula_units_Z 112
_cell_length_a 15.797221
_cell_length_b 18.104101
_cell_length_c 15.715743
_cell_angle_alpha 90.000000
_cell_angle_beta 90.000000
_cell_angle_gamma 90.000000
_cell_volume 4494.615818
_symmetry_space_group_name_H-M "C M C M"
_symmetry_group_IT_number 63
_symmetry_cell_setting 'orthorhombic'
loop_
_space_group_symop_operation_xyz
x,y,z
-x,-y,1/2+z
x,-y,-z
-x,y,1/2-z
-x,-y,-z
x,y,1/2-z
-x,y,z
x,-y,1/2+z
1/2+x,1/2+y,z
1/2-x,1/2-y,1/2+z
1/2+x,1/2-y,-z
1/2-x,1/2+y,1/2-z
1/2-x,1/2-y,-z
1/2+x,1/2+y,1/2-z
1/2-x,1/2+y,z
1/2+x,1/2-y,1/2+z
loop_
_atom_site_type_symbol
_atom_site_label
_atom_site_fract_x
_atom_site_fract_y
_atom_site_fract_z
Si Si1 0.904019 0.638240 0.875235
Si Si2 0.712669 0.999013 0.155444
Si Si3 0.591636 0.104949 0.070828
Si Si4 0.169628 0.264846 0.843587
Si Si5 0.406800 0.341493 0.029166
Si Si6 0.907756 0.019974 0.651690
Si Si7 0.637533 0.692367 0.342019
O O1 0.827804 0.583669 0.847705
O O2 0.892363 0.722107 0.844978
O O3 0.000000 0.613271 0.851050
O O4 0.901004 0.638793 0.977389
O O5 0.691731 0.027413 0.250000
O O6 0.812711 0.010663 0.143778
O O7 0.662909 0.045220 0.086313
O O8 0.500000 0.069056 0.079721
O O9 0.603852 0.170376 0.137687
O O10 0.156843 0.231004 0.750000
O O11 0.161044 0.207294 0.920264
O O12 0.261326 0.302080 0.845126
O O13 0.500000 0.306834 0.041816
O O14 0.408282 0.418418 0.078366
O O15 0.391981 0.345239 0.928796
O O16 0.908020 0.049142 0.750000
O O17 0.000000 0.980744 0.643180
O O18 0.611709 0.659710 0.250000
#
# Coordination Sequence:
#
# PCOD9475563 Si02
#       7
#    16  16  16  16  16  16  16
#     4  11  23  40  61  90 127 171 218 262 315 378
#     4  11  23  39  63  93 125 169 218 267 323 376
#     4  11  24  41  62  93 131 171 212 260 319 383
#     4  11  23  38  60  93 130 168 212 261 321 385
#     4  11  21  36  61  92 126 163 204 261 328 381
#     4   9  20  39  65  98 129 162 215 274 326 383
#     4  11  24  40  61  91 128 171 218 263 317 385
#
# _framework density 24.918704000000002
#
# number of rings (size 3 to 8) (size 9 to 14) (size 15 to 20)
#    0.000    1.286    1.429    4.286    2.000    8.571 
#    0.000    0.000    0.000    3.429    0.000    4.000 
#    0.000    0.000    0.000    0.000    0.000    0.000 
#
# Total GULP energy -313350.102520 kJ/mol
# GULP energy per Si atom -5595.537545 kJ/mol
# Density = 2.486199 g / cm^3
# Si number density = 24.918704 Si / 1000 Ang^3
#
#
#
# Elastic Constant Matrix: (Units=GPa)
#
#
# Indices 1 2 3 4 5 6 
#
# 1 149.3825 26.8687 57.1646 0.0000 0.0000 0.0000
# 2 26.8687 50.6471 41.3421 0.0000 0.0000 0.0000
# 3 57.1646 41.3421 175.0378 0.0000 0.0000 0.0000
# 4 0.0000 0.0000 0.0000 26.3774 0.0000 0.0000
# 5 0.0000 0.0000 0.0000 0.0000 36.5664 0.0000
# 6 0.0000 0.0000 0.0000 0.0000 0.0000 18.1120
#
#
#
# Elastic Compliance Matrix: (Units=1/GPa)
#
#
# Indices 1 2 3 4 5 6 
#
# 1 0.007915 -0.002588 -0.001974 0.000000 0.000000 0.000000
# 2 -0.002588 0.025306 -0.005132 0.000000 0.000000 0.000000
# 3 -0.001974 -0.005132 0.007570 0.000000 0.000000 0.000000
# 4 0.000000 0.000000 0.000000 0.037911 0.000000 0.000000
# 5 0.000000 0.000000 0.000000 0.000000 0.027347 0.000000
# 6 0.000000 0.000000 0.000000 0.000000 0.000000 0.055212
#
#
# Mechanical properties :
#
#
# Convention : Reuss Voigt Hill
#
# Bulk Modulus (GPa) = 46.71995 69.53535 58.12765
# Shear Modulus (GPa) = 26.62637 32.85729 29.74183
#
# Velocity S-wave (km/s) = 3.27238 3.63516 3.45853
# Velocity P-wave (km/s) = 5.75045 6.75164 6.27106
#
# Compressibility (1/GPa) = 0.02140413
#
# Stress axis : x y z
#
# Youngs Moduli (GPa) = 126.34297 39.51559 132.10501
#
# Poissons Ratio (x) = 0.10226 0.26073
# Poissons Ratio (y) = 0.32696 0.67796
# Poissons Ratio (z) = 0.24936 0.20279
#
# Static dielectric constant tensor:
#      x y z
#    x 1.939670 0.000000 0.000000 
#    y 0.000000 2.001860 0.000000 
#    z 0.000000 0.000000 1.926790 
# 
# From -- ./inp_files/32328.got.cif
#   From: 2010.05.17/outbox.cif.g08.bks.cpg/sg63_17_cif.got.tgz:32328.got - 2010.06.03 15:47:04.
