data_PCOD9475702
_publ_section_title
;
Structure prediction by ZEFSAII (Michael W. Deem and Ramdas Pophale) SiO2 
 PCOD9475702
Probable space group: C M C M
;
_chemical_formula_sum "Si O2"
_cell_formula_units_Z 60
_cell_length_a 13.796075
_cell_length_b 13.476137
_cell_length_c 16.912457
_cell_angle_alpha 90.000000
_cell_angle_beta 90.000000
_cell_angle_gamma 90.000000
_cell_volume 3144.326743
_symmetry_space_group_name_H-M "C M C M"
_symmetry_group_IT_number 63
_symmetry_cell_setting 'orthorhombic'
loop_
_space_group_symop_operation_xyz
x,y,z
-x,-y,1/2+z
x,-y,-z
-x,y,1/2-z
-x,-y,-z
x,y,1/2-z
-x,y,z
x,-y,1/2+z
1/2+x,1/2+y,z
1/2-x,1/2-y,1/2+z
1/2+x,1/2-y,-z
1/2-x,1/2+y,1/2-z
1/2-x,1/2-y,-z
1/2+x,1/2+y,1/2-z
1/2-x,1/2+y,z
1/2+x,1/2-y,1/2+z
loop_
_atom_site_type_symbol
_atom_site_label
_atom_site_fract_x
_atom_site_fract_y
_atom_site_fract_z
Si Si1 0.000000 0.915651 0.250000
Si Si2 0.805897 0.607052 0.623012
Si Si3 0.814108 0.776596 0.250000
Si Si4 0.500000 0.796039 0.154999
Si Si5 0.618779 0.950722 0.750000
Si Si6 0.670728 0.500000 0.000000
Si Si7 0.500000 0.572412 0.390807
O O1 0.091777 0.844977 0.250000
O O2 0.000000 0.985369 0.326457
O O3 0.747324 0.687031 0.674976
O O4 0.907767 0.660293 0.609671
O O5 0.836461 0.511153 0.675828
O O6 0.740063 0.570771 0.551320
O O7 0.842887 0.661808 0.250000
O O8 0.500000 0.823997 0.250000
O O9 0.500000 0.678184 0.150651
O O10 0.500000 0.951475 0.750000
O O11 0.596717 0.440555 0.943250
#
# Coordination Sequence:
#
# PCOD9475702 Si02
#       7
#     4  16   8   8   8   8   8
#     4  12  20  42  70 100 120 166 226 274 306 374
#     4  11  24  43  64  96 133 168 217 268 317 398
#     4  11  23  37  71  98 126 169 224 267 324 374
#     4  12  23  43  71  98 123 170 228 264 314 381
#     4  11  22  44  67  96 129 167 218 277 313 373
#     4  11  26  45  60  96 140 169 208 269 336 382
#     4  11  26  43  68  94 132 169 215 277 313 386
#
# _framework density 19.081986000000001
#
# number of rings (size 3 to 8) (size 9 to 14) (size 15 to 20)
#    0.000    0.800    8.000    0.000    3.733    1.600 
#    0.000    0.000    0.000    0.000    0.000    0.000 
#    0.000    0.000    0.000    0.000    0.000    0.000 
#
# Total GULP energy -167546.518708 kJ/mol
# GULP energy per Si atom -5584.883957 kJ/mol
# Density = 1.903855 g / cm^3
# Si number density = 19.081986 Si / 1000 Ang^3
#
#
#
# Elastic Constant Matrix: (Units=GPa)
#
#
# Indices 1 2 3 4 5 6 
#
# 1 160.3999 52.5040 35.8828 0.0000 0.0000 0.0000
# 2 52.5040 156.3145 24.1860 0.0000 0.0000 0.0000
# 3 35.8828 24.1860 57.9371 0.0000 0.0000 0.0000
# 4 0.0000 0.0000 0.0000 -201.7096 0.0000 0.0000
# 5 0.0000 0.0000 0.0000 0.0000 101.4569 0.0000
# 6 0.0000 0.0000 0.0000 0.0000 0.0000 34.4097
#
#
#
# Elastic Compliance Matrix: (Units=1/GPa)
#
#
# Indices 1 2 3 4 5 6 
#
# 1 0.007779 -0.001996 -0.003985 0.000000 0.000000 0.000000
# 2 -0.001996 0.007351 -0.001832 0.000000 0.000000 0.000000
# 3 -0.003985 -0.001832 0.020493 0.000000 0.000000 0.000000
# 4 0.000000 0.000000 0.000000 -0.004958 0.000000 0.000000
# 5 0.000000 0.000000 0.000000 0.000000 0.009856 0.000000
# 6 0.000000 0.000000 0.000000 0.000000 0.000000 0.029062
#
#
# Mechanical properties :
#
#
# Convention : Reuss Voigt Hill
#
# Bulk Modulus (GPa) = 50.00825 66.64411 58.32618
# Shear Modulus (GPa) = 54.42087 4.30331 29.36209
#
# Velocity S-wave (km/s) = 5.34616 1.50335 3.92692
# Velocity P-wave (km/s) = 8.02325 6.16558 7.15496
#
# Compressibility (1/GPa) = 0.01999670
#
# Stress axis : x y z
#
# Youngs Moduli (GPa) = 128.54605 136.02739 48.79746
#
# Poissons Ratio (x) = 0.27157 0.19444
# Poissons Ratio (y) = 0.25663 0.08942
# Poissons Ratio (z) = 0.51221 0.24926
#
# Static dielectric constant tensor:
#      x y z
#    x 1.430430 0.000000 0.000000 
#    y 0.000000 1.623550 0.000000 
#    z 0.000000 0.000000 1.625170 
# 
# From -- ./inp_files/41477.got.cif
#   From: 2010.05.17/outbox.cif.g08.bks.cpg/sg63_21_cif.got.tgz:41477.got - 2010.06.03 15:47:04.
