data_PCOD9475330
_publ_section_title
;
Structure prediction by ZEFSAII (Michael W. Deem and Ramdas Pophale) SiO2 
 PCOD9475330
Probable space group: C M C M
;
_chemical_formula_sum "Si O2"
_cell_formula_units_Z 68
_cell_length_a 15.572732
_cell_length_b 9.232481
_cell_length_c 18.748636
_cell_angle_alpha 90.000000
_cell_angle_beta 90.000000
_cell_angle_gamma 90.000000
_cell_volume 2695.584247
_symmetry_space_group_name_H-M "C M C M"
_symmetry_group_IT_number 63
_symmetry_cell_setting 'orthorhombic'
loop_
_space_group_symop_operation_xyz
x,y,z
-x,-y,1/2+z
x,-y,-z
-x,y,1/2-z
-x,-y,-z
x,y,1/2-z
-x,y,z
x,-y,1/2+z
1/2+x,1/2+y,z
1/2-x,1/2-y,1/2+z
1/2+x,1/2-y,-z
1/2-x,1/2+y,1/2-z
1/2-x,1/2-y,-z
1/2+x,1/2+y,1/2-z
1/2-x,1/2+y,z
1/2+x,1/2-y,1/2+z
loop_
_atom_site_type_symbol
_atom_site_label
_atom_site_fract_x
_atom_site_fract_y
_atom_site_fract_z
Si Si1 0.149827 0.052127 0.135324
Si Si2 0.172831 0.287697 0.624411
Si Si3 0.900958 0.560079 0.827080
Si Si4 0.000000 0.109494 0.250000
Si Si5 0.398475 0.773379 0.030597
O O1 0.239035 0.135917 0.147583
O O2 0.075611 0.097831 0.188795
O O3 0.117875 0.111910 0.059015
O O4 0.165030 0.881135 0.140506
O O5 0.103218 0.387846 0.663416
O O6 0.155534 0.304068 0.539808
O O7 0.860825 0.598162 0.750000
O O8 0.869776 0.627996 0.901651
O O9 0.000000 0.607520 0.822279
O O10 0.500000 0.798685 0.016683
#
# Coordination Sequence:
#
# PCOD9475330 Si02
#       5
#    16  16  16   4  16
#     4  12  29  50  82 116 163 211 266 329 404 477
#     4  12  27  48  80 115 161 208 275 336 397 476
#     4  10  24  43  74 115 164 215 270 331 407 479
#     4  12  32  52  82 118 166 212 262 330 408 488
#     4  11  24  47  79 118 165 215 270 334 405 473
#
# _framework density 25.226441999999999
#
# number of rings (size 3 to 8) (size 9 to 14) (size 15 to 20)
#    0.000    0.706    1.176    4.235    8.235    4.706 
#    0.000    0.000    0.000    1.412    0.000    0.000 
#    0.000    0.000    0.000    0.000    0.000    0.000 
#
# Total GULP energy -189949.472213 kJ/mol
# GULP energy per Si atom -5586.749183 kJ/mol
# Density = 2.516903 g / cm^3
# Si number density = 25.226442 Si / 1000 Ang^3
#
#
#
# Elastic Constant Matrix: (Units=GPa)
#
#
# Indices 1 2 3 4 5 6 
#
# 1 136.5762 48.5527 51.5481 0.0000 0.0000 0.0000
# 2 48.5527 207.3752 53.5846 0.0000 0.0000 0.0000
# 3 51.5481 53.5846 159.4829 0.0000 0.0000 0.0000
# 4 0.0000 0.0000 0.0000 -34.9762 0.0000 0.0000
# 5 0.0000 0.0000 0.0000 0.0000 -46.7075 0.0000
# 6 0.0000 0.0000 0.0000 0.0000 0.0000 27.1642
#
#
#
# Elastic Compliance Matrix: (Units=1/GPa)
#
#
# Indices 1 2 3 4 5 6 
#
# 1 0.008714 -0.001437 -0.002334 0.000000 0.000000 0.000000
# 2 -0.001437 0.005518 -0.001389 0.000000 0.000000 0.000000
# 3 -0.002334 -0.001389 0.007491 0.000000 0.000000 0.000000
# 4 0.000000 0.000000 0.000000 -0.028591 0.000000 0.000000
# 5 0.000000 0.000000 0.000000 0.000000 -0.021410 0.000000
# 6 0.000000 0.000000 0.000000 0.000000 0.000000 0.036813
#
#
# Mechanical properties :
#
#
# Convention : Reuss Voigt Hill
#
# Bulk Modulus (GPa) = 87.70025 90.08945 88.89485
# Shear Modulus (GPa) = 220.69258 12.41268 116.55263
#
# Velocity S-wave (km/s) = 9.36347 2.22063 6.80462
# Velocity P-wave (km/s) = 12.31828 6.50882 9.85152
#
# Compressibility (1/GPa) = 0.01140248
#
# Stress axis : x y z
#
# Youngs Moduli (GPa) = 114.76348 181.23632 133.48771
#
# Poissons Ratio (x) = 0.26046 0.31150
# Poissons Ratio (y) = 0.16493 0.18546
# Poissons Ratio (z) = 0.26781 0.25180
#
# Static dielectric constant tensor:
#      x y z
#    x 2.001340 0.000000 0.000000 
#    y 0.000000 2.074610 0.000000 
#    z 0.000000 0.000000 1.901790 
# 
# From -- ./inp_files/55109.got.cif
#   From: 2010.05.17/outbox.cif.g08.bks.cpg/sg63_28_cif.got.tgz:55109.got - 2010.06.03 15:47:04.
