data_PCOD9475661
_publ_section_title
;
Structure prediction by ZEFSAII (Michael W. Deem and Ramdas Pophale) SiO2 
 PCOD9475661
Probable space group: C M C M
;
_chemical_formula_sum "Si O2"
_cell_formula_units_Z 64
_cell_length_a 14.707035
_cell_length_b 5.577696
_cell_length_c 30.863817
_cell_angle_alpha 90.000000
_cell_angle_beta 90.000000
_cell_angle_gamma 90.000000
_cell_volume 2531.801201
_symmetry_space_group_name_H-M "C M C M"
_symmetry_group_IT_number 63
_symmetry_cell_setting 'orthorhombic'
loop_
_space_group_symop_operation_xyz
x,y,z
-x,-y,1/2+z
x,-y,-z
-x,y,1/2-z
-x,-y,-z
x,y,1/2-z
-x,y,z
x,-y,1/2+z
1/2+x,1/2+y,z
1/2-x,1/2-y,1/2+z
1/2+x,1/2-y,-z
1/2-x,1/2+y,1/2-z
1/2-x,1/2-y,-z
1/2+x,1/2+y,1/2-z
1/2-x,1/2+y,z
1/2+x,1/2-y,1/2+z
loop_
_atom_site_type_symbol
_atom_site_label
_atom_site_fract_x
_atom_site_fract_y
_atom_site_fract_z
Si Si1 0.000000 0.647678 0.120861
Si Si2 0.000000 0.999336 0.798289
Si Si3 0.202305 0.391925 0.750000
Si Si4 0.500000 0.465964 0.550896
Si Si5 0.354097 0.855824 0.333536
Si Si6 0.201022 0.182988 0.419019
O O1 0.913609 0.487221 0.130265
O O2 0.000000 0.780758 0.075933
O O3 0.000000 0.837239 0.159790
O O4 0.086934 0.829595 0.805003
O O5 0.000000 0.109200 0.750000
O O6 0.271461 0.616777 0.750000
O O7 0.161755 0.442746 0.797136
O O8 0.500000 0.500000 0.500000
O O9 0.596189 0.346887 0.565256
O O10 0.292295 0.695045 0.365677
O O11 0.248200 0.434559 0.433126
#
# Coordination Sequence:
#
# PCOD9475661 Si02
#       6
#     8   8   8   8  16  16
#     4  11  24  45  76 103 154 205 264 336 413 479
#     4  11  22  38  72 107 150 213 271 326 402 478
#     4  12  28  41  64 103 154 214 268 330 396 467
#     4  12  28  55  87 122 161 213 278 351 425 514
#     4  11  24  43  68 108 154 211 269 332 401 485
#     4  12  27  51  83 118 162 211 265 337 414 491
#
# _framework density 25.278442999999999
#
# number of rings (size 3 to 8) (size 9 to 14) (size 15 to 20)
#    0.000    0.500    3.750    3.750    5.250    2.000 
#    0.000    8.750    0.000    0.000    0.000    0.000 
#    0.000    0.000    0.000    0.000    0.000    0.000 
#
# Total GULP energy -178742.528825 kJ/mol
# GULP energy per Si atom -5585.704026 kJ/mol
# Density = 2.522091 g / cm^3
# Si number density = 25.278443 Si / 1000 Ang^3
#
#
#
# Elastic Constant Matrix: (Units=GPa)
#
#
# Indices 1 2 3 4 5 6 
#
# 1 121.9857 68.1348 49.1801 0.0000 0.0000 0.0000
# 2 68.1348 118.3847 38.4142 0.0000 0.0000 0.0000
# 3 49.1801 38.4142 179.0510 0.0000 0.0000 0.0000
# 4 0.0000 0.0000 0.0000 7.1785 0.0000 0.0000
# 5 0.0000 0.0000 0.0000 0.0000 33.1338 0.0000
# 6 0.0000 0.0000 0.0000 0.0000 0.0000 48.6084
#
#
#
# Elastic Compliance Matrix: (Units=1/GPa)
#
#
# Indices 1 2 3 4 5 6 
#
# 1 0.012760 -0.006671 -0.002074 0.000000 0.000000 0.000000
# 2 -0.006671 0.012567 -0.000864 0.000000 0.000000 0.000000
# 3 -0.002074 -0.000864 0.006340 0.000000 0.000000 0.000000
# 4 0.000000 0.000000 0.000000 0.139306 0.000000 0.000000
# 5 0.000000 0.000000 0.000000 0.000000 0.030181 0.000000
# 6 0.000000 0.000000 0.000000 0.000000 0.000000 0.020573
#
#
# Mechanical properties :
#
#
# Convention : Reuss Voigt Hill
#
# Bulk Modulus (GPa) = 80.32235 81.20885 80.76560
# Shear Modulus (GPa) = 20.40057 35.36363 27.88210
#
# Velocity S-wave (km/s) = 2.84392 3.74433 3.32475
# Velocity P-wave (km/s) = 6.52900 7.13364 6.83801
#
# Compressibility (1/GPa) = 0.01244984
#
# Stress axis : x y z
#
# Youngs Moduli (GPa) = 78.37233 79.57586 157.73219
#
# Poissons Ratio (x) = 0.53083 0.32706
# Poissons Ratio (y) = 0.52281 0.13625
# Poissons Ratio (z) = 0.16251 0.06874
#
# Static dielectric constant tensor:
#      x y z
#    x 1.784270 0.000000 0.000000 
#    y 0.000000 2.046220 0.000000 
#    z 0.000000 0.000000 2.097210 
# 
# From -- ./inp_files/73693.got.cif
#   From: 2010.05.17/outbox.cif.g08.bks.cpg/sg63_37_cif.got.tgz:73693.got - 2010.06.03 15:47:04.
