data_PCOD9475717
_publ_section_title
;
Structure prediction by ZEFSAII (Michael W. Deem and Ramdas Pophale) SiO2 
 PCOD9475717
Probable space group: C M C M
;
_chemical_formula_sum "Si O2"
_cell_formula_units_Z 48
_cell_length_a 9.233330
_cell_length_b 18.651645
_cell_length_c 15.085631
_cell_angle_alpha 90.000000
_cell_angle_beta 90.000000
_cell_angle_gamma 90.000000
_cell_volume 2597.998996
_symmetry_space_group_name_H-M "C M C M"
_symmetry_group_IT_number 63
_symmetry_cell_setting 'orthorhombic'
loop_
_space_group_symop_operation_xyz
x,y,z
-x,-y,1/2+z
x,-y,-z
-x,y,1/2-z
-x,-y,-z
x,y,1/2-z
-x,y,z
x,-y,1/2+z
1/2+x,1/2+y,z
1/2-x,1/2-y,1/2+z
1/2+x,1/2-y,-z
1/2-x,1/2+y,1/2-z
1/2-x,1/2-y,-z
1/2+x,1/2+y,1/2-z
1/2-x,1/2+y,z
1/2+x,1/2-y,1/2+z
loop_
_atom_site_type_symbol
_atom_site_label
_atom_site_fract_x
_atom_site_fract_y
_atom_site_fract_z
Si Si1 0.827228 0.458220 0.250000
Si Si2 0.166076 0.328744 0.852795
Si Si3 0.673401 0.693248 0.750000
Si Si4 0.668044 0.459558 0.906818
O O1 0.766470 0.377401 0.250000
O O2 0.762912 0.497500 0.164025
O O3 0.000000 0.460301 0.250000
O O4 0.169753 0.356418 0.750000
O O5 0.202699 0.245261 0.834876
O O6 0.270931 0.378517 0.908672
O O7 0.000000 0.334224 0.883468
O O8 0.500000 0.678437 0.750000
O O9 0.500000 0.458612 0.879133
O O10 0.678438 0.500000 0.000000
#
# Coordination Sequence:
#
# PCOD9475717 Si02
#       4
#     8  16   8  16
#     4  12  23  36  57  85 113 145 185 230 277 326
#     4   8  16  33  57  81 106 141 180 221 275 324
#     4   8  17  34  57  81 109 145 181 224 279 330
#     4  11  23  37  57  84 113 148 187 228 275 328
#
# _framework density 18.475757999999999
#
# number of rings (size 3 to 8) (size 9 to 14) (size 15 to 20)
#    1.000    1.333    1.667    2.500    0.000    4.000 
#    0.000    1.667    0.000    0.000    0.000    0.000 
#    0.000    0.000    0.000    0.000    0.000    0.000 
#
# Total GULP energy -133666.557742 kJ/mol
# GULP energy per Si atom -5569.439906 kJ/mol
# Density = 1.843371 g / cm^3
# Si number density = 18.475758 Si / 1000 Ang^3
#
#
#
# Elastic Constant Matrix: (Units=GPa)
#
#
# Indices 1 2 3 4 5 6 
#
# 1 127.5807 67.3822 33.4143 0.0000 0.0000 0.0000
# 2 67.3822 93.1147 17.8983 0.0000 0.0000 0.0000
# 3 33.4143 17.8983 31.7089 0.0000 0.0000 0.0000
# 4 0.0000 0.0000 0.0000 -3.4900 0.0000 0.0000
# 5 0.0000 0.0000 0.0000 0.0000 12.6001 0.0000
# 6 0.0000 0.0000 0.0000 0.0000 0.0000 34.8930
#
#
#
# Elastic Compliance Matrix: (Units=1/GPa)
#
#
# Indices 1 2 3 4 5 6 
#
# 1 0.015623 -0.009132 -0.011309 0.000000 0.000000 0.000000
# 2 -0.009132 0.017384 -0.000190 0.000000 0.000000 0.000000
# 3 -0.011309 -0.000190 0.043561 0.000000 0.000000 0.000000
# 4 0.000000 0.000000 0.000000 -0.286533 0.000000 0.000000
# 5 0.000000 0.000000 0.000000 0.000000 0.079364 0.000000
# 6 0.000000 0.000000 0.000000 0.000000 0.000000 0.028659
#
#
# Mechanical properties :
#
#
# Convention : Reuss Voigt Hill
#
# Bulk Modulus (GPa) = 28.32246 54.42154 41.37200
# Shear Modulus (GPa) = -102.22459 17.71459 -42.25500
#
# Velocity S-wave (km/s) = -7.44642 3.09981 -4.78750
# Velocity P-wave (km/s) = 7.65306 6.50626 2.84939
#
# Compressibility (1/GPa) = 0.03530766
#
# Stress axis : x y z
#
# Youngs Moduli (GPa) = 64.00809 57.52386 22.95633
#
# Poissons Ratio (x) = 0.52530 0.25961
# Poissons Ratio (y) = 0.58451 0.00435
# Poissons Ratio (z) = 0.72385 0.01091
#
# Static dielectric constant tensor:
#      x y z
#    x 1.609260 0.000000 0.000000 
#    y 0.000000 1.682280 0.000000 
#    z 0.000000 0.000000 1.632750 
# 
# From -- ./inp_files/27056.got.cif
#   From: 2010.05.17/outbox.cif.g08.bks.cpg/sg63_14_cif.got.tgz:27056.got - 2010.06.03 15:47:04.
