data_PCOD9475210
_publ_section_title
;
Structure prediction by ZEFSAII (Michael W. Deem and Ramdas Pophale) SiO2 
 PCOD9475210
Probable space group: C M C M
;
_chemical_formula_sum "Si O2"
_cell_formula_units_Z 88
_cell_length_a 11.820743
_cell_length_b 15.527219
_cell_length_c 24.124522
_cell_angle_alpha 90.000000
_cell_angle_beta 90.000000
_cell_angle_gamma 90.000000
_cell_volume 4427.893542
_symmetry_space_group_name_H-M "C M C M"
_symmetry_group_IT_number 63
_symmetry_cell_setting 'orthorhombic'
loop_
_space_group_symop_operation_xyz
x,y,z
-x,-y,1/2+z
x,-y,-z
-x,y,1/2-z
-x,-y,-z
x,y,1/2-z
-x,y,z
x,-y,1/2+z
1/2+x,1/2+y,z
1/2-x,1/2-y,1/2+z
1/2+x,1/2-y,-z
1/2-x,1/2+y,1/2-z
1/2-x,1/2-y,-z
1/2+x,1/2+y,1/2-z
1/2-x,1/2+y,z
1/2+x,1/2-y,1/2+z
loop_
_atom_site_type_symbol
_atom_site_label
_atom_site_fract_x
_atom_site_fract_y
_atom_site_fract_z
Si Si1 0.239556 0.518178 0.811891
Si Si2 0.769431 0.153594 0.377546
Si Si3 0.500000 0.701299 0.315345
Si Si4 0.364706 0.661897 0.615120
Si Si5 0.500000 0.095589 0.832498
Si Si6 0.000000 0.414428 0.464407
Si Si7 0.246807 0.648463 0.503268
O O1 0.284272 0.503293 0.750000
O O2 0.224462 0.427720 0.843369
O O3 0.316363 0.589757 0.842906
O O4 0.114672 0.557083 0.809743
O O5 0.889747 0.171837 0.349119
O O6 0.696491 0.243598 0.376480
O O7 0.777584 0.120547 0.441209
O O8 0.500000 0.676026 0.250000
O O9 0.500000 0.804040 0.319400
O O10 0.500000 0.671856 0.619226
O O11 0.328432 0.626364 0.554256
O O12 0.500000 0.078427 0.898489
O O13 0.000000 0.500000 0.500000
O O14 0.117859 0.371635 0.481226
O O15 0.250000 0.750000 0.500000
#
# Coordination Sequence:
#
# PCOD9475210 Si02
#       7
#    16  16   8  16   8   8  16
#     4  12  26  45  68  99 134 180 232 284 339 401
#     4  11  26  44  71 102 135 177 228 281 341 407
#     4  12  24  46  72  95 134 185 235 286 331 399
#     4  11  26  46  68  99 142 181 222 278 350 415
#     4  12  22  44  70  99 129 178 235 282 331 401
#     4  12  22  40  70 101 136 172 219 283 345 401
#     4  10  23  41  68 100 137 174 219 275 344 409
#
# _framework density 19.874009000000001
#
# number of rings (size 3 to 8) (size 9 to 14) (size 15 to 20)
#    0.000    0.727    3.636    3.545    8.909    1.091 
#    0.000    0.909    0.000    0.000    0.000    0.000 
#    0.000    0.000    0.000    0.000    0.000    0.000 
#
# Total GULP energy -245601.043513 kJ/mol
# GULP energy per Si atom -5581.841898 kJ/mol
# Density = 1.982878 g / cm^3
# Si number density = 19.874009 Si / 1000 Ang^3
#
#
#
# Elastic Constant Matrix: (Units=GPa)
#
#
# Indices 1 2 3 4 5 6 
#
# 1 157.2157 24.7151 46.4233 0.0000 0.0000 0.0000
# 2 24.7151 70.4635 34.9897 0.0000 0.0000 0.0000
# 3 46.4233 34.9897 197.8174 0.0000 0.0000 0.0000
# 4 0.0000 0.0000 0.0000 26.3093 0.0000 0.0000
# 5 0.0000 0.0000 0.0000 0.0000 25.1233 0.0000
# 6 0.0000 0.0000 0.0000 0.0000 0.0000 27.5818
#
#
#
# Elastic Compliance Matrix: (Units=1/GPa)
#
#
# Indices 1 2 3 4 5 6 
#
# 1 0.007038 -0.001807 -0.001332 0.000000 0.000000 0.000000
# 2 -0.001807 0.016022 -0.002410 0.000000 0.000000 0.000000
# 3 -0.001332 -0.002410 0.005794 0.000000 0.000000 0.000000
# 4 0.000000 0.000000 0.000000 0.038009 0.000000 0.000000
# 5 0.000000 0.000000 0.000000 0.000000 0.039804 0.000000
# 6 0.000000 0.000000 0.000000 0.000000 0.000000 0.036256
#
#
# Mechanical properties :
#
#
# Convention : Reuss Voigt Hill
#
# Bulk Modulus (GPa) = 56.31836 70.86143 63.58990
# Shear Modulus (GPa) = 31.26169 37.09412 34.17791
#
# Velocity S-wave (km/s) = 3.97040 4.32495 4.15146
# Velocity P-wave (km/s) = 7.02979 7.78928 7.41926
#
# Compressibility (1/GPa) = 0.01775620
#
# Stress axis : x y z
#
# Youngs Moduli (GPa) = 142.08347 62.41307 172.59161
#
# Poissons Ratio (x) = 0.11279 0.22990
# Poissons Ratio (y) = 0.25677 0.41593
# Poissons Ratio (z) = 0.18926 0.15041
#
# Static dielectric constant tensor:
#      x y z
#    x 1.622350 0.000000 0.000000 
#    y 0.000000 1.677840 0.000000 
#    z 0.000000 0.000000 1.753970 
# 
# From -- ./inp_files/61286.got.cif
#   From: 2010.05.17/outbox.cif.g08.bks.cpg/sg63_31_cif.got.tgz:61286.got - 2010.06.03 15:47:04.
