data_PCOD9475313
_publ_section_title
;
Structure prediction by ZEFSAII (Michael W. Deem and Ramdas Pophale) SiO2 
 PCOD9475313
Probable space group: C M C M
;
_chemical_formula_sum "Si O2"
_cell_formula_units_Z 64
_cell_length_a 28.302844
_cell_length_b 7.464859
_cell_length_c 15.712377
_cell_angle_alpha 90.000000
_cell_angle_beta 90.000000
_cell_angle_gamma 90.000000
_cell_volume 3319.659786
_symmetry_space_group_name_H-M "C M C M"
_symmetry_group_IT_number 63
_symmetry_cell_setting 'orthorhombic'
loop_
_space_group_symop_operation_xyz
x,y,z
-x,-y,1/2+z
x,-y,-z
-x,y,1/2-z
-x,-y,-z
x,y,1/2-z
-x,y,z
x,-y,1/2+z
1/2+x,1/2+y,z
1/2-x,1/2-y,1/2+z
1/2+x,1/2-y,-z
1/2-x,1/2+y,1/2-z
1/2-x,1/2-y,-z
1/2+x,1/2+y,1/2-z
1/2-x,1/2+y,z
1/2+x,1/2-y,1/2+z
loop_
_atom_site_type_symbol
_atom_site_label
_atom_site_fract_x
_atom_site_fract_y
_atom_site_fract_z
Si Si1 0.132908 0.466821 0.903791
Si Si2 0.374982 0.457875 0.404277
Si Si3 0.054554 0.249869 0.352592
Si Si4 0.300990 0.054760 0.250000
Si Si5 0.809401 0.979915 0.250000
O O1 0.120558 0.256155 0.894442
O O2 0.087447 0.590443 0.886996
O O3 0.172624 0.516005 0.834093
O O4 0.149617 0.500000 0.000000
O O5 0.359050 0.500000 0.500000
O O6 0.423167 0.565290 0.387044
O O7 0.338072 0.532227 0.334486
O O8 0.057400 0.249187 0.250000
O O9 0.000000 0.270623 0.377309
O O10 0.309784 0.265784 0.250000
O O11 0.245035 0.032314 0.250000
#
# Coordination Sequence:
#
# PCOD9475313 Si02
#       5
#    16  16  16   8   8
#     4  11  23  42  64  93 131 166 208 264 312 373
#     4  11  23  42  64  93 131 166 208 264 312 373
#     4  11  24  42  68  92 124 174 210 257 322 369
#     4  10  24  40  64  93 123 166 212 260 317 374
#     4  10  24  40  64  93 123 166 212 260 317 374
#
# _framework density 19.279084999999998
#
# number of rings (size 3 to 8) (size 9 to 14) (size 15 to 20)
#    0.000    1.250    5.000    0.000    3.500    3.000 
#    0.000    7.500    0.000    0.000    0.000    0.000 
#    0.000    0.000    0.000    0.000    0.000    0.000 
#
# Total GULP energy -178738.163344 kJ/mol
# GULP energy per Si atom -5585.567604 kJ/mol
# Density = 1.923520 g / cm^3
# Si number density = 19.279085 Si / 1000 Ang^3
#
#
#
# Elastic Constant Matrix: (Units=GPa)
#
#
# Indices 1 2 3 4 5 6 
#
# 1 94.5037 -15.7813 47.3387 0.0000 0.0000 0.0000
# 2 -15.7813 58.0571 -8.6560 0.0000 0.0000 0.0000
# 3 47.3387 -8.6560 147.8490 0.0000 0.0000 0.0000
# 4 0.0000 0.0000 0.0000 22.4556 0.0000 0.0000
# 5 0.0000 0.0000 0.0000 0.0000 5.0261 0.0000
# 6 0.0000 0.0000 0.0000 0.0000 0.0000 33.2873
#
#
#
# Elastic Compliance Matrix: (Units=1/GPa)
#
#
# Indices 1 2 3 4 5 6 
#
# 1 0.013088 0.002959 -0.004017 0.000000 0.000000 0.000000
# 2 0.002959 0.018045 0.000109 0.000000 0.000000 0.000000
# 3 -0.004017 0.000109 0.008056 0.000000 0.000000 0.000000
# 4 0.000000 0.000000 0.000000 0.044532 0.000000 0.000000
# 5 0.000000 0.000000 0.000000 0.000000 0.198962 0.000000
# 6 0.000000 0.000000 0.000000 0.000000 0.000000 0.030042
#
#
# Mechanical properties :
#
#
# Convention : Reuss Voigt Hill
#
# Bulk Modulus (GPa) = 26.81666 38.46808 32.64237
# Shear Modulus (GPa) = 15.28796 30.65434 22.97115
#
# Velocity S-wave (km/s) = 2.81905 3.99185 3.45557
# Velocity P-wave (km/s) = 4.95338 6.42207 5.73494
#
# Compressibility (1/GPa) = 0.03729025
#
# Stress axis : x y z
#
# Youngs Moduli (GPa) = 76.40563 55.41721 124.12596
#
# Poissons Ratio (x) = -0.16396 0.49866
# Poissons Ratio (y) = -0.22606 -0.01355
# Poissons Ratio (z) = 0.30695 -0.00605
#
# Static dielectric constant tensor:
#      x y z
#    x 1.647280 0.000000 0.000000 
#    y 0.000000 1.690350 0.000000 
#    z 0.000000 0.000000 1.695140 
# 
# From -- ./inp_files/4365.got.cif
#   From: 2010.05.17/outbox.cif.g08.bks.cpg/sg63_3_cif.got.tgz:4365.got - 2010.06.03 15:47:04.
