data_PCOD9475350
_publ_section_title
;
Structure prediction by ZEFSAII (Michael W. Deem and Ramdas Pophale) SiO2 
 PCOD9475350
Probable space group: C M C M
;
_chemical_formula_sum "Si O2"
_cell_formula_units_Z 116
_cell_length_a 23.846084
_cell_length_b 7.657356
_cell_length_c 28.713912
_cell_angle_alpha 90.000000
_cell_angle_beta 90.000000
_cell_angle_gamma 90.000000
_cell_volume 5243.101594
_symmetry_space_group_name_H-M "C M C M"
_symmetry_group_IT_number 63
_symmetry_cell_setting 'orthorhombic'
loop_
_space_group_symop_operation_xyz
x,y,z
-x,-y,1/2+z
x,-y,-z
-x,y,1/2-z
-x,-y,-z
x,y,1/2-z
-x,y,z
x,-y,1/2+z
1/2+x,1/2+y,z
1/2-x,1/2-y,1/2+z
1/2+x,1/2-y,-z
1/2-x,1/2+y,1/2-z
1/2-x,1/2-y,-z
1/2+x,1/2+y,1/2-z
1/2-x,1/2+y,z
1/2+x,1/2-y,1/2+z
loop_
_atom_site_type_symbol
_atom_site_label
_atom_site_fract_x
_atom_site_fract_y
_atom_site_fract_z
Si Si1 0.682496 0.045047 0.948887
Si Si2 0.404078 0.091268 0.670535
Si Si3 0.824469 0.725761 0.304146
Si Si4 0.250026 0.681310 0.388197
Si Si5 0.438153 0.991395 0.932074
Si Si6 0.500000 0.117878 0.750000
Si Si7 0.065260 0.079577 0.951176
Si Si8 0.362099 0.468140 0.636745
O O1 0.694082 0.881403 0.914837
O O2 0.616803 0.088075 0.951327
O O3 0.717578 0.191125 0.922916
O O4 0.703567 0.000000 0.000000
O O5 0.500000 0.057811 0.554416
O O6 0.377383 0.278324 0.657024
O O7 0.431037 0.010548 0.623483
O O8 0.450966 0.114576 0.709386
O O9 0.812711 0.751938 0.250000
O O10 0.768912 0.725618 0.335983
O O11 0.856617 0.543334 0.312254
O O12 0.863626 0.880810 0.324459
O O13 0.298187 0.535682 0.381476
O O14 0.433248 0.790413 0.948220
O O15 0.000000 0.027447 0.947008
O O16 0.098450 0.009174 0.906719
O O17 0.086676 0.000000 0.000000
#
# Coordination Sequence:
#
# PCOD9475350 Si02
#       8
#    16  16  16  16  16   4  16  16
#     4  12  26  44  71 109 146 198 249 307 382 447
#     4  12  25  48  74 111 149 186 245 316 369 447
#     4  12  27  51  75 102 144 196 248 308 383 450
#     4  12  24  48  69 106 150 187 252 315 363 446
#     4  11  23  45  73 101 152 196 238 305 382 441
#     4  12  28  48  82 112 150 190 252 328 376 436
#     4  10  24  45  73 108 148 197 251 306 371 452
#     4  12  26  46  75 108 149 195 248 311 375 446
#
# _framework density 22.124310000000001
#
# number of rings (size 3 to 8) (size 9 to 14) (size 15 to 20)
#    0.000    0.414    6.897    0.414    3.862    1.379 
#    0.000    0.690    0.000    0.000    0.000    0.000 
#    0.000    0.000    0.000    0.000    0.000    0.000 
#
# Total GULP energy -323856.141612 kJ/mol
# GULP energy per Si atom -5583.726580 kJ/mol
# Density = 2.207395 g / cm^3
# Si number density = 22.124310 Si / 1000 Ang^3
#
#
#
# Elastic Constant Matrix: (Units=GPa)
#
#
# Indices 1 2 3 4 5 6 
#
# 1 118.7710 22.4200 39.1131 0.0000 0.0000 0.0000
# 2 22.4200 80.7143 26.4555 0.0000 0.0000 0.0000
# 3 39.1131 26.4555 180.5727 0.0000 0.0000 0.0000
# 4 0.0000 0.0000 0.0000 15.7952 0.0000 0.0000
# 5 0.0000 0.0000 0.0000 0.0000 51.4598 0.0000
# 6 0.0000 0.0000 0.0000 0.0000 0.0000 22.7880
#
#
#
# Elastic Compliance Matrix: (Units=1/GPa)
#
#
# Indices 1 2 3 4 5 6 
#
# 1 0.009374 -0.002036 -0.001732 0.000000 0.000000 0.000000
# 2 -0.002036 0.013457 -0.001530 0.000000 0.000000 0.000000
# 3 -0.001732 -0.001530 0.006137 0.000000 0.000000 0.000000
# 4 0.000000 0.000000 0.000000 0.063310 0.000000 0.000000
# 5 0.000000 0.000000 0.000000 0.000000 0.019433 0.000000
# 6 0.000000 0.000000 0.000000 0.000000 0.000000 0.043883
#
#
# Mechanical properties :
#
#
# Convention : Reuss Voigt Hill
#
# Bulk Modulus (GPa) = 54.43469 61.78171 58.10820
# Shear Modulus (GPa) = 29.01657 37.47990 33.24823
#
# Velocity S-wave (km/s) = 3.62543 4.12036 3.88079
# Velocity P-wave (km/s) = 6.49480 7.11491 6.81191
#
# Compressibility (1/GPa) = 0.01837064
#
# Stress axis : x y z
#
# Youngs Moduli (GPa) = 106.67384 74.31297 162.93612
#
# Poissons Ratio (x) = 0.15131 0.28224
# Poissons Ratio (y) = 0.21720 0.24937
# Poissons Ratio (z) = 0.18478 0.11373
#
# Static dielectric constant tensor:
#      x y z
#    x 1.803200 0.000000 0.000000 
#    y 0.000000 1.913020 0.000000 
#    z 0.000000 0.000000 1.771780 
# 
# From -- ./inp_files/65498.got.cif
#   From: 2010.05.17/outbox.cif.g08.bks.cpg/sg63_33_cif.got.tgz:65498.got - 2010.06.03 15:47:04.
