data_PCOD9475945
_publ_section_title
;
Structure prediction by ZEFSAII (Michael W. Deem and Ramdas Pophale) SiO2 
 PCOD9475945
Probable space group: C M C M
;
_chemical_formula_sum "Si O2"
_cell_formula_units_Z 96
_cell_length_a 7.264408
_cell_length_b 31.367425
_cell_length_c 21.575006
_cell_angle_alpha 90.000000
_cell_angle_beta 90.000000
_cell_angle_gamma 90.000000
_cell_volume 4916.205422
_symmetry_space_group_name_H-M "C M C M"
_symmetry_group_IT_number 63
_symmetry_cell_setting 'orthorhombic'
loop_
_space_group_symop_operation_xyz
x,y,z
-x,-y,1/2+z
x,-y,-z
-x,y,1/2-z
-x,-y,-z
x,y,1/2-z
-x,y,z
x,-y,1/2+z
1/2+x,1/2+y,z
1/2-x,1/2-y,1/2+z
1/2+x,1/2-y,-z
1/2-x,1/2+y,1/2-z
1/2-x,1/2-y,-z
1/2+x,1/2+y,1/2-z
1/2-x,1/2+y,z
1/2+x,1/2-y,1/2+z
loop_
_atom_site_type_symbol
_atom_site_label
_atom_site_fract_x
_atom_site_fract_y
_atom_site_fract_z
Si Si1 0.280855 0.710068 0.544450
Si Si2 0.724282 0.694005 0.682549
Si Si3 0.275244 0.466365 0.553456
Si Si4 0.224417 0.004919 0.816579
Si Si5 0.222437 0.882929 0.011807
Si Si6 0.221949 0.901269 0.152782
O O1 0.500000 0.704889 0.549970
O O2 0.250000 0.750000 0.500000
O O3 0.215317 0.713641 0.616236
O O4 0.212043 0.665956 0.513393
O O5 0.782585 0.711516 0.750000
O O6 0.500000 0.695331 0.682512
O O7 0.781198 0.644185 0.679273
O O8 0.219982 0.500000 0.500000
O O9 0.500000 0.466730 0.552939
O O10 0.215536 0.481441 0.621199
O O11 0.214767 0.418535 0.536406
O O12 0.279242 0.986497 0.750000
O O13 0.284525 0.054277 0.819591
O O14 0.000000 0.005109 0.818320
O O15 0.264982 0.900898 0.080019
O O16 0.000000 0.881438 0.006476
O O17 0.000000 0.900925 0.158953
#
# Coordination Sequence:
#
# PCOD9475945 Si02
#       6
#    16  16  16  16  16  16
#     4   9  17  28  43  61  81 104 133 168 205 242
#     4   8  13  21  35  55  77 100 126 160 203 245
#     4   9  13  18  28  41  62  93 123 145 172 219
#     4   9  14  16  21  37  62  92 123 151 178 214
#     4   8  13  21  33  49  68  95 127 155 186 228
#     4   8  11  16  26  43  67  92 118 149 188 231
#
# _framework density 19.527253999999999
#
# number of rings (size 3 to 8) (size 9 to 14) (size 15 to 20)
#    0.000    3.500    1.667    2.500    0.000    2.000 
#    0.000    0.000    0.000    1.500    0.000    2.333 
#    0.000    0.667    0.000    0.000    0.000    2.500 
#
# Total GULP energy -267440.528009 kJ/mol
# GULP energy per Si atom -5571.677667 kJ/mol
# Density = 1.948281 g / cm^3
# Si number density = 19.527254 Si / 1000 Ang^3
#
#
#
# Elastic Constant Matrix: (Units=GPa)
#
#
# Indices 1 2 3 4 5 6 
#
# 1 83.4989 2.0078 5.0241 0.0000 0.0000 0.0000
# 2 2.0078 112.7229 99.6590 0.0000 0.0000 0.0000
# 3 5.0241 99.6590 193.8881 0.0000 0.0000 0.0000
# 4 0.0000 0.0000 0.0000 21.6319 0.0000 0.0000
# 5 0.0000 0.0000 0.0000 0.0000 -11.9052 0.0000
# 6 0.0000 0.0000 0.0000 0.0000 0.0000 -12.3997
#
#
#
# Elastic Compliance Matrix: (Units=1/GPa)
#
#
# Indices 1 2 3 4 5 6 
#
# 1 0.011996 0.000112 -0.000368 0.000000 0.000000 0.000000
# 2 0.000112 0.016262 -0.008362 0.000000 0.000000 0.000000
# 3 -0.000368 -0.008362 0.009465 0.000000 0.000000 0.000000
# 4 0.000000 0.000000 0.000000 0.046228 0.000000 0.000000
# 5 0.000000 0.000000 0.000000 0.000000 -0.083997 0.000000
# 6 0.000000 0.000000 0.000000 0.000000 0.000000 -0.080647
#
#
# Mechanical properties :
#
#
# Convention : Reuss Voigt Hill
#
# Bulk Modulus (GPa) = 48.81213 67.05464 57.93338
# Shear Modulus (GPa) = -88.29407 18.35999 -34.96704
#
# Velocity S-wave (km/s) = -6.73157 3.06963 -4.23623
# Velocity P-wave (km/s) = 5.94705 6.85398 2.40932
#
# Compressibility (1/GPa) = 0.02048671
#
# Stress axis : x y z
#
# Youngs Moduli (GPa) = 83.36335 61.49388 105.65240
#
# Poissons Ratio (x) = -0.00689 0.03893
# Poissons Ratio (y) = -0.00934 0.88341
# Poissons Ratio (z) = 0.03071 0.51418
#
# Static dielectric constant tensor:
#      x y z
#    x 2.040680 0.000000 0.000000 
#    y 0.000000 1.664900 0.000000 
#    z 0.000000 0.000000 1.703980 
# 
# From -- ./inp_files/53249.got.cif
#   From: 2010.05.17/outbox.cif.g08.bks.cpg/sg63_27_cif.got.tgz:53249.got - 2010.06.03 15:47:04.
