data_PCOD9475458
_publ_section_title
;
Structure prediction by ZEFSAII (Michael W. Deem and Ramdas Pophale) SiO2 
 PCOD9475458
Probable space group: C M C M
;
_chemical_formula_sum "Si O2"
_cell_formula_units_Z 96
_cell_length_a 18.205351
_cell_length_b 9.606759
_cell_length_c 26.563213
_cell_angle_alpha 90.000000
_cell_angle_beta 90.000000
_cell_angle_gamma 90.000000
_cell_volume 4645.757719
_symmetry_space_group_name_H-M "C M C M"
_symmetry_group_IT_number 63
_symmetry_cell_setting 'orthorhombic'
loop_
_space_group_symop_operation_xyz
x,y,z
-x,-y,1/2+z
x,-y,-z
-x,y,1/2-z
-x,-y,-z
x,y,1/2-z
-x,y,z
x,-y,1/2+z
1/2+x,1/2+y,z
1/2-x,1/2-y,1/2+z
1/2+x,1/2-y,-z
1/2-x,1/2+y,1/2-z
1/2-x,1/2-y,-z
1/2+x,1/2+y,1/2-z
1/2-x,1/2+y,z
1/2+x,1/2-y,1/2+z
loop_
_atom_site_type_symbol
_atom_site_label
_atom_site_fract_x
_atom_site_fract_y
_atom_site_fract_z
Si Si1 0.913421 0.759065 0.451896
Si Si2 0.358730 0.536714 0.419842
Si Si3 0.583020 0.334634 0.156669
Si Si4 0.707209 0.961676 0.372660
Si Si5 0.412366 0.153979 0.554166
Si Si6 0.224656 0.275716 0.805917
O O1 0.904441 0.732880 0.392246
O O2 0.892190 0.649969 0.494455
O O3 0.000000 0.782798 0.459140
O O4 0.874415 0.907740 0.457292
O O5 0.401086 0.483491 0.369266
O O6 0.272736 0.522859 0.407562
O O7 0.391650 0.684435 0.434036
O O8 0.500000 0.322353 0.173980
O O9 0.646212 0.301480 0.195075
O O10 0.636767 0.933538 0.407330
O O11 0.729861 0.814336 0.346775
O O12 0.706809 0.071375 0.327016
O O13 0.500000 0.127026 0.559666
O O14 0.257461 0.279502 0.750000
#
# Coordination Sequence:
#
# PCOD9475458 Si02
#       6
#    16  16  16  16  16  16
#     4   8  16  31  55  89 125 163 200 234 285 360
#     4   9  17  33  57  84 124 162 203 238 286 349
#     4   8  17  34  57  87 117 148 195 247 287 351
#     4  11  23  40  60  92 119 154 202 259 300 357
#     4  11  20  34  60  91 127 169 199 237 298 358
#     4  11  23  42  64  83 111 157 204 254 316 365
#
# _framework density 20.664014999999999
#
# number of rings (size 3 to 8) (size 9 to 14) (size 15 to 20)
#    1.000    1.333    1.667    2.000    0.000    3.000 
#    0.000    0.833    0.000    4.500    0.000    0.000 
#    0.000    0.000    0.000    0.000    0.000    0.000 
#
# Total GULP energy -267254.341538 kJ/mol
# GULP energy per Si atom -5567.798782 kJ/mol
# Density = 2.061698 g / cm^3
# Si number density = 20.664015 Si / 1000 Ang^3
#
#
#
# Elastic Constant Matrix: (Units=GPa)
#
#
# Indices 1 2 3 4 5 6 
#
# 1 64.1727 3.6695 36.3522 0.0000 0.0000 0.0000
# 2 3.6695 55.4357 -1.6744 0.0000 0.0000 0.0000
# 3 36.3522 -1.6744 75.8375 0.0000 0.0000 0.0000
# 4 0.0000 0.0000 0.0000 14.6888 0.0000 0.0000
# 5 0.0000 0.0000 0.0000 0.0000 10.7723 0.0000
# 6 0.0000 0.0000 0.0000 0.0000 0.0000 9.8871
#
#
#
# Elastic Compliance Matrix: (Units=1/GPa)
#
#
# Indices 1 2 3 4 5 6 
#
# 1 0.021558 -0.001740 -0.010372 0.000000 0.000000 0.000000
# 2 -0.001740 0.018191 0.001236 0.000000 0.000000 0.000000
# 3 -0.010372 0.001236 0.018185 0.000000 0.000000 0.000000
# 4 0.000000 0.000000 0.000000 0.068079 0.000000 0.000000
# 5 0.000000 0.000000 0.000000 0.000000 0.092831 0.000000
# 6 0.000000 0.000000 0.000000 0.000000 0.000000 0.101142
#
#
# Mechanical properties :
#
#
# Convention : Reuss Voigt Hill
#
# Bulk Modulus (GPa) = 27.63842 30.23783 28.93813
# Shear Modulus (GPa) = 14.13226 17.54287 15.83756
#
# Velocity S-wave (km/s) = 2.61800 2.91685 2.77145
# Velocity P-wave (km/s) = 4.74792 5.09989 4.92705
#
# Compressibility (1/GPa) = 0.03618152
#
# Stress axis : x y z
#
# Youngs Moduli (GPa) = 46.38653 54.97087 54.98981
#
# Poissons Ratio (x) = 0.09566 0.57036
# Poissons Ratio (y) = 0.08073 -0.06796
# Poissons Ratio (z) = 0.48113 -0.06793
#
# Static dielectric constant tensor:
#      x y z
#    x 1.717150 0.000000 0.000000 
#    y 0.000000 1.797510 0.000000 
#    z 0.000000 0.000000 1.856040 
# 
# From -- ./inp_files/69883.got.cif
#   From: 2010.05.17/outbox.cif.g08.bks.cpg/sg63_35_cif.got.tgz:69883.got - 2010.06.03 15:47:04.
