data_PCOD9475922
_publ_section_title
;
Structure prediction by ZEFSAII (Michael W. Deem and Ramdas Pophale) SiO2 
 PCOD9475922
Probable space group: C M C M
;
_chemical_formula_sum "Si O2"
_cell_formula_units_Z 40
_cell_length_a 22.505640
_cell_length_b 8.416389
_cell_length_c 10.191677
_cell_angle_alpha 90.000000
_cell_angle_beta 90.000000
_cell_angle_gamma 90.000000
_cell_volume 1930.468942
_symmetry_space_group_name_H-M "C M C M"
_symmetry_group_IT_number 63
_symmetry_cell_setting 'orthorhombic'
loop_
_space_group_symop_operation_xyz
x,y,z
-x,-y,1/2+z
x,-y,-z
-x,y,1/2-z
-x,-y,-z
x,y,1/2-z
-x,y,z
x,-y,1/2+z
1/2+x,1/2+y,z
1/2-x,1/2-y,1/2+z
1/2+x,1/2-y,-z
1/2-x,1/2+y,1/2-z
1/2-x,1/2-y,-z
1/2+x,1/2+y,1/2-z
1/2-x,1/2+y,z
1/2+x,1/2-y,1/2+z
loop_
_atom_site_type_symbol
_atom_site_label
_atom_site_fract_x
_atom_site_fract_y
_atom_site_fract_z
Si Si1 0.120449 0.688319 0.520004
Si Si2 0.201580 0.814381 0.750000
Si Si3 0.667701 0.315821 0.250000
Si Si4 0.500000 0.355540 0.898800
O O1 0.119420 0.500000 0.500000
O O2 0.172132 0.735599 0.621772
O O3 0.132131 0.772701 0.381054
O O4 0.058608 0.750943 0.578045
O O5 0.271711 0.786142 0.750000
O O6 0.185356 0.999770 0.750000
O O7 0.500000 0.416486 0.750000
O O8 0.500000 0.500000 0.000000
#
# Coordination Sequence:
#
# PCOD9475922 Si02
#       4
#    16   8   8   8
#     4  12  26  46  71 103 140 182 232 287 346 409
#     4  12  24  47  68 105 140 184 232 282 346 412
#     4  12  26  43  74 101 142 184 230 286 344 414
#     4  12  27  48  74 104 140 181 232 286 348 415
#
# _framework density 20.720352999999999
#
# number of rings (size 3 to 8) (size 9 to 14) (size 15 to 20)
#    0.000    0.000    2.000    9.000    2.800    0.000 
#    0.000    0.000    0.000    0.000    0.000    0.000 
#    0.000    0.000    0.000    0.000    0.000    0.000 
#
# Total GULP energy -112146.033127 kJ/mol
# GULP energy per Si atom -5607.301656 kJ/mol
# Density = 2.067319 g / cm^3
# Si number density = 20.720353 Si / 1000 Ang^3
#
#
#
# Elastic Constant Matrix: (Units=GPa)
#
#
# Indices 1 2 3 4 5 6 
#
# 1 78.1009 -12.6733 23.6491 0.0000 0.0000 0.0000
# 2 -12.6733 151.6666 31.3786 0.0000 0.0000 0.0000
# 3 23.6491 31.3786 172.2399 0.0000 0.0000 0.0000
# 4 0.0000 0.0000 0.0000 49.9567 0.0000 0.0000
# 5 0.0000 0.0000 0.0000 0.0000 19.1448 0.0000
# 6 0.0000 0.0000 0.0000 0.0000 0.0000 24.0523
#
#
#
# Elastic Compliance Matrix: (Units=1/GPa)
#
#
# Indices 1 2 3 4 5 6 
#
# 1 0.013722 0.001597 -0.002175 0.000000 0.000000 0.000000
# 2 0.001597 0.007037 -0.001501 0.000000 0.000000 0.000000
# 3 -0.002175 -0.001501 0.006378 0.000000 0.000000 0.000000
# 4 0.000000 0.000000 0.000000 0.020017 0.000000 0.000000
# 5 0.000000 0.000000 0.000000 0.000000 0.052233 0.000000
# 6 0.000000 0.000000 0.000000 0.000000 0.000000 0.041576
#
#
# Mechanical properties :
#
#
# Convention : Reuss Voigt Hill
#
# Bulk Modulus (GPa) = 43.52040 54.07960 48.80000
# Shear Modulus (GPa) = 32.72631 42.60763 37.66697
#
# Velocity S-wave (km/s) = 3.97851 4.53958 4.26828
# Velocity P-wave (km/s) = 6.49262 7.32349 6.92053
#
# Compressibility (1/GPa) = 0.02297773
#
# Stress axis : x y z
#
# Youngs Moduli (GPa) = 72.87790 142.09750 156.78954
#
# Poissons Ratio (x) = -0.22686 0.34100
# Poissons Ratio (y) = -0.11635 0.23539
# Poissons Ratio (z) = 0.15850 0.21333
#
# Static dielectric constant tensor:
#      x y z
#    x 1.706470 0.000000 0.000000 
#    y 0.000000 1.696150 0.000000 
#    z 0.000000 0.000000 1.707840 
# 
# From -- ./inp_files/9295.got.cif
#   From: 2010.05.17/outbox.cif.g08.bks.cpg/sg63_5_cif.got.tgz:9295.got - 2010.06.03 15:47:04.
