data_PCOD9475360
_publ_section_title
;
Structure prediction by ZEFSAII (Michael W. Deem and Ramdas Pophale) SiO2 
 PCOD9475360
Probable space group: C M C M
;
_chemical_formula_sum "Si O2"
_cell_formula_units_Z 64
_cell_length_a 25.724897
_cell_length_b 12.874327
_cell_length_c 10.271300
_cell_angle_alpha 90.000000
_cell_angle_beta 90.000000
_cell_angle_gamma 90.000000
_cell_volume 3401.759407
_symmetry_space_group_name_H-M "C M C M"
_symmetry_group_IT_number 63
_symmetry_cell_setting 'orthorhombic'
loop_
_space_group_symop_operation_xyz
x,y,z
-x,-y,1/2+z
x,-y,-z
-x,y,1/2-z
-x,-y,-z
x,y,1/2-z
-x,y,z
x,-y,1/2+z
1/2+x,1/2+y,z
1/2-x,1/2-y,1/2+z
1/2+x,1/2-y,-z
1/2-x,1/2+y,1/2-z
1/2-x,1/2-y,-z
1/2+x,1/2+y,1/2-z
1/2-x,1/2+y,z
1/2+x,1/2-y,1/2+z
loop_
_atom_site_type_symbol
_atom_site_label
_atom_site_fract_x
_atom_site_fract_y
_atom_site_fract_z
Si Si1 0.686846 0.712313 0.250000
Si Si2 0.138237 0.731711 0.018834
Si Si3 0.754623 0.506864 0.250000
Si Si4 0.791310 0.192433 0.750000
Si Si5 0.829807 0.500000 0.500000
Si Si6 0.062203 0.091269 0.599205
O O1 0.653592 0.722221 0.120710
O O2 0.726353 0.617330 0.250000
O O3 0.729065 0.804065 0.250000
O O4 0.136765 0.606567 0.007167
O O5 0.183593 0.757722 0.122867
O O6 0.089430 0.798650 0.068271
O O7 0.704355 0.431027 0.250000
O O8 0.791507 0.498674 0.375984
O O9 0.073305 0.063831 0.750000
O O10 0.000000 0.101386 0.585234
O O11 0.079609 0.000000 0.500000
#
# Coordination Sequence:
#
# PCOD9475360 Si02
#       6
#     8  16   8   8   8  16
#     4  12  24  38  57  91 131 167 214 250 299 364
#     4  12  24  39  62  92 123 168 211 255 308 368
#     4  12  24  36  56  82 126 172 204 258 294 352
#     4  12  22  40  57  87 123 169 214 250 301 364
#     4  12  22  40  57  84 128 166 213 246 302 352
#     4  10  24  47  71  95 122 154 200 262 324 377
#
# _framework density 18.813793
#
# number of rings (size 3 to 8) (size 9 to 14) (size 15 to 20)
#    0.000    0.500    6.250    2.250    5.250    0.000 
#    0.000    0.625    0.000    0.000    0.000    0.000 
#    0.000    0.000    0.000    0.000    0.000    0.000 
#
# Total GULP energy -178615.594895 kJ/mol
# GULP energy per Si atom -5581.737340 kJ/mol
# Density = 1.877097 g / cm^3
# Si number density = 18.813793 Si / 1000 Ang^3
#
#
#
# Elastic Constant Matrix: (Units=GPa)
#
#
# Indices 1 2 3 4 5 6 
#
# 1 45.9627 36.8272 27.9863 0.0000 0.0000 0.0000
# 2 36.8272 146.7943 50.2196 0.0000 0.0000 0.0000
# 3 27.9863 50.2196 159.9885 0.0000 0.0000 0.0000
# 4 0.0000 0.0000 0.0000 29.9528 0.0000 0.0000
# 5 0.0000 0.0000 0.0000 0.0000 7.2090 0.0000
# 6 0.0000 0.0000 0.0000 0.0000 0.0000 30.4276
#
#
#
# Elastic Compliance Matrix: (Units=1/GPa)
#
#
# Indices 1 2 3 4 5 6 
#
# 1 0.028518 -0.006103 -0.003073 0.000000 0.000000 0.000000
# 2 -0.006103 0.008938 -0.001738 0.000000 0.000000 0.000000
# 3 -0.003073 -0.001738 0.007333 0.000000 0.000000 0.000000
# 4 0.000000 0.000000 0.000000 0.033386 0.000000 0.000000
# 5 0.000000 0.000000 0.000000 0.000000 0.138716 0.000000
# 6 0.000000 0.000000 0.000000 0.000000 0.000000 0.032865
#
#
# Mechanical properties :
#
#
# Convention : Reuss Voigt Hill
#
# Bulk Modulus (GPa) = 43.55129 64.75685 54.15407
# Shear Modulus (GPa) = 17.90590 29.36536 23.63563
#
# Velocity S-wave (km/s) = 3.08838 3.95504 3.54827
# Velocity P-wave (km/s) = 5.99302 7.43983 6.75527
#
# Compressibility (1/GPa) = 0.02296143
#
# Stress axis : x y z
#
# Youngs Moduli (GPa) = 35.06569 111.88201 136.36059
#
# Poissons Ratio (x) = 0.68284 0.41900
# Poissons Ratio (y) = 0.21401 0.23699
# Poissons Ratio (z) = 0.10775 0.19445
#
# Static dielectric constant tensor:
#      x y z
#    x 1.647750 0.000000 0.000000 
#    y 0.000000 1.726750 0.000000 
#    z 0.000000 0.000000 1.667540 
# 
# From -- ./inp_files/13812.got.cif
#   From: 2010.05.17/outbox.cif.g08.bks.cpg/sg63_7_cif.got.tgz:13812.got - 2010.06.03 15:47:04.
