data_PCOD9475115
_publ_section_title
;
Structure prediction by ZEFSAII (Michael W. Deem and Ramdas Pophale) SiO2 
 PCOD9475115
Probable space group: C M C M
;
_chemical_formula_sum "Si O2"
_cell_formula_units_Z 112
_cell_length_a 31.005280
_cell_length_b 10.995057
_cell_length_c 17.597836
_cell_angle_alpha 90.000000
_cell_angle_beta 90.000000
_cell_angle_gamma 90.000000
_cell_volume 5999.187130
_symmetry_space_group_name_H-M "C M C M"
_symmetry_group_IT_number 63
_symmetry_cell_setting 'orthorhombic'
loop_
_space_group_symop_operation_xyz
x,y,z
-x,-y,1/2+z
x,-y,-z
-x,y,1/2-z
-x,-y,-z
x,y,1/2-z
-x,y,z
x,-y,1/2+z
1/2+x,1/2+y,z
1/2-x,1/2-y,1/2+z
1/2+x,1/2-y,-z
1/2-x,1/2+y,1/2-z
1/2-x,1/2-y,-z
1/2+x,1/2+y,1/2-z
1/2-x,1/2+y,z
1/2+x,1/2-y,1/2+z
loop_
_atom_site_type_symbol
_atom_site_label
_atom_site_fract_x
_atom_site_fract_y
_atom_site_fract_z
Si Si1 0.686270 0.854326 0.394355
Si Si2 0.918594 0.892603 0.948687
Si Si3 0.549121 0.812939 0.339122
Si Si4 0.857850 0.718861 0.043223
Si Si5 0.158496 0.088375 0.337448
Si Si6 0.215353 0.915553 0.423963
Si Si7 0.618551 0.977858 0.836536
O O1 0.661936 0.861022 0.475107
O O2 0.673661 0.724015 0.359325
O O3 0.736693 0.869537 0.408332
O O4 0.665000 0.956816 0.342482
O O5 0.945314 0.804414 0.892985
O O6 0.880706 0.944940 0.893972
O O7 0.894128 0.804156 0.007025
O O8 0.938679 0.000000 0.000000
O O9 0.557029 0.781055 0.250000
O O10 0.500000 0.857615 0.345414
O O11 0.583425 0.918596 0.358944
O O12 0.817934 0.804416 0.067595
O O13 0.878142 0.636168 0.108167
O O14 0.145587 0.083346 0.250000
O O15 0.197590 0.999012 0.356395
O O16 0.214311 0.000000 0.500000
O O17 0.609103 0.942587 0.750000
#
# Coordination Sequence:
#
# PCOD9475115 Si02
#       7
#    16  16  16  16  16  16  16
#     4  11  23  36  61  80 114 160 207 251 294 344
#     4  11  20  40  64  89 119 154 203 245 295 356
#     4  10  22  42  69  95 120 154 194 241 302 369
#     4  11  21  38  59  85 117 159 202 242 298 354
#     4  11  22  37  56  81 116 159 203 250 299 352
#     4  12  22  39  56  85 116 161 206 253 297 353
#     4  11  23  39  58  87 122 156 197 250 306 357
#
# _framework density 18.669195999999999
#
# number of rings (size 3 to 8) (size 9 to 14) (size 15 to 20)
#    0.000    1.000    7.143    2.571    2.000    2.000 
#    0.000    1.429    0.000    0.000    0.000    2.000 
#    0.000    0.000    0.000    0.000    0.000    0.000 
#
# Total GULP energy -312680.066489 kJ/mol
# GULP energy per Si atom -5583.572616 kJ/mol
# Density = 1.862670 g / cm^3
# Si number density = 18.669196 Si / 1000 Ang^3
#
#
#
# Elastic Constant Matrix: (Units=GPa)
#
#
# Indices 1 2 3 4 5 6 
#
# 1 73.9213 24.7698 27.8159 0.0000 0.0000 0.0000
# 2 24.7698 62.6933 56.5906 0.0000 0.0000 0.0000
# 3 27.8159 56.5906 108.2550 0.0000 0.0000 0.0000
# 4 0.0000 0.0000 0.0000 29.9563 0.0000 0.0000
# 5 0.0000 0.0000 0.0000 0.0000 19.3268 0.0000
# 6 0.0000 0.0000 0.0000 0.0000 0.0000 11.7299
#
#
#
# Elastic Compliance Matrix: (Units=1/GPa)
#
#
# Indices 1 2 3 4 5 6 
#
# 1 0.015720 -0.004856 -0.001500 0.000000 0.000000 0.000000
# 2 -0.004856 0.031702 -0.015325 0.000000 0.000000 0.000000
# 3 -0.001500 -0.015325 0.017634 0.000000 0.000000 0.000000
# 4 0.000000 0.000000 0.000000 0.033382 0.000000 0.000000
# 5 0.000000 0.000000 0.000000 0.000000 0.051742 0.000000
# 6 0.000000 0.000000 0.000000 0.000000 0.000000 0.085252
#
#
# Mechanical properties :
#
#
# Convention : Reuss Voigt Hill
#
# Bulk Modulus (GPa) = 46.09764 51.46914 48.78339
# Shear Modulus (GPa) = 17.48094 21.24882 19.36488
#
# Velocity S-wave (km/s) = 3.06331 3.37735 3.22415
# Velocity P-wave (km/s) = 6.10387 6.54504 6.32830
#
# Compressibility (1/GPa) = 0.02169309
#
# Stress axis : x y z
#
# Youngs Moduli (GPa) = 63.61391 31.54344 56.70863
#
# Poissons Ratio (x) = 0.15319 0.08509
# Poissons Ratio (y) = 0.30894 0.86904
# Poissons Ratio (z) = 0.09545 0.48339
#
# Static dielectric constant tensor:
#      x y z
#    x 1.631210 0.000000 0.000000 
#    y 0.000000 1.666210 0.000000 
#    z 0.000000 0.000000 1.663950 
# 
# From -- ./inp_files/38578.got.cif
#   From: 2010.05.17/outbox.cif.g08.bks.cpg/sg63_20_cif.got.tgz:38578.got - 2010.06.03 15:47:04.
