data_PCOD9475823
_publ_section_title
;
Structure prediction by ZEFSAII (Michael W. Deem and Ramdas Pophale) SiO2 
 PCOD9475823
Probable space group: C M C M
;
_chemical_formula_sum "Si O2"
_cell_formula_units_Z 88
_cell_length_a 28.987300
_cell_length_b 5.543621
_cell_length_c 24.593265
_cell_angle_alpha 90.000000
_cell_angle_beta 90.000000
_cell_angle_gamma 90.000000
_cell_volume 3952.005005
_symmetry_space_group_name_H-M "C M C M"
_symmetry_group_IT_number 63
_symmetry_cell_setting 'orthorhombic'
loop_
_space_group_symop_operation_xyz
x,y,z
-x,-y,1/2+z
x,-y,-z
-x,y,1/2-z
-x,-y,-z
x,y,1/2-z
-x,y,z
x,-y,1/2+z
1/2+x,1/2+y,z
1/2-x,1/2-y,1/2+z
1/2+x,1/2-y,-z
1/2-x,1/2+y,1/2-z
1/2-x,1/2-y,-z
1/2+x,1/2+y,1/2-z
1/2-x,1/2+y,z
1/2+x,1/2-y,1/2+z
loop_
_atom_site_type_symbol
_atom_site_label
_atom_site_fract_x
_atom_site_fract_y
_atom_site_fract_z
Si Si1 0.862181 0.999555 0.686362
Si Si2 0.193300 0.621884 0.557287
Si Si3 0.887798 0.507545 0.137568
Si Si4 0.127803 0.000000 0.000000
Si Si5 0.736963 0.380458 0.153311
Si Si6 0.050737 0.678434 0.449011
O O1 0.851300 0.986718 0.750000
O O2 0.887623 0.250737 0.673680
O O3 0.814670 0.024749 0.653294
O O4 0.884397 0.746875 0.668322
O O5 0.207034 0.500000 0.500000
O O6 0.156576 0.482884 0.596260
O O7 0.237722 0.664145 0.595322
O O8 0.161504 0.839484 0.536196
O O9 0.933786 0.520923 0.101947
O O10 0.092290 0.138437 0.960582
O O11 0.762619 0.612895 0.179773
O O12 0.050089 0.500000 0.500000
O O13 0.000000 0.789748 0.442984
#
# Coordination Sequence:
#
# PCOD9475823 Si02
#       6
#    16  16  16   8  16  16
#     4  12  27  49  74  97 134 186 252 314 360 410
#     4  12  25  40  64  97 146 198 229 286 344 433
#     4  12  23  48  72 102 140 185 237 290 371 434
#     4  12  21  42  66  98 158 204 236 274 345 436
#     4  12  26  44  63  99 137 184 247 296 348 408
#     4  11  24  41  71 113 150 186 227 287 360 448
#
# _framework density 22.267178999999999
#
# number of rings (size 3 to 8) (size 9 to 14) (size 15 to 20)
#    0.000    0.182    7.273    1.909    2.545    1.455 
#    0.000    0.000    0.000    3.273    0.000    0.000 
#    0.000    0.000    0.000    0.000    0.000    0.000 
#
# Total GULP energy -245837.238078 kJ/mol
# GULP energy per Si atom -5587.209956 kJ/mol
# Density = 2.221650 g / cm^3
# Si number density = 22.267179 Si / 1000 Ang^3
#
#
#
# Elastic Constant Matrix: (Units=GPa)
#
#
# Indices 1 2 3 4 5 6 
#
# 1 101.7575 44.7365 53.0818 0.0000 0.0000 0.0000
# 2 44.7365 170.6191 53.1832 0.0000 0.0000 0.0000
# 3 53.0818 53.1832 114.4715 0.0000 0.0000 0.0000
# 4 0.0000 0.0000 0.0000 25.0264 0.0000 0.0000
# 5 0.0000 0.0000 0.0000 0.0000 -6.8129 0.0000
# 6 0.0000 0.0000 0.0000 0.0000 0.0000 -6.5646
#
#
#
# Elastic Compliance Matrix: (Units=1/GPa)
#
#
# Indices 1 2 3 4 5 6 
#
# 1 0.013444 -0.001850 -0.005375 0.000000 0.000000 0.000000
# 2 -0.001850 0.007108 -0.002445 0.000000 0.000000 0.000000
# 3 -0.005375 -0.002445 0.012364 0.000000 0.000000 0.000000
# 4 0.000000 0.000000 0.000000 0.039958 0.000000 0.000000
# 5 0.000000 0.000000 0.000000 0.000000 -0.146780 0.000000
# 6 0.000000 0.000000 0.000000 0.000000 0.000000 -0.152332
#
#
# Mechanical properties :
#
#
# Convention : Reuss Voigt Hill
#
# Bulk Modulus (GPa) = 73.64974 76.53904 75.09439
# Shear Modulus (GPa) = -24.70674 18.05289 -3.32693
#
# Velocity S-wave (km/s) = -3.33462 2.85044 -1.22366
# Velocity P-wave (km/s) = 4.28031 6.72911 5.63924
#
# Compressibility (1/GPa) = 0.01357778
#
# Stress axis : x y z
#
# Youngs Moduli (GPa) = 74.38089 140.68618 80.88006
#
# Poissons Ratio (x) = 0.26023 0.43472
# Poissons Ratio (y) = 0.13758 0.19772
# Poissons Ratio (z) = 0.39979 0.34393
#
# Static dielectric constant tensor:
#      x y z
#    x 1.807570 0.000000 0.000000 
#    y 0.000000 1.905600 0.000000 
#    z 0.000000 0.000000 1.899540 
# 
# From -- ./inp_files/71047.got.cif
#   From: 2010.05.17/outbox.cif.g08.bks.cpg/sg63_36_cif.got.tgz:71047.got - 2010.06.03 15:47:04.
