data_PCOD9475168
_publ_section_title
;
Structure prediction by ZEFSAII (Michael W. Deem and Ramdas Pophale) SiO2 
 PCOD9475168
Probable space group: C M C M
;
_chemical_formula_sum "Si O2"
_cell_formula_units_Z 40
_cell_length_a 23.368330
_cell_length_b 8.864023
_cell_length_c 8.238502
_cell_angle_alpha 90.000000
_cell_angle_beta 90.000000
_cell_angle_gamma 90.000000
_cell_volume 1706.502004
_symmetry_space_group_name_H-M "C M C M"
_symmetry_group_IT_number 63
_symmetry_cell_setting 'orthorhombic'
loop_
_space_group_symop_operation_xyz
x,y,z
-x,-y,1/2+z
x,-y,-z
-x,y,1/2-z
-x,-y,-z
x,y,1/2-z
-x,y,z
x,-y,1/2+z
1/2+x,1/2+y,z
1/2-x,1/2-y,1/2+z
1/2+x,1/2-y,-z
1/2-x,1/2+y,1/2-z
1/2-x,1/2-y,-z
1/2+x,1/2+y,1/2-z
1/2-x,1/2+y,z
1/2+x,1/2-y,1/2+z
loop_
_atom_site_type_symbol
_atom_site_label
_atom_site_fract_x
_atom_site_fract_y
_atom_site_fract_z
Si Si1 0.188336 0.544519 0.250000
Si Si2 0.378748 0.284507 0.069596
Si Si3 0.185332 0.818403 0.750000
Si Si4 0.000000 0.674650 0.554318
O O1 0.154265 0.626714 0.395761
O O2 0.189329 0.365095 0.250000
O O3 0.252703 0.606546 0.250000
O O4 0.376860 0.356688 0.250000
O O5 0.347210 0.355776 0.916497
O O6 0.443485 0.251849 0.017577
O O7 0.000000 0.500000 0.500000
O O8 0.000000 0.682338 0.750000
#
# Coordination Sequence:
#
# PCOD9475168 Si02
#       4
#     8  16   8   8
#     4  10  24  35  63  79 125 150 195 236 286 340
#     4  10  23  35  56  83 118 151 191 239 293 345
#     4  12  20  43  53  91 115 160 189 242 282 344
#     4  12  20  32  54  81 118 150 188 238 298 349
#
# _framework density 23.439762999999999
#
# number of rings (size 3 to 8) (size 9 to 14) (size 15 to 20)
#    1.200    0.000    2.000    6.600    0.000    0.000 
#    0.000    0.000    0.000    0.000    0.000    8.400 
#    0.000    0.000    0.000    0.000    0.000    0.000 
#
# Total GULP energy -111809.767006 kJ/mol
# GULP energy per Si atom -5590.488350 kJ/mol
# Density = 2.338641 g / cm^3
# Si number density = 23.439763 Si / 1000 Ang^3
#
#
#
# Elastic Constant Matrix: (Units=GPa)
#
#
# Indices 1 2 3 4 5 6 
#
# 1 221.1090 43.4209 100.6811 0.0000 0.0000 0.0000
# 2 43.4209 113.1547 74.7533 0.0000 0.0000 0.0000
# 3 100.6811 74.7533 256.9792 0.0000 0.0000 0.0000
# 4 0.0000 0.0000 0.0000 40.6756 0.0000 0.0000
# 5 0.0000 0.0000 0.0000 0.0000 49.6049 0.0000
# 6 0.0000 0.0000 0.0000 0.0000 0.0000 -96.2122
#
#
#
# Elastic Compliance Matrix: (Units=1/GPa)
#
#
# Indices 1 2 3 4 5 6 
#
# 1 0.005572 -0.000861 -0.001932 0.000000 0.000000 0.000000
# 2 -0.000861 0.011073 -0.002884 0.000000 0.000000 0.000000
# 3 -0.001932 -0.002884 0.005487 0.000000 0.000000 0.000000
# 4 0.000000 0.000000 0.000000 0.024585 0.000000 0.000000
# 5 0.000000 0.000000 0.000000 0.000000 0.020159 0.000000
# 6 0.000000 0.000000 0.000000 0.000000 0.000000 -0.010394
#
#
# Mechanical properties :
#
#
# Convention : Reuss Voigt Hill
#
# Bulk Modulus (GPa) = 92.78814 114.32816 103.55815
# Shear Modulus (GPa) = 69.99922 23.63950 46.81936
#
# Velocity S-wave (km/s) = 5.47067 3.17917 4.47411
# Velocity P-wave (km/s) = 8.92054 7.89667 8.42417
#
# Compressibility (1/GPa) = 0.01077724
#
# Stress axis : x y z
#
# Youngs Moduli (GPa) = 179.47818 90.30993 182.24165
#
# Poissons Ratio (x) = 0.07780 0.35215
# Poissons Ratio (y) = 0.15462 0.52550
# Poissons Ratio (z) = 0.34681 0.26041
#
# Static dielectric constant tensor:
#      x y z
#    x 1.791020 0.000000 0.000000 
#    y 0.000000 1.874010 0.000000 
#    z 0.000000 0.000000 1.892890 
# 
# From -- ./inp_files/11280.got.cif
#   From: 2010.05.17/outbox.cif.g08.bks.cpg/sg63_6_cif.got.tgz:11280.got - 2010.06.03 15:47:04.
