data_PCOD9475782
_publ_section_title
;
Structure prediction by ZEFSAII (Michael W. Deem and Ramdas Pophale) SiO2 
 PCOD9475782
Probable space group: C M C M
;
_chemical_formula_sum "Si O2"
_cell_formula_units_Z 64
_cell_length_a 8.709380
_cell_length_b 24.501878
_cell_length_c 15.474331
_cell_angle_alpha 90.000000
_cell_angle_beta 90.000000
_cell_angle_gamma 90.000000
_cell_volume 3302.162910
_symmetry_space_group_name_H-M "C M C M"
_symmetry_group_IT_number 63
_symmetry_cell_setting 'orthorhombic'
loop_
_space_group_symop_operation_xyz
x,y,z
-x,-y,1/2+z
x,-y,-z
-x,y,1/2-z
-x,-y,-z
x,y,1/2-z
-x,y,z
x,-y,1/2+z
1/2+x,1/2+y,z
1/2-x,1/2-y,1/2+z
1/2+x,1/2-y,-z
1/2-x,1/2+y,1/2-z
1/2-x,1/2-y,-z
1/2+x,1/2+y,1/2-z
1/2-x,1/2+y,z
1/2+x,1/2-y,1/2+z
loop_
_atom_site_type_symbol
_atom_site_label
_atom_site_fract_x
_atom_site_fract_y
_atom_site_fract_z
Si Si1 0.316168 0.191323 0.750000
Si Si2 0.315784 0.568837 0.750000
Si Si3 0.324875 0.374359 0.646932
Si Si4 0.183530 0.508856 0.101752
Si Si5 0.318302 0.237493 0.093384
O O1 0.500000 0.188621 0.750000
O O2 0.247289 0.130453 0.750000
O O3 0.259341 0.224758 0.666282
O O4 0.500000 0.568832 0.750000
O O5 0.255620 0.536377 0.834658
O O6 0.330358 0.368965 0.750000
O O7 0.500000 0.369751 0.613704
O O8 0.255008 0.432894 0.625542
O O9 0.222213 0.325268 0.612575
O O10 0.000000 0.509207 0.115328
O O11 0.213060 0.500000 0.000000
O O12 0.500000 0.246309 0.095351
O O13 0.250000 0.250000 0.000000
#
# Coordination Sequence:
#
# PCOD9475782 Si02
#       5
#     8   8  16  16  16
#     4  12  26  47  70  97 136 176 222 276 332 396
#     4  12  26  45  68  97 134 176 222 272 332 396
#     4  11  23  42  69  99 132 171 220 275 331 391
#     4  11  25  44  68  98 133 174 222 273 331 392
#     4  12  26  45  70 100 134 176 223 273 333 395
#
# _framework density 19.381236999999999
#
# number of rings (size 3 to 8) (size 9 to 14) (size 15 to 20)
#    0.000    0.500    2.500    6.000    3.500    3.000 
#    0.000    0.000    0.000    0.000    0.000    0.000 
#    0.000    0.000    0.000    0.000    0.000    0.000 
#
# Total GULP energy -179111.789210 kJ/mol
# GULP energy per Si atom -5597.243413 kJ/mol
# Density = 1.933712 g / cm^3
# Si number density = 19.381237 Si / 1000 Ang^3
#
#
#
# Elastic Constant Matrix: (Units=GPa)
#
#
# Indices 1 2 3 4 5 6 
#
# 1 154.6616 26.0649 52.7541 0.0000 0.0000 0.0000
# 2 26.0649 103.5505 28.2866 0.0000 0.0000 0.0000
# 3 52.7541 28.2866 114.7746 0.0000 0.0000 0.0000
# 4 0.0000 0.0000 0.0000 26.6985 0.0000 0.0000
# 5 0.0000 0.0000 0.0000 0.0000 25.7741 0.0000
# 6 0.0000 0.0000 0.0000 0.0000 0.0000 25.9467
#
#
#
# Elastic Compliance Matrix: (Units=1/GPa)
#
#
# Indices 1 2 3 4 5 6 
#
# 1 0.007773 -0.001051 -0.003314 0.000000 0.000000 0.000000
# 2 -0.001051 0.010496 -0.002104 0.000000 0.000000 0.000000
# 3 -0.003314 -0.002104 0.010754 0.000000 0.000000 0.000000
# 4 0.000000 0.000000 0.000000 0.037455 0.000000 0.000000
# 5 0.000000 0.000000 0.000000 0.000000 0.038799 0.000000
# 6 0.000000 0.000000 0.000000 0.000000 0.000000 0.038541
#
#
# Mechanical properties :
#
#
# Convention : Reuss Voigt Hill
#
# Bulk Modulus (GPa) = 62.16417 65.24419 63.70418
# Shear Modulus (GPa) = 30.84175 33.40927 32.12551
#
# Velocity S-wave (km/s) = 3.99346 4.15636 4.07573
# Velocity P-wave (km/s) = 7.30806 7.53462 7.42220
#
# Compressibility (1/GPa) = 0.01608644
#
# Stress axis : x y z
#
# Youngs Moduli (GPa) = 128.64713 95.27060 92.98658
#
# Poissons Ratio (x) = 0.10017 0.30813
# Poissons Ratio (y) = 0.13526 0.19561
# Poissons Ratio (z) = 0.42630 0.20041
#
# Static dielectric constant tensor:
#      x y z
#    x 1.662610 0.000000 0.000000 
#    y 0.000000 1.622840 0.000000 
#    z 0.000000 0.000000 1.646600 
# 
# From -- ./inp_files/27527.got.cif
#   From: 2010.05.17/outbox.cif.g08.bks.cpg/sg63_14_cif.got.tgz:27527.got - 2010.06.03 15:47:04.
