data_PCOD9475060
_publ_section_title
;
Structure prediction by ZEFSAII (Michael W. Deem and Ramdas Pophale) SiO2 
 PCOD9475060
Probable space group: C M C M
;
_chemical_formula_sum "Si O2"
_cell_formula_units_Z 68
_cell_length_a 15.483456
_cell_length_b 9.998249
_cell_length_c 20.951861
_cell_angle_alpha 90.000000
_cell_angle_beta 90.000000
_cell_angle_gamma 90.000000
_cell_volume 3243.504142
_symmetry_space_group_name_H-M "C M C M"
_symmetry_group_IT_number 63
_symmetry_cell_setting 'orthorhombic'
loop_
_space_group_symop_operation_xyz
x,y,z
-x,-y,1/2+z
x,-y,-z
-x,y,1/2-z
-x,-y,-z
x,y,1/2-z
-x,y,z
x,-y,1/2+z
1/2+x,1/2+y,z
1/2-x,1/2-y,1/2+z
1/2+x,1/2-y,-z
1/2-x,1/2+y,1/2-z
1/2-x,1/2-y,-z
1/2+x,1/2+y,1/2-z
1/2-x,1/2+y,z
1/2+x,1/2-y,1/2+z
loop_
_atom_site_type_symbol
_atom_site_label
_atom_site_fract_x
_atom_site_fract_y
_atom_site_fract_z
Si Si1 0.104613 0.651994 0.491111
Si Si2 0.103295 0.910541 0.563063
Si Si3 0.342676 0.205507 0.151651
Si Si4 0.500000 0.756055 0.750000
Si Si5 0.782306 0.979113 0.322032
O O1 0.136063 0.500000 0.500000
O O2 0.130473 0.759441 0.544588
O O3 0.134841 0.704201 0.422686
O O4 0.000000 0.649547 0.491021
O O5 0.152958 0.966689 0.623950
O O6 0.000000 0.914309 0.574045
O O7 0.120417 0.000000 0.500000
O O8 0.424867 0.239418 0.194318
O O9 0.305244 0.061512 0.169856
O O10 0.273768 0.321108 0.167117
O O11 0.815114 0.001757 0.250000
#
# Coordination Sequence:
#
# PCOD9475060 Si02
#       5
#    16  16  16   4  16
#     4  10  22  42  69 100 135 182 240 284 337 411
#     4  10  22  41  69 102 139 182 235 287 338 413
#     4  12  26  45  75 100 141 183 236 281 353 412
#     4  12  24  48  78 100 130 196 234 274 340 444
#     4  12  26  44  67 106 143 177 230 296 350 415
#
# _framework density 20.964980000000001
#
# number of rings (size 3 to 8) (size 9 to 14) (size 15 to 20)
#    0.000    0.941    5.882    0.000    4.941    2.353 
#    0.000    0.000    0.000    1.412    0.000    0.000 
#    0.000    0.000    0.000    0.000    0.000    0.000 
#
# Total GULP energy -189648.140068 kJ/mol
# GULP energy per Si atom -5577.886473 kJ/mol
# Density = 2.091726 g / cm^3
# Si number density = 20.964980 Si / 1000 Ang^3
#
#
#
# Elastic Constant Matrix: (Units=GPa)
#
#
# Indices 1 2 3 4 5 6 
#
# 1 26.4736 0.0713 0.7936 0.0000 0.0000 0.0000
# 2 0.0713 73.7166 -15.8637 0.0000 0.0000 0.0000
# 3 0.7936 -15.8637 122.5420 0.0000 0.0000 0.0000
# 4 0.0000 0.0000 0.0000 23.5504 0.0000 0.0000
# 5 0.0000 0.0000 0.0000 0.0000 2.1963 0.0000
# 6 0.0000 0.0000 0.0000 0.0000 0.0000 11.1868
#
#
#
# Elastic Compliance Matrix: (Units=1/GPa)
#
#
# Indices 1 2 3 4 5 6 
#
# 1 0.037781 -0.000092 -0.000257 0.000000 0.000000 0.000000
# 2 -0.000092 0.013954 0.001807 0.000000 0.000000 0.000000
# 3 -0.000257 0.001807 0.008396 0.000000 0.000000 0.000000
# 4 0.000000 0.000000 0.000000 0.042462 0.000000 0.000000
# 5 0.000000 0.000000 0.000000 0.000000 0.455314 0.000000
# 6 0.000000 0.000000 0.000000 0.000000 0.000000 0.089391
#
#
# Mechanical properties :
#
#
# Convention : Reuss Voigt Hill
#
# Bulk Modulus (GPa) = 15.86058 21.41497 18.63777
# Shear Modulus (GPa) = 7.51430 23.23543 15.37486
#
# Velocity S-wave (km/s) = 1.89526 3.33272 2.71100
# Velocity P-wave (km/s) = 3.51725 5.00462 4.32534
#
# Compressibility (1/GPa) = 0.06304939
#
# Stress axis : x y z
#
# Youngs Moduli (GPa) = 26.46804 71.66185 119.10345
#
# Poissons Ratio (x) = 0.00658 0.03056
# Poissons Ratio (y) = 0.00243 -0.21523
# Poissons Ratio (z) = 0.00679 -0.12950
#
# Static dielectric constant tensor:
#      x y z
#    x 1.747720 0.000000 0.000000 
#    y 0.000000 1.792810 0.000000 
#    z 0.000000 0.000000 1.718700 
# 
# From -- ./inp_files/55112.got.cif
#   From: 2010.05.17/outbox.cif.g08.bks.cpg/sg63_28_cif.got.tgz:55112.got - 2010.06.03 15:47:04.
