data_PCOD9475559
_publ_section_title
;
Structure prediction by ZEFSAII (Michael W. Deem and Ramdas Pophale) SiO2 
 PCOD9475559
Probable space group: C M C M
;
_chemical_formula_sum "Si O2"
_cell_formula_units_Z 96
_cell_length_a 8.274524
_cell_length_b 22.711236
_cell_length_c 24.353458
_cell_angle_alpha 90.000000
_cell_angle_beta 90.000000
_cell_angle_gamma 90.000000
_cell_volume 4576.615494
_symmetry_space_group_name_H-M "C M C M"
_symmetry_group_IT_number 63
_symmetry_cell_setting 'orthorhombic'
loop_
_space_group_symop_operation_xyz
x,y,z
-x,-y,1/2+z
x,-y,-z
-x,y,1/2-z
-x,-y,-z
x,y,1/2-z
-x,y,z
x,-y,1/2+z
1/2+x,1/2+y,z
1/2-x,1/2-y,1/2+z
1/2+x,1/2-y,-z
1/2-x,1/2+y,1/2-z
1/2-x,1/2-y,-z
1/2+x,1/2+y,1/2-z
1/2-x,1/2+y,z
1/2+x,1/2-y,1/2+z
loop_
_atom_site_type_symbol
_atom_site_label
_atom_site_fract_x
_atom_site_fract_y
_atom_site_fract_z
Si Si1 0.697973 0.146016 0.750000
Si Si2 0.302700 0.217935 0.858433
Si Si3 0.180930 0.050515 0.545350
Si Si4 0.684530 0.171029 0.524023
Si Si5 0.696294 0.991131 0.250000
Si Si6 0.308630 0.338089 0.904087
Si Si7 0.308183 0.035063 0.366626
O O1 0.500000 0.146142 0.750000
O O2 0.750081 0.180867 0.694721
O O3 0.749829 0.077450 0.750000
O O4 0.500000 0.214859 0.858725
O O5 0.247656 0.192782 0.917494
O O6 0.257722 0.286821 0.861691
O O7 0.306242 0.100678 0.530579
O O8 0.000000 0.076386 0.545444
O O9 0.185653 0.000000 0.500000
O O10 0.220989 0.017033 0.600821
O O11 0.500000 0.191489 0.519111
O O12 0.770918 0.183313 0.466272
O O13 0.500000 0.988488 0.250000
O O14 0.744200 0.026807 0.196059
O O15 0.500000 0.346057 0.900032
O O16 0.230414 0.400919 0.891114
O O17 0.500000 0.025485 0.371048
#
# Coordination Sequence:
#
# PCOD9475559 Si02
#       7
#     8  16  16  16   8  16  16
#     4   9  16  35  60  83 109 143 188 239 288 343
#     4   9  20  35  57  85 114 149 193 238 286 343
#     4  11  22  36  56  84 119 152 186 237 297 346
#     4  11  21  36  59  87 115 152 197 240 288 349
#     4   9  20  37  61  89 117 147 190 247 294 335
#     4  11  22  37  55  84 122 155 190 238 290 343
#     4  11  22  38  60  87 117 155 199 240 285 345
#
# _framework density 20.976198
#
# number of rings (size 3 to 8) (size 9 to 14) (size 15 to 20)
#    0.000    1.667    1.667    3.500    0.000    4.000 
#    0.000    5.000    0.000    0.000    0.000    6.417 
#    0.000    0.000    0.000    0.000    0.000    0.000 
#
# Total GULP energy -268012.728081 kJ/mol
# GULP energy per Si atom -5583.598502 kJ/mol
# Density = 2.092846 g / cm^3
# Si number density = 20.976198 Si / 1000 Ang^3
#
#
#
# Elastic Constant Matrix: (Units=GPa)
#
#
# Indices 1 2 3 4 5 6 
#
# 1 22.3647 0.6181 5.4855 0.0000 0.0000 0.0000
# 2 0.6181 72.1316 30.7797 0.0000 0.0000 0.0000
# 3 5.4855 30.7797 129.7887 0.0000 0.0000 0.0000
# 4 0.0000 0.0000 0.0000 34.4203 0.0000 0.0000
# 5 0.0000 0.0000 0.0000 0.0000 42.2078 0.0000
# 6 0.0000 0.0000 0.0000 0.0000 0.0000 70.8996
#
#
#
# Elastic Compliance Matrix: (Units=1/GPa)
#
#
# Indices 1 2 3 4 5 6 
#
# 1 0.045196 0.000476 -0.002023 0.000000 0.000000 0.000000
# 2 0.000476 0.015429 -0.003679 0.000000 0.000000 0.000000
# 3 -0.002023 -0.003679 0.008663 0.000000 0.000000 0.000000
# 4 0.000000 0.000000 0.000000 0.029053 0.000000 0.000000
# 5 0.000000 0.000000 0.000000 0.000000 0.023692 0.000000
# 6 0.000000 0.000000 0.000000 0.000000 0.000000 0.014104
#
#
# Mechanical properties :
#
#
# Convention : Reuss Voigt Hill
#
# Bulk Modulus (GPa) = 16.99642 33.11688 25.05665
# Shear Modulus (GPa) = 30.08373 41.99899 36.04136
#
# Velocity S-wave (km/s) = 3.79117 4.47947 4.14962
# Velocity P-wave (km/s) = 5.22343 6.52506 5.91019
#
# Compressibility (1/GPa) = 0.05883593
#
# Stress axis : x y z
#
# Youngs Moduli (GPa) = 22.12567 64.81107 115.43503
#
# Poissons Ratio (x) = -0.03085 0.23354
# Poissons Ratio (y) = -0.01053 0.42472
# Poissons Ratio (z) = 0.04476 0.23846
#
# Static dielectric constant tensor:
#      x y z
#    x 1.736410 0.000000 0.000000 
#    y 0.000000 1.759790 0.000000 
#    z 0.000000 0.000000 1.817090 
# 
# From -- ./inp_files/60013.got.cif
#   From: 2010.05.17/outbox.cif.g08.bks.cpg/sg63_31_cif.got.tgz:60013.got - 2010.06.03 15:47:04.
