data_PCOD9475276
_publ_section_title
;
Structure prediction by ZEFSAII (Michael W. Deem and Ramdas Pophale) SiO2 
 PCOD9475276
Probable space group: C M C M
;
_chemical_formula_sum "Si O2"
_cell_formula_units_Z 64
_cell_length_a 12.151118
_cell_length_b 31.447234
_cell_length_c 8.634397
_cell_angle_alpha 90.000000
_cell_angle_beta 90.000000
_cell_angle_gamma 90.000000
_cell_volume 3299.367589
_symmetry_space_group_name_H-M "C M C M"
_symmetry_group_IT_number 63
_symmetry_cell_setting 'orthorhombic'
loop_
_space_group_symop_operation_xyz
x,y,z
-x,-y,1/2+z
x,-y,-z
-x,y,1/2-z
-x,-y,-z
x,y,1/2-z
-x,y,z
x,-y,1/2+z
1/2+x,1/2+y,z
1/2-x,1/2-y,1/2+z
1/2+x,1/2-y,-z
1/2-x,1/2+y,1/2-z
1/2-x,1/2-y,-z
1/2+x,1/2+y,1/2-z
1/2-x,1/2+y,z
1/2+x,1/2-y,1/2+z
loop_
_atom_site_type_symbol
_atom_site_label
_atom_site_fract_x
_atom_site_fract_y
_atom_site_fract_z
Si Si1 0.127565 0.376066 0.936501
Si Si2 0.000000 0.837160 0.434194
Si Si3 0.500000 0.431664 0.933837
Si Si4 0.736143 0.544408 0.565833
Si Si5 0.220118 0.796182 0.563645
O O1 0.132182 0.380717 0.750000
O O2 0.187539 0.331638 0.974368
O O3 0.000000 0.375949 0.984205
O O4 0.193967 0.415204 0.009276
O O5 0.000000 0.881889 0.523350
O O6 0.107803 0.811792 0.485518
O O7 0.000000 0.844769 0.250000
O O8 0.500000 0.437701 0.750000
O O9 0.388340 0.450393 0.004024
O O10 0.781386 0.500000 0.500000
O O11 0.734646 0.543117 0.750000
O O12 0.208022 0.795023 0.750000
O O13 0.250000 0.750000 0.500000
#
# Coordination Sequence:
#
# PCOD9475276 Si02
#       5
#    16   8   8  16  16
#     4  10  23  44  67  92 128 172 216 267 323 380
#     4  12  24  41  67  98 132 172 218 267 324 387
#     4  12  23  41  66  96 133 168 210 267 327 385
#     4  12  25  42  66  96 129 169 214 265 322 386
#     4  11  24  42  67  98 133 172 216 269 325 383
#
# _framework density 19.397655
#
# number of rings (size 3 to 8) (size 9 to 14) (size 15 to 20)
#    0.000    0.750    2.500    5.625    1.750    2.000 
#    0.000    0.000    0.000    0.000    0.000    0.000 
#    0.000    0.000    0.000    0.000    0.000    0.000 
#
# Total GULP energy -179103.233314 kJ/mol
# GULP energy per Si atom -5596.976041 kJ/mol
# Density = 1.935351 g / cm^3
# Si number density = 19.397655 Si / 1000 Ang^3
#
#
#
# Elastic Constant Matrix: (Units=GPa)
#
#
# Indices 1 2 3 4 5 6 
#
# 1 145.2695 68.3210 58.6600 0.0000 0.0000 0.0000
# 2 68.3210 168.7254 54.4040 0.0000 0.0000 0.0000
# 3 58.6600 54.4040 97.2370 0.0000 0.0000 0.0000
# 4 0.0000 0.0000 0.0000 40.4879 0.0000 0.0000
# 5 0.0000 0.0000 0.0000 0.0000 5.2779 0.0000
# 6 0.0000 0.0000 0.0000 0.0000 0.0000 31.8318
#
#
#
# Elastic Compliance Matrix: (Units=1/GPa)
#
#
# Indices 1 2 3 4 5 6 
#
# 1 0.009924 -0.002548 -0.004561 0.000000 0.000000 0.000000
# 2 -0.002548 0.007885 -0.002875 0.000000 0.000000 0.000000
# 3 -0.004561 -0.002875 0.014644 0.000000 0.000000 0.000000
# 4 0.000000 0.000000 0.000000 0.024699 0.000000 0.000000
# 5 0.000000 0.000000 0.000000 0.000000 0.189470 0.000000
# 6 0.000000 0.000000 0.000000 0.000000 0.000000 0.031415
#
#
# Mechanical properties :
#
#
# Convention : Reuss Voigt Hill
#
# Bulk Modulus (GPa) = 80.09126 86.00020 83.04573
# Shear Modulus (GPa) = 16.54711 30.84263 23.69487
#
# Velocity S-wave (km/s) = 2.92387 3.99183 3.49883
# Velocity P-wave (km/s) = 7.26481 8.10419 7.69595
#
# Compressibility (1/GPa) = 0.01248576
#
# Stress axis : x y z
#
# Youngs Moduli (GPa) = 100.76801 126.81674 68.28547
#
# Poissons Ratio (x) = 0.32308 0.31147
# Poissons Ratio (y) = 0.25672 0.19632
# Poissons Ratio (z) = 0.45964 0.36459
#
# Static dielectric constant tensor:
#      x y z
#    x 1.661700 0.000000 0.000000 
#    y 0.000000 1.672210 0.000000 
#    z 0.000000 0.000000 1.649320 
# 
# From -- ./inp_files/3157.got.cif
#   From: 2010.05.17/outbox.cif.g08.bks.cpg/sg63_2_cif.got.tgz:3157.got - 2010.06.03 15:47:04.
