data_PCOD9475621
_publ_section_title
;
Structure prediction by ZEFSAII (Michael W. Deem and Ramdas Pophale) SiO2 
 PCOD9475621
Probable space group: C M C M
;
_chemical_formula_sum "Si O2"
_cell_formula_units_Z 104
_cell_length_a 32.972157
_cell_length_b 20.340836
_cell_length_c 8.330565
_cell_angle_alpha 90.000000
_cell_angle_beta 90.000000
_cell_angle_gamma 90.000000
_cell_volume 5587.153648
_symmetry_space_group_name_H-M "C M C M"
_symmetry_group_IT_number 63
_symmetry_cell_setting 'orthorhombic'
loop_
_space_group_symop_operation_xyz
x,y,z
-x,-y,1/2+z
x,-y,-z
-x,y,1/2-z
-x,-y,-z
x,y,1/2-z
-x,y,z
x,-y,1/2+z
1/2+x,1/2+y,z
1/2-x,1/2-y,1/2+z
1/2+x,1/2-y,-z
1/2-x,1/2+y,1/2-z
1/2-x,1/2-y,-z
1/2+x,1/2+y,1/2-z
1/2-x,1/2+y,z
1/2+x,1/2-y,1/2+z
loop_
_atom_site_type_symbol
_atom_site_label
_atom_site_fract_x
_atom_site_fract_y
_atom_site_fract_z
Si Si1 0.500000 0.424689 0.060050
Si Si2 0.773422 0.846817 0.056664
Si Si3 0.152104 0.072864 0.557548
Si Si4 0.401663 0.196354 0.946398
Si Si5 0.690954 0.792368 0.055583
Si Si6 0.046778 0.571352 0.556225
Si Si7 0.577079 0.341815 0.941916
O O1 0.500000 0.427489 0.250000
O O2 0.500000 0.500000 0.000000
O O3 0.539564 0.384467 0.004462
O O4 0.772747 0.848751 0.250000
O O5 0.803112 0.904629 0.001012
O O6 0.726670 0.842215 0.002318
O O7 0.794776 0.778989 0.004131
O O8 0.150844 0.074792 0.750000
O O9 0.118759 0.123245 0.492465
O O10 0.142450 0.000000 0.500000
O O11 0.401899 0.196460 0.750000
O O12 0.354682 0.193363 0.998189
O O13 0.426653 0.132842 0.000118
O O14 0.421117 0.265901 0.997729
O O15 0.690636 0.791048 0.250000
O O16 0.061681 0.500000 0.500000
O O17 0.046899 0.571925 0.750000
O O18 0.000000 0.578402 0.502255
O O19 0.574613 0.341146 0.750000
#
# Coordination Sequence:
#
# PCOD9475621 Si02
#       7
#     8  16  16  16  16  16  16
#     4  12  26  44  60  80 111 150 185 228 279 330
#     4   9  18  31  50  75 105 137 175 223 269 314
#     4  11  22  36  53  77 110 149 188 232 278 325
#     4   9  18  32  56  84 109 141 180 223 270 324
#     4   9  16  31  53  77 103 136 176 217 267 323
#     4   9  18  34  55  78 106 139 174 212 259 319
#     4  11  22  38  60  85 109 142 186 231 275 330
#
# _framework density 18.614128999999998
#
# number of rings (size 3 to 8) (size 9 to 14) (size 15 to 20)
#    0.000    2.154    1.538    2.077    1.077    0.615 
#    0.000    3.077    0.000    0.000    0.000    0.000 
#    0.000    0.000    0.000    0.000    0.000    0.000 
#
# Total GULP energy -290096.021870 kJ/mol
# GULP energy per Si atom -5578.769651 kJ/mol
# Density = 1.857176 g / cm^3
# Si number density = 18.614129 Si / 1000 Ang^3
#
#
#
# Elastic Constant Matrix: (Units=GPa)
#
#
# Indices 1 2 3 4 5 6 
#
# 1 122.1037 82.1897 18.1801 0.0000 0.0000 0.0000
# 2 82.1897 155.3514 17.9574 0.0000 0.0000 0.0000
# 3 18.1801 17.9574 25.6346 0.0000 0.0000 0.0000
# 4 0.0000 0.0000 0.0000 20.8716 0.0000 0.0000
# 5 0.0000 0.0000 0.0000 0.0000 12.3044 0.0000
# 6 0.0000 0.0000 0.0000 0.0000 0.0000 26.7797
#
#
#
# Elastic Compliance Matrix: (Units=1/GPa)
#
#
# Indices 1 2 3 4 5 6 
#
# 1 0.013259 -0.006450 -0.004885 0.000000 0.000000 0.000000
# 2 -0.006450 0.010142 -0.002530 0.000000 0.000000 0.000000
# 3 -0.004885 -0.002530 0.044246 0.000000 0.000000 0.000000
# 4 0.000000 0.000000 0.000000 0.047912 0.000000 0.000000
# 5 0.000000 0.000000 0.000000 0.000000 0.081272 0.000000
# 6 0.000000 0.000000 0.000000 0.000000 0.000000 0.037342
#
#
# Mechanical properties :
#
#
# Convention : Reuss Voigt Hill
#
# Bulk Modulus (GPa) = 25.05191 59.97157 42.51174
# Shear Modulus (GPa) = 18.16809 24.30864 21.23837
#
# Velocity S-wave (km/s) = 3.12755 3.61768 3.38151
# Velocity P-wave (km/s) = 5.15071 7.05254 6.17528
#
# Compressibility (1/GPa) = 0.03991712
#
# Stress axis : x y z
#
# Youngs Moduli (GPa) = 75.42294 98.60131 22.60067
#
# Poissons Ratio (x) = 0.63597 0.11040
# Poissons Ratio (y) = 0.48647 0.05718
# Poissons Ratio (z) = 0.36842 0.24948
#
# Static dielectric constant tensor:
#      x y z
#    x 1.672760 0.000000 0.000000 
#    y 0.000000 1.623920 0.000000 
#    z 0.000000 0.000000 1.641920 
# 
# From -- ./inp_files/14485.got.cif
#   From: 2010.05.17/outbox.cif.g08.bks.cpg/sg63_8_cif.got.tgz:14485.got - 2010.06.03 15:47:04.
