data_PCOD9475570
_publ_section_title
;
Structure prediction by ZEFSAII (Michael W. Deem and Ramdas Pophale) SiO2 
 PCOD9475570
Probable space group: C M C M
;
_chemical_formula_sum "Si O2"
_cell_formula_units_Z 96
_cell_length_a 30.353991
_cell_length_b 17.017736
_cell_length_c 7.955991
_cell_angle_alpha 90.000000
_cell_angle_beta 90.000000
_cell_angle_gamma 90.000000
_cell_volume 4109.716521
_symmetry_space_group_name_H-M "C M C M"
_symmetry_group_IT_number 63
_symmetry_cell_setting 'orthorhombic'
loop_
_space_group_symop_operation_xyz
x,y,z
-x,-y,1/2+z
x,-y,-z
-x,y,1/2-z
-x,-y,-z
x,y,1/2-z
-x,y,z
x,-y,1/2+z
1/2+x,1/2+y,z
1/2-x,1/2-y,1/2+z
1/2+x,1/2-y,-z
1/2-x,1/2+y,1/2-z
1/2-x,1/2-y,-z
1/2+x,1/2+y,1/2-z
1/2-x,1/2+y,z
1/2+x,1/2-y,1/2+z
loop_
_atom_site_type_symbol
_atom_site_label
_atom_site_fract_x
_atom_site_fract_y
_atom_site_fract_z
Si Si1 0.950934 0.119803 0.943155
Si Si2 0.304903 0.792781 0.940298
Si Si3 0.451274 0.794401 0.053594
Si Si4 0.145661 0.864364 0.456432
Si Si5 0.761987 0.083195 0.948164
Si Si6 0.626213 0.911166 0.449625
O O1 0.951473 0.091857 0.750000
O O2 0.901998 0.103820 0.017790
O O3 0.000000 0.098878 0.016398
O O4 0.949161 0.214869 0.948095
O O5 0.295906 0.769468 0.750000
O O6 0.337378 0.723762 0.010167
O O7 0.260116 0.832588 0.009190
O O8 0.334665 0.870592 0.951270
O O9 0.445068 0.771168 0.250000
O O10 0.500000 0.827899 0.036935
O O11 0.416189 0.859183 0.009920
O O12 0.142420 0.863520 0.250000
O O13 0.187824 0.914095 0.513413
O O14 0.763295 0.080491 0.750000
O O15 0.740773 0.000000 0.000000
O O16 0.635596 0.905101 0.250000
O O17 0.619677 0.000000 0.500000
#
# Coordination Sequence:
#
# PCOD9475570 Si02
#       6
#    16  16  16  16  16  16
#     4   9  16  30  55  84 110 138 174 217 268 322
#     4  11  21  37  58  81 108 139 181 227 271 319
#     4   9  18  32  48  69 100 136 175 222 272 318
#     4   9  19  35  58  86 113 141 178 225 268 319
#     4  11  23  40  58  80 112 146 182 223 273 326
#     4  11  22  34  49  71 102 143 184 225 271 320
#
# _framework density 23.359275
#
# number of rings (size 3 to 8) (size 9 to 14) (size 15 to 20)
#    0.000    2.000    1.667    2.500    0.000    1.000 
#    0.000    4.167    0.000    0.500    0.000    0.000 
#    0.000    0.000    0.000    0.000    0.000    0.167 
#
# Total GULP energy -267551.428600 kJ/mol
# GULP energy per Si atom -5573.988096 kJ/mol
# Density = 2.330611 g / cm^3
# Si number density = 23.359275 Si / 1000 Ang^3
#
#
#
# Elastic Constant Matrix: (Units=GPa)
#
#
# Indices 1 2 3 4 5 6 
#
# 1 128.3995 5.7780 14.4048 0.0000 0.0000 0.0000
# 2 5.7780 90.8428 -0.6697 0.0000 0.0000 0.0000
# 3 14.4048 -0.6697 27.9026 0.0000 0.0000 0.0000
# 4 0.0000 0.0000 0.0000 5.5845 0.0000 0.0000
# 5 0.0000 0.0000 0.0000 0.0000 18.7792 0.0000
# 6 0.0000 0.0000 0.0000 0.0000 0.0000 20.6427
#
#
#
# Elastic Compliance Matrix: (Units=1/GPa)
#
#
# Indices 1 2 3 4 5 6 
#
# 1 0.008295 -0.000559 -0.004296 0.000000 0.000000 0.000000
# 2 -0.000559 0.011048 0.000554 0.000000 0.000000 0.000000
# 3 -0.004296 0.000554 0.038070 0.000000 0.000000 0.000000
# 4 0.000000 0.000000 0.000000 0.179068 0.000000 0.000000
# 5 0.000000 0.000000 0.000000 0.000000 0.053250 0.000000
# 6 0.000000 0.000000 0.000000 0.000000 0.000000 0.048443
#
#
# Mechanical properties :
#
#
# Convention : Reuss Voigt Hill
#
# Bulk Modulus (GPa) = 20.48744 31.79679 26.14212
# Shear Modulus (GPa) = 13.77230 24.17673 18.97452
#
# Velocity S-wave (km/s) = 2.43077 3.22062 2.85316
# Velocity P-wave (km/s) = 4.08263 5.24133 4.69784
#
# Compressibility (1/GPa) = 0.04881039
#
# Stress axis : x y z
#
# Youngs Moduli (GPa) = 120.55007 90.51669 26.26740
#
# Poissons Ratio (x) = 0.05062 0.11284
# Poissons Ratio (y) = 0.06742 -0.01455
# Poissons Ratio (z) = 0.51787 -0.05014
#
# Static dielectric constant tensor:
#      x y z
#    x 2.003750 0.000000 0.000000 
#    y 0.000000 1.875060 0.000000 
#    z 0.000000 0.000000 1.877500 
# 
# From -- ./inp_files/12424.got.cif
#   From: 2010.05.17/outbox.cif.g08.bks.cpg/sg63_7_cif.got.tgz:12424.got - 2010.06.03 15:47:04.
