data_PCOD9475624
_publ_section_title
;
Structure prediction by ZEFSAII (Michael W. Deem and Ramdas Pophale) SiO2 
 PCOD9475624
Probable space group: C M C M
;
_chemical_formula_sum "Si O2"
_cell_formula_units_Z 88
_cell_length_a 17.682107
_cell_length_b 31.011114
_cell_length_c 9.255319
_cell_angle_alpha 90.000000
_cell_angle_beta 90.000000
_cell_angle_gamma 90.000000
_cell_volume 5075.078613
_symmetry_space_group_name_H-M "C M C M"
_symmetry_group_IT_number 63
_symmetry_cell_setting 'orthorhombic'
loop_
_space_group_symop_operation_xyz
x,y,z
-x,-y,1/2+z
x,-y,-z
-x,y,1/2-z
-x,-y,-z
x,y,1/2-z
-x,y,z
x,-y,1/2+z
1/2+x,1/2+y,z
1/2-x,1/2-y,1/2+z
1/2+x,1/2-y,-z
1/2-x,1/2+y,1/2-z
1/2-x,1/2-y,-z
1/2+x,1/2+y,1/2-z
1/2-x,1/2+y,z
1/2+x,1/2-y,1/2+z
loop_
_atom_site_type_symbol
_atom_site_label
_atom_site_fract_x
_atom_site_fract_y
_atom_site_fract_z
Si Si1 0.500000 0.543970 0.082798
Si Si2 0.914167 0.809938 0.088734
Si Si3 0.767050 0.205091 0.078529
Si Si4 0.589220 0.954464 0.076415
Si Si5 0.791857 0.380077 0.421645
Si Si6 0.622722 0.409656 0.408762
O O1 0.500000 0.537952 0.250000
O O2 0.500000 0.500000 0.000000
O O3 0.424603 0.567955 0.031493
O O4 0.890469 0.793676 0.250000
O O5 0.910070 0.861479 0.099821
O O6 0.000000 0.795915 0.062142
O O7 0.855128 0.800419 0.963646
O O8 0.755350 0.206442 0.250000
O O9 0.750000 0.250000 0.000000
O O10 0.720672 0.164634 0.008854
O O11 0.597370 0.959677 0.250000
O O12 0.500000 0.946339 0.045541
O O13 0.641496 0.913330 0.035005
O O14 0.609744 0.000000 0.000000
O O15 0.800678 0.369800 0.250000
O O16 0.711888 0.405123 0.435689
O O17 0.610886 0.430131 0.250000
#
# Coordination Sequence:
#
# PCOD9475624 Si02
#       6
#     8  16  16  16  16  16
#     4  12  24  34  46  66  98 136 174 216 260 304
#     4   9  17  33  57  79 102 134 169 211 265 323
#     4  11  22  36  55  80 111 146 186 232 279 332
#     4   9  18  34  57  84 113 145 183 230 284 341
#     4   9  19  36  57  80 108 145 182 223 280 337
#     4   9  17  33  52  71  98 132 169 209 259 315
#
# _framework density 17.339632000000002
#
# number of rings (size 3 to 8) (size 9 to 14) (size 15 to 20)
#    0.000    2.364    0.909    3.545    0.000    4.727 
#    0.000    2.727    0.000    3.273    0.000    0.000 
#    0.000    0.000    0.000    0.000    0.000    0.000 
#
# Total GULP energy -244993.898446 kJ/mol
# GULP energy per Si atom -5568.043146 kJ/mol
# Density = 1.730017 g / cm^3
# Si number density = 17.339632 Si / 1000 Ang^3
#
#
#
# Elastic Constant Matrix: (Units=GPa)
#
#
# Indices 1 2 3 4 5 6 
#
# 1 86.3082 56.3376 47.7876 0.0000 0.0000 0.0000
# 2 56.3376 102.3388 73.5166 0.0000 0.0000 0.0000
# 3 47.7876 73.5166 126.6305 0.0000 0.0000 0.0000
# 4 0.0000 0.0000 0.0000 29.3515 0.0000 0.0000
# 5 0.0000 0.0000 0.0000 0.0000 19.0956 0.0000
# 6 0.0000 0.0000 0.0000 0.0000 0.0000 40.1105
#
#
#
# Elastic Compliance Matrix: (Units=1/GPa)
#
#
# Indices 1 2 3 4 5 6 
#
# 1 0.018325 -0.008783 -0.001816 0.000000 0.000000 0.000000
# 2 -0.008783 0.020972 -0.008861 0.000000 0.000000 0.000000
# 3 -0.001816 -0.008861 0.013727 0.000000 0.000000 0.000000
# 4 0.000000 0.000000 0.000000 0.034070 0.000000 0.000000
# 5 0.000000 0.000000 0.000000 0.000000 0.052368 0.000000
# 6 0.000000 0.000000 0.000000 0.000000 0.000000 0.024931
#
#
# Mechanical properties :
#
#
# Convention : Reuss Voigt Hill
#
# Bulk Modulus (GPa) = 70.90687 74.50677 72.70682
# Shear Modulus (GPa) = 24.03668 26.88722 25.46195
#
# Velocity S-wave (km/s) = 3.72725 3.94207 3.83616
# Velocity P-wave (km/s) = 7.71394 7.98638 7.85134
#
# Compressibility (1/GPa) = 0.01410300
#
# Stress axis : x y z
#
# Youngs Moduli (GPa) = 54.56911 47.68244 72.85054
#
# Poissons Ratio (x) = 0.41881 0.13232
# Poissons Ratio (y) = 0.47930 0.64552
# Poissons Ratio (z) = 0.09912 0.42251
#
# Static dielectric constant tensor:
#      x y z
#    x 1.592450 0.000000 0.000000 
#    y 0.000000 1.396330 0.000000 
#    z 0.000000 0.000000 1.600810 
# 
# From -- ./inp_files/6891.got.cif
#   From: 2010.05.17/outbox.cif.g08.bks.cpg/sg63_4_cif.got.tgz:6891.got - 2010.06.03 15:47:04.
