data_PCOD9475884
_publ_section_title
;
Structure prediction by ZEFSAII (Michael W. Deem and Ramdas Pophale) SiO2 
 PCOD9475884
Probable space group: C M C M
;
_chemical_formula_sum "Si O2"
_cell_formula_units_Z 112
_cell_length_a 11.231247
_cell_length_b 38.710951
_cell_length_c 14.149172
_cell_angle_alpha 90.000000
_cell_angle_beta 90.000000
_cell_angle_gamma 90.000000
_cell_volume 6151.667378
_symmetry_space_group_name_H-M "C M C M"
_symmetry_group_IT_number 63
_symmetry_cell_setting 'orthorhombic'
loop_
_space_group_symop_operation_xyz
x,y,z
-x,-y,1/2+z
x,-y,-z
-x,y,1/2-z
-x,-y,-z
x,y,1/2-z
-x,y,z
x,-y,1/2+z
1/2+x,1/2+y,z
1/2-x,1/2-y,1/2+z
1/2+x,1/2-y,-z
1/2-x,1/2+y,1/2-z
1/2-x,1/2-y,-z
1/2+x,1/2+y,1/2-z
1/2-x,1/2+y,z
1/2+x,1/2-y,1/2+z
loop_
_atom_site_type_symbol
_atom_site_label
_atom_site_fract_x
_atom_site_fract_y
_atom_site_fract_z
Si Si1 0.361787 0.023899 0.635145
Si Si2 0.357508 0.288988 0.356743
Si Si3 0.641928 0.102628 0.856698
Si Si4 0.250000 0.342966 1.000000
Si Si5 0.857508 0.288988 0.643257
Si Si6 0.638213 0.476101 0.635145
Si Si7 0.858072 0.102628 0.356699
O O1 0.365854 0.022610 0.750000
O O2 0.500000 0.015961 0.604766
O O3 0.331039 0.063561 0.610454
O O4 0.250000 0.000000 0.606085
O O5 0.314560 0.297265 0.250000
O O6 0.500000 0.287607 0.353032
O O7 0.323173 0.317417 0.432543
O O8 0.314862 0.250000 0.380201
O O9 0.691406 0.107676 0.750000
O O10 0.500000 0.103802 0.849561
O O11 0.681067 0.131659 0.929348
O O12 0.176828 0.317416 0.932542
O O13 0.318933 0.368341 0.929348
O O14 0.814561 0.297264 0.750000
O O15 0.000000 0.287607 0.646967
O O16 0.634146 0.477390 0.750000
O O17 0.500000 0.484039 0.604766
O O18 0.668961 0.436439 0.610454
O O19 0.808594 0.107675 0.250000
O O20 0.000000 0.103801 0.349562
#
# Coordination Sequence:
#
# PCOD9475884 Si02
#       7
#    16  16  16  16  16  16  16
#     4   8  14  28  50  72  96 132 175 215 258 307
#     4   9  19  35  52  72 100 131 163 203 250 296
#     4   9  19  34  50  72 104 136 165 206 261 309
#     4  12  19  30  53  78  98 128 172 206 241 300
#     4   9  19  35  52  72 100 131 163 203 250 296
#     4   8  14  28  50  72  96 132 175 215 258 307
#     4   9  19  34  50  72 104 136 165 206 261 309
#
# _framework density 18.206447000000001
#
# number of rings (size 3 to 8) (size 9 to 14) (size 15 to 20)
#    0.000    2.857    0.000    4.714    0.000    0.000 
#    0.000    3.571    0.000   10.286    0.000   12.000 
#    0.000    0.000    0.000    0.000    0.000    1.143 
#
# Total GULP energy -311777.110279 kJ/mol
# GULP energy per Si atom -5567.448398 kJ/mol
# Density = 1.816501 g / cm^3
# Si number density = 18.206447 Si / 1000 Ang^3
#
#
#
# Elastic Constant Matrix: (Units=GPa)
#
#
# Indices 1 2 3 4 5 6 
#
# 1 59.5844 67.9519 36.1691 0.0000 0.0000 0.0000
# 2 67.9519 159.4771 82.7702 0.0000 0.0000 0.0000
# 3 36.1691 82.7702 102.4307 0.0000 0.0000 0.0000
# 4 0.0000 0.0000 0.0000 -8.9973 0.0000 0.0000
# 5 0.0000 0.0000 0.0000 0.0000 17.9877 0.0000
# 6 0.0000 0.0000 0.0000 0.0000 0.0000 22.2210
#
#
#
# Elastic Compliance Matrix: (Units=1/GPa)
#
#
# Indices 1 2 3 4 5 6 
#
# 1 0.032662 -0.013660 -0.000495 0.000000 0.000000 0.000000
# 2 -0.013660 0.016513 -0.008520 0.000000 0.000000 0.000000
# 3 -0.000495 -0.008520 0.016822 0.000000 0.000000 0.000000
# 4 0.000000 0.000000 0.000000 -0.111144 0.000000 0.000000
# 5 0.000000 0.000000 0.000000 0.000000 0.055594 0.000000
# 6 0.000000 0.000000 0.000000 0.000000 0.000000 0.045002
#
#
# Mechanical properties :
#
#
# Convention : Reuss Voigt Hill
#
# Bulk Modulus (GPa) = 48.43373 77.25271 62.84322
# Shear Modulus (GPa) = 46.43374 15.21569 30.82471
#
# Velocity S-wave (km/s) = 5.05563 2.89404 4.11915
# Velocity P-wave (km/s) = 7.79355 7.32741 7.56407
#
# Compressibility (1/GPa) = 0.02064677
#
# Stress axis : x y z
#
# Youngs Moduli (GPa) = 30.61706 60.55921 59.44562
#
# Poissons Ratio (x) = 0.82723 0.02943
# Poissons Ratio (y) = 0.41823 0.50647
# Poissons Ratio (z) = 0.01516 0.51596
#
# Static dielectric constant tensor:
#      x y z
#    x 1.608420 0.000000 0.000000 
#    y 0.000000 1.633000 0.000000 
#    z 0.000000 0.000000 1.539150 
# 
# From -- ./inp_files/30397.got.cif
#   From: 2010.05.17/outbox.cif.g08.bks.cpg/sg63_16_cif.got.tgz:30397.got - 2010.06.03 15:47:04.
