data_PCOD9475984
_publ_section_title
;
Structure prediction by ZEFSAII (Michael W. Deem and Ramdas Pophale) SiO2 
 PCOD9475984
Probable space group: C M C M
;
_chemical_formula_sum "Si O2"
_cell_formula_units_Z 88
_cell_length_a 21.533739
_cell_length_b 26.989957
_cell_length_c 7.342612
_cell_angle_alpha 90.000000
_cell_angle_beta 90.000000
_cell_angle_gamma 90.000000
_cell_volume 4267.487103
_symmetry_space_group_name_H-M "C M C M"
_symmetry_group_IT_number 63
_symmetry_cell_setting 'orthorhombic'
loop_
_space_group_symop_operation_xyz
x,y,z
-x,-y,1/2+z
x,-y,-z
-x,y,1/2-z
-x,-y,-z
x,y,1/2-z
-x,y,z
x,-y,1/2+z
1/2+x,1/2+y,z
1/2-x,1/2-y,1/2+z
1/2+x,1/2-y,-z
1/2-x,1/2+y,1/2-z
1/2-x,1/2-y,-z
1/2+x,1/2+y,1/2-z
1/2-x,1/2+y,z
1/2+x,1/2-y,1/2+z
loop_
_atom_site_type_symbol
_atom_site_label
_atom_site_fract_x
_atom_site_fract_y
_atom_site_fract_z
Si Si1 0.500000 0.174596 0.973091
Si Si2 0.865895 0.663060 0.960754
Si Si3 0.365521 0.720314 0.529023
Si Si4 0.634867 0.558556 0.532416
Si Si5 0.232124 0.138540 0.527056
Si Si6 0.500000 0.440909 0.033208
Si Si7 0.500000 0.708738 0.956696
O O1 0.500000 0.177263 0.750000
O O2 0.434691 0.151498 0.034063
O O3 0.500000 0.231150 0.042421
O O4 0.867684 0.648009 0.750000
O O5 0.802725 0.640956 0.039424
O O6 0.859631 0.722907 0.968784
O O7 0.368280 0.720725 0.750000
O O8 0.307627 0.686870 0.473614
O O9 0.431883 0.697879 0.464981
O O10 0.642229 0.500000 0.500000
O O11 0.632604 0.565385 0.750000
O O12 0.691973 0.591404 0.466973
O O13 0.567036 0.575758 0.462057
O O14 0.234130 0.138890 0.750000
O O15 0.500000 0.432399 0.250000
O O16 0.500000 0.500000 0.000000
O O17 0.500000 0.689105 0.750000
#
# Coordination Sequence:
#
# PCOD9475984 Si02
#       7
#     8  16  16  16  16   8   8
#     4   8  14  24  39  55  74 102 134 161 188 224
#     4   9  16  27  41  58  80 106 133 162 193 228
#     4   9  16  26  39  57  81 108 134 161 191 227
#     4   9  17  30  45  61  80 103 131 164 198 233
#     4   9  17  27  41  60  81 104 131 162 198 234
#     4   8  14  25  43  61  77 100 130 161 194 229
#     4   8  14  23  36  54  77 104 134 162 188 219
#
# _framework density 20.621034000000002
#
# number of rings (size 3 to 8) (size 9 to 14) (size 15 to 20)
#    0.000    3.273    0.000    0.545    0.000    0.727 
#    0.000    5.455    0.000    0.000    0.000   13.364 
#    0.000    0.000    0.000    0.000    0.000    0.000 
#
# Total GULP energy -245264.120953 kJ/mol
# GULP energy per Si atom -5574.184567 kJ/mol
# Density = 2.057410 g / cm^3
# Si number density = 20.621034 Si / 1000 Ang^3
#
#
#
# Elastic Constant Matrix: (Units=GPa)
#
#
# Indices 1 2 3 4 5 6 
#
# 1 257.0659 60.4145 8.5953 0.0000 0.0000 0.0000
# 2 60.4145 53.8964 -5.4716 0.0000 0.0000 0.0000
# 3 8.5953 -5.4716 84.0947 0.0000 0.0000 0.0000
# 4 0.0000 0.0000 0.0000 5.4395 0.0000 0.0000
# 5 0.0000 0.0000 0.0000 0.0000 -1.6127 0.0000
# 6 0.0000 0.0000 0.0000 0.0000 0.0000 57.4166
#
#
#
# Elastic Compliance Matrix: (Units=1/GPa)
#
#
# Indices 1 2 3 4 5 6 
#
# 1 0.005355 -0.006098 -0.000944 0.000000 0.000000 0.000000
# 2 -0.006098 0.025622 0.002290 0.000000 0.000000 0.000000
# 3 -0.000944 0.002290 0.012137 0.000000 0.000000 0.000000
# 4 0.000000 0.000000 0.000000 0.183840 0.000000 0.000000
# 5 0.000000 0.000000 0.000000 0.000000 -0.620078 0.000000
# 6 0.000000 0.000000 0.000000 0.000000 0.000000 0.017417
#
#
# Mechanical properties :
#
#
# Convention : Reuss Voigt Hill
#
# Bulk Modulus (GPa) = 29.75289 58.01484 43.88386
# Shear Modulus (GPa) = -14.08449 34.34992 10.13272
#
# Velocity S-wave (km/s) = -2.61629 4.08581 2.21911
# Velocity P-wave (km/s) = 2.30935 7.10306 5.28141
#
# Compressibility (1/GPa) = 0.03361019
#
# Stress axis : x y z
#
# Youngs Moduli (GPa) = 186.74818 39.02839 82.39355
#
# Poissons Ratio (x) = 0.23800 0.07779
# Poissons Ratio (y) = 1.13884 -0.18871
# Poissons Ratio (z) = 0.17631 -0.08939
#
# Static dielectric constant tensor:
#      x y z
#    x 1.805140 0.000000 0.000000 
#    y 0.000000 1.681080 0.000000 
#    z 0.000000 0.000000 1.764660 
# 
# From -- ./inp_files/9028.got.cif
#   From: 2010.05.17/outbox.cif.g08.bks.cpg/sg63_5_cif.got.tgz:9028.got - 2010.06.03 15:47:04.
