data_PCOD9475490
_publ_section_title
;
Structure prediction by ZEFSAII (Michael W. Deem and Ramdas Pophale) SiO2 
 PCOD9475490
Probable space group: C M C M
;
_chemical_formula_sum "Si O2"
_cell_formula_units_Z 96
_cell_length_a 24.848604
_cell_length_b 13.923157
_cell_length_c 14.593463
_cell_angle_alpha 90.000000
_cell_angle_beta 90.000000
_cell_angle_gamma 90.000000
_cell_volume 5048.915202
_symmetry_space_group_name_H-M "C M C M"
_symmetry_group_IT_number 63
_symmetry_cell_setting 'orthorhombic'
loop_
_space_group_symop_operation_xyz
x,y,z
-x,-y,1/2+z
x,-y,-z
-x,y,1/2-z
-x,-y,-z
x,y,1/2-z
-x,y,z
x,-y,1/2+z
1/2+x,1/2+y,z
1/2-x,1/2-y,1/2+z
1/2+x,1/2-y,-z
1/2-x,1/2+y,1/2-z
1/2-x,1/2-y,-z
1/2+x,1/2+y,1/2-z
1/2-x,1/2+y,z
1/2+x,1/2-y,1/2+z
loop_
_atom_site_type_symbol
_atom_site_label
_atom_site_fract_x
_atom_site_fract_y
_atom_site_fract_z
Si Si1 0.939643 0.720655 0.861852
Si Si2 0.337417 0.335637 0.861280
Si Si3 0.274858 0.739243 0.638544
Si Si4 0.674621 0.066983 0.088440
Si Si5 0.940521 0.500189 0.359843
Si Si6 0.216830 0.975327 0.354874
O O1 0.937529 0.719832 0.750000
O O2 0.892596 0.789805 0.895485
O O3 0.931667 0.610083 0.891633
O O4 0.000000 0.750271 0.887895
O O5 0.341541 0.343504 0.750000
O O6 0.287601 0.264362 0.877273
O O7 0.319675 0.440385 0.896374
O O8 0.283585 0.746848 0.750000
O O9 0.308916 0.821647 0.588730
O O10 0.285240 0.631262 0.605037
O O11 0.612721 0.058821 0.117728
O O12 0.722281 0.017133 0.147777
O O13 0.678885 0.000000 0.000000
O O14 0.943404 0.496621 0.250000
O O15 0.000000 0.532617 0.392513
O O16 0.199377 0.962911 0.250000
#
# Coordination Sequence:
#
# PCOD9475490 Si02
#       6
#    16  16  16  16  16  16
#     4   8  13  22  40  66  89 107 135 181 230 267
#     4   8  13  22  39  63  86 108 136 175 222 261
#     4   9  17  30  48  66  87 118 154 187 218 264
#     4  11  21  30  44  68  97 122 146 185 237 289
#     4   9  17  30  48  67  87 115 153 192 226 267
#     4   9  17  30  47  64  86 120 158 190 221 266
#
# _framework density 19.013985000000002
#
# number of rings (size 3 to 8) (size 9 to 14) (size 15 to 20)
#    0.000    3.000    0.000    4.500    0.000    3.667 
#    0.000    0.000    0.000    1.000    0.000    4.667 
#    0.000   13.333    0.000    0.000    0.000    0.000 
#
# Total GULP energy -267473.937922 kJ/mol
# GULP energy per Si atom -5572.373707 kJ/mol
# Density = 1.897071 g / cm^3
# Si number density = 19.013985 Si / 1000 Ang^3
#
#
#
# Elastic Constant Matrix: (Units=GPa)
#
#
# Indices 1 2 3 4 5 6 
#
# 1 155.4165 67.0811 -0.6826 0.0000 0.0000 0.0000
# 2 67.0811 105.0250 -8.9206 0.0000 0.0000 0.0000
# 3 -0.6826 -8.9206 27.7356 0.0000 0.0000 0.0000
# 4 0.0000 0.0000 0.0000 12.2747 0.0000 0.0000
# 5 0.0000 0.0000 0.0000 0.0000 -8.8779 0.0000
# 6 0.0000 0.0000 0.0000 0.0000 0.0000 24.0279
#
#
#
# Elastic Compliance Matrix: (Units=1/GPa)
#
#
# Indices 1 2 3 4 5 6 
#
# 1 0.008957 -0.005863 -0.001665 0.000000 0.000000 0.000000
# 2 -0.005863 0.013626 0.004238 0.000000 0.000000 0.000000
# 3 -0.001665 0.004238 0.037377 0.000000 0.000000 0.000000
# 4 0.000000 0.000000 0.000000 0.081469 0.000000 0.000000
# 5 0.000000 0.000000 0.000000 0.000000 -0.112640 0.000000
# 6 0.000000 0.000000 0.000000 0.000000 0.000000 0.041618
#
#
# Mechanical properties :
#
#
# Convention : Reuss Voigt Hill
#
# Bulk Modulus (GPa) = 18.73314 44.79256 31.76285
# Shear Modulus (GPa) = 52.75336 20.86488 36.80912
#
# Velocity S-wave (km/s) = 5.27302 3.31621 4.40466
# Velocity P-wave (km/s) = 6.85176 6.18642 6.52758
#
# Compressibility (1/GPa) = 0.05338135
#
# Stress axis : x y z
#
# Youngs Moduli (GPa) = 111.63836 73.38827 26.75445
#
# Poissons Ratio (x) = 0.43026 0.04455
# Poissons Ratio (y) = 0.65451 -0.11339
# Poissons Ratio (z) = 0.18590 -0.31104
#
# Static dielectric constant tensor:
#      x y z
#    x 1.669300 0.000000 0.000000 
#    y 0.000000 1.666360 0.000000 
#    z 0.000000 0.000000 1.738560 
# 
# From -- ./inp_files/56701.got.cif
#   From: 2010.05.17/outbox.cif.g08.bks.cpg/sg63_29_cif.got.tgz:56701.got - 2010.06.03 15:47:04.
