data_PCOD9475651
_publ_section_title
;
Structure prediction by ZEFSAII (Michael W. Deem and Ramdas Pophale) SiO2 
 PCOD9475651
Probable space group: C M C M
;
_chemical_formula_sum "Si O2"
_cell_formula_units_Z 80
_cell_length_a 7.813387
_cell_length_b 23.409435
_cell_length_c 23.641948
_cell_angle_alpha 90.000000
_cell_angle_beta 90.000000
_cell_angle_gamma 90.000000
_cell_volume 4324.277194
_symmetry_space_group_name_H-M "C M C M"
_symmetry_group_IT_number 63
_symmetry_cell_setting 'orthorhombic'
loop_
_space_group_symop_operation_xyz
x,y,z
-x,-y,1/2+z
x,-y,-z
-x,y,1/2-z
-x,-y,-z
x,y,1/2-z
-x,y,z
x,-y,1/2+z
1/2+x,1/2+y,z
1/2-x,1/2-y,1/2+z
1/2+x,1/2-y,-z
1/2-x,1/2+y,1/2-z
1/2-x,1/2-y,-z
1/2+x,1/2+y,1/2-z
1/2-x,1/2+y,z
1/2+x,1/2-y,1/2+z
loop_
_atom_site_type_symbol
_atom_site_label
_atom_site_fract_x
_atom_site_fract_y
_atom_site_fract_z
Si Si1 0.195889 0.339713 0.872638
Si Si2 0.000000 0.561381 0.575291
Si Si3 0.292353 0.179051 0.250000
Si Si4 0.000000 0.426399 0.558384
Si Si5 0.292733 0.311893 0.250000
Si Si6 0.192243 0.732457 0.562016
Si Si7 0.304342 0.629144 0.632570
O O1 0.259357 0.349953 0.809037
O O2 0.300833 0.289865 0.901347
O O3 0.000000 0.315647 0.868010
O O4 0.162327 0.394239 0.912484
O O5 0.831819 0.584985 0.607124
O O6 0.000000 0.492750 0.573428
O O7 0.000000 0.580571 0.509197
O O8 0.500000 0.177569 0.250000
O O9 0.235450 0.245631 0.250000
O O10 0.500000 0.309316 0.250000
O O11 0.244118 0.345506 0.306857
O O12 0.250000 0.750000 0.500000
O O13 0.303435 0.683528 0.590659
O O14 0.000000 0.709723 0.560115
O O15 0.500000 0.607645 0.637760
#
# Coordination Sequence:
#
# PCOD9475651 Si02
#       7
#    16   8   8   8   8  16  16
#     4   9  18  34  55  79 107 151 193 241 296 347
#     4  11  22  43  59  89 119 164 210 255 304 355
#     4   9  14  28  54  80 110 145 196 233 287 366
#     4   9  22  39  63  79 121 160 208 261 290 355
#     4   9  18  33  55  87 120 161 186 240 310 368
#     4  12  22  33  52  86 122 155 194 248 308 371
#     4  11  22  38  59  87 123 158 200 247 309 367
#
# _framework density 18.500202000000002
#
# number of rings (size 3 to 8) (size 9 to 14) (size 15 to 20)
#    0.600    1.200    3.000    3.000    0.000    0.400 
#    0.000    6.500    0.000    0.000    0.000    0.000 
#    0.000    0.000    0.000    0.000    0.000    0.000 
#
# Total GULP energy -222961.633717 kJ/mol
# GULP energy per Si atom -5574.040843 kJ/mol
# Density = 1.845809 g / cm^3
# Si number density = 18.500202 Si / 1000 Ang^3
#
#
#
# Elastic Constant Matrix: (Units=GPa)
#
#
# Indices 1 2 3 4 5 6 
#
# 1 66.2247 16.8955 12.8994 0.0000 0.0000 0.0000
# 2 16.8955 69.0463 3.9560 0.0000 0.0000 0.0000
# 3 12.8994 3.9560 74.0410 0.0000 0.0000 0.0000
# 4 0.0000 0.0000 0.0000 18.7334 0.0000 0.0000
# 5 0.0000 0.0000 0.0000 0.0000 14.0070 0.0000
# 6 0.0000 0.0000 0.0000 0.0000 0.0000 21.7964
#
#
#
# Elastic Compliance Matrix: (Units=1/GPa)
#
#
# Indices 1 2 3 4 5 6 
#
# 1 0.016622 -0.003913 -0.002687 0.000000 0.000000 0.000000
# 2 -0.003913 0.015449 -0.000144 0.000000 0.000000 0.000000
# 3 -0.002687 -0.000144 0.013982 0.000000 0.000000 0.000000
# 4 0.000000 0.000000 0.000000 0.053381 0.000000 0.000000
# 5 0.000000 0.000000 0.000000 0.000000 0.071393 0.000000
# 6 0.000000 0.000000 0.000000 0.000000 0.000000 0.045879
#
#
# Mechanical properties :
#
#
# Convention : Reuss Voigt Hill
#
# Bulk Modulus (GPa) = 30.70791 30.75710 30.73251
# Shear Modulus (GPa) = 20.74278 22.61143 21.67710
#
# Velocity S-wave (km/s) = 3.35209 3.49983 3.42676
# Velocity P-wave (km/s) = 5.62288 5.74396 5.68374
#
# Compressibility (1/GPa) = 0.03256490
#
# Stress axis : x y z
#
# Youngs Moduli (GPa) = 60.16182 64.72961 71.52163
#
# Poissons Ratio (x) = 0.25331 0.19216
# Poissons Ratio (y) = 0.23544 0.01027
# Poissons Ratio (z) = 0.16164 0.00930
#
# Static dielectric constant tensor:
#      x y z
#    x 1.646130 0.000000 0.000000 
#    y 0.000000 1.873630 0.000000 
#    z 0.000000 0.000000 1.676700 
# 
# From -- ./inp_files/59810.got.cif
#   From: 2010.05.17/outbox.cif.g08.bks.cpg/sg63_30_cif.got.tgz:59810.got - 2010.06.03 15:47:04.
