data_PCOD9475531
_publ_section_title
;
Structure prediction by ZEFSAII (Michael W. Deem and Ramdas Pophale) SiO2 
 PCOD9475531
Probable space group: C M C M
;
_chemical_formula_sum "Si O2"
_cell_formula_units_Z 72
_cell_length_a 19.498862
_cell_length_b 23.766607
_cell_length_c 8.550847
_cell_angle_alpha 90.000000
_cell_angle_beta 90.000000
_cell_angle_gamma 90.000000
_cell_volume 3962.648824
_symmetry_space_group_name_H-M "C M C M"
_symmetry_group_IT_number 63
_symmetry_cell_setting 'orthorhombic'
loop_
_space_group_symop_operation_xyz
x,y,z
-x,-y,1/2+z
x,-y,-z
-x,y,1/2-z
-x,-y,-z
x,y,1/2-z
-x,y,z
x,-y,1/2+z
1/2+x,1/2+y,z
1/2-x,1/2-y,1/2+z
1/2+x,1/2-y,-z
1/2-x,1/2+y,1/2-z
1/2-x,1/2-y,-z
1/2+x,1/2+y,1/2-z
1/2-x,1/2+y,z
1/2+x,1/2-y,1/2+z
loop_
_atom_site_type_symbol
_atom_site_label
_atom_site_fract_x
_atom_site_fract_y
_atom_site_fract_z
Si Si1 0.000000 0.439187 0.436154
Si Si2 0.270588 0.061779 0.436732
Si Si3 0.115832 0.060312 0.937064
Si Si4 0.618651 0.856894 0.438845
Si Si5 0.500000 0.358541 0.938227
Si Si6 0.500000 0.771643 0.059897
O O1 0.000000 0.500000 0.500000
O O2 0.066908 0.406438 0.486024
O O3 0.000000 0.438600 0.250000
O O4 0.272164 0.058661 0.250000
O O5 0.192732 0.066937 0.497640
O O6 0.311279 0.117932 0.491814
O O7 0.296132 0.000000 0.500000
O O8 0.117348 0.059196 0.750000
O O9 0.066209 0.109017 0.997331
O O10 0.090139 0.000000 0.000000
O O11 0.626479 0.853630 0.250000
O O12 0.571552 0.802970 0.487648
O O13 0.500000 0.360912 0.750000
O O14 0.500000 0.293186 0.986229
O O15 0.500000 0.775780 0.250000
#
# Coordination Sequence:
#
# PCOD9475531 Si02
#       6
#     8  16  16  16   8   8
#     4   9  17  26  42  67  98 133 175 217 260 309
#     4  11  21  34  53  81 112 145 179 221 273 326
#     4  11  22  38  59  85 112 141 174 217 269 327
#     4   9  17  33  52  74 104 142 182 223 265 312
#     4  11  21  38  61  85 110 140 177 222 270 323
#     4   8  18  36  59  80 106 145 188 227 267 310
#
# _framework density 18.169665999999999
#
# number of rings (size 3 to 8) (size 9 to 14) (size 15 to 20)
#    0.000    2.000    0.000    8.000    0.000    2.667 
#    0.000    5.000    0.000    0.000    0.000    0.000 
#    0.000    0.000    0.000    0.000    0.000    0.000 
#
# Total GULP energy -200578.853734 kJ/mol
# GULP energy per Si atom -5571.634826 kJ/mol
# Density = 1.812831 g / cm^3
# Si number density = 18.169666 Si / 1000 Ang^3
#
#
#
# Elastic Constant Matrix: (Units=GPa)
#
#
# Indices 1 2 3 4 5 6 
#
# 1 93.9970 71.0267 36.4535 0.0000 0.0000 0.0000
# 2 71.0267 162.0334 48.9513 0.0000 0.0000 0.0000
# 3 36.4535 48.9513 95.0186 0.0000 0.0000 0.0000
# 4 0.0000 0.0000 0.0000 20.0689 0.0000 0.0000
# 5 0.0000 0.0000 0.0000 0.0000 -42.0500 0.0000
# 6 0.0000 0.0000 0.0000 0.0000 0.0000 63.7184
#
#
#
# Elastic Compliance Matrix: (Units=1/GPa)
#
#
# Indices 1 2 3 4 5 6 
#
# 1 0.016650 -0.006358 -0.003112 0.000000 0.000000 0.000000
# 2 -0.006358 0.009737 -0.002577 0.000000 0.000000 0.000000
# 3 -0.003112 -0.002577 0.013046 0.000000 0.000000 0.000000
# 4 0.000000 0.000000 0.000000 0.049828 0.000000 0.000000
# 5 0.000000 0.000000 0.000000 0.000000 -0.023781 0.000000
# 6 0.000000 0.000000 0.000000 0.000000 0.000000 0.015694
#
#
# Mechanical properties :
#
#
# Convention : Reuss Voigt Hill
#
# Bulk Modulus (GPa) = 65.19650 73.76801 69.48226
# Shear Modulus (GPa) = 45.29729 21.32197 33.30963
#
# Velocity S-wave (km/s) = 4.99843 3.42934 4.28630
# Velocity P-wave (km/s) = 8.32300 7.50788 7.92592
#
# Compressibility (1/GPa) = 0.01533825
#
# Stress axis : x y z
#
# Youngs Moduli (GPa) = 60.05989 102.69840 76.65288
#
# Poissons Ratio (x) = 0.65299 0.23855
# Poissons Ratio (y) = 0.38188 0.19754
# Poissons Ratio (z) = 0.18691 0.26466
#
# Static dielectric constant tensor:
#      x y z
#    x 1.638780 0.000000 0.000000 
#    y 0.000000 1.623470 0.000000 
#    z 0.000000 0.000000 1.611140 
# 
# From -- ./inp_files/6178.got.cif
#   From: 2010.05.17/outbox.cif.g08.bks.cpg/sg63_4_cif.got.tgz:6178.got - 2010.06.03 15:47:04.
