data_PCOD9475675
_publ_section_title
;
Structure prediction by ZEFSAII (Michael W. Deem and Ramdas Pophale) SiO2 
 PCOD9475675
Probable space group: C M C M
;
_chemical_formula_sum "Si O2"
_cell_formula_units_Z 64
_cell_length_a 22.984908
_cell_length_b 9.503929
_cell_length_c 14.239424
_cell_angle_alpha 90.000000
_cell_angle_beta 90.000000
_cell_angle_gamma 90.000000
_cell_volume 3110.558511
_symmetry_space_group_name_H-M "C M C M"
_symmetry_group_IT_number 63
_symmetry_cell_setting 'orthorhombic'
loop_
_space_group_symop_operation_xyz
x,y,z
-x,-y,1/2+z
x,-y,-z
-x,y,1/2-z
-x,-y,-z
x,y,1/2-z
-x,y,z
x,-y,1/2+z
1/2+x,1/2+y,z
1/2-x,1/2-y,1/2+z
1/2+x,1/2-y,-z
1/2-x,1/2+y,1/2-z
1/2-x,1/2-y,-z
1/2+x,1/2+y,1/2-z
1/2-x,1/2+y,z
1/2+x,1/2-y,1/2+z
loop_
_atom_site_type_symbol
_atom_site_label
_atom_site_fract_x
_atom_site_fract_y
_atom_site_fract_z
Si Si1 0.804259 0.180059 0.750000
Si Si2 0.316924 0.982829 0.250000
Si Si3 0.500000 0.380391 0.136793
Si Si4 0.112576 0.623126 0.569448
Si Si5 0.374038 0.357769 0.060668
Si Si6 0.500000 0.288231 0.861287
O O1 0.741309 0.109618 0.750000
O O2 0.803683 0.350409 0.750000
O O3 0.838046 0.130732 0.843562
O O4 0.353413 0.940951 0.157463
O O5 0.500000 0.361799 0.250000
O O6 0.440357 0.322727 0.093133
O O7 0.500000 0.547120 0.114117
O O8 0.093635 0.500000 0.500000
O O9 0.148900 0.732846 0.505844
O O10 0.057502 0.711196 0.604253
O O11 0.373525 0.500000 0.000000
O O12 0.500000 0.282250 0.750000
#
# Coordination Sequence:
#
# PCOD9475675 Si02
#       6
#     8   8   8  16  16   8
#     4  12  30  51  72 103 139 186 238 304 349 414
#     4  12  30  51  72 103 139 182 246 296 355 416
#     4  11  22  40  71 108 147 185 230 278 348 424
#     4  12  25  46  71 105 146 184 230 290 353 423
#     4  12  25  45  74 107 145 188 232 284 355 421
#     4  11  22  39  71 107 145 187 226 283 349 417
#
# _framework density 20.575081999999998
#
# number of rings (size 3 to 8) (size 9 to 14) (size 15 to 20)
#    0.000    0.250    7.500    1.500    3.500    2.000 
#    0.000    2.500    0.000    0.000    0.000    0.000 
#    0.000    0.000    0.000    0.000    0.000    0.000 
#
# Total GULP energy -179079.479183 kJ/mol
# GULP energy per Si atom -5596.233724 kJ/mol
# Density = 2.052825 g / cm^3
# Si number density = 20.575082 Si / 1000 Ang^3
#
#
#
# Elastic Constant Matrix: (Units=GPa)
#
#
# Indices 1 2 3 4 5 6 
#
# 1 84.5243 5.0232 47.1424 0.0000 0.0000 0.0000
# 2 5.0232 76.8539 49.8578 0.0000 0.0000 0.0000
# 3 47.1424 49.8578 158.7692 0.0000 0.0000 0.0000
# 4 0.0000 0.0000 0.0000 42.0094 0.0000 0.0000
# 5 0.0000 0.0000 0.0000 0.0000 35.5191 0.0000
# 6 0.0000 0.0000 0.0000 0.0000 0.0000 20.2060
#
#
#
# Elastic Compliance Matrix: (Units=1/GPa)
#
#
# Indices 1 2 3 4 5 6 
#
# 1 0.014500 0.002318 -0.005033 0.000000 0.000000 0.000000
# 2 0.002318 0.016711 -0.005936 0.000000 0.000000 0.000000
# 3 -0.005033 -0.005936 0.009657 0.000000 0.000000 0.000000
# 4 0.000000 0.000000 0.000000 0.023804 0.000000 0.000000
# 5 0.000000 0.000000 0.000000 0.000000 0.028154 0.000000
# 6 0.000000 0.000000 0.000000 0.000000 0.000000 0.049490
#
#
# Mechanical properties :
#
#
# Convention : Reuss Voigt Hill
#
# Bulk Modulus (GPa) = 42.43546 58.24380 50.33963
# Shear Modulus (GPa) = 29.85518 34.08849 31.97183
#
# Velocity S-wave (km/s) = 3.81338 4.07478 3.94624
# Velocity P-wave (km/s) = 6.32919 7.10688 6.72928
#
# Compressibility (1/GPa) = 0.02356520
#
# Stress axis : x y z
#
# Youngs Moduli (GPa) = 68.96343 59.84082 103.55220
#
# Poissons Ratio (x) = -0.13868 0.52121
# Poissons Ratio (y) = -0.15982 0.61467
# Poissons Ratio (z) = 0.34711 0.35520
#
# Static dielectric constant tensor:
#      x y z
#    x 1.710690 0.000000 0.000000 
#    y 0.000000 1.722430 0.000000 
#    z 0.000000 0.000000 1.748780 
# 
# From -- ./inp_files/36272.got.cif
#   From: 2010.05.17/outbox.cif.g08.bks.cpg/sg63_19_cif.got.tgz:36272.got - 2010.06.03 15:47:04.
