data_PCOD9475876
_publ_section_title
;
Structure prediction by ZEFSAII (Michael W. Deem and Ramdas Pophale) SiO2 
 PCOD9475876
Probable space group: C M C M
;
_chemical_formula_sum "Si O2"
_cell_formula_units_Z 84
_cell_length_a 12.454604
_cell_length_b 29.825026
_cell_length_c 11.466961
_cell_angle_alpha 90.000000
_cell_angle_beta 90.000000
_cell_angle_gamma 90.000000
_cell_volume 4259.504583
_symmetry_space_group_name_H-M "C M C M"
_symmetry_group_IT_number 63
_symmetry_cell_setting 'orthorhombic'
loop_
_space_group_symop_operation_xyz
x,y,z
-x,-y,1/2+z
x,-y,-z
-x,y,1/2-z
-x,-y,-z
x,y,1/2-z
-x,y,z
x,-y,1/2+z
1/2+x,1/2+y,z
1/2-x,1/2-y,1/2+z
1/2+x,1/2-y,-z
1/2-x,1/2+y,1/2-z
1/2-x,1/2-y,-z
1/2+x,1/2+y,1/2-z
1/2-x,1/2+y,z
1/2+x,1/2-y,1/2+z
loop_
_atom_site_type_symbol
_atom_site_label
_atom_site_fract_x
_atom_site_fract_y
_atom_site_fract_z
Si Si1 0.000000 0.235492 0.619969
Si Si2 0.500000 0.406873 0.250000
Si Si3 0.619566 0.827719 0.250000
Si Si4 0.727835 0.378409 0.611992
Si Si5 0.252052 0.083305 0.750000
Si Si6 0.670187 0.790858 0.500782
Si Si7 0.500000 0.359446 0.001520
Si Si8 0.126216 0.446705 0.483381
O O1 0.906682 0.270512 0.597326
O O2 0.000000 0.216636 0.750000
O O3 0.000000 0.194614 0.525766
O O4 0.376395 0.427309 0.250000
O O5 0.500000 0.379631 0.130531
O O6 0.500000 0.849636 0.250000
O O7 0.717841 0.863374 0.250000
O O8 0.627250 0.799482 0.369640
O O9 0.726879 0.371894 0.750000
O O10 0.782551 0.337215 0.544820
O O11 0.605937 0.377098 0.564151
O O12 0.800401 0.421324 0.578591
O O13 0.313527 0.064736 0.862932
O O14 0.750000 0.750000 0.500000
O O15 0.126701 0.500000 0.500000
O O16 0.000000 0.431910 0.484361
#
# Coordination Sequence:
#
# PCOD9475876 Si02
#       8
#     8   4   8  16   8  16   8  16
#     4  12  26  40  62  95 136 183 237 291 351 408
#     4  12  22  44  74 106 136 186 232 288 338 412
#     4  12  24  44  68  97 137 184 242 295 345 415
#     4  12  27  46  68 101 146 184 232 293 361 421
#     4  12  24  46  76 105 141 177 241 292 348 424
#     4  12  26  42  63  96 134 184 235 287 345 409
#     4  12  23  46  71  98 138 193 240 282 344 419
#     4  11  26  48  77 107 137 180 231 293 362 425
#
# _framework density 19.720603000000001
#
# number of rings (size 3 to 8) (size 9 to 14) (size 15 to 20)
#    0.000    0.190    7.143    1.714    5.333    0.381 
#    1.714    1.905    0.000    0.000    0.000    0.000 
#    0.000    0.000    0.000    0.000    0.000    0.000 
#
# Total GULP energy -234189.261994 kJ/mol
# GULP energy per Si atom -5575.934809 kJ/mol
# Density = 1.967572 g / cm^3
# Si number density = 19.720603 Si / 1000 Ang^3
#
#
#
# Elastic Constant Matrix: (Units=GPa)
#
#
# Indices 1 2 3 4 5 6 
#
# 1 158.6770 39.2635 38.2359 0.0000 0.0000 0.0000
# 2 39.2635 77.6198 19.2487 0.0000 0.0000 0.0000
# 3 38.2359 19.2487 148.2501 0.0000 0.0000 0.0000
# 4 0.0000 0.0000 0.0000 23.9958 0.0000 0.0000
# 5 0.0000 0.0000 0.0000 0.0000 24.2670 0.0000
# 6 0.0000 0.0000 0.0000 0.0000 0.0000 26.1211
#
#
#
# Elastic Compliance Matrix: (Units=1/GPa)
#
#
# Indices 1 2 3 4 5 6 
#
# 1 0.007510 -0.003429 -0.001492 0.000000 0.000000 0.000000
# 2 -0.003429 0.014878 -0.001047 0.000000 0.000000 0.000000
# 3 -0.001492 -0.001047 0.007266 0.000000 0.000000 0.000000
# 4 0.000000 0.000000 0.000000 0.041674 0.000000 0.000000
# 5 0.000000 0.000000 0.000000 0.000000 0.041208 0.000000
# 6 0.000000 0.000000 0.000000 0.000000 0.000000 0.038283
#
#
# Mechanical properties :
#
#
# Convention : Reuss Voigt Hill
#
# Bulk Modulus (GPa) = 56.44096 64.22702 60.33399
# Shear Modulus (GPa) = 29.64528 34.06338 31.85433
#
# Velocity S-wave (km/s) = 3.88140 4.16059 4.02342
# Velocity P-wave (km/s) = 6.98351 7.46457 7.22805
#
# Compressibility (1/GPa) = 0.01771763
#
# Stress axis : x y z
#
# Youngs Moduli (GPa) = 133.15502 67.21537 137.62576
#
# Poissons Ratio (x) = 0.23048 0.20530
# Poissons Ratio (y) = 0.45659 0.14414
# Poissons Ratio (z) = 0.19863 0.07040
#
# Static dielectric constant tensor:
#      x y z
#    x 1.722960 0.000000 0.000000 
#    y 0.000000 1.658010 0.000000 
#    z 0.000000 0.000000 1.681040 
# 
# From -- ./inp_files/18063.got.cif
#   From: 2010.05.17/outbox.cif.g08.bks.cpg/sg63_10_cif.got.tgz:18063.got - 2010.06.03 15:47:04.
