data_PCOD9475752
_publ_section_title
;
Structure prediction by ZEFSAII (Michael W. Deem and Ramdas Pophale) SiO2 
 PCOD9475752
Probable space group: C M C M
;
_chemical_formula_sum "Si O2"
_cell_formula_units_Z 56
_cell_length_a 14.360545
_cell_length_b 21.111804
_cell_length_c 8.465162
_cell_angle_alpha 90.000000
_cell_angle_beta 90.000000
_cell_angle_gamma 90.000000
_cell_volume 2566.442516
_symmetry_space_group_name_H-M "C M C M"
_symmetry_group_IT_number 63
_symmetry_cell_setting 'orthorhombic'
loop_
_space_group_symop_operation_xyz
x,y,z
-x,-y,1/2+z
x,-y,-z
-x,y,1/2-z
-x,-y,-z
x,y,1/2-z
-x,y,z
x,-y,1/2+z
1/2+x,1/2+y,z
1/2-x,1/2-y,1/2+z
1/2+x,1/2-y,-z
1/2-x,1/2+y,1/2-z
1/2-x,1/2-y,-z
1/2+x,1/2+y,1/2-z
1/2-x,1/2+y,z
1/2+x,1/2-y,1/2+z
loop_
_atom_site_type_symbol
_atom_site_label
_atom_site_fract_x
_atom_site_fract_y
_atom_site_fract_z
Si Si1 0.154574 0.832524 0.559406
Si Si2 0.000000 0.597494 0.935310
Si Si3 0.500000 0.237195 0.437336
Si Si4 0.000000 0.931307 0.563346
Si Si5 0.700849 0.931812 0.938075
O O1 0.155367 0.821265 0.750000
O O2 0.095260 0.775684 0.481774
O O3 0.089426 0.891944 0.517251
O O4 0.252868 0.863960 0.509749
O O5 0.000000 0.582960 0.750000
O O6 0.093502 0.571392 0.013632
O O7 0.000000 0.672621 0.966191
O O8 0.500000 0.225055 0.250000
O O9 0.000000 0.933421 0.750000
O O10 0.000000 0.000000 0.500000
O O11 0.712576 0.933095 0.750000
O O12 0.738751 0.000000 0.000000
#
# Coordination Sequence:
#
# PCOD9475752 Si02
#       5
#    16   8   8   8  16
#     4   9  20  38  59  85 121 160 196 242 299 361
#     4  12  26  44  64  85 119 164 207 254 306 361
#     4  11  23  40  64  93 123 157 203 252 301 361
#     4   9  16  28  48  78 114 151 189 230 285 346
#     4  11  23  41  65  93 124 159 204 253 303 359
#
# _framework density 21.820087999999998
#
# number of rings (size 3 to 8) (size 9 to 14) (size 15 to 20)
#    0.000    1.714    0.000    5.571    0.000    5.714 
#    0.000    0.000    0.000    0.000    0.000    0.000 
#    0.000    0.000    0.000    0.000    0.000    0.000 
#
# Total GULP energy -156166.362593 kJ/mol
# GULP energy per Si atom -5577.370093 kJ/mol
# Density = 2.177042 g / cm^3
# Si number density = 21.820088 Si / 1000 Ang^3
#
#
#
# Elastic Constant Matrix: (Units=GPa)
#
#
# Indices 1 2 3 4 5 6 
#
# 1 81.3192 0.3558 5.3743 0.0000 0.0000 0.0000
# 2 0.3558 80.6268 -7.3063 0.0000 0.0000 0.0000
# 3 5.3743 -7.3063 38.6975 0.0000 0.0000 0.0000
# 4 0.0000 0.0000 0.0000 34.4581 0.0000 0.0000
# 5 0.0000 0.0000 0.0000 0.0000 -336.4014 0.0000
# 6 0.0000 0.0000 0.0000 0.0000 0.0000 -6.5380
#
#
#
# Elastic Compliance Matrix: (Units=1/GPa)
#
#
# Indices 1 2 3 4 5 6 
#
# 1 0.012415 -0.000215 -0.001765 0.000000 0.000000 0.000000
# 2 -0.000215 0.012622 0.002413 0.000000 0.000000 0.000000
# 3 -0.001765 0.002413 0.026542 0.000000 0.000000 0.000000
# 4 0.000000 0.000000 0.000000 0.029021 0.000000 0.000000
# 5 0.000000 0.000000 0.000000 0.000000 -0.002973 0.000000
# 6 0.000000 0.000000 0.000000 0.000000 0.000000 -0.152953
#
#
# Mechanical properties :
#
#
# Convention : Reuss Voigt Hill
#
# Bulk Modulus (GPa) = 19.06705 21.94347 20.50526
# Shear Modulus (GPa) = -85.16369 -48.21495 -66.68932
#
# Velocity S-wave (km/s) = -6.25417 -4.70580 -5.53440
# Velocity P-wave (km/s) = 6.58754 4.40995 5.60550
#
# Compressibility (1/GPa) = 0.05244651
#
# Stress axis : x y z
#
# Youngs Moduli (GPa) = 80.54911 79.22406 37.67597
#
# Poissons Ratio (x) = 0.01701 0.06649
# Poissons Ratio (y) = 0.01729 -0.09091
# Poissons Ratio (z) = 0.14215 -0.19117
#
# Static dielectric constant tensor:
#      x y z
#    x 1.661120 0.000000 0.000000 
#    y 0.000000 1.815290 0.000000 
#    z 0.000000 0.000000 1.740690 
# 
# From -- ./inp_files/4048.got.cif
#   From: 2010.05.17/outbox.cif.g08.bks.cpg/sg63_3_cif.got.tgz:4048.got - 2010.06.03 15:47:04.
