data_PCOD9475409
_publ_section_title
;
Structure prediction by ZEFSAII (Michael W. Deem and Ramdas Pophale) SiO2 
 PCOD9475409
Probable space group: C M C M
;
_chemical_formula_sum "Si O2"
_cell_formula_units_Z 96
_cell_length_a 15.211310
_cell_length_b 22.557265
_cell_length_c 14.889030
_cell_angle_alpha 90.000000
_cell_angle_beta 90.000000
_cell_angle_gamma 90.000000
_cell_volume 5108.806618
_symmetry_space_group_name_H-M "C M C M"
_symmetry_group_IT_number 63
_symmetry_cell_setting 'orthorhombic'
loop_
_space_group_symop_operation_xyz
x,y,z
-x,-y,1/2+z
x,-y,-z
-x,y,1/2-z
-x,-y,-z
x,y,1/2-z
-x,y,z
x,-y,1/2+z
1/2+x,1/2+y,z
1/2-x,1/2-y,1/2+z
1/2+x,1/2-y,-z
1/2-x,1/2+y,1/2-z
1/2-x,1/2-y,-z
1/2+x,1/2+y,1/2-z
1/2-x,1/2+y,z
1/2+x,1/2-y,1/2+z
loop_
_atom_site_type_symbol
_atom_site_label
_atom_site_fract_x
_atom_site_fract_y
_atom_site_fract_z
Si Si1 0.137461 0.000000 0.853953
Si Si2 0.343120 0.000000 0.892045
Si Si3 0.400816 0.868747 0.146089
Si Si4 0.402490 0.401108 1.000000
Si Si5 0.599184 0.868747 0.853911
Si Si6 0.231459 0.680609 0.500000
O O1 0.109017 0.000000 0.750000
O O2 0.243514 0.000000 0.856691
O O3 0.107098 0.056489 0.912555
O O4 0.107098 0.943511 0.912555
O O5 0.389645 0.939777 0.862379
O O6 0.389645 0.060223 0.862379
O O7 0.338421 0.000000 0.000000
O O8 0.390027 0.852367 0.250000
O O9 0.500000 0.853133 0.117236
O O10 0.327042 0.839172 0.084952
O O11 0.500000 0.374317 1.000000
O O12 0.322583 0.355401 1.000000
O O13 0.609973 0.852367 0.750000
O O14 0.500000 0.853133 0.882764
O O15 0.672958 0.839172 0.915047
O O16 0.250000 0.750000 0.500000
#
# Coordination Sequence:
#
# PCOD9475409 Si02
#       6
#    16  16  16  16  16  16
#     4  11  19  36  64  90 122 158 191 239 309 371
#     4  12  19  34  64 100 132 163 189 238 312 385
#     4  11  23  40  65  97 129 159 196 248 311 379
#     4  11  24  41  58  89 123 153 204 253 299 359
#     4  11  23  40  65  97 129 159 196 248 311 379
#     4  12  26  44  64  85 117 169 215 261 304 347
#
# _framework density 18.791080999999998
#
# number of rings (size 3 to 8) (size 9 to 14) (size 15 to 20)
#    0.000    0.667    6.667    3.500    0.000    5.333 
#    0.000    0.000    0.000    0.000    0.000    0.000 
#    0.000    0.000    0.000    0.000    0.000    0.000 
#
# Total GULP energy -268394.063324 kJ/mol
# GULP energy per Si atom -5591.542986 kJ/mol
# Density = 1.874831 g / cm^3
# Si number density = 18.791081 Si / 1000 Ang^3
#
#
#
# Elastic Constant Matrix: (Units=GPa)
#
#
# Indices 1 2 3 4 5 6 
#
# 1 187.2786 65.8366 60.7577 0.0000 0.0000 0.0000
# 2 65.8366 122.2369 42.8539 0.0000 0.0000 0.0000
# 3 60.7577 42.8539 144.5755 0.0000 0.0000 0.0000
# 4 0.0000 0.0000 0.0000 -14.9340 0.0000 0.0000
# 5 0.0000 0.0000 0.0000 0.0000 -2.7313 0.0000
# 6 0.0000 0.0000 0.0000 0.0000 0.0000 -4.8336
#
#
#
# Elastic Compliance Matrix: (Units=1/GPa)
#
#
# Indices 1 2 3 4 5 6 
#
# 1 0.007099 -0.003100 -0.002065 0.000000 0.000000 0.000000
# 2 -0.003100 0.010483 -0.001805 0.000000 0.000000 0.000000
# 3 -0.002065 -0.001805 0.008319 0.000000 0.000000 0.000000
# 4 0.000000 0.000000 0.000000 -0.066961 0.000000 0.000000
# 5 0.000000 0.000000 0.000000 0.000000 -0.366128 0.000000
# 6 0.000000 0.000000 0.000000 0.000000 0.000000 -0.206886
#
#
# Mechanical properties :
#
#
# Convention : Reuss Voigt Hill
#
# Bulk Modulus (GPa) = 83.58724 88.10970 85.84847
# Shear Modulus (GPa) = -8.38718 14.47642 3.04462
#
# Velocity S-wave (km/s) = -2.11496 2.77860 1.27427
# Velocity P-wave (km/s) = 6.21409 7.56869 6.92459
#
# Compressibility (1/GPa) = 0.01196355
#
# Stress axis : x y z
#
# Youngs Moduli (GPa) = 140.86189 95.39224 120.20163
#
# Poissons Ratio (x) = 0.29570 0.24817
# Poissons Ratio (y) = 0.43664 0.21692
# Poissons Ratio (z) = 0.29082 0.17215
#
# Static dielectric constant tensor:
#      x y z
#    x 1.660480 0.000000 0.000000 
#    y 0.000000 1.612380 0.000000 
#    z 0.000000 0.000000 1.658500 
# 
# From -- ./inp_files/31933.got.cif
#   From: 2010.05.17/outbox.cif.g08.bks.cpg/sg63_16_cif.got.tgz:31933.got - 2010.06.03 15:47:04.
