data_PCOD9475050
_publ_section_title
;
Structure prediction by ZEFSAII (Michael W. Deem and Ramdas Pophale) SiO2 
 PCOD9475050
Probable space group: C M C M
;
_chemical_formula_sum "Si O2"
_cell_formula_units_Z 64
_cell_length_a 15.328796
_cell_length_b 26.335071
_cell_length_c 7.633784
_cell_angle_alpha 90.000000
_cell_angle_beta 90.000000
_cell_angle_gamma 90.000000
_cell_volume 3081.643567
_symmetry_space_group_name_H-M "C M C M"
_symmetry_group_IT_number 63
_symmetry_cell_setting 'orthorhombic'
loop_
_space_group_symop_operation_xyz
x,y,z
-x,-y,1/2+z
x,-y,-z
-x,y,1/2-z
-x,-y,-z
x,y,1/2-z
-x,y,z
x,-y,1/2+z
1/2+x,1/2+y,z
1/2-x,1/2-y,1/2+z
1/2+x,1/2-y,-z
1/2-x,1/2+y,1/2-z
1/2-x,1/2-y,-z
1/2+x,1/2+y,1/2-z
1/2-x,1/2+y,z
1/2+x,1/2-y,1/2+z
loop_
_atom_site_type_symbol
_atom_site_label
_atom_site_fract_x
_atom_site_fract_y
_atom_site_fract_z
Si Si1 0.601333 0.563627 0.750000
Si Si2 0.090865 0.816883 0.250000
Si Si3 0.098437 0.365083 0.461837
Si Si4 0.249445 0.054244 0.453513
Si Si5 0.649262 0.249052 0.955324
O O1 0.500000 0.542199 0.750000
O O2 0.589387 0.623730 0.750000
O O3 0.664598 0.554536 0.581427
O O4 0.124628 0.797967 0.434202
O O5 0.000000 0.788873 0.250000
O O6 0.100362 0.365693 0.250000
O O7 0.179198 0.401002 0.518062
O O8 0.112864 0.305980 0.513742
O O9 0.000000 0.380852 0.517592
O O10 0.222920 0.055236 0.250000
O O11 0.293345 0.000000 0.500000
O O12 0.630691 0.254283 0.750000
O O13 0.750000 0.250000 0.000000
#
# Coordination Sequence:
#
# PCOD9475050 Si02
#       5
#     8   8  16  16  16
#     4  11  26  48  70  99 135 169 219 284 342 405
#     4  11  24  40  61  91 131 167 210 266 319 385
#     4  10  22  41  66  98 141 184 229 277 327 394
#     4  12  25  46  72  99 132 172 220 279 345 408
#     4  11  22  38  62  94 132 181 224 269 316 376
#
# _framework density 20.768139000000001
#
# number of rings (size 3 to 8) (size 9 to 14) (size 15 to 20)
#    0.000    1.000    3.750    2.250    1.750    6.500 
#    0.000    2.500    0.000    0.000    0.000    0.000 
#    0.000    0.000    0.000    0.000    0.000    0.000 
#
# Total GULP energy -178156.790166 kJ/mol
# GULP energy per Si atom -5567.399693 kJ/mol
# Density = 2.072087 g / cm^3
# Si number density = 20.768139 Si / 1000 Ang^3
#
#
#
# Elastic Constant Matrix: (Units=GPa)
#
#
# Indices 1 2 3 4 5 6 
#
# 1 108.5431 11.0647 32.1402 0.0000 0.0000 0.0000
# 2 11.0647 89.4601 26.3081 0.0000 0.0000 0.0000
# 3 32.1402 26.3081 125.2781 0.0000 0.0000 0.0000
# 4 0.0000 0.0000 0.0000 31.6485 0.0000 0.0000
# 5 0.0000 0.0000 0.0000 0.0000 12.4970 0.0000
# 6 0.0000 0.0000 0.0000 0.0000 0.0000 3.9428
#
#
#
# Elastic Compliance Matrix: (Units=1/GPa)
#
#
# Indices 1 2 3 4 5 6 
#
# 1 0.009992 -0.000514 -0.002456 0.000000 0.000000 0.000000
# 2 -0.000514 0.011940 -0.002376 0.000000 0.000000 0.000000
# 3 -0.002456 -0.002376 0.009111 0.000000 0.000000 0.000000
# 4 0.000000 0.000000 0.000000 0.031597 0.000000 0.000000
# 5 0.000000 0.000000 0.000000 0.000000 0.080019 0.000000
# 6 0.000000 0.000000 0.000000 0.000000 0.000000 0.253629
#
#
# Mechanical properties :
#
#
# Convention : Reuss Voigt Hill
#
# Bulk Modulus (GPa) = 49.13096 51.36750 50.24923
# Shear Modulus (GPa) = 12.08420 26.53554 19.30987
#
# Velocity S-wave (km/s) = 2.41480 3.57838 3.05254
# Velocity P-wave (km/s) = 5.61099 6.46997 6.05573
#
# Compressibility (1/GPa) = 0.02035376
#
# Stress axis : x y z
#
# Youngs Moduli (GPa) = 100.07562 83.74980 109.75592
#
# Poissons Ratio (x) = 0.04303 0.26953
# Poissons Ratio (y) = 0.05141 0.26074
# Poissons Ratio (z) = 0.24575 0.19896
#
# Static dielectric constant tensor:
#      x y z
#    x 1.802660 0.000000 0.000000 
#    y 0.000000 1.740370 0.000000 
#    z 0.000000 0.000000 1.686710 
# 
# From -- ./inp_files/4322.got.cif
#   From: 2010.05.17/outbox.cif.g08.bks.cpg/sg63_3_cif.got.tgz:4322.got - 2010.06.03 15:47:04.
