data_PCOD9475727
_publ_section_title
;
Structure prediction by ZEFSAII (Michael W. Deem and Ramdas Pophale) SiO2 
 PCOD9475727
Probable space group: C M C M
;
_chemical_formula_sum "Si O2"
_cell_formula_units_Z 80
_cell_length_a 8.263222
_cell_length_b 20.837349
_cell_length_c 23.891066
_cell_angle_alpha 90.000000
_cell_angle_beta 90.000000
_cell_angle_gamma 90.000000
_cell_volume 4113.650724
_symmetry_space_group_name_H-M "C M C M"
_symmetry_group_IT_number 63
_symmetry_cell_setting 'orthorhombic'
loop_
_space_group_symop_operation_xyz
x,y,z
-x,-y,1/2+z
x,-y,-z
-x,y,1/2-z
-x,-y,-z
x,y,1/2-z
-x,y,z
x,-y,1/2+z
1/2+x,1/2+y,z
1/2-x,1/2-y,1/2+z
1/2+x,1/2-y,-z
1/2-x,1/2+y,1/2-z
1/2-x,1/2-y,-z
1/2+x,1/2+y,1/2-z
1/2-x,1/2+y,z
1/2+x,1/2-y,1/2+z
loop_
_atom_site_type_symbol
_atom_site_label
_atom_site_fract_x
_atom_site_fract_y
_atom_site_fract_z
Si Si1 0.324548 0.203230 0.250000
Si Si2 0.308285 0.995022 0.682557
Si Si3 0.318209 0.827845 0.250000
Si Si4 0.188925 0.126470 0.634709
Si Si5 0.311097 0.361538 0.645718
Si Si6 0.804937 0.748800 0.436015
O O1 0.500000 0.235059 0.250000
O O2 0.177156 0.251851 0.250000
O O3 0.304385 0.161875 0.195304
O O4 0.257069 0.000964 0.750000
O O5 0.500000 0.983465 0.684273
O O6 0.275836 0.058494 0.645083
O O7 0.220639 0.937592 0.649089
O O8 0.500000 0.856172 0.250000
O O9 0.217601 0.844472 0.304215
O O10 0.247590 0.183696 0.593549
O O11 0.000000 0.115118 0.622794
O O12 0.500000 0.351211 0.657796
O O13 0.265936 0.314767 0.594212
O O14 0.750000 0.750000 0.500000
O O15 0.000000 0.746178 0.431400
#
# Coordination Sequence:
#
# PCOD9475727 Si02
#       6
#     8  16   8  16  16  16
#     4  12  22  35  56  89 128 163 203 255 315 373
#     4  11  23  38  60  93 134 170 205 251 311 379
#     4  12  22  33  56  91 126 163 205 251 311 375
#     4  11  23  39  62  91 128 166 205 257 314 371
#     4  12  24  39  63  93 127 166 209 256 314 377
#     4  11  25  45  68  92 123 164 214 268 316 367
#
# _framework density 19.447444999999998
#
# number of rings (size 3 to 8) (size 9 to 14) (size 15 to 20)
#    0.000    0.600    4.000    5.400    0.000    3.200 
#    0.000    1.000    0.000    6.000    0.000    0.000 
#    0.000    0.000    0.000    0.000    0.000    0.000 
#
# Total GULP energy -222921.395496 kJ/mol
# GULP energy per Si atom -5573.034887 kJ/mol
# Density = 1.940318 g / cm^3
# Si number density = 19.447445 Si / 1000 Ang^3
#
#
#
# Elastic Constant Matrix: (Units=GPa)
#
#
# Indices 1 2 3 4 5 6 
#
# 1 87.3121 29.0942 16.1602 0.0000 0.0000 0.0000
# 2 29.0942 139.3049 61.1779 0.0000 0.0000 0.0000
# 3 16.1602 61.1779 123.9344 0.0000 0.0000 0.0000
# 4 0.0000 0.0000 0.0000 -6.0416 0.0000 0.0000
# 5 0.0000 0.0000 0.0000 0.0000 27.5799 0.0000
# 6 0.0000 0.0000 0.0000 0.0000 0.0000 34.0063
#
#
#
# Elastic Compliance Matrix: (Units=1/GPa)
#
#
# Indices 1 2 3 4 5 6 
#
# 1 0.012328 -0.002386 -0.000430 0.000000 0.000000 0.000000
# 2 -0.002386 0.009627 -0.004441 0.000000 0.000000 0.000000
# 3 -0.000430 -0.004441 0.010317 0.000000 0.000000 0.000000
# 4 0.000000 0.000000 0.000000 -0.165520 0.000000 0.000000
# 5 0.000000 0.000000 0.000000 0.000000 0.036258 0.000000
# 6 0.000000 0.000000 0.000000 0.000000 0.000000 0.029406
#
#
# Mechanical properties :
#
#
# Convention : Reuss Voigt Hill
#
# Bulk Modulus (GPa) = 56.31127 62.60177 59.45652
# Shear Modulus (GPa) = -106.04433 27.38352 -39.33040
#
# Velocity S-wave (km/s) = -7.39236 3.75651 -4.50198
# Velocity P-wave (km/s) = 6.62150 7.14669 1.90145
#
# Compressibility (1/GPa) = 0.01775843
#
# Stress axis : x y z
#
# Youngs Moduli (GPa) = 81.11780 103.87201 96.92630
#
# Poissons Ratio (x) = 0.24784 0.04165
# Poissons Ratio (y) = 0.19355 0.43047
# Poissons Ratio (z) = 0.03485 0.46131
#
# Static dielectric constant tensor:
#      x y z
#    x 1.646320 0.000000 0.000000 
#    y 0.000000 1.818100 0.000000 
#    z 0.000000 0.000000 1.607650 
# 
# From -- ./inp_files/59498.got.cif
#   From: 2010.05.17/outbox.cif.g08.bks.cpg/sg63_30_cif.got.tgz:59498.got - 2010.06.03 15:47:04.
