data_PCOD9475228
_publ_section_title
;
Structure prediction by ZEFSAII (Michael W. Deem and Ramdas Pophale) SiO2 
 PCOD9475228
Probable space group: C M C M
;
_chemical_formula_sum "Si O2"
_cell_formula_units_Z 88
_cell_length_a 18.639009
_cell_length_b 11.611521
_cell_length_c 21.217740
_cell_angle_alpha 90.000000
_cell_angle_beta 90.000000
_cell_angle_gamma 90.000000
_cell_volume 4592.097001
_symmetry_space_group_name_H-M "C M C M"
_symmetry_group_IT_number 63
_symmetry_cell_setting 'orthorhombic'
loop_
_space_group_symop_operation_xyz
x,y,z
-x,-y,1/2+z
x,-y,-z
-x,y,1/2-z
-x,-y,-z
x,y,1/2-z
-x,y,z
x,-y,1/2+z
1/2+x,1/2+y,z
1/2-x,1/2-y,1/2+z
1/2+x,1/2-y,-z
1/2-x,1/2+y,1/2-z
1/2-x,1/2-y,-z
1/2+x,1/2+y,1/2-z
1/2-x,1/2+y,z
1/2+x,1/2-y,1/2+z
loop_
_atom_site_type_symbol
_atom_site_label
_atom_site_fract_x
_atom_site_fract_y
_atom_site_fract_z
Si Si1 0.414271 0.672951 0.402185
Si Si2 0.174731 0.206205 0.972257
Si Si3 0.817780 0.189635 0.750000
Si Si4 0.810997 0.985662 0.132882
Si Si5 0.334318 0.874923 0.636778
Si Si6 0.413604 0.896701 0.322158
O O1 0.500000 0.670042 0.405782
O O2 0.378552 0.678423 0.470822
O O3 0.383310 0.561089 0.367096
O O4 0.391347 0.787114 0.363640
O O5 0.188322 0.095761 0.928299
O O6 0.144996 0.305567 0.926062
O O7 0.250000 0.250000 0.000000
O O8 0.803560 0.092540 0.805643
O O9 0.834262 0.286883 0.694774
O O10 0.745757 0.075154 0.128909
O O11 0.383492 0.984980 0.650560
O O12 0.388039 0.882006 0.250000
O O13 0.500000 0.900009 0.321617
#
# Coordination Sequence:
#
# PCOD9475228 Si02
#       6
#    16  16   8  16  16  16
#     4  11  25  43  65  94 130 173 216 260 317 390
#     4  11  23  41  63  96 129 169 213 260 320 378
#     4  10  24  40  59 102 123 162 220 262 322 374
#     4  11  24  39  65  93 131 168 211 262 319 381
#     4  11  22  40  68  92 128 165 210 271 317 375
#     4  10  23  42  65  93 127 167 211 262 322 377
#
# _framework density 19.163357999999999
#
# number of rings (size 3 to 8) (size 9 to 14) (size 15 to 20)
#    0.000    1.273    2.727    2.182    3.818    4.364 
#    0.000    5.455    0.000    0.000    0.000    0.000 
#    0.000    0.000    0.000    0.000    0.000    0.000 
#
# Total GULP energy -244941.033740 kJ/mol
# GULP energy per Si atom -5566.841676 kJ/mol
# Density = 1.911974 g / cm^3
# Si number density = 19.163358 Si / 1000 Ang^3
#
#
#
# Elastic Constant Matrix: (Units=GPa)
#
#
# Indices 1 2 3 4 5 6 
#
# 1 33.3886 7.6983 6.4268 0.0000 0.0000 0.0000
# 2 7.6983 71.0897 18.0082 0.0000 0.0000 0.0000
# 3 6.4268 18.0082 88.5304 0.0000 0.0000 0.0000
# 4 0.0000 0.0000 0.0000 22.4507 0.0000 0.0000
# 5 0.0000 0.0000 0.0000 0.0000 15.4593 0.0000
# 6 0.0000 0.0000 0.0000 0.0000 0.0000 21.9014
#
#
#
# Elastic Compliance Matrix: (Units=1/GPa)
#
#
# Indices 1 2 3 4 5 6 
#
# 1 0.030944 -0.002933 -0.001650 0.000000 0.000000 0.000000
# 2 -0.002933 0.015109 -0.002860 0.000000 0.000000 0.000000
# 3 -0.001650 -0.002860 0.011997 0.000000 0.000000 0.000000
# 4 0.000000 0.000000 0.000000 0.044542 0.000000 0.000000
# 5 0.000000 0.000000 0.000000 0.000000 0.064686 0.000000
# 6 0.000000 0.000000 0.000000 0.000000 0.000000 0.045659
#
#
# Mechanical properties :
#
#
# Convention : Reuss Voigt Hill
#
# Bulk Modulus (GPa) = 23.16753 28.58615 25.87684
# Shear Modulus (GPa) = 20.64310 22.68731 21.66521
#
# Velocity S-wave (km/s) = 3.28566 3.44450 3.36602
# Velocity P-wave (km/s) = 5.14877 5.54698 5.35158
#
# Compressibility (1/GPa) = 0.04316385
#
# Stress axis : x y z
#
# Youngs Moduli (GPa) = 32.31627 66.18592 83.35301
#
# Poissons Ratio (x) = 0.19412 0.13751
# Poissons Ratio (y) = 0.09478 0.23843
# Poissons Ratio (z) = 0.05331 0.18932
#
# Static dielectric constant tensor:
#      x y z
#    x 1.687340 0.000000 0.000000 
#    y 0.000000 1.659440 0.000000 
#    z 0.000000 0.000000 1.651240 
# 
# From -- ./inp_files/55373.got.cif
#   From: 2010.05.17/outbox.cif.g08.bks.cpg/sg63_28_cif.got.tgz:55373.got - 2010.06.03 15:47:04.
