data_PCOD9475730
_publ_section_title
;
Structure prediction by ZEFSAII (Michael W. Deem and Ramdas Pophale) SiO2 
 PCOD9475730
Probable space group: C M C M
;
_chemical_formula_sum "Si O2"
_cell_formula_units_Z 80
_cell_length_a 25.863428
_cell_length_b 9.972650
_cell_length_c 17.333461
_cell_angle_alpha 90.000000
_cell_angle_beta 90.000000
_cell_angle_gamma 90.000000
_cell_volume 4470.766126
_symmetry_space_group_name_H-M "C M C M"
_symmetry_group_IT_number 63
_symmetry_cell_setting 'orthorhombic'
loop_
_space_group_symop_operation_xyz
x,y,z
-x,-y,1/2+z
x,-y,-z
-x,y,1/2-z
-x,-y,-z
x,y,1/2-z
-x,y,z
x,-y,1/2+z
1/2+x,1/2+y,z
1/2-x,1/2-y,1/2+z
1/2+x,1/2-y,-z
1/2-x,1/2+y,1/2-z
1/2-x,1/2-y,-z
1/2+x,1/2+y,1/2-z
1/2-x,1/2+y,z
1/2+x,1/2-y,1/2+z
loop_
_atom_site_type_symbol
_atom_site_label
_atom_site_fract_x
_atom_site_fract_y
_atom_site_fract_z
Si Si1 0.559774 0.276167 0.656870
Si Si2 0.855342 0.023240 0.090617
Si Si3 0.243255 0.376658 0.555893
Si Si4 0.558375 0.969119 0.656122
Si Si5 0.849874 0.725470 0.157661
O O1 0.562372 0.281399 0.750000
O O2 0.500000 0.306094 0.635331
O O3 0.601110 0.378533 0.623249
O O4 0.571016 0.122071 0.633078
O O5 0.855316 0.879511 0.132161
O O6 0.797955 0.086946 0.095250
O O7 0.864561 0.000000 0.000000
O O8 0.228716 0.500000 0.500000
O O9 0.250000 0.250000 0.500000
O O10 0.199855 0.340002 0.617520
O O11 0.557759 0.968686 0.750000
O O12 0.500000 0.937789 0.630232
O O13 0.600347 0.860816 0.631737
O O14 0.845784 0.718107 0.250000
#
# Coordination Sequence:
#
# PCOD9475730 Si02
#       5
#    16  16  16  16  16
#     4   9  19  37  60  86 117 155 199 247 298 351
#     4  11  23  39  59  84 120 161 194 241 300 362
#     4  11  23  44  61  81 119 161 194 240 306 359
#     4   8  17  35  58  86 117 147 186 240 296 343
#     4  11  23  38  62  93 117 150 203 250 292 352
#
# _framework density 17.894024000000002
#
# number of rings (size 3 to 8) (size 9 to 14) (size 15 to 20)
#    0.000    2.000    4.000    1.800    2.800    2.800 
#    0.000    2.000    0.000    3.000    0.000    0.000 
#    0.000    0.000    0.000    0.000    0.000    0.000 
#
# Total GULP energy -223225.741601 kJ/mol
# GULP energy per Si atom -5580.643540 kJ/mol
# Density = 1.785330 g / cm^3
# Si number density = 17.894024 Si / 1000 Ang^3
#
#
#
# Elastic Constant Matrix: (Units=GPa)
#
#
# Indices 1 2 3 4 5 6 
#
# 1 175.8817 125.8228 58.0704 0.0000 0.0000 0.0000
# 2 125.8228 167.6744 49.3390 0.0000 0.0000 0.0000
# 3 58.0704 49.3390 56.1025 0.0000 0.0000 0.0000
# 4 0.0000 0.0000 0.0000 35.0233 0.0000 0.0000
# 5 0.0000 0.0000 0.0000 0.0000 -2.3094 0.0000
# 6 0.0000 0.0000 0.0000 0.0000 0.0000 39.2460
#
#
#
# Elastic Compliance Matrix: (Units=1/GPa)
#
#
# Indices 1 2 3 4 5 6 
#
# 1 0.014122 -0.008494 -0.007147 0.000000 0.000000 0.000000
# 2 -0.008494 0.013155 -0.002777 0.000000 0.000000 0.000000
# 3 -0.007147 -0.002777 0.027665 0.000000 0.000000 0.000000
# 4 0.000000 0.000000 0.000000 0.028552 0.000000 0.000000
# 5 0.000000 0.000000 0.000000 0.000000 -0.433006 0.000000
# 6 0.000000 0.000000 0.000000 0.000000 0.000000 0.025480
#
#
# Mechanical properties :
#
#
# Convention : Reuss Voigt Hill
#
# Bulk Modulus (GPa) = 55.23357 96.23588 75.73472
# Shear Modulus (GPa) = -17.78351 25.48706 3.85177
#
# Velocity S-wave (km/s) = -3.15592 3.77813 1.46875
# Velocity P-wave (km/s) = 4.20170 8.53991 6.72995
#
# Compressibility (1/GPa) = 0.01810493
#
# Stress axis : x y z
#
# Youngs Moduli (GPa) = 70.81237 76.01698 36.14685
#
# Poissons Ratio (x) = 0.64568 0.25835
# Poissons Ratio (y) = 0.60147 0.10039
# Poissons Ratio (z) = 0.50612 0.21111
#
# Static dielectric constant tensor:
#      x y z
#    x 1.606490 0.000000 0.000000 
#    y 0.000000 1.579630 0.000000 
#    z 0.000000 0.000000 1.597920 
# 
# From -- ./inp_files/48771.got.cif
#   From: 2010.05.17/outbox.cif.g08.bks.cpg/sg63_25_cif.got.tgz:48771.got - 2010.06.03 15:47:04.
