data_PCOD9475629
_publ_section_title
;
Structure prediction by ZEFSAII (Michael W. Deem and Ramdas Pophale) SiO2 
 PCOD9475629
Probable space group: C M C M
;
_chemical_formula_sum "Si O2"
_cell_formula_units_Z 72
_cell_length_a 20.974961
_cell_length_b 22.258956
_cell_length_c 8.410033
_cell_angle_alpha 90.000000
_cell_angle_beta 90.000000
_cell_angle_gamma 90.000000
_cell_volume 3926.482380
_symmetry_space_group_name_H-M "C M C M"
_symmetry_group_IT_number 63
_symmetry_cell_setting 'orthorhombic'
loop_
_space_group_symop_operation_xyz
x,y,z
-x,-y,1/2+z
x,-y,-z
-x,y,1/2-z
-x,-y,-z
x,y,1/2-z
-x,y,z
x,-y,1/2+z
1/2+x,1/2+y,z
1/2-x,1/2-y,1/2+z
1/2+x,1/2-y,-z
1/2-x,1/2+y,1/2-z
1/2-x,1/2-y,-z
1/2+x,1/2+y,1/2-z
1/2-x,1/2+y,z
1/2+x,1/2-y,1/2+z
loop_
_atom_site_type_symbol
_atom_site_label
_atom_site_fract_x
_atom_site_fract_y
_atom_site_fract_z
Si Si1 0.746027 0.433160 0.939430
Si Si2 0.799061 0.196544 0.562515
Si Si3 0.924532 0.749837 0.563198
Si Si4 0.375329 0.872590 0.936664
Si Si5 0.500000 0.933306 0.442297
O O1 0.740011 0.435226 0.750000
O O2 0.819113 0.417552 0.983635
O O3 0.727729 0.500000 0.000000
O O4 0.714367 0.370636 0.997313
O O5 0.789340 0.196757 0.750000
O O6 0.750000 0.250000 0.500000
O O7 0.873938 0.207517 0.523975
O O8 0.926100 0.763836 0.750000
O O9 0.886665 0.687398 0.536985
O O10 0.000000 0.746936 0.510430
O O11 0.366789 0.856575 0.750000
O O12 0.439830 0.905389 0.972961
O O13 0.500000 0.924975 0.250000
O O14 0.500000 0.000000 0.500000
#
# Coordination Sequence:
#
# PCOD9475629 Si02
#       5
#    16  16  16  16   8
#     4  11  24  41  62  90 123 161 205 256 312 371
#     4  12  24  40  65  93 125 165 211 262 312 370
#     4  11  23  39  62  91 125 163 205 255 312 371
#     4  11  22  36  57  83 117 159 203 248 301 364
#     4  12  24  36  50  72 110 158 207 252 297 358
#
# _framework density 18.337022999999999
#
# number of rings (size 3 to 8) (size 9 to 14) (size 15 to 20)
#    0.000    0.667    3.333    5.667    0.000    5.778 
#    0.000    0.000    0.000    0.667    0.000    0.000 
#    0.000    0.000    0.000    0.000    0.000    0.000 
#
# Total GULP energy -200464.314772 kJ/mol
# GULP energy per Si atom -5568.453188 kJ/mol
# Density = 1.829529 g / cm^3
# Si number density = 18.337023 Si / 1000 Ang^3
#
#
#
# Elastic Constant Matrix: (Units=GPa)
#
#
# Indices 1 2 3 4 5 6 
#
# 1 58.4426 42.2192 21.4725 0.0000 0.0000 0.0000
# 2 42.2192 138.5794 36.2041 0.0000 0.0000 0.0000
# 3 21.4725 36.2041 51.6242 0.0000 0.0000 0.0000
# 4 0.0000 0.0000 0.0000 36.1331 0.0000 0.0000
# 5 0.0000 0.0000 0.0000 0.0000 15.3391 0.0000
# 6 0.0000 0.0000 0.0000 0.0000 0.0000 0.9559
#
#
#
# Elastic Compliance Matrix: (Units=1/GPa)
#
#
# Indices 1 2 3 4 5 6 
#
# 1 0.023259 -0.005581 -0.005760 0.000000 0.000000 0.000000
# 2 -0.005581 0.010174 -0.004814 0.000000 0.000000 0.000000
# 3 -0.005760 -0.004814 0.025142 0.000000 0.000000 0.000000
# 4 0.000000 0.000000 0.000000 0.027675 0.000000 0.000000
# 5 0.000000 0.000000 0.000000 0.000000 0.065193 0.000000
# 6 0.000000 0.000000 0.000000 0.000000 0.000000 1.046166
#
#
# Mechanical properties :
#
#
# Convention : Reuss Voigt Hill
#
# Bulk Modulus (GPa) = 38.07285 49.82643 43.94964
# Shear Modulus (GPa) = 4.03657 20.40231 12.21944
#
# Velocity S-wave (km/s) = 1.48530 3.33923 2.58424
# Velocity P-wave (km/s) = 4.87333 6.48836 5.73795
#
# Compressibility (1/GPa) = 0.02626544
#
# Stress axis : x y z
#
# Youngs Moduli (GPa) = 42.99403 98.28999 39.77334
#
# Poissons Ratio (x) = 0.54857 0.22911
# Poissons Ratio (y) = 0.23996 0.19145
# Poissons Ratio (z) = 0.24766 0.47313
#
# Static dielectric constant tensor:
#      x y z
#    x 1.574860 0.000000 0.000000 
#    y 0.000000 1.728890 0.000000 
#    z 0.000000 0.000000 1.646370 
# 
# From -- ./inp_files/7808.got.cif
#   From: 2010.05.17/outbox.cif.g08.bks.cpg/sg63_4_cif.got.tgz:7808.got - 2010.06.03 15:47:04.
