data_PCOD9475491
_publ_section_title
;
Structure prediction by ZEFSAII (Michael W. Deem and Ramdas Pophale) SiO2 
 PCOD9475491
Probable space group: C M C M
;
_chemical_formula_sum "Si O2"
_cell_formula_units_Z 96
_cell_length_a 9.111966
_cell_length_b 25.888104
_cell_length_c 25.738120
_cell_angle_alpha 90.000000
_cell_angle_beta 90.000000
_cell_angle_gamma 90.000000
_cell_volume 6071.404338
_symmetry_space_group_name_H-M "C M C M"
_symmetry_group_IT_number 63
_symmetry_cell_setting 'orthorhombic'
loop_
_space_group_symop_operation_xyz
x,y,z
-x,-y,1/2+z
x,-y,-z
-x,y,1/2-z
-x,-y,-z
x,y,1/2-z
-x,y,z
x,-y,1/2+z
1/2+x,1/2+y,z
1/2-x,1/2-y,1/2+z
1/2+x,1/2-y,-z
1/2-x,1/2+y,1/2-z
1/2-x,1/2-y,-z
1/2+x,1/2+y,1/2-z
1/2-x,1/2+y,z
1/2+x,1/2-y,1/2+z
loop_
_atom_site_type_symbol
_atom_site_label
_atom_site_fract_x
_atom_site_fract_y
_atom_site_fract_z
Si Si1 0.332700 0.937635 0.506525
Si Si2 0.677466 0.060125 0.608939
Si Si3 0.823689 0.648278 0.810067
Si Si4 0.676854 0.868672 0.688480
Si Si5 0.168858 0.746896 0.186935
Si Si6 0.674799 0.551995 0.110944
O O1 0.500000 0.921295 0.518418
O O2 0.289192 0.918903 0.449136
O O3 0.228120 0.926850 0.554760
O O4 0.335053 0.000000 0.500000
O O5 0.500000 0.052033 0.610596
O O6 0.719953 0.101333 0.652652
O O7 0.756379 0.005332 0.616386
O O8 0.776887 0.639852 0.750000
O O9 0.761172 0.703258 0.828583
O O10 0.000000 0.650810 0.810524
O O11 0.707605 0.874351 0.750000
O O12 0.500000 0.872952 0.682240
O O13 0.719946 0.810396 0.671420
O O14 0.758709 0.911251 0.654976
O O15 0.170111 0.745820 0.250000
O O16 0.000000 0.753292 0.170549
O O17 0.500000 0.549576 0.113381
#
# Coordination Sequence:
#
# PCOD9475491 Si02
#       6
#    16  16  16  16  16  16
#     4   8  15  30  49  64  84 120 162 195 222 265
#     4   9  18  32  48  67  93 127 162 188 219 273
#     4   9  17  29  47  71  96 121 149 184 227 271
#     4   9  18  33  51  68  90 124 159 186 220 274
#     4   8  15  29  48  68  89 117 154 189 221 264
#     4  11  21  30  45  71  98 120 148 193 241 276
#
# _framework density 15.811828
#
# number of rings (size 3 to 8) (size 9 to 14) (size 15 to 20)
#    0.000    3.000    0.000    3.500    0.000    5.333 
#    0.000    3.333    0.000    1.000    0.000    0.000 
#    0.000    0.000    0.000    0.000    0.000    0.000 
#
# Total GULP energy -267255.665214 kJ/mol
# GULP energy per Si atom -5567.826359 kJ/mol
# Density = 1.577584 g / cm^3
# Si number density = 15.811828 Si / 1000 Ang^3
#
#
#
# Elastic Constant Matrix: (Units=GPa)
#
#
# Indices 1 2 3 4 5 6 
#
# 1 50.7269 53.3479 50.3637 0.0000 0.0000 0.0000
# 2 53.3479 106.3003 68.2643 0.0000 0.0000 0.0000
# 3 50.3637 68.2643 92.3721 0.0000 0.0000 0.0000
# 4 0.0000 0.0000 0.0000 -3.3592 0.0000 0.0000
# 5 0.0000 0.0000 0.0000 0.0000 11.8334 0.0000
# 6 0.0000 0.0000 0.0000 0.0000 0.0000 25.4414
#
#
#
# Elastic Compliance Matrix: (Units=1/GPa)
#
#
# Indices 1 2 3 4 5 6 
#
# 1 0.053735 -0.015517 -0.017830 0.000000 0.000000 0.000000
# 2 -0.015517 0.022385 -0.008083 0.000000 0.000000 0.000000
# 3 -0.017830 -0.008083 0.026521 0.000000 0.000000 0.000000
# 4 0.000000 0.000000 0.000000 -0.297686 0.000000 0.000000
# 5 0.000000 0.000000 0.000000 0.000000 0.084506 0.000000
# 6 0.000000 0.000000 0.000000 0.000000 0.000000 0.039306
#
#
# Mechanical properties :
#
#
# Convention : Reuss Voigt Hill
#
# Bulk Modulus (GPa) = 50.55483 65.92789 58.24136
# Shear Modulus (GPa) = 274.40947 11.94467 143.17707
#
# Velocity S-wave (km/s) = 13.18801 2.75148 9.52613
# Velocity P-wave (km/s) = 16.24625 7.20278 12.56623
#
# Compressibility (1/GPa) = 0.01978050
#
# Stress axis : x y z
#
# Youngs Moduli (GPa) = 18.60993 44.67211 37.70647
#
# Poissons Ratio (x) = 0.69318 0.67232
# Poissons Ratio (y) = 0.28877 0.30477
# Poissons Ratio (z) = 0.33182 0.36108
#
# Static dielectric constant tensor:
#      x y z
#    x 1.527400 0.000000 0.000000 
#    y 0.000000 1.515520 0.000000 
#    z 0.000000 0.000000 1.541520 
# 
# From -- ./inp_files/59926.got.cif
#   From: 2010.05.17/outbox.cif.g08.bks.cpg/sg63_30_cif.got.tgz:59926.got - 2010.06.03 15:47:04.
