data_PCOD9475205
_publ_section_title
;
Structure prediction by ZEFSAII (Michael W. Deem and Ramdas Pophale) SiO2 
 PCOD9475205
Probable space group: C M C M
;
_chemical_formula_sum "Si O2"
_cell_formula_units_Z 116
_cell_length_a 18.920344
_cell_length_b 18.456226
_cell_length_c 15.190979
_cell_angle_alpha 90.000000
_cell_angle_beta 90.000000
_cell_angle_gamma 90.000000
_cell_volume 5304.661685
_symmetry_space_group_name_H-M "C M C M"
_symmetry_group_IT_number 63
_symmetry_cell_setting 'orthorhombic'
loop_
_space_group_symop_operation_xyz
x,y,z
-x,-y,1/2+z
x,-y,-z
-x,y,1/2-z
-x,-y,-z
x,y,1/2-z
-x,y,z
x,-y,1/2+z
1/2+x,1/2+y,z
1/2-x,1/2-y,1/2+z
1/2+x,1/2-y,-z
1/2-x,1/2+y,1/2-z
1/2-x,1/2-y,-z
1/2+x,1/2+y,1/2-z
1/2-x,1/2+y,z
1/2+x,1/2-y,1/2+z
loop_
_atom_site_type_symbol
_atom_site_label
_atom_site_fract_x
_atom_site_fract_y
_atom_site_fract_z
Si Si1 0.923411 0.928917 0.938622
Si Si2 0.313000 0.191423 0.151250
Si Si3 0.277455 0.428370 0.854310
Si Si4 0.500000 0.350473 0.250000
Si Si5 0.231393 0.416285 0.144500
Si Si6 0.076260 0.426503 0.882825
Si Si7 0.578877 0.092583 0.906262
Si Si8 0.122346 0.836208 0.096999
O O1 0.859467 0.938134 0.872591
O O2 0.000000 0.922782 0.895751
O O3 0.909039 0.862966 0.004910
O O4 0.923302 0.000000 0.000000
O O5 0.297604 0.220422 0.250000
O O6 0.246582 0.149953 0.108778
O O7 0.364865 0.123001 0.157725
O O8 0.353182 0.252929 0.098678
O O9 0.266044 0.424187 0.750000
O O10 0.237016 0.499865 0.888995
O O11 0.563168 0.348921 0.172456
O O12 0.232679 0.418518 0.250000
O O13 0.157146 0.378572 0.117701
O O14 0.304128 0.379137 0.114219
O O15 0.080127 0.511774 0.864545
O O16 0.000000 0.399423 0.853307
O O17 0.079342 0.417026 0.988416
O O18 0.500000 0.123866 0.883602
#
# Coordination Sequence:
#
# PCOD9475205 Si02
#       8
#    16  16  16   4  16  16  16  16
#     4  11  24  42  64  96 125 168 230 272 323 393
#     4  11  23  39  61  95 126 165 208 262 332 401
#     4  10  23  41  62  92 130 166 215 275 326 384
#     4  12  24  48  62 100 140 170 208 274 342 388
#     4  11  21  38  61  90 121 168 215 259 324 378
#     4   9  19  33  55  84 119 161 198 248 313 375
#     4   9  19  36  56  85 122 161 209 256 307 378
#     4  12  25  41  68  93 131 172 211 273 333 394
#
# _framework density 21.867557999999999
#
# number of rings (size 3 to 8) (size 9 to 14) (size 15 to 20)
#    0.000    1.517    4.828    0.828    2.897    1.379 
#    0.000    1.379    0.000    0.000    0.000    1.931 
#    0.000    0.000    0.000    0.000    0.000    0.000 
#
# Total GULP energy -323072.758530 kJ/mol
# GULP energy per Si atom -5570.219975 kJ/mol
# Density = 2.181779 g / cm^3
# Si number density = 21.867558 Si / 1000 Ang^3
#
#
#
# Elastic Constant Matrix: (Units=GPa)
#
#
# Indices 1 2 3 4 5 6 
#
# 1 176.9048 16.1627 6.2490 0.0000 0.0000 0.0000
# 2 16.1627 55.3393 7.2236 0.0000 0.0000 0.0000
# 3 6.2490 7.2236 32.5065 0.0000 0.0000 0.0000
# 4 0.0000 0.0000 0.0000 17.8633 0.0000 0.0000
# 5 0.0000 0.0000 0.0000 0.0000 74.2067 0.0000
# 6 0.0000 0.0000 0.0000 0.0000 0.0000 -77.0624
#
#
#
# Elastic Compliance Matrix: (Units=1/GPa)
#
#
# Indices 1 2 3 4 5 6 
#
# 1 0.005826 -0.001602 -0.000764 0.000000 0.000000 0.000000
# 2 -0.001602 0.019051 -0.003925 0.000000 0.000000 0.000000
# 3 -0.000764 -0.003925 0.031782 0.000000 0.000000 0.000000
# 4 0.000000 0.000000 0.000000 0.055981 0.000000 0.000000
# 5 0.000000 0.000000 0.000000 0.000000 0.013476 0.000000
# 6 0.000000 0.000000 0.000000 0.000000 0.000000 -0.012976
#
#
# Mechanical properties :
#
#
# Convention : Reuss Voigt Hill
#
# Bulk Modulus (GPa) = 22.68799 36.00236 29.34518
# Shear Modulus (GPa) = 35.60905 18.67587 27.14246
#
# Velocity S-wave (km/s) = 4.03972 2.92557 3.52692
# Velocity P-wave (km/s) = 5.67070 5.28314 5.48034
#
# Compressibility (1/GPa) = 0.04407618
#
# Stress axis : x y z
#
# Youngs Moduli (GPa) = 171.64135 52.49181 31.46409
#
# Poissons Ratio (x) = 0.08409 0.02404
# Poissons Ratio (y) = 0.27495 0.12351
# Poissons Ratio (z) = 0.13114 0.20606
#
# Static dielectric constant tensor:
#      x y z
#    x 1.865320 0.000000 0.000000 
#    y 0.000000 1.839290 0.000000 
#    z 0.000000 0.000000 1.796590 
# 
# From -- ./inp_files/45901.got.cif
#   From: 2010.05.17/outbox.cif.g08.bks.cpg/sg63_23_cif.got.tgz:45901.got - 2010.06.03 15:47:04.
