data_PCOD9475793
_publ_section_title
;
Structure prediction by ZEFSAII (Michael W. Deem and Ramdas Pophale) SiO2 
 PCOD9475793
Probable space group: C M C M
;
_chemical_formula_sum "Si O2"
_cell_formula_units_Z 80
_cell_length_a 11.938937
_cell_length_b 21.840294
_cell_length_c 15.623835
_cell_angle_alpha 90.000000
_cell_angle_beta 90.000000
_cell_angle_gamma 90.000000
_cell_volume 4073.913322
_symmetry_space_group_name_H-M "C M C M"
_symmetry_group_IT_number 63
_symmetry_cell_setting 'orthorhombic'
loop_
_space_group_symop_operation_xyz
x,y,z
-x,-y,1/2+z
x,-y,-z
-x,y,1/2-z
-x,-y,-z
x,y,1/2-z
-x,y,z
x,-y,1/2+z
1/2+x,1/2+y,z
1/2-x,1/2-y,1/2+z
1/2+x,1/2-y,-z
1/2-x,1/2+y,1/2-z
1/2-x,1/2-y,-z
1/2+x,1/2+y,1/2-z
1/2-x,1/2+y,z
1/2+x,1/2-y,1/2+z
loop_
_atom_site_type_symbol
_atom_site_label
_atom_site_fract_x
_atom_site_fract_y
_atom_site_fract_z
Si Si1 0.754548 0.861799 0.089604
Si Si2 0.500000 0.382392 0.347545
Si Si3 0.130547 0.576610 0.750000
Si Si4 0.000000 0.019995 0.401147
Si Si5 0.867444 0.755803 0.851740
Si Si6 0.871745 0.570122 0.250000
Si Si7 0.711178 0.608599 0.400011
O O1 0.887171 0.860237 0.107514
O O2 0.694255 0.898986 0.165952
O O3 0.701130 0.794663 0.095900
O O4 0.743617 0.892503 0.996919
O O5 0.500000 0.361271 0.250000
O O6 0.500000 0.456499 0.350172
O O7 0.132495 0.503474 0.750000
O O8 0.000000 0.597277 0.750000
O O9 0.110213 0.060543 0.386125
O O10 0.000000 0.000000 0.500000
O O11 0.842034 0.749176 0.750000
O O12 0.836329 0.823786 0.881421
O O13 0.000000 0.746005 0.862722
O O14 0.807563 0.594094 0.332950
O O15 0.000000 0.589986 0.250000
#
# Coordination Sequence:
#
# PCOD9475793 Si02
#       7
#    16   8   8   8  16   8  16
#     4  12  24  43  68 101 135 180 224 279 345 409
#     4  12  24  40  66 107 145 178 221 280 353 410
#     4  11  24  44  69  97 128 175 233 277 330 407
#     4  12  24  42  72 108 142 175 231 287 340 418
#     4  11  23  44  69  98 131 178 235 281 336 406
#     4  11  28  46  65  99 138 181 233 281 346 417
#     4  12  25  45  69 101 140 180 228 288 345 408
#
# _framework density 19.637138
#
# number of rings (size 3 to 8) (size 9 to 14) (size 15 to 20)
#    0.000    0.400    6.000    2.400    1.400    1.600 
#    1.800    2.000    0.000    0.000    0.000    0.000 
#    0.000    0.000    0.000    0.000    0.000    0.000 
#
# Total GULP energy -223883.488555 kJ/mol
# GULP energy per Si atom -5597.087214 kJ/mol
# Density = 1.959244 g / cm^3
# Si number density = 19.637138 Si / 1000 Ang^3
#
#
#
# Elastic Constant Matrix: (Units=GPa)
#
#
# Indices 1 2 3 4 5 6 
#
# 1 165.2725 47.3857 69.2158 0.0000 0.0000 0.0000
# 2 47.3857 75.3825 -3.2902 0.0000 0.0000 0.0000
# 3 69.2158 -3.2902 122.3754 0.0000 0.0000 0.0000
# 4 0.0000 0.0000 0.0000 26.6461 0.0000 0.0000
# 5 0.0000 0.0000 0.0000 0.0000 -10.7115 0.0000
# 6 0.0000 0.0000 0.0000 0.0000 0.0000 44.5548
#
#
#
# Elastic Compliance Matrix: (Units=1/GPa)
#
#
# Indices 1 2 3 4 5 6 
#
# 1 0.010648 -0.006964 -0.006210 0.000000 0.000000 0.000000
# 2 -0.006964 0.017836 0.004419 0.000000 0.000000 0.000000
# 3 -0.006210 0.004419 0.011803 0.000000 0.000000 0.000000
# 4 0.000000 0.000000 0.000000 0.037529 0.000000 0.000000
# 5 0.000000 0.000000 0.000000 0.000000 -0.093357 0.000000
# 6 0.000000 0.000000 0.000000 0.000000 0.000000 0.022444
#
#
# Mechanical properties :
#
#
# Convention : Reuss Voigt Hill
#
# Bulk Modulus (GPa) = 43.90599 65.51699 54.71149
# Shear Modulus (GPa) = 156.22035 28.74581 92.48308
#
# Velocity S-wave (km/s) = 8.92895 3.83018 6.87010
# Velocity P-wave (km/s) = 11.34499 7.27988 9.53167
#
# Compressibility (1/GPa) = 0.02277594
#
# Stress axis : x y z
#
# Youngs Moduli (GPa) = 93.91383 56.06506 84.72669
#
# Poissons Ratio (x) = 0.39046 0.52614
# Poissons Ratio (y) = 0.65406 -0.37438
# Poissons Ratio (z) = 0.58319 -0.24773
#
# Static dielectric constant tensor:
#      x y z
#    x 1.656900 0.000000 0.000000 
#    y 0.000000 1.683430 0.000000 
#    z 0.000000 0.000000 1.737990 
# 
# From -- ./inp_files/29804.got.cif
#   From: 2010.05.17/outbox.cif.g08.bks.cpg/sg63_15_cif.got.tgz:29804.got - 2010.06.03 15:47:04.
