data_PCOD9475965
_publ_section_title
;
Structure prediction by ZEFSAII (Michael W. Deem and Ramdas Pophale) SiO2 
 PCOD9475965
Probable space group: C M C M
;
_chemical_formula_sum "Si O2"
_cell_formula_units_Z 80
_cell_length_a 7.245677
_cell_length_b 31.862141
_cell_length_c 13.541060
_cell_angle_alpha 90.000000
_cell_angle_beta 90.000000
_cell_angle_gamma 90.000000
_cell_volume 3126.126786
_symmetry_space_group_name_H-M "C M C M"
_symmetry_group_IT_number 63
_symmetry_cell_setting 'orthorhombic'
loop_
_space_group_symop_operation_xyz
x,y,z
-x,-y,1/2+z
x,-y,-z
-x,y,1/2-z
-x,-y,-z
x,y,1/2-z
-x,y,z
x,-y,1/2+z
1/2+x,1/2+y,z
1/2-x,1/2-y,1/2+z
1/2+x,1/2-y,-z
1/2-x,1/2+y,1/2-z
1/2-x,1/2-y,-z
1/2+x,1/2+y,1/2-z
1/2-x,1/2+y,z
1/2+x,1/2-y,1/2+z
loop_
_atom_site_type_symbol
_atom_site_label
_atom_site_fract_x
_atom_site_fract_y
_atom_site_fract_z
Si Si1 0.286451 0.650484 0.585371
Si Si2 0.781884 0.241256 0.885756
Si Si3 0.776646 0.334093 0.854981
Si Si4 0.225152 0.060777 0.569664
Si Si5 0.775877 0.969467 0.642419
O O1 0.500000 0.650642 0.615543
O O2 0.207728 0.694073 0.628240
O O3 0.283849 0.651705 0.464309
O O4 0.209435 0.605016 0.612140
O O5 0.714674 0.285526 0.845769
O O6 0.000000 0.239666 0.863813
O O7 0.750000 0.250000 0.000000
O O8 0.720462 0.354992 0.750000
O O9 0.000000 0.335065 0.858731
O O10 0.276990 0.018135 0.624983
O O11 0.000000 0.061661 0.570347
O O12 0.283356 0.055406 0.455048
O O13 0.712548 0.955218 0.750000
O O14 0.000000 0.968107 0.642012
#
# Coordination Sequence:
#
# PCOD9475965 Si02
#       5
#    16  16  16  16  16
#     4   9  16  26  41  60  80 101 129 167 202 230
#     4   8  14  25  39  53  72 100 129 155 188 228
#     4   9  17  28  40  55  78 107 135 162 196 240
#     4   8  14  23  35  55  81 105 132 165 200 241
#     4   8  13  22  35  51  77 111 136 157 196 247
#
# _framework density 25.590774
#
# number of rings (size 3 to 8) (size 9 to 14) (size 15 to 20)
#    0.000    3.600    0.000    1.200    0.000    1.200 
#    0.000    3.000    0.000    6.000    0.000    2.800 
#    0.000    4.000    0.000    0.000    0.000    0.000 
#
# Total GULP energy -222985.176961 kJ/mol
# GULP energy per Si atom -5574.629424 kJ/mol
# Density = 2.553253 g / cm^3
# Si number density = 25.590774 Si / 1000 Ang^3
#
#
#
# Elastic Constant Matrix: (Units=GPa)
#
#
# Indices 1 2 3 4 5 6 
#
# 1 124.6856 -1.2585 -8.3149 0.0000 0.0000 0.0000
# 2 -1.2585 165.8342 -18.5955 0.0000 0.0000 0.0000
# 3 -8.3149 -18.5955 91.6147 0.0000 0.0000 0.0000
# 4 0.0000 0.0000 0.0000 -11.1830 0.0000 0.0000
# 5 0.0000 0.0000 0.0000 0.0000 -27.4831 0.0000
# 6 0.0000 0.0000 0.0000 0.0000 0.0000 -10.4237
#
#
#
# Elastic Compliance Matrix: (Units=1/GPa)
#
#
# Indices 1 2 3 4 5 6 
#
# 1 0.008072 0.000147 0.000762 0.000000 0.000000 0.000000
# 2 0.000147 0.006173 0.001266 0.000000 0.000000 0.000000
# 3 0.000762 0.001266 0.011242 0.000000 0.000000 0.000000
# 4 0.000000 0.000000 0.000000 -0.089421 0.000000 0.000000
# 5 0.000000 0.000000 0.000000 0.000000 -0.036386 0.000000
# 6 0.000000 0.000000 0.000000 0.000000 0.000000 -0.095935
#
#
# Mechanical properties :
#
#
# Convention : Reuss Voigt Hill
#
# Bulk Modulus (GPa) = 33.51397 36.19963 34.85680
# Shear Modulus (GPa) = -26.22466 17.53561 -4.34453
#
# Velocity S-wave (km/s) = -3.20468 2.62053 -1.30437
# Velocity P-wave (km/s) = 0.75414 4.83038 3.37371
#
# Compressibility (1/GPa) = 0.02983831
#
# Stress axis : x y z
#
# Youngs Moduli (GPa) = 123.87742 161.98972 88.95601
#
# Poissons Ratio (x) = -0.02377 -0.06782
# Poissons Ratio (y) = -0.01818 -0.11265
# Poissons Ratio (z) = -0.09445 -0.20513
#
# Static dielectric constant tensor:
#      x y z
#    x 1.992310 0.000000 0.000000 
#    y 0.000000 2.016490 0.000000 
#    z 0.000000 0.000000 1.915430 
# 
# From -- ./inp_files/30217.got.cif
#   From: 2010.05.17/outbox.cif.g08.bks.cpg/sg63_16_cif.got.tgz:30217.got - 2010.06.03 15:47:04.
