data_PCOD9475121
_publ_section_title
;
Structure prediction by ZEFSAII (Michael W. Deem and Ramdas Pophale) SiO2 
 PCOD9475121
Probable space group: C M C M
;
_chemical_formula_sum "Si O2"
_cell_formula_units_Z 52
_cell_length_a 20.876295
_cell_length_b 9.150284
_cell_length_c 12.958078
_cell_angle_alpha 90.000000
_cell_angle_beta 90.000000
_cell_angle_gamma 90.000000
_cell_volume 2475.304256
_symmetry_space_group_name_H-M "C M C M"
_symmetry_group_IT_number 63
_symmetry_cell_setting 'orthorhombic'
loop_
_space_group_symop_operation_xyz
x,y,z
-x,-y,1/2+z
x,-y,-z
-x,y,1/2-z
-x,-y,-z
x,y,1/2-z
-x,y,z
x,-y,1/2+z
1/2+x,1/2+y,z
1/2-x,1/2-y,1/2+z
1/2+x,1/2-y,-z
1/2-x,1/2+y,1/2-z
1/2-x,1/2-y,-z
1/2+x,1/2+y,1/2-z
1/2-x,1/2+y,z
1/2+x,1/2-y,1/2+z
loop_
_atom_site_type_symbol
_atom_site_label
_atom_site_fract_x
_atom_site_fract_y
_atom_site_fract_z
Si Si1 0.891680 0.392841 0.084839
Si Si2 0.669046 0.383233 0.250000
Si Si3 0.500000 0.983367 0.250000
Si Si4 0.195497 0.768629 0.750000
Si Si5 0.430269 0.354151 0.432467
O O1 0.840416 0.304819 0.152700
O O2 0.942998 0.470700 0.159857
O O3 0.861111 0.500000 0.000000
O O4 0.927287 0.274863 0.014385
O O5 0.731432 0.282496 0.250000
O O6 0.686969 0.556108 0.250000
O O7 0.625603 0.349617 0.150613
O O8 0.424837 0.500000 0.500000
O O9 0.500000 0.352780 0.379562
#
# Coordination Sequence:
#
# PCOD9475121 Si02
#       5
#    16   8   4   8  16
#     4  11  24  44  70 103 140 187 231 294 355 421
#     4  12  27  47  69 105 142 190 241 290 351 427
#     4  10  22  42  70  98 150 172 234 282 362 412
#     4  11  28  47  68  99 144 190 236 293 350 423
#     4  11  24  44  73 104 136 183 236 296 360 411
#
# _framework density 21.00752
#
# number of rings (size 3 to 8) (size 9 to 14) (size 15 to 20)
#    0.000    0.923    4.615    0.923    4.308    3.692 
#    0.000    0.000    0.000    0.000    0.000    0.000 
#    0.000    0.000    0.000    0.000    0.000    0.000 
#
# Total GULP energy -144851.172232 kJ/mol
# GULP energy per Si atom -5571.198932 kJ/mol
# Density = 2.095971 g / cm^3
# Si number density = 21.007520 Si / 1000 Ang^3
#
#
#
# Elastic Constant Matrix: (Units=GPa)
#
#
# Indices 1 2 3 4 5 6 
#
# 1 164.6607 4.7439 64.8841 0.0000 0.0000 0.0000
# 2 4.7439 52.1399 39.1995 0.0000 0.0000 0.0000
# 3 64.8841 39.1995 145.1348 0.0000 0.0000 0.0000
# 4 0.0000 0.0000 0.0000 16.8593 0.0000 0.0000
# 5 0.0000 0.0000 0.0000 0.0000 114.1667 0.0000
# 6 0.0000 0.0000 0.0000 0.0000 0.0000 25.7155
#
#
#
# Elastic Compliance Matrix: (Units=1/GPa)
#
#
# Indices 1 2 3 4 5 6 
#
# 1 0.007592 0.002335 -0.004025 0.000000 0.000000 0.000000
# 2 0.002335 0.024784 -0.007738 0.000000 0.000000 0.000000
# 3 -0.004025 -0.007738 0.010779 0.000000 0.000000 0.000000
# 4 0.000000 0.000000 0.000000 0.059314 0.000000 0.000000
# 5 0.000000 0.000000 0.000000 0.000000 0.008759 0.000000
# 6 0.000000 0.000000 0.000000 0.000000 0.000000 0.038887
#
#
# Mechanical properties :
#
#
# Convention : Reuss Voigt Hill
#
# Bulk Modulus (GPa) = 41.15173 64.39892 52.77533
# Shear Modulus (GPa) = 28.23730 48.22217 38.22974
#
# Velocity S-wave (km/s) = 3.67025 4.79631 4.27055
# Velocity P-wave (km/s) = 6.13127 7.83546 7.03516
#
# Compressibility (1/GPa) = 0.02430032
#
# Stress axis : x y z
#
# Youngs Moduli (GPa) = 131.72245 40.34832 92.77009
#
# Poissons Ratio (x) = -0.09422 0.37337
# Poissons Ratio (y) = -0.30758 0.71784
# Poissons Ratio (z) = 0.53014 0.31221
#
# Static dielectric constant tensor:
#      x y z
#    x 1.725400 0.000000 0.000000 
#    y 0.000000 1.850260 0.000000 
#    z 0.000000 0.000000 2.096690 
# 
# From -- ./inp_files/34713.got.cif
#   From: 2010.05.17/outbox.cif.g08.bks.cpg/sg63_18_cif.got.tgz:34713.got - 2010.06.03 15:47:04.
