data_PCOD9475369
_publ_section_title
;
Structure prediction by ZEFSAII (Michael W. Deem and Ramdas Pophale) SiO2 
 PCOD9475369
Probable space group: C M C M
;
_chemical_formula_sum "Si O2"
_cell_formula_units_Z 36
_cell_length_a 7.601382
_cell_length_b 21.141572
_cell_length_c 12.272106
_cell_angle_alpha 90.000000
_cell_angle_beta 90.000000
_cell_angle_gamma 90.000000
_cell_volume 1972.190818
_symmetry_space_group_name_H-M "C M C M"
_symmetry_group_IT_number 63
_symmetry_cell_setting 'orthorhombic'
loop_
_space_group_symop_operation_xyz
x,y,z
-x,-y,1/2+z
x,-y,-z
-x,y,1/2-z
-x,-y,-z
x,y,1/2-z
-x,y,z
x,-y,1/2+z
1/2+x,1/2+y,z
1/2-x,1/2-y,1/2+z
1/2+x,1/2-y,-z
1/2-x,1/2+y,1/2-z
1/2-x,1/2-y,-z
1/2+x,1/2+y,1/2-z
1/2-x,1/2+y,z
1/2+x,1/2-y,1/2+z
loop_
_atom_site_type_symbol
_atom_site_label
_atom_site_fract_x
_atom_site_fract_y
_atom_site_fract_z
Si Si1 0.000000 0.238904 0.750000
Si Si2 0.294333 0.866856 0.250000
Si Si3 0.500000 0.137566 0.126619
Si Si4 0.706392 0.425805 0.018244
O O1 0.830266 0.194419 0.750000
O O2 0.000000 0.287056 0.852300
O O3 0.500000 0.850408 0.250000
O O4 0.250296 0.906504 0.141818
O O5 0.500000 0.110445 0.250000
O O6 0.330461 0.114295 0.061126
O O7 0.500000 0.414194 0.997769
O O8 0.741968 0.500000 0.000000
#
# Coordination Sequence:
#
# PCOD9475369 Si02
#       4
#     4   8   8  16
#     4  10  26  46  60 100 132 164 238 258 302 406
#     4  12  24  43  67  97 129 174 216 269 326 378
#     4  10  25  44  65  96 129 175 217 263 313 394
#     4  11  24  42  70  99 131 168 211 275 328 387
#
# _framework density 18.253810999999999
#
# number of rings (size 3 to 8) (size 9 to 14) (size 15 to 20)
#    0.667    0.444    4.444    0.667    3.111    4.444 
#    0.000    0.000    0.000    0.000    0.000    0.000 
#    0.000    0.000    0.000    0.000    0.000    0.000 
#
# Total GULP energy -100522.851969 kJ/mol
# GULP energy per Si atom -5584.602887 kJ/mol
# Density = 1.821226 g / cm^3
# Si number density = 18.253811 Si / 1000 Ang^3
#
#
#
# Elastic Constant Matrix: (Units=GPa)
#
#
# Indices 1 2 3 4 5 6 
#
# 1 165.3375 107.4190 67.8659 0.0000 0.0000 0.0000
# 2 107.4190 154.2196 88.0200 0.0000 0.0000 0.0000
# 3 67.8659 88.0200 171.1752 0.0000 0.0000 0.0000
# 4 0.0000 0.0000 0.0000 45.0550 0.0000 0.0000
# 5 0.0000 0.0000 0.0000 0.0000 6.5396 0.0000
# 6 0.0000 0.0000 0.0000 0.0000 0.0000 2.1420
#
#
#
# Elastic Compliance Matrix: (Units=1/GPa)
#
#
# Indices 1 2 3 4 5 6 
#
# 1 0.011091 -0.007382 -0.000601 0.000000 0.000000 0.000000
# 2 -0.007382 0.014091 -0.004319 0.000000 0.000000 0.000000
# 3 -0.000601 -0.004319 0.008301 0.000000 0.000000 0.000000
# 4 0.000000 0.000000 0.000000 0.022195 0.000000 0.000000
# 5 0.000000 0.000000 0.000000 0.000000 0.152916 0.000000
# 6 0.000000 0.000000 0.000000 0.000000 0.000000 0.466857
#
#
# Mechanical properties :
#
#
# Convention : Reuss Voigt Hill
#
# Bulk Modulus (GPa) = 112.63028 113.03801 112.83415
# Shear Modulus (GPa) = 7.11221 25.90915 16.51068
#
# Velocity S-wave (km/s) = 1.97604 3.77156 3.01076
# Velocity P-wave (km/s) = 8.18796 9.00146 8.60433
#
# Compressibility (1/GPa) = 0.00887861
#
# Stress axis : x y z
#
# Youngs Moduli (GPa) = 90.16113 70.96580 120.46328
#
# Poissons Ratio (x) = 0.52388 0.07244
# Poissons Ratio (y) = 0.66559 0.52029
# Poissons Ratio (z) = 0.05422 0.30651
#
# Static dielectric constant tensor:
#      x y z
#    x 1.612620 0.000000 0.000000 
#    y 0.000000 1.605310 0.000000 
#    z 0.000000 0.000000 1.607340 
# 
# From -- ./inp_files/15501.got.cif
#   From: 2010.05.17/outbox.cif.g08.bks.cpg/sg63_8_cif.got.tgz:15501.got - 2010.06.03 15:47:04.
