data_PCOD9475773
_publ_section_title
;
Structure prediction by ZEFSAII (Michael W. Deem and Ramdas Pophale) SiO2 
 PCOD9475773
Probable space group: C M C M
;
_chemical_formula_sum "Si O2"
_cell_formula_units_Z 56
_cell_length_a 33.180659
_cell_length_b 5.079764
_cell_length_c 15.415251
_cell_angle_alpha 90.000000
_cell_angle_beta 90.000000
_cell_angle_gamma 90.000000
_cell_volume 2598.239278
_symmetry_space_group_name_H-M "C M C M"
_symmetry_group_IT_number 63
_symmetry_cell_setting 'orthorhombic'
loop_
_space_group_symop_operation_xyz
x,y,z
-x,-y,1/2+z
x,-y,-z
-x,y,1/2-z
-x,-y,-z
x,y,1/2-z
-x,y,z
x,-y,1/2+z
1/2+x,1/2+y,z
1/2-x,1/2-y,1/2+z
1/2+x,1/2-y,-z
1/2-x,1/2+y,1/2-z
1/2-x,1/2-y,-z
1/2+x,1/2+y,1/2-z
1/2-x,1/2+y,z
1/2+x,1/2-y,1/2+z
loop_
_atom_site_type_symbol
_atom_site_label
_atom_site_fract_x
_atom_site_fract_y
_atom_site_fract_z
Si Si1 0.415477 0.336517 0.917139
Si Si2 0.954137 0.681981 0.152208
Si Si3 0.721252 0.758084 0.250000
Si Si4 0.180110 0.244608 0.059636
O O1 0.426996 0.556187 0.846991
O O2 0.368050 0.288311 0.927823
O O3 0.436107 0.057320 0.902688
O O4 0.430650 0.500000 0.000000
O O5 0.955165 0.576798 0.250000
O O6 0.000000 0.747808 0.126580
O O7 0.749833 0.507189 0.250000
O O8 0.697394 0.757865 0.157720
O O9 0.187914 0.500000 0.000000
O O10 0.194651 0.000000 0.000000
#
# Coordination Sequence:
#
# PCOD9475773 Si02
#       4
#    16  16   8  16
#     4  11  23  42  64  93 127 174 227 271 333 397
#     4  11  24  39  60  93 131 174 222 278 337 387
#     4  12  28  46  74 112 135 180 231 262 346 424
#     4  11  25  47  71 103 143 180 225 284 336 399
#
# _framework density 21.553059000000001
#
# number of rings (size 3 to 8) (size 9 to 14) (size 15 to 20)
#    0.000    0.857    0.000    7.714    4.000    9.143 
#    0.000    0.000    0.000    0.000    0.000    0.000 
#    0.000    0.000    0.000    0.000    0.000    0.000 
#
# Total GULP energy -156381.542318 kJ/mol
# GULP energy per Si atom -5585.055083 kJ/mol
# Density = 2.150400 g / cm^3
# Si number density = 21.553059 Si / 1000 Ang^3
#
#
#
# Elastic Constant Matrix: (Units=GPa)
#
#
# Indices 1 2 3 4 5 6 
#
# 1 44.7898 39.0575 55.1116 0.0000 0.0000 0.0000
# 2 39.0575 184.5108 61.9439 0.0000 0.0000 0.0000
# 3 55.1116 61.9439 185.4878 0.0000 0.0000 0.0000
# 4 0.0000 0.0000 0.0000 44.6053 0.0000 0.0000
# 5 0.0000 0.0000 0.0000 0.0000 25.7572 0.0000
# 6 0.0000 0.0000 0.0000 0.0000 0.0000 26.7118
#
#
#
# Elastic Compliance Matrix: (Units=1/GPa)
#
#
# Indices 1 2 3 4 5 6 
#
# 1 0.038742 -0.004884 -0.009880 0.000000 0.000000 0.000000
# 2 -0.004884 0.006720 -0.000793 0.000000 0.000000 0.000000
# 3 -0.009880 -0.000793 0.008592 0.000000 0.000000 0.000000
# 4 0.000000 0.000000 0.000000 0.022419 0.000000 0.000000
# 5 0.000000 0.000000 0.000000 0.000000 0.038824 0.000000
# 6 0.000000 0.000000 0.000000 0.000000 0.000000 0.037437
#
#
# Mechanical properties :
#
#
# Convention : Reuss Voigt Hill
#
# Bulk Modulus (GPa) = 43.59265 80.77938 62.18601
# Shear Modulus (GPa) = 26.11047 36.65987 31.38517
#
# Velocity S-wave (km/s) = 3.48437 4.12869 3.82013
# Velocity P-wave (km/s) = 6.03800 7.76458 6.95507
#
# Compressibility (1/GPa) = 0.02293965
#
# Stress axis : x y z
#
# Youngs Moduli (GPa) = 25.81149 148.81345 116.39411
#
# Poissons Ratio (x) = 0.72683 1.14997
# Poissons Ratio (y) = 0.12607 0.09229
# Poissons Ratio (z) = 0.25502 0.11800
#
# Static dielectric constant tensor:
#      x y z
#    x 1.754650 0.000000 0.000000 
#    y 0.000000 1.755690 0.000000 
#    z 0.000000 0.000000 1.955800 
# 
# From -- ./inp_files/38235.got.cif
#   From: 2010.05.17/outbox.cif.g08.bks.cpg/sg63_20_cif.got.tgz:38235.got - 2010.06.03 15:47:04.
