data_PCOD9475211
_publ_section_title
;
Structure prediction by ZEFSAII (Michael W. Deem and Ramdas Pophale) SiO2 
 PCOD9475211
Probable space group: C M C M
;
_chemical_formula_sum "Si O2"
_cell_formula_units_Z 60
_cell_length_a 32.448673
_cell_length_b 5.588684
_cell_length_c 14.694355
_cell_angle_alpha 90.000000
_cell_angle_beta 90.000000
_cell_angle_gamma 90.000000
_cell_volume 2664.753386
_symmetry_space_group_name_H-M "C M C M"
_symmetry_group_IT_number 63
_symmetry_cell_setting 'orthorhombic'
loop_
_space_group_symop_operation_xyz
x,y,z
-x,-y,1/2+z
x,-y,-z
-x,y,1/2-z
-x,-y,-z
x,y,1/2-z
-x,y,z
x,-y,1/2+z
1/2+x,1/2+y,z
1/2-x,1/2-y,1/2+z
1/2+x,1/2-y,-z
1/2-x,1/2+y,1/2-z
1/2-x,1/2-y,-z
1/2+x,1/2+y,1/2-z
1/2-x,1/2+y,z
1/2+x,1/2-y,1/2+z
loop_
_atom_site_type_symbol
_atom_site_label
_atom_site_fract_x
_atom_site_fract_y
_atom_site_fract_z
Si Si1 0.430931 0.383851 0.094157
Si Si2 0.647907 0.671071 0.150750
Si Si3 0.770239 0.971305 0.390682
Si Si4 0.000000 0.811381 0.250000
Si Si5 0.373203 0.000000 0.000000
O O1 0.397878 0.569612 0.135586
O O2 0.464236 0.319280 0.169318
O O3 0.447921 0.500000 0.000000
O O4 0.403251 0.161750 0.061284
O O5 0.650898 0.783128 0.250000
O O6 0.682254 0.468405 0.140467
O O7 0.654737 0.848211 0.067312
O O8 0.748681 0.726581 0.359094
O O9 0.768593 0.000000 0.500000
#
# Coordination Sequence:
#
# PCOD9475211 Si02
#       5
#    16  16  16   4   8
#     4  10  23  44  68  99 138 183 224 290 357 432
#     4  11  24  43  70  99 138 191 235 291 357 431
#     4  10  23  41  68 104 143 192 243 303 360 422
#     4  12  22  42  74 104 134 174 232 290 352 440
#     4  10  24  43  66  98 138 186 230 288 358 433
#
# _framework density 22.516154
#
# number of rings (size 3 to 8) (size 9 to 14) (size 15 to 20)
#    0.000    1.600    1.333    2.800   11.200    1.600 
#    0.000    6.667    0.000    0.000    0.000    0.000 
#    0.000    0.000    0.000    0.000    0.000    0.000 
#
# Total GULP energy -167187.333204 kJ/mol
# GULP energy per Si atom -5572.911107 kJ/mol
# Density = 2.246491 g / cm^3
# Si number density = 22.516154 Si / 1000 Ang^3
#
#
#
# Elastic Constant Matrix: (Units=GPa)
#
#
# Indices 1 2 3 4 5 6 
#
# 1 83.0408 15.5592 46.3197 0.0000 0.0000 0.0000
# 2 15.5592 77.0979 31.6234 0.0000 0.0000 0.0000
# 3 46.3197 31.6234 153.0995 0.0000 0.0000 0.0000
# 4 0.0000 0.0000 0.0000 1.8229 0.0000 0.0000
# 5 0.0000 0.0000 0.0000 0.0000 -177.9634 0.0000
# 6 0.0000 0.0000 0.0000 0.0000 0.0000 -23.0392
#
#
#
# Elastic Compliance Matrix: (Units=1/GPa)
#
#
# Indices 1 2 3 4 5 6 
#
# 1 0.014595 -0.001239 -0.004160 0.000000 0.000000 0.000000
# 2 -0.001239 0.014276 -0.002574 0.000000 0.000000 0.000000
# 3 -0.004160 -0.002574 0.008322 0.000000 0.000000 0.000000
# 4 0.000000 0.000000 0.000000 0.548591 0.000000 0.000000
# 5 0.000000 0.000000 0.000000 0.000000 -0.005619 0.000000
# 6 0.000000 0.000000 0.000000 0.000000 0.000000 -0.043404
#
#
# Mechanical properties :
#
#
# Convention : Reuss Voigt Hill
#
# Bulk Modulus (GPa) = 47.06461 55.58251 51.32356
# Shear Modulus (GPa) = 8.93195 -25.18689 -8.12747
#
# Velocity S-wave (km/s) = 1.99387 -3.34820 -1.90196
# Velocity P-wave (km/s) = 5.12334 3.12921 4.24503
#
# Compressibility (1/GPa) = 0.02124739
#
# Stress axis : x y z
#
# Youngs Moduli (GPa) = 68.51821 70.04585 120.16592
#
# Poissons Ratio (x) = 0.08680 0.49984
# Poissons Ratio (y) = 0.08491 0.30930
# Poissons Ratio (z) = 0.28501 0.18029
#
# Static dielectric constant tensor:
#      x y z
#    x 1.778350 0.000000 0.000000 
#    y 0.000000 1.887030 0.000000 
#    z 0.000000 0.000000 1.797240 
# 
# From -- ./inp_files/49273.got.cif
#   From: 2010.05.17/outbox.cif.g08.bks.cpg/sg63_25_cif.got.tgz:49273.got - 2010.06.03 15:47:04.
