data_PCOD9475956
_publ_section_title
;
Structure prediction by ZEFSAII (Michael W. Deem and Ramdas Pophale) SiO2 
 PCOD9475956
Probable space group: C M C M
;
_chemical_formula_sum "Si O2"
_cell_formula_units_Z 112
_cell_length_a 7.375829
_cell_length_b 27.812145
_cell_length_c 25.009176
_cell_angle_alpha 90.000000
_cell_angle_beta 90.000000
_cell_angle_gamma 90.000000
_cell_volume 5130.322984
_symmetry_space_group_name_H-M "C M C M"
_symmetry_group_IT_number 63
_symmetry_cell_setting 'orthorhombic'
loop_
_space_group_symop_operation_xyz
x,y,z
-x,-y,1/2+z
x,-y,-z
-x,y,1/2-z
-x,-y,-z
x,y,1/2-z
-x,y,z
x,-y,1/2+z
1/2+x,1/2+y,z
1/2-x,1/2-y,1/2+z
1/2+x,1/2-y,-z
1/2-x,1/2+y,1/2-z
1/2-x,1/2-y,-z
1/2+x,1/2+y,1/2-z
1/2-x,1/2+y,z
1/2+x,1/2-y,1/2+z
loop_
_atom_site_type_symbol
_atom_site_label
_atom_site_fract_x
_atom_site_fract_y
_atom_site_fract_z
Si Si1 0.795766 0.374608 0.185053
Si Si2 0.712084 0.266061 0.309947
Si Si3 0.277807 0.019375 0.810949
Si Si4 0.279530 0.925622 0.020029
Si Si5 0.292202 0.223725 0.414829
Si Si6 0.720302 0.021777 0.082475
Si Si7 0.220894 0.679873 0.977515
O O1 0.801657 0.376152 0.250000
O O2 0.718770 0.322282 0.172880
O O3 0.716612 0.426785 0.171696
O O4 0.000000 0.373851 0.163123
O O5 0.789845 0.262236 0.250000
O O6 0.500000 0.254293 0.306266
O O7 0.791159 0.232686 0.356571
O O8 0.220901 0.009874 0.750000
O O9 0.500000 0.021540 0.810297
O O10 0.222322 0.981368 0.855996
O O11 0.500000 0.925241 0.020744
O O12 0.222597 0.937104 0.958937
O O13 0.225367 0.971156 0.055296
O O14 0.221981 0.873303 0.039390
O O15 0.500000 0.208064 0.407118
O O16 0.290648 0.276521 0.442033
O O17 0.217616 0.189732 0.461349
O O18 0.500000 0.023035 0.082672
O O19 0.000000 0.682824 0.976245
#
# Coordination Sequence:
#
# PCOD9475956 Si02
#       7
#    16  16  16  16  16  16  16
#     4   8  14  23  35  55  80 103 129 160 192 227
#     4   9  17  28  40  54  77 109 136 158 193 241
#     4   8  13  20  31  50  78 106 125 150 194 239
#     4   8  14  23  36  55  76  99 127 162 196 226
#     4   9  18  30  42  60  83 106 135 168 203 242
#     4   8  13  21  33  53  79 101 126 157 192 234
#     4   9  17  29  45  62  80 104 136 172 205 236
#
# _framework density 21.830984999999998
#
# number of rings (size 3 to 8) (size 9 to 14) (size 15 to 20)
#    0.000    3.571    0.000    1.714    2.000    0.571 
#    0.000    0.000    0.000    0.857    0.000    9.000 
#    0.000    0.000    0.000    0.000    0.000    0.286 
#
# Total GULP energy -312012.374210 kJ/mol
# GULP energy per Si atom -5571.649539 kJ/mol
# Density = 2.178130 g / cm^3
# Si number density = 21.830985 Si / 1000 Ang^3
#
#
#
# Elastic Constant Matrix: (Units=GPa)
#
#
# Indices 1 2 3 4 5 6 
#
# 1 74.4702 -7.6729 -3.0635 0.0000 0.0000 0.0000
# 2 -7.6729 25.6617 -14.5464 0.0000 0.0000 0.0000
# 3 -3.0635 -14.5464 89.8864 0.0000 0.0000 0.0000
# 4 0.0000 0.0000 0.0000 29.4485 0.0000 0.0000
# 5 0.0000 0.0000 0.0000 0.0000 -4.8551 0.0000
# 6 0.0000 0.0000 0.0000 0.0000 0.0000 4.8527
#
#
#
# Elastic Compliance Matrix: (Units=1/GPa)
#
#
# Indices 1 2 3 4 5 6 
#
# 1 0.013985 0.004901 0.001270 0.000000 0.000000 0.000000
# 2 0.004901 0.044622 0.007388 0.000000 0.000000 0.000000
# 3 0.001270 0.007388 0.012364 0.000000 0.000000 0.000000
# 4 0.000000 0.000000 0.000000 0.033958 0.000000 0.000000
# 5 0.000000 0.000000 0.000000 0.000000 -0.205970 0.000000
# 6 0.000000 0.000000 0.000000 0.000000 0.000000 0.206072
#
#
# Mechanical properties :
#
#
# Convention : Reuss Voigt Hill
#
# Bulk Modulus (GPa) = 10.19461 15.49474 12.84468
# Shear Modulus (GPa) = 45.20456 20.24264 32.72360
#
# Velocity S-wave (km/s) = 4.55539 3.04837 3.87583
# Velocity P-wave (km/s) = 5.68759 4.41623 5.09175
#
# Compressibility (1/GPa) = 0.09809105
#
# Stress axis : x y z
#
# Youngs Moduli (GPa) = 71.50293 22.41036 80.87938
#
# Poissons Ratio (x) = -0.10984 -0.10271
# Poissons Ratio (y) = -0.35047 -0.59756
# Poissons Ratio (z) = -0.09080 -0.16557
#
# Static dielectric constant tensor:
#      x y z
#    x 1.871560 0.000000 0.000000 
#    y 0.000000 1.756060 0.000000 
#    z 0.000000 0.000000 1.862950 
# 
# From -- ./inp_files/61952.got.cif
#   From: 2010.05.17/outbox.cif.g08.bks.cpg/sg63_31_cif.got.tgz:61952.got - 2010.06.03 15:47:04.
