data_PCOD9475204
_publ_section_title
;
Structure prediction by ZEFSAII (Michael W. Deem and Ramdas Pophale) SiO2 
 PCOD9475204
Probable space group: C M C M
;
_chemical_formula_sum "Si O2"
_cell_formula_units_Z 88
_cell_length_a 20.015645
_cell_length_b 25.148833
_cell_length_c 8.148880
_cell_angle_alpha 90.000000
_cell_angle_beta 90.000000
_cell_angle_gamma 90.000000
_cell_volume 4101.902650
_symmetry_space_group_name_H-M "C M C M"
_symmetry_group_IT_number 63
_symmetry_cell_setting 'orthorhombic'
loop_
_space_group_symop_operation_xyz
x,y,z
-x,-y,1/2+z
x,-y,-z
-x,y,1/2-z
-x,-y,-z
x,y,1/2-z
-x,y,z
x,-y,1/2+z
1/2+x,1/2+y,z
1/2-x,1/2-y,1/2+z
1/2+x,1/2-y,-z
1/2-x,1/2+y,1/2-z
1/2-x,1/2-y,-z
1/2+x,1/2+y,1/2-z
1/2-x,1/2+y,z
1/2+x,1/2-y,1/2+z
loop_
_atom_site_type_symbol
_atom_site_label
_atom_site_fract_x
_atom_site_fract_y
_atom_site_fract_z
Si Si1 0.870061 0.254654 0.057617
Si Si2 0.500000 0.066160 0.436075
Si Si3 0.500000 0.562425 0.443402
Si Si4 0.354372 0.944922 0.552489
Si Si5 0.623229 0.637161 0.942615
Si Si6 0.228387 0.655821 0.946317
Si Si7 0.500000 0.808150 0.936843
O O1 0.858938 0.243459 0.250000
O O2 0.807247 0.289736 0.991533
O O3 0.890543 0.199745 0.970476
O O4 0.934323 0.291128 0.032524
O O5 0.500000 0.043684 0.250000
O O6 0.429785 0.053072 0.516928
O O7 0.500000 0.129155 0.421645
O O8 0.500000 0.500000 0.500000
O O9 0.500000 0.559852 0.250000
O O10 0.433962 0.597178 0.492818
O O11 0.356474 0.940636 0.750000
O O12 0.319879 0.892950 0.483074
O O13 0.320225 0.000000 0.500000
O O14 0.626911 0.625616 0.750000
O O15 0.699244 0.637235 0.012689
O O16 0.235182 0.663155 0.750000
O O17 0.500000 0.786055 0.750000
#
# Coordination Sequence:
#
# PCOD9475204 Si02
#       7
#    16   8   8  16  16  16   8
#     4  11  22  38  61  95 133 170 213 262 315 371
#     4   9  19  35  55  81 112 155 206 252 296 348
#     4  12  27  50  77 103 129 162 209 268 330 393
#     4  11  22  38  59  85 120 163 213 261 310 363
#     4  11  24  44  69  97 128 165 207 255 315 384
#     4  10  23  41  62  91 128 168 212 260 315 376
#     4  11  20  35  58  86 122 166 212 251 297 357
#
# _framework density 21.453458000000001
#
# number of rings (size 3 to 8) (size 9 to 14) (size 15 to 20)
#    0.000    1.273    1.818    4.091    0.000    2.909 
#    0.000    1.364    0.000    0.000    0.000    0.000 
#    0.000    0.000    0.000    0.000    0.000    0.000 
#
# Total GULP energy -245405.977520 kJ/mol
# GULP energy per Si atom -5577.408580 kJ/mol
# Density = 2.140463 g / cm^3
# Si number density = 21.453458 Si / 1000 Ang^3
#
#
#
# Elastic Constant Matrix: (Units=GPa)
#
#
# Indices 1 2 3 4 5 6 
#
# 1 146.5665 75.1413 20.4393 0.0000 0.0000 0.0000
# 2 75.1413 146.8680 5.9710 0.0000 0.0000 0.0000
# 3 20.4393 5.9710 39.7501 0.0000 0.0000 0.0000
# 4 0.0000 0.0000 0.0000 24.3507 0.0000 0.0000
# 5 0.0000 0.0000 0.0000 0.0000 3.0151 0.0000
# 6 0.0000 0.0000 0.0000 0.0000 0.0000 -47.3279
#
#
#
# Elastic Compliance Matrix: (Units=1/GPa)
#
#
# Indices 1 2 3 4 5 6 
#
# 1 0.009953 -0.004914 -0.004380 0.000000 0.000000 0.000000
# 2 -0.004914 0.009277 0.001133 0.000000 0.000000 0.000000
# 3 -0.004380 0.001133 0.027239 0.000000 0.000000 0.000000
# 4 0.000000 0.000000 0.000000 0.041067 0.000000 0.000000
# 5 0.000000 0.000000 0.000000 0.000000 0.331664 0.000000
# 6 0.000000 0.000000 0.000000 0.000000 0.000000 -0.021129
#
#
# Mechanical properties :
#
#
# Convention : Reuss Voigt Hill
#
# Bulk Modulus (GPa) = 33.16972 59.58752 46.37862
# Shear Modulus (GPa) = 11.78023 11.44978 11.61500
#
# Velocity S-wave (km/s) = 2.34584 2.31271 2.32933
# Velocity P-wave (km/s) = 4.77830 5.91329 5.37583
#
# Compressibility (1/GPa) = 0.03014798
#
# Stress axis : x y z
#
# Youngs Moduli (GPa) = 100.47277 107.79409 36.71220
#
# Poissons Ratio (x) = 0.52971 0.16078
# Poissons Ratio (y) = 0.49374 -0.04161
# Poissons Ratio (z) = 0.44003 -0.12216
#
# Static dielectric constant tensor:
#      x y z
#    x 1.835870 0.000000 0.000000 
#    y 0.000000 1.806140 0.000000 
#    z 0.000000 0.000000 1.796230 
# 
# From -- ./inp_files/8308.got.cif
#   From: 2010.05.17/outbox.cif.g08.bks.cpg/sg63_5_cif.got.tgz:8308.got - 2010.06.03 15:47:04.
