data_PCOD9475832
_publ_section_title
;
Structure prediction by ZEFSAII (Michael W. Deem and Ramdas Pophale) SiO2 
 PCOD9475832
Probable space group: C M C M
;
_chemical_formula_sum "Si O2"
_cell_formula_units_Z 64
_cell_length_a 10.287634
_cell_length_b 9.892810
_cell_length_c 32.928117
_cell_angle_alpha 90.000000
_cell_angle_beta 90.000000
_cell_angle_gamma 90.000000
_cell_volume 3351.213289
_symmetry_space_group_name_H-M "C M C M"
_symmetry_group_IT_number 63
_symmetry_cell_setting 'orthorhombic'
loop_
_space_group_symop_operation_xyz
x,y,z
-x,-y,1/2+z
x,-y,-z
-x,y,1/2-z
-x,-y,-z
x,y,1/2-z
-x,y,z
x,-y,1/2+z
1/2+x,1/2+y,z
1/2-x,1/2-y,1/2+z
1/2+x,1/2-y,-z
1/2-x,1/2+y,1/2-z
1/2-x,1/2-y,-z
1/2+x,1/2+y,1/2-z
1/2-x,1/2+y,z
1/2+x,1/2-y,1/2+z
loop_
_atom_site_type_symbol
_atom_site_label
_atom_site_fract_x
_atom_site_fract_y
_atom_site_fract_z
Si Si1 0.755185 0.497762 0.593987
Si Si2 0.000000 0.164861 0.299515
Si Si3 0.500000 0.089128 0.540582
Si Si4 0.739804 0.249725 0.346545
Si Si5 0.500000 0.416793 0.542174
Si Si6 0.500000 0.656524 0.702295
O O1 0.872185 0.543978 0.565117
O O2 0.736885 0.618693 0.625445
O O3 0.786749 0.370793 0.622245
O O4 0.627414 0.459742 0.567910
O O5 0.126457 0.225848 0.321992
O O6 0.000000 0.184674 0.250000
O O7 0.000000 0.003476 0.308158
O O8 0.500000 0.253183 0.535364
O O9 0.500000 0.000000 0.500000
O O10 0.625399 0.269433 0.314851
O O11 0.500000 0.500000 0.500000
O O12 0.500000 0.663361 0.750000
#
# Coordination Sequence:
#
# PCOD9475832 Si02
#       6
#    16   8   8  16   8   8
#     4  12  25  45  72  96 137 174 224 277 327 393
#     4  11  24  44  66  99 142 175 216 281 334 389
#     4  12  28  46  68 102 135 176 222 273 334 399
#     4  12  23  45  70  99 131 180 223 274 330 392
#     4  12  28  47  67 101 138 174 218 277 338 395
#     4  11  24  43  67 100 137 177 220 273 336 393
#
# _framework density 19.097560000000001
#
# number of rings (size 3 to 8) (size 9 to 14) (size 15 to 20)
#    0.000    0.250    5.000    4.500    3.500    2.000 
#    0.000    1.250    0.000    0.000    0.000    0.000 
#    0.000    0.000    0.000    0.000    0.000    0.000 
#
# Total GULP energy -178912.877717 kJ/mol
# GULP energy per Si atom -5591.027429 kJ/mol
# Density = 1.905409 g / cm^3
# Si number density = 19.097560 Si / 1000 Ang^3
#
#
#
# Elastic Constant Matrix: (Units=GPa)
#
#
# Indices 1 2 3 4 5 6 
#
# 1 181.1068 66.8951 76.4891 0.0000 0.0000 0.0000
# 2 66.8951 196.7335 81.2588 0.0000 0.0000 0.0000
# 3 76.4891 81.2588 121.3698 0.0000 0.0000 0.0000
# 4 0.0000 0.0000 0.0000 41.0340 0.0000 0.0000
# 5 0.0000 0.0000 0.0000 0.0000 35.3384 0.0000
# 6 0.0000 0.0000 0.0000 0.0000 0.0000 29.9318
#
#
#
# Elastic Compliance Matrix: (Units=1/GPa)
#
#
# Indices 1 2 3 4 5 6 
#
# 1 0.007623 -0.000840 -0.004242 0.000000 0.000000 0.000000
# 2 -0.000840 0.007119 -0.004237 0.000000 0.000000 0.000000
# 3 -0.004242 -0.004237 0.013749 0.000000 0.000000 0.000000
# 4 0.000000 0.000000 0.000000 0.024370 0.000000 0.000000
# 5 0.000000 0.000000 0.000000 0.000000 0.028298 0.000000
# 6 0.000000 0.000000 0.000000 0.000000 0.000000 0.033409
#
#
# Mechanical properties :
#
#
# Convention : Reuss Voigt Hill
#
# Bulk Modulus (GPa) = 101.48288 105.38846 103.43567
# Shear Modulus (GPa) = 36.63273 39.56531 38.09902
#
# Velocity S-wave (km/s) = 4.38446 4.55658 4.47135
# Velocity P-wave (km/s) = 8.88177 9.10974 8.99648
#
# Compressibility (1/GPa) = 0.00985388
#
# Stress axis : x y z
#
# Youngs Moduli (GPa) = 131.17381 140.47858 72.73241
#
# Poissons Ratio (x) = 0.11802 0.30853
# Poissons Ratio (y) = 0.11020 0.30813
# Poissons Ratio (z) = 0.55643 0.59514
#
# Static dielectric constant tensor:
#      x y z
#    x 1.440620 0.000000 0.000000 
#    y 0.000000 1.625080 0.000000 
#    z 0.000000 0.000000 1.670130 
# 
# From -- ./inp_files/71384.got.cif
#   From: 2010.05.17/outbox.cif.g08.bks.cpg/sg63_36_cif.got.tgz:71384.got - 2010.06.03 15:47:04.
