data_PCOD9475084
_publ_section_title
;
Structure prediction by ZEFSAII (Michael W. Deem and Ramdas Pophale) SiO2 
 PCOD9475084
Probable space group: C M C M
;
_chemical_formula_sum "Si O2"
_cell_formula_units_Z 52
_cell_length_a 7.513580
_cell_length_b 20.258770
_cell_length_c 13.549199
_cell_angle_alpha 90.000000
_cell_angle_beta 90.000000
_cell_angle_gamma 90.000000
_cell_volume 2062.403372
_symmetry_space_group_name_H-M "C M C M"
_symmetry_group_IT_number 63
_symmetry_cell_setting 'orthorhombic'
loop_
_space_group_symop_operation_xyz
x,y,z
-x,-y,1/2+z
x,-y,-z
-x,y,1/2-z
-x,-y,-z
x,y,1/2-z
-x,y,z
x,-y,1/2+z
1/2+x,1/2+y,z
1/2-x,1/2-y,1/2+z
1/2+x,1/2-y,-z
1/2-x,1/2+y,1/2-z
1/2-x,1/2-y,-z
1/2+x,1/2+y,1/2-z
1/2-x,1/2+y,z
1/2+x,1/2-y,1/2+z
loop_
_atom_site_type_symbol
_atom_site_label
_atom_site_fract_x
_atom_site_fract_y
_atom_site_fract_z
Si Si1 0.000000 0.500000 0.500000
Si Si2 0.292078 0.512803 0.135796
Si Si3 0.283999 0.800349 0.359699
Si Si4 0.706461 0.656601 0.422614
O O1 0.157074 0.470964 0.427409
O O2 0.279133 0.497869 0.250000
O O3 0.500000 0.507718 0.108050
O O4 0.218879 0.587629 0.116698
O O5 0.229609 0.823541 0.250000
O O6 0.500000 0.800934 0.363586
O O7 0.222894 0.723927 0.374751
O O8 0.218276 0.835248 0.459319
O O9 0.500000 0.653326 0.393443
#
# Coordination Sequence:
#
# PCOD9475084 Si02
#       4
#     4  16  16  16
#     4  12  24  40  64  96 120 148 208 276 320 362
#     4  10  22  42  66  90 120 160 204 255 315 376
#     4   9  17  30  50  80 119 158 194 237 290 353
#     4   9  18  33  55  82 114 155 199 242 293 361
#
# _framework density 25.213304000000001
#
# number of rings (size 3 to 8) (size 9 to 14) (size 15 to 20)
#    0.000    2.462    0.000    1.846    2.154    4.308 
#    0.000    3.077    0.000    3.692    0.000    0.000 
#    0.000    0.000    0.000    0.000    0.000    0.000 
#
# Total GULP energy -144872.703226 kJ/mol
# GULP energy per Si atom -5572.027047 kJ/mol
# Density = 2.515592 g / cm^3
# Si number density = 25.213304 Si / 1000 Ang^3
#
#
#
# Elastic Constant Matrix: (Units=GPa)
#
#
# Indices 1 2 3 4 5 6 
#
# 1 132.7470 8.1228 24.0485 0.0000 0.0000 0.0000
# 2 8.1228 74.9761 -14.8454 0.0000 0.0000 0.0000
# 3 24.0485 -14.8454 154.7623 0.0000 0.0000 0.0000
# 4 0.0000 0.0000 0.0000 21.7284 0.0000 0.0000
# 5 0.0000 0.0000 0.0000 0.0000 43.8734 0.0000
# 6 0.0000 0.0000 0.0000 0.0000 0.0000 -28.8958
#
#
#
# Elastic Compliance Matrix: (Units=1/GPa)
#
#
# Indices 1 2 3 4 5 6 
#
# 1 0.007841 -0.001112 -0.001325 0.000000 0.000000 0.000000
# 2 -0.001112 0.013753 0.001492 0.000000 0.000000 0.000000
# 3 -0.001325 0.001492 0.006811 0.000000 0.000000 0.000000
# 4 0.000000 0.000000 0.000000 0.046023 0.000000 0.000000
# 5 0.000000 0.000000 0.000000 0.000000 0.022793 0.000000
# 6 0.000000 0.000000 0.000000 0.000000 0.000000 -0.034607
#
#
# Mechanical properties :
#
#
# Convention : Reuss Voigt Hill
#
# Bulk Modulus (GPa) = 37.71393 44.12635 40.92014
# Shear Modulus (GPa) = 68.17364 30.35183 49.26274
#
# Velocity S-wave (km/s) = 5.20552 3.47335 4.42502
# Velocity P-wave (km/s) = 7.14985 5.79869 6.50942
#
# Compressibility (1/GPa) = 0.02651540
#
# Stress axis : x y z
#
# Youngs Moduli (GPa) = 127.53123 72.70895 146.83092
#
# Poissons Ratio (x) = 0.08084 0.19457
# Poissons Ratio (y) = 0.14180 -0.21908
# Poissons Ratio (z) = 0.16899 -0.10849
#
# Static dielectric constant tensor:
#      x y z
#    x 1.953310 0.000000 0.000000 
#    y 0.000000 2.239390 0.000000 
#    z 0.000000 0.000000 2.036990 
# 
# From -- ./inp_files/15810.got.cif
#   From: 2010.05.17/outbox.cif.g08.bks.cpg/sg63_8_cif.got.tgz:15810.got - 2010.06.03 15:47:04.
