data_PCOD9475117
_publ_section_title
;
Structure prediction by ZEFSAII (Michael W. Deem and Ramdas Pophale) SiO2 
 PCOD9475117
Probable space group: C M C M
;
_chemical_formula_sum "Si O2"
_cell_formula_units_Z 88
_cell_length_a 12.164432
_cell_length_b 23.879751
_cell_length_c 14.990908
_cell_angle_alpha 90.000000
_cell_angle_beta 90.000000
_cell_angle_gamma 90.000000
_cell_volume 4354.613031
_symmetry_space_group_name_H-M "C M C M"
_symmetry_group_IT_number 63
_symmetry_cell_setting 'orthorhombic'
loop_
_space_group_symop_operation_xyz
x,y,z
-x,-y,1/2+z
x,-y,-z
-x,y,1/2-z
-x,-y,-z
x,y,1/2-z
-x,y,z
x,-y,1/2+z
1/2+x,1/2+y,z
1/2-x,1/2-y,1/2+z
1/2+x,1/2-y,-z
1/2-x,1/2+y,1/2-z
1/2-x,1/2-y,-z
1/2+x,1/2+y,1/2-z
1/2-x,1/2+y,z
1/2+x,1/2-y,1/2+z
loop_
_atom_site_type_symbol
_atom_site_label
_atom_site_fract_x
_atom_site_fract_y
_atom_site_fract_z
Si Si1 0.266632 0.591807 0.917907
Si Si2 0.128827 0.368268 0.583681
Si Si3 0.500000 0.661445 0.357995
Si Si4 0.375491 0.007094 0.145716
Si Si5 0.720774 0.270712 0.600660
Si Si6 0.000000 0.067329 0.497051
Si Si7 0.760133 0.673489 0.750000
O O1 0.213036 0.530663 0.903522
O O2 0.389880 0.587168 0.953428
O O3 0.261192 0.626050 0.827485
O O4 0.190683 0.622173 0.990705
O O5 0.143751 0.426894 0.634935
O O6 0.185057 0.315046 0.628203
O O7 0.000000 0.358942 0.570794
O O8 0.500000 0.659810 0.250000
O O9 0.606480 0.695271 0.393193
O O10 0.500000 0.599335 0.401627
O O11 0.373094 0.992875 0.250000
O O12 0.500000 0.994877 0.112400
O O13 0.750000 0.250000 0.500000
O O14 0.718023 0.220652 0.671033
O O15 0.000000 0.000000 0.500000
#
# Coordination Sequence:
#
# PCOD9475117 Si02
#       7
#    16  16   8  16  16   8   8
#     4  12  24  47  70 103 144 184 239 297 362 431
#     4  11  24  44  73 103 137 184 233 290 366 427
#     4  12  26  50  79 107 146 193 252 306 356 447
#     4  10  22  42  70 105 140 176 230 297 361 432
#     4  12  26  48  74 106 144 192 243 301 358 430
#     4  12  26  49  76 108 145 198 241 302 375 450
#     4  12  26  48  68 106 138 190 244 294 362 424
#
# _framework density 20.208454
#
# number of rings (size 3 to 8) (size 9 to 14) (size 15 to 20)
#    0.000    0.545    5.455    2.182    2.545    1.818 
#    9.818    0.000    0.000    0.000    0.000    0.000 
#    0.000    0.000    0.000    0.000    0.000    0.000 
#
# Total GULP energy -244956.480015 kJ/mol
# GULP energy per Si atom -5567.192728 kJ/mol
# Density = 2.016246 g / cm^3
# Si number density = 20.208454 Si / 1000 Ang^3
#
#
#
# Elastic Constant Matrix: (Units=GPa)
#
#
# Indices 1 2 3 4 5 6 
#
# 1 123.7069 63.2332 31.3481 0.0000 0.0000 0.0000
# 2 63.2332 115.4969 35.6961 0.0000 0.0000 0.0000
# 3 31.3481 35.6961 120.5887 0.0000 0.0000 0.0000
# 4 0.0000 0.0000 0.0000 43.5006 0.0000 0.0000
# 5 0.0000 0.0000 0.0000 0.0000 9.7997 0.0000
# 6 0.0000 0.0000 0.0000 0.0000 0.0000 1.6910
#
#
#
# Elastic Compliance Matrix: (Units=1/GPa)
#
#
# Indices 1 2 3 4 5 6 
#
# 1 0.011388 -0.005855 -0.001227 0.000000 0.000000 0.000000
# 2 -0.005855 0.012541 -0.002190 0.000000 0.000000 0.000000
# 3 -0.001227 -0.002190 0.009260 0.000000 0.000000 0.000000
# 4 0.000000 0.000000 0.000000 0.022988 0.000000 0.000000
# 5 0.000000 0.000000 0.000000 0.000000 0.102044 0.000000
# 6 0.000000 0.000000 0.000000 0.000000 0.000000 0.591374
#
#
# Mechanical properties :
#
#
# Convention : Reuss Voigt Hill
#
# Bulk Modulus (GPa) = 68.29034 68.92748 68.60891
# Shear Modulus (GPa) = 6.46813 26.29927 16.38370
#
# Velocity S-wave (km/s) = 1.79099 3.61141 2.85043
# Velocity P-wave (km/s) = 6.17602 7.18136 6.69758
#
# Compressibility (1/GPa) = 0.01464336
#
# Stress axis : x y z
#
# Youngs Moduli (GPa) = 87.81551 79.73941 107.99205
#
# Poissons Ratio (x) = 0.46690 0.13251
# Poissons Ratio (y) = 0.51419 0.23652
# Poissons Ratio (z) = 0.10775 0.17464
#
# Static dielectric constant tensor:
#      x y z
#    x 1.697850 0.000000 0.000000 
#    y 0.000000 1.746930 0.000000 
#    z 0.000000 0.000000 1.711610 
# 
# From -- ./inp_files/29907.got.cif
#   From: 2010.05.17/outbox.cif.g08.bks.cpg/sg63_15_cif.got.tgz:29907.got - 2010.06.03 15:47:04.
