data_PCOD9475950
_publ_section_title
;
Structure prediction by ZEFSAII (Michael W. Deem and Ramdas Pophale) SiO2 
 PCOD9475950
Probable space group: C M C M
;
_chemical_formula_sum "Si O2"
_cell_formula_units_Z 80
_cell_length_a 7.296958
_cell_length_b 28.442862
_cell_length_c 19.018930
_cell_angle_alpha 90.000000
_cell_angle_beta 90.000000
_cell_angle_gamma 90.000000
_cell_volume 3947.309872
_symmetry_space_group_name_H-M "C M C M"
_symmetry_group_IT_number 63
_symmetry_cell_setting 'orthorhombic'
loop_
_space_group_symop_operation_xyz
x,y,z
-x,-y,1/2+z
x,-y,-z
-x,y,1/2-z
-x,-y,-z
x,y,1/2-z
-x,y,z
x,-y,1/2+z
1/2+x,1/2+y,z
1/2-x,1/2-y,1/2+z
1/2+x,1/2-y,-z
1/2-x,1/2+y,1/2-z
1/2-x,1/2-y,-z
1/2+x,1/2+y,1/2-z
1/2-x,1/2+y,z
1/2+x,1/2-y,1/2+z
loop_
_atom_site_type_symbol
_atom_site_label
_atom_site_fract_x
_atom_site_fract_y
_atom_site_fract_z
Si Si1 0.718030 0.698157 0.471663
Si Si2 0.223226 0.102629 0.959168
Si Si3 0.723784 0.458507 0.169544
Si Si4 0.277579 0.557586 0.104465
Si Si5 0.223153 0.155968 0.171999
O O1 0.500000 0.691999 0.468631
O O2 0.750000 0.750000 0.500000
O O3 0.784498 0.655245 0.520740
O O4 0.784894 0.688776 0.392275
O O5 0.282261 0.081791 0.884855
O O6 0.000000 0.102558 0.958387
O O7 0.277704 0.068946 0.024360
O O8 0.782773 0.452742 0.250000
O O9 0.500000 0.458839 0.170160
O O10 0.782700 0.508614 0.137357
O O11 0.500000 0.556413 0.103989
O O12 0.224869 0.602742 0.150928
O O13 0.285959 0.168328 0.250000
O O14 0.000000 0.156928 0.173152
#
# Coordination Sequence:
#
# PCOD9475950 Si02
#       5
#    16  16  16  16  16
#     4   9  17  29  44  59  77 104 135 166 201 238
#     4   8  14  23  33  47  70  99 127 155 190 230
#     4   9  14  18  27  46  74 105 128 145 177 232
#     4   8  12  18  30  48  71  99 127 153 184 226
#     4   8  13  22  37  57  78  99 128 167 203 230
#
# _framework density 20.266967000000001
#
# number of rings (size 3 to 8) (size 9 to 14) (size 15 to 20)
#    0.000    3.600    0.000    3.600    0.000    4.800 
#    0.000    1.000    0.000    1.800    0.000    0.000 
#    0.000   12.800    0.000    3.200    0.000    0.000 
#
# Total GULP energy -223105.726418 kJ/mol
# GULP energy per Si atom -5577.643160 kJ/mol
# Density = 2.022084 g / cm^3
# Si number density = 20.266967 Si / 1000 Ang^3
#
#
#
# Elastic Constant Matrix: (Units=GPa)
#
#
# Indices 1 2 3 4 5 6 
#
# 1 82.2511 2.9043 6.2237 0.0000 0.0000 0.0000
# 2 2.9043 153.1564 139.4816 0.0000 0.0000 0.0000
# 3 6.2237 139.4816 222.5883 0.0000 0.0000 0.0000
# 4 0.0000 0.0000 0.0000 19.8066 0.0000 0.0000
# 5 0.0000 0.0000 0.0000 0.0000 -15.1810 0.0000
# 6 0.0000 0.0000 0.0000 0.0000 0.0000 3.1716
#
#
#
# Elastic Compliance Matrix: (Units=1/GPa)
#
#
# Indices 1 2 3 4 5 6 
#
# 1 0.012186 0.000185 -0.000456 0.000000 0.000000 0.000000
# 2 0.000185 0.015211 -0.009537 0.000000 0.000000 0.000000
# 3 -0.000456 -0.009537 0.010482 0.000000 0.000000 0.000000
# 4 0.000000 0.000000 0.000000 0.050488 0.000000 0.000000
# 5 0.000000 0.000000 0.000000 0.000000 -0.065872 0.000000
# 6 0.000000 0.000000 0.000000 0.000000 0.000000 0.315300
#
#
# Mechanical properties :
#
#
# Convention : Reuss Voigt Hill
#
# Bulk Modulus (GPa) = 54.76149 83.91278 69.33714
# Shear Modulus (GPa) = 13.75514 22.18517 17.97016
#
# Velocity S-wave (km/s) = 2.60801 3.31213 2.98093
# Velocity P-wave (km/s) = 6.01229 7.49137 6.79221
#
# Compressibility (1/GPa) = 0.01826101
#
# Stress axis : x y z
#
# Youngs Moduli (GPa) = 82.06201 65.74026 95.40467
#
# Poissons Ratio (x) = -0.01213 0.04354
# Poissons Ratio (y) = -0.01514 0.90989
# Poissons Ratio (z) = 0.03745 0.62697
#
# Static dielectric constant tensor:
#      x y z
#    x 1.861170 0.000000 0.000000 
#    y 0.000000 1.685150 0.000000 
#    z 0.000000 0.000000 1.710070 
# 
# From -- ./inp_files/30219.got.cif
#   From: 2010.05.17/outbox.cif.g08.bks.cpg/sg63_16_cif.got.tgz:30219.got - 2010.06.03 15:47:04.
