data_PCOD9475593
_publ_section_title
;
Structure prediction by ZEFSAII (Michael W. Deem and Ramdas Pophale) SiO2 
 PCOD9475593
Probable space group: C M C M
;
_chemical_formula_sum "Si O2"
_cell_formula_units_Z 80
_cell_length_a 18.771037
_cell_length_b 7.169290
_cell_length_c 28.671551
_cell_angle_alpha 90.000000
_cell_angle_beta 90.000000
_cell_angle_gamma 90.000000
_cell_volume 3858.474201
_symmetry_space_group_name_H-M "C M C M"
_symmetry_group_IT_number 63
_symmetry_cell_setting 'orthorhombic'
loop_
_space_group_symop_operation_xyz
x,y,z
-x,-y,1/2+z
x,-y,-z
-x,y,1/2-z
-x,-y,-z
x,y,1/2-z
-x,y,z
x,-y,1/2+z
1/2+x,1/2+y,z
1/2-x,1/2-y,1/2+z
1/2+x,1/2-y,-z
1/2-x,1/2+y,1/2-z
1/2-x,1/2-y,-z
1/2+x,1/2+y,1/2-z
1/2-x,1/2+y,z
1/2+x,1/2-y,1/2+z
loop_
_atom_site_type_symbol
_atom_site_label
_atom_site_fract_x
_atom_site_fract_y
_atom_site_fract_z
Si Si1 0.321187 0.342655 0.445026
Si Si2 0.685797 0.941578 0.696600
Si Si3 0.164875 0.932257 0.157234
Si Si4 0.345246 0.778388 0.039402
Si Si5 0.416395 0.196416 0.635849
O O1 0.333122 0.312618 0.390739
O O2 0.345706 0.554067 0.453538
O O3 0.356875 0.206209 0.483379
O O4 0.236150 0.340211 0.452577
O O5 0.696657 0.002141 0.750000
O O6 0.760589 0.963437 0.668691
O O7 0.628619 0.067764 0.670366
O O8 0.659044 0.728465 0.695311
O O9 0.106777 0.092227 0.149570
O O10 0.393231 0.846022 0.082126
O O11 0.500000 0.171135 0.640816
#
# Coordination Sequence:
#
# PCOD9475593 Si02
#       5
#    16  16  16  16  16
#     4   9  16  30  56  92 116 155 204 258 298 369
#     4  12  24  40  67  97 123 162 223 277 318 377
#     4  11  21  40  66  95 125 164 213 267 318 376
#     4   9  17  31  56  89 121 156 204 252 306 368
#     4  11  25  43  63  94 137 173 206 262 330 386
#
# _framework density 20.733582999999999
#
# number of rings (size 3 to 8) (size 9 to 14) (size 15 to 20)
#    0.000    1.600    4.000    1.800    0.000    2.000 
#    0.000    8.000    0.000    1.200    0.000    0.000 
#    0.000    0.000    0.000    0.000    0.000    0.000 
#
# Total GULP energy -223165.418034 kJ/mol
# GULP energy per Si atom -5579.135451 kJ/mol
# Density = 2.068639 g / cm^3
# Si number density = 20.733583 Si / 1000 Ang^3
#
#
#
# Elastic Constant Matrix: (Units=GPa)
#
#
# Indices 1 2 3 4 5 6 
#
# 1 54.9304 -4.7656 9.3654 0.0000 0.0000 0.0000
# 2 -4.7656 54.0842 6.8168 0.0000 0.0000 0.0000
# 3 9.3654 6.8168 112.1664 0.0000 0.0000 0.0000
# 4 0.0000 0.0000 0.0000 34.2940 0.0000 0.0000
# 5 0.0000 0.0000 0.0000 0.0000 13.6236 0.0000
# 6 0.0000 0.0000 0.0000 0.0000 0.0000 20.0568
#
#
#
# Elastic Compliance Matrix: (Units=1/GPa)
#
#
# Indices 1 2 3 4 5 6 
#
# 1 0.018650 0.001854 -0.001670 0.000000 0.000000 0.000000
# 2 0.001854 0.018817 -0.001298 0.000000 0.000000 0.000000
# 3 -0.001670 -0.001298 0.009134 0.000000 0.000000 0.000000
# 4 0.000000 0.000000 0.000000 0.029160 0.000000 0.000000
# 5 0.000000 0.000000 0.000000 0.000000 0.073402 0.000000
# 6 0.000000 0.000000 0.000000 0.000000 0.000000 0.049858
#
#
# Mechanical properties :
#
#
# Convention : Reuss Voigt Hill
#
# Bulk Modulus (GPa) = 22.53677 27.11270 24.82473
# Shear Modulus (GPa) = 23.14382 27.57915 25.36148
#
# Velocity S-wave (km/s) = 3.34465 3.65110 3.50123
# Velocity P-wave (km/s) = 5.08025 5.55690 5.32391
#
# Compressibility (1/GPa) = 0.04437194
#
# Stress axis : x y z
#
# Youngs Moduli (GPa) = 53.61812 53.14430 109.48505
#
# Poissons Ratio (x) = -0.09852 0.18283
# Poissons Ratio (y) = -0.09940 0.14215
# Poissons Ratio (z) = 0.08954 0.06900
#
# Static dielectric constant tensor:
#      x y z
#    x 1.668950 0.000000 0.000000 
#    y 0.000000 1.816210 0.000000 
#    z 0.000000 0.000000 1.848120 
# 
# From -- ./inp_files/69740.got.cif
#   From: 2010.05.17/outbox.cif.g08.bks.cpg/sg63_35_cif.got.tgz:69740.got - 2010.06.03 15:47:04.
