data_PCOD9475551
_publ_section_title
;
Structure prediction by ZEFSAII (Michael W. Deem and Ramdas Pophale) SiO2 
 PCOD9475551
Probable space group: C M C M
;
_chemical_formula_sum "Si O2"
_cell_formula_units_Z 68
_cell_length_a 7.328953
_cell_length_b 24.157705
_cell_length_c 17.979207
_cell_angle_alpha 90.000000
_cell_angle_beta 90.000000
_cell_angle_gamma 90.000000
_cell_volume 3183.230907
_symmetry_space_group_name_H-M "C M C M"
_symmetry_group_IT_number 63
_symmetry_cell_setting 'orthorhombic'
loop_
_space_group_symop_operation_xyz
x,y,z
-x,-y,1/2+z
x,-y,-z
-x,y,1/2-z
-x,-y,-z
x,y,1/2-z
-x,y,z
x,-y,1/2+z
1/2+x,1/2+y,z
1/2-x,1/2-y,1/2+z
1/2+x,1/2-y,-z
1/2-x,1/2+y,1/2-z
1/2-x,1/2-y,-z
1/2+x,1/2+y,1/2-z
1/2-x,1/2+y,z
1/2+x,1/2-y,1/2+z
loop_
_atom_site_type_symbol
_atom_site_label
_atom_site_fract_x
_atom_site_fract_y
_atom_site_fract_z
Si Si1 0.720383 0.249371 0.163502
Si Si2 0.208397 0.868660 0.618761
Si Si3 0.222371 0.874581 0.165228
Si Si4 0.278432 0.560754 0.976711
Si Si5 0.500000 0.110855 0.250000
O O1 0.773060 0.239666 0.250000
O O2 0.500000 0.247206 0.161953
O O3 0.788571 0.198206 0.115816
O O4 0.776381 0.311697 0.144348
O O5 0.267218 0.895850 0.541272
O O6 0.341548 0.885961 0.684763
O O7 0.000000 0.886566 0.633565
O O8 0.280689 0.885773 0.250000
O O9 0.284238 0.917732 0.103476
O O10 0.000000 0.874693 0.166097
O O11 0.500000 0.558840 0.972839
O O12 0.215267 0.500000 0.000000
#
# Coordination Sequence:
#
# PCOD9475551 Si02
#       5
#    16  16  16  16   4
#     4   9  15  29  52  83 120 152 189 241 297 358
#     4  11  21  35  61  91 122 159 199 244 301 357
#     4   8  15  29  54  82 116 162 201 238 301 363
#     4   9  19  36  54  85 125 158 204 258 297 348
#     4  12  22  40  58  90 126 160 196 248 298 364
#
# _framework density 21.361944000000001
#
# number of rings (size 3 to 8) (size 9 to 14) (size 15 to 20)
#    0.000    2.588    2.353    1.765    0.000    0.941 
#    2.118    0.588    2.588    0.000    0.000    0.000 
#    0.000    0.000    0.000    0.000    0.000    0.000 
#
# Total GULP energy -189325.833682 kJ/mol
# GULP energy per Si atom -5568.406873 kJ/mol
# Density = 2.131332 g / cm^3
# Si number density = 21.361944 Si / 1000 Ang^3
#
#
#
# Elastic Constant Matrix: (Units=GPa)
#
#
# Indices 1 2 3 4 5 6 
#
# 1 106.0030 -1.0241 27.3740 0.0000 0.0000 0.0000
# 2 -1.0241 151.8095 106.4762 0.0000 0.0000 0.0000
# 3 27.3740 106.4762 162.8134 0.0000 0.0000 0.0000
# 4 0.0000 0.0000 0.0000 -371.8520 0.0000 0.0000
# 5 0.0000 0.0000 0.0000 0.0000 0.2647 0.0000
# 6 0.0000 0.0000 0.0000 0.0000 0.0000 15.0569
#
#
#
# Elastic Compliance Matrix: (Units=1/GPa)
#
#
# Indices 1 2 3 4 5 6 
#
# 1 0.010305 0.002373 -0.003285 0.000000 0.000000 0.000000
# 2 0.002373 0.012716 -0.008715 0.000000 0.000000 0.000000
# 3 -0.003285 -0.008715 0.012393 0.000000 0.000000 0.000000
# 4 0.000000 0.000000 0.000000 -0.002689 0.000000 0.000000
# 5 0.000000 0.000000 0.000000 0.000000 3.778426 0.000000
# 6 0.000000 0.000000 0.000000 0.000000 0.000000 0.066415
#
#
# Mechanical properties :
#
#
# Convention : Reuss Voigt Hill
#
# Bulk Modulus (GPa) = 61.87444 76.25312 69.06378
# Shear Modulus (GPa) = 1.28133 -52.11944 -25.41906
#
# Velocity S-wave (km/s) = 0.77532 -4.94482 -3.45327
# Velocity P-wave (km/s) = 5.46161 1.78091 4.06207
#
# Compressibility (1/GPa) = 0.01616176
#
# Stress axis : x y z
#
# Youngs Moduli (GPa) = 97.04168 78.64409 80.68778
#
# Poissons Ratio (x) = -0.18665 0.26503
# Poissons Ratio (y) = -0.23031 0.70317
# Poissons Ratio (z) = 0.31875 0.68536
#
# Static dielectric constant tensor:
#      x y z
#    x 1.826230 0.000000 0.000000 
#    y 0.000000 1.775360 0.000000 
#    z 0.000000 0.000000 1.729010 
# 
# From -- ./inp_files/40361.got.cif
#   From: 2010.05.17/outbox.cif.g08.bks.cpg/sg63_21_cif.got.tgz:40361.got - 2010.06.03 15:47:04.
