data_PCOD9475469
_publ_section_title
;
Structure prediction by ZEFSAII (Michael W. Deem and Ramdas Pophale) SiO2 
 PCOD9475469
Probable space group: C M C M
;
_chemical_formula_sum "Si O2"
_cell_formula_units_Z 96
_cell_length_a 15.580190
_cell_length_b 13.698174
_cell_length_c 21.497321
_cell_angle_alpha 90.000000
_cell_angle_beta 90.000000
_cell_angle_gamma 90.000000
_cell_volume 4587.961549
_symmetry_space_group_name_H-M "C M C M"
_symmetry_group_IT_number 63
_symmetry_cell_setting 'orthorhombic'
loop_
_space_group_symop_operation_xyz
x,y,z
-x,-y,1/2+z
x,-y,-z
-x,y,1/2-z
-x,-y,-z
x,y,1/2-z
-x,y,z
x,-y,1/2+z
1/2+x,1/2+y,z
1/2-x,1/2-y,1/2+z
1/2+x,1/2-y,-z
1/2-x,1/2+y,1/2-z
1/2-x,1/2-y,-z
1/2+x,1/2+y,1/2-z
1/2-x,1/2+y,z
1/2+x,1/2-y,1/2+z
loop_
_atom_site_type_symbol
_atom_site_label
_atom_site_fract_x
_atom_site_fract_y
_atom_site_fract_z
Si Si1 0.730890 0.680940 0.823194
Si Si2 0.669041 0.126424 0.105945
Si Si3 0.906230 0.315095 0.481639
Si Si4 0.901868 0.940417 0.096838
Si Si5 0.098937 0.428643 0.362162
Si Si6 0.338881 0.617795 0.041141
O O1 0.716268 0.686454 0.750000
O O2 0.708162 0.785373 0.854050
O O3 0.664734 0.604013 0.854473
O O4 0.828078 0.642164 0.834557
O O5 0.744695 0.085081 0.061598
O O6 0.628327 0.040142 0.146089
O O7 0.603517 0.165672 0.054217
O O8 0.899547 0.407706 0.436772
O O9 0.840213 0.234422 0.457845
O O10 0.000000 0.270598 0.470207
O O11 0.000000 0.909715 0.107417
O O12 0.897240 0.057856 0.089334
O O13 0.869241 0.906008 0.028610
O O14 0.000000 0.412644 0.341758
#
# Coordination Sequence:
#
# PCOD9475469 Si02
#       6
#    16  16  16  16  16  16
#     4  12  27  47  67  92 132 183 233 282 332 399
#     4  12  23  40  66 100 137 175 220 274 339 411
#     4  11  21  36  64 103 139 172 216 275 345 417
#     4  11  23  40  65 101 137 173 219 273 340 414
#     4  11  25  45  70 102 137 179 227 286 347 404
#     4  11  20  36  67  99 135 168 213 271 347 407
#
# _framework density 20.924325
#
# number of rings (size 3 to 8) (size 9 to 14) (size 15 to 20)
#    0.000    0.667    5.000    4.500    2.333    3.333 
#    0.000    0.000    0.000    0.000    0.000    0.000 
#    0.000    0.000    0.000    0.000    0.000    0.000 
#
# Total GULP energy -267953.149441 kJ/mol
# GULP energy per Si atom -5582.357280 kJ/mol
# Density = 2.087670 g / cm^3
# Si number density = 20.924325 Si / 1000 Ang^3
#
#
#
# Elastic Constant Matrix: (Units=GPa)
#
#
# Indices 1 2 3 4 5 6 
#
# 1 145.1323 25.1876 35.0737 0.0000 0.0000 0.0000
# 2 25.1876 100.5275 27.2541 0.0000 0.0000 0.0000
# 3 35.0737 27.2541 93.6010 0.0000 0.0000 0.0000
# 4 0.0000 0.0000 0.0000 14.5875 0.0000 0.0000
# 5 0.0000 0.0000 0.0000 0.0000 6.7814 0.0000
# 6 0.0000 0.0000 0.0000 0.0000 0.0000 25.4899
#
#
#
# Elastic Compliance Matrix: (Units=1/GPa)
#
#
# Indices 1 2 3 4 5 6 
#
# 1 0.007718 -0.001248 -0.002529 0.000000 0.000000 0.000000
# 2 -0.001248 0.011002 -0.002736 0.000000 0.000000 0.000000
# 3 -0.002529 -0.002736 0.012428 0.000000 0.000000 0.000000
# 4 0.000000 0.000000 0.000000 0.068552 0.000000 0.000000
# 5 0.000000 0.000000 0.000000 0.000000 0.147462 0.000000
# 6 0.000000 0.000000 0.000000 0.000000 0.000000 0.039231
#
#
# Mechanical properties :
#
#
# Convention : Reuss Voigt Hill
#
# Bulk Modulus (GPa) = 55.17996 57.14351 56.16174
# Shear Modulus (GPa) = 16.36882 26.15479 21.26180
#
# Velocity S-wave (km/s) = 2.79997 3.53933 3.19114
# Velocity P-wave (km/s) = 6.07302 6.63863 6.36211
#
# Compressibility (1/GPa) = 0.01812252
#
# Stress axis : x y z
#
# Youngs Moduli (GPa) = 129.56771 90.89287 80.46527
#
# Poissons Ratio (x) = 0.11346 0.20346
# Poissons Ratio (y) = 0.16173 0.22013
# Poissons Ratio (z) = 0.32762 0.24866
#
# Static dielectric constant tensor:
#      x y z
#    x 1.817040 0.000000 0.000000 
#    y 0.000000 1.859180 0.000000 
#    z 0.000000 0.000000 1.701290 
# 
# From -- ./inp_files/54191.got.cif
#   From: 2010.05.17/outbox.cif.g08.bks.cpg/sg63_28_cif.got.tgz:54191.got - 2010.06.03 15:47:04.
