data_PCOD9475256
_publ_section_title
;
Structure prediction by ZEFSAII (Michael W. Deem and Ramdas Pophale) SiO2 
 PCOD9475256
Probable space group: C M C M
;
_chemical_formula_sum "Si O2"
_cell_formula_units_Z 40
_cell_length_a 17.617451
_cell_length_b 5.084586
_cell_length_c 20.467677
_cell_angle_alpha 90.000000
_cell_angle_beta 90.000000
_cell_angle_gamma 90.000000
_cell_volume 1833.442205
_symmetry_space_group_name_H-M "C M C M"
_symmetry_group_IT_number 63
_symmetry_cell_setting 'orthorhombic'
loop_
_space_group_symop_operation_xyz
x,y,z
-x,-y,1/2+z
x,-y,-z
-x,y,1/2-z
-x,-y,-z
x,y,1/2-z
-x,y,z
x,-y,1/2+z
1/2+x,1/2+y,z
1/2-x,1/2-y,1/2+z
1/2+x,1/2-y,-z
1/2-x,1/2+y,1/2-z
1/2-x,1/2-y,-z
1/2+x,1/2+y,1/2-z
1/2-x,1/2+y,z
1/2+x,1/2-y,1/2+z
loop_
_atom_site_type_symbol
_atom_site_label
_atom_site_fract_x
_atom_site_fract_y
_atom_site_fract_z
Si Si1 0.303050 0.426960 0.325312
Si Si2 0.693877 0.000000 0.000000
Si Si3 0.912511 0.844237 0.569285
O O1 0.329213 0.443033 0.250000
O O2 0.260984 0.151039 0.334807
O O3 0.369609 0.490629 0.375565
O O4 0.635506 0.921417 0.057346
O O5 0.750000 0.250000 0.000000
O O6 0.000000 0.792084 0.584982
O O7 0.910001 0.000000 0.500000
#
# Coordination Sequence:
#
# PCOD9475256 Si02
#       3
#    16   8  16
#     4  10  23  43  66  93 125 169 222 266 314 385
#     4  12  23  40  63  90 122 166 212 258 309 372
#     4  11  25  42  64  99 137 169 212 269 330 391
#
# _framework density 21.816886
#
# number of rings (size 3 to 8) (size 9 to 14) (size 15 to 20)
#    0.000    1.200    2.000    3.000    5.600    0.800 
#    0.000    0.000    0.000    7.200    0.000    0.000 
#    0.000    0.000    0.000    0.000    0.000    0.000 
#
# Total GULP energy -111879.230595 kJ/mol
# GULP energy per Si atom -5593.961530 kJ/mol
# Density = 2.176723 g / cm^3
# Si number density = 21.816886 Si / 1000 Ang^3
#
#
#
# Elastic Constant Matrix: (Units=GPa)
#
#
# Indices 1 2 3 4 5 6 
#
# 1 167.6839 37.8174 73.7533 0.0000 0.0000 0.0000
# 2 37.8174 131.2420 24.4544 0.0000 0.0000 0.0000
# 3 73.7533 24.4544 131.4280 0.0000 0.0000 0.0000
# 4 0.0000 0.0000 0.0000 31.1374 0.0000 0.0000
# 5 0.0000 0.0000 0.0000 0.0000 29.5653 0.0000
# 6 0.0000 0.0000 0.0000 0.0000 0.0000 22.6740
#
#
#
# Elastic Compliance Matrix: (Units=1/GPa)
#
#
# Indices 1 2 3 4 5 6 
#
# 1 0.008216 -0.001563 -0.004320 0.000000 0.000000 0.000000
# 2 -0.001563 0.008190 -0.000647 0.000000 0.000000 0.000000
# 3 -0.004320 -0.000647 0.010153 0.000000 0.000000 0.000000
# 4 0.000000 0.000000 0.000000 0.032116 0.000000 0.000000
# 5 0.000000 0.000000 0.000000 0.000000 0.033823 0.000000
# 6 0.000000 0.000000 0.000000 0.000000 0.000000 0.044103
#
#
# Mechanical properties :
#
#
# Convention : Reuss Voigt Hill
#
# Bulk Modulus (GPa) = 74.07025 78.04488 76.05757
# Shear Modulus (GPa) = 32.43354 36.29725 34.36540
#
# Velocity S-wave (km/s) = 3.85986 4.08330 3.97315
# Velocity P-wave (km/s) = 7.34093 7.62112 7.48234
#
# Compressibility (1/GPa) = 0.01350070
#
# Stress axis : x y z
#
# Youngs Moduli (GPa) = 121.71353 122.09519 98.49023
#
# Poissons Ratio (x) = 0.19078 0.42546
# Poissons Ratio (y) = 0.19018 0.06373
# Poissons Ratio (z) = 0.52578 0.07901
#
# Static dielectric constant tensor:
#      x y z
#    x 1.757250 0.000000 0.000000 
#    y 0.000000 1.850960 0.000000 
#    z 0.000000 0.000000 1.868160 
# 
# From -- ./inp_files/46402.got.cif
#   From: 2010.05.17/outbox.cif.g08.bks.cpg/sg63_24_cif.got.tgz:46402.got - 2010.06.03 15:47:04.
