data_PCOD9475677
_publ_section_title
;
Structure prediction by ZEFSAII (Michael W. Deem and Ramdas Pophale) SiO2 
 PCOD9475677
Probable space group: C M C M
;
_chemical_formula_sum "Si O2"
_cell_formula_units_Z 112
_cell_length_a 14.436668
_cell_length_b 23.263963
_cell_length_c 13.456372
_cell_angle_alpha 90.000000
_cell_angle_beta 90.000000
_cell_angle_gamma 90.000000
_cell_volume 4519.377845
_symmetry_space_group_name_H-M "C M C M"
_symmetry_group_IT_number 63
_symmetry_cell_setting 'orthorhombic'
loop_
_space_group_symop_operation_xyz
x,y,z
-x,-y,1/2+z
x,-y,-z
-x,y,1/2-z
-x,-y,-z
x,y,1/2-z
-x,y,z
x,-y,1/2+z
1/2+x,1/2+y,z
1/2-x,1/2-y,1/2+z
1/2+x,1/2-y,-z
1/2-x,1/2+y,1/2-z
1/2-x,1/2-y,-z
1/2+x,1/2+y,1/2-z
1/2-x,1/2+y,z
1/2+x,1/2-y,1/2+z
loop_
_atom_site_type_symbol
_atom_site_label
_atom_site_fract_x
_atom_site_fract_y
_atom_site_fract_z
Si Si1 0.630190 0.720588 0.858430
Si Si2 0.897252 0.068624 0.450159
Si Si3 0.649387 0.191396 0.643078
Si Si4 0.201988 0.962229 0.142172
Si Si5 0.867377 0.813861 0.923515
Si Si6 0.349947 0.155225 0.073293
Si Si7 0.395090 0.976705 0.888805
O O1 0.597288 0.701879 0.750000
O O2 0.740288 0.704863 0.858292
O O3 0.608820 0.788827 0.871492
O O4 0.599891 0.693465 0.962457
O O5 0.823557 0.073637 0.542579
O O6 0.902090 0.125871 0.386366
O O7 0.000000 0.059542 0.491864
O O8 0.861533 0.017499 0.381552
O O9 0.625358 0.165413 0.750000
O O10 0.609014 0.255477 0.631381
O O11 0.623593 0.156891 0.543959
O O12 0.180565 0.935778 0.250000
O O13 0.306719 0.986196 0.147025
O O14 0.757232 0.825453 0.922162
O O15 0.370181 0.091737 0.114584
O O16 0.500000 0.983993 0.850118
O O17 0.400106 0.000000 0.000000
#
# Coordination Sequence:
#
# PCOD9475677 Si02
#       7
#    16  16  16  16  16  16  16
#     4   8  15  27  49  80 113 154 199 243 290 353
#     4  11  23  41  63  91 127 162 205 253 306 366
#     4   8  15  28  52  84 117 158 204 245 291 353
#     4  11  23  42  65  88 119 161 206 252 309 366
#     4   9  16  31  54  83 118 155 199 246 293 353
#     4   9  16  32  54  80 118 157 200 244 303 363
#     4  11  22  40  65  90 120 156 202 255 310 370
#
# _framework density 24.782173
#
# number of rings (size 3 to 8) (size 9 to 14) (size 15 to 20)
#    0.000    2.429    2.857    2.571    0.000    3.143 
#    0.000    6.429    0.000    3.000    0.000    0.000 
#    0.000    0.000    0.000    0.000    0.000    0.000 
#
# Total GULP energy -312238.312433 kJ/mol
# GULP energy per Si atom -5575.684151 kJ/mol
# Density = 2.472577 g / cm^3
# Si number density = 24.782173 Si / 1000 Ang^3
#
#
#
# Elastic Constant Matrix: (Units=GPa)
#
#
# Indices 1 2 3 4 5 6 
#
# 1 145.2671 7.8688 18.4102 0.0000 0.0000 0.0000
# 2 7.8688 70.8981 -16.8700 0.0000 0.0000 0.0000
# 3 18.4102 -16.8700 102.4927 0.0000 0.0000 0.0000
# 4 0.0000 0.0000 0.0000 -17.3056 0.0000 0.0000
# 5 0.0000 0.0000 0.0000 0.0000 128.9238 0.0000
# 6 0.0000 0.0000 0.0000 0.0000 0.0000 -60.3657
#
#
#
# Elastic Compliance Matrix: (Units=1/GPa)
#
#
# Indices 1 2 3 4 5 6 
#
# 1 0.007132 -0.001141 -0.001469 0.000000 0.000000 0.000000
# 2 -0.001141 0.014862 0.002651 0.000000 0.000000 0.000000
# 3 -0.001469 0.002651 0.010457 0.000000 0.000000 0.000000
# 4 0.000000 0.000000 0.000000 -0.057785 0.000000 0.000000
# 5 0.000000 0.000000 0.000000 0.000000 0.007757 0.000000
# 6 0.000000 0.000000 0.000000 0.000000 0.000000 -0.016566
#
#
# Mechanical properties :
#
#
# Convention : Reuss Voigt Hill
#
# Bulk Modulus (GPa) = 30.73731 37.49733 34.11732
# Shear Modulus (GPa) = -213.85015 30.86708 -91.49154
#
# Velocity S-wave (km/s) = -9.29942 3.53304 -6.08263
# Velocity P-wave (km/s) = 10.14277 5.63975 5.96108
#
# Compressibility (1/GPa) = 0.03253375
#
# Stress axis : x y z
#
# Youngs Moduli (GPa) = 140.21638 67.28457 95.62946
#
# Poissons Ratio (x) = 0.07678 0.14047
# Poissons Ratio (y) = 0.15999 -0.25354
# Poissons Ratio (z) = 0.20596 -0.17839
#
# Static dielectric constant tensor:
#      x y z
#    x 2.062760 0.000000 0.000000 
#    y 0.000000 1.952070 0.000000 
#    z 0.000000 0.000000 2.146620 
# 
# From -- ./inp_files/32536.got.cif
#   From: 2010.05.17/outbox.cif.g08.bks.cpg/sg63_17_cif.got.tgz:32536.got - 2010.06.03 15:47:04.
