data_PCOD9475438
_publ_section_title
;
Structure prediction by ZEFSAII (Michael W. Deem and Ramdas Pophale) SiO2 
 PCOD9475438
Probable space group: C M C M
;
_chemical_formula_sum "Si O2"
_cell_formula_units_Z 112
_cell_length_a 15.031386
_cell_length_b 22.397944
_cell_length_c 15.272871
_cell_angle_alpha 90.000000
_cell_angle_beta 90.000000
_cell_angle_gamma 90.000000
_cell_volume 5141.950192
_symmetry_space_group_name_H-M "C M C M"
_symmetry_group_IT_number 63
_symmetry_cell_setting 'orthorhombic'
loop_
_space_group_symop_operation_xyz
x,y,z
-x,-y,1/2+z
x,-y,-z
-x,y,1/2-z
-x,-y,-z
x,y,1/2-z
-x,y,z
x,-y,1/2+z
1/2+x,1/2+y,z
1/2-x,1/2-y,1/2+z
1/2+x,1/2-y,-z
1/2-x,1/2+y,1/2-z
1/2-x,1/2-y,-z
1/2+x,1/2+y,1/2-z
1/2-x,1/2+y,z
1/2+x,1/2-y,1/2+z
loop_
_atom_site_type_symbol
_atom_site_label
_atom_site_fract_x
_atom_site_fract_y
_atom_site_fract_z
Si Si1 0.397740 0.870137 0.539325
Si Si2 0.895746 0.129244 0.647587
Si Si3 0.278128 0.317472 0.512126
Si Si4 0.399181 0.118412 0.657944
Si Si5 0.397573 0.364550 0.844410
Si Si6 0.138206 0.480350 0.847499
Si Si7 0.656176 0.503703 0.394911
O O1 0.500000 0.847698 0.551637
O O2 0.304041 0.844571 0.571929
O O3 0.370026 0.862114 0.437229
O O4 0.397676 0.937165 0.577208
O O5 0.880176 0.146124 0.750000
O O6 0.822548 0.155014 0.578128
O O7 0.000000 0.144398 0.626077
O O8 0.885686 0.057236 0.640588
O O9 0.250000 0.250000 0.500000
O O10 0.358164 0.325562 0.579161
O O11 0.352583 0.133674 0.750000
O O12 0.500000 0.140121 0.663392
O O13 0.401131 0.046610 0.651514
O O14 0.353855 0.354584 0.750000
O O15 0.500000 0.350024 0.838289
O O16 0.389258 0.434823 0.867101
O O17 0.121451 0.454787 0.750000
O O18 0.242615 0.490797 0.862334
O O19 0.656625 0.500000 0.500000
#
# Coordination Sequence:
#
# PCOD9475438 Si02
#       7
#    16  16  16  16  16  16  16
#     4  11  23  39  59  86 120 165 221 275 328 386
#     4  11  24  43  70 106 144 180 222 281 356 429
#     4  12  27  46  69  93 128 180 235 294 345 403
#     4   9  18  32  52  81 117 156 199 250 308 376
#     4  11  24  44  71 103 140 180 224 279 346 422
#     4  11  20  32  54  87 131 173 208 248 310 391
#     4  12  21  35  65 106 146 180 212 266 340 428
#
# _framework density 21.781618999999999
#
# number of rings (size 3 to 8) (size 9 to 14) (size 15 to 20)
#    0.000    1.000    2.857    4.714    0.000    7.143 
#    0.000    0.000    0.000    1.714    0.000    0.000 
#    0.000    0.000    0.000    0.000    0.000    0.000 
#
# Total GULP energy -312011.706507 kJ/mol
# GULP energy per Si atom -5571.637616 kJ/mol
# Density = 2.173204 g / cm^3
# Si number density = 21.781619 Si / 1000 Ang^3
#
#
#
# Elastic Constant Matrix: (Units=GPa)
#
#
# Indices 1 2 3 4 5 6 
#
# 1 129.3282 5.1829 9.1780 0.0000 0.0000 0.0000
# 2 5.1829 44.3129 -3.0516 0.0000 0.0000 0.0000
# 3 9.1780 -3.0516 100.5574 0.0000 0.0000 0.0000
# 4 0.0000 0.0000 0.0000 -8.4060 0.0000 0.0000
# 5 0.0000 0.0000 0.0000 0.0000 14.7375 0.0000
# 6 0.0000 0.0000 0.0000 0.0000 0.0000 -61.7867
#
#
#
# Elastic Compliance Matrix: (Units=1/GPa)
#
#
# Indices 1 2 3 4 5 6 
#
# 1 0.007824 -0.000966 -0.000743 0.000000 0.000000 0.000000
# 2 -0.000966 0.022733 0.000778 0.000000 0.000000 0.000000
# 3 -0.000743 0.000778 0.010036 0.000000 0.000000 0.000000
# 4 0.000000 0.000000 0.000000 -0.118962 0.000000 0.000000
# 5 0.000000 0.000000 0.000000 0.000000 0.067854 0.000000
# 6 0.000000 0.000000 0.000000 0.000000 0.000000 -0.016185
#
#
# Mechanical properties :
#
#
# Convention : Reuss Voigt Hill
#
# Bulk Modulus (GPa) = 25.81982 32.97969 29.39976
# Shear Modulus (GPa) = -419.22451 6.43491 -206.39480
#
# Velocity S-wave (km/s) = -13.88830 1.72067 -9.74485
# Velocity P-wave (km/s) = 15.66206 4.37282 10.63435
#
# Compressibility (1/GPa) = 0.03872994
#
# Stress axis : x y z
#
# Youngs Moduli (GPa) = 127.81599 43.98820 99.64102
#
# Poissons Ratio (x) = 0.04250 0.07407
# Poissons Ratio (y) = 0.12350 -0.07753
# Poissons Ratio (z) = 0.09502 -0.03423
#
# Static dielectric constant tensor:
#      x y z
#    x 1.869830 0.000000 0.000000 
#    y 0.000000 1.836330 0.000000 
#    z 0.000000 0.000000 1.906400 
# 
# From -- ./inp_files/32254.got.cif
#   From: 2010.05.17/outbox.cif.g08.bks.cpg/sg63_17_cif.got.tgz:32254.got - 2010.06.03 15:47:04.
