data_PCOD9475092
_publ_section_title
;
Structure prediction by ZEFSAII (Michael W. Deem and Ramdas Pophale) SiO2 
 PCOD9475092
Probable space group: C M C M
;
_chemical_formula_sum "Si O2"
_cell_formula_units_Z 56
_cell_length_a 16.999465
_cell_length_b 16.883968
_cell_length_c 10.046117
_cell_angle_alpha 90.000000
_cell_angle_beta 90.000000
_cell_angle_gamma 90.000000
_cell_volume 2883.420659
_symmetry_space_group_name_H-M "C M C M"
_symmetry_group_IT_number 63
_symmetry_cell_setting 'orthorhombic'
loop_
_space_group_symop_operation_xyz
x,y,z
-x,-y,1/2+z
x,-y,-z
-x,y,1/2-z
-x,-y,-z
x,y,1/2-z
-x,y,z
x,-y,1/2+z
1/2+x,1/2+y,z
1/2-x,1/2-y,1/2+z
1/2+x,1/2-y,-z
1/2-x,1/2+y,1/2-z
1/2-x,1/2-y,-z
1/2+x,1/2+y,1/2-z
1/2-x,1/2+y,z
1/2+x,1/2-y,1/2+z
loop_
_atom_site_type_symbol
_atom_site_label
_atom_site_fract_x
_atom_site_fract_y
_atom_site_fract_z
Si Si1 0.408238 0.056587 0.250000
Si Si2 0.174730 0.343516 0.973190
Si Si3 0.664837 0.338487 0.401904
Si Si4 0.500000 0.577636 0.908852
Si Si5 0.408334 0.866837 0.250000
O O1 0.500000 0.079289 0.250000
O O2 0.367335 0.093281 0.379608
O O3 0.403021 0.962203 0.250000
O O4 0.167317 0.256886 0.908254
O O5 0.265577 0.365166 0.000188
O O6 0.133551 0.337708 0.116676
O O7 0.682918 0.363406 0.250000
O O8 0.579021 0.371915 0.435695
O O9 0.500000 0.558734 0.750000
O O10 0.500000 0.500000 0.000000
O O11 0.500000 0.844476 0.250000
#
# Coordination Sequence:
#
# PCOD9475092 Si02
#       5
#     8  16  16   8   8
#     4  11  24  39  64  95 129 168 205 248 316 380
#     4  11  22  41  66  93 125 169 213 253 315 373
#     4  10  22  42  66  93 124 165 216 261 310 375
#     4  10  24  46  66  94 127 167 214 264 323 377
#     4  11  24  39  58  97 133 162 203 258 306 374
#
# _framework density 19.421378000000001
#
# number of rings (size 3 to 8) (size 9 to 14) (size 15 to 20)
#    0.000    1.429    2.857    1.714    4.000    4.571 
#    5.143    0.000    0.000    0.000    0.000    0.000 
#    0.000    0.000    0.000    0.000    0.000    0.000 
#
# Total GULP energy -156486.349713 kJ/mol
# GULP energy per Si atom -5588.798204 kJ/mol
# Density = 1.937717 g / cm^3
# Si number density = 19.421378 Si / 1000 Ang^3
#
#
#
# Elastic Constant Matrix: (Units=GPa)
#
#
# Indices 1 2 3 4 5 6 
#
# 1 168.1396 42.7607 49.5457 0.0000 0.0000 0.0000
# 2 42.7607 29.5384 12.0193 0.0000 0.0000 0.0000
# 3 49.5457 12.0193 90.9452 0.0000 0.0000 0.0000
# 4 0.0000 0.0000 0.0000 28.9579 0.0000 0.0000
# 5 0.0000 0.0000 0.0000 0.0000 30.8241 0.0000
# 6 0.0000 0.0000 0.0000 0.0000 0.0000 51.6152
#
#
#
# Elastic Compliance Matrix: (Units=1/GPa)
#
#
# Indices 1 2 3 4 5 6 
#
# 1 0.010612 -0.013750 -0.003964 0.000000 0.000000 0.000000
# 2 -0.013750 0.053593 0.000408 0.000000 0.000000 0.000000
# 3 -0.003964 0.000408 0.013101 0.000000 0.000000 0.000000
# 4 0.000000 0.000000 0.000000 0.034533 0.000000 0.000000
# 5 0.000000 0.000000 0.000000 0.000000 0.032442 0.000000
# 6 0.000000 0.000000 0.000000 0.000000 0.000000 0.019374
#
#
# Mechanical properties :
#
#
# Convention : Reuss Voigt Hill
#
# Bulk Modulus (GPa) = 23.42235 55.25271 39.33753
# Shear Modulus (GPa) = 23.52945 34.56593 29.04769
#
# Velocity S-wave (km/s) = 3.48447 4.22333 3.87157
# Velocity P-wave (km/s) = 5.31742 7.23140 6.34698
#
# Compressibility (1/GPa) = 0.04269426
#
# Stress axis : x y z
#
# Youngs Moduli (GPa) = 94.22956 18.65922 76.32750
#
# Poissons Ratio (x) = 0.25656 0.30259
# Poissons Ratio (y) = 1.29563 -0.03113
# Poissons Ratio (z) = 0.37356 -0.00761
#
# Static dielectric constant tensor:
#      x y z
#    x 1.679820 0.000000 0.000000 
#    y 0.000000 1.639140 0.000000 
#    z 0.000000 0.000000 1.567350 
# 
# From -- ./inp_files/4043.got.cif
#   From: 2010.05.17/outbox.cif.g08.bks.cpg/sg63_3_cif.got.tgz:4043.got - 2010.06.03 15:47:04.
