data_PCOD9475564
_publ_section_title
;
Structure prediction by ZEFSAII (Michael W. Deem and Ramdas Pophale) SiO2 
 PCOD9475564
Probable space group: C M C M
;
_chemical_formula_sum "Si O2"
_cell_formula_units_Z 96
_cell_length_a 15.320892
_cell_length_b 23.556714
_cell_length_c 14.322611
_cell_angle_alpha 90.000000
_cell_angle_beta 90.000000
_cell_angle_gamma 90.000000
_cell_volume 5169.171689
_symmetry_space_group_name_H-M "C M C M"
_symmetry_group_IT_number 63
_symmetry_cell_setting 'orthorhombic'
loop_
_space_group_symop_operation_xyz
x,y,z
-x,-y,1/2+z
x,-y,-z
-x,y,1/2-z
-x,-y,-z
x,y,1/2-z
-x,y,z
x,-y,1/2+z
1/2+x,1/2+y,z
1/2-x,1/2-y,1/2+z
1/2+x,1/2-y,-z
1/2-x,1/2+y,1/2-z
1/2-x,1/2-y,-z
1/2+x,1/2+y,1/2-z
1/2-x,1/2+y,z
1/2+x,1/2-y,1/2+z
loop_
_atom_site_type_symbol
_atom_site_label
_atom_site_fract_x
_atom_site_fract_y
_atom_site_fract_z
Si Si1 0.898768 0.381785 0.996617
Si Si2 0.665756 0.346276 0.351698
Si Si3 0.708465 0.048418 0.857397
Si Si4 0.599783 0.657233 0.441824
Si Si5 0.752193 0.582475 0.360665
Si Si6 0.315745 0.771540 0.419894
O O1 0.836445 0.388302 0.907193
O O2 0.000000 0.389494 0.976259
O O3 0.863240 0.427786 0.071352
O O4 0.879303 0.320105 0.040709
O O5 0.621917 0.342679 0.250000
O O6 0.710243 0.408186 0.362659
O O7 0.611099 0.335308 0.445575
O O8 0.748556 0.303327 0.352008
O O9 0.676391 0.049892 0.750000
O O10 0.738020 0.984658 0.878535
O O11 0.500000 0.644082 0.420200
O O12 0.667411 0.609391 0.408858
O O13 0.630557 0.715889 0.392876
O O14 0.748622 0.591734 0.250000
O O15 0.250000 0.750000 0.500000
#
# Coordination Sequence:
#
# PCOD9475564 Si02
#       6
#    16  16  16  16  16  16
#     4  11  21  36  62  90 117 150 192 241 293 347
#     4   9  18  35  61  87 112 148 192 240 296 345
#     4   9  19  37  60  83 115 153 188 235 292 346
#     4  11  22  38  60  86 118 157 198 242 290 343
#     4  11  23  39  57  81 120 159 195 237 287 348
#     4   9  17  37  58  83 117 155 187 234 287 347
#
# _framework density 18.571641
#
# number of rings (size 3 to 8) (size 9 to 14) (size 15 to 20)
#    0.000    2.000    5.000    1.000    0.000    3.333 
#    0.000    3.333    0.000    8.000    0.000    0.000 
#    0.000    0.000    0.000    0.000    0.000    0.000 
#
# Total GULP energy -267629.629941 kJ/mol
# GULP energy per Si atom -5575.617290 kJ/mol
# Density = 1.852937 g / cm^3
# Si number density = 18.571641 Si / 1000 Ang^3
#
#
#
# Elastic Constant Matrix: (Units=GPa)
#
#
# Indices 1 2 3 4 5 6 
#
# 1 124.9177 45.5060 36.4061 0.0000 0.0000 0.0000
# 2 45.5060 83.2265 21.9836 0.0000 0.0000 0.0000
# 3 36.4061 21.9836 73.4758 0.0000 0.0000 0.0000
# 4 0.0000 0.0000 0.0000 -50.3556 0.0000 0.0000
# 5 0.0000 0.0000 0.0000 0.0000 6.3546 0.0000
# 6 0.0000 0.0000 0.0000 0.0000 0.0000 10.9838
#
#
#
# Elastic Compliance Matrix: (Units=1/GPa)
#
#
# Indices 1 2 3 4 5 6 
#
# 1 0.010959 -0.004949 -0.003949 0.000000 0.000000 0.000000
# 2 -0.004949 0.015281 -0.002120 0.000000 0.000000 0.000000
# 3 -0.003949 -0.002120 0.016201 0.000000 0.000000 0.000000
# 4 0.000000 0.000000 0.000000 -0.019859 0.000000 0.000000
# 5 0.000000 0.000000 0.000000 0.000000 0.157366 0.000000
# 6 0.000000 0.000000 0.000000 0.000000 0.000000 0.091043
#
#
# Mechanical properties :
#
#
# Convention : Reuss Voigt Hill
#
# Bulk Modulus (GPa) = 49.00779 54.37905 51.69342
# Shear Modulus (GPa) = 16.67611 5.24484 10.96048
#
# Velocity S-wave (km/s) = 2.99981 1.68233 2.43198
# Velocity P-wave (km/s) = 6.20034 5.75482 5.98173
#
# Compressibility (1/GPa) = 0.02040492
#
# Stress axis : x y z
#
# Youngs Moduli (GPa) = 91.24813 65.43926 61.72433
#
# Poissons Ratio (x) = 0.32386 0.24377
# Poissons Ratio (y) = 0.45158 0.13085
# Poissons Ratio (z) = 0.36037 0.13873
#
# Static dielectric constant tensor:
#      x y z
#    x 1.606620 0.000000 0.000000 
#    y 0.000000 1.655010 0.000000 
#    z 0.000000 0.000000 1.673200 
# 
# From -- ./inp_files/31958.got.cif
#   From: 2010.05.17/outbox.cif.g08.bks.cpg/sg63_16_cif.got.tgz:31958.got - 2010.06.03 15:47:04.
