data_PCOD9475704
_publ_section_title
;
Structure prediction by ZEFSAII (Michael W. Deem and Ramdas Pophale) SiO2 
 PCOD9475704
Probable space group: C M C M
;
_chemical_formula_sum "Si O2"
_cell_formula_units_Z 80
_cell_length_a 8.667258
_cell_length_b 28.260547
_cell_length_c 18.759065
_cell_angle_alpha 90.000000
_cell_angle_beta 90.000000
_cell_angle_gamma 90.000000
_cell_volume 4594.872621
_symmetry_space_group_name_H-M "C M C M"
_symmetry_group_IT_number 63
_symmetry_cell_setting 'orthorhombic'
loop_
_space_group_symop_operation_xyz
x,y,z
-x,-y,1/2+z
x,-y,-z
-x,y,1/2-z
-x,-y,-z
x,y,1/2-z
-x,y,z
x,-y,1/2+z
1/2+x,1/2+y,z
1/2-x,1/2-y,1/2+z
1/2+x,1/2-y,-z
1/2-x,1/2+y,1/2-z
1/2-x,1/2-y,-z
1/2+x,1/2+y,1/2-z
1/2-x,1/2+y,z
1/2+x,1/2-y,1/2+z
loop_
_atom_site_type_symbol
_atom_site_label
_atom_site_fract_x
_atom_site_fract_y
_atom_site_fract_z
Si Si1 0.185965 0.397283 0.546151
Si Si2 0.313644 0.799500 0.026699
Si Si3 0.812322 0.347144 0.170660
Si Si4 0.184405 0.041699 0.331933
Si Si5 0.314010 0.946370 0.400144
O O1 0.231823 0.344426 0.522254
O O2 0.254932 0.415593 0.619455
O O3 0.230551 0.432481 0.480995
O O4 0.000000 0.398488 0.550030
O O5 0.500000 0.797976 0.026630
O O6 0.262042 0.812689 0.107054
O O7 0.250000 0.750000 0.000000
O O8 0.756674 0.336064 0.250000
O O9 0.772342 0.400668 0.147648
O O10 0.000000 0.345648 0.171377
O O11 0.239331 0.043769 0.250000
O O12 0.000000 0.042201 0.331690
O O13 0.241577 0.993504 0.369022
O O14 0.500000 0.951298 0.399044
#
# Coordination Sequence:
#
# PCOD9475704 Si02
#       5
#    16  16  16  16  16
#     4   9  19  35  53  73  96 126 167 205 237 288
#     4   9  18  33  53  75  97 123 158 199 242 289
#     4   8  14  27  49  75  98 121 154 195 237 284
#     4  11  23  34  45  69 104 136 166 200 240 286
#     4   9  17  31  53  76  96 124 163 201 239 289
#
# _framework density 17.410710000000002
#
# number of rings (size 3 to 8) (size 9 to 14) (size 15 to 20)
#    0.000    2.800    0.000    4.200    0.000    6.400 
#    0.000    4.000    0.000    5.400    0.000    0.000 
#    0.000    0.000    0.000    0.000    0.000    0.000 
#
# Total GULP energy -223047.925839 kJ/mol
# GULP energy per Si atom -5576.198146 kJ/mol
# Density = 1.737108 g / cm^3
# Si number density = 17.410710 Si / 1000 Ang^3
#
#
#
# Elastic Constant Matrix: (Units=GPa)
#
#
# Indices 1 2 3 4 5 6 
#
# 1 12.7384 25.9131 29.3532 0.0000 0.0000 0.0000
# 2 25.9131 119.5127 91.7594 0.0000 0.0000 0.0000
# 3 29.3532 91.7594 137.3079 0.0000 0.0000 0.0000
# 4 0.0000 0.0000 0.0000 16.1419 0.0000 0.0000
# 5 0.0000 0.0000 0.0000 0.0000 21.2475 0.0000
# 6 0.0000 0.0000 0.0000 0.0000 0.0000 29.2762
#
#
#
# Elastic Compliance Matrix: (Units=1/GPa)
#
#
# Indices 1 2 3 4 5 6 
#
# 1 0.172952 -0.018716 -0.024466 0.000000 0.000000 0.000000
# 2 -0.018716 0.019210 -0.008836 0.000000 0.000000 0.000000
# 3 -0.024466 -0.008836 0.018418 0.000000 0.000000 0.000000
# 4 0.000000 0.000000 0.000000 0.061950 0.000000 0.000000
# 5 0.000000 0.000000 0.000000 0.000000 0.047064 0.000000
# 6 0.000000 0.000000 0.000000 0.000000 0.000000 0.034157
#
#
# Mechanical properties :
#
#
# Convention : Reuss Voigt Hill
#
# Bulk Modulus (GPa) = 9.38576 62.62337 36.00456
# Shear Modulus (GPa) = 10.13576 21.50202 15.81889
#
# Velocity S-wave (km/s) = 2.41541 3.51805 3.01752
# Velocity P-wave (km/s) = 3.63062 7.24904 5.73280
#
# Compressibility (1/GPa) = 0.10654442
#
# Stress axis : x y z
#
# Youngs Moduli (GPa) = 5.78194 52.05702 54.29380
#
# Poissons Ratio (x) = 0.97428 1.32835
# Poissons Ratio (y) = 0.10821 0.47976
# Poissons Ratio (z) = 0.14146 0.46000
#
# Static dielectric constant tensor:
#      x y z
#    x 1.592690 0.000000 0.000000 
#    y 0.000000 1.565190 0.000000 
#    z 0.000000 0.000000 1.608560 
# 
# From -- ./inp_files/40468.got.cif
#   From: 2010.05.17/outbox.cif.g08.bks.cpg/sg63_21_cif.got.tgz:40468.got - 2010.06.03 15:47:04.
