data_PCOD9475555
_publ_section_title
;
Structure prediction by ZEFSAII (Michael W. Deem and Ramdas Pophale) SiO2 
 PCOD9475555
Probable space group: C M C M
;
_chemical_formula_sum "Si O2"
_cell_formula_units_Z 88
_cell_length_a 17.395825
_cell_length_b 30.926792
_cell_length_c 7.728890
_cell_angle_alpha 90.000000
_cell_angle_beta 90.000000
_cell_angle_gamma 90.000000
_cell_volume 4158.120108
_symmetry_space_group_name_H-M "C M C M"
_symmetry_group_IT_number 63
_symmetry_cell_setting 'orthorhombic'
loop_
_space_group_symop_operation_xyz
x,y,z
-x,-y,1/2+z
x,-y,-z
-x,y,1/2-z
-x,-y,-z
x,y,1/2-z
-x,y,z
x,-y,1/2+z
1/2+x,1/2+y,z
1/2-x,1/2-y,1/2+z
1/2+x,1/2-y,-z
1/2-x,1/2+y,1/2-z
1/2-x,1/2-y,-z
1/2+x,1/2+y,1/2-z
1/2-x,1/2+y,z
1/2+x,1/2-y,1/2+z
loop_
_atom_site_type_symbol
_atom_site_label
_atom_site_fract_x
_atom_site_fract_y
_atom_site_fract_z
Si Si1 0.193668 0.450352 0.945755
Si Si2 0.156173 0.097602 0.548256
Si Si3 0.593648 0.219337 0.047471
Si Si4 0.410501 0.874413 0.537333
Si Si5 0.000000 0.050500 0.456080
Si Si6 0.410197 0.686411 0.962211
O O1 0.166773 0.451981 0.750000
O O2 0.137836 0.414855 0.030875
O O3 0.194471 0.500000 0.000000
O O4 0.278131 0.429783 0.956908
O O5 0.177399 0.100004 0.750000
O O6 0.141100 0.146085 0.480859
O O7 0.075519 0.072994 0.531106
O O8 0.615330 0.219961 0.250000
O O9 0.500000 0.219024 0.041263
O O10 0.618416 0.172866 0.975151
O O11 0.616279 0.266216 0.975425
O O12 0.406855 0.872509 0.750000
O O13 0.500000 0.879083 0.492464
O O14 0.000000 0.056078 0.250000
O O15 0.000000 0.000000 0.500000
O O16 0.409901 0.686537 0.750000
O O17 0.500000 0.679809 0.011929
#
# Coordination Sequence:
#
# PCOD9475555 Si02
#       6
#    16  16  16  16   8  16
#     4  11  23  38  54  75 105 139 178 224 276 322
#     4  11  21  36  55  78 109 142 180 219 262 313
#     4   7  10  20  43  75 106 133 166 208 253 305
#     4   8  15  30  53  79 106 136 173 218 265 320
#     4  12  24  38  56  78 104 138 182 228 271 312
#     4   8  13  24  46  76 106 136 173 211 248 300
#
# _framework density 21.163409000000001
#
# number of rings (size 3 to 8) (size 9 to 14) (size 15 to 20)
#    0.000    2.727    0.909    4.636    0.000    0.364 
#    0.000    0.909    0.000    1.636    0.000    3.818 
#    0.000    0.000    0.000    0.000    0.000    0.000 
#
# Total GULP energy -245324.076330 kJ/mol
# GULP energy per Si atom -5575.547189 kJ/mol
# Density = 2.111524 g / cm^3
# Si number density = 21.163409 Si / 1000 Ang^3
#
#
#
# Elastic Constant Matrix: (Units=GPa)
#
#
# Indices 1 2 3 4 5 6 
#
# 1 35.1459 60.9404 -12.3079 0.0000 0.0000 0.0000
# 2 60.9404 255.9705 8.1435 0.0000 0.0000 0.0000
# 3 -12.3079 8.1435 36.6815 0.0000 0.0000 0.0000
# 4 0.0000 0.0000 0.0000 -19.2521 0.0000 0.0000
# 5 0.0000 0.0000 0.0000 0.0000 -5.3010 0.0000
# 6 0.0000 0.0000 0.0000 0.0000 0.0000 32.3901
#
#
#
# Elastic Compliance Matrix: (Units=1/GPa)
#
#
# Indices 1 2 3 4 5 6 
#
# 1 0.066380 -0.016629 0.025965 0.000000 0.000000 0.000000
# 2 -0.016629 0.008101 -0.007378 0.000000 0.000000 0.000000
# 3 0.025965 -0.007378 0.037612 0.000000 0.000000 0.000000
# 4 0.000000 0.000000 0.000000 -0.051942 0.000000 0.000000
# 5 0.000000 0.000000 0.000000 0.000000 -0.188642 0.000000
# 6 0.000000 0.000000 0.000000 0.000000 0.000000 0.030874
#
#
# Mechanical properties :
#
#
# Convention : Reuss Voigt Hill
#
# Bulk Modulus (GPa) = 8.62023 49.03888 28.82955
# Shear Modulus (GPa) = -79.53630 19.63552 -29.95039
#
# Velocity S-wave (km/s) = -6.13707 3.04929 -3.76599
# Velocity P-wave (km/s) = 6.79235 5.96820 2.29310
#
# Compressibility (1/GPa) = 0.11600623
#
# Stress axis : x y z
#
# Youngs Moduli (GPa) = 15.06481 123.44896 26.58741
#
# Poissons Ratio (x) = 2.05289 -0.69033
# Poissons Ratio (y) = 0.25052 0.19617
# Poissons Ratio (z) = -0.39115 0.91083
#
# Static dielectric constant tensor:
#      x y z
#    x 1.724170 0.000000 0.000000 
#    y 0.000000 1.830740 0.000000 
#    z 0.000000 0.000000 1.787210 
# 
# From -- ./inp_files/6904.got.cif
#   From: 2010.05.17/outbox.cif.g08.bks.cpg/sg63_4_cif.got.tgz:6904.got - 2010.06.03 15:47:04.
