data_PCOD9475521
_publ_section_title
;
Structure prediction by ZEFSAII (Michael W. Deem and Ramdas Pophale) SiO2 
 PCOD9475521
Probable space group: C M C M
;
_chemical_formula_sum "Si O2"
_cell_formula_units_Z 80
_cell_length_a 15.048538
_cell_length_b 30.574761
_cell_length_c 8.339460
_cell_angle_alpha 90.000000
_cell_angle_beta 90.000000
_cell_angle_gamma 90.000000
_cell_volume 3837.031019
_symmetry_space_group_name_H-M "C M C M"
_symmetry_group_IT_number 63
_symmetry_cell_setting 'orthorhombic'
loop_
_space_group_symop_operation_xyz
x,y,z
-x,-y,1/2+z
x,-y,-z
-x,y,1/2-z
-x,-y,-z
x,y,1/2-z
-x,y,z
x,-y,1/2+z
1/2+x,1/2+y,z
1/2-x,1/2-y,1/2+z
1/2+x,1/2-y,-z
1/2-x,1/2+y,1/2-z
1/2-x,1/2-y,-z
1/2+x,1/2+y,1/2-z
1/2-x,1/2+y,z
1/2+x,1/2-y,1/2+z
loop_
_atom_site_type_symbol
_atom_site_label
_atom_site_fract_x
_atom_site_fract_y
_atom_site_fract_z
Si Si1 0.280740 0.639882 0.059083
Si Si2 0.102480 0.779455 0.945222
Si Si3 0.209535 0.049258 0.564154
Si Si4 0.904941 0.450230 0.943223
Si Si5 0.102614 0.680233 0.556197
O O1 0.281710 0.640194 0.250000
O O2 0.334974 0.681824 0.995206
O O3 0.327660 0.594268 0.008780
O O4 0.178220 0.648449 0.009305
O O5 0.105925 0.779617 0.750000
O O6 0.126336 0.730053 0.994843
O O7 0.000000 0.787117 0.990527
O O8 0.189999 0.048009 0.750000
O O9 0.313669 0.059422 0.531717
O O10 0.190921 0.000000 0.500000
O O11 0.892236 0.447740 0.750000
O O12 0.000000 0.428237 0.982983
O O13 0.915595 0.500000 0.000000
O O14 0.104056 0.678143 0.750000
O O15 0.000000 0.672521 0.505897
#
# Coordination Sequence:
#
# PCOD9475521 Si02
#       5
#    16  16  16  16  16
#     4  11  21  33  54  82 110 141 179 223 269 318
#     4   8  16  33  57  83 110 141 177 218 267 322
#     4  11  22  36  52  70  98 135 177 223 269 318
#     4   9  16  27  44  65  89 119 159 206 253 302
#     4   9  18  34  55  80 113 150 183 215 256 311
#
# _framework density 20.849453
#
# number of rings (size 3 to 8) (size 9 to 14) (size 15 to 20)
#    0.000    2.400    0.000    6.000    0.000    2.400 
#    0.000    1.000    0.000    5.400    0.000    0.000 
#    0.000    0.000    0.000    0.000    0.000    0.000 
#
# Total GULP energy -222768.855163 kJ/mol
# GULP energy per Si atom -5569.221379 kJ/mol
# Density = 2.080200 g / cm^3
# Si number density = 20.849453 Si / 1000 Ang^3
#
#
#
# Elastic Constant Matrix: (Units=GPa)
#
#
# Indices 1 2 3 4 5 6 
#
# 1 20.2337 33.7227 3.6450 0.0000 0.0000 0.0000
# 2 33.7227 187.0957 27.4333 0.0000 0.0000 0.0000
# 3 3.6450 27.4333 41.8382 0.0000 0.0000 0.0000
# 4 0.0000 0.0000 0.0000 22.1366 0.0000 0.0000
# 5 0.0000 0.0000 0.0000 0.0000 11.9673 0.0000
# 6 0.0000 0.0000 0.0000 0.0000 0.0000 5.6995
#
#
#
# Elastic Compliance Matrix: (Units=1/GPa)
#
#
# Indices 1 2 3 4 5 6 
#
# 1 0.070868 -0.013131 0.002436 0.000000 0.000000 0.000000
# 2 -0.013131 0.008346 -0.004329 0.000000 0.000000 0.000000
# 3 0.002436 -0.004329 0.026528 0.000000 0.000000 0.000000
# 4 0.000000 0.000000 0.000000 0.045174 0.000000 0.000000
# 5 0.000000 0.000000 0.000000 0.000000 0.083561 0.000000
# 6 0.000000 0.000000 0.000000 0.000000 0.000000 0.175455
#
#
# Mechanical properties :
#
#
# Convention : Reuss Voigt Hill
#
# Bulk Modulus (GPa) = 13.21096 42.08552 27.64824
# Shear Modulus (GPa) = 10.74780 20.25177 15.49978
#
# Velocity S-wave (km/s) = 2.27292 3.12000 2.72952
# Velocity P-wave (km/s) = 3.63845 5.76268 4.81907
#
# Compressibility (1/GPa) = 0.07569475
#
# Stress axis : x y z
#
# Youngs Moduli (GPa) = 14.11072 119.81397 37.69645
#
# Poissons Ratio (x) = 1.57323 -0.09182
# Poissons Ratio (y) = 0.18528 0.16318
# Poissons Ratio (z) = -0.03437 0.51864
#
# Static dielectric constant tensor:
#      x y z
#    x 1.822780 0.000000 0.000000 
#    y 0.000000 1.726820 0.000000 
#    z 0.000000 0.000000 1.731330 
# 
# From -- ./inp_files/6679.got.cif
#   From: 2010.05.17/outbox.cif.g08.bks.cpg/sg63_4_cif.got.tgz:6679.got - 2010.06.03 15:47:04.
