data_PCOD9475977
_publ_section_title
;
Structure prediction by ZEFSAII (Michael W. Deem and Ramdas Pophale) SiO2 
 PCOD9475977
Probable space group: C M C M
;
_chemical_formula_sum "Si O2"
_cell_formula_units_Z 96
_cell_length_a 18.886072
_cell_length_b 33.911579
_cell_length_c 7.417846
_cell_angle_alpha 90.000000
_cell_angle_beta 90.000000
_cell_angle_gamma 90.000000
_cell_volume 4750.807855
_symmetry_space_group_name_H-M "C M C M"
_symmetry_group_IT_number 63
_symmetry_cell_setting 'orthorhombic'
loop_
_space_group_symop_operation_xyz
x,y,z
-x,-y,1/2+z
x,-y,-z
-x,y,1/2-z
-x,-y,-z
x,y,1/2-z
-x,y,z
x,-y,1/2+z
1/2+x,1/2+y,z
1/2-x,1/2-y,1/2+z
1/2+x,1/2-y,-z
1/2-x,1/2+y,1/2-z
1/2-x,1/2-y,-z
1/2+x,1/2+y,1/2-z
1/2-x,1/2+y,z
1/2+x,1/2-y,1/2+z
loop_
_atom_site_type_symbol
_atom_site_label
_atom_site_fract_x
_atom_site_fract_y
_atom_site_fract_z
Si Si1 0.500000 0.229197 0.029959
Si Si2 0.423029 0.547148 0.465598
Si Si3 0.353006 0.737183 0.967182
Si Si4 0.000000 0.363101 0.530089
Si Si5 0.654125 0.108553 0.470610
Si Si6 0.232450 0.953460 0.534308
Si Si7 0.731596 0.186887 0.038639
O O1 0.500000 0.227741 0.250000
O O2 0.431439 0.253237 0.972115
O O3 0.500000 0.183151 0.974002
O O4 0.422971 0.500000 0.500000
O O5 0.423316 0.553265 0.250000
O O6 0.500000 0.561956 0.534141
O O7 0.345489 0.560548 0.533768
O O8 0.352229 0.737761 0.750000
O O9 0.307968 0.774695 0.037352
O O10 0.314066 0.697005 0.020283
O O11 0.927177 0.384398 0.472807
O O12 0.000000 0.362665 0.750000
O O13 0.652228 0.107560 0.250000
O O14 0.699903 0.146481 0.531070
O O15 0.699476 0.070828 0.531194
O O16 0.230207 0.948110 0.750000
O O17 0.239330 0.000000 0.500000
O O18 0.714673 0.186226 0.250000
#
# Coordination Sequence:
#
# PCOD9475977 Si02
#       7
#     8  16  16   8  16  16  16
#     4   9  14  24  43  66  88 114 151 191 218 246
#     4   8  13  22  38  59  80 101 128 164 205 250
#     4   9  16  26  43  66  88 112 144 182 220 258
#     4   9  14  24  43  68  88 110 154 197 223 248
#     4   9  16  27  45  66  89 116 150 192 225 260
#     4   9  17  29  45  66  89 114 146 184 226 268
#     4   9  16  27  43  64  89 114 142 179 222 264
#
# _framework density 20.207089
#
# number of rings (size 3 to 8) (size 9 to 14) (size 15 to 20)
#    0.000    3.167    1.667    0.000    0.000    0.000 
#    0.000    1.667    1.833    0.000    0.000    1.750 
#    0.000    0.000    0.000    0.000    0.000    0.000 
#
# Total GULP energy -267241.141422 kJ/mol
# GULP energy per Si atom -5567.523780 kJ/mol
# Density = 2.016110 g / cm^3
# Si number density = 20.207089 Si / 1000 Ang^3
#
#
#
# Elastic Constant Matrix: (Units=GPa)
#
#
# Indices 1 2 3 4 5 6 
#
# 1 215.0242 85.3145 -2.2321 0.0000 0.0000 0.0000
# 2 85.3145 74.5464 -1.1107 0.0000 0.0000 0.0000
# 3 -2.2321 -1.1107 63.3973 0.0000 0.0000 0.0000
# 4 0.0000 0.0000 0.0000 7.5648 0.0000 0.0000
# 5 0.0000 0.0000 0.0000 0.0000 8.3970 0.0000
# 6 0.0000 0.0000 0.0000 0.0000 0.0000 23.1896
#
#
#
# Elastic Compliance Matrix: (Units=1/GPa)
#
#
# Indices 1 2 3 4 5 6 
#
# 1 0.008520 -0.009749 0.000129 0.000000 0.000000 0.000000
# 2 -0.009749 0.024573 0.000087 0.000000 0.000000 0.000000
# 3 0.000129 0.000087 0.015780 0.000000 0.000000 0.000000
# 4 0.000000 0.000000 0.000000 0.132191 0.000000 0.000000
# 5 0.000000 0.000000 0.000000 0.000000 0.119090 0.000000
# 6 0.000000 0.000000 0.000000 0.000000 0.000000 0.043123
#
#
# Mechanical properties :
#
#
# Convention : Reuss Voigt Hill
#
# Bulk Modulus (GPa) = 33.54837 57.43460 45.49149
# Shear Modulus (GPa) = 13.43087 25.89669 19.66378
#
# Velocity S-wave (km/s) = 2.58090 3.58378 3.12286
# Velocity P-wave (km/s) = 5.05170 6.75347 5.96360
#
# Compressibility (1/GPa) = 0.02980770
#
# Stress axis : x y z
#
# Youngs Moduli (GPa) = 117.37149 40.69559 63.37289
#
# Poissons Ratio (x) = 0.39673 -0.00819
# Poissons Ratio (y) = 1.14422 -0.00553
# Poissons Ratio (z) = -0.01516 -0.00355
#
# Static dielectric constant tensor:
#      x y z
#    x 1.783790 0.000000 0.000000 
#    y 0.000000 1.784230 0.000000 
#    z 0.000000 0.000000 1.783390 
# 
# From -- ./inp_files/21585.got.cif
#   From: 2010.05.17/outbox.cif.g08.bks.cpg/sg63_11_cif.got.tgz:21585.got - 2010.06.03 15:47:04.
