data_PCOD9475404
_publ_section_title
;
Structure prediction by ZEFSAII (Michael W. Deem and Ramdas Pophale) SiO2 
 PCOD9475404
Probable space group: C M C M
;
_chemical_formula_sum "Si O2"
_cell_formula_units_Z 84
_cell_length_a 15.088018
_cell_length_b 21.111551
_cell_length_c 15.236727
_cell_angle_alpha 90.000000
_cell_angle_beta 90.000000
_cell_angle_gamma 90.000000
_cell_volume 4853.376920
_symmetry_space_group_name_H-M "C M C M"
_symmetry_group_IT_number 63
_symmetry_cell_setting 'orthorhombic'
loop_
_space_group_symop_operation_xyz
x,y,z
-x,-y,1/2+z
x,-y,-z
-x,y,1/2-z
-x,-y,-z
x,y,1/2-z
-x,y,z
x,-y,1/2+z
1/2+x,1/2+y,z
1/2-x,1/2-y,1/2+z
1/2+x,1/2-y,-z
1/2-x,1/2+y,1/2-z
1/2-x,1/2-y,-z
1/2+x,1/2+y,1/2-z
1/2-x,1/2+y,z
1/2+x,1/2-y,1/2+z
loop_
_atom_site_type_symbol
_atom_site_label
_atom_site_fract_x
_atom_site_fract_y
_atom_site_fract_z
Si Si1 0.152101 0.839389 0.648580
Si Si2 0.500000 0.817581 0.750000
Si Si3 0.100430 0.925160 0.487433
Si Si4 0.153381 0.708336 0.109349
Si Si5 0.399536 0.198935 0.905391
Si Si6 0.216730 0.851410 0.350284
O O1 0.140652 0.857543 0.750000
O O2 0.113086 0.888686 0.579359
O O3 0.256042 0.829812 0.626312
O O4 0.110161 0.769888 0.633046
O O5 0.422733 0.814322 0.673721
O O6 0.171090 0.898154 0.418702
O O7 0.000000 0.912168 0.455600
O O8 0.110640 0.000000 0.500000
O O9 0.176630 0.781600 0.130300
O O10 0.123518 0.703595 0.008628
O O11 0.500000 0.176670 0.892301
O O12 0.322163 0.156394 0.863700
O O13 0.197220 0.868522 0.250000
#
# Coordination Sequence:
#
# PCOD9475404 Si02
#       6
#    16   4  16  16  16  16
#     4  11  21  37  57  81 119 150 182 231 286 345
#     4  12  20  28  56 100 116 144 200 224 272 358
#     4  11  25  41  58  81 110 151 200 238 279 334
#     4  11  19  32  54  89 120 148 180 227 285 343
#     4  11  20  33  58  88 118 151 180 223 291 349
#     4  11  22  37  57  83 117 151 189 234 283 342
#
# _framework density 17.307537
#
# number of rings (size 3 to 8) (size 9 to 14) (size 15 to 20)
#    0.000    0.952    6.667    3.429    1.333    3.810 
#    0.000    1.905    0.000    0.571    0.000    0.000 
#    0.000    0.000    0.000    0.000    0.000    0.000 
#
# Total GULP energy -234121.708744 kJ/mol
# GULP energy per Si atom -5574.326399 kJ/mol
# Density = 1.726814 g / cm^3
# Si number density = 17.307537 Si / 1000 Ang^3
#
#
#
# Elastic Constant Matrix: (Units=GPa)
#
#
# Indices 1 2 3 4 5 6 
#
# 1 117.1124 35.2319 24.4791 0.0000 0.0000 0.0000
# 2 35.2319 50.8177 30.7746 0.0000 0.0000 0.0000
# 3 24.4791 30.7746 102.9655 0.0000 0.0000 0.0000
# 4 0.0000 0.0000 0.0000 -2.3688 0.0000 0.0000
# 5 0.0000 0.0000 0.0000 0.0000 31.5646 0.0000
# 6 0.0000 0.0000 0.0000 0.0000 0.0000 14.1935
#
#
#
# Elastic Compliance Matrix: (Units=1/GPa)
#
#
# Indices 1 2 3 4 5 6 
#
# 1 0.010803 -0.007246 -0.000403 0.000000 0.000000 0.000000
# 2 -0.007246 0.028887 -0.006911 0.000000 0.000000 0.000000
# 3 -0.000403 -0.006911 0.011873 0.000000 0.000000 0.000000
# 4 0.000000 0.000000 0.000000 -0.422150 0.000000 0.000000
# 5 0.000000 0.000000 0.000000 0.000000 0.031681 0.000000
# 6 0.000000 0.000000 0.000000 0.000000 0.000000 0.070455
#
#
# Mechanical properties :
#
#
# Convention : Reuss Voigt Hill
#
# Bulk Modulus (GPa) = 44.55544 50.20744 47.38144
# Shear Modulus (GPa) = -21.56564 20.70519 -0.43022
#
# Velocity S-wave (km/s) = -3.53374 3.46252 -0.49912
# Velocity P-wave (km/s) = 3.02482 6.71248 5.20610
#
# Compressibility (1/GPa) = 0.02244395
#
# Stress axis : x y z
#
# Youngs Moduli (GPa) = 92.56900 34.61768 84.22215
#
# Poissons Ratio (x) = 0.25083 0.03391
# Poissons Ratio (y) = 0.67073 0.58208
# Poissons Ratio (z) = 0.03727 0.23925
#
# Static dielectric constant tensor:
#      x y z
#    x 1.604320 0.000000 0.000000 
#    y 0.000000 1.548350 0.000000 
#    z 0.000000 0.000000 1.587790 
# 
# From -- ./inp_files/31744.got.cif
#   From: 2010.05.17/outbox.cif.g08.bks.cpg/sg63_16_cif.got.tgz:31744.got - 2010.06.03 15:47:04.
