data_PCOD9475753
_publ_section_title
;
Structure prediction by ZEFSAII (Michael W. Deem and Ramdas Pophale) SiO2 
 PCOD9475753
Probable space group: C M C M
;
_chemical_formula_sum "Si O2"
_cell_formula_units_Z 96
_cell_length_a 13.801478
_cell_length_b 22.704903
_cell_length_c 14.980423
_cell_angle_alpha 90.000000
_cell_angle_beta 90.000000
_cell_angle_gamma 90.000000
_cell_volume 4694.283616
_symmetry_space_group_name_H-M "C M C M"
_symmetry_group_IT_number 63
_symmetry_cell_setting 'orthorhombic'
loop_
_space_group_symop_operation_xyz
x,y,z
-x,-y,1/2+z
x,-y,-z
-x,y,1/2-z
-x,-y,-z
x,y,1/2-z
-x,y,z
x,-y,1/2+z
1/2+x,1/2+y,z
1/2-x,1/2-y,1/2+z
1/2+x,1/2-y,-z
1/2-x,1/2+y,1/2-z
1/2-x,1/2-y,-z
1/2+x,1/2+y,1/2-z
1/2-x,1/2+y,z
1/2+x,1/2-y,1/2+z
loop_
_atom_site_type_symbol
_atom_site_label
_atom_site_fract_x
_atom_site_fract_y
_atom_site_fract_z
Si Si1 0.611258 0.132174 0.851660
Si Si2 0.316994 0.009638 0.600329
Si Si3 0.110043 0.614088 0.150044
Si Si4 0.105211 0.990328 0.145281
Si Si5 0.889615 0.867765 0.852526
Si Si6 0.269273 0.181662 0.486264
O O1 0.627212 0.152366 0.750000
O O2 0.500000 0.147259 0.877191
O O3 0.623028 0.061350 0.854711
O O4 0.691949 0.155903 0.919969
O O5 0.351533 0.000000 0.500000
O O6 0.327582 0.945814 0.644728
O O7 0.204121 0.028943 0.599066
O O8 0.115504 0.637417 0.250000
O O9 0.145563 0.662447 0.081155
O O10 0.000000 0.596295 0.130589
O O11 0.111629 0.973695 0.250000
O O12 0.105486 0.061314 0.142183
O O13 0.000000 0.969783 0.110151
O O14 0.856264 0.853354 0.750000
O O15 0.822970 0.845061 0.932943
O O16 0.000000 0.845509 0.860987
O O17 0.250000 0.250000 0.500000
#
# Coordination Sequence:
#
# PCOD9475753 Si02
#       6
#    16  16  16  16  16  16
#     4  11  25  44  65  94 134 177 218 264 324 393
#     4  12  21  35  64  97 133 171 207 260 326 396
#     4  11  23  40  65  96 129 165 209 265 326 391
#     4   9  17  31  54  85 121 158 200 250 301 362
#     4   9  18  36  63  92 120 155 206 264 317 376
#     4  12  25  41  63  89 124 167 216 276 324 372
#
# _framework density 20.450406000000001
#
# number of rings (size 3 to 8) (size 9 to 14) (size 15 to 20)
#    0.000    1.333    3.333    4.000    0.000    5.000 
#    0.000    2.500    0.000    1.500    0.000    0.000 
#    0.000    0.000    0.000    0.000    0.000    0.000 
#
# Total GULP energy -267906.896038 kJ/mol
# GULP energy per Si atom -5581.393667 kJ/mol
# Density = 2.040386 g / cm^3
# Si number density = 20.450406 Si / 1000 Ang^3
#
#
#
# Elastic Constant Matrix: (Units=GPa)
#
#
# Indices 1 2 3 4 5 6 
#
# 1 126.5608 14.5779 39.7028 0.0000 0.0000 0.0000
# 2 14.5779 67.7717 28.9240 0.0000 0.0000 0.0000
# 3 39.7028 28.9240 121.9083 0.0000 0.0000 0.0000
# 4 0.0000 0.0000 0.0000 -62.9275 0.0000 0.0000
# 5 0.0000 0.0000 0.0000 0.0000 37.7600 0.0000
# 6 0.0000 0.0000 0.0000 0.0000 0.0000 8.7957
#
#
#
# Elastic Compliance Matrix: (Units=1/GPa)
#
#
# Indices 1 2 3 4 5 6 
#
# 1 0.008834 -0.000748 -0.002700 0.000000 0.000000 0.000000
# 2 -0.000748 0.016481 -0.003667 0.000000 0.000000 0.000000
# 3 -0.002700 -0.003667 0.009952 0.000000 0.000000 0.000000
# 4 0.000000 0.000000 0.000000 -0.015891 0.000000 0.000000
# 5 0.000000 0.000000 0.000000 0.000000 0.026483 0.000000
# 6 0.000000 0.000000 0.000000 0.000000 0.000000 0.113692
#
#
# Mechanical properties :
#
#
# Convention : Reuss Voigt Hill
#
# Bulk Modulus (GPa) = 47.53134 53.62779 50.57957
# Shear Modulus (GPa) = 27.65584 12.26137 19.95861
#
# Velocity S-wave (km/s) = 3.68140 2.45126 3.12741
# Velocity P-wave (km/s) = 6.43141 5.85592 6.15040
#
# Compressibility (1/GPa) = 0.02103875
#
# Stress axis : x y z
#
# Youngs Moduli (GPa) = 113.19367 60.67503 100.48157
#
# Poissons Ratio (x) = 0.04539 0.27127
# Poissons Ratio (y) = 0.08468 0.36844
# Poissons Ratio (z) = 0.30559 0.22248
#
# Static dielectric constant tensor:
#      x y z
#    x 1.786530 0.000000 0.000000 
#    y 0.000000 1.692280 0.000000 
#    z 0.000000 0.000000 1.750130 
# 
# From -- ./inp_files/31937.got.cif
#   From: 2010.05.17/outbox.cif.g08.bks.cpg/sg63_16_cif.got.tgz:31937.got - 2010.06.03 15:47:04.
