data_PCOD9475584
_publ_section_title
;
Structure prediction by ZEFSAII (Michael W. Deem and Ramdas Pophale) SiO2 
 PCOD9475584
Probable space group: C M C M
;
_chemical_formula_sum "Si O2"
_cell_formula_units_Z 112
_cell_length_a 29.383982
_cell_length_b 11.544839
_cell_length_c 17.919177
_cell_angle_alpha 90.000000
_cell_angle_beta 90.000000
_cell_angle_gamma 90.000000
_cell_volume 6078.782288
_symmetry_space_group_name_H-M "C M C M"
_symmetry_group_IT_number 63
_symmetry_cell_setting 'orthorhombic'
loop_
_space_group_symop_operation_xyz
x,y,z
-x,-y,1/2+z
x,-y,-z
-x,y,1/2-z
-x,-y,-z
x,y,1/2-z
-x,y,z
x,-y,1/2+z
1/2+x,1/2+y,z
1/2-x,1/2-y,1/2+z
1/2+x,1/2-y,-z
1/2-x,1/2+y,1/2-z
1/2-x,1/2-y,-z
1/2+x,1/2+y,1/2-z
1/2-x,1/2+y,z
1/2+x,1/2-y,1/2+z
loop_
_atom_site_type_symbol
_atom_site_label
_atom_site_fract_x
_atom_site_fract_y
_atom_site_fract_z
Si Si1 0.373060 0.615132 0.337684
Si Si2 0.703385 0.800847 0.965118
Si Si3 0.947693 0.380502 0.047299
Si Si4 0.191474 0.060013 0.580044
Si Si5 0.149083 0.362815 0.109778
Si Si6 0.446332 0.618488 0.041233
Si Si7 0.723105 0.978958 0.665230
O O1 0.377159 0.602934 0.250000
O O2 0.345177 0.512078 0.374883
O O3 0.346880 0.733215 0.358863
O O4 0.420938 0.621778 0.379940
O O5 0.675850 0.688996 0.937860
O O6 0.716842 0.876440 0.894108
O O7 0.750000 0.750000 0.000000
O O8 0.674002 0.864443 0.028666
O O9 0.904321 0.390017 0.101740
O O10 0.939853 0.251301 0.009668
O O11 0.000000 0.374493 0.076976
O O12 0.945946 0.500000 0.000000
O O13 0.200824 0.000000 0.500000
O O14 0.236828 0.057498 0.630247
O O15 0.176494 0.449778 0.161315
O O16 0.500000 0.603969 0.049490
O O17 0.429610 0.500000 0.000000
O O18 0.733860 0.944063 0.750000
#
# Coordination Sequence:
#
# PCOD9475584 Si02
#       7
#    16  16  16  16  16  16  16
#     4  11  23  37  58  87 118 151 190 242 304 351
#     4  12  22  39  61  80 110 154 203 238 286 348
#     4   9  18  33  58  91 117 144 192 248 294 342
#     4  12  22  39  58  81 110 151 196 239 283 345
#     4  11  21  39  62  84 116 156 194 241 292 355
#     4   9  19  36  59  87 118 154 198 244 294 358
#     4  12  25  38  56  84 117 149 191 245 298 349
#
# _framework density 18.424742999999999
#
# number of rings (size 3 to 8) (size 9 to 14) (size 15 to 20)
#    0.000    1.143    4.286    2.571    2.000    1.429 
#    0.000    0.000    0.000    1.286    0.000    0.000 
#    0.000    6.857    0.000    0.000    0.000    0.000 
#
# Total GULP energy -312239.101622 kJ/mol
# GULP energy per Si atom -5575.698243 kJ/mol
# Density = 1.838281 g / cm^3
# Si number density = 18.424743 Si / 1000 Ang^3
#
#
#
# Elastic Constant Matrix: (Units=GPa)
#
#
# Indices 1 2 3 4 5 6 
#
# 1 61.8566 14.3024 22.0025 0.0000 0.0000 0.0000
# 2 14.3024 97.6618 37.2321 0.0000 0.0000 0.0000
# 3 22.0025 37.2321 126.1643 0.0000 0.0000 0.0000
# 4 0.0000 0.0000 0.0000 19.8545 0.0000 0.0000
# 5 0.0000 0.0000 0.0000 0.0000 11.6368 0.0000
# 6 0.0000 0.0000 0.0000 0.0000 0.0000 27.6199
#
#
#
# Elastic Compliance Matrix: (Units=1/GPa)
#
#
# Indices 1 2 3 4 5 6 
#
# 1 0.017447 -0.001572 -0.002579 0.000000 0.000000 0.000000
# 2 -0.001572 0.011679 -0.003172 0.000000 0.000000 0.000000
# 3 -0.002579 -0.003172 0.009312 0.000000 0.000000 0.000000
# 4 0.000000 0.000000 0.000000 0.050366 0.000000 0.000000
# 5 0.000000 0.000000 0.000000 0.000000 0.085934 0.000000
# 6 0.000000 0.000000 0.000000 0.000000 0.000000 0.036206
#
#
# Mechanical properties :
#
#
# Convention : Reuss Voigt Hill
#
# Bulk Modulus (GPa) = 42.03107 48.08407 45.05757
# Shear Modulus (GPa) = 21.41124 25.96526 23.68825
#
# Velocity S-wave (km/s) = 3.41265 3.75808 3.58952
# Velocity P-wave (km/s) = 6.19597 6.70710 6.45659
#
# Compressibility (1/GPa) = 0.02379192
#
# Stress axis : x y z
#
# Youngs Moduli (GPa) = 57.31580 85.62316 107.38689
#
# Poissons Ratio (x) = 0.13460 0.27693
# Poissons Ratio (y) = 0.09010 0.34068
# Poissons Ratio (z) = 0.14781 0.27163
#
# Static dielectric constant tensor:
#      x y z
#    x 1.656480 0.000000 0.000000 
#    y 0.000000 1.697220 0.000000 
#    z 0.000000 0.000000 1.601400 
# 
# From -- ./inp_files/38526.got.cif
#   From: 2010.05.17/outbox.cif.g08.bks.cpg/sg63_20_cif.got.tgz:38526.got - 2010.06.03 15:47:04.
