data_PCOD9475082
_publ_section_title
;
Structure prediction by ZEFSAII (Michael W. Deem and Ramdas Pophale) SiO2 
 PCOD9475082
Probable space group: C M C M
;
_chemical_formula_sum "Si O2"
_cell_formula_units_Z 80
_cell_length_a 21.665840
_cell_length_b 10.074318
_cell_length_c 17.773561
_cell_angle_alpha 90.000000
_cell_angle_beta 90.000000
_cell_angle_gamma 90.000000
_cell_volume 3879.409599
_symmetry_space_group_name_H-M "C M C M"
_symmetry_group_IT_number 63
_symmetry_cell_setting 'orthorhombic'
loop_
_space_group_symop_operation_xyz
x,y,z
-x,-y,1/2+z
x,-y,-z
-x,y,1/2-z
-x,-y,-z
x,y,1/2-z
-x,y,z
x,-y,1/2+z
1/2+x,1/2+y,z
1/2-x,1/2-y,1/2+z
1/2+x,1/2-y,-z
1/2-x,1/2+y,1/2-z
1/2-x,1/2-y,-z
1/2+x,1/2+y,1/2-z
1/2-x,1/2+y,z
1/2+x,1/2-y,1/2+z
loop_
_atom_site_type_symbol
_atom_site_label
_atom_site_fract_x
_atom_site_fract_y
_atom_site_fract_z
Si Si1 0.755274 0.638633 0.337304
Si Si2 0.867665 0.764811 0.395150
Si Si3 0.570258 0.228414 0.945279
Si Si4 0.371565 0.985076 0.335034
Si Si5 0.615045 0.557379 0.161845
O O1 0.760278 0.682878 0.250000
O O2 0.793728 0.740841 0.388082
O O3 0.797386 0.504985 0.342278
O O4 0.684659 0.610978 0.353750
O O5 0.891202 0.755493 0.479730
O O6 0.893397 0.636329 0.350146
O O7 0.885961 0.902776 0.358248
O O8 0.500000 0.194599 0.964942
O O9 0.572242 0.357576 0.892319
O O10 0.600707 0.111506 0.896382
O O11 0.385849 0.942040 0.250000
O O12 0.602043 0.577213 0.250000
#
# Coordination Sequence:
#
# PCOD9475082 Si02
#       5
#    16  16  16  16  16
#     4   8  19  38  65  97 127 156 208 267 324 384
#     4  10  22  42  65  94 128 172 213 265 319 387
#     4  12  27  44  61  93 137 178 218 267 320 373
#     4   9  20  41  67  93 124 166 215 266 317 383
#     4  11  23  41  68  96 130 173 212 267 327 388
#
# _framework density 20.621693
#
# number of rings (size 3 to 8) (size 9 to 14) (size 15 to 20)
#    1.200    0.800    0.000    3.000    2.800    5.600 
#    3.600    0.000    0.000    5.400    0.000    0.000 
#    0.000    0.000    0.000    0.000    0.000    0.000 
#
# Total GULP energy -223190.340567 kJ/mol
# GULP energy per Si atom -5579.758514 kJ/mol
# Density = 2.057476 g / cm^3
# Si number density = 20.621693 Si / 1000 Ang^3
#
#
#
# Elastic Constant Matrix: (Units=GPa)
#
#
# Indices 1 2 3 4 5 6 
#
# 1 67.4694 9.8650 42.1221 0.0000 0.0000 0.0000
# 2 9.8650 55.1084 3.7230 0.0000 0.0000 0.0000
# 3 42.1221 3.7230 88.9802 0.0000 0.0000 0.0000
# 4 0.0000 0.0000 0.0000 43.4910 0.0000 0.0000
# 5 0.0000 0.0000 0.0000 0.0000 783.5326 0.0000
# 6 0.0000 0.0000 0.0000 0.0000 0.0000 44.6401
#
#
#
# Elastic Compliance Matrix: (Units=1/GPa)
#
#
# Indices 1 2 3 4 5 6 
#
# 1 0.021582 -0.003182 -0.010084 0.000000 0.000000 0.000000
# 2 -0.003182 0.018667 0.000725 0.000000 0.000000 0.000000
# 3 -0.010084 0.000725 0.015982 0.000000 0.000000 0.000000
# 4 0.000000 0.000000 0.000000 0.022993 0.000000 0.000000
# 5 0.000000 0.000000 0.000000 0.000000 0.001276 0.000000
# 6 0.000000 0.000000 0.000000 0.000000 0.000000 0.022401
#
#
# Mechanical properties :
#
#
# Convention : Reuss Voigt Hill
#
# Bulk Modulus (GPa) = 32.10315 35.88647 33.99481
# Shear Modulus (GPa) = 36.13626 184.72260 110.42943
#
# Velocity S-wave (km/s) = 4.19064 9.47477 7.32573
# Velocity P-wave (km/s) = 6.24634 11.71047 9.38488
#
# Compressibility (1/GPa) = 0.03114959
#
# Stress axis : x y z
#
# Youngs Moduli (GPa) = 46.33465 53.57138 62.57224
#
# Poissons Ratio (x) = 0.17047 0.63095
# Poissons Ratio (y) = 0.14745 -0.04539
# Poissons Ratio (z) = 0.46722 -0.03886
#
# Static dielectric constant tensor:
#      x y z
#    x 1.759500 0.000000 0.000000 
#    y 0.000000 1.756220 0.000000 
#    z 0.000000 0.000000 1.692240 
# 
# From -- ./inp_files/48781.got.cif
#   From: 2010.05.17/outbox.cif.g08.bks.cpg/sg63_25_cif.got.tgz:48781.got - 2010.06.03 15:47:04.
