data_PCOD9475186
_publ_section_title
;
Structure prediction by ZEFSAII (Michael W. Deem and Ramdas Pophale) SiO2 
 PCOD9475186
Probable space group: C M C M
;
_chemical_formula_sum "Si O2"
_cell_formula_units_Z 80
_cell_length_a 14.017627
_cell_length_b 12.931934
_cell_length_c 23.751893
_cell_angle_alpha 90.000000
_cell_angle_beta 90.000000
_cell_angle_gamma 90.000000
_cell_volume 4305.625050
_symmetry_space_group_name_H-M "C M C M"
_symmetry_group_IT_number 63
_symmetry_cell_setting 'orthorhombic'
loop_
_space_group_symop_operation_xyz
x,y,z
-x,-y,1/2+z
x,-y,-z
-x,y,1/2-z
-x,-y,-z
x,y,1/2-z
-x,y,z
x,-y,1/2+z
1/2+x,1/2+y,z
1/2-x,1/2-y,1/2+z
1/2+x,1/2-y,-z
1/2-x,1/2+y,1/2-z
1/2-x,1/2-y,-z
1/2+x,1/2+y,1/2-z
1/2-x,1/2+y,z
1/2+x,1/2-y,1/2+z
loop_
_atom_site_type_symbol
_atom_site_label
_atom_site_fract_x
_atom_site_fract_y
_atom_site_fract_z
Si Si1 0.891041 0.930009 0.814073
Si Si2 0.609780 0.083347 0.455279
Si Si3 0.753082 0.684614 0.118933
Si Si4 0.891777 0.808869 0.514770
Si Si5 0.611870 0.375225 0.104561
O O1 0.880458 0.967842 0.750000
O O2 0.812267 0.845335 0.828925
O O3 0.000000 0.891221 0.819876
O O4 0.878484 0.021586 0.859365
O O5 0.500000 0.057596 0.441937
O O6 0.672908 0.095365 0.399881
O O7 0.610920 0.195505 0.485590
O O8 0.645742 0.000000 0.500000
O O9 0.681890 0.691471 0.065378
O O10 0.815408 0.787751 0.125595
O O11 0.870134 0.885270 0.462546
O O12 0.000000 0.829061 0.534508
O O13 0.500000 0.341407 0.109080
#
# Coordination Sequence:
#
# PCOD9475186 Si02
#       5
#    16  16  16  16  16
#     4  10  23  40  55  75 104 141 184 228 272 310
#     4   9  18  30  47  76 115 142 162 199 258 323
#     4  11  20  30  58  80 107 134 183 216 261 315
#     4   9  18  31  48  80 113 137 167 209 265 321
#     4   9  19  36  55  78 110 141 174 217 263 319
#
# _framework density 18.580345999999999
#
# number of rings (size 3 to 8) (size 9 to 14) (size 15 to 20)
#    0.000    2.400    0.000    4.800    5.600    0.800 
#    0.000    3.000    0.000    1.800    0.000    0.000 
#    0.000    0.000    0.000    0.000    0.000    0.000 
#
# Total GULP energy -223174.428943 kJ/mol
# GULP energy per Si atom -5579.360724 kJ/mol
# Density = 1.853806 g / cm^3
# Si number density = 18.580346 Si / 1000 Ang^3
#
#
#
# Elastic Constant Matrix: (Units=GPa)
#
#
# Indices 1 2 3 4 5 6 
#
# 1 97.3816 25.8779 17.4788 0.0000 0.0000 0.0000
# 2 25.8779 28.6336 14.9196 0.0000 0.0000 0.0000
# 3 17.4788 14.9196 46.2783 0.0000 0.0000 0.0000
# 4 0.0000 0.0000 0.0000 15.7549 0.0000 0.0000
# 5 0.0000 0.0000 0.0000 0.0000 26.1227 0.0000
# 6 0.0000 0.0000 0.0000 0.0000 0.0000 22.2318
#
#
#
# Elastic Compliance Matrix: (Units=1/GPa)
#
#
# Indices 1 2 3 4 5 6 
#
# 1 0.013591 -0.011548 -0.001410 0.000000 0.000000 0.000000
# 2 -0.011548 0.051787 -0.012334 0.000000 0.000000 0.000000
# 3 -0.001410 -0.012334 0.026117 0.000000 0.000000 0.000000
# 4 0.000000 0.000000 0.000000 0.063472 0.000000 0.000000
# 5 0.000000 0.000000 0.000000 0.000000 0.038281 0.000000
# 6 0.000000 0.000000 0.000000 0.000000 0.000000 0.044981
#
#
# Mechanical properties :
#
#
# Convention : Reuss Voigt Hill
#
# Bulk Modulus (GPa) = 24.44333 32.09400 28.26867
# Shear Modulus (GPa) = 16.53162 20.42302 18.47732
#
# Velocity S-wave (km/s) = 2.98608 3.31897 3.15692
# Velocity P-wave (km/s) = 5.00729 5.65668 5.34186
#
# Compressibility (1/GPa) = 0.04091096
#
# Stress axis : x y z
#
# Youngs Moduli (GPa) = 73.57970 19.30975 38.28866
#
# Poissons Ratio (x) = 0.22299 0.05399
# Poissons Ratio (y) = 0.84970 0.47226
# Poissons Ratio (z) = 0.10376 0.23817
#
# Static dielectric constant tensor:
#      x y z
#    x 1.696210 0.000000 0.000000 
#    y 0.000000 1.657790 0.000000 
#    z 0.000000 0.000000 1.640440 
# 
# From -- ./inp_files/53996.got.cif
#   From: 2010.05.17/outbox.cif.g08.bks.cpg/sg63_27_cif.got.tgz:53996.got - 2010.06.03 15:47:04.
