data_PCOD9475362
_publ_section_title
;
Structure prediction by ZEFSAII (Michael W. Deem and Ramdas Pophale) SiO2 
 PCOD9475362
Probable space group: C M C M
;
_chemical_formula_sum "Si O2"
_cell_formula_units_Z 52
_cell_length_a 14.294504
_cell_length_b 10.056294
_cell_length_c 14.871451
_cell_angle_alpha 90.000000
_cell_angle_beta 90.000000
_cell_angle_gamma 90.000000
_cell_volume 2137.767137
_symmetry_space_group_name_H-M "C M C M"
_symmetry_group_IT_number 63
_symmetry_cell_setting 'orthorhombic'
loop_
_space_group_symop_operation_xyz
x,y,z
-x,-y,1/2+z
x,-y,-z
-x,y,1/2-z
-x,-y,-z
x,y,1/2-z
-x,y,z
x,-y,1/2+z
1/2+x,1/2+y,z
1/2-x,1/2-y,1/2+z
1/2+x,1/2-y,-z
1/2-x,1/2+y,1/2-z
1/2-x,1/2-y,-z
1/2+x,1/2+y,1/2-z
1/2-x,1/2+y,z
1/2+x,1/2-y,1/2+z
loop_
_atom_site_type_symbol
_atom_site_label
_atom_site_fract_x
_atom_site_fract_y
_atom_site_fract_z
Si Si1 0.686927 0.911727 0.847965
Si Si2 0.500000 0.500000 0.000000
Si Si3 0.702878 0.815136 0.087659
Si Si4 0.000000 0.256199 0.639288
Si Si5 0.000000 0.241217 0.139919
O O1 0.667938 0.970502 0.750000
O O2 0.756712 0.788672 0.841558
O O3 0.590744 0.846436 0.880258
O O4 0.731953 0.032318 0.902553
O O5 0.500000 0.631078 0.928135
O O6 0.500000 0.399372 0.912339
O O7 0.592421 0.814381 0.102921
O O8 0.750000 0.750000 0.000000
O O9 0.000000 0.226947 0.750000
O O10 0.000000 0.233439 0.250000
#
# Coordination Sequence:
#
# PCOD9475362 Si02
#       5
#    16   4  16   8   8
#     4  11  24  46  75 108 150 206 264 327 401 483
#     4  12  26  44  74 114 152 202 266 332 396 472
#     4  12  27  47  75 113 155 205 266 332 407 484
#     4  10  24  47  79 113 157 212 270 334 413 494
#     4  12  28  49  75 111 162 215 264 326 414 496
#
# _framework density 24.324445000000001
#
# number of rings (size 3 to 8) (size 9 to 14) (size 15 to 20)
#    0.000    0.615    0.000    6.923    8.615    1.231 
#    0.000    4.615    0.000    0.000    0.000    0.000 
#    0.000    0.000    0.000    0.000    0.000    0.000 
#
# Total GULP energy -144739.310487 kJ/mol
# GULP energy per Si atom -5566.896557 kJ/mol
# Density = 2.426908 g / cm^3
# Si number density = 24.324445 Si / 1000 Ang^3
#
#
#
# Elastic Constant Matrix: (Units=GPa)
#
#
# Indices 1 2 3 4 5 6 
#
# 1 117.5637 23.4150 13.3450 0.0000 0.0000 0.0000
# 2 23.4150 199.5030 62.7006 0.0000 0.0000 0.0000
# 3 13.3450 62.7006 210.4890 0.0000 0.0000 0.0000
# 4 0.0000 0.0000 0.0000 40.9564 0.0000 0.0000
# 5 0.0000 0.0000 0.0000 0.0000 29.0617 0.0000
# 6 0.0000 0.0000 0.0000 0.0000 0.0000 4.8762
#
#
#
# Elastic Compliance Matrix: (Units=1/GPa)
#
#
# Indices 1 2 3 4 5 6 
#
# 1 0.008724 -0.000938 -0.000274 0.000000 0.000000 0.000000
# 2 -0.000938 0.005631 -0.001618 0.000000 0.000000 0.000000
# 3 -0.000274 -0.001618 0.005250 0.000000 0.000000 0.000000
# 4 0.000000 0.000000 0.000000 0.024416 0.000000 0.000000
# 5 0.000000 0.000000 0.000000 0.000000 0.034410 0.000000
# 6 0.000000 0.000000 0.000000 0.000000 0.000000 0.205077
#
#
# Mechanical properties :
#
#
# Convention : Reuss Voigt Hill
#
# Bulk Modulus (GPa) = 71.70493 80.71967 76.21230
# Shear Modulus (GPa) = 17.01749 43.51854 30.26802
#
# Velocity S-wave (km/s) = 2.64787 4.23435 3.53136
# Velocity P-wave (km/s) = 6.23625 7.56062 6.93014
#
# Compressibility (1/GPa) = 0.01394604
#
# Stress axis : x y z
#
# Youngs Moduli (GPa) = 114.62776 177.58797 190.47115
#
# Poissons Ratio (x) = 0.16655 0.05214
# Poissons Ratio (y) = 0.10751 0.30816
# Poissons Ratio (z) = 0.03138 0.28732
#
# Static dielectric constant tensor:
#      x y z
#    x 1.975020 0.000000 0.000000 
#    y 0.000000 1.901920 0.000000 
#    z 0.000000 0.000000 2.238450 
# 
# From -- ./inp_files/29288.got.cif
#   From: 2010.05.17/outbox.cif.g08.bks.cpg/sg63_15_cif.got.tgz:29288.got - 2010.06.03 15:47:04.
