data_PCOD9475260
_publ_section_title
;
Structure prediction by ZEFSAII (Michael W. Deem and Ramdas Pophale) SiO2 
 PCOD9475260
Probable space group: C M C M
;
_chemical_formula_sum "Si O2"
_cell_formula_units_Z 52
_cell_length_a 7.595041
_cell_length_b 10.029387
_cell_length_c 27.782158
_cell_angle_alpha 90.000000
_cell_angle_beta 90.000000
_cell_angle_gamma 90.000000
_cell_volume 2116.267143
_symmetry_space_group_name_H-M "C M C M"
_symmetry_group_IT_number 63
_symmetry_cell_setting 'orthorhombic'
loop_
_space_group_symop_operation_xyz
x,y,z
-x,-y,1/2+z
x,-y,-z
-x,y,1/2-z
-x,-y,-z
x,y,1/2-z
-x,y,z
x,-y,1/2+z
1/2+x,1/2+y,z
1/2-x,1/2-y,1/2+z
1/2+x,1/2-y,-z
1/2-x,1/2+y,1/2-z
1/2-x,1/2-y,-z
1/2+x,1/2+y,1/2-z
1/2-x,1/2+y,z
1/2+x,1/2-y,1/2+z
loop_
_atom_site_type_symbol
_atom_site_label
_atom_site_fract_x
_atom_site_fract_y
_atom_site_fract_z
Si Si1 0.699098 0.651867 0.456028
Si Si2 0.286027 0.562538 0.195502
Si Si3 0.703121 0.312222 0.363166
Si Si4 0.500000 0.000000 0.000000
O O1 0.500000 0.604011 0.461134
O O2 0.750000 0.750000 0.500000
O O3 0.708107 0.739387 0.407966
O O4 0.844850 0.538627 0.460574
O O5 0.234950 0.528376 0.250000
O O6 0.500000 0.566067 0.193585
O O7 0.226321 0.451142 0.157314
O O8 0.215554 0.705832 0.180029
O O9 0.500000 0.333312 0.377204
#
# Coordination Sequence:
#
# PCOD9475260 Si02
#       4
#    16  16  16   4
#     4  12  26  46  71 104 143 187 236 296 352 423
#     4  10  23  43  67  98 137 180 232 292 354 419
#     4  11  24  43  68 101 137 183 235 288 353 425
#     4  12  26  48  72 100 142 188 238 284 358 414
#
# _framework density 24.571567000000002
#
# number of rings (size 3 to 8) (size 9 to 14) (size 15 to 20)
#    0.000    0.923    3.077    2.308    4.308    4.308 
#    0.000    0.000    0.000    0.000    0.000    0.000 
#    0.000    0.000    0.000    0.000    0.000    0.000 
#
# Total GULP energy -145146.529998 kJ/mol
# GULP energy per Si atom -5582.558846 kJ/mol
# Density = 2.451564 g / cm^3
# Si number density = 24.571567 Si / 1000 Ang^3
#
#
#
# Elastic Constant Matrix: (Units=GPa)
#
#
# Indices 1 2 3 4 5 6 
#
# 1 169.6188 -4.2276 4.5320 0.0000 0.0000 0.0000
# 2 -4.2276 75.1057 -5.3250 0.0000 0.0000 0.0000
# 3 4.5320 -5.3250 100.6890 0.0000 0.0000 0.0000
# 4 0.0000 0.0000 0.0000 51.2346 0.0000 0.0000
# 5 0.0000 0.0000 0.0000 0.0000 31.5369 0.0000
# 6 0.0000 0.0000 0.0000 0.0000 0.0000 11.1258
#
#
#
# Elastic Compliance Matrix: (Units=1/GPa)
#
#
# Indices 1 2 3 4 5 6 
#
# 1 0.005910 0.000315 -0.000249 0.000000 0.000000 0.000000
# 2 0.000315 0.013381 0.000694 0.000000 0.000000 0.000000
# 3 -0.000249 0.000694 0.009979 0.000000 0.000000 0.000000
# 4 0.000000 0.000000 0.000000 0.019518 0.000000 0.000000
# 5 0.000000 0.000000 0.000000 0.000000 0.031709 0.000000
# 6 0.000000 0.000000 0.000000 0.000000 0.000000 0.089881
#
#
# Mechanical properties :
#
#
# Convention : Reuss Voigt Hill
#
# Bulk Modulus (GPa) = 32.47878 37.26358 34.87118
# Shear Modulus (GPa) = 27.91360 42.14173 35.02766
#
# Velocity S-wave (km/s) = 3.37413 4.14582 3.77972
# Velocity P-wave (km/s) = 5.33165 6.17376 5.76809
#
# Compressibility (1/GPa) = 0.03078933
#
# Stress axis : x y z
#
# Youngs Moduli (GPa) = 169.20226 74.73018 100.20574
#
# Poissons Ratio (x) = -0.02354 0.02499
# Poissons Ratio (y) = -0.05330 -0.06949
# Poissons Ratio (z) = 0.04219 -0.05183
#
# Static dielectric constant tensor:
#      x y z
#    x 1.921400 0.000000 0.000000 
#    y 0.000000 2.131370 0.000000 
#    z 0.000000 0.000000 1.972140 
# 
# From -- ./inp_files/66039.got.cif
#   From: 2010.05.17/outbox.cif.g08.bks.cpg/sg63_34_cif.got.tgz:66039.got - 2010.06.03 15:47:04.
