data_PCOD9475612
_publ_section_title
;
Structure prediction by ZEFSAII (Michael W. Deem and Ramdas Pophale) SiO2 
 PCOD9475612
Probable space group: C M C M
;
_chemical_formula_sum "Si O2"
_cell_formula_units_Z 80
_cell_length_a 8.165554
_cell_length_b 21.107102
_cell_length_c 25.821780
_cell_angle_alpha 90.000000
_cell_angle_beta 90.000000
_cell_angle_gamma 90.000000
_cell_volume 4450.414283
_symmetry_space_group_name_H-M "C M C M"
_symmetry_group_IT_number 63
_symmetry_cell_setting 'orthorhombic'
loop_
_space_group_symop_operation_xyz
x,y,z
-x,-y,1/2+z
x,-y,-z
-x,y,1/2-z
-x,-y,-z
x,y,1/2-z
-x,y,z
x,-y,1/2+z
1/2+x,1/2+y,z
1/2-x,1/2-y,1/2+z
1/2+x,1/2-y,-z
1/2-x,1/2+y,1/2-z
1/2-x,1/2-y,-z
1/2+x,1/2+y,1/2-z
1/2-x,1/2+y,z
1/2+x,1/2-y,1/2+z
loop_
_atom_site_type_symbol
_atom_site_label
_atom_site_fract_x
_atom_site_fract_y
_atom_site_fract_z
Si Si1 0.700941 0.636102 0.363129
Si Si2 0.198578 0.988227 0.137306
Si Si3 0.193635 0.812709 0.970936
Si Si4 0.690472 0.640246 0.250000
Si Si5 0.304848 0.937473 0.469904
Si Si6 0.690655 0.513822 0.750000
O O1 0.500000 0.637020 0.361441
O O2 0.746738 0.562068 0.370799
O O3 0.759375 0.675647 0.412594
O O4 0.760261 0.658225 0.306255
O O5 0.260094 0.946731 0.089959
O O6 0.260406 0.967359 0.194220
O O7 0.000000 0.987082 0.138092
O O8 0.000000 0.808545 0.965611
O O9 0.250000 0.750000 0.000000
O O10 0.234931 0.874552 0.004504
O O11 0.500000 0.660385 0.250000
O O12 0.691277 0.563192 0.250000
O O13 0.500000 0.935379 0.475438
O O14 0.242056 0.000000 0.500000
O O15 0.500000 0.533503 0.750000
#
# Coordination Sequence:
#
# PCOD9475612 Si02
#       6
#    16  16  16   8  16   8
#     4   8  14  25  46  73 100 127 161 202 250 305
#     4   9  15  28  50  76 102 131 167 208 255 309
#     4  11  22  36  53  75 103 138 174 213 260 314
#     4   7  10  20  40  70  99 122 153 201 249 296
#     4  11  22  34  50  75 105 137 172 213 254 297
#     4   7  12  22  43  74 103 126 157 205 257 304
#
# _framework density 17.975854999999999
#
# number of rings (size 3 to 8) (size 9 to 14) (size 15 to 20)
#    0.000    2.800    2.000    3.600    0.000    0.800 
#    0.000    0.500    0.000    1.200    0.000    7.000 
#    0.000    0.000    0.000    0.000    0.000    0.000 
#
# Total GULP energy -222784.499763 kJ/mol
# GULP energy per Si atom -5569.612494 kJ/mol
# Density = 1.793494 g / cm^3
# Si number density = 17.975855 Si / 1000 Ang^3
#
#
#
# Elastic Constant Matrix: (Units=GPa)
#
#
# Indices 1 2 3 4 5 6 
#
# 1 10.7125 6.9117 4.3889 0.0000 0.0000 0.0000
# 2 6.9117 78.8199 62.0646 0.0000 0.0000 0.0000
# 3 4.3889 62.0646 195.6306 0.0000 0.0000 0.0000
# 4 0.0000 0.0000 0.0000 15.9644 0.0000 0.0000
# 5 0.0000 0.0000 0.0000 0.0000 5.7287 0.0000
# 6 0.0000 0.0000 0.0000 0.0000 0.0000 16.0609
#
#
#
# Elastic Compliance Matrix: (Units=1/GPa)
#
#
# Indices 1 2 3 4 5 6 
#
# 1 0.099021 -0.009243 0.000711 0.000000 0.000000 0.000000
# 2 -0.009243 0.017775 -0.005432 0.000000 0.000000 0.000000
# 3 0.000711 -0.005432 0.006819 0.000000 0.000000 0.000000
# 4 0.000000 0.000000 0.000000 0.062639 0.000000 0.000000
# 5 0.000000 0.000000 0.000000 0.000000 0.174561 0.000000
# 6 0.000000 0.000000 0.000000 0.000000 0.000000 0.062263
#
#
# Mechanical properties :
#
#
# Convention : Reuss Voigt Hill
#
# Bulk Modulus (GPa) = 10.45073 47.98817 29.21945
# Shear Modulus (GPa) = 10.35409 21.67065 16.01237
#
# Velocity S-wave (km/s) = 2.40260 3.47586 2.98782
# Velocity P-wave (km/s) = 3.67737 6.54696 5.30969
#
# Compressibility (1/GPa) = 0.09568711
#
# Stress axis : x y z
#
# Youngs Moduli (GPa) = 10.09886 56.25961 146.64974
#
# Poissons Ratio (x) = 0.52000 -0.10424
# Poissons Ratio (y) = 0.09334 0.79656
# Poissons Ratio (z) = -0.00718 0.30559
#
# Static dielectric constant tensor:
#      x y z
#    x 1.630380 0.000000 0.000000 
#    y 0.000000 1.581380 0.000000 
#    z 0.000000 0.000000 1.759720 
# 
# From -- ./inp_files/66690.got.cif
#   From: 2010.05.17/outbox.cif.g08.bks.cpg/sg63_34_cif.got.tgz:66690.got - 2010.06.03 15:47:04.
