data_PCOD9475625
_publ_section_title
;
Structure prediction by ZEFSAII (Michael W. Deem and Ramdas Pophale) SiO2 
 PCOD9475625
Probable space group: C M C M
;
_chemical_formula_sum "Si O2"
_cell_formula_units_Z 96
_cell_length_a 20.851323
_cell_length_b 28.490096
_cell_length_c 8.599153
_cell_angle_alpha 90.000000
_cell_angle_beta 90.000000
_cell_angle_gamma 90.000000
_cell_volume 5108.380103
_symmetry_space_group_name_H-M "C M C M"
_symmetry_group_IT_number 63
_symmetry_cell_setting 'orthorhombic'
loop_
_space_group_symop_operation_xyz
x,y,z
-x,-y,1/2+z
x,-y,-z
-x,y,1/2-z
-x,-y,-z
x,y,1/2-z
-x,y,z
x,-y,1/2+z
1/2+x,1/2+y,z
1/2-x,1/2-y,1/2+z
1/2+x,1/2-y,-z
1/2-x,1/2+y,1/2-z
1/2-x,1/2-y,-z
1/2+x,1/2+y,1/2-z
1/2-x,1/2+y,z
1/2+x,1/2-y,1/2+z
loop_
_atom_site_type_symbol
_atom_site_label
_atom_site_fract_x
_atom_site_fract_y
_atom_site_fract_z
Si Si1 0.074356 0.215669 0.937457
Si Si2 0.802700 0.052183 0.937046
Si Si3 0.310936 0.882947 0.936986
Si Si4 0.311184 0.222195 0.934869
Si Si5 0.426858 0.051235 0.062529
Si Si6 0.072188 0.892791 0.060861
O O1 0.081038 0.218535 0.750000
O O2 0.086379 0.161285 0.983239
O O3 0.000000 0.226382 0.974955
O O4 0.124903 0.250206 0.014245
O O5 0.801224 0.051455 0.750000
O O6 0.871826 0.072430 0.989668
O O7 0.748427 0.087394 0.997627
O O8 0.792078 0.000000 0.000000
O O9 0.307968 0.882750 0.750000
O O10 0.375976 0.909787 0.986131
O O11 0.310715 0.830166 0.997833
O O12 0.307001 0.220237 0.750000
O O13 0.250000 0.250000 0.000000
O O14 0.426656 0.049355 0.250000
O O15 0.500000 0.060877 0.011145
O O16 0.408204 0.000000 0.000000
O O17 0.071302 0.893304 0.250000
O O18 0.000000 0.904757 0.008065
#
# Coordination Sequence:
#
# PCOD9475625 Si02
#       6
#    16  16  16  16  16  16
#     4   9  18  36  62  88 115 150 192 238 289 342
#     4  11  22  36  56  82 114 150 189 234 283 337
#     4  11  23  39  59  83 112 146 188 237 289 344
#     4  12  25  40  59  84 116 152 193 240 291 347
#     4   9  19  36  58  83 111 145 184 226 274 329
#     4   8  16  33  57  82 108 143 186 229 275 328
#
# _framework density 18.792650999999999
#
# number of rings (size 3 to 8) (size 9 to 14) (size 15 to 20)
#    0.000    2.000    0.000    5.000    0.000    5.333 
#    0.000    2.500    0.000    3.500    0.000    0.000 
#    0.000    0.000    0.000    0.000    0.000    0.000 
#
# Total GULP energy -268145.019429 kJ/mol
# GULP energy per Si atom -5586.354571 kJ/mol
# Density = 1.874988 g / cm^3
# Si number density = 18.792651 Si / 1000 Ang^3
#
#
#
# Elastic Constant Matrix: (Units=GPa)
#
#
# Indices 1 2 3 4 5 6 
#
# 1 69.6109 31.6260 26.3200 0.0000 0.0000 0.0000
# 2 31.6260 58.6199 17.2951 0.0000 0.0000 0.0000
# 3 26.3200 17.2951 50.0856 0.0000 0.0000 0.0000
# 4 0.0000 0.0000 0.0000 20.0157 0.0000 0.0000
# 5 0.0000 0.0000 0.0000 0.0000 25.7622 0.0000
# 6 0.0000 0.0000 0.0000 0.0000 0.0000 41.1388
#
#
#
# Elastic Compliance Matrix: (Units=1/GPa)
#
#
# Indices 1 2 3 4 5 6 
#
# 1 0.021677 -0.009279 -0.008187 0.000000 0.000000 0.000000
# 2 -0.009279 0.022967 -0.003054 0.000000 0.000000 0.000000
# 3 -0.008187 -0.003054 0.025323 0.000000 0.000000 0.000000
# 4 0.000000 0.000000 0.000000 0.049961 0.000000 0.000000
# 5 0.000000 0.000000 0.000000 0.000000 0.038816 0.000000
# 6 0.000000 0.000000 0.000000 0.000000 0.000000 0.024308
#
#
# Mechanical properties :
#
#
# Convention : Reuss Voigt Hill
#
# Bulk Modulus (GPa) = 34.57226 36.53317 35.55271
# Shear Modulus (GPa) = 21.39181 24.25504 22.82343
#
# Velocity S-wave (km/s) = 3.37754 3.59648 3.48873
# Velocity P-wave (km/s) = 5.80060 6.06041 5.93193
#
# Compressibility (1/GPa) = 0.02892492
#
# Stress axis : x y z
#
# Youngs Moduli (GPa) = 46.13196 43.54160 39.49022
#
# Poissons Ratio (x) = 0.40404 0.32330
# Poissons Ratio (y) = 0.42808 0.12061
# Poissons Ratio (z) = 0.37768 0.13299
#
# Static dielectric constant tensor:
#      x y z
#    x 1.653180 0.000000 0.000000 
#    y 0.000000 1.607990 0.000000 
#    z 0.000000 0.000000 1.637880 
# 
# From -- ./inp_files/8616.got.cif
#   From: 2010.05.17/outbox.cif.g08.bks.cpg/sg63_5_cif.got.tgz:8616.got - 2010.06.03 15:47:04.
