data_PCOD9475591
_publ_section_title
;
Structure prediction by ZEFSAII (Michael W. Deem and Ramdas Pophale) SiO2 
 PCOD9475591
Probable space group: C M C M
;
_chemical_formula_sum "Si O2"
_cell_formula_units_Z 88
_cell_length_a 21.781347
_cell_length_b 22.354875
_cell_length_c 9.941832
_cell_angle_alpha 90.000000
_cell_angle_beta 90.000000
_cell_angle_gamma 90.000000
_cell_volume 4840.869774
_symmetry_space_group_name_H-M "C M C M"
_symmetry_group_IT_number 63
_symmetry_cell_setting 'orthorhombic'
loop_
_space_group_symop_operation_xyz
x,y,z
-x,-y,1/2+z
x,-y,-z
-x,y,1/2-z
-x,-y,-z
x,y,1/2-z
-x,y,z
x,-y,1/2+z
1/2+x,1/2+y,z
1/2-x,1/2-y,1/2+z
1/2+x,1/2-y,-z
1/2-x,1/2+y,1/2-z
1/2-x,1/2-y,-z
1/2+x,1/2+y,1/2-z
1/2-x,1/2+y,z
1/2+x,1/2-y,1/2+z
loop_
_atom_site_type_symbol
_atom_site_label
_atom_site_fract_x
_atom_site_fract_y
_atom_site_fract_z
Si Si1 0.928200 0.757177 0.545586
Si Si2 0.620863 0.746975 0.750000
Si Si3 0.726826 0.569179 0.475397
Si Si4 0.171294 0.267452 0.250000
Si Si5 0.768794 0.342770 0.750000
Si Si6 0.500000 0.442634 0.093008
Si Si7 0.906071 0.104955 0.102254
Si Si8 0.216709 0.140966 0.750000
O O1 0.918113 0.750790 0.386537
O O2 0.874203 0.722441 0.623561
O O3 0.910815 0.823688 0.596386
O O4 0.000000 0.745344 0.578848
O O5 0.672054 0.799701 0.750000
O O6 0.657993 0.684423 0.750000
O O7 0.745246 0.500000 0.500000
O O8 0.766415 0.612783 0.378616
O O9 0.659657 0.573927 0.407770
O O10 0.719391 0.600646 0.618541
O O11 0.209257 0.203227 0.250000
O O12 0.224954 0.315461 0.250000
O O13 0.500000 0.450611 0.250000
O O14 0.500000 0.500000 0.000000
O O15 0.440932 0.409980 0.035117
O O16 0.931588 0.086945 0.250000
#
# Coordination Sequence:
#
# PCOD9475591 Si02
#       8
#    16   8  16   8   8   8  16   8
#     4  12  22  36  59  86 121 156 201 247 301 358
#     4  11  23  38  60  85 117 153 206 257 302 363
#     4  12  23  38  59  85 121 155 201 245 303 359
#     4  11  21  40  60  85 113 161 206 243 306 367
#     4  11  21  42  60  81 117 159 200 251 308 367
#     4  12  28  42  58  76 110 164 222 268 297 334
#     4  12  23  39  57  82 120 163 207 247 296 351
#     4  11  23  36  62  87 115 155 208 255 294 367
#
# _framework density 18.178552
#
# number of rings (size 3 to 8) (size 9 to 14) (size 15 to 20)
#    0.000    0.364    6.364    3.545    2.545    2.909 
#    0.000    0.000    0.000    0.000    0.000    0.000 
#    0.000   50.909    0.000    0.000    0.000    0.000 
#
# Total GULP energy -245380.147946 kJ/mol
# GULP energy per Si atom -5576.821544 kJ/mol
# Density = 1.813718 g / cm^3
# Si number density = 18.178552 Si / 1000 Ang^3
#
#
#
# Elastic Constant Matrix: (Units=GPa)
#
#
# Indices 1 2 3 4 5 6 
#
# 1 67.0262 19.0976 17.4376 0.0000 0.0000 0.0000
# 2 19.0976 83.9065 33.9533 0.0000 0.0000 0.0000
# 3 17.4376 33.9533 166.9816 0.0000 0.0000 0.0000
# 4 0.0000 0.0000 0.0000 14.4546 0.0000 0.0000
# 5 0.0000 0.0000 0.0000 0.0000 80.6175 0.0000
# 6 0.0000 0.0000 0.0000 0.0000 0.0000 14.9472
#
#
#
# Elastic Compliance Matrix: (Units=1/GPa)
#
#
# Indices 1 2 3 4 5 6 
#
# 1 0.016112 -0.003254 -0.001021 0.000000 0.000000 0.000000
# 2 -0.003254 0.013644 -0.002434 0.000000 0.000000 0.000000
# 3 -0.001021 -0.002434 0.006590 0.000000 0.000000 0.000000
# 4 0.000000 0.000000 0.000000 0.069182 0.000000 0.000000
# 5 0.000000 0.000000 0.000000 0.000000 0.012404 0.000000
# 6 0.000000 0.000000 0.000000 0.000000 0.000000 0.066902
#
#
# Mechanical properties :
#
#
# Convention : Reuss Voigt Hill
#
# Bulk Modulus (GPa) = 43.61582 50.98791 47.30187
# Shear Modulus (GPa) = 24.28407 38.49892 31.39149
#
# Velocity S-wave (km/s) = 3.65891 4.60697 4.16004
# Velocity P-wave (km/s) = 6.47266 7.51054 7.01083
#
# Compressibility (1/GPa) = 0.02292746
#
# Stress axis : x y z
#
# Youngs Moduli (GPa) = 62.06423 73.29337 151.73807
#
# Poissons Ratio (x) = 0.23851 0.15491
# Poissons Ratio (y) = 0.20197 0.36940
# Poissons Ratio (z) = 0.06336 0.17843
#
# Static dielectric constant tensor:
#      x y z
#    x 1.640780 0.000000 0.000000 
#    y 0.000000 1.745090 0.000000 
#    z 0.000000 0.000000 1.671710 
# 
# From -- ./inp_files/10307.got.cif
#   From: 2010.05.17/outbox.cif.g08.bks.cpg/sg63_6_cif.got.tgz:10307.got - 2010.06.03 15:47:04.
