data_PCOD9475011
_publ_section_title
;
Structure prediction by ZEFSAII (Michael W. Deem and Ramdas Pophale) SiO2 
 PCOD9475011
Probable space group: C M C M
;
_chemical_formula_sum "Si O2"
_cell_formula_units_Z 72
_cell_length_a 18.350777
_cell_length_b 21.624452
_cell_length_c 8.495002
_cell_angle_alpha 90.000000
_cell_angle_beta 90.000000
_cell_angle_gamma 90.000000
_cell_volume 3371.033386
_symmetry_space_group_name_H-M "C M C M"
_symmetry_group_IT_number 63
_symmetry_cell_setting 'orthorhombic'
loop_
_space_group_symop_operation_xyz
x,y,z
-x,-y,1/2+z
x,-y,-z
-x,y,1/2-z
-x,-y,-z
x,y,1/2-z
-x,y,z
x,-y,1/2+z
1/2+x,1/2+y,z
1/2-x,1/2-y,1/2+z
1/2+x,1/2-y,-z
1/2-x,1/2+y,1/2-z
1/2-x,1/2-y,-z
1/2+x,1/2+y,1/2-z
1/2-x,1/2+y,z
1/2+x,1/2-y,1/2+z
loop_
_atom_site_type_symbol
_atom_site_label
_atom_site_fract_x
_atom_site_fract_y
_atom_site_fract_z
Si Si1 0.304529 0.000000 0.500000
Si Si2 0.354239 0.816000 0.570337
Si Si3 0.415996 0.322088 0.064817
Si Si4 0.082090 0.371761 0.250000
Si Si5 0.416347 0.021347 0.250000
Si Si6 0.214642 0.892027 0.570330
O O1 0.363159 0.035902 0.392743
O O2 0.249937 0.055739 0.542618
O O3 0.380511 0.833923 0.750000
O O4 0.378004 0.745012 0.552055
O O5 0.384294 0.848813 0.413600
O O6 0.268760 0.832976 0.567971
O O7 0.416072 0.337726 0.250000
O O8 0.500000 0.319037 0.010988
O O9 0.365281 0.370629 0.975674
O O10 0.081270 0.446351 0.250000
O O11 0.000000 0.348676 0.250000
O O12 0.500000 0.043388 0.250000
O O13 0.216147 0.916942 0.750000
#
# Coordination Sequence:
#
# PCOD9475011 Si02
#       6
#     8  16  16   8   8  16
#     4  12  23  44  63  92 128 170 212 264 315 380
#     4  10  22  41  63  96 132 166 211 263 318 386
#     4  10  23  42  65  94 128 165 206 264 327 376
#     4  11  22  36  63  96 126 174 213 251 319 378
#     4  11  24  42  63  92 130 168 213 261 315 380
#     4  11  24  40  65  94 123 170 215 260 318 377
#
# _framework density 21.358436000000001
#
# number of rings (size 3 to 8) (size 9 to 14) (size 15 to 20)
#    0.000    1.333    3.333    1.667    4.667    1.778 
#    0.000    0.556    0.000    0.000    0.000    0.000 
#    0.000    0.000    0.000    0.000    0.000    0.000 
#
# Total GULP energy -200662.268244 kJ/mol
# GULP energy per Si atom -5573.951896 kJ/mol
# Density = 2.130982 g / cm^3
# Si number density = 21.358436 Si / 1000 Ang^3
#
#
#
# Elastic Constant Matrix: (Units=GPa)
#
#
# Indices 1 2 3 4 5 6 
#
# 1 142.9291 53.3571 34.2722 0.0000 0.0000 0.0000
# 2 53.3571 66.1716 23.3108 0.0000 0.0000 0.0000
# 3 34.2722 23.3108 92.6526 0.0000 0.0000 0.0000
# 4 0.0000 0.0000 0.0000 50.9708 0.0000 0.0000
# 5 0.0000 0.0000 0.0000 0.0000 9.7826 0.0000
# 6 0.0000 0.0000 0.0000 0.0000 0.0000 27.0988
#
#
#
# Elastic Compliance Matrix: (Units=1/GPa)
#
#
# Indices 1 2 3 4 5 6 
#
# 1 0.010302 -0.007642 -0.001888 0.000000 0.000000 0.000000
# 2 -0.007642 0.022250 -0.002771 0.000000 0.000000 0.000000
# 3 -0.001888 -0.002771 0.012189 0.000000 0.000000 0.000000
# 4 0.000000 0.000000 0.000000 0.019619 0.000000 0.000000
# 5 0.000000 0.000000 0.000000 0.000000 0.102222 0.000000
# 6 0.000000 0.000000 0.000000 0.000000 0.000000 0.036902
#
#
# Mechanical properties :
#
#
# Convention : Reuss Voigt Hill
#
# Bulk Modulus (GPa) = 49.65594 58.18150 53.91872
# Shear Modulus (GPa) = 21.29471 30.29131 25.79301
#
# Velocity S-wave (km/s) = 3.16098 3.77003 3.47886
# Velocity P-wave (km/s) = 6.05159 6.80077 6.43709
#
# Compressibility (1/GPa) = 0.02013858
#
# Stress axis : x y z
#
# Youngs Moduli (GPa) = 97.06861 44.94289 82.04345
#
# Poissons Ratio (x) = 0.34345 0.15490
# Poissons Ratio (y) = 0.74178 0.22737
# Poissons Ratio (z) = 0.18327 0.12455
#
# Static dielectric constant tensor:
#      x y z
#    x 1.746880 0.000000 0.000000 
#    y 0.000000 1.773150 0.000000 
#    z 0.000000 0.000000 1.900070 
# 
# From -- ./inp_files/4690.got.cif
#   From: 2010.05.17/outbox.cif.g08.bks.cpg/sg63_3_cif.got.tgz:4690.got - 2010.06.03 15:47:04.
