data_PCOD9475433
_publ_section_title
;
Structure prediction by ZEFSAII (Michael W. Deem and Ramdas Pophale) SiO2 
 PCOD9475433
Probable space group: C M C M
;
_chemical_formula_sum "Si O2"
_cell_formula_units_Z 80
_cell_length_a 8.708357
_cell_length_b 20.809620
_cell_length_c 25.455952
_cell_angle_alpha 90.000000
_cell_angle_beta 90.000000
_cell_angle_gamma 90.000000
_cell_volume 4613.066527
_symmetry_space_group_name_H-M "C M C M"
_symmetry_group_IT_number 63
_symmetry_cell_setting 'orthorhombic'
loop_
_space_group_symop_operation_xyz
x,y,z
-x,-y,1/2+z
x,-y,-z
-x,y,1/2-z
-x,-y,-z
x,y,1/2-z
-x,y,z
x,-y,1/2+z
1/2+x,1/2+y,z
1/2-x,1/2-y,1/2+z
1/2+x,1/2-y,-z
1/2-x,1/2+y,1/2-z
1/2-x,1/2-y,-z
1/2+x,1/2+y,1/2-z
1/2-x,1/2+y,z
1/2+x,1/2-y,1/2+z
loop_
_atom_site_type_symbol
_atom_site_label
_atom_site_fract_x
_atom_site_fract_y
_atom_site_fract_z
Si Si1 0.676672 0.390199 0.250000
Si Si2 0.686030 0.756738 0.637272
Si Si3 0.183785 0.313352 0.527441
Si Si4 0.816136 0.063910 0.968112
Si Si5 0.683022 0.112909 0.862135
Si Si6 0.176312 0.266093 0.750000
O O1 0.500000 0.411366 0.250000
O O2 0.757310 0.408533 0.304655
O O3 0.675893 0.311936 0.250000
O O4 0.500000 0.748544 0.640549
O O5 0.718414 0.803403 0.589003
O O6 0.755022 0.685764 0.628509
O O7 0.744142 0.783040 0.693437
O O8 0.250000 0.250000 0.500000
O O9 0.258941 0.375123 0.501351
O O10 0.000000 0.315831 0.520537
O O11 0.744532 0.070149 0.910104
O O12 0.000000 0.066011 0.963141
O O13 0.772351 0.000000 0.000000
O O14 0.500000 0.114186 0.862334
O O15 0.000000 0.289118 0.750000
#
# Coordination Sequence:
#
# PCOD9475433 Si02
#       6
#     8  16  16  16  16   8
#     4   9  17  31  51  74 107 144 177 217 267 325
#     4   9  17  30  50  75 106 141 177 215 269 331
#     4  11  21  33  54  81 109 142 180 225 273 331
#     4  11  24  40  56  75 106 149 192 233 282 335
#     4  11  20  31  52  81 110 138 177 229 276 324
#     4   7  12  25  45  70  99 134 169 207 253 313
#
# _framework density 17.342044000000001
#
# number of rings (size 3 to 8) (size 9 to 14) (size 15 to 20)
#    0.000    2.000    2.000    4.500    0.000    2.400 
#    0.000    0.000    0.000    1.200    0.000    4.200 
#    0.000    0.000    0.000    0.000    0.000    0.000 
#
# Total GULP energy -223078.658231 kJ/mol
# GULP energy per Si atom -5576.966456 kJ/mol
# Density = 1.730257 g / cm^3
# Si number density = 17.342044 Si / 1000 Ang^3
#
#
#
# Elastic Constant Matrix: (Units=GPa)
#
#
# Indices 1 2 3 4 5 6 
#
# 1 68.0599 28.8193 58.6482 0.0000 0.0000 0.0000
# 2 28.8193 75.1396 56.3020 0.0000 0.0000 0.0000
# 3 58.6482 56.3020 186.1433 0.0000 0.0000 0.0000
# 4 0.0000 0.0000 0.0000 18.9064 0.0000 0.0000
# 5 0.0000 0.0000 0.0000 0.0000 28.5708 0.0000
# 6 0.0000 0.0000 0.0000 0.0000 0.0000 17.7488
#
#
#
# Elastic Compliance Matrix: (Units=1/GPa)
#
#
# Indices 1 2 3 4 5 6 
#
# 1 0.021066 -0.004017 -0.005422 0.000000 0.000000 0.000000
# 2 -0.004017 0.017975 -0.004171 0.000000 0.000000 0.000000
# 3 -0.005422 -0.004171 0.008342 0.000000 0.000000 0.000000
# 4 0.000000 0.000000 0.000000 0.052892 0.000000 0.000000
# 5 0.000000 0.000000 0.000000 0.000000 0.035001 0.000000
# 6 0.000000 0.000000 0.000000 0.000000 0.000000 0.056342
#
#
# Mechanical properties :
#
#
# Convention : Reuss Voigt Hill
#
# Bulk Modulus (GPa) = 49.59704 68.54242 59.06973
# Shear Modulus (GPa) = 22.16708 25.41675 23.79192
#
# Velocity S-wave (km/s) = 3.57911 3.83249 3.70796
# Velocity P-wave (km/s) = 6.76324 7.69374 7.24345
#
# Compressibility (1/GPa) = 0.02016249
#
# Stress axis : x y z
#
# Youngs Moduli (GPa) = 47.46883 55.63400 119.87127
#
# Poissons Ratio (x) = 0.22347 0.65000
# Poissons Ratio (y) = 0.19068 0.50000
# Poissons Ratio (z) = 0.25740 0.23206
#
# Static dielectric constant tensor:
#      x y z
#    x 1.587420 0.000000 0.000000 
#    y 0.000000 1.543250 0.000000 
#    z 0.000000 0.000000 1.649070 
# 
# From -- ./inp_files/66695.got.cif
#   From: 2010.05.17/outbox.cif.g08.bks.cpg/sg63_34_cif.got.tgz:66695.got - 2010.06.03 15:47:04.
