data_PCOD9475187
_publ_section_title
;
Structure prediction by ZEFSAII (Michael W. Deem and Ramdas Pophale) SiO2 
 PCOD9475187
Probable space group: C M C M
;
_chemical_formula_sum "Si O2"
_cell_formula_units_Z 80
_cell_length_a 14.268800
_cell_length_b 9.376848
_cell_length_c 25.645606
_cell_angle_alpha 90.000000
_cell_angle_beta 90.000000
_cell_angle_gamma 90.000000
_cell_volume 3431.288957
_symmetry_space_group_name_H-M "C M C M"
_symmetry_group_IT_number 63
_symmetry_cell_setting 'orthorhombic'
loop_
_space_group_symop_operation_xyz
x,y,z
-x,-y,1/2+z
x,-y,-z
-x,y,1/2-z
-x,-y,-z
x,y,1/2-z
-x,y,z
x,-y,1/2+z
1/2+x,1/2+y,z
1/2-x,1/2-y,1/2+z
1/2+x,1/2-y,-z
1/2-x,1/2+y,1/2-z
1/2-x,1/2-y,-z
1/2+x,1/2+y,1/2-z
1/2-x,1/2+y,z
1/2+x,1/2-y,1/2+z
loop_
_atom_site_type_symbol
_atom_site_label
_atom_site_fract_x
_atom_site_fract_y
_atom_site_fract_z
Si Si1 0.396468 0.927310 0.556280
Si Si2 0.606992 0.683567 0.691007
Si Si3 0.750221 0.796666 0.894788
Si Si4 0.891206 0.165990 0.487025
Si Si5 0.894145 0.158885 0.194005
O O1 0.500000 0.959895 0.577111
O O2 0.306661 0.945127 0.592387
O O3 0.389211 0.759850 0.539745
O O4 0.389141 0.000000 0.500000
O O5 0.633724 0.734828 0.750000
O O6 0.500000 0.733386 0.681253
O O7 0.672337 0.720641 0.642177
O O8 0.604237 0.512615 0.694399
O O9 0.811254 0.775171 0.948220
O O10 0.834024 0.799956 0.854363
O O11 0.000000 0.179464 0.467173
O O12 0.874838 0.000000 0.500000
O O13 0.856619 0.208528 0.250000
O O14 0.000000 0.210595 0.189131
#
# Coordination Sequence:
#
# PCOD9475187 Si02
#       5
#    16  16  16  16  16
#     4  10  23  40  56  82 124 161 192 242 303 357
#     4   9  20  38  58  84 118 152 191 243 301 360
#     4  12  21  32  62  88 108 151 198 248 287 353
#     4  10  23  40  58  86 123 158 199 249 297 352
#     4   9  20  38  58  84 118 151 190 245 302 355
#
# _framework density 23.314854
#
# number of rings (size 3 to 8) (size 9 to 14) (size 15 to 20)
#    0.000    2.000    0.000    4.200    5.600    0.000 
#    0.000    0.000    0.000    0.000    0.000    8.400 
#    0.000    0.000    0.000    0.000    0.000    0.000 
#
# Total GULP energy -222833.152573 kJ/mol
# GULP energy per Si atom -5570.828814 kJ/mol
# Density = 2.326179 g / cm^3
# Si number density = 23.314854 Si / 1000 Ang^3
#
#
#
# Elastic Constant Matrix: (Units=GPa)
#
#
# Indices 1 2 3 4 5 6 
#
# 1 140.4531 -15.7138 56.1484 0.0000 0.0000 0.0000
# 2 -15.7138 33.8005 -1.5410 0.0000 0.0000 0.0000
# 3 56.1484 -1.5410 130.7971 0.0000 0.0000 0.0000
# 4 0.0000 0.0000 0.0000 21.7459 0.0000 0.0000
# 5 0.0000 0.0000 0.0000 0.0000 44.1140 0.0000
# 6 0.0000 0.0000 0.0000 0.0000 0.0000 -3.1693
#
#
#
# Elastic Compliance Matrix: (Units=1/GPa)
#
#
# Indices 1 2 3 4 5 6 
#
# 1 0.009121 0.004064 -0.003867 0.000000 0.000000 0.000000
# 2 0.004064 0.031412 -0.001374 0.000000 0.000000 0.000000
# 3 -0.003867 -0.001374 0.009289 0.000000 0.000000 0.000000
# 4 0.000000 0.000000 0.000000 0.045986 0.000000 0.000000
# 5 0.000000 0.000000 0.000000 0.000000 0.022669 0.000000
# 6 0.000000 0.000000 0.000000 0.000000 0.000000 -0.315529
#
#
# Mechanical properties :
#
#
# Convention : Reuss Voigt Hill
#
# Bulk Modulus (GPa) = 21.06772 42.53753 31.80263
# Shear Modulus (GPa) = -27.95245 30.28195 1.16475
#
# Velocity S-wave (km/s) = -3.46629 3.60783 0.70757
# Velocity P-wave (km/s) = 2.63901 5.96990 3.78651
#
# Compressibility (1/GPa) = 0.04746597
#
# Stress axis : x y z
#
# Youngs Moduli (GPa) = 109.64299 31.83498 107.64943
#
# Poissons Ratio (x) = -0.12937 0.41632
# Poissons Ratio (y) = -0.44557 0.14795
# Poissons Ratio (z) = 0.42403 0.04375
#
# Static dielectric constant tensor:
#      x y z
#    x 1.999680 0.000000 0.000000 
#    y 0.000000 1.928750 0.000000 
#    z 0.000000 0.000000 1.943730 
# 
# From -- ./inp_files/62565.got.cif
#   From: 2010.05.17/outbox.cif.g08.bks.cpg/sg63_32_cif.got.tgz:62565.got - 2010.06.03 15:47:04.
