data_PCOD9475736
_publ_section_title
;
Structure prediction by ZEFSAII (Michael W. Deem and Ramdas Pophale) SiO2 
 PCOD9475736
Probable space group: C M C M
;
_chemical_formula_sum "Si O2"
_cell_formula_units_Z 72
_cell_length_a 20.741141
_cell_length_b 22.423498
_cell_length_c 8.319443
_cell_angle_alpha 90.000000
_cell_angle_beta 90.000000
_cell_angle_gamma 90.000000
_cell_volume 3869.280874
_symmetry_space_group_name_H-M "C M C M"
_symmetry_group_IT_number 63
_symmetry_cell_setting 'orthorhombic'
loop_
_space_group_symop_operation_xyz
x,y,z
-x,-y,1/2+z
x,-y,-z
-x,y,1/2-z
-x,-y,-z
x,y,1/2-z
-x,y,z
x,-y,1/2+z
1/2+x,1/2+y,z
1/2-x,1/2-y,1/2+z
1/2+x,1/2-y,-z
1/2-x,1/2+y,1/2-z
1/2-x,1/2-y,-z
1/2+x,1/2+y,1/2-z
1/2-x,1/2+y,z
1/2+x,1/2-y,1/2+z
loop_
_atom_site_type_symbol
_atom_site_label
_atom_site_fract_x
_atom_site_fract_y
_atom_site_fract_z
Si Si1 0.744439 0.433785 0.059846
Si Si2 0.799833 0.197114 0.558431
Si Si3 0.924066 0.744561 0.558982
Si Si4 0.370485 0.878078 0.938035
Si Si5 0.500000 0.933380 0.444392
O O1 0.734564 0.434440 0.250000
O O2 0.715895 0.370188 0.996819
O O3 0.724817 0.500000 0.000000
O O4 0.818914 0.421795 0.017431
O O5 0.792014 0.197240 0.750000
O O6 0.750000 0.250000 0.500000
O O7 0.875101 0.207850 0.516762
O O8 0.926844 0.752433 0.750000
O O9 0.882144 0.685382 0.521506
O O10 0.000000 0.741701 0.503119
O O11 0.355826 0.869926 0.750000
O O12 0.438840 0.906093 0.970614
O O13 0.500000 0.924321 0.250000
O O14 0.500000 0.000000 0.500000
#
# Coordination Sequence:
#
# PCOD9475736 Si02
#       5
#    16  16  16  16   8
#     4  11  24  41  61  88 122 159 201 251 305 362
#     4  11  23  39  64  92 123 161 206 255 307 366
#     4  11  23  39  61  89 124 161 201 252 307 364
#     4  12  23  36  57  83 115 158 201 244 298 359
#     4  12  24  38  52  72 110 156 203 248 293 354
#
# _framework density 18.608111000000001
#
# number of rings (size 3 to 8) (size 9 to 14) (size 15 to 20)
#    0.000    0.667    3.333    5.667    0.000    4.000 
#    0.000    0.000    0.000    0.667    0.000    0.000 
#    0.000    0.000    0.000    0.000    0.000    0.000 
#
# Total GULP energy -200519.830834 kJ/mol
# GULP energy per Si atom -5569.995301 kJ/mol
# Density = 1.856576 g / cm^3
# Si number density = 18.608111 Si / 1000 Ang^3
#
#
#
# Elastic Constant Matrix: (Units=GPa)
#
#
# Indices 1 2 3 4 5 6 
#
# 1 53.9475 42.4996 7.7170 0.0000 0.0000 0.0000
# 2 42.4996 125.6531 22.9964 0.0000 0.0000 0.0000
# 3 7.7170 22.9964 38.9069 0.0000 0.0000 0.0000
# 4 0.0000 0.0000 0.0000 30.4459 0.0000 0.0000
# 5 0.0000 0.0000 0.0000 0.0000 26.5848 0.0000
# 6 0.0000 0.0000 0.0000 0.0000 0.0000 52.0815
#
#
#
# Elastic Compliance Matrix: (Units=1/GPa)
#
#
# Indices 1 2 3 4 5 6 
#
# 1 0.025270 -0.008555 0.000045 0.000000 0.000000 0.000000
# 2 -0.008555 0.011820 -0.005290 0.000000 0.000000 0.000000
# 3 0.000045 -0.005290 0.028820 0.000000 0.000000 0.000000
# 4 0.000000 0.000000 0.000000 0.032845 0.000000 0.000000
# 5 0.000000 0.000000 0.000000 0.000000 0.037615 0.000000
# 6 0.000000 0.000000 0.000000 0.000000 0.000000 0.019201
#
#
# Mechanical properties :
#
#
# Convention : Reuss Voigt Hill
#
# Bulk Modulus (GPa) = 26.10313 40.54817 33.32565
# Shear Modulus (GPa) = 25.51779 31.50873 28.51326
#
# Velocity S-wave (km/s) = 3.70716 4.11941 3.91871
# Velocity P-wave (km/s) = 5.69055 6.66813 6.19864
#
# Compressibility (1/GPa) = 0.03830959
#
# Stress axis : x y z
#
# Youngs Moduli (GPa) = 39.57271 84.60157 34.69811
#
# Poissons Ratio (x) = 0.72378 -0.00154
# Poissons Ratio (y) = 0.33855 0.18354
# Poissons Ratio (z) = -0.00176 0.44751
#
# Static dielectric constant tensor:
#      x y z
#    x 1.516510 0.000000 0.000000 
#    y 0.000000 1.745650 0.000000 
#    z 0.000000 0.000000 1.656150 
# 
# From -- ./inp_files/7809.got.cif
#   From: 2010.05.17/outbox.cif.g08.bks.cpg/sg63_4_cif.got.tgz:7809.got - 2010.06.03 15:47:04.
