data_PCOD9475413
_publ_section_title
;
Structure prediction by ZEFSAII (Michael W. Deem and Ramdas Pophale) SiO2 
 PCOD9475413
Probable space group: C M C M
;
_chemical_formula_sum "Si O2"
_cell_formula_units_Z 64
_cell_length_a 17.721891
_cell_length_b 7.681794
_cell_length_c 24.950660
_cell_angle_alpha 90.000000
_cell_angle_beta 90.000000
_cell_angle_gamma 90.000000
_cell_volume 3396.680953
_symmetry_space_group_name_H-M "C M C M"
_symmetry_group_IT_number 63
_symmetry_cell_setting 'orthorhombic'
loop_
_space_group_symop_operation_xyz
x,y,z
-x,-y,1/2+z
x,-y,-z
-x,y,1/2-z
-x,-y,-z
x,y,1/2-z
-x,y,z
x,-y,1/2+z
1/2+x,1/2+y,z
1/2-x,1/2-y,1/2+z
1/2+x,1/2-y,-z
1/2-x,1/2+y,1/2-z
1/2-x,1/2-y,-z
1/2+x,1/2+y,1/2-z
1/2-x,1/2+y,z
1/2+x,1/2-y,1/2+z
loop_
_atom_site_type_symbol
_atom_site_label
_atom_site_fract_x
_atom_site_fract_y
_atom_site_fract_z
Si Si1 0.155388 0.529937 0.810989
Si Si2 0.911941 0.785058 0.375464
Si Si3 0.801460 0.643286 0.459804
Si Si4 0.196261 0.900434 0.855660
O O1 0.133119 0.566864 0.750000
O O2 0.238798 0.444134 0.812866
O O3 0.102765 0.385059 0.838584
O O4 0.163320 0.708802 0.844728
O O5 0.869072 0.742190 0.430832
O O6 0.867503 0.952932 0.353386
O O7 0.000000 0.817554 0.381355
O O8 0.834057 0.500000 0.500000
O O9 0.750000 0.750000 0.500000
O O10 0.744076 0.588155 0.411572
#
# Coordination Sequence:
#
# PCOD9475413 Si02
#       4
#    16  16  16  16
#     4  11  22  39  66  94 121 165 219 260 307 378
#     4  11  25  42  60  94 135 164 203 267 323 367
#     4  11  19  38  65  88 121 165 215 257 305 370
#     4  11  21  39  64  95 123 164 215 263 303 379
#
# _framework density 18.841922
#
# number of rings (size 3 to 8) (size 9 to 14) (size 15 to 20)
#    0.000    1.000    7.500    2.250    0.000    3.000 
#    0.000    2.500    0.000    0.000    0.000    0.000 
#    0.000    0.000    0.000    0.000    0.000    0.000 
#
# Total GULP energy -178472.320626 kJ/mol
# GULP energy per Si atom -5577.260020 kJ/mol
# Density = 1.879904 g / cm^3
# Si number density = 18.841922 Si / 1000 Ang^3
#
#
#
# Elastic Constant Matrix: (Units=GPa)
#
#
# Indices 1 2 3 4 5 6 
#
# 1 110.1452 15.7297 9.1038 0.0000 0.0000 0.0000
# 2 15.7297 85.4799 8.5918 0.0000 0.0000 0.0000
# 3 9.1038 8.5918 92.5565 0.0000 0.0000 0.0000
# 4 0.0000 0.0000 0.0000 22.1673 0.0000 0.0000
# 5 0.0000 0.0000 0.0000 0.0000 10.7064 0.0000
# 6 0.0000 0.0000 0.0000 0.0000 0.0000 25.4848
#
#
#
# Elastic Compliance Matrix: (Units=1/GPa)
#
#
# Indices 1 2 3 4 5 6 
#
# 1 0.009378 -0.001648 -0.000769 0.000000 0.000000 0.000000
# 2 -0.001648 0.012099 -0.000961 0.000000 0.000000 0.000000
# 3 -0.000769 -0.000961 0.010969 0.000000 0.000000 0.000000
# 4 0.000000 0.000000 0.000000 0.045111 0.000000 0.000000
# 5 0.000000 0.000000 0.000000 0.000000 0.093402 0.000000
# 6 0.000000 0.000000 0.000000 0.000000 0.000000 0.039239
#
#
# Mechanical properties :
#
#
# Convention : Reuss Voigt Hill
#
# Bulk Modulus (GPa) = 38.92843 39.44804 39.18824
# Shear Modulus (GPa) = 22.17118 28.65547 25.41333
#
# Velocity S-wave (km/s) = 3.43402 3.90402 3.67654
# Velocity P-wave (km/s) = 6.03562 6.42679 6.23427
#
# Compressibility (1/GPa) = 0.02568816
#
# Stress axis : x y z
#
# Youngs Moduli (GPa) = 106.63350 82.65442 91.16527
#
# Poissons Ratio (x) = 0.13624 0.07014
# Poissons Ratio (y) = 0.17577 0.08761
# Poissons Ratio (z) = 0.08204 0.07943
#
# Static dielectric constant tensor:
#      x y z
#    x 1.679420 0.000000 0.000000 
#    y 0.000000 2.286670 0.000000 
#    z 0.000000 0.000000 -0.424790 
# 
# From -- ./inp_files/63434.got.cif
#   From: 2010.05.17/outbox.cif.g08.bks.cpg/sg63_32_cif.got.tgz:63434.got - 2010.06.03 15:47:04.
