data_PCOD9475869
_publ_section_title
;
Structure prediction by ZEFSAII (Michael W. Deem and Ramdas Pophale) SiO2 
 PCOD9475869
Probable space group: C M C M
;
_chemical_formula_sum "Si O2"
_cell_formula_units_Z 84
_cell_length_a 11.525118
_cell_length_b 31.461215
_cell_length_c 11.873378
_cell_angle_alpha 90.000000
_cell_angle_beta 90.000000
_cell_angle_gamma 90.000000
_cell_volume 4305.218179
_symmetry_space_group_name_H-M "C M C M"
_symmetry_group_IT_number 63
_symmetry_cell_setting 'orthorhombic'
loop_
_space_group_symop_operation_xyz
x,y,z
-x,-y,1/2+z
x,-y,-z
-x,y,1/2-z
-x,-y,-z
x,y,1/2-z
-x,y,z
x,-y,1/2+z
1/2+x,1/2+y,z
1/2-x,1/2-y,1/2+z
1/2+x,1/2-y,-z
1/2-x,1/2+y,1/2-z
1/2-x,1/2-y,-z
1/2+x,1/2+y,1/2-z
1/2-x,1/2+y,z
1/2+x,1/2-y,1/2+z
loop_
_atom_site_type_symbol
_atom_site_label
_atom_site_fract_x
_atom_site_fract_y
_atom_site_fract_z
Si Si1 0.271924 0.662088 0.250000
Si Si2 0.500000 0.395547 0.750000
Si Si3 0.861889 0.372232 0.121339
Si Si4 0.500000 0.336755 0.386070
Si Si5 0.638601 0.920119 0.750000
Si Si6 0.227710 0.799900 0.504727
Si Si7 0.261132 0.952034 0.513401
Si Si8 0.000000 0.070270 0.002326
O O1 0.385679 0.632840 0.250000
O O2 0.162137 0.630461 0.250000
O O3 0.277279 0.688280 0.135890
O O4 0.500000 0.421419 0.635758
O O5 0.818755 0.368963 0.250000
O O6 0.000000 0.374371 0.122024
O O7 0.822252 0.330918 0.052132
O O8 0.814851 0.415276 0.064813
O O9 0.500000 0.336548 0.250000
O O10 0.611228 0.313288 0.438797
O O11 0.500000 0.384980 0.434773
O O12 0.500000 0.929040 0.750000
O O13 0.703599 0.938046 0.860347
O O14 0.250000 0.750000 0.500000
O O15 0.123880 0.951686 0.483103
O O16 0.305627 0.000000 0.500000
#
# Coordination Sequence:
#
# PCOD9475869 Si02
#       8
#     8   4  16   8   8  16  16   8
#     4  12  22  44  72  97 133 182 228 289 346 407
#     4  12  16  42  76  90 130 178 224 282 342 408
#     4  11  25  47  69  95 141 187 225 278 344 420
#     4  12  24  45  71  99 141 184 227 287 344 408
#     4  12  24  44  70  97 133 182 231 284 340 412
#     4  12  27  44  70 104 138 179 233 287 347 410
#     4  12  26  44  70 102 136 176 231 287 346 413
#     4  12  21  44  71 100 136 180 226 282 354 403
#
# _framework density 19.511206000000001
#
# number of rings (size 3 to 8) (size 9 to 14) (size 15 to 20)
#    0.000    0.190    7.619    1.429    5.333    1.524 
#    0.000    0.000    0.000    0.000    0.000    0.000 
#    0.000    0.000    0.000    0.000    0.000    0.000 
#
# Total GULP energy -234706.229508 kJ/mol
# GULP energy per Si atom -5588.243560 kJ/mol
# Density = 1.946680 g / cm^3
# Si number density = 19.511206 Si / 1000 Ang^3
#
#
#
# Elastic Constant Matrix: (Units=GPa)
#
#
# Indices 1 2 3 4 5 6 
#
# 1 97.0217 28.3877 20.0488 0.0000 0.0000 0.0000
# 2 28.3877 146.3276 47.9617 0.0000 0.0000 0.0000
# 3 20.0488 47.9617 152.1803 0.0000 0.0000 0.0000
# 4 0.0000 0.0000 0.0000 33.0195 0.0000 0.0000
# 5 0.0000 0.0000 0.0000 0.0000 11.1917 0.0000
# 6 0.0000 0.0000 0.0000 0.0000 0.0000 -11.0905
#
#
#
# Elastic Compliance Matrix: (Units=1/GPa)
#
#
# Indices 1 2 3 4 5 6 
#
# 1 0.011029 -0.001855 -0.000868 0.000000 0.000000 0.000000
# 2 -0.001855 0.007933 -0.002256 0.000000 0.000000 0.000000
# 3 -0.000868 -0.002256 0.007397 0.000000 0.000000 0.000000
# 4 0.000000 0.000000 0.000000 0.030285 0.000000 0.000000
# 5 0.000000 0.000000 0.000000 0.000000 0.089352 0.000000
# 6 0.000000 0.000000 0.000000 0.000000 0.000000 -0.090167
#
#
# Mechanical properties :
#
#
# Convention : Reuss Voigt Hill
#
# Bulk Modulus (GPa) = 60.97427 65.36955 63.17191
# Shear Modulus (GPa) = 70.17145 26.56623 48.36884
#
# Velocity S-wave (km/s) = 6.00356 3.69397 4.98439
# Velocity P-wave (km/s) = 8.90931 7.19515 8.09772
#
# Compressibility (1/GPa) = 0.01640036
#
# Stress axis : x y z
#
# Youngs Moduli (GPa) = 90.66845 126.05138 135.19858
#
# Poissons Ratio (x) = 0.23383 0.11740
# Poissons Ratio (y) = 0.16819 0.30499
# Poissons Ratio (z) = 0.07873 0.28436
#
# Static dielectric constant tensor:
#      x y z
#    x 1.671000 0.000000 0.000000 
#    y 0.000000 1.720930 0.000000 
#    z 0.000000 0.000000 1.651530 
# 
# From -- ./inp_files/18067.got.cif
#   From: 2010.05.17/outbox.cif.g08.bks.cpg/sg63_10_cif.got.tgz:18067.got - 2010.06.03 15:47:04.
