data_PCOD9475495
_publ_section_title
;
Structure prediction by ZEFSAII (Michael W. Deem and Ramdas Pophale) SiO2 
 PCOD9475495
Probable space group: C M C M
;
_chemical_formula_sum "Si O2"
_cell_formula_units_Z 80
_cell_length_a 7.583526
_cell_length_b 28.316655
_cell_length_c 19.088172
_cell_angle_alpha 90.000000
_cell_angle_beta 90.000000
_cell_angle_gamma 90.000000
_cell_volume 4098.995762
_symmetry_space_group_name_H-M "C M C M"
_symmetry_group_IT_number 63
_symmetry_cell_setting 'orthorhombic'
loop_
_space_group_symop_operation_xyz
x,y,z
-x,-y,1/2+z
x,-y,-z
-x,y,1/2-z
-x,-y,-z
x,y,1/2-z
-x,y,z
x,-y,1/2+z
1/2+x,1/2+y,z
1/2-x,1/2-y,1/2+z
1/2+x,1/2-y,-z
1/2-x,1/2+y,1/2-z
1/2-x,1/2-y,-z
1/2+x,1/2+y,1/2-z
1/2-x,1/2+y,z
1/2+x,1/2-y,1/2+z
loop_
_atom_site_type_symbol
_atom_site_label
_atom_site_fract_x
_atom_site_fract_y
_atom_site_fract_z
Si Si1 0.286406 0.224917 0.604661
Si Si2 0.291190 0.677909 0.458466
Si Si3 0.216255 0.926923 0.963012
Si Si4 0.791953 0.428793 0.250000
Si Si5 0.289872 0.477278 0.103809
Si Si6 0.216361 0.678633 0.750000
O O1 0.500000 0.226023 0.605074
O O2 0.220752 0.277627 0.585755
O O3 0.233239 0.191627 0.539912
O O4 0.227363 0.204897 0.679098
O O5 0.500000 0.676230 0.444357
O O6 0.219952 0.625515 0.445423
O O7 0.000000 0.925252 0.962590
O O8 0.273197 0.969478 0.912038
O O9 0.272891 0.943152 0.041022
O O10 0.745799 0.456908 0.320144
O O11 0.719390 0.375464 0.250000
O O12 0.000000 0.423317 0.250000
O O13 0.500000 0.479250 0.095552
O O14 0.000000 0.678751 0.750000
#
# Coordination Sequence:
#
# PCOD9475495 Si02
#       6
#    16  16  16   8  16   8
#     4   9  17  29  45  65  90 119 149 180 216 259
#     4   9  16  28  47  69  90 112 145 186 222 258
#     4   8  15  29  49  70  89 113 148 189 225 261
#     4  11  21  31  44  65  93 119 147 183 220 263
#     4   9  17  31  49  67  90 118 148 182 224 269
#     4   9  18  31  44  61  89 121 147 175 216 263
#
# _framework density 19.516976
#
# number of rings (size 3 to 8) (size 9 to 14) (size 15 to 20)
#    0.000    3.000    0.000    2.700    0.000    0.000 
#    0.000    5.500    0.000    4.800    0.000    0.000 
#    0.000    0.000    0.000    0.000    0.000    0.000 
#
# Total GULP energy -223053.662139 kJ/mol
# GULP energy per Si atom -5576.341553 kJ/mol
# Density = 1.947255 g / cm^3
# Si number density = 19.516976 Si / 1000 Ang^3
#
#
#
# Elastic Constant Matrix: (Units=GPa)
#
#
# Indices 1 2 3 4 5 6 
#
# 1 38.3529 2.3072 -10.0653 0.0000 0.0000 0.0000
# 2 2.3072 191.0305 89.8961 0.0000 0.0000 0.0000
# 3 -10.0653 89.8961 136.4301 0.0000 0.0000 0.0000
# 4 0.0000 0.0000 0.0000 18.0767 0.0000 0.0000
# 5 0.0000 0.0000 0.0000 0.0000 4.2378 0.0000
# 6 0.0000 0.0000 0.0000 0.0000 0.0000 3.1595
#
#
#
# Elastic Compliance Matrix: (Units=1/GPa)
#
#
# Indices 1 2 3 4 5 6 
#
# 1 0.027024 -0.001833 0.003202 0.000000 0.000000 0.000000
# 2 -0.001833 0.007712 -0.005217 0.000000 0.000000 0.000000
# 3 0.003202 -0.005217 0.011003 0.000000 0.000000 0.000000
# 4 0.000000 0.000000 0.000000 0.055320 0.000000 0.000000
# 5 0.000000 0.000000 0.000000 0.000000 0.235971 0.000000
# 6 0.000000 0.000000 0.000000 0.000000 0.000000 0.316506
#
#
# Mechanical properties :
#
#
# Convention : Reuss Voigt Hill
#
# Bulk Modulus (GPa) = 26.28609 58.89882 42.59246
# Shear Modulus (GPa) = 7.41936 24.00650 15.71293
#
# Velocity S-wave (km/s) = 1.95186 3.51099 2.84049
# Velocity P-wave (km/s) = 4.31013 6.83226 5.71214
#
# Compressibility (1/GPa) = 0.03804294
#
# Stress axis : x y z
#
# Youngs Moduli (GPa) = 37.00403 129.67170 90.88183
#
# Poissons Ratio (x) = 0.23768 -0.29096
# Poissons Ratio (y) = 0.06783 0.47410
# Poissons Ratio (z) = -0.11847 0.67645
#
# Static dielectric constant tensor:
#      x y z
#    x 1.735260 0.000000 0.000000 
#    y 0.000000 1.709260 0.000000 
#    z 0.000000 0.000000 1.567470 
# 
# From -- ./inp_files/40641.got.cif
#   From: 2010.05.17/outbox.cif.g08.bks.cpg/sg63_21_cif.got.tgz:40641.got - 2010.06.03 15:47:04.
