data_PCOD9475927
_publ_section_title
;
Structure prediction by ZEFSAII (Michael W. Deem and Ramdas Pophale) SiO2 
 PCOD9475927
Probable space group: C M C M
;
_chemical_formula_sum "Si O2"
_cell_formula_units_Z 36
_cell_length_a 24.708726
_cell_length_b 7.775963
_cell_length_c 8.244573
_cell_angle_alpha 90.000000
_cell_angle_beta 90.000000
_cell_angle_gamma 90.000000
_cell_volume 1584.063936
_symmetry_space_group_name_H-M "C M C M"
_symmetry_group_IT_number 63
_symmetry_cell_setting 'orthorhombic'
loop_
_space_group_symop_operation_xyz
x,y,z
-x,-y,1/2+z
x,-y,-z
-x,y,1/2-z
-x,-y,-z
x,y,1/2-z
-x,y,z
x,-y,1/2+z
1/2+x,1/2+y,z
1/2-x,1/2-y,1/2+z
1/2+x,1/2-y,-z
1/2-x,1/2+y,1/2-z
1/2-x,1/2-y,-z
1/2+x,1/2+y,1/2-z
1/2-x,1/2+y,z
1/2+x,1/2-y,1/2+z
loop_
_atom_site_type_symbol
_atom_site_label
_atom_site_fract_x
_atom_site_fract_y
_atom_site_fract_z
Si Si1 0.922203 0.687800 0.941011
Si Si2 0.309439 0.305233 0.056515
Si Si3 0.500000 0.500000 0.000000
O O1 0.933139 0.705861 0.750000
O O2 0.953204 0.848552 0.020470
O O3 0.939796 0.500000 0.000000
O O4 0.858415 0.701921 0.976098
O O5 0.313363 0.289698 0.250000
O O6 0.317002 0.500000 0.000000
O O7 0.250000 0.250000 0.000000
#
# Coordination Sequence:
#
# PCOD9475927 Si02
#       3
#    16  16   4
#     4  12  27  48  76 111 152 200 254 311 376 447
#     4  12  25  45  73 107 149 195 249 309 377 447
#     4  12  28  48  78 108 156 200 258 306 380 442
#
# _framework density 22.726355999999999
#
# number of rings (size 3 to 8) (size 9 to 14) (size 15 to 20)
#    0.000    0.000    2.222    8.000    0.000    5.333 
#    0.000    0.000    0.000    0.000    0.000    0.000 
#    0.000    0.000    0.000    0.000    0.000    0.000 
#
# Total GULP energy -100326.656877 kJ/mol
# GULP energy per Si atom -5573.703160 kJ/mol
# Density = 2.267463 g / cm^3
# Si number density = 22.726356 Si / 1000 Ang^3
#
#
#
# Elastic Constant Matrix: (Units=GPa)
#
#
# Indices 1 2 3 4 5 6 
#
# 1 189.7246 50.8339 -4.4562 0.0000 0.0000 0.0000
# 2 50.8339 194.9083 -23.3018 0.0000 0.0000 0.0000
# 3 -4.4562 -23.3018 60.5780 0.0000 0.0000 0.0000
# 4 0.0000 0.0000 0.0000 22.9852 0.0000 0.0000
# 5 0.0000 0.0000 0.0000 0.0000 -774.7577 0.0000
# 6 0.0000 0.0000 0.0000 0.0000 0.0000 90.0243
#
#
#
# Elastic Compliance Matrix: (Units=1/GPa)
#
#
# Indices 1 2 3 4 5 6 
#
# 1 0.005668 -0.001497 -0.000159 0.000000 0.000000 0.000000
# 2 -0.001497 0.005773 0.002111 0.000000 0.000000 0.000000
# 3 -0.000159 0.002111 0.017308 0.000000 0.000000 0.000000
# 4 0.000000 0.000000 0.000000 0.043506 0.000000 0.000000
# 5 0.000000 0.000000 0.000000 0.000000 -0.001291 0.000000
# 6 0.000000 0.000000 0.000000 0.000000 0.000000 0.011108
#
#
# Mechanical properties :
#
#
# Convention : Reuss Voigt Hill
#
# Bulk Modulus (GPa) = 33.71749 54.59587 44.15668
# Shear Modulus (GPa) = 54.91453 -104.20730 -24.64638
#
# Velocity S-wave (km/s) = 4.92096 -6.77884 -3.29672
# Velocity P-wave (km/s) = 6.86704 6.09876 2.23175
#
# Compressibility (1/GPa) = 0.02965819
#
# Stress axis : x y z
#
# Youngs Moduli (GPa) = 176.42119 173.20594 57.77736
#
# Poissons Ratio (x) = 0.25935 0.00919
# Poissons Ratio (y) = 0.26416 -0.12195
# Poissons Ratio (z) = 0.02805 -0.36558
#
# Static dielectric constant tensor:
#      x y z
#    x 1.812860 0.000000 0.000000 
#    y 0.000000 1.803560 0.000000 
#    z 0.000000 0.000000 1.841090 
# 
# From -- ./inp_files/7007.got.cif
#   From: 2010.05.17/outbox.cif.g08.bks.cpg/sg63_4_cif.got.tgz:7007.got - 2010.06.03 15:47:04.
