data_PCOD9475148
_publ_section_title
;
Structure prediction by ZEFSAII (Michael W. Deem and Ramdas Pophale) SiO2 
 PCOD9475148
Probable space group: C M C M
;
_chemical_formula_sum "Si O2"
_cell_formula_units_Z 52
_cell_length_a 10.557336
_cell_length_b 13.245926
_cell_length_c 19.122165
_cell_angle_alpha 90.000000
_cell_angle_beta 90.000000
_cell_angle_gamma 90.000000
_cell_volume 2674.075897
_symmetry_space_group_name_H-M "C M C M"
_symmetry_group_IT_number 63
_symmetry_cell_setting 'orthorhombic'
loop_
_space_group_symop_operation_xyz
x,y,z
-x,-y,1/2+z
x,-y,-z
-x,y,1/2-z
-x,-y,-z
x,y,1/2-z
-x,y,z
x,-y,1/2+z
1/2+x,1/2+y,z
1/2-x,1/2-y,1/2+z
1/2+x,1/2-y,-z
1/2-x,1/2+y,1/2-z
1/2-x,1/2-y,-z
1/2+x,1/2+y,1/2-z
1/2-x,1/2+y,z
1/2+x,1/2-y,1/2+z
loop_
_atom_site_type_symbol
_atom_site_label
_atom_site_fract_x
_atom_site_fract_y
_atom_site_fract_z
Si Si1 0.500000 0.118225 0.518595
Si Si2 0.500000 0.285556 0.400244
Si Si3 0.725847 0.143202 0.625664
Si Si4 0.150327 0.211799 0.250000
Si Si5 0.769370 0.981974 0.250000
Si Si6 0.500000 0.678123 0.750000
O O1 0.500000 0.192117 0.452057
O O2 0.623528 0.142715 0.564893
O O3 0.500000 0.000000 0.500000
O O4 0.368668 0.349114 0.405171
O O5 0.500000 0.255035 0.318623
O O6 0.703132 0.235682 0.679759
O O7 0.703108 0.047086 0.677042
O O8 0.183333 0.094775 0.250000
O O9 0.000000 0.227002 0.250000
O O10 0.883861 0.900162 0.250000
#
# Coordination Sequence:
#
# PCOD9475148 Si02
#       6
#     8   8  16   8   8   4
#     4  12  26  42  60  91 137 171 210 263 325 380
#     4  10  22  44  65  86 125 173 208 263 318 376
#     4  10  23  43  62  96 128 165 214 264 315 385
#     4  11  20  38  71  95 127 163 208 271 317 369
#     4   9  19  35  67  94 120 156 215 261 315 368
#     4   8  16  38  62  90 114 150 220 264 298 382
#
# _framework density 19.445969999999999
#
# number of rings (size 3 to 8) (size 9 to 14) (size 15 to 20)
#    0.000    1.846    2.308    1.846    4.308    0.000 
#    0.000    0.769    0.000    0.000    0.000    0.000 
#    0.000    0.000    0.000    0.000    0.000    0.000 
#
# Total GULP energy -144965.480277 kJ/mol
# GULP energy per Si atom -5575.595395 kJ/mol
# Density = 1.940171 g / cm^3
# Si number density = 19.445970 Si / 1000 Ang^3
#
#
#
# Elastic Constant Matrix: (Units=GPa)
#
#
# Indices 1 2 3 4 5 6 
#
# 1 126.1319 46.1671 51.7623 0.0000 0.0000 0.0000
# 2 46.1671 93.7341 53.0392 0.0000 0.0000 0.0000
# 3 51.7623 53.0392 125.6146 0.0000 0.0000 0.0000
# 4 0.0000 0.0000 0.0000 12.0488 0.0000 0.0000
# 5 0.0000 0.0000 0.0000 0.0000 21.6671 0.0000
# 6 0.0000 0.0000 0.0000 0.0000 0.0000 20.1620
#
#
#
# Elastic Compliance Matrix: (Units=1/GPa)
#
#
# Indices 1 2 3 4 5 6 
#
# 1 0.010361 -0.003531 -0.002779 0.000000 0.000000 0.000000
# 2 -0.003531 0.015221 -0.004972 0.000000 0.000000 0.000000
# 3 -0.002779 -0.004972 0.011205 0.000000 0.000000 0.000000
# 4 0.000000 0.000000 0.000000 0.082996 0.000000 0.000000
# 5 0.000000 0.000000 0.000000 0.000000 0.046153 0.000000
# 6 0.000000 0.000000 0.000000 0.000000 0.000000 0.049598
#
#
# Mechanical properties :
#
#
# Convention : Reuss Voigt Hill
#
# Bulk Modulus (GPa) = 70.30208 71.93530 71.11869
# Shear Modulus (GPa) = 20.58987 23.74304 22.16646
#
# Velocity S-wave (km/s) = 3.25749 3.49804 3.37990
# Velocity P-wave (km/s) = 7.09784 7.30669 7.20302
#
# Compressibility (1/GPa) = 0.01422433
#
# Stress axis : x y z
#
# Youngs Moduli (GPa) = 96.51720 65.69945 89.24475
#
# Poissons Ratio (x) = 0.23197 0.24797
# Poissons Ratio (y) = 0.34078 0.44371
# Poissons Ratio (z) = 0.26818 0.32665
#
# Static dielectric constant tensor:
#      x y z
#    x 1.749260 0.000000 0.000000 
#    y 0.000000 1.639100 0.000000 
#    z 0.000000 0.000000 1.693820 
# 
# From -- ./inp_files/41340.got.cif
#   From: 2010.05.17/outbox.cif.g08.bks.cpg/sg63_21_cif.got.tgz:41340.got - 2010.06.03 15:47:04.
