data_PCOD9475070
_publ_section_title
;
Structure prediction by ZEFSAII (Michael W. Deem and Ramdas Pophale) SiO2 
 PCOD9475070
Probable space group: C M C M
;
_chemical_formula_sum "Si O2"
_cell_formula_units_Z 68
_cell_length_a 7.815462
_cell_length_b 20.657519
_cell_length_c 21.453482
_cell_angle_alpha 90.000000
_cell_angle_beta 90.000000
_cell_angle_gamma 90.000000
_cell_volume 3463.622937
_symmetry_space_group_name_H-M "C M C M"
_symmetry_group_IT_number 63
_symmetry_cell_setting 'orthorhombic'
loop_
_space_group_symop_operation_xyz
x,y,z
-x,-y,1/2+z
x,-y,-z
-x,y,1/2-z
-x,-y,-z
x,y,1/2-z
-x,y,z
x,-y,1/2+z
1/2+x,1/2+y,z
1/2-x,1/2-y,1/2+z
1/2+x,1/2-y,-z
1/2-x,1/2+y,1/2-z
1/2-x,1/2-y,-z
1/2+x,1/2+y,1/2-z
1/2-x,1/2+y,z
1/2+x,1/2-y,1/2+z
loop_
_atom_site_type_symbol
_atom_site_label
_atom_site_fract_x
_atom_site_fract_y
_atom_site_fract_z
Si Si1 0.200525 0.761346 0.681781
Si Si2 0.204115 0.802406 0.053285
Si Si3 0.000000 0.057421 0.250000
Si Si4 0.690316 0.094499 0.160318
Si Si5 0.207692 0.072231 0.480780
O O1 0.241214 0.731989 0.750000
O O2 0.229758 0.718166 0.621094
O O3 0.298366 0.828987 0.675525
O O4 0.000000 0.779354 0.682524
O O5 0.000000 0.803680 0.057821
O O6 0.250000 0.750000 0.000000
O O7 0.263874 0.872428 0.029272
O O8 0.152918 0.061486 0.303657
O O9 0.500000 0.070675 0.176402
O O10 0.719430 0.088047 0.086772
O O11 0.000000 0.075157 0.477289
O O12 0.256870 0.000000 0.500000
#
# Coordination Sequence:
#
# PCOD9475070 Si02
#       5
#    16  16   4  16  16
#     4  11  21  37  58  87 128 165 202 257 322 380
#     4  11  22  35  60  93 122 157 209 263 316 377
#     4  12  22  40  58  94 132 164 206 272 314 390
#     4  12  22  36  63  94 124 165 212 263 317 379
#     4  10  22  42  64  88 126 173 216 266 322 374
#
# _framework density 19.632622000000001
#
# number of rings (size 3 to 8) (size 9 to 14) (size 15 to 20)
#    0.000    0.941    5.882    1.765    0.000    2.824 
#    0.000    0.000    2.588    0.000    0.000    0.000 
#    0.000    0.000    0.000    0.000    0.000    0.000 
#
# Total GULP energy -189405.945759 kJ/mol
# GULP energy per Si atom -5570.763111 kJ/mol
# Density = 1.958794 g / cm^3
# Si number density = 19.632622 Si / 1000 Ang^3
#
#
#
# Elastic Constant Matrix: (Units=GPa)
#
#
# Indices 1 2 3 4 5 6 
#
# 1 112.6224 12.0530 33.6200 0.0000 0.0000 0.0000
# 2 12.0530 84.9456 50.0397 0.0000 0.0000 0.0000
# 3 33.6200 50.0397 186.0956 0.0000 0.0000 0.0000
# 4 0.0000 0.0000 0.0000 16.8357 0.0000 0.0000
# 5 0.0000 0.0000 0.0000 0.0000 24.5372 0.0000
# 6 0.0000 0.0000 0.0000 0.0000 0.0000 10.6568
#
#
#
# Elastic Compliance Matrix: (Units=1/GPa)
#
#
# Indices 1 2 3 4 5 6 
#
# 1 0.009397 -0.000396 -0.001591 0.000000 0.000000 0.000000
# 2 -0.000396 0.014005 -0.003694 0.000000 0.000000 0.000000
# 3 -0.001591 -0.003694 0.006654 0.000000 0.000000 0.000000
# 4 0.000000 0.000000 0.000000 0.059397 0.000000 0.000000
# 5 0.000000 0.000000 0.000000 0.000000 0.040754 0.000000
# 6 0.000000 0.000000 0.000000 0.000000 0.000000 0.093836
#
#
# Mechanical properties :
#
#
# Convention : Reuss Voigt Hill
#
# Bulk Modulus (GPa) = 53.49606 63.89877 58.69741
# Shear Modulus (GPa) = 20.69215 29.60268 25.14742
#
# Velocity S-wave (km/s) = 3.25001 3.88729 3.58285
# Velocity P-wave (km/s) = 6.43359 7.26402 6.86138
#
# Compressibility (1/GPa) = 0.01869296
#
# Stress axis : x y z
#
# Youngs Moduli (GPa) = 106.42162 71.40514 150.27721
#
# Poissons Ratio (x) = 0.02828 0.23911
# Poissons Ratio (y) = 0.04214 0.55515
# Poissons Ratio (z) = 0.16933 0.26378
#
# Static dielectric constant tensor:
#      x y z
#    x 1.714450 0.000000 0.000000 
#    y 0.000000 1.750480 0.000000 
#    z 0.000000 0.000000 1.654230 
# 
# From -- ./inp_files/50497.got.cif
#   From: 2010.05.17/outbox.cif.g08.bks.cpg/sg63_26_cif.got.tgz:50497.got - 2010.06.03 15:47:04.
