data_PCOD9475809
_publ_section_title
;
Structure prediction by ZEFSAII (Michael W. Deem and Ramdas Pophale) SiO2 
 PCOD9475809
Probable space group: C M C M
;
_chemical_formula_sum "Si O2"
_cell_formula_units_Z 96
_cell_length_a 11.925886
_cell_length_b 25.772073
_cell_length_c 17.821138
_cell_angle_alpha 90.000000
_cell_angle_beta 90.000000
_cell_angle_gamma 90.000000
_cell_volume 5477.412387
_symmetry_space_group_name_H-M "C M C M"
_symmetry_group_IT_number 63
_symmetry_cell_setting 'orthorhombic'
loop_
_space_group_symop_operation_xyz
x,y,z
-x,-y,1/2+z
x,-y,-z
-x,y,1/2-z
-x,-y,-z
x,y,1/2-z
-x,y,z
x,-y,1/2+z
1/2+x,1/2+y,z
1/2-x,1/2-y,1/2+z
1/2+x,1/2-y,-z
1/2-x,1/2+y,1/2-z
1/2-x,1/2-y,-z
1/2+x,1/2+y,1/2-z
1/2-x,1/2+y,z
1/2+x,1/2-y,1/2+z
loop_
_atom_site_type_symbol
_atom_site_label
_atom_site_fract_x
_atom_site_fract_y
_atom_site_fract_z
Si Si1 0.631983 0.502794 0.339349
Si Si2 0.000000 0.478408 0.085496
Si Si3 0.500000 0.912887 0.661231
Si Si4 0.865636 0.197943 0.162126
Si Si5 0.631159 0.816666 0.340307
Si Si6 0.727606 0.914804 0.084095
Si Si7 0.759602 0.397830 0.592959
O O1 0.647311 0.497421 0.250000
O O2 0.500000 0.510631 0.354600
O O3 0.677707 0.451386 0.380235
O O4 0.701780 0.552614 0.367345
O O5 0.000000 0.525849 0.143029
O O6 0.889072 0.445086 0.096436
O O7 0.000000 0.500000 0.000000
O O8 0.500000 0.903066 0.750000
O O9 0.386814 0.892616 0.622412
O O10 0.835750 0.190684 0.250000
O O11 0.838396 0.257260 0.140592
O O12 0.806120 0.154102 0.114306
O O13 0.000000 0.192598 0.156750
O O14 0.635711 0.821262 0.250000
O O15 0.500000 0.825020 0.362135
O O16 0.710492 0.859083 0.377629
O O17 0.743032 0.908180 0.995481
#
# Coordination Sequence:
#
# PCOD9475809 Si02
#       7
#    16   8   8  16  16  16  16
#     4  11  24  40  58  83 114 151 193 234 280 342
#     4  12  20  38  54  84 120 154 180 231 291 330
#     4  12  24  36  56  86 116 154 198 229 279 349
#     4   9  19  38  61  84 110 144 193 243 281 328
#     4   9  19  36  61  87 109 145 193 238 282 334
#     4  12  22  36  60  84 120 150 186 234 290 343
#     4  12  23  36  58  85 117 153 184 239 289 339
#
# _framework density 17.526523999999998
#
# number of rings (size 3 to 8) (size 9 to 14) (size 15 to 20)
#    0.000    1.167    4.167    4.000    0.000    4.667 
#    0.000    0.000    1.833    0.000    0.000    0.000 
#    0.000    0.000    0.000    0.000    0.000    0.000 
#
# Total GULP energy -268175.257920 kJ/mol
# GULP energy per Si atom -5586.984540 kJ/mol
# Density = 1.748663 g / cm^3
# Si number density = 17.526524 Si / 1000 Ang^3
#
#
#
# Elastic Constant Matrix: (Units=GPa)
#
#
# Indices 1 2 3 4 5 6 
#
# 1 73.6200 38.1769 33.4579 0.0000 0.0000 0.0000
# 2 38.1769 95.7581 34.5656 0.0000 0.0000 0.0000
# 3 33.4579 34.5656 73.6642 0.0000 0.0000 0.0000
# 4 0.0000 0.0000 0.0000 29.4610 0.0000 0.0000
# 5 0.0000 0.0000 0.0000 0.0000 18.1193 0.0000
# 6 0.0000 0.0000 0.0000 0.0000 0.0000 31.0771
#
#
#
# Elastic Compliance Matrix: (Units=1/GPa)
#
#
# Indices 1 2 3 4 5 6 
#
# 1 0.019204 -0.005427 -0.006176 0.000000 0.000000 0.000000
# 2 -0.005427 0.014106 -0.004154 0.000000 0.000000 0.000000
# 3 -0.006176 -0.004154 0.018329 0.000000 0.000000 0.000000
# 4 0.000000 0.000000 0.000000 0.033943 0.000000 0.000000
# 5 0.000000 0.000000 0.000000 0.000000 0.055190 0.000000
# 6 0.000000 0.000000 0.000000 0.000000 0.000000 0.032178
#
#
# Mechanical properties :
#
#
# Convention : Reuss Voigt Hill
#
# Bulk Modulus (GPa) = 49.68781 50.60478 50.14630
# Shear Modulus (GPa) = 23.67721 24.85430 24.26576
#
# Velocity S-wave (km/s) = 3.67950 3.76985 3.72495
# Velocity P-wave (km/s) = 6.81639 6.91989 6.86834
#
# Compressibility (1/GPa) = 0.02012566
#
# Stress axis : x y z
#
# Youngs Moduli (GPa) = 52.07165 70.89109 54.55703
#
# Poissons Ratio (x) = 0.38473 0.33694
# Poissons Ratio (y) = 0.28260 0.22664
# Poissons Ratio (z) = 0.32159 0.29449
#
# Static dielectric constant tensor:
#      x y z
#    x 1.589870 0.000000 0.000000 
#    y 0.000000 1.586570 0.000000 
#    z 0.000000 0.000000 1.575940 
# 
# From -- ./inp_files/42568.got.cif
#   From: 2010.05.17/outbox.cif.g08.bks.cpg/sg63_22_cif.got.tgz:42568.got - 2010.06.03 15:47:04.
