data_PCOD9475431
_publ_section_title
;
Structure prediction by ZEFSAII (Michael W. Deem and Ramdas Pophale) SiO2 
 PCOD9475431
Probable space group: C M C M
;
_chemical_formula_sum "Si O2"
_cell_formula_units_Z 80
_cell_length_a 8.210569
_cell_length_b 13.979087
_cell_length_c 29.779762
_cell_angle_alpha 90.000000
_cell_angle_beta 90.000000
_cell_angle_gamma 90.000000
_cell_volume 3418.009658
_symmetry_space_group_name_H-M "C M C M"
_symmetry_group_IT_number 63
_symmetry_cell_setting 'orthorhombic'
loop_
_space_group_symop_operation_xyz
x,y,z
-x,-y,1/2+z
x,-y,-z
-x,y,1/2-z
-x,-y,-z
x,y,1/2-z
-x,y,z
x,-y,1/2+z
1/2+x,1/2+y,z
1/2-x,1/2-y,1/2+z
1/2+x,1/2-y,-z
1/2-x,1/2+y,1/2-z
1/2-x,1/2-y,-z
1/2+x,1/2+y,1/2-z
1/2-x,1/2+y,z
1/2+x,1/2-y,1/2+z
loop_
_atom_site_type_symbol
_atom_site_label
_atom_site_fract_x
_atom_site_fract_y
_atom_site_fract_z
Si Si1 0.000000 0.498196 0.698439
Si Si2 0.681651 0.239644 0.050092
Si Si3 0.820733 0.236783 0.356117
Si Si4 0.179767 0.997273 0.645140
Si Si5 0.000000 0.263830 0.801634
Si Si6 0.313158 0.456739 0.951050
O O1 0.164931 0.528317 0.673291
O O2 0.000000 0.529291 0.750000
O O3 0.000000 0.380974 0.698061
O O4 0.500000 0.280075 0.053034
O O5 0.791132 0.268617 0.092412
O O6 0.681645 0.125118 0.055487
O O7 0.750000 0.250000 0.000000
O O8 0.821047 0.119830 0.354779
O O9 0.664153 0.266347 0.327343
O O10 0.000000 0.266773 0.340349
O O11 0.196457 0.023232 0.592500
O O12 0.000000 0.026893 0.661391
O O13 0.000000 0.232774 0.750000
O O14 0.500000 0.417035 0.950123
O O15 0.291563 0.500000 0.000000
#
# Coordination Sequence:
#
# PCOD9475431 Si02
#       6
#     8  16  16  16   8  16
#     4   9  16  24  37  57  83 115 152 189 223 273
#     4  11  20  31  47  69  96 131 167 198 240 290
#     4   9  16  28  42  60  88 121 155 190 234 283
#     4   8  15  26  40  58  84 118 149 181 230 276
#     4   9  16  26  40  61  87 119 154 191 235 283
#     4   9  18  32  48  68  95 128 160 195 237 285
#
# _framework density 23.405434
#
# number of rings (size 3 to 8) (size 9 to 14) (size 15 to 20)
#    0.000    2.800    1.000    3.000    4.200    1.200 
#    0.000    4.000    0.000    0.000    0.000    0.000 
#    0.000    1.600    0.800    0.000    0.000    0.000 
#
# Total GULP energy -223388.229803 kJ/mol
# GULP energy per Si atom -5584.705745 kJ/mol
# Density = 2.335216 g / cm^3
# Si number density = 23.405434 Si / 1000 Ang^3
#
#
#
# Elastic Constant Matrix: (Units=GPa)
#
#
# Indices 1 2 3 4 5 6 
#
# 1 216.9241 25.7682 120.5255 0.0000 0.0000 0.0000
# 2 25.7682 62.7620 -6.6073 0.0000 0.0000 0.0000
# 3 120.5255 -6.6073 176.5165 0.0000 0.0000 0.0000
# 4 0.0000 0.0000 0.0000 9.7775 0.0000 0.0000
# 5 0.0000 0.0000 0.0000 0.0000 27.0246 0.0000
# 6 0.0000 0.0000 0.0000 0.0000 0.0000 24.5879
#
#
#
# Elastic Compliance Matrix: (Units=1/GPa)
#
#
# Indices 1 2 3 4 5 6 
#
# 1 0.008336 -0.004038 -0.005843 0.000000 0.000000 0.000000
# 2 -0.004038 0.017952 0.003429 0.000000 0.000000 0.000000
# 3 -0.005843 0.003429 0.009783 0.000000 0.000000 0.000000
# 4 0.000000 0.000000 0.000000 0.102276 0.000000 0.000000
# 5 0.000000 0.000000 0.000000 0.000000 0.037003 0.000000
# 6 0.000000 0.000000 0.000000 0.000000 0.000000 0.040670
#
#
# Mechanical properties :
#
#
# Convention : Reuss Voigt Hill
#
# Bulk Modulus (GPa) = 43.16380 81.73061 62.44721
# Shear Modulus (GPa) = 21.12861 33.37908 27.25384
#
# Velocity S-wave (km/s) = 3.00779 3.78050 3.41607
# Velocity P-wave (km/s) = 5.52669 7.35198 6.50369
#
# Compressibility (1/GPa) = 0.02316756
#
# Stress axis : x y z
#
# Youngs Moduli (GPa) = 119.96298 55.70448 102.21746
#
# Poissons Ratio (x) = 0.22491 0.59725
# Poissons Ratio (y) = 0.48436 -0.35049
# Poissons Ratio (z) = 0.70093 -0.19100
#
# Static dielectric constant tensor:
#      x y z
#    x 1.837270 0.000000 0.000000 
#    y 0.000000 2.119600 0.000000 
#    z 0.000000 0.000000 1.863260 
# 
# From -- ./inp_files/59798.got.cif
#   From: 2010.05.17/outbox.cif.g08.bks.cpg/sg63_30_cif.got.tgz:59798.got - 2010.06.03 15:47:04.
