data_PCOD9475849
_publ_section_title
;
Structure prediction by ZEFSAII (Michael W. Deem and Ramdas Pophale) SiO2 
 PCOD9475849
Probable space group: C M C M
;
_chemical_formula_sum "Si O2"
_cell_formula_units_Z 68
_cell_length_a 7.212956
_cell_length_b 24.566210
_cell_length_c 14.920227
_cell_angle_alpha 90.000000
_cell_angle_beta 90.000000
_cell_angle_gamma 90.000000
_cell_volume 2643.789501
_symmetry_space_group_name_H-M "C M C M"
_symmetry_group_IT_number 63
_symmetry_cell_setting 'orthorhombic'
loop_
_space_group_symop_operation_xyz
x,y,z
-x,-y,1/2+z
x,-y,-z
-x,y,1/2-z
-x,-y,-z
x,y,1/2-z
-x,y,z
x,-y,1/2+z
1/2+x,1/2+y,z
1/2-x,1/2-y,1/2+z
1/2+x,1/2-y,-z
1/2-x,1/2+y,1/2-z
1/2-x,1/2-y,-z
1/2+x,1/2+y,1/2-z
1/2-x,1/2+y,z
1/2+x,1/2-y,1/2+z
loop_
_atom_site_type_symbol
_atom_site_label
_atom_site_fract_x
_atom_site_fract_y
_atom_site_fract_z
Si Si1 0.726198 0.105269 0.850388
Si Si2 0.274459 0.125512 0.456109
Si Si3 0.283182 0.238596 0.104900
Si Si4 0.500000 0.222499 0.750000
Si Si5 0.275585 0.021116 0.351044
O O1 0.788783 0.120052 0.750000
O O2 0.500000 0.108833 0.846337
O O3 0.776269 0.041563 0.864733
O O4 0.788671 0.133924 0.941456
O O5 0.500000 0.125275 0.459366
O O6 0.225600 0.174610 0.390054
O O7 0.213478 0.067025 0.419642
O O8 0.500000 0.243706 0.125089
O O9 0.159413 0.272860 0.171377
O O10 0.250000 0.250000 0.000000
O O11 0.222496 0.036545 0.250000
O O12 0.500000 0.020943 0.355185
#
# Coordination Sequence:
#
# PCOD9475849 Si02
#       5
#    16  16  16   4  16
#     4   8  13  23  39  70 116 166 211 263 319 378
#     4   9  17  28  49  80 122 165 207 269 325 391
#     4  11  24  46  70 104 139 176 225 281 344 414
#     4  12  26  48  80  96 138 184 220 288 350 402
#     4   8  13  21  38  68 113 161 207 261 319 378
#
# _framework density 25.720654
#
# number of rings (size 3 to 8) (size 9 to 14) (size 15 to 20)
#    0.000    2.824    1.176    2.471    1.647    2.824 
#    2.118    0.000    0.000    0.000    0.000    3.294 
#    0.000    0.000    0.000    0.000    0.000    0.000 
#
# Total GULP energy -189802.673234 kJ/mol
# GULP energy per Si atom -5582.431566 kJ/mol
# Density = 2.566211 g / cm^3
# Si number density = 25.720654 Si / 1000 Ang^3
#
#
#
# Elastic Constant Matrix: (Units=GPa)
#
#
# Indices 1 2 3 4 5 6 
#
# 1 159.6902 12.1068 25.9965 0.0000 0.0000 0.0000
# 2 12.1068 107.5511 43.3602 0.0000 0.0000 0.0000
# 3 25.9965 43.3602 152.0803 0.0000 0.0000 0.0000
# 4 0.0000 0.0000 0.0000 23.0653 0.0000 0.0000
# 5 0.0000 0.0000 0.0000 0.0000 180.7147 0.0000
# 6 0.0000 0.0000 0.0000 0.0000 0.0000 -15.1027
#
#
#
# Elastic Compliance Matrix: (Units=1/GPa)
#
#
# Indices 1 2 3 4 5 6 
#
# 1 0.006451 -0.000318 -0.001012 0.000000 0.000000 0.000000
# 2 -0.000318 0.010521 -0.002945 0.000000 0.000000 0.000000
# 3 -0.001012 -0.002945 0.007588 0.000000 0.000000 0.000000
# 4 0.000000 0.000000 0.000000 0.043355 0.000000 0.000000
# 5 0.000000 0.000000 0.000000 0.000000 0.005534 0.000000
# 6 0.000000 0.000000 0.000000 0.000000 0.000000 -0.066213
#
#
# Mechanical properties :
#
#
# Convention : Reuss Voigt Hill
#
# Bulk Modulus (GPa) = 62.46357 64.69427 63.57892
# Shear Modulus (GPa) = 236.70497 60.25934 148.48215
#
# Velocity S-wave (km/s) = 9.60359 4.84554 7.60619
# Velocity P-wave (km/s) = 12.13713 7.51751 10.09512
#
# Compressibility (1/GPa) = 0.01600933
#
# Stress axis : x y z
#
# Youngs Moduli (GPa) = 155.01480 95.04653 131.78315
#
# Poissons Ratio (x) = 0.03024 0.13337
# Poissons Ratio (y) = 0.04932 0.38815
# Poissons Ratio (z) = 0.15688 0.27994
#
# Static dielectric constant tensor:
#      x y z
#    x 2.026770 0.000000 0.000000 
#    y 0.000000 2.089950 0.000000 
#    z 0.000000 0.000000 1.946020 
# 
# From -- ./inp_files/27774.got.cif
#   From: 2010.05.17/outbox.cif.g08.bks.cpg/sg63_14_cif.got.tgz:27774.got - 2010.06.03 15:47:04.
