data_PCOD9475602
_publ_section_title
;
Structure prediction by ZEFSAII (Michael W. Deem and Ramdas Pophale) SiO2 
 PCOD9475602
Probable space group: C M C M
;
_chemical_formula_sum "Si O2"
_cell_formula_units_Z 68
_cell_length_a 10.005303
_cell_length_b 16.648368
_cell_length_c 19.621298
_cell_angle_alpha 90.000000
_cell_angle_beta 90.000000
_cell_angle_gamma 90.000000
_cell_volume 3268.358189
_symmetry_space_group_name_H-M "C M C M"
_symmetry_group_IT_number 63
_symmetry_cell_setting 'orthorhombic'
loop_
_space_group_symop_operation_xyz
x,y,z
-x,-y,1/2+z
x,-y,-z
-x,y,1/2-z
-x,-y,-z
x,y,1/2-z
-x,y,z
x,-y,1/2+z
1/2+x,1/2+y,z
1/2-x,1/2-y,1/2+z
1/2+x,1/2-y,-z
1/2-x,1/2+y,1/2-z
1/2-x,1/2-y,-z
1/2+x,1/2+y,1/2-z
1/2-x,1/2+y,z
1/2+x,1/2-y,1/2+z
loop_
_atom_site_type_symbol
_atom_site_label
_atom_site_fract_x
_atom_site_fract_y
_atom_site_fract_z
Si Si1 0.348493 0.107721 0.750000
Si Si2 0.703356 0.947322 0.102716
Si Si3 0.000000 0.632682 0.250000
Si Si4 0.000000 0.825188 0.864291
Si Si5 0.500000 0.823793 0.462085
Si Si6 0.000000 0.993320 0.419626
Si Si7 0.500000 0.082467 0.407027
Si Si8 0.216044 0.782683 0.750000
O O1 0.500000 0.139480 0.750000
O O2 0.328082 0.057785 0.682613
O O3 0.261839 0.187345 0.750000
O O4 0.628139 0.872204 0.068051
O O5 0.861695 0.949473 0.097209
O O6 0.630003 0.027748 0.076126
O O7 0.000000 0.594201 0.174109
O O8 0.140509 0.678135 0.250000
O O9 0.128199 0.806899 0.816224
O O10 0.000000 0.764616 0.929045
O O11 0.000000 0.917976 0.886250
O O12 0.500000 0.840086 0.543446
O O13 0.000000 0.000000 0.500000
#
# Coordination Sequence:
#
# PCOD9475602 Si02
#       8
#     8  16   4   8   8   8   8   8
#     4  12  19  43  73  96 127 174 230 285 332 399
#     4  11  22  41  70  98 132 173 221 280 337 396
#     4  12  26  40  56 100 132 160 214 294 326 378
#     4  11  23  47  72  93 129 189 222 260 341 417
#     4  11  21  44  74  93 123 183 237 263 314 415
#     4  12  27  45  60 101 150 175 217 289 346 399
#     4  11  22  41  67  97 123 170 234 272 325 392
#     4  11  22  43  69  94 132 168 224 277 332 409
#
# _framework density 20.805553
#
# number of rings (size 3 to 8) (size 9 to 14) (size 15 to 20)
#    0.000    0.706    5.882    4.941    0.000    3.294 
#    4.235    3.529    0.000    0.000    0.000    0.000 
#    0.000    0.000    0.000    0.000    0.000    0.000 
#
# Total GULP energy -189959.416472 kJ/mol
# GULP energy per Si atom -5587.041661 kJ/mol
# Density = 2.075820 g / cm^3
# Si number density = 20.805553 Si / 1000 Ang^3
#
#
#
# Elastic Constant Matrix: (Units=GPa)
#
#
# Indices 1 2 3 4 5 6 
#
# 1 158.0664 38.9112 11.7386 0.0000 0.0000 0.0000
# 2 38.9112 53.0368 12.1688 0.0000 0.0000 0.0000
# 3 11.7386 12.1688 120.2762 0.0000 0.0000 0.0000
# 4 0.0000 0.0000 0.0000 39.9748 0.0000 0.0000
# 5 0.0000 0.0000 0.0000 0.0000 11.3424 0.0000
# 6 0.0000 0.0000 0.0000 0.0000 0.0000 16.2522
#
#
#
# Elastic Compliance Matrix: (Units=1/GPa)
#
#
# Indices 1 2 3 4 5 6 
#
# 1 0.007725 -0.005625 -0.000185 0.000000 0.000000 0.000000
# 2 -0.005625 0.023399 -0.001818 0.000000 0.000000 0.000000
# 3 -0.000185 -0.001818 0.008516 0.000000 0.000000 0.000000
# 4 0.000000 0.000000 0.000000 0.025016 0.000000 0.000000
# 5 0.000000 0.000000 0.000000 0.000000 0.088165 0.000000
# 6 0.000000 0.000000 0.000000 0.000000 0.000000 0.061530
#
#
# Mechanical properties :
#
#
# Convention : Reuss Voigt Hill
#
# Bulk Modulus (GPa) = 41.01131 50.77966 45.89548
# Shear Modulus (GPa) = 21.03177 31.41792 26.22485
#
# Velocity S-wave (km/s) = 3.18287 3.89018 3.55417
# Velocity P-wave (km/s) = 5.76733 6.68115 6.24099
#
# Compressibility (1/GPa) = 0.02438352
#
# Stress axis : x y z
#
# Youngs Moduli (GPa) = 129.45141 42.73695 117.42321
#
# Poissons Ratio (x) = 0.24040 0.02170
# Poissons Ratio (y) = 0.72818 0.21352
# Poissons Ratio (z) = 0.02392 0.07771
#
# Static dielectric constant tensor:
#      x y z
#    x 1.620830 0.000000 0.000000 
#    y 0.000000 1.792840 0.000000 
#    z 0.000000 0.000000 1.736780 
# 
# From -- ./inp_files/41984.got.cif
#   From: 2010.05.17/outbox.cif.g08.bks.cpg/sg63_21_cif.got.tgz:41984.got - 2010.06.03 15:47:04.
