data_PCOD9475510
_publ_section_title
;
Structure prediction by ZEFSAII (Michael W. Deem and Ramdas Pophale) SiO2 
 PCOD9475510
Probable space group: C M C M
;
_chemical_formula_sum "Si O2"
_cell_formula_units_Z 104
_cell_length_a 27.983872
_cell_length_b 22.843490
_cell_length_c 8.647291
_cell_angle_alpha 90.000000
_cell_angle_beta 90.000000
_cell_angle_gamma 90.000000
_cell_volume 5527.774720
_symmetry_space_group_name_H-M "C M C M"
_symmetry_group_IT_number 63
_symmetry_cell_setting 'orthorhombic'
loop_
_space_group_symop_operation_xyz
x,y,z
-x,-y,1/2+z
x,-y,-z
-x,y,1/2-z
-x,-y,-z
x,y,1/2-z
-x,y,z
x,-y,1/2+z
1/2+x,1/2+y,z
1/2-x,1/2-y,1/2+z
1/2+x,1/2-y,-z
1/2-x,1/2+y,1/2-z
1/2-x,1/2-y,-z
1/2+x,1/2+y,1/2-z
1/2-x,1/2+y,z
1/2+x,1/2-y,1/2+z
loop_
_atom_site_type_symbol
_atom_site_label
_atom_site_fract_x
_atom_site_fract_y
_atom_site_fract_z
Si Si1 0.000000 0.064926 0.934407
Si Si2 0.135009 0.342210 0.431687
Si Si3 0.944528 0.740732 0.561545
Si Si4 0.689458 0.392723 0.425228
Si Si5 0.198483 0.753852 0.074103
Si Si6 0.209302 0.435050 0.565742
Si Si7 0.091428 0.868527 0.935176
O O1 0.000000 0.064714 0.750000
O O2 0.046425 0.097697 0.997488
O O3 0.000000 0.000000 0.000000
O O4 0.132569 0.356035 0.250000
O O5 0.083166 0.318694 0.487512
O O6 0.165574 0.283632 0.462002
O O7 0.165722 0.392987 0.512708
O O8 0.943873 0.740488 0.750000
O O9 0.917015 0.800449 0.512688
O O10 0.000000 0.743023 0.512744
O O11 0.688202 0.416296 0.250000
O O12 0.688794 0.322335 0.418238
O O13 0.739125 0.412472 0.502700
O O14 0.639596 0.402041 0.512796
O O15 0.196254 0.729944 0.250000
O O16 0.250000 0.750000 0.000000
O O17 0.201785 0.500000 0.500000
O O18 0.211351 0.436079 0.750000
O O19 0.090442 0.867694 0.750000
#
# Coordination Sequence:
#
# PCOD9475510 Si02
#       7
#     8  16  16  16  16  16  16
#     4  12  26  44  62  84 114 160 213 262 307 358
#     4  11  21  36  61  91 123 159 201 246 304 370
#     4   9  18  34  60  93 125 157 195 244 305 365
#     4  11  23  38  58  89 126 160 201 248 300 356
#     4  11  21  32  53  84 121 156 195 239 290 349
#     4  12  26  44  64  86 119 161 207 253 305 367
#     4  11  21  38  63  91 123 162 206 254 307 360
#
# _framework density 18.814081000000002
#
# number of rings (size 3 to 8) (size 9 to 14) (size 15 to 20)
#    0.000    1.077    3.846    3.923    0.000    1.846 
#    0.000    3.077    0.000    0.462    0.000    0.000 
#    0.000    0.000    0.000    0.000    0.000    0.000 
#
# Total GULP energy -290108.189236 kJ/mol
# GULP energy per Si atom -5579.003639 kJ/mol
# Density = 1.877126 g / cm^3
# Si number density = 18.814081 Si / 1000 Ang^3
#
#
#
# Elastic Constant Matrix: (Units=GPa)
#
#
# Indices 1 2 3 4 5 6 
#
# 1 118.4033 52.3905 35.0089 0.0000 0.0000 0.0000
# 2 52.3905 107.9493 32.9869 0.0000 0.0000 0.0000
# 3 35.0089 32.9869 93.0127 0.0000 0.0000 0.0000
# 4 0.0000 0.0000 0.0000 26.6366 0.0000 0.0000
# 5 0.0000 0.0000 0.0000 0.0000 11.1227 0.0000
# 6 0.0000 0.0000 0.0000 0.0000 0.0000 13.5767
#
#
#
# Elastic Compliance Matrix: (Units=1/GPa)
#
#
# Indices 1 2 3 4 5 6 
#
# 1 0.011284 -0.004686 -0.002585 0.000000 0.000000 0.000000
# 2 -0.004686 0.012336 -0.002611 0.000000 0.000000 0.000000
# 3 -0.002585 -0.002611 0.012650 0.000000 0.000000 0.000000
# 4 0.000000 0.000000 0.000000 0.037542 0.000000 0.000000
# 5 0.000000 0.000000 0.000000 0.000000 0.089906 0.000000
# 6 0.000000 0.000000 0.000000 0.000000 0.000000 0.073656
#
#
# Mechanical properties :
#
#
# Convention : Reuss Voigt Hill
#
# Bulk Modulus (GPa) = 60.58789 62.23754 61.41272
# Shear Modulus (GPa) = 19.03746 23.53247 21.28497
#
# Velocity S-wave (km/s) = 3.18445 3.54049 3.36718
# Velocity P-wave (km/s) = 6.76715 7.06155 6.91592
#
# Compressibility (1/GPa) = 0.01650495
#
# Stress axis : x y z
#
# Youngs Moduli (GPa) = 88.62409 81.06446 79.05011
#
# Poissons Ratio (x) = 0.37989 0.20435
# Poissons Ratio (y) = 0.41532 0.20640
# Poissons Ratio (z) = 0.22910 0.21166
#
# Static dielectric constant tensor:
#      x y z
#    x 1.668170 0.000000 0.000000 
#    y 0.000000 1.648760 0.000000 
#    z 0.000000 0.000000 1.664220 
# 
# From -- ./inp_files/12594.got.cif
#   From: 2010.05.17/outbox.cif.g08.bks.cpg/sg63_7_cif.got.tgz:12594.got - 2010.06.03 15:47:04.
