data_PCOD9475320
_publ_section_title
;
Structure prediction by ZEFSAII (Michael W. Deem and Ramdas Pophale) SiO2 
 PCOD9475320
Probable space group: C M C M
;
_chemical_formula_sum "Si O2"
_cell_formula_units_Z 96
_cell_length_a 9.016989
_cell_length_b 20.881563
_cell_length_c 28.594867
_cell_angle_alpha 90.000000
_cell_angle_beta 90.000000
_cell_angle_gamma 90.000000
_cell_volume 5384.093876
_symmetry_space_group_name_H-M "C M C M"
_symmetry_group_IT_number 63
_symmetry_cell_setting 'orthorhombic'
loop_
_space_group_symop_operation_xyz
x,y,z
-x,-y,1/2+z
x,-y,-z
-x,y,1/2-z
-x,-y,-z
x,y,1/2-z
-x,y,z
x,-y,1/2+z
1/2+x,1/2+y,z
1/2-x,1/2-y,1/2+z
1/2+x,1/2-y,-z
1/2-x,1/2+y,1/2-z
1/2-x,1/2-y,-z
1/2+x,1/2+y,1/2-z
1/2-x,1/2+y,z
1/2+x,1/2-y,1/2+z
loop_
_atom_site_type_symbol
_atom_site_label
_atom_site_fract_x
_atom_site_fract_y
_atom_site_fract_z
Si Si1 0.323350 0.124242 0.447267
Si Si2 0.323454 0.952058 0.803811
Si Si3 0.823717 0.996426 0.604430
Si Si4 0.823160 0.755676 0.895790
Si Si5 0.323126 0.200395 0.303622
Si Si6 0.823929 0.381132 0.058298
O O1 0.500000 0.122776 0.438829
O O2 0.255804 0.188138 0.424858
O O3 0.296822 0.122631 0.502803
O O4 0.249595 0.062804 0.423266
O O5 0.287915 0.968261 0.750000
O O6 0.500000 0.961664 0.810614
O O7 0.295330 0.875831 0.809919
O O8 0.233010 0.990178 0.842380
O O9 0.767250 0.061751 0.581320
O O10 0.000000 0.991588 0.602312
O O11 0.765415 0.761771 0.842845
O O12 0.788693 0.686839 0.918052
O O13 0.000000 0.765055 0.897480
O O14 0.284720 0.216703 0.250000
O O15 0.500000 0.209797 0.309478
O O16 0.000000 0.393659 0.064890
#
# Coordination Sequence:
#
# PCOD9475320 Si02
#       6
#    16  16  16  16  16  16
#     4  11  22  39  62  83 111 155 198 235 282 340
#     4   9  18  35  60  86 113 149 190 231 279 340
#     4  12  24  37  58  89 119 148 189 242 290 335
#     4  11  22  37  59  89 118 146 189 240 287 335
#     4   9  18  34  58  86 114 149 190 229 277 339
#     4  10  24  42  58  80 116 159 196 232 282 345
#
# _framework density 17.830297999999999
#
# number of rings (size 3 to 8) (size 9 to 14) (size 15 to 20)
#    0.000    1.667    1.667    4.500    0.000    5.333 
#    0.000    2.500    0.000    1.000    0.000    0.000 
#    0.000    0.000    0.000    0.000    0.000    0.000 
#
# Total GULP energy -268243.537269 kJ/mol
# GULP energy per Si atom -5588.407026 kJ/mol
# Density = 1.778972 g / cm^3
# Si number density = 17.830298 Si / 1000 Ang^3
#
#
#
# Elastic Constant Matrix: (Units=GPa)
#
#
# Indices 1 2 3 4 5 6 
#
# 1 90.6482 79.2126 88.5653 0.0000 0.0000 0.0000
# 2 79.2126 115.2244 80.8675 0.0000 0.0000 0.0000
# 3 88.5653 80.8675 145.4099 0.0000 0.0000 0.0000
# 4 0.0000 0.0000 0.0000 -11.5238 0.0000 0.0000
# 5 0.0000 0.0000 0.0000 0.0000 23.5585 0.0000
# 6 0.0000 0.0000 0.0000 0.0000 0.0000 30.9267
#
#
#
# Elastic Compliance Matrix: (Units=1/GPa)
#
#
# Indices 1 2 3 4 5 6 
#
# 1 0.041789 -0.017821 -0.015542 0.000000 0.000000 0.000000
# 2 -0.017821 0.021834 -0.001289 0.000000 0.000000 0.000000
# 3 -0.015542 -0.001289 0.017060 0.000000 0.000000 0.000000
# 4 0.000000 0.000000 0.000000 -0.086777 0.000000 0.000000
# 5 0.000000 0.000000 0.000000 0.000000 0.042448 0.000000
# 6 0.000000 0.000000 0.000000 0.000000 0.000000 0.032335
#
#
# Mechanical properties :
#
#
# Convention : Reuss Voigt Hill
#
# Bulk Modulus (GPa) = 87.86822 94.28592 91.07707
# Shear Modulus (GPa) = 35.26490 15.43475 25.34982
#
# Velocity S-wave (km/s) = 4.45208 2.94538 3.77467
# Velocity P-wave (km/s) = 8.70720 8.03501 8.37785
#
# Compressibility (1/GPa) = 0.01138068
#
# Stress axis : x y z
#
# Youngs Moduli (GPa) = 23.92984 45.79968 58.61720
#
# Poissons Ratio (x) = 0.81618 0.91101
# Poissons Ratio (y) = 0.42645 0.07554
# Poissons Ratio (z) = 0.37191 0.05902
#
# Static dielectric constant tensor:
#      x y z
#    x 1.591200 0.000000 0.000000 
#    y 0.000000 1.572240 0.000000 
#    z 0.000000 0.000000 1.607940 
# 
# From -- ./inp_files/66867.got.cif
#   From: 2010.05.17/outbox.cif.g08.bks.cpg/sg63_34_cif.got.tgz:66867.got - 2010.06.03 15:47:04.
