data_PCOD9475100
_publ_section_title
;
Structure prediction by ZEFSAII (Michael W. Deem and Ramdas Pophale) SiO2 
 PCOD9475100
Probable space group: C M C M
;
_chemical_formula_sum "Si O2"
_cell_formula_units_Z 112
_cell_length_a 22.537213
_cell_length_b 15.195393
_cell_length_c 15.431019
_cell_angle_alpha 90.000000
_cell_angle_beta 90.000000
_cell_angle_gamma 90.000000
_cell_volume 5284.534676
_symmetry_space_group_name_H-M "C M C M"
_symmetry_group_IT_number 63
_symmetry_cell_setting 'orthorhombic'
loop_
_space_group_symop_operation_xyz
x,y,z
-x,-y,1/2+z
x,-y,-z
-x,y,1/2-z
-x,-y,-z
x,y,1/2-z
-x,y,z
x,-y,1/2+z
1/2+x,1/2+y,z
1/2-x,1/2-y,1/2+z
1/2+x,1/2-y,-z
1/2-x,1/2+y,1/2-z
1/2-x,1/2-y,-z
1/2+x,1/2+y,1/2-z
1/2-x,1/2+y,z
1/2+x,1/2-y,1/2+z
loop_
_atom_site_type_symbol
_atom_site_label
_atom_site_fract_x
_atom_site_fract_y
_atom_site_fract_z
Si Si1 0.130055 0.155594 0.942010
Si Si2 0.158052 0.672252 0.149477
Si Si3 0.933005 0.477589 0.854874
Si Si4 0.347689 0.137234 0.649794
Si Si5 0.756836 0.393991 0.999116
Si Si6 0.568340 0.498908 0.850430
Si Si7 0.568663 0.702697 0.391850
O O1 0.143113 0.226429 0.867840
O O2 0.109270 0.062306 0.905766
O O3 0.190379 0.141658 0.995191
O O4 0.080808 0.195741 0.005671
O O5 0.172308 0.656258 0.250000
O O6 0.101194 0.612369 0.125108
O O7 0.210065 0.641658 0.085681
O O8 0.936440 0.483150 0.750000
O O9 0.891035 0.558303 0.881332
O O10 0.000000 0.482114 0.888801
O O11 0.329781 0.121199 0.750000
O O12 0.293114 0.138749 0.583648
O O13 0.386869 0.225171 0.645182
O O14 0.756949 0.500000 0.000000
O O15 0.572380 0.524328 0.750000
O O16 0.500000 0.510084 0.879328
O O17 0.581744 0.395650 0.858289
O O18 0.500000 0.723751 0.372096
#
# Coordination Sequence:
#
# PCOD9475100 Si02
#       7
#    16  16  16  16  16  16  16
#     4  12  25  44  65  96 134 176 226 280 332 400
#     4  11  24  44  67  94 133 176 222 276 334 398
#     4   9  19  38  65  97 133 173 217 268 329 396
#     4  11  23  41  66 100 138 177 219 273 334 397
#     4  12  25  46  68  96 136 178 227 280 332 399
#     4  10  22  42  67  97 133 175 225 279 338 400
#     4  11  23  41  67  99 134 173 222 281 343 400
#
# _framework density 21.193919000000001
#
# number of rings (size 3 to 8) (size 9 to 14) (size 15 to 20)
#    0.000    1.143    2.857    3.429    0.000    4.857 
#    0.000    4.286    0.000    0.000    0.000    0.000 
#    0.000    0.000    0.000    0.000    0.000    0.000 
#
# Total GULP energy -313338.399916 kJ/mol
# GULP energy per Si atom -5595.328570 kJ/mol
# Density = 2.114568 g / cm^3
# Si number density = 21.193919 Si / 1000 Ang^3
#
#
#
# Elastic Constant Matrix: (Units=GPa)
#
#
# Indices 1 2 3 4 5 6 
#
# 1 69.0512 18.5754 19.4233 0.0000 0.0000 0.0000
# 2 18.5754 82.3197 11.0786 0.0000 0.0000 0.0000
# 3 19.4233 11.0786 84.7729 0.0000 0.0000 0.0000
# 4 0.0000 0.0000 0.0000 24.9327 0.0000 0.0000
# 5 0.0000 0.0000 0.0000 0.0000 10.8720 0.0000
# 6 0.0000 0.0000 0.0000 0.0000 0.0000 25.0175
#
#
#
# Elastic Compliance Matrix: (Units=1/GPa)
#
#
# Indices 1 2 3 4 5 6 
#
# 1 0.016281 -0.003229 -0.003308 0.000000 0.000000 0.000000
# 2 -0.003229 0.013005 -0.000960 0.000000 0.000000 0.000000
# 3 -0.003308 -0.000960 0.012680 0.000000 0.000000 0.000000
# 4 0.000000 0.000000 0.000000 0.040108 0.000000 0.000000
# 5 0.000000 0.000000 0.000000 0.000000 0.091979 0.000000
# 6 0.000000 0.000000 0.000000 0.000000 0.000000 0.039972
#
#
# Mechanical properties :
#
#
# Convention : Reuss Voigt Hill
#
# Bulk Modulus (GPa) = 37.07478 37.14426 37.10952
# Shear Modulus (GPa) = 21.00749 24.63555 22.82152
#
# Velocity S-wave (km/s) = 3.15175 3.41308 3.28502
# Velocity P-wave (km/s) = 5.54760 5.75292 5.65119
#
# Compressibility (1/GPa) = 0.02697251
#
# Stress axis : x y z
#
# Youngs Moduli (GPa) = 61.42071 76.89072 78.86629
#
# Poissons Ratio (x) = 0.24825 0.26092
# Poissons Ratio (y) = 0.19830 0.07570
# Poissons Ratio (z) = 0.20321 0.07381
#
# Static dielectric constant tensor:
#      x y z
#    x 1.733530 0.000000 0.000000 
#    y 0.000000 1.752070 0.000000 
#    z 0.000000 0.000000 1.763560 
# 
# From -- ./inp_files/36851.got.cif
#   From: 2010.05.17/outbox.cif.g08.bks.cpg/sg63_19_cif.got.tgz:36851.got - 2010.06.03 15:47:04.
