data_PCOD9475229
_publ_section_title
;
Structure prediction by ZEFSAII (Michael W. Deem and Ramdas Pophale) SiO2 
 PCOD9475229
Probable space group: C M C M
;
_chemical_formula_sum "Si O2"
_cell_formula_units_Z 64
_cell_length_a 18.280372
_cell_length_b 17.164588
_cell_length_c 9.787108
_cell_angle_alpha 90.000000
_cell_angle_beta 90.000000
_cell_angle_gamma 90.000000
_cell_volume 3070.950340
_symmetry_space_group_name_H-M "C M C M"
_symmetry_group_IT_number 63
_symmetry_cell_setting 'orthorhombic'
loop_
_space_group_symop_operation_xyz
x,y,z
-x,-y,1/2+z
x,-y,-z
-x,y,1/2-z
-x,-y,-z
x,y,1/2-z
-x,y,z
x,-y,1/2+z
1/2+x,1/2+y,z
1/2-x,1/2-y,1/2+z
1/2+x,1/2-y,-z
1/2-x,1/2+y,1/2-z
1/2-x,1/2-y,-z
1/2+x,1/2+y,1/2-z
1/2-x,1/2+y,z
1/2+x,1/2-y,1/2+z
loop_
_atom_site_type_symbol
_atom_site_label
_atom_site_fract_x
_atom_site_fract_y
_atom_site_fract_z
Si Si1 0.828989 0.846223 0.520752
Si Si2 0.087685 0.942918 0.750000
Si Si3 0.412528 0.928824 0.594884
Si Si4 0.174358 0.669246 0.905763
Si Si5 0.414702 0.369484 0.250000
O O1 0.870930 0.905790 0.619742
O O2 0.819148 0.762670 0.592740
O O3 0.748117 0.868174 0.468205
O O4 0.876545 0.837113 0.384537
O O5 0.000000 0.924127 0.750000
O O6 0.093919 0.036319 0.750000
O O7 0.383644 0.929937 0.750000
O O8 0.500000 0.933842 0.602861
O O9 0.389295 0.853812 0.509466
O O10 0.386289 0.000000 0.500000
O O11 0.161849 0.643207 0.750000
O O12 0.500000 0.351373 0.250000
#
# Coordination Sequence:
#
# PCOD9475229 Si02
#       5
#    16   8  16  16   8
#     4  11  24  43  66  94 130 170 213 268 323 385
#     4  11  24  43  66  98 134 173 216 269 328 388
#     4  10  23  42  65  95 130 166 210 265 322 384
#     4  11  24  43  66  94 130 172 216 268 324 385
#     4  11  24  43  66  94 134 173 218 269 320 388
#
# _framework density 20.840454000000001
#
# number of rings (size 3 to 8) (size 9 to 14) (size 15 to 20)
#    0.000    1.250    2.500    2.250    3.500    7.500 
#    0.000    0.000    0.000    0.000    0.000    0.000 
#    0.000    0.000    0.000    0.000    0.000    0.000 
#
# Total GULP energy -178776.429858 kJ/mol
# GULP energy per Si atom -5586.763433 kJ/mol
# Density = 2.079302 g / cm^3
# Si number density = 20.840454 Si / 1000 Ang^3
#
#
#
# Elastic Constant Matrix: (Units=GPa)
#
#
# Indices 1 2 3 4 5 6 
#
# 1 57.0479 14.7336 35.1961 0.0000 0.0000 0.0000
# 2 14.7336 31.1607 19.0001 0.0000 0.0000 0.0000
# 3 35.1961 19.0001 187.1489 0.0000 0.0000 0.0000
# 4 0.0000 0.0000 0.0000 103.3045 0.0000 0.0000
# 5 0.0000 0.0000 0.0000 0.0000 27.3969 0.0000
# 6 0.0000 0.0000 0.0000 0.0000 0.0000 29.3964
#
#
#
# Elastic Compliance Matrix: (Units=1/GPa)
#
#
# Indices 1 2 3 4 5 6 
#
# 1 0.021660 -0.008270 -0.003234 0.000000 0.000000 0.000000
# 2 -0.008270 0.037367 -0.002238 0.000000 0.000000 0.000000
# 3 -0.003234 -0.002238 0.006179 0.000000 0.000000 0.000000
# 4 0.000000 0.000000 0.000000 0.009680 0.000000 0.000000
# 5 0.000000 0.000000 0.000000 0.000000 0.036500 0.000000
# 6 0.000000 0.000000 0.000000 0.000000 0.000000 0.034018
#
#
# Mechanical properties :
#
#
# Convention : Reuss Voigt Hill
#
# Bulk Modulus (GPa) = 26.50993 45.91301 36.21147
# Shear Modulus (GPa) = 26.95978 45.78142 36.37060
#
# Velocity S-wave (km/s) = 3.60060 4.69204 4.18208
# Velocity P-wave (km/s) = 5.48031 7.17163 6.38224
#
# Compressibility (1/GPa) = 0.03772171
#
# Stress axis : x y z
#
# Youngs Moduli (GPa) = 46.16792 26.76183 161.84419
#
# Poissons Ratio (x) = 0.22131 0.52339
# Poissons Ratio (y) = 0.38179 0.36227
# Poissons Ratio (z) = 0.14930 0.05990
#
# Static dielectric constant tensor:
#      x y z
#    x 1.756570 0.000000 0.000000 
#    y 0.000000 1.780450 0.000000 
#    z 0.000000 0.000000 1.721460 
# 
# From -- ./inp_files/5752.got.cif
#   From: 2010.05.17/outbox.cif.g08.bks.cpg/sg63_3_cif.got.tgz:5752.got - 2010.06.03 15:47:04.
