data_PCOD9475483
_publ_section_title
;
Structure prediction by ZEFSAII (Michael W. Deem and Ramdas Pophale) SiO2 
 PCOD9475483
Probable space group: C M C M
;
_chemical_formula_sum "Si O2"
_cell_formula_units_Z 64
_cell_length_a 11.678687
_cell_length_b 20.238234
_cell_length_c 14.255463
_cell_angle_alpha 90.000000
_cell_angle_beta 90.000000
_cell_angle_gamma 90.000000
_cell_volume 3369.364217
_symmetry_space_group_name_H-M "C M C M"
_symmetry_group_IT_number 63
_symmetry_cell_setting 'orthorhombic'
loop_
_space_group_symop_operation_xyz
x,y,z
-x,-y,1/2+z
x,-y,-z
-x,y,1/2-z
-x,-y,-z
x,y,1/2-z
-x,y,z
x,-y,1/2+z
1/2+x,1/2+y,z
1/2-x,1/2-y,1/2+z
1/2+x,1/2-y,-z
1/2-x,1/2+y,1/2-z
1/2-x,1/2-y,-z
1/2+x,1/2+y,1/2-z
1/2-x,1/2+y,z
1/2+x,1/2-y,1/2+z
loop_
_atom_site_type_symbol
_atom_site_label
_atom_site_fract_x
_atom_site_fract_y
_atom_site_fract_z
Si Si1 0.500000 0.130736 0.636581
Si Si2 0.252553 0.938767 0.931914
Si Si3 0.000000 0.527654 0.362227
Si Si4 0.864095 0.993293 0.750000
Si Si5 0.362505 0.352585 0.250000
Si Si6 0.741231 0.183336 0.940243
O O1 0.500000 0.138307 0.750000
O O2 0.387059 0.163854 0.592978
O O3 0.500000 0.051429 0.617432
O O4 0.386099 0.939668 0.903154
O O5 0.181432 0.954558 0.839646
O O6 0.219693 0.874134 0.988838
O O7 0.234107 0.000000 0.000000
O O8 0.000000 0.534249 0.250000
O O9 0.000000 0.996208 0.750000
O O10 0.821479 0.069985 0.750000
O O11 0.500000 0.351823 0.250000
O O12 0.315053 0.319005 0.155390
O O13 0.750000 0.250000 0.000000
#
# Coordination Sequence:
#
# PCOD9475483 Si02
#       6
#     8  16   8   8   8  16
#     4  11  21  43  73  97 131 172 221 274 337 400
#     4  12  22  41  68  99 129 166 222 276 331 384
#     4  11  20  38  74 106 132 160 212 293 344 379
#     4  11  24  42  67  97 131 175 224 271 314 389
#     4  11  24  46  67  93 133 175 220 271 330 395
#     4  12  27  44  67  99 135 179 219 269 336 400
#
# _framework density 18.994682000000001
#
# number of rings (size 3 to 8) (size 9 to 14) (size 15 to 20)
#    0.000    0.500    7.500    1.125    1.750    2.500 
#    0.000    0.000    0.000    0.000    0.000    0.000 
#    0.000    0.000    0.000    0.000    0.000    0.000 
#
# Total GULP energy -178971.523759 kJ/mol
# GULP energy per Si atom -5592.860117 kJ/mol
# Density = 1.895145 g / cm^3
# Si number density = 18.994682 Si / 1000 Ang^3
#
#
#
# Elastic Constant Matrix: (Units=GPa)
#
#
# Indices 1 2 3 4 5 6 
#
# 1 68.3430 7.5685 41.1008 0.0000 0.0000 0.0000
# 2 7.5685 109.1829 63.4329 0.0000 0.0000 0.0000
# 3 41.1008 63.4329 178.5308 0.0000 0.0000 0.0000
# 4 0.0000 0.0000 0.0000 4.4011 0.0000 0.0000
# 5 0.0000 0.0000 0.0000 0.0000 1164.6974 0.0000
# 6 0.0000 0.0000 0.0000 0.0000 0.0000 7.5428
#
#
#
# Elastic Compliance Matrix: (Units=1/GPa)
#
#
# Indices 1 2 3 4 5 6 
#
# 1 0.017150 0.001392 -0.004443 0.000000 0.000000 0.000000
# 2 0.001392 0.011654 -0.004461 0.000000 0.000000 0.000000
# 3 -0.004443 -0.004461 0.008209 0.000000 0.000000 0.000000
# 4 0.000000 0.000000 0.000000 0.227216 0.000000 0.000000
# 5 0.000000 0.000000 0.000000 0.000000 0.000859 0.000000
# 6 0.000000 0.000000 0.000000 0.000000 0.000000 0.132576
#
#
# Mechanical properties :
#
#
# Convention : Reuss Voigt Hill
#
# Bulk Modulus (GPa) = 45.47593 64.47345 54.97469
# Shear Modulus (GPa) = 11.90427 251.59191 131.74809
#
# Velocity S-wave (km/s) = 2.50615 11.52135 8.33733
# Velocity P-wave (km/s) = 5.68926 14.52602 11.03116
#
# Compressibility (1/GPa) = 0.02198966
#
# Stress axis : x y z
#
# Youngs Moduli (GPa) = 58.30972 85.80440 121.81345
#
# Poissons Ratio (x) = -0.11948 0.54121
# Poissons Ratio (y) = -0.08119 0.54346
# Poissons Ratio (z) = 0.25906 0.38281
#
# Static dielectric constant tensor:
#      x y z
#    x 1.713630 0.000000 0.000000 
#    y 0.000000 1.605070 0.000000 
#    z 0.000000 0.000000 1.653780 
# 
# From -- ./inp_files/29195.got.cif
#   From: 2010.05.17/outbox.cif.g08.bks.cpg/sg63_15_cif.got.tgz:29195.got - 2010.06.03 15:47:04.
