data_PCOD9475160
_publ_section_title
;
Structure prediction by ZEFSAII (Michael W. Deem and Ramdas Pophale) SiO2 
 PCOD9475160
Probable space group: C M C M
;
_chemical_formula_sum "Si O2"
_cell_formula_units_Z 72
_cell_length_a 14.005406
_cell_length_b 25.833285
_cell_length_c 10.534973
_cell_angle_alpha 90.000000
_cell_angle_beta 90.000000
_cell_angle_gamma 90.000000
_cell_volume 3811.612699
_symmetry_space_group_name_H-M "C M C M"
_symmetry_group_IT_number 63
_symmetry_cell_setting 'orthorhombic'
loop_
_space_group_symop_operation_xyz
x,y,z
-x,-y,1/2+z
x,-y,-z
-x,y,1/2-z
-x,-y,-z
x,y,1/2-z
-x,y,z
x,-y,1/2+z
1/2+x,1/2+y,z
1/2-x,1/2-y,1/2+z
1/2+x,1/2-y,-z
1/2-x,1/2+y,1/2-z
1/2-x,1/2-y,-z
1/2+x,1/2+y,1/2-z
1/2-x,1/2+y,z
1/2+x,1/2-y,1/2+z
loop_
_atom_site_type_symbol
_atom_site_label
_atom_site_fract_x
_atom_site_fract_y
_atom_site_fract_z
Si Si1 0.166597 0.887540 0.461619
Si Si2 0.500000 0.238865 0.619511
Si Si3 0.500000 0.687067 0.614756
Si Si4 0.316977 0.801760 0.010622
Si Si5 0.117877 0.030826 0.750000
Si Si6 0.613161 0.848827 0.750000
Si Si7 0.695588 0.585214 0.250000
O O1 0.261710 0.853554 0.449132
O O2 0.154128 0.938754 0.376444
O O3 0.154250 0.894804 0.614127
O O4 0.088990 0.849858 0.401850
O O5 0.500000 0.269759 0.750000
O O6 0.500000 0.274416 0.498972
O O7 0.597065 0.207595 0.606753
O O8 0.500000 0.713761 0.750000
O O9 0.361606 0.814795 0.873390
O O10 0.250000 0.750000 0.000000
O O11 0.000000 0.028283 0.750000
O O12 0.168012 0.975050 0.750000
O O13 0.500000 0.863082 0.750000
O O14 0.692408 0.895936 0.750000
#
# Coordination Sequence:
#
# PCOD9475160 Si02
#       7
#    16   8   8  16   8   8   8
#     4  11  23  41  64  92 131 168 211 258 326 386
#     4  12  28  38  60  95 132 171 212 260 312 363
#     4  12  24  40  59  96 131 176 211 251 315 392
#     4  11  24  39  64  93 131 167 213 260 311 378
#     4  12  24  43  66  97 128 171 210 264 335 396
#     4  10  22  45  68  88 122 180 221 258 318 388
#     4  10  26  40  66  95 122 163 217 278 319 376
#
# _framework density 18.889643
#
# number of rings (size 3 to 8) (size 9 to 14) (size 15 to 20)
#    0.000    0.889    5.556    0.667    7.778    0.889 
#    0.000    0.000    2.444    2.667    0.000    0.000 
#    0.000    0.000    0.000    0.000    0.000    0.000 
#
# Total GULP energy -200706.337830 kJ/mol
# GULP energy per Si atom -5575.176051 kJ/mol
# Density = 1.884665 g / cm^3
# Si number density = 18.889643 Si / 1000 Ang^3
#
#
#
# Elastic Constant Matrix: (Units=GPa)
#
#
# Indices 1 2 3 4 5 6 
#
# 1 99.6482 33.7194 47.9299 0.0000 0.0000 0.0000
# 2 33.7194 89.0647 44.3982 0.0000 0.0000 0.0000
# 3 47.9299 44.3982 157.6845 0.0000 0.0000 0.0000
# 4 0.0000 0.0000 0.0000 9.4510 0.0000 0.0000
# 5 0.0000 0.0000 0.0000 0.0000 24.9198 0.0000
# 6 0.0000 0.0000 0.0000 0.0000 0.0000 27.9323
#
#
#
# Elastic Compliance Matrix: (Units=1/GPa)
#
#
# Indices 1 2 3 4 5 6 
#
# 1 0.012541 -0.003313 -0.002879 0.000000 0.000000 0.000000
# 2 -0.003313 0.013936 -0.002917 0.000000 0.000000 0.000000
# 3 -0.002879 -0.002917 0.008038 0.000000 0.000000 0.000000
# 4 0.000000 0.000000 0.000000 0.105809 0.000000 0.000000
# 5 0.000000 0.000000 0.000000 0.000000 0.040129 0.000000
# 6 0.000000 0.000000 0.000000 0.000000 0.000000 0.035801
#
#
# Mechanical properties :
#
#
# Convention : Reuss Voigt Hill
#
# Bulk Modulus (GPa) = 61.35870 66.49915 63.92892
# Shear Modulus (GPa) = 20.84164 27.15062 23.99613
#
# Velocity S-wave (km/s) = 3.32525 3.79532 3.56804
# Velocity P-wave (km/s) = 6.87723 7.38149 7.13382
#
# Compressibility (1/GPa) = 0.01629761
#
# Stress axis : x y z
#
# Youngs Moduli (GPa) = 79.73729 71.75633 124.40482
#
# Poissons Ratio (x) = 0.23771 0.35820
# Poissons Ratio (y) = 0.26415 0.36288
# Poissons Ratio (z) = 0.22959 0.20931
#
# Static dielectric constant tensor:
#      x y z
#    x 1.877430 0.000000 0.000000 
#    y 0.000000 1.666620 0.000000 
#    z 0.000000 0.000000 1.351440 
# 
# From -- ./inp_files/4757.got.cif
#   From: 2010.05.17/outbox.cif.g08.bks.cpg/sg63_3_cif.got.tgz:4757.got - 2010.06.03 15:47:04.
