data_PCOD9475765
_publ_section_title
;
Structure prediction by ZEFSAII (Michael W. Deem and Ramdas Pophale) SiO2 
 PCOD9475765
Probable space group: C M C M
;
_chemical_formula_sum "Si O2"
_cell_formula_units_Z 64
_cell_length_a 8.727145
_cell_length_b 13.570879
_cell_length_c 26.461820
_cell_angle_alpha 90.000000
_cell_angle_beta 90.000000
_cell_angle_gamma 90.000000
_cell_volume 3134.006414
_symmetry_space_group_name_H-M "C M C M"
_symmetry_group_IT_number 63
_symmetry_cell_setting 'orthorhombic'
loop_
_space_group_symop_operation_xyz
x,y,z
-x,-y,1/2+z
x,-y,-z
-x,y,1/2-z
-x,-y,-z
x,y,1/2-z
-x,y,z
x,-y,1/2+z
1/2+x,1/2+y,z
1/2-x,1/2-y,1/2+z
1/2+x,1/2-y,-z
1/2-x,1/2+y,1/2-z
1/2-x,1/2-y,-z
1/2+x,1/2+y,1/2-z
1/2-x,1/2+y,z
1/2+x,1/2-y,1/2+z
loop_
_atom_site_type_symbol
_atom_site_label
_atom_site_fract_x
_atom_site_fract_y
_atom_site_fract_z
Si Si1 0.818960 0.011312 0.940156
Si Si2 0.000000 0.002472 0.189834
Si Si3 0.754505 0.136491 0.133936
Si Si4 0.827724 0.709336 0.948956
Si Si5 0.500000 0.267368 0.311109
O O1 0.780139 0.123255 0.928887
O O2 0.000000 0.989663 0.929679
O O3 0.703382 0.944026 0.908052
O O4 0.797646 0.000000 0.000000
O O5 0.856582 0.066465 0.169604
O O6 0.000000 0.003583 0.250000
O O7 0.000000 0.885197 0.175452
O O8 0.836990 0.210869 0.095326
O O9 0.641611 0.204847 0.165924
O O10 0.000000 0.675122 0.960852
O O11 0.750000 0.750000 0.000000
O O12 0.500000 0.262274 0.250000
#
# Coordination Sequence:
#
# PCOD9475765 Si02
#       5
#    16   8  16  16   8
#     4  11  23  41  65  98 144 194 240 282 343 423
#     4  11  24  50  77 100 135 185 240 303 369 422
#     4  12  24  45  70 104 140 182 234 294 359 418
#     4  12  25  40  64 101 145 191 241 287 350 427
#     4  11  28  50  77 107 135 182 243 302 368 436
#
# _framework density 20.421147000000001
#
# number of rings (size 3 to 8) (size 9 to 14) (size 15 to 20)
#    0.000    0.500    5.000    3.000    5.250    0.500 
#    0.000    0.000    0.000    6.000    0.000    0.000 
#    0.000    0.000    0.000    0.000    0.000    0.000 
#
# Total GULP energy -178364.753115 kJ/mol
# GULP energy per Si atom -5573.898535 kJ/mol
# Density = 2.037467 g / cm^3
# Si number density = 20.421147 Si / 1000 Ang^3
#
#
#
# Elastic Constant Matrix: (Units=GPa)
#
#
# Indices 1 2 3 4 5 6 
#
# 1 94.2495 55.2558 60.5134 0.0000 0.0000 0.0000
# 2 55.2558 182.4472 71.6658 0.0000 0.0000 0.0000
# 3 60.5134 71.6658 141.0015 0.0000 0.0000 0.0000
# 4 0.0000 0.0000 0.0000 51.5244 0.0000 0.0000
# 5 0.0000 0.0000 0.0000 0.0000 19.5306 0.0000
# 6 0.0000 0.0000 0.0000 0.0000 0.0000 36.8778
#
#
#
# Elastic Compliance Matrix: (Units=1/GPa)
#
#
# Indices 1 2 3 4 5 6 
#
# 1 0.015584 -0.002615 -0.005359 0.000000 0.000000 0.000000
# 2 -0.002615 0.007287 -0.002582 0.000000 0.000000 0.000000
# 3 -0.005359 -0.002582 0.010704 0.000000 0.000000 0.000000
# 4 0.000000 0.000000 0.000000 0.019408 0.000000 0.000000
# 5 0.000000 0.000000 0.000000 0.000000 0.051202 0.000000
# 6 0.000000 0.000000 0.000000 0.000000 0.000000 0.027117
#
#
# Mechanical properties :
#
#
# Convention : Reuss Voigt Hill
#
# Bulk Modulus (GPa) = 80.22912 88.06316 84.14614
# Shear Modulus (GPa) = 31.93514 36.93744 34.43629
#
# Velocity S-wave (km/s) = 3.95882 4.25759 4.11092
# Velocity P-wave (km/s) = 7.76330 8.20893 7.98923
#
# Compressibility (1/GPa) = 0.01246430
#
# Stress axis : x y z
#
# Youngs Moduli (GPa) = 64.16869 137.23165 93.42084
#
# Poissons Ratio (x) = 0.35881 0.50066
# Poissons Ratio (y) = 0.16778 0.24117
# Poissons Ratio (z) = 0.34389 0.35427
#
# Static dielectric constant tensor:
#      x y z
#    x 1.740120 0.000000 0.000000 
#    y 0.000000 1.829260 0.000000 
#    z 0.000000 0.000000 1.741270 
# 
# From -- ./inp_files/66255.got.cif
#   From: 2010.05.17/outbox.cif.g08.bks.cpg/sg63_34_cif.got.tgz:66255.got - 2010.06.03 15:47:04.
