data_PCOD9475739
_publ_section_title
;
Structure prediction by ZEFSAII (Michael W. Deem and Ramdas Pophale) SiO2 
 PCOD9475739
Probable space group: C M C M
;
_chemical_formula_sum "Si O2"
_cell_formula_units_Z 80
_cell_length_a 15.209336
_cell_length_b 16.697280
_cell_length_c 15.106121
_cell_angle_alpha 90.000000
_cell_angle_beta 90.000000
_cell_angle_gamma 90.000000
_cell_volume 3836.268037
_symmetry_space_group_name_H-M "C M C M"
_symmetry_group_IT_number 63
_symmetry_cell_setting 'orthorhombic'
loop_
_space_group_symop_operation_xyz
x,y,z
-x,-y,1/2+z
x,-y,-z
-x,y,1/2-z
-x,-y,-z
x,y,1/2-z
-x,y,z
x,-y,1/2+z
1/2+x,1/2+y,z
1/2-x,1/2-y,1/2+z
1/2+x,1/2-y,-z
1/2-x,1/2+y,1/2-z
1/2-x,1/2-y,-z
1/2+x,1/2+y,1/2-z
1/2-x,1/2+y,z
1/2+x,1/2-y,1/2+z
loop_
_atom_site_type_symbol
_atom_site_label
_atom_site_fract_x
_atom_site_fract_y
_atom_site_fract_z
Si Si1 0.599269 0.829354 0.647983
Si Si2 0.599071 0.881525 0.347348
Si Si3 0.353606 0.256841 0.516758
Si Si4 0.724612 0.977877 0.602969
Si Si5 0.899306 0.099674 0.351030
O O1 0.615430 0.807023 0.750000
O O2 0.500000 0.862849 0.641783
O O3 0.605463 0.755673 0.580097
O O4 0.670250 0.896068 0.619824
O O5 0.604133 0.843015 0.250000
O O6 0.500000 0.914237 0.357840
O O7 0.615818 0.817611 0.423403
O O8 0.669529 0.951680 0.352418
O O9 0.250000 0.250000 0.500000
O O10 0.379354 0.334473 0.573354
O O11 0.823093 0.965870 0.637844
O O12 0.727593 0.000000 0.500000
O O13 0.891493 0.132232 0.250000
O O14 0.000000 0.071728 0.361381
#
# Coordination Sequence:
#
# PCOD9475739 Si02
#       5
#    16  16  16  16  16
#     4  11  23  39  62  91 128 169 207 258 320 382
#     4  11  23  39  64  96 129 164 207 266 323 376
#     4  12  23  40  63  94 130 167 211 262 317 380
#     4  12  23  40  62  94 129 168 211 260 318 379
#     4  11  24  43  67  93 128 174 218 263 315 380
#
# _framework density 20.853601000000001
#
# number of rings (size 3 to 8) (size 9 to 14) (size 15 to 20)
#    0.000    0.600    4.000    4.800    0.000    5.200 
#    0.000    0.000    0.000    0.000    0.000    5.600 
#    0.000    0.000    0.000    0.000    0.000    0.000 
#
# Total GULP energy -223601.274804 kJ/mol
# GULP energy per Si atom -5590.031870 kJ/mol
# Density = 2.080614 g / cm^3
# Si number density = 20.853601 Si / 1000 Ang^3
#
#
#
# Elastic Constant Matrix: (Units=GPa)
#
#
# Indices 1 2 3 4 5 6 
#
# 1 180.5841 35.7484 57.8283 0.0000 0.0000 0.0000
# 2 35.7484 45.2019 28.5252 0.0000 0.0000 0.0000
# 3 57.8283 28.5252 170.7221 0.0000 0.0000 0.0000
# 4 0.0000 0.0000 0.0000 17.3288 0.0000 0.0000
# 5 0.0000 0.0000 0.0000 0.0000 34.9465 0.0000
# 6 0.0000 0.0000 0.0000 0.0000 0.0000 24.4582
#
#
#
# Elastic Compliance Matrix: (Units=1/GPa)
#
#
# Indices 1 2 3 4 5 6 
#
# 1 0.006936 -0.004475 -0.001602 0.000000 0.000000 0.000000
# 2 -0.004475 0.027617 -0.003099 0.000000 0.000000 0.000000
# 3 -0.001602 -0.003099 0.006918 0.000000 0.000000 0.000000
# 4 0.000000 0.000000 0.000000 0.057707 0.000000 0.000000
# 5 0.000000 0.000000 0.000000 0.000000 0.028615 0.000000
# 6 0.000000 0.000000 0.000000 0.000000 0.000000 0.040886
#
#
# Mechanical properties :
#
#
# Convention : Reuss Voigt Hill
#
# Bulk Modulus (GPa) = 43.25112 71.19022 57.22067
# Shear Modulus (GPa) = 25.67552 33.64044 29.65798
#
# Velocity S-wave (km/s) = 3.51269 4.02079 3.77530
# Velocity P-wave (km/s) = 6.10224 7.46779 6.81928
#
# Compressibility (1/GPa) = 0.02312079
#
# Stress axis : x y z
#
# Youngs Moduli (GPa) = 144.16713 36.20896 144.55418
#
# Poissons Ratio (x) = 0.16203 0.23156
# Poissons Ratio (y) = 0.64513 0.44793
# Poissons Ratio (z) = 0.23094 0.11220
#
# Static dielectric constant tensor:
#      x y z
#    x 1.762140 0.000000 0.000000 
#    y 0.000000 1.726840 0.000000 
#    z 0.000000 0.000000 1.767310 
# 
# From -- ./inp_files/31632.got.cif
#   From: 2010.05.17/outbox.cif.g08.bks.cpg/sg63_16_cif.got.tgz:31632.got - 2010.06.03 15:47:04.
