data_PCOD9475565
_publ_section_title
;
Structure prediction by ZEFSAII (Michael W. Deem and Ramdas Pophale) SiO2 
 PCOD9475565
Probable space group: C M C M
;
_chemical_formula_sum "Si O2"
_cell_formula_units_Z 112
_cell_length_a 18.392005
_cell_length_b 11.928751
_cell_length_c 29.475517
_cell_angle_alpha 90.000000
_cell_angle_beta 90.000000
_cell_angle_gamma 90.000000
_cell_volume 6466.741202
_symmetry_space_group_name_H-M "C M C M"
_symmetry_group_IT_number 63
_symmetry_cell_setting 'orthorhombic'
loop_
_space_group_symop_operation_xyz
x,y,z
-x,-y,1/2+z
x,-y,-z
-x,y,1/2-z
-x,-y,-z
x,y,1/2-z
-x,y,z
x,-y,1/2+z
1/2+x,1/2+y,z
1/2-x,1/2-y,1/2+z
1/2+x,1/2-y,-z
1/2-x,1/2+y,1/2-z
1/2-x,1/2-y,-z
1/2+x,1/2+y,1/2-z
1/2-x,1/2+y,z
1/2+x,1/2-y,1/2+z
loop_
_atom_site_type_symbol
_atom_site_label
_atom_site_fract_x
_atom_site_fract_y
_atom_site_fract_z
Si Si1 0.658362 0.918811 0.543090
Si Si2 0.342163 0.559744 0.612367
Si Si3 0.916321 0.194818 0.966459
Si Si4 0.679394 0.663118 0.445741
Si Si5 0.587003 0.802189 0.302632
Si Si6 0.326626 0.113311 0.888133
Si Si7 0.087006 0.036823 0.199029
O O1 0.595640 0.828110 0.537324
O O2 0.734341 0.850013 0.545552
O O3 0.663568 0.000000 0.500000
O O4 0.650174 0.999397 0.586393
O O5 0.388198 0.640635 0.580093
O O6 0.340104 0.440360 0.586625
O O7 0.260218 0.603834 0.617539
O O8 0.376718 0.538098 0.661018
O O9 0.000000 0.166363 0.975047
O O10 0.865110 0.154329 0.007642
O O11 0.660955 0.780008 0.421162
O O12 0.603484 0.832069 0.250000
O O13 0.500000 0.816974 0.309108
O O14 0.632022 0.866706 0.340949
O O15 0.602890 0.669132 0.307952
O O16 0.110322 0.007204 0.250000
O O17 0.000000 0.025978 0.196435
#
# Coordination Sequence:
#
# PCOD9475565 Si02
#       7
#    16  16  16  16  16  16  16
#     4  11  22  39  58  78 113 155 193 229 276 333
#     4  11  22  36  59  83 113 147 188 236 280 331
#     4  12  25  38  55  82 118 152 189 230 278 339
#     4  11  21  39  58  81 110 151 191 235 278 325
#     4   9  19  37  60  86 114 142 181 235 285 332
#     4  11  21  36  63  83 111 151 188 229 281 333
#     4   9  18  34  57  83 111 143 180 230 288 334
#
# _framework density 17.319388
#
# number of rings (size 3 to 8) (size 9 to 14) (size 15 to 20)
#    0.000    1.429    4.286    3.857    0.000    3.714 
#    0.000    0.000    0.000    0.857    0.000    2.000 
#    0.000    0.000    0.000    0.000    0.000    0.000 
#
# Total GULP energy -312726.483285 kJ/mol
# GULP energy per Si atom -5584.401487 kJ/mol
# Density = 1.727997 g / cm^3
# Si number density = 17.319388 Si / 1000 Ang^3
#
#
#
# Elastic Constant Matrix: (Units=GPa)
#
#
# Indices 1 2 3 4 5 6 
#
# 1 49.1805 22.8632 49.5592 0.0000 0.0000 0.0000
# 2 22.8632 44.5802 33.5014 0.0000 0.0000 0.0000
# 3 49.5592 33.5014 143.2477 0.0000 0.0000 0.0000
# 4 0.0000 0.0000 0.0000 31.2939 0.0000 0.0000
# 5 0.0000 0.0000 0.0000 0.0000 30.3410 0.0000
# 6 0.0000 0.0000 0.0000 0.0000 0.0000 4.4767
#
#
#
# Elastic Compliance Matrix: (Units=1/GPa)
#
#
# Indices 1 2 3 4 5 6 
#
# 1 0.034994 -0.010736 -0.009596 0.000000 0.000000 0.000000
# 2 -0.010736 0.030508 -0.003421 0.000000 0.000000 0.000000
# 3 -0.009596 -0.003421 0.011101 0.000000 0.000000 0.000000
# 4 0.000000 0.000000 0.000000 0.031955 0.000000 0.000000
# 5 0.000000 0.000000 0.000000 0.000000 0.032959 0.000000
# 6 0.000000 0.000000 0.000000 0.000000 0.000000 0.223379
#
#
# Mechanical properties :
#
#
# Convention : Reuss Voigt Hill
#
# Bulk Modulus (GPa) = 34.36656 49.87289 42.11972
# Shear Modulus (GPa) = 11.84553 21.96129 16.90341
#
# Velocity S-wave (km/s) = 2.61807 3.56479 3.12746
# Velocity P-wave (km/s) = 5.38748 6.76773 6.11666
#
# Compressibility (1/GPa) = 0.02909805
#
# Stress axis : x y z
#
# Youngs Moduli (GPa) = 28.57629 32.77839 90.08300
#
# Poissons Ratio (x) = 0.35189 0.86445
# Poissons Ratio (y) = 0.30678 0.30815
# Poissons Ratio (z) = 0.27422 0.11213
#
# Static dielectric constant tensor:
#      x y z
#    x 1.573470 0.000000 0.000000 
#    y 0.000000 1.585930 0.000000 
#    z 0.000000 0.000000 1.576790 
# 
# From -- ./inp_files/73414.got.cif
#   From: 2010.05.17/outbox.cif.g08.bks.cpg/sg63_37_cif.got.tgz:73414.got - 2010.06.03 15:47:04.
