data_PCOD9475545
_publ_section_title
;
Structure prediction by ZEFSAII (Michael W. Deem and Ramdas Pophale) SiO2 
 PCOD9475545
Probable space group: C M C M
;
_chemical_formula_sum "Si O2"
_cell_formula_units_Z 116
_cell_length_a 25.153981
_cell_length_b 14.416782
_cell_length_c 15.500566
_cell_angle_alpha 90.000000
_cell_angle_beta 90.000000
_cell_angle_gamma 90.000000
_cell_volume 5621.116892
_symmetry_space_group_name_H-M "C M C M"
_symmetry_group_IT_number 63
_symmetry_cell_setting 'orthorhombic'
loop_
_space_group_symop_operation_xyz
x,y,z
-x,-y,1/2+z
x,-y,-z
-x,y,1/2-z
-x,-y,-z
x,y,1/2-z
-x,y,z
x,-y,1/2+z
1/2+x,1/2+y,z
1/2-x,1/2-y,1/2+z
1/2+x,1/2-y,-z
1/2-x,1/2+y,1/2-z
1/2-x,1/2-y,-z
1/2+x,1/2+y,1/2-z
1/2-x,1/2+y,z
1/2+x,1/2-y,1/2+z
loop_
_atom_site_type_symbol
_atom_site_label
_atom_site_fract_x
_atom_site_fract_y
_atom_site_fract_z
Si Si1 0.174521 0.353799 0.006157
Si Si2 0.890336 0.336990 0.157687
Si Si3 0.646141 0.373703 0.615459
Si Si4 0.747653 0.343536 0.344696
Si Si5 0.940315 0.033778 0.648445
Si Si6 0.000000 0.346691 0.250000
Si Si7 0.736434 0.936311 0.843833
Si Si8 0.362948 0.325111 0.074087
O O1 0.205105 0.406374 0.930127
O O2 0.137268 0.280422 0.956670
O O3 0.134665 0.394552 0.078828
O O4 0.219202 0.308836 0.071637
O O5 0.866049 0.367421 0.250000
O O6 0.875625 0.228019 0.142756
O O7 0.952603 0.344703 0.175735
O O8 0.601356 0.449955 0.636408
O O9 0.703579 0.396596 0.653573
O O10 0.653896 0.378047 0.512765
O O11 0.760541 0.304277 0.250000
O O12 0.758032 0.453115 0.345752
O O13 0.685178 0.331586 0.359397
O O14 0.943085 0.050505 0.750000
O O15 0.915828 0.125487 0.605612
O O16 0.000000 0.011566 0.616992
O O17 0.712495 0.909598 0.750000
#
# Coordination Sequence:
#
# PCOD9475545 Si02
#       8
#    16  16  16  16  16   4  16  16
#     4  11  23  39  58  89 120 162 203 250 311 382
#     4   9  20  36  59  89 124 153 200 256 310 361
#     4  11  21  35  56  84 124 166 214 254 294 357
#     4  11  22  38  60  85 123 159 202 253 312 366
#     4  11  24  39  58  82 118 171 223 260 300 356
#     4   8  20  40  60  92 126 156 196 270 328 352
#     4  11  23  37  58  89 127 170 204 250 304 369
#     4  11  23  38  53  84 121 161 207 259 302 365
#
# _framework density 20.636468000000001
#
# number of rings (size 3 to 8) (size 9 to 14) (size 15 to 20)
#    0.414    0.966    2.759    3.310    2.897    2.207 
#    3.724    0.000    0.000    0.000    0.000    1.931 
#    0.000    0.276    0.000    0.000    0.000    0.000 
#
# Total GULP energy -322912.860931 kJ/mol
# GULP energy per Si atom -5567.463120 kJ/mol
# Density = 2.058950 g / cm^3
# Si number density = 20.636468 Si / 1000 Ang^3
#
#
#
# Elastic Constant Matrix: (Units=GPa)
#
#
# Indices 1 2 3 4 5 6 
#
# 1 120.3961 4.5969 57.9926 0.0000 0.0000 0.0000
# 2 4.5969 21.1275 6.9349 0.0000 0.0000 0.0000
# 3 57.9926 6.9349 134.1750 0.0000 0.0000 0.0000
# 4 0.0000 0.0000 0.0000 19.3031 0.0000 0.0000
# 5 0.0000 0.0000 0.0000 0.0000 37.8432 0.0000
# 6 0.0000 0.0000 0.0000 0.0000 0.0000 11.8620
#
#
#
# Elastic Compliance Matrix: (Units=1/GPa)
#
#
# Indices 1 2 3 4 5 6 
#
# 1 0.010503 -0.000809 -0.004498 0.000000 0.000000 0.000000
# 2 -0.000809 0.048211 -0.002142 0.000000 0.000000 0.000000
# 3 -0.004498 -0.002142 0.009508 0.000000 0.000000 0.000000
# 4 0.000000 0.000000 0.000000 0.051805 0.000000 0.000000
# 5 0.000000 0.000000 0.000000 0.000000 0.026425 0.000000
# 6 0.000000 0.000000 0.000000 0.000000 0.000000 0.084303
#
#
# Mechanical properties :
#
#
# Convention : Reuss Voigt Hill
#
# Bulk Modulus (GPa) = 18.75335 46.08307 32.41821
# Shear Modulus (GPa) = 18.98057 27.54660 23.26359
#
# Velocity S-wave (km/s) = 3.03604 3.65752 3.36118
# Velocity P-wave (km/s) = 4.62572 6.34161 5.55037
#
# Compressibility (1/GPa) = 0.05332382
#
# Stress axis : x y z
#
# Youngs Moduli (GPa) = 95.20761 20.74227 105.17744
#
# Poissons Ratio (x) = 0.01678 0.47308
# Poissons Ratio (y) = 0.07701 0.22531
# Poissons Ratio (z) = 0.42824 0.04443
#
# Static dielectric constant tensor:
#      x y z
#    x 1.743960 0.000000 0.000000 
#    y 0.000000 1.790600 0.000000 
#    z 0.000000 0.000000 1.811950 
# 
# From -- ./inp_files/37108.got.cif
#   From: 2010.05.17/outbox.cif.g08.bks.cpg/sg63_19_cif.got.tgz:37108.got - 2010.06.03 15:47:04.
