data_PCOD9475473
_publ_section_title
;
Structure prediction by ZEFSAII (Michael W. Deem and Ramdas Pophale) SiO2 
 PCOD9475473
Probable space group: C M C M
;
_chemical_formula_sum "Si O2"
_cell_formula_units_Z 96
_cell_length_a 19.331582
_cell_length_b 18.434157
_cell_length_c 14.905776
_cell_angle_alpha 90.000000
_cell_angle_beta 90.000000
_cell_angle_gamma 90.000000
_cell_volume 5311.843466
_symmetry_space_group_name_H-M "C M C M"
_symmetry_group_IT_number 63
_symmetry_cell_setting 'orthorhombic'
loop_
_space_group_symop_operation_xyz
x,y,z
-x,-y,1/2+z
x,-y,-z
-x,y,1/2-z
-x,-y,-z
x,y,1/2-z
-x,y,z
x,-y,1/2+z
1/2+x,1/2+y,z
1/2-x,1/2-y,1/2+z
1/2+x,1/2-y,-z
1/2-x,1/2+y,1/2-z
1/2-x,1/2-y,-z
1/2+x,1/2+y,1/2-z
1/2-x,1/2+y,z
1/2+x,1/2-y,1/2+z
loop_
_atom_site_type_symbol
_atom_site_label
_atom_site_fract_x
_atom_site_fract_y
_atom_site_fract_z
Si Si1 0.717136 0.188984 0.853086
Si Si2 0.081718 0.910180 0.250000
Si Si3 0.123998 0.798359 0.399325
Si Si4 0.656089 0.339830 0.593726
Si Si5 0.079280 0.637696 0.356129
Si Si6 0.416839 0.573689 0.250000
Si Si7 0.796033 0.585093 0.479895
O O1 0.716329 0.163234 0.750000
O O2 0.794698 0.213108 0.879927
O O3 0.673153 0.261937 0.863264
O O4 0.695587 0.129371 0.926582
O O5 0.102783 0.863856 0.335771
O O6 0.000000 0.916547 0.250000
O O7 0.110187 0.991089 0.250000
O O8 0.116621 0.822124 0.501627
O O9 0.086061 0.723976 0.375136
O O10 0.612581 0.386923 0.662494
O O11 0.727508 0.381143 0.567262
O O12 0.092495 0.626072 0.250000
O O13 0.137411 0.599671 0.417040
O O14 0.000000 0.615188 0.375559
O O15 0.500000 0.575361 0.250000
O O16 0.787125 0.500000 0.500000
#
# Coordination Sequence:
#
# PCOD9475473 Si02
#       7
#    16   8  16  16  16   8  16
#     4  11  20  39  64  92 122 159 210 265 301 357
#     4  11  24  39  58  90 127 161 200 255 312 363
#     4  11  20  37  63  91 121 158 209 257 306 360
#     4  11  23  41  65  89 123 166 209 255 301 365
#     4  11  22  38  63  94 123 159 206 256 312 368
#     4  11  28  43  58  92 132 169 204 249 313 371
#     4  11  25  40  63  97 126 161 208 256 314 367
#
# _framework density 18.072821000000001
#
# number of rings (size 3 to 8) (size 9 to 14) (size 15 to 20)
#    0.000    1.000    5.833    1.500    5.833    2.333 
#    0.000    1.667    0.000    0.000    0.000    0.000 
#    0.000    0.000    0.000    0.000    0.000    0.000 
#
# Total GULP energy -268123.760202 kJ/mol
# GULP energy per Si atom -5585.911671 kJ/mol
# Density = 1.803169 g / cm^3
# Si number density = 18.072821 Si / 1000 Ang^3
#
#
#
# Elastic Constant Matrix: (Units=GPa)
#
#
# Indices 1 2 3 4 5 6 
#
# 1 51.7957 17.0440 28.6151 0.0000 0.0000 0.0000
# 2 17.0440 99.5976 22.1992 0.0000 0.0000 0.0000
# 3 28.6151 22.1992 121.9567 0.0000 0.0000 0.0000
# 4 0.0000 0.0000 0.0000 22.3650 0.0000 0.0000
# 5 0.0000 0.0000 0.0000 0.0000 39.4990 0.0000
# 6 0.0000 0.0000 0.0000 0.0000 0.0000 68.4872
#
#
#
# Elastic Compliance Matrix: (Units=1/GPa)
#
#
# Indices 1 2 3 4 5 6 
#
# 1 0.022927 -0.002840 -0.004863 0.000000 0.000000 0.000000
# 2 -0.002840 0.010817 -0.001303 0.000000 0.000000 0.000000
# 3 -0.004863 -0.001303 0.009578 0.000000 0.000000 0.000000
# 4 0.000000 0.000000 0.000000 0.044713 0.000000 0.000000
# 5 0.000000 0.000000 0.000000 0.000000 0.025317 0.000000
# 6 0.000000 0.000000 0.000000 0.000000 0.000000 0.014601
#
#
# Mechanical properties :
#
#
# Convention : Reuss Voigt Hill
#
# Bulk Modulus (GPa) = 39.50714 45.45184 42.47949
# Shear Modulus (GPa) = 32.38339 39.76970 36.07654
#
# Velocity S-wave (km/s) = 4.23759 4.69606 4.47271
# Velocity P-wave (km/s) = 6.77129 7.38972 7.08725
#
# Compressibility (1/GPa) = 0.02531188
#
# Stress axis : x y z
#
# Youngs Moduli (GPa) = 43.61578 92.44969 104.40941
#
# Poissons Ratio (x) = 0.26253 0.50771
# Poissons Ratio (y) = 0.12386 0.13601
# Poissons Ratio (z) = 0.21209 0.12043
#
# Static dielectric constant tensor:
#      x y z
#    x 1.622690 0.000000 0.000000 
#    y 0.000000 1.615420 0.000000 
#    z 0.000000 0.000000 1.629290 
# 
# From -- ./inp_files/35434.got.cif
#   From: 2010.05.17/outbox.cif.g08.bks.cpg/sg63_18_cif.got.tgz:35434.got - 2010.06.03 15:47:04.
