data_PCOD9475626
_publ_section_title
;
Structure prediction by ZEFSAII (Michael W. Deem and Ramdas Pophale) SiO2 
 PCOD9475626
Probable space group: C M C M
;
_chemical_formula_sum "Si O2"
_cell_formula_units_Z 96
_cell_length_a 23.425700
_cell_length_b 15.222897
_cell_length_c 15.243588
_cell_angle_alpha 90.000000
_cell_angle_beta 90.000000
_cell_angle_gamma 90.000000
_cell_volume 5435.970464
_symmetry_space_group_name_H-M "C M C M"
_symmetry_group_IT_number 63
_symmetry_cell_setting 'orthorhombic'
loop_
_space_group_symop_operation_xyz
x,y,z
-x,-y,1/2+z
x,-y,-z
-x,y,1/2-z
-x,-y,-z
x,y,1/2-z
-x,y,z
x,-y,1/2+z
1/2+x,1/2+y,z
1/2-x,1/2-y,1/2+z
1/2+x,1/2-y,-z
1/2-x,1/2+y,1/2-z
1/2-x,1/2-y,-z
1/2+x,1/2+y,1/2-z
1/2-x,1/2+y,z
1/2+x,1/2-y,1/2+z
loop_
_atom_site_type_symbol
_atom_site_label
_atom_site_fract_x
_atom_site_fract_y
_atom_site_fract_z
Si Si1 0.851640 0.900279 0.016250
Si Si2 0.753286 0.139017 0.652011
Si Si3 0.566819 0.300976 0.148999
Si Si4 0.315346 0.017123 0.399124
Si Si5 0.936680 0.409114 0.646057
Si Si6 0.781156 0.159417 0.351772
O O1 0.797131 0.897235 0.080889
O O2 0.898229 0.846897 0.071758
O O3 0.829537 0.862479 0.923340
O O4 0.869999 0.000000 0.000000
O O5 0.777813 0.134860 0.750000
O O6 0.738495 0.240116 0.633387
O O7 0.699382 0.074056 0.648530
O O8 0.585686 0.320668 0.250000
O O9 0.500000 0.324325 0.143779
O O10 0.571001 0.195858 0.137188
O O11 0.380984 0.044540 0.391197
O O12 0.272569 0.093461 0.365385
O O13 0.302344 0.000000 0.500000
O O14 0.937141 0.427333 0.750000
O O15 0.000000 0.432508 0.611062
O O16 0.799665 0.151095 0.250000
#
# Coordination Sequence:
#
# PCOD9475626 Si02
#       6
#    16  16  16  16  16  16
#     4  12  22  35  57  85 113 150 184 235 288 340
#     4  11  22  36  56  82 114 153 189 231 284 337
#     4   9  20  39  63  88 111 142 188 239 287 334
#     4  12  22  35  56  85 117 151 187 236 283 341
#     4   9  19  37  60  84 112 148 189 236 284 329
#     4  11  23  38  55  79 116 156 193 235 280 333
#
# _framework density 17.660139000000001
#
# number of rings (size 3 to 8) (size 9 to 14) (size 15 to 20)
#    0.000    1.333    3.333    4.500    2.333    4.000 
#    0.000    0.000    0.000    0.500    0.000    0.000 
#    0.000    0.000    0.000    0.000    0.000    0.000 
#
# Total GULP energy -267820.334339 kJ/mol
# GULP energy per Si atom -5579.590299 kJ/mol
# Density = 1.761994 g / cm^3
# Si number density = 17.660139 Si / 1000 Ang^3
#
#
#
# Elastic Constant Matrix: (Units=GPa)
#
#
# Indices 1 2 3 4 5 6 
#
# 1 97.4943 41.7787 39.6488 0.0000 0.0000 0.0000
# 2 41.7787 84.3699 24.6197 0.0000 0.0000 0.0000
# 3 39.6488 24.6197 82.8707 0.0000 0.0000 0.0000
# 4 0.0000 0.0000 0.0000 21.4009 0.0000 0.0000
# 5 0.0000 0.0000 0.0000 0.0000 34.9753 0.0000
# 6 0.0000 0.0000 0.0000 0.0000 0.0000 22.5762
#
#
#
# Elastic Compliance Matrix: (Units=1/GPa)
#
#
# Indices 1 2 3 4 5 6 
#
# 1 0.014960 -0.005824 -0.005427 0.000000 0.000000 0.000000
# 2 -0.005824 0.015245 -0.001743 0.000000 0.000000 0.000000
# 3 -0.005427 -0.001743 0.015181 0.000000 0.000000 0.000000
# 4 0.000000 0.000000 0.000000 0.046727 0.000000 0.000000
# 5 0.000000 0.000000 0.000000 0.000000 0.028592 0.000000
# 6 0.000000 0.000000 0.000000 0.000000 0.000000 0.044294
#
#
# Mechanical properties :
#
#
# Convention : Reuss Voigt Hill
#
# Bulk Modulus (GPa) = 51.55060 52.98104 52.26582
# Shear Modulus (GPa) = 25.32242 26.36967 25.84604
#
# Velocity S-wave (km/s) = 3.79076 3.86835 3.82975
# Velocity P-wave (km/s) = 6.95799 7.07232 7.01539
#
# Compressibility (1/GPa) = 0.01939842
#
# Stress axis : x y z
#
# Youngs Moduli (GPa) = 66.84506 65.59473 65.87069
#
# Poissons Ratio (x) = 0.38204 0.35749
# Poissons Ratio (y) = 0.38932 0.11478
# Poissons Ratio (z) = 0.36278 0.11430
#
# Static dielectric constant tensor:
#      x y z
#    x 1.625660 0.000000 0.000000 
#    y 0.000000 1.604940 0.000000 
#    z 0.000000 0.000000 1.609350 
# 
# From -- ./inp_files/35286.got.cif
#   From: 2010.05.17/outbox.cif.g08.bks.cpg/sg63_18_cif.got.tgz:35286.got - 2010.06.03 15:47:04.
