data_PCOD9475931
_publ_section_title
;
Structure prediction by ZEFSAII (Michael W. Deem and Ramdas Pophale) SiO2 
 PCOD9475931
Probable space group: C M C M
;
_chemical_formula_sum "Si O2"
_cell_formula_units_Z 96
_cell_length_a 14.159383
_cell_length_b 24.215014
_cell_length_c 14.647290
_cell_angle_alpha 90.000000
_cell_angle_beta 90.000000
_cell_angle_gamma 90.000000
_cell_volume 5022.111307
_symmetry_space_group_name_H-M "C M C M"
_symmetry_group_IT_number 63
_symmetry_cell_setting 'orthorhombic'
loop_
_space_group_symop_operation_xyz
x,y,z
-x,-y,1/2+z
x,-y,-z
-x,y,1/2-z
-x,-y,-z
x,y,1/2-z
-x,y,z
x,-y,1/2+z
1/2+x,1/2+y,z
1/2-x,1/2-y,1/2+z
1/2+x,1/2-y,-z
1/2-x,1/2+y,1/2-z
1/2-x,1/2-y,-z
1/2+x,1/2+y,1/2-z
1/2-x,1/2+y,z
1/2+x,1/2-y,1/2+z
loop_
_atom_site_type_symbol
_atom_site_label
_atom_site_fract_x
_atom_site_fract_y
_atom_site_fract_z
Si Si1 0.609698 1.000000 0.639538
Si Si2 0.612861 0.121119 0.358779
Si Si3 0.767528 0.685236 0.000000
Si Si4 0.387139 0.878881 0.141221
Si Si5 0.386051 0.500000 0.147183
Si Si6 0.613466 0.407542 0.999999
O O1 0.611381 1.000000 0.750000
O O2 0.500000 0.000000 0.612672
O O3 0.646465 0.940368 0.610768
O O4 0.646465 0.059632 0.610768
O O5 0.625646 0.125517 0.250000
O O6 0.500000 0.124957 0.376392
O O7 0.670849 0.166160 0.413213
O O8 0.672560 0.648431 0.000001
O O9 0.750000 0.750000 0.000000
O O10 0.829150 0.666160 0.913212
O O11 0.374356 0.874483 0.250000
O O12 0.500000 0.875043 0.123607
O O13 0.346174 0.499999 0.250000
O O14 0.500000 0.500000 0.153677
O O15 0.363309 0.554117 0.087809
O O16 0.363310 0.445882 0.087809
O O17 0.500000 0.398239 0.999999
#
# Coordination Sequence:
#
# PCOD9475931 Si02
#       6
#    16  16  16  16  16  16
#     4   7  12  27  54  86 114 135 160 207 275 344
#     4   9  19  38  62  87 115 143 175 224 284 340
#     4  12  26  38  53  78 112 155 201 235 260 309
#     4   9  19  38  62  87 115 143 175 224 284 340
#     4   8  15  33  61  86 107 135 176 231 293 345
#     4   9  20  37  55  81 115 146 181 229 282 332
#
# _framework density 19.115466000000001
#
# number of rings (size 3 to 8) (size 9 to 14) (size 15 to 20)
#    0.000    3.000    0.000    3.500    0.000    6.667 
#    0.000    4.167    0.000    4.000    0.000    0.000 
#    0.000    0.000    0.000    0.000    0.000    0.000 
#
# Total GULP energy -267859.585366 kJ/mol
# GULP energy per Si atom -5580.408028 kJ/mol
# Density = 1.907196 g / cm^3
# Si number density = 19.115466 Si / 1000 Ang^3
#
#
#
# Elastic Constant Matrix: (Units=GPa)
#
#
# Indices 1 2 3 4 5 6 
#
# 1 122.2228 72.9534 46.5779 0.0000 0.0000 0.0000
# 2 72.9534 210.4304 73.4774 0.0000 0.0000 0.0000
# 3 46.5779 73.4774 121.3207 0.0000 0.0000 0.0000
# 4 0.0000 0.0000 0.0000 23.6588 0.0000 0.0000
# 5 0.0000 0.0000 0.0000 0.0000 36.7945 0.0000
# 6 0.0000 0.0000 0.0000 0.0000 0.0000 35.0379
#
#
#
# Elastic Compliance Matrix: (Units=1/GPa)
#
#
# Indices 1 2 3 4 5 6 
#
# 1 0.010837 -0.002922 -0.002391 0.000000 0.000000 0.000000
# 2 -0.002922 0.006815 -0.003005 0.000000 0.000000 0.000000
# 3 -0.002391 -0.003005 0.010981 0.000000 0.000000 0.000000
# 4 0.000000 0.000000 0.000000 0.042268 0.000000 0.000000
# 5 0.000000 0.000000 0.000000 0.000000 0.027178 0.000000
# 6 0.000000 0.000000 0.000000 0.000000 0.000000 0.028541
#
#
# Mechanical properties :
#
#
# Convention : Reuss Voigt Hill
#
# Bulk Modulus (GPa) = 83.36329 93.33238 88.34784
# Shear Modulus (GPa) = 33.95494 36.49592 35.22543
#
# Velocity S-wave (km/s) = 4.21920 4.37422 4.29741
# Velocity P-wave (km/s) = 8.21222 8.62805 8.42270
#
# Compressibility (1/GPa) = 0.01199569
#
# Stress axis : x y z
#
# Youngs Moduli (GPa) = 92.27507 146.74191 91.06915
#
# Poissons Ratio (x) = 0.42882 0.21772
# Poissons Ratio (y) = 0.26966 0.27369
# Poissons Ratio (z) = 0.22061 0.44101
#
# Static dielectric constant tensor:
#      x y z
#    x 1.696040 0.000000 0.000000 
#    y 0.000000 1.622280 0.000000 
#    z 0.000000 0.000000 1.692200 
# 
# From -- ./inp_files/31920.got.cif
#   From: 2010.05.17/outbox.cif.g08.bks.cpg/sg63_16_cif.got.tgz:31920.got - 2010.06.03 15:47:04.
