data_PCOD9475534
_publ_section_title
;
Structure prediction by ZEFSAII (Michael W. Deem and Ramdas Pophale) SiO2 
 PCOD9475534
Probable space group: C M C M
;
_chemical_formula_sum "Si O2"
_cell_formula_units_Z 64
_cell_length_a 8.712690
_cell_length_b 18.843293
_cell_length_c 21.469551
_cell_angle_alpha 90.000000
_cell_angle_beta 90.000000
_cell_angle_gamma 90.000000
_cell_volume 3524.780077
_symmetry_space_group_name_H-M "C M C M"
_symmetry_group_IT_number 63
_symmetry_cell_setting 'orthorhombic'
loop_
_space_group_symop_operation_xyz
x,y,z
-x,-y,1/2+z
x,-y,-z
-x,y,1/2-z
-x,-y,-z
x,y,1/2-z
-x,y,z
x,-y,1/2+z
1/2+x,1/2+y,z
1/2-x,1/2-y,1/2+z
1/2+x,1/2-y,-z
1/2-x,1/2+y,1/2-z
1/2-x,1/2-y,-z
1/2+x,1/2+y,1/2-z
1/2-x,1/2+y,z
1/2+x,1/2-y,1/2+z
loop_
_atom_site_type_symbol
_atom_site_label
_atom_site_fract_x
_atom_site_fract_y
_atom_site_fract_z
Si Si1 0.676053 0.589301 0.250000
Si Si2 0.682991 0.081051 0.617927
Si Si3 0.184219 0.828692 0.004693
Si Si4 0.176713 0.083418 0.750000
Si Si5 0.813445 0.077355 0.384748
O O1 0.500000 0.614917 0.250000
O O2 0.675712 0.503057 0.250000
O O3 0.742409 0.607758 0.182278
O O4 0.500000 0.080274 0.616355
O O5 0.748944 0.131306 0.564542
O O6 0.740455 0.104650 0.686320
O O7 0.746215 0.001307 0.607110
O O8 0.000000 0.826853 0.008780
O O9 0.250000 0.750000 0.000000
O O10 0.225564 0.873221 0.942705
O O11 0.000000 0.106644 0.750000
O O12 0.000000 0.070902 0.381346
#
# Coordination Sequence:
#
# PCOD9475534 Si02
#       5
#     8  16  16   8  16
#     4   7  12  27  52  79 102 127 167 217 265 313
#     4  11  21  34  56  85 112 140 179 225 272 325
#     4  11  23  38  54  75 108 149 190 230 275 325
#     4   9  17  33  56  81 110 141 175 219 269 321
#     4   9  18  34  57  81 106 141 181 222 272 327
#
# _framework density 18.157160999999999
#
# number of rings (size 3 to 8) (size 9 to 14) (size 15 to 20)
#    0.000    2.250    0.000    5.625    0.000    5.000 
#    0.000    1.250    0.000    3.000    0.000    0.000 
#    0.000    0.000    0.000    0.000    0.000    0.000 
#
# Total GULP energy -178522.058460 kJ/mol
# GULP energy per Si atom -5578.814327 kJ/mol
# Density = 1.811583 g / cm^3
# Si number density = 18.157161 Si / 1000 Ang^3
#
#
#
# Elastic Constant Matrix: (Units=GPa)
#
#
# Indices 1 2 3 4 5 6 
#
# 1 73.0551 43.1431 70.0298 0.0000 0.0000 0.0000
# 2 43.1431 92.9380 98.4866 0.0000 0.0000 0.0000
# 3 70.0298 98.4866 224.7107 0.0000 0.0000 0.0000
# 4 0.0000 0.0000 0.0000 -6.7859 0.0000 0.0000
# 5 0.0000 0.0000 0.0000 0.0000 21.4173 0.0000
# 6 0.0000 0.0000 0.0000 0.0000 0.0000 25.2854
#
#
#
# Elastic Compliance Matrix: (Units=1/GPa)
#
#
# Indices 1 2 3 4 5 6 
#
# 1 0.020783 -0.005199 -0.004198 0.000000 0.000000 0.000000
# 2 -0.005199 0.021392 -0.007755 0.000000 0.000000 0.000000
# 3 -0.004198 -0.007755 0.009158 0.000000 0.000000 0.000000
# 4 0.000000 0.000000 0.000000 -0.147365 0.000000 0.000000
# 5 0.000000 0.000000 0.000000 0.000000 0.046691 0.000000
# 6 0.000000 0.000000 0.000000 0.000000 0.000000 0.039548
#
#
# Mechanical properties :
#
#
# Convention : Reuss Voigt Hill
#
# Bulk Modulus (GPa) = 58.72954 90.44695 74.58825
# Shear Modulus (GPa) = 165.63116 19.91966 92.77541
#
# Velocity S-wave (km/s) = 9.56132 3.31580 7.15589
# Velocity P-wave (km/s) = 12.42204 8.03622 10.46155
#
# Compressibility (1/GPa) = 0.01702721
#
# Stress axis : x y z
#
# Youngs Moduli (GPa) = 48.11635 46.74739 109.19858
#
# Poissons Ratio (x) = 0.24302 0.45846
# Poissons Ratio (y) = 0.25014 0.84688
# Poissons Ratio (z) = 0.20201 0.36254
#
# Static dielectric constant tensor:
#      x y z
#    x 1.616510 0.000000 0.000000 
#    y 0.000000 1.580560 0.000000 
#    z 0.000000 0.000000 1.654990 
# 
# From -- ./inp_files/50370.got.cif
#   From: 2010.05.17/outbox.cif.g08.bks.cpg/sg63_26_cif.got.tgz:50370.got - 2010.06.03 15:47:04.
