data_PCOD9475826
_publ_section_title
;
Structure prediction by ZEFSAII (Michael W. Deem and Ramdas Pophale) SiO2 
 PCOD9475826
Probable space group: C M C M
;
_chemical_formula_sum "Si O2"
_cell_formula_units_Z 64
_cell_length_a 33.802513
_cell_length_b 8.680889
_cell_length_c 9.719137
_cell_angle_alpha 90.000000
_cell_angle_beta 90.000000
_cell_angle_gamma 90.000000
_cell_volume 2851.943356
_symmetry_space_group_name_H-M "C M C M"
_symmetry_group_IT_number 63
_symmetry_cell_setting 'orthorhombic'
loop_
_space_group_symop_operation_xyz
x,y,z
-x,-y,1/2+z
x,-y,-z
-x,y,1/2-z
-x,-y,-z
x,y,1/2-z
-x,y,z
x,-y,1/2+z
1/2+x,1/2+y,z
1/2-x,1/2-y,1/2+z
1/2+x,1/2-y,-z
1/2-x,1/2+y,1/2-z
1/2-x,1/2-y,-z
1/2+x,1/2+y,1/2-z
1/2-x,1/2+y,z
1/2+x,1/2-y,1/2+z
loop_
_atom_site_type_symbol
_atom_site_label
_atom_site_fract_x
_atom_site_fract_y
_atom_site_fract_z
Si Si1 0.405348 0.000000 0.500000
Si Si2 0.655307 0.752547 0.495802
Si Si3 0.706690 0.230677 0.250000
Si Si4 0.795234 0.897517 0.750000
Si Si5 0.596904 0.500000 0.000000
Si Si6 0.046083 0.353615 0.750000
Si Si7 0.454502 0.520382 0.250000
O O1 0.374967 0.876357 0.435458
O O2 0.431851 0.919620 0.615996
O O3 0.683252 0.820167 0.613803
O O4 0.681567 0.667874 0.382111
O O5 0.626082 0.626208 0.563542
O O6 0.750848 0.167235 0.250000
O O7 0.706747 0.417431 0.250000
O O8 0.568960 0.427839 0.884624
O O9 0.046752 0.166872 0.750000
O O10 0.000000 0.399984 0.750000
O O11 0.500000 0.569645 0.250000
#
# Coordination Sequence:
#
# PCOD9475826 Si02
#       7
#     8  16   8   8   8   8   8
#     4  12  25  44  69 100 128 182 224 268 329 398
#     4  12  25  43  69  94 132 170 223 270 322 392
#     4  12  26  45  67  96 135 170 214 273 334 387
#     4  12  26  44  66  99 130 174 214 271 332 393
#     4  12  21  46  69  96 132 176 220 280 327 390
#     4  11  24  45  65  98 141 175 216 278 334 394
#     4  11  24  42  68 101 136 173 220 278 336 392
#
# _framework density 22.440837999999999
#
# number of rings (size 3 to 8) (size 9 to 14) (size 15 to 20)
#    0.000    0.250    5.000    4.500    3.500    0.000 
#    0.000    1.250    0.000    0.000    0.000    0.000 
#    0.000    0.000    0.000    0.000    0.000    0.000 
#
# Total GULP energy -179157.065364 kJ/mol
# GULP energy per Si atom -5598.658293 kJ/mol
# Density = 2.238976 g / cm^3
# Si number density = 22.440838 Si / 1000 Ang^3
#
#
#
# Elastic Constant Matrix: (Units=GPa)
#
#
# Indices 1 2 3 4 5 6 
#
# 1 188.7145 30.7054 52.5712 0.0000 0.0000 0.0000
# 2 30.7054 55.5572 -11.3276 0.0000 0.0000 0.0000
# 3 52.5712 -11.3276 105.9090 0.0000 0.0000 0.0000
# 4 0.0000 0.0000 0.0000 11.6850 0.0000 0.0000
# 5 0.0000 0.0000 0.0000 0.0000 40.3882 0.0000
# 6 0.0000 0.0000 0.0000 0.0000 0.0000 32.5082
#
#
#
# Elastic Compliance Matrix: (Units=1/GPa)
#
#
# Indices 1 2 3 4 5 6 
#
# 1 0.007229 -0.004832 -0.004105 0.000000 0.000000 0.000000
# 2 -0.004832 0.021631 0.004712 0.000000 0.000000 0.000000
# 3 -0.004105 0.004712 0.011984 0.000000 0.000000 0.000000
# 4 0.000000 0.000000 0.000000 0.085580 0.000000 0.000000
# 5 0.000000 0.000000 0.000000 0.000000 0.024760 0.000000
# 6 0.000000 0.000000 0.000000 0.000000 0.000000 0.030761
#
#
# Mechanical properties :
#
#
# Convention : Reuss Voigt Hill
#
# Bulk Modulus (GPa) = 30.87061 54.89762 42.88412
# Shear Modulus (GPa) = 24.85183 35.46507 30.15845
#
# Velocity S-wave (km/s) = 3.33143 3.97971 3.66991
# Velocity P-wave (km/s) = 5.34642 6.75528 6.09172
#
# Compressibility (1/GPa) = 0.03239327
#
# Stress axis : x y z
#
# Youngs Moduli (GPa) = 138.33494 46.23007 83.44628
#
# Poissons Ratio (x) = 0.22339 0.34255
# Poissons Ratio (y) = 0.66847 -0.39322
# Poissons Ratio (z) = 0.56788 -0.21785
#
# Static dielectric constant tensor:
#      x y z
#    x 1.769960 0.000000 0.000000 
#    y 0.000000 1.865890 0.000000 
#    z 0.000000 0.000000 1.777300 
# 
# From -- ./inp_files/25549.got.cif
#   From: 2010.05.17/outbox.cif.g08.bks.cpg/sg63_13_cif.got.tgz:25549.got - 2010.06.03 15:47:04.
