data_PCOD9475406
_publ_section_title
;
Structure prediction by ZEFSAII (Michael W. Deem and Ramdas Pophale) SiO2 
 PCOD9475406
Probable space group: C M C M
;
_chemical_formula_sum "Si O2"
_cell_formula_units_Z 72
_cell_length_a 14.913617
_cell_length_b 12.284096
_cell_length_c 22.386336
_cell_angle_alpha 90.000000
_cell_angle_beta 90.000000
_cell_angle_gamma 90.000000
_cell_volume 4101.183537
_symmetry_space_group_name_H-M "C M C M"
_symmetry_group_IT_number 63
_symmetry_cell_setting 'orthorhombic'
loop_
_space_group_symop_operation_xyz
x,y,z
-x,-y,1/2+z
x,-y,-z
-x,y,1/2-z
-x,-y,-z
x,y,1/2-z
-x,y,z
x,-y,1/2+z
1/2+x,1/2+y,z
1/2-x,1/2-y,1/2+z
1/2+x,1/2-y,-z
1/2-x,1/2+y,1/2-z
1/2-x,1/2-y,-z
1/2+x,1/2+y,1/2-z
1/2-x,1/2+y,z
1/2+x,1/2-y,1/2+z
loop_
_atom_site_type_symbol
_atom_site_label
_atom_site_fract_x
_atom_site_fract_y
_atom_site_fract_z
Si Si1 0.000000 0.988560 0.679030
Si Si2 0.653405 0.118192 0.077526
Si Si3 0.000000 0.874986 0.512388
Si Si4 0.000000 0.226825 0.883762
Si Si5 0.355278 0.343237 0.610884
Si Si6 0.393514 0.868856 0.059663
O O1 0.000000 0.114138 0.654448
O O2 0.000000 0.991948 0.750000
O O3 0.913888 0.918065 0.655500
O O4 0.588057 0.195855 0.116502
O O5 0.753472 0.122732 0.102966
O O6 0.620354 0.993890 0.077570
O O7 0.651184 0.148056 0.006141
O O8 0.089492 0.856045 0.549622
O O9 0.000000 0.814560 0.451112
O O10 0.000000 0.000000 0.500000
O O11 0.359533 0.211308 0.612341
O O12 0.500000 0.851774 0.051576
#
# Coordination Sequence:
#
# PCOD9475406 Si02
#       6
#     8  16   8   8  16  16
#     4  11  27  47  62  78 109 162 219 264 291 333
#     4  11  22  31  57  96 128 156 183 231 302 370
#     4  11  20  31  52  91 123 153 194 234 291 368
#     4  12  21  36  59  86 126 153 185 241 305 361
#     4  11  22  36  61  86 121 160 201 239 295 358
#     4  11  19  35  53  91 139 162 177 226 293 381
#
# _framework density 17.555907000000001
#
# number of rings (size 3 to 8) (size 9 to 14) (size 15 to 20)
#    0.000    0.889    8.889    1.333    6.222    0.000 
#    0.000    1.111    0.000    2.667    0.000    0.000 
#    0.000    0.000    0.000    0.000    0.000    0.000 
#
# Total GULP energy -200428.294089 kJ/mol
# GULP energy per Si atom -5567.452614 kJ/mol
# Density = 1.751595 g / cm^3
# Si number density = 17.555907 Si / 1000 Ang^3
#
#
#
# Elastic Constant Matrix: (Units=GPa)
#
#
# Indices 1 2 3 4 5 6 
#
# 1 148.5167 40.5840 43.7813 0.0000 0.0000 0.0000
# 2 40.5840 132.8401 47.3546 0.0000 0.0000 0.0000
# 3 43.7813 47.3546 81.9299 0.0000 0.0000 0.0000
# 4 0.0000 0.0000 0.0000 11.6093 0.0000 0.0000
# 5 0.0000 0.0000 0.0000 0.0000 -6.4538 0.0000
# 6 0.0000 0.0000 0.0000 0.0000 0.0000 19.7965
#
#
#
# Elastic Compliance Matrix: (Units=1/GPa)
#
#
# Indices 1 2 3 4 5 6 
#
# 1 0.008136 -0.001179 -0.003667 0.000000 0.000000 0.000000
# 2 -0.001179 0.009652 -0.004949 0.000000 0.000000 0.000000
# 3 -0.003667 -0.004949 0.017025 0.000000 0.000000 0.000000
# 4 0.000000 0.000000 0.000000 0.086138 0.000000 0.000000
# 5 0.000000 0.000000 0.000000 0.000000 -0.154948 0.000000
# 6 0.000000 0.000000 0.000000 0.000000 0.000000 0.050514
#
#
# Mechanical properties :
#
#
# Convention : Reuss Voigt Hill
#
# Bulk Modulus (GPa) = 65.68012 69.63628 67.65820
# Shear Modulus (GPa) = 121.41541 20.42819 70.92180
#
# Velocity S-wave (km/s) = 8.32523 3.41487 6.36281
# Velocity P-wave (km/s) = 11.39762 7.43640 9.62304
#
# Compressibility (1/GPa) = 0.01522531
#
# Stress axis : x y z
#
# Youngs Moduli (GPa) = 122.90761 103.60388 58.73606
#
# Poissons Ratio (x) = 0.12211 0.21536
# Poissons Ratio (y) = 0.14487 0.29068
# Poissons Ratio (z) = 0.45064 0.51273
#
# Static dielectric constant tensor:
#      x y z
#    x 1.600430 0.000000 0.000000 
#    y 0.000000 1.742570 0.000000 
#    z 0.000000 0.000000 1.566570 
# 
# From -- ./inp_files/62499.got.cif
#   From: 2010.05.17/outbox.cif.g08.bks.cpg/sg63_32_cif.got.tgz:62499.got - 2010.06.03 15:47:04.
