data_PCOD9475471
_publ_section_title
;
Structure prediction by ZEFSAII (Michael W. Deem and Ramdas Pophale) SiO2 
 PCOD9475471
Probable space group: C M C M
;
_chemical_formula_sum "Si O2"
_cell_formula_units_Z 96
_cell_length_a 23.313849
_cell_length_b 13.341121
_cell_length_c 18.368228
_cell_angle_alpha 90.000000
_cell_angle_beta 90.000000
_cell_angle_gamma 90.000000
_cell_volume 5713.122864
_symmetry_space_group_name_H-M "C M C M"
_symmetry_group_IT_number 63
_symmetry_cell_setting 'orthorhombic'
loop_
_space_group_symop_operation_xyz
x,y,z
-x,-y,1/2+z
x,-y,-z
-x,y,1/2-z
-x,-y,-z
x,y,1/2-z
-x,y,z
x,-y,1/2+z
1/2+x,1/2+y,z
1/2-x,1/2-y,1/2+z
1/2+x,1/2-y,-z
1/2-x,1/2+y,1/2-z
1/2-x,1/2-y,-z
1/2+x,1/2+y,1/2-z
1/2-x,1/2+y,z
1/2+x,1/2-y,1/2+z
loop_
_atom_site_type_symbol
_atom_site_label
_atom_site_fract_x
_atom_site_fract_y
_atom_site_fract_z
Si Si1 0.742918 0.200039 0.579094
Si Si2 0.431611 0.091949 0.336226
Si Si3 0.845018 0.037648 0.917824
Si Si4 0.431228 0.678577 0.663892
Si Si5 0.737941 0.399492 0.836123
Si Si6 0.337454 0.974288 0.084966
O O1 0.750000 0.250000 0.500000
O O2 0.793617 0.119009 0.583215
O O3 0.746427 0.285475 0.639379
O O4 0.683469 0.140093 0.589353
O O5 0.419389 0.081258 0.250000
O O6 0.500000 0.083550 0.345840
O O7 0.414786 0.206610 0.357118
O O8 0.397325 0.009374 0.381332
O O9 0.898354 0.095057 0.882084
O O10 0.820043 0.945326 0.870885
O O11 0.855039 0.000000 0.000000
O O12 0.417912 0.667388 0.750000
O O13 0.500000 0.670847 0.655961
O O14 0.737947 0.411328 0.750000
O O15 0.790314 0.460656 0.871744
O O16 0.334940 0.000000 0.000000
#
# Coordination Sequence:
#
# PCOD9475471 Si02
#       6
#    16  16  16  16  16  16
#     4  11  20  37  53  76 112 147 176 216 276 327
#     4   9  19  36  56  80 109 139 179 229 272 318
#     4  11  21  34  57  78 109 145 178 228 274 326
#     4   9  19  36  58  82 108 140 181 230 278 322
#     4  11  22  35  53  81 109 140 183 225 267 325
#     4  11  21  33  56  78 107 145 178 222 270 326
#
# _framework density 16.803419000000002
#
# number of rings (size 3 to 8) (size 9 to 14) (size 15 to 20)
#    0.000    1.667    3.333    4.000    0.000    6.000 
#    0.000    0.000    0.000    1.000    0.000    2.333 
#    0.000    0.000    0.000    0.000    0.000    0.000 
#
# Total GULP energy -267813.598193 kJ/mol
# GULP energy per Si atom -5579.449962 kJ/mol
# Density = 1.676517 g / cm^3
# Si number density = 16.803419 Si / 1000 Ang^3
#
#
#
# Elastic Constant Matrix: (Units=GPa)
#
#
# Indices 1 2 3 4 5 6 
#
# 1 51.8632 31.9971 39.1858 0.0000 0.0000 0.0000
# 2 31.9971 84.9559 43.3608 0.0000 0.0000 0.0000
# 3 39.1858 43.3608 120.9515 0.0000 0.0000 0.0000
# 4 0.0000 0.0000 0.0000 32.0440 0.0000 0.0000
# 5 0.0000 0.0000 0.0000 0.0000 918.0721 0.0000
# 6 0.0000 0.0000 0.0000 0.0000 0.0000 35.8364
#
#
#
# Elastic Compliance Matrix: (Units=1/GPa)
#
#
# Indices 1 2 3 4 5 6 
#
# 1 0.028963 -0.007490 -0.006699 0.000000 0.000000 0.000000
# 2 -0.007490 0.016344 -0.003433 0.000000 0.000000 0.000000
# 3 -0.006699 -0.003433 0.011669 0.000000 0.000000 0.000000
# 4 0.000000 0.000000 0.000000 0.031207 0.000000 0.000000
# 5 0.000000 0.000000 0.000000 0.000000 0.001089 0.000000
# 6 0.000000 0.000000 0.000000 0.000000 0.000000 0.027905
#
#
# Mechanical properties :
#
#
# Convention : Reuss Voigt Hill
#
# Bulk Modulus (GPa) = 46.01103 54.09533 50.05318
# Shear Modulus (GPa) = 31.31599 206.73896 119.02748
#
# Velocity S-wave (km/s) = 4.32171 11.10410 8.42550
# Velocity P-wave (km/s) = 7.23493 14.02370 11.15815
#
# Compressibility (1/GPa) = 0.02173392
#
# Stress axis : x y z
#
# Youngs Moduli (GPa) = 34.52637 61.18584 85.70039
#
# Poissons Ratio (x) = 0.45826 0.57406
# Poissons Ratio (y) = 0.25859 0.29418
# Poissons Ratio (z) = 0.23128 0.21003
#
# Static dielectric constant tensor:
#      x y z
#    x 1.578970 0.000000 0.000000 
#    y 0.000000 1.600330 0.000000 
#    z 0.000000 0.000000 1.550800 
# 
# From -- ./inp_files/47982.got.cif
#   From: 2010.05.17/outbox.cif.g08.bks.cpg/sg63_24_cif.got.tgz:47982.got - 2010.06.03 15:47:04.
