data_PCOD9475698
_publ_section_title
;
Structure prediction by ZEFSAII (Michael W. Deem and Ramdas Pophale) SiO2 
 PCOD9475698
Probable space group: C M C M
;
_chemical_formula_sum "Si O2"
_cell_formula_units_Z 56
_cell_length_a 14.957257
_cell_length_b 8.947275
_cell_length_c 20.725967
_cell_angle_alpha 90.000000
_cell_angle_beta 90.000000
_cell_angle_gamma 90.000000
_cell_volume 2773.687594
_symmetry_space_group_name_H-M "C M C M"
_symmetry_group_IT_number 63
_symmetry_cell_setting 'orthorhombic'
loop_
_space_group_symop_operation_xyz
x,y,z
-x,-y,1/2+z
x,-y,-z
-x,y,1/2-z
-x,-y,-z
x,y,1/2-z
-x,y,z
x,-y,1/2+z
1/2+x,1/2+y,z
1/2-x,1/2-y,1/2+z
1/2+x,1/2-y,-z
1/2-x,1/2+y,1/2-z
1/2-x,1/2-y,-z
1/2+x,1/2+y,1/2-z
1/2-x,1/2+y,z
1/2+x,1/2-y,1/2+z
loop_
_atom_site_type_symbol
_atom_site_label
_atom_site_fract_x
_atom_site_fract_y
_atom_site_fract_z
Si Si1 0.500000 0.329984 0.523767
Si Si2 0.325709 0.349879 0.327257
Si Si3 0.500000 0.191909 0.385127
Si Si4 0.851068 0.806276 0.632031
Si Si5 0.500000 0.895149 0.182693
O O1 0.500000 0.500000 0.500000
O O2 0.500000 0.229144 0.460519
O O3 0.410846 0.308069 0.566976
O O4 0.312805 0.331386 0.250000
O O5 0.413941 0.264803 0.351172
O O6 0.242923 0.278773 0.366338
O O7 0.336570 0.524874 0.343912
O O8 0.500000 0.015237 0.373648
O O9 0.914822 0.710901 0.678585
O O10 0.500000 0.981686 0.250000
#
# Coordination Sequence:
#
# PCOD9475698 Si02
#       5
#     8  16   8  16   8
#     4  11  23  51  68  98 140 180 240 272 337 419
#     4  12  23  41  66 102 133 175 228 282 347 404
#     4  12  25  42  70  97 140 182 223 285 338 406
#     4  11  25  42  70  96 138 183 222 287 337 401
#     4  11  22  42  66  99 133 175 225 281 346 408
#
# _framework density 20.189729
#
# number of rings (size 3 to 8) (size 9 to 14) (size 15 to 20)
#    0.000    0.571    2.857    6.429    0.000    3.429 
#    0.000    0.000    0.000    0.000    0.000    0.000 
#    0.000    0.000    0.000    0.000    0.000    0.000 
#
# Total GULP energy -156532.749867 kJ/mol
# GULP energy per Si atom -5590.455352 kJ/mol
# Density = 2.014378 g / cm^3
# Si number density = 20.189729 Si / 1000 Ang^3
#
#
#
# Elastic Constant Matrix: (Units=GPa)
#
#
# Indices 1 2 3 4 5 6 
#
# 1 189.9134 76.6546 48.2716 0.0000 0.0000 0.0000
# 2 76.6546 138.1249 51.6218 0.0000 0.0000 0.0000
# 3 48.2716 51.6218 148.6856 0.0000 0.0000 0.0000
# 4 0.0000 0.0000 0.0000 37.6968 0.0000 0.0000
# 5 0.0000 0.0000 0.0000 0.0000 16.7592 0.0000
# 6 0.0000 0.0000 0.0000 0.0000 0.0000 35.1907
#
#
#
# Elastic Compliance Matrix: (Units=1/GPa)
#
#
# Indices 1 2 3 4 5 6 
#
# 1 0.006925 -0.003451 -0.001050 0.000000 0.000000 0.000000
# 2 -0.003451 0.010039 -0.002365 0.000000 0.000000 0.000000
# 3 -0.001050 -0.002365 0.007888 0.000000 0.000000 0.000000
# 4 0.000000 0.000000 0.000000 0.026527 0.000000 0.000000
# 5 0.000000 0.000000 0.000000 0.000000 0.059669 0.000000
# 6 0.000000 0.000000 0.000000 0.000000 0.000000 0.028417
#
#
# Mechanical properties :
#
#
# Convention : Reuss Voigt Hill
#
# Bulk Modulus (GPa) = 89.93113 92.20219 91.06666
# Shear Modulus (GPa) = 31.86676 37.94107 34.90391
#
# Velocity S-wave (km/s) = 3.97717 4.33971 4.16239
# Velocity P-wave (km/s) = 8.10742 8.41889 8.26462
#
# Compressibility (1/GPa) = 0.01111962
#
# Stress axis : x y z
#
# Youngs Moduli (GPa) = 144.39680 99.61352 126.77987
#
# Poissons Ratio (x) = 0.34375 0.13315
# Poissons Ratio (y) = 0.49829 0.29984
# Poissons Ratio (z) = 0.15166 0.23559
#
# Static dielectric constant tensor:
#      x y z
#    x 1.411590 0.000000 0.000000 
#    y 0.000000 1.687990 0.000000 
#    z 0.000000 0.000000 1.717690 
# 
# From -- ./inp_files/45034.got.cif
#   From: 2010.05.17/outbox.cif.g08.bks.cpg/sg63_23_cif.got.tgz:45034.got - 2010.06.03 15:47:04.
