data_PCOD9475502
_publ_section_title
;
Structure prediction by ZEFSAII (Michael W. Deem and Ramdas Pophale) SiO2 
 PCOD9475502
Probable space group: C M C M
;
_chemical_formula_sum "Si O2"
_cell_formula_units_Z 96
_cell_length_a 8.802519
_cell_length_b 25.891281
_cell_length_c 25.947695
_cell_angle_alpha 90.000000
_cell_angle_beta 90.000000
_cell_angle_gamma 90.000000
_cell_volume 5913.700063
_symmetry_space_group_name_H-M "C M C M"
_symmetry_group_IT_number 63
_symmetry_cell_setting 'orthorhombic'
loop_
_space_group_symop_operation_xyz
x,y,z
-x,-y,1/2+z
x,-y,-z
-x,y,1/2-z
-x,-y,-z
x,y,1/2-z
-x,y,z
x,-y,1/2+z
1/2+x,1/2+y,z
1/2-x,1/2-y,1/2+z
1/2+x,1/2-y,-z
1/2-x,1/2+y,1/2-z
1/2-x,1/2-y,-z
1/2+x,1/2+y,1/2-z
1/2-x,1/2+y,z
1/2+x,1/2-y,1/2+z
loop_
_atom_site_type_symbol
_atom_site_label
_atom_site_fract_x
_atom_site_fract_y
_atom_site_fract_z
Si Si1 0.326543 0.687691 0.250000
Si Si2 0.825800 0.997653 0.062518
Si Si3 0.825610 0.686814 0.750000
Si Si4 0.316384 0.611313 0.053677
Si Si5 0.684728 0.303543 0.861751
Si Si6 0.179925 0.609688 0.939578
Si Si7 0.681138 0.689337 0.641117
O O1 0.500000 0.668209 0.250000
O O2 0.329136 0.750377 0.250000
O O3 0.260339 0.674824 0.306014
O O4 0.774727 0.055244 0.077419
O O5 0.000000 0.989069 0.079412
O O6 0.725543 0.948603 0.076775
O O7 0.827109 0.000000 0.000000
O O8 0.742342 0.672140 0.697293
O O9 0.000000 0.668991 0.750000
O O10 0.500000 0.610153 0.046404
O O11 0.278279 0.657522 0.092285
O O12 0.239832 0.617061 0.998006
O O13 0.500000 0.298688 0.858948
O O14 0.753227 0.246747 0.869108
O O15 0.259312 0.650427 0.902114
O O16 0.000000 0.616260 0.938012
O O17 0.500000 0.691227 0.641543
#
# Coordination Sequence:
#
# PCOD9475502 Si02
#       7
#     8  16   8  16  16  16  16
#     4   7  12  25  47  70  91 118 153 190 224 270
#     4   8  15  30  49  68  92 123 160 201 242 287
#     4   9  17  33  53  72  95 124 161 200 236 280
#     4   9  18  32  50  71  97 129 161 198 246 296
#     4   9  17  31  50  72  98 128 161 196 239 289
#     4  11  21  32  48  70  96 128 164 203 245 289
#     4  11  21  33  50  73 100 129 161 198 240 285
#
# _framework density 16.233491999999998
#
# number of rings (size 3 to 8) (size 9 to 14) (size 15 to 20)
#    0.000    2.667    0.000    5.250    0.000    4.333 
#    0.000    0.000    0.000    1.000    0.000    3.500 
#    0.000    0.000    0.000    0.000    0.000    0.000 
#
# Total GULP energy -267375.841744 kJ/mol
# GULP energy per Si atom -5570.330036 kJ/mol
# Density = 1.619654 g / cm^3
# Si number density = 16.233492 Si / 1000 Ang^3
#
#
#
# Elastic Constant Matrix: (Units=GPa)
#
#
# Indices 1 2 3 4 5 6 
#
# 1 78.4092 46.8357 48.6533 0.0000 0.0000 0.0000
# 2 46.8357 100.5911 67.3482 0.0000 0.0000 0.0000
# 3 48.6533 67.3482 100.6365 0.0000 0.0000 0.0000
# 4 0.0000 0.0000 0.0000 -3.6823 0.0000 0.0000
# 5 0.0000 0.0000 0.0000 0.0000 21.2162 0.0000
# 6 0.0000 0.0000 0.0000 0.0000 0.0000 22.8213
#
#
#
# Elastic Compliance Matrix: (Units=1/GPa)
#
#
# Indices 1 2 3 4 5 6 
#
# 1 0.019525 -0.005020 -0.006080 0.000000 0.000000 0.000000
# 2 -0.005020 0.019302 -0.010490 0.000000 0.000000 0.000000
# 3 -0.006080 -0.010490 0.019896 0.000000 0.000000 0.000000
# 4 0.000000 0.000000 0.000000 -0.271566 0.000000 0.000000
# 5 0.000000 0.000000 0.000000 0.000000 0.047134 0.000000
# 6 0.000000 0.000000 0.000000 0.000000 0.000000 0.043819
#
#
# Mechanical properties :
#
#
# Convention : Reuss Voigt Hill
#
# Bulk Modulus (GPa) = 64.33889 67.25680 65.79784
# Shear Modulus (GPa) = -68.00136 15.85766 -26.07185
#
# Velocity S-wave (km/s) = -6.47923 3.12885 -4.01191
# Velocity P-wave (km/s) = 4.03169 7.38741 4.37717
#
# Compressibility (1/GPa) = 0.01554270
#
# Stress axis : x y z
#
# Youngs Moduli (GPa) = 51.21669 51.80712 50.26022
#
# Poissons Ratio (x) = 0.26009 0.30557
# Poissons Ratio (y) = 0.25713 0.52725
# Poissons Ratio (z) = 0.31138 0.54348
#
# Static dielectric constant tensor:
#      x y z
#    x 1.548800 0.000000 0.000000 
#    y 0.000000 1.543220 0.000000 
#    z 0.000000 0.000000 1.547560 
# 
# From -- ./inp_files/60315.got.cif
#   From: 2010.05.17/outbox.cif.g08.bks.cpg/sg63_31_cif.got.tgz:60315.got - 2010.06.03 15:47:04.
