data_PCOD9475025
_publ_section_title
;
Structure prediction by ZEFSAII (Michael W. Deem and Ramdas Pophale) SiO2 
 PCOD9475025
Probable space group: C M C M
;
_chemical_formula_sum "Si O2"
_cell_formula_units_Z 80
_cell_length_a 8.716597
_cell_length_b 16.140918
_cell_length_c 29.309395
_cell_angle_alpha 90.000000
_cell_angle_beta 90.000000
_cell_angle_gamma 90.000000
_cell_volume 4123.652427
_symmetry_space_group_name_H-M "C M C M"
_symmetry_group_IT_number 63
_symmetry_cell_setting 'orthorhombic'
loop_
_space_group_symop_operation_xyz
x,y,z
-x,-y,1/2+z
x,-y,-z
-x,y,1/2-z
-x,-y,-z
x,y,1/2-z
-x,y,z
x,-y,1/2+z
1/2+x,1/2+y,z
1/2-x,1/2-y,1/2+z
1/2+x,1/2-y,-z
1/2-x,1/2+y,1/2-z
1/2-x,1/2-y,-z
1/2+x,1/2+y,1/2-z
1/2-x,1/2+y,z
1/2+x,1/2-y,1/2+z
loop_
_atom_site_type_symbol
_atom_site_label
_atom_site_fract_x
_atom_site_fract_y
_atom_site_fract_z
Si Si1 0.683707 0.466059 0.949542
Si Si2 0.185066 0.283059 0.139643
Si Si3 0.316521 0.032828 0.858265
Si Si4 0.183008 0.282611 0.547521
Si Si5 0.814658 0.878052 0.697223
O O1 0.500000 0.461596 0.944336
O O2 0.753159 0.521514 0.909468
O O3 0.754644 0.375108 0.944695
O O4 0.718110 0.500000 0.000000
O O5 0.223708 0.374417 0.158124
O O6 0.258665 0.270983 0.090068
O O7 0.233407 0.206068 0.171237
O O8 0.000000 0.279197 0.134903
O O9 0.500000 0.025207 0.858916
O O10 0.248616 0.958903 0.828116
O O11 0.250000 0.250000 0.500000
O O12 0.000000 0.281986 0.545663
O O13 0.767108 0.876408 0.750000
O O14 0.000000 0.880958 0.695507
#
# Coordination Sequence:
#
# PCOD9475025 Si02
#       5
#    16  16  16  16  16
#     4  11  23  39  60  88 125 168 211 257 313 375
#     4  10  22  41  64  91 128 167 209 258 316 378
#     4  11  23  39  63  95 127 164 210 264 315 372
#     4  12  24  38  60  90 126 166 211 258 312 372
#     4  10  22  42  67  92 124 170 216 262 319 379
#
# _framework density 19.400278
#
# number of rings (size 3 to 8) (size 9 to 14) (size 15 to 20)
#    0.000    1.200    2.000    4.200    0.000    7.600 
#    0.000    2.000    0.000    0.000    0.000    0.000 
#    0.000    0.000    0.000    0.000    0.000    0.000 
#
# Total GULP energy -223677.784974 kJ/mol
# GULP energy per Si atom -5591.944624 kJ/mol
# Density = 1.935612 g / cm^3
# Si number density = 19.400278 Si / 1000 Ang^3
#
#
#
# Elastic Constant Matrix: (Units=GPa)
#
#
# Indices 1 2 3 4 5 6 
#
# 1 28.2315 39.9331 32.9581 0.0000 0.0000 0.0000
# 2 39.9331 172.1378 71.4389 0.0000 0.0000 0.0000
# 3 32.9581 71.4389 137.2139 0.0000 0.0000 0.0000
# 4 0.0000 0.0000 0.0000 22.1783 0.0000 0.0000
# 5 0.0000 0.0000 0.0000 0.0000 18.6441 0.0000
# 6 0.0000 0.0000 0.0000 0.0000 0.0000 24.3514
#
#
#
# Elastic Compliance Matrix: (Units=1/GPa)
#
#
# Indices 1 2 3 4 5 6 
#
# 1 0.060710 -0.010246 -0.009248 0.000000 0.000000 0.000000
# 2 -0.010246 0.009140 -0.002297 0.000000 0.000000 0.000000
# 3 -0.009248 -0.002297 0.010705 0.000000 0.000000 0.000000
# 4 0.000000 0.000000 0.000000 0.045089 0.000000 0.000000
# 5 0.000000 0.000000 0.000000 0.000000 0.053636 0.000000
# 6 0.000000 0.000000 0.000000 0.000000 0.000000 0.041065
#
#
# Mechanical properties :
#
#
# Convention : Reuss Voigt Hill
#
# Bulk Modulus (GPa) = 27.04694 69.58259 48.31477
# Shear Modulus (GPa) = 18.09941 25.91830 22.00886
#
# Velocity S-wave (km/s) = 3.05773 3.65907 3.37183
# Velocity P-wave (km/s) = 5.14180 7.33460 6.33381
#
# Compressibility (1/GPa) = 0.03697275
#
# Stress axis : x y z
#
# Youngs Moduli (GPa) = 16.47176 109.41386 93.41135
#
# Poissons Ratio (x) = 1.12102 0.86386
# Poissons Ratio (y) = 0.16877 0.21461
# Poissons Ratio (z) = 0.15233 0.25138
#
# Static dielectric constant tensor:
#      x y z
#    x 1.652000 0.000000 0.000000 
#    y 0.000000 0.622810 0.000000 
#    z 0.000000 0.000000 1.662330 
# 
# From -- ./inp_files/71563.got.cif
#   From: 2010.05.17/outbox.cif.g08.bks.cpg/sg63_36_cif.got.tgz:71563.got - 2010.06.03 15:47:04.
