data_PCOD9475694
_publ_section_title
;
Structure prediction by ZEFSAII (Michael W. Deem and Ramdas Pophale) SiO2 
 PCOD9475694
Probable space group: C M C M
;
_chemical_formula_sum "Si O2"
_cell_formula_units_Z 68
_cell_length_a 22.750386
_cell_length_b 8.302996
_cell_length_c 17.035737
_cell_angle_alpha 90.000000
_cell_angle_beta 90.000000
_cell_angle_gamma 90.000000
_cell_volume 3217.988777
_symmetry_space_group_name_H-M "C M C M"
_symmetry_group_IT_number 63
_symmetry_cell_setting 'orthorhombic'
loop_
_space_group_symop_operation_xyz
x,y,z
-x,-y,1/2+z
x,-y,-z
-x,y,1/2-z
-x,-y,-z
x,y,1/2-z
-x,y,z
x,-y,1/2+z
1/2+x,1/2+y,z
1/2-x,1/2-y,1/2+z
1/2+x,1/2-y,-z
1/2-x,1/2+y,1/2-z
1/2-x,1/2-y,-z
1/2+x,1/2+y,1/2-z
1/2-x,1/2+y,z
1/2+x,1/2-y,1/2+z
loop_
_atom_site_type_symbol
_atom_site_label
_atom_site_fract_x
_atom_site_fract_y
_atom_site_fract_z
Si Si1 0.433856 0.741503 0.438044
Si Si2 0.680898 0.068616 0.912456
Si Si3 0.713815 0.739569 0.659271
Si Si4 0.589951 0.619940 0.612987
Si Si5 0.500000 0.291996 0.250000
O O1 0.500000 0.802736 0.427388
O O2 0.384033 0.858949 0.406203
O O3 0.428265 0.566271 0.397832
O O4 0.421736 0.708555 0.530225
O O5 0.729454 0.202305 0.893089
O O6 0.692806 0.921429 0.854315
O O7 0.688395 0.000000 0.000000
O O8 0.727525 0.710511 0.750000
O O9 0.658854 0.631094 0.632417
O O10 0.551312 0.696958 0.681230
#
# Coordination Sequence:
#
# PCOD9475694 Si02
#       5
#    16  16  16  16   4
#     4  11  23  44  67 102 136 179 226 278 329 399
#     4  12  26  45  70  99 134 178 236 281 335 411
#     4  12  26  46  67 101 138 179 223 290 351 398
#     4  11  22  41  72 100 136 176 228 274 334 408
#     4  12  20  42  68 108 138 178 222 268 346 418
#
# _framework density 21.131212000000001
#
# number of rings (size 3 to 8) (size 9 to 14) (size 15 to 20)
#    0.000    0.471    5.882    3.529    3.294    0.471 
#    6.353    0.000    0.000    0.000    0.000    0.000 
#    0.000    0.000    0.000    0.000    0.000    0.000 
#
# Total GULP energy -189826.265097 kJ/mol
# GULP energy per Si atom -5583.125444 kJ/mol
# Density = 2.108312 g / cm^3
# Si number density = 21.131212 Si / 1000 Ang^3
#
#
#
# Elastic Constant Matrix: (Units=GPa)
#
#
# Indices 1 2 3 4 5 6 
#
# 1 188.9150 58.5747 40.9487 0.0000 0.0000 0.0000
# 2 58.5747 60.9804 14.3585 0.0000 0.0000 0.0000
# 3 40.9487 14.3585 16.0240 0.0000 0.0000 0.0000
# 4 0.0000 0.0000 0.0000 13.3482 0.0000 0.0000
# 5 0.0000 0.0000 0.0000 0.0000 -26.7291 0.0000
# 6 0.0000 0.0000 0.0000 0.0000 0.0000 27.5743
#
#
#
# Elastic Compliance Matrix: (Units=1/GPa)
#
#
# Indices 1 2 3 4 5 6 
#
# 1 0.013455 -0.006119 -0.028901 0.000000 0.000000 0.000000
# 2 -0.006119 0.023567 -0.005480 0.000000 0.000000 0.000000
# 3 -0.028901 -0.005480 0.141172 0.000000 0.000000 0.000000
# 4 0.000000 0.000000 0.000000 0.074916 0.000000 0.000000
# 5 0.000000 0.000000 0.000000 0.000000 -0.037412 0.000000
# 6 0.000000 0.000000 0.000000 0.000000 0.000000 0.036266
#
#
# Mechanical properties :
#
#
# Convention : Reuss Voigt Hill
#
# Bulk Modulus (GPa) = 10.28871 54.85369 32.57120
# Shear Modulus (GPa) = 13.68509 12.97451 13.32980
#
# Velocity S-wave (km/s) = 2.54761 2.48059 2.51432
# Velocity P-wave (km/s) = 3.67876 5.84973 4.88634
#
# Compressibility (1/GPa) = 0.09719391
#
# Stress axis : x y z
#
# Youngs Moduli (GPa) = 74.32035 42.43240 7.08358
#
# Poissons Ratio (x) = 0.25966 0.20472
# Poissons Ratio (y) = 0.45480 0.03881
# Poissons Ratio (z) = 2.14793 0.23251
#
# Static dielectric constant tensor:
#      x y z
#    x 1.760010 0.000000 0.000000 
#    y 0.000000 1.793980 0.000000 
#    z 0.000000 0.000000 1.733050 
# 
# From -- ./inp_files/46622.got.cif
#   From: 2010.05.17/outbox.cif.g08.bks.cpg/sg63_24_cif.got.tgz:46622.got - 2010.06.03 15:47:04.
