data_PCOD9475171
_publ_section_title
;
Structure prediction by ZEFSAII (Michael W. Deem and Ramdas Pophale) SiO2 
 PCOD9475171
Probable space group: C M C M
;
_chemical_formula_sum "Si O2"
_cell_formula_units_Z 116
_cell_length_a 21.969262
_cell_length_b 17.341610
_cell_length_c 16.037238
_cell_angle_alpha 90.000000
_cell_angle_beta 90.000000
_cell_angle_gamma 90.000000
_cell_volume 6109.904999
_symmetry_space_group_name_H-M "C M C M"
_symmetry_group_IT_number 63
_symmetry_cell_setting 'orthorhombic'
loop_
_space_group_symop_operation_xyz
x,y,z
-x,-y,1/2+z
x,-y,-z
-x,y,1/2-z
-x,-y,-z
x,y,1/2-z
-x,y,z
x,-y,1/2+z
1/2+x,1/2+y,z
1/2-x,1/2-y,1/2+z
1/2+x,1/2-y,-z
1/2-x,1/2+y,1/2-z
1/2-x,1/2-y,-z
1/2+x,1/2+y,1/2-z
1/2-x,1/2+y,z
1/2+x,1/2-y,1/2+z
loop_
_atom_site_type_symbol
_atom_site_label
_atom_site_fract_x
_atom_site_fract_y
_atom_site_fract_z
Si Si1 0.500000 0.738789 0.750000
Si Si2 0.259639 0.585809 0.490520
Si Si3 0.225389 0.187486 0.655912
Si Si4 0.071452 0.257471 0.077948
Si Si5 0.122236 0.445624 0.572447
Si Si6 0.177969 0.821722 0.842239
Si Si7 0.399295 0.228344 0.389628
Si Si8 0.571419 0.081385 0.844221
O O1 0.552883 0.742352 0.822836
O O2 0.284481 0.500000 0.500000
O O3 0.266214 0.629431 0.578657
O O4 0.189296 0.576314 0.460823
O O5 0.294753 0.628680 0.416961
O O6 0.218790 0.154143 0.750000
O O7 0.283865 0.242523 0.656456
O O8 0.167534 0.242820 0.637269
O O9 0.109485 0.202146 0.137184
O O10 0.087428 0.347141 0.096459
O O11 0.000000 0.250538 0.091508
O O12 0.088021 0.240817 0.982410
O O13 0.092435 0.500000 0.500000
O O14 0.094601 0.364795 0.601805
O O15 0.115669 0.508360 0.645612
O O16 0.184752 0.856454 0.750000
O O17 0.575669 0.111322 0.750000
O O18 0.500000 0.058967 0.857404
#
# Coordination Sequence:
#
# PCOD9475171 Si02
#       8
#     4  16  16  16  16  16  16  16
#     4  12  28  36  62 108 120 160 230 282 324 384
#     4  11  24  41  64  94 128 167 214 268 326 394
#     4  11  23  42  67  91 126 169 213 270 325 386
#     4  11  22  40  64  90 124 173 218 270 323 391
#     4  11  23  36  56  84 126 180 214 251 312 371
#     4  11  23  39  65  96 127 167 220 272 327 381
#     4  12  22  39  62  91 127 165 217 268 323 385
#     4  10  23  37  54  84 127 177 224 257 302 377
#
# _framework density 18.985565000000001
#
# number of rings (size 3 to 8) (size 9 to 14) (size 15 to 20)
#    0.000    0.966    5.517    1.655    3.862    2.207 
#    0.000    0.000    0.000    0.414    0.000    0.000 
#    0.000    0.000    0.000    0.000    0.000    0.000 
#
# Total GULP energy -323203.654964 kJ/mol
# GULP energy per Si atom -5572.476810 kJ/mol
# Density = 1.894235 g / cm^3
# Si number density = 18.985565 Si / 1000 Ang^3
#
#
#
# Elastic Constant Matrix: (Units=GPa)
#
#
# Indices 1 2 3 4 5 6 
#
# 1 72.9047 3.7133 30.4810 0.0000 0.0000 0.0000
# 2 3.7133 47.1707 47.1229 0.0000 0.0000 0.0000
# 3 30.4810 47.1229 151.9239 0.0000 0.0000 0.0000
# 4 0.0000 0.0000 0.0000 4.2197 0.0000 0.0000
# 5 0.0000 0.0000 0.0000 0.0000 -218.8569 0.0000
# 6 0.0000 0.0000 0.0000 0.0000 0.0000 18.2070
#
#
#
# Elastic Compliance Matrix: (Units=1/GPa)
#
#
# Indices 1 2 3 4 5 6 
#
# 1 0.015203 0.002681 -0.003882 0.000000 0.000000 0.000000
# 2 0.002681 0.031191 -0.010212 0.000000 0.000000 0.000000
# 3 -0.003882 -0.010212 0.010529 0.000000 0.000000 0.000000
# 4 0.000000 0.000000 0.000000 0.236984 0.000000 0.000000
# 5 0.000000 0.000000 0.000000 0.000000 -0.004569 0.000000
# 6 0.000000 0.000000 0.000000 0.000000 0.000000 0.054924
#
#
# Mechanical properties :
#
#
# Convention : Reuss Voigt Hill
#
# Bulk Modulus (GPa) = 29.32902 48.29266 38.81084
# Shear Modulus (GPa) = 13.21169 -26.57390 -6.68111
#
# Velocity S-wave (km/s) = 2.64082 -3.74530 -1.87795
# Velocity P-wave (km/s) = 4.97797 2.60551 3.97296
#
# Compressibility (1/GPa) = 0.03409592
#
# Stress axis : x y z
#
# Youngs Moduli (GPa) = 65.77676 32.06089 94.97840
#
# Poissons Ratio (x) = -0.08596 0.36869
# Poissons Ratio (y) = -0.17635 0.96996
# Poissons Ratio (z) = 0.25533 0.32742
#
# Static dielectric constant tensor:
#      x y z
#    x 1.664870 0.000000 0.000000 
#    y 0.000000 1.664240 0.000000 
#    z 0.000000 0.000000 1.738590 
# 
# From -- ./inp_files/37132.got.cif
#   From: 2010.05.17/outbox.cif.g08.bks.cpg/sg63_19_cif.got.tgz:37132.got - 2010.06.03 15:47:04.
