data_PCOD9475346
_publ_section_title
;
Structure prediction by ZEFSAII (Michael W. Deem and Ramdas Pophale) SiO2 
 PCOD9475346
Probable space group: C M C M
;
_chemical_formula_sum "Si O2"
_cell_formula_units_Z 116
_cell_length_a 16.636582
_cell_length_b 22.848831
_cell_length_c 15.204921
_cell_angle_alpha 90.000000
_cell_angle_beta 90.000000
_cell_angle_gamma 90.000000
_cell_volume 5779.792650
_symmetry_space_group_name_H-M "C M C M"
_symmetry_group_IT_number 63
_symmetry_cell_setting 'orthorhombic'
loop_
_space_group_symop_operation_xyz
x,y,z
-x,-y,1/2+z
x,-y,-z
-x,y,1/2-z
-x,-y,-z
x,y,1/2-z
-x,y,z
x,-y,1/2+z
1/2+x,1/2+y,z
1/2-x,1/2-y,1/2+z
1/2+x,1/2-y,-z
1/2-x,1/2+y,1/2-z
1/2-x,1/2-y,-z
1/2+x,1/2+y,1/2-z
1/2-x,1/2+y,z
1/2+x,1/2-y,1/2+z
loop_
_atom_site_type_symbol
_atom_site_label
_atom_site_fract_x
_atom_site_fract_y
_atom_site_fract_z
Si Si1 0.500000 0.102665 0.250000
Si Si2 0.909280 0.077529 0.645498
Si Si3 0.596534 0.763395 0.349147
Si Si4 0.168217 0.608930 0.342930
Si Si5 0.406016 0.626393 0.144698
Si Si6 0.791476 0.025143 0.093601
Si Si7 0.096262 0.204475 0.649927
Si Si8 0.176036 0.707140 0.019411
O O1 0.572978 0.104021 0.325225
O O2 0.917133 0.086418 0.750000
O O3 0.878966 0.140863 0.613158
O O4 0.000000 0.064622 0.611407
O O5 0.847220 0.025825 0.632377
O O6 0.624420 0.776723 0.250000
O O7 0.500000 0.768157 0.350531
O O8 0.614614 0.694715 0.368096
O O9 0.634532 0.801935 0.425408
O O10 0.200040 0.635649 0.250000
O O11 0.213420 0.547345 0.354790
O O12 0.190646 0.648343 0.426138
O O13 0.398571 0.614163 0.250000
O O14 0.500000 0.618620 0.121776
O O15 0.350497 0.581537 0.092772
O O16 0.766640 0.000000 0.000000
O O17 0.126525 0.214414 0.750000
O O18 0.120213 0.255564 0.585198
O O19 0.000000 0.202079 0.654852
O O20 0.250000 0.750000 0.000000
#
# Coordination Sequence:
#
# PCOD9475346 Si02
#       8
#     4  16  16  16  16  16  16  16
#     4   8  24  48  78  92 108 152 248 286 346 366
#     4   9  19  36  57  87 129 177 212 242 297 381
#     4   9  20  37  58  85 123 169 209 245 297 371
#     4  10  24  45  69  96 117 160 224 289 332 379
#     4   9  18  34  55  83 125 180 223 245 283 367
#     4  12  24  35  58  88 131 161 206 262 328 377
#     4   9  20  37  60  90 126 169 214 255 303 372
#     4  12  24  34  61  94 133 164 203 257 322 379
#
# _framework density 20.069922999999999
#
# number of rings (size 3 to 8) (size 9 to 14) (size 15 to 20)
#    0.414    1.655    0.000    4.966    5.793    4.414 
#    0.000    0.345    0.000    0.000    0.000    0.000 
#    0.000    0.000    0.000    0.000    0.000    0.000 
#
# Total GULP energy -323061.667557 kJ/mol
# GULP energy per Si atom -5570.028751 kJ/mol
# Density = 2.002424 g / cm^3
# Si number density = 20.069923 Si / 1000 Ang^3
#
#
#
# Elastic Constant Matrix: (Units=GPa)
#
#
# Indices 1 2 3 4 5 6 
#
# 1 66.3567 16.4885 19.1070 0.0000 0.0000 0.0000
# 2 16.4885 57.0182 28.8545 0.0000 0.0000 0.0000
# 3 19.1070 28.8545 98.3039 0.0000 0.0000 0.0000
# 4 0.0000 0.0000 0.0000 24.8802 0.0000 0.0000
# 5 0.0000 0.0000 0.0000 0.0000 25.9838 0.0000
# 6 0.0000 0.0000 0.0000 0.0000 0.0000 23.5123
#
#
#
# Elastic Compliance Matrix: (Units=1/GPa)
#
#
# Indices 1 2 3 4 5 6 
#
# 1 0.016610 -0.003722 -0.002136 0.000000 0.000000 0.000000
# 2 -0.003722 0.021432 -0.005567 0.000000 0.000000 0.000000
# 3 -0.002136 -0.005567 0.012222 0.000000 0.000000 0.000000
# 4 0.000000 0.000000 0.000000 0.040193 0.000000 0.000000
# 5 0.000000 0.000000 0.000000 0.000000 0.038486 0.000000
# 6 0.000000 0.000000 0.000000 0.000000 0.000000 0.042531
#
#
# Mechanical properties :
#
#
# Convention : Reuss Voigt Hill
#
# Bulk Modulus (GPa) = 36.47930 38.95320 37.71625
# Shear Modulus (GPa) = 24.57463 25.35716 24.96590
#
# Velocity S-wave (km/s) = 3.50301 3.55835 3.53079
# Velocity P-wave (km/s) = 5.88022 6.02771 5.95442
#
# Compressibility (1/GPa) = 0.02741281
#
# Stress axis : x y z
#
# Youngs Moduli (GPa) = 60.20455 46.65893 81.82091
#
# Poissons Ratio (x) = 0.17369 0.17475
# Poissons Ratio (y) = 0.22411 0.45552
# Poissons Ratio (z) = 0.12859 0.25977
#
# Static dielectric constant tensor:
#      x y z
#    x 1.724960 0.000000 0.000000 
#    y 0.000000 1.730240 0.000000 
#    z 0.000000 0.000000 1.759930 
# 
# From -- ./inp_files/34412.got.cif
#   From: 2010.05.17/outbox.cif.g08.bks.cpg/sg63_18_cif.got.tgz:34412.got - 2010.06.03 15:47:04.
