data_PCOD9475518
_publ_section_title
;
Structure prediction by ZEFSAII (Michael W. Deem and Ramdas Pophale) SiO2 
 PCOD9475518
Probable space group: C M C M
;
_chemical_formula_sum "Si O2"
_cell_formula_units_Z 112
_cell_length_a 14.332376
_cell_length_b 16.977560
_cell_length_c 24.593230
_cell_angle_alpha 90.000000
_cell_angle_beta 90.000000
_cell_angle_gamma 90.000000
_cell_volume 5984.240492
_symmetry_space_group_name_H-M "C M C M"
_symmetry_group_IT_number 63
_symmetry_cell_setting 'orthorhombic'
loop_
_space_group_symop_operation_xyz
x,y,z
-x,-y,1/2+z
x,-y,-z
-x,y,1/2-z
-x,-y,-z
x,y,1/2-z
-x,y,z
x,-y,1/2+z
1/2+x,1/2+y,z
1/2-x,1/2-y,1/2+z
1/2+x,1/2-y,-z
1/2-x,1/2+y,1/2-z
1/2-x,1/2-y,-z
1/2+x,1/2+y,1/2-z
1/2-x,1/2+y,z
1/2+x,1/2-y,1/2+z
loop_
_atom_site_type_symbol
_atom_site_label
_atom_site_fract_x
_atom_site_fract_y
_atom_site_fract_z
Si Si1 0.799798 0.389389 0.409694
Si Si2 0.110463 0.105188 0.187384
Si Si3 0.726701 0.932238 0.614071
Si Si4 0.888960 0.684719 0.312044
Si Si5 0.895620 0.808730 0.097438
Si Si6 0.612006 0.792338 0.188430
Si Si7 0.677875 0.183955 0.019458
O O1 0.809749 0.481772 0.400314
O O2 0.689660 0.366909 0.415381
O O3 0.838900 0.341483 0.358390
O O4 0.851021 0.360659 0.464696
O O5 0.132815 0.083255 0.250000
O O6 0.173087 0.062111 0.143133
O O7 0.130171 0.198910 0.181543
O O8 0.000000 0.093548 0.179705
O O9 0.662698 0.885727 0.657272
O O10 0.725528 0.877801 0.560523
O O11 0.857186 0.691222 0.250000
O O12 0.874055 0.765298 0.345399
O O13 0.000000 0.670418 0.312863
O O14 0.893813 0.735755 0.054595
O O15 0.000000 0.842958 0.098404
O O16 0.640417 0.814489 0.250000
O O17 0.500000 0.802452 0.184822
O O18 0.750000 0.250000 0.000000
#
# Coordination Sequence:
#
# PCOD9475518 Si02
#       7
#    16  16  16  16  16  16  16
#     4  11  22  34  53  80 112 140 166 213 277 328
#     4   9  18  34  55  77 103 140 185 223 254 302
#     4  11  21  33  52  79 111 140 169 214 272 322
#     4   9  18  34  55  76 100 136 180 217 250 299
#     4   9  19  36  57  79 103 136 179 221 259 310
#     4   9  19  36  57  80 105 138 184 228 261 305
#     4   9  19  37  56  73  97 136 182 220 252 305
#
# _framework density 18.715824999999999
#
# number of rings (size 3 to 8) (size 9 to 14) (size 15 to 20)
#    0.000    2.429    0.000    4.286    0.000    4.571 
#    0.000    5.714    0.000   10.286    0.000    0.000 
#    0.000    0.000    0.000    0.000    0.000    0.000 
#
# Total GULP energy -312349.686231 kJ/mol
# GULP energy per Si atom -5577.672968 kJ/mol
# Density = 1.867323 g / cm^3
# Si number density = 18.715825 Si / 1000 Ang^3
#
#
#
# Elastic Constant Matrix: (Units=GPa)
#
#
# Indices 1 2 3 4 5 6 
#
# 1 29.1470 -2.0698 8.4574 0.0000 0.0000 0.0000
# 2 -2.0698 18.4977 12.7977 0.0000 0.0000 0.0000
# 3 8.4574 12.7977 116.5315 0.0000 0.0000 0.0000
# 4 0.0000 0.0000 0.0000 8.1565 0.0000 0.0000
# 5 0.0000 0.0000 0.0000 0.0000 6.7261 0.0000
# 6 0.0000 0.0000 0.0000 0.0000 0.0000 16.0958
#
#
#
# Elastic Compliance Matrix: (Units=1/GPa)
#
#
# Indices 1 2 3 4 5 6 
#
# 1 0.035705 0.006264 -0.003279 0.000000 0.000000 0.000000
# 2 0.006264 0.059605 -0.007001 0.000000 0.000000 0.000000
# 3 -0.003279 -0.007001 0.009588 0.000000 0.000000 0.000000
# 4 0.000000 0.000000 0.000000 0.122602 0.000000 0.000000
# 5 0.000000 0.000000 0.000000 0.000000 0.148675 0.000000
# 6 0.000000 0.000000 0.000000 0.000000 0.000000 0.062128
#
#
# Mechanical properties :
#
#
# Convention : Reuss Voigt Hill
#
# Bulk Modulus (GPa) = 10.32344 22.50520 16.41432
# Shear Modulus (GPa) = 10.44662 15.86173 13.15417
#
# Velocity S-wave (km/s) = 2.36513 2.91435 2.65398
# Velocity P-wave (km/s) = 3.60365 4.83481 4.26390
#
# Compressibility (1/GPa) = 0.09686695
#
# Stress axis : x y z
#
# Youngs Moduli (GPa) = 28.00707 16.77711 104.29499
#
# Poissons Ratio (x) = -0.10509 0.34201
# Poissons Ratio (y) = -0.17544 0.73013
# Poissons Ratio (z) = 0.09184 0.11745
#
# Static dielectric constant tensor:
#      x y z
#    x 1.674440 0.000000 0.000000 
#    y 0.000000 1.617810 0.000000 
#    z 0.000000 0.000000 1.661280 
# 
# From -- ./inp_files/62962.got.cif
#   From: 2010.05.17/outbox.cif.g08.bks.cpg/sg63_32_cif.got.tgz:62962.got - 2010.06.03 15:47:04.
