data_PCOD9475804
_publ_section_title
;
Structure prediction by ZEFSAII (Michael W. Deem and Ramdas Pophale) SiO2 
 PCOD9475804
Probable space group: C M C M
;
_chemical_formula_sum "Si O2"
_cell_formula_units_Z 116
_cell_length_a 7.478500
_cell_length_b 30.315173
_cell_length_c 26.050486
_cell_angle_alpha 90.000000
_cell_angle_beta 90.000000
_cell_angle_gamma 90.000000
_cell_volume 5905.958336
_symmetry_space_group_name_H-M "C M C M"
_symmetry_group_IT_number 63
_symmetry_cell_setting 'orthorhombic'
loop_
_space_group_symop_operation_xyz
x,y,z
-x,-y,1/2+z
x,-y,-z
-x,y,1/2-z
-x,-y,-z
x,y,1/2-z
-x,y,z
x,-y,1/2+z
1/2+x,1/2+y,z
1/2-x,1/2-y,1/2+z
1/2+x,1/2-y,-z
1/2-x,1/2+y,1/2-z
1/2-x,1/2-y,-z
1/2+x,1/2+y,1/2-z
1/2-x,1/2+y,z
1/2+x,1/2-y,1/2+z
loop_
_atom_site_type_symbol
_atom_site_label
_atom_site_fract_x
_atom_site_fract_y
_atom_site_fract_z
Si Si1 0.796628 0.194083 0.525642
Si Si2 0.283234 0.624881 0.448769
Si Si3 0.714398 0.330657 0.308234
Si Si4 0.292616 0.044508 0.523149
Si Si5 0.281794 0.251022 0.117042
Si Si6 0.000000 0.349812 0.750000
Si Si7 0.294276 0.654975 0.159515
Si Si8 0.712539 0.113946 0.900554
O O1 0.713776 0.169617 0.476651
O O2 0.719964 0.233595 0.560169
O O3 0.798877 0.153611 0.566869
O O4 0.000000 0.206069 0.513689
O O5 0.500000 0.625922 0.453092
O O6 0.217890 0.582792 0.480291
O O7 0.239596 0.624855 0.389079
O O8 0.782452 0.330749 0.250000
O O9 0.500000 0.327204 0.305835
O O10 0.775390 0.288590 0.341853
O O11 0.756843 0.374161 0.341453
O O12 0.500000 0.034248 0.534565
O O13 0.220686 0.068274 0.574648
O O14 0.210593 0.000000 0.500000
O O15 0.500000 0.250162 0.116512
O O16 0.213144 0.204473 0.136347
O O17 0.156374 0.348571 0.794703
O O18 0.500000 0.645344 0.173907
O O19 0.500000 0.116495 0.910185
#
# Coordination Sequence:
#
# PCOD9475804 Si02
#       8
#    16  16  16  16  16   4  16  16
#     4   8  15  30  50  70 106 145 171 212 263 324
#     4   9  19  35  54  82 112 139 178 220 271 336
#     4   9  18  30  47  67  96 138 180 218 259 313
#     4   9  18  32  54  83 110 137 168 207 262 333
#     4   9  17  30  50  73 105 145 187 224 273 319
#     4  12  26  44  60  74 106 148 190 248 300 322
#     4  11  24  39  58  82 107 143 194 244 282 329
#     4   9  16  27  43  70 104 132 166 211 257 309
#
# _framework density 19.641183000000002
#
# number of rings (size 3 to 8) (size 9 to 14) (size 15 to 20)
#    0.000    2.759    0.690    1.448    1.931    3.862 
#    0.000    0.000    0.000    0.000    1.793    0.000 
#    0.000    0.000    0.000    0.000    0.000    0.000 
#
# Total GULP energy -322912.469233 kJ/mol
# GULP energy per Si atom -5567.456366 kJ/mol
# Density = 1.959648 g / cm^3
# Si number density = 19.641183 Si / 1000 Ang^3
#
#
#
# Elastic Constant Matrix: (Units=GPa)
#
#
# Indices 1 2 3 4 5 6 
#
# 1 83.5912 -4.6961 28.0234 0.0000 0.0000 0.0000
# 2 -4.6961 68.1153 18.8023 0.0000 0.0000 0.0000
# 3 28.0234 18.8023 111.7005 0.0000 0.0000 0.0000
# 4 0.0000 0.0000 0.0000 9.1695 0.0000 0.0000
# 5 0.0000 0.0000 0.0000 0.0000 25.3393 0.0000
# 6 0.0000 0.0000 0.0000 0.0000 0.0000 -342.2048
#
#
#
# Elastic Compliance Matrix: (Units=1/GPa)
#
#
# Indices 1 2 3 4 5 6 
#
# 1 0.013299 0.001927 -0.003661 0.000000 0.000000 0.000000
# 2 0.001927 0.015676 -0.003122 0.000000 0.000000 0.000000
# 3 -0.003661 -0.003122 0.010396 0.000000 0.000000 0.000000
# 4 0.000000 0.000000 0.000000 0.109058 0.000000 0.000000
# 5 0.000000 0.000000 0.000000 0.000000 0.039464 0.000000
# 6 0.000000 0.000000 0.000000 0.000000 0.000000 -0.002922
#
#
# Mechanical properties :
#
#
# Convention : Reuss Voigt Hill
#
# Bulk Modulus (GPa) = 33.71601 38.62957 36.17279
# Shear Modulus (GPa) = 24.44171 -46.78739 -11.17284
#
# Velocity S-wave (km/s) = 3.53145 -4.88598 -2.38764
# Velocity P-wave (km/s) = 5.81648 3.48138 3.29480
#
# Compressibility (1/GPa) = 0.02965950
#
# Stress axis : x y z
#
# Youngs Moduli (GPa) = 75.19645 63.79292 96.18641
#
# Poissons Ratio (x) = -0.12295 0.35212
# Poissons Ratio (y) = -0.14493 0.30031
# Poissons Ratio (z) = 0.27528 0.19917
#
# Static dielectric constant tensor:
#      x y z
#    x 1.743600 0.000000 0.000000 
#    y 0.000000 1.709140 0.000000 
#    z 0.000000 0.000000 1.727320 
# 
# From -- ./inp_files/67711.got.cif
#   From: 2010.05.17/outbox.cif.g08.bks.cpg/sg63_34_cif.got.tgz:67711.got - 2010.06.03 15:47:04.
