data_PCOD9475131
_publ_section_title
;
Structure prediction by ZEFSAII (Michael W. Deem and Ramdas Pophale) SiO2 
 PCOD9475131
Probable space group: C M C M
;
_chemical_formula_sum "Si O2"
_cell_formula_units_Z 64
_cell_length_a 13.742463
_cell_length_b 27.048548
_cell_length_c 8.740474
_cell_angle_alpha 90.000000
_cell_angle_beta 90.000000
_cell_angle_gamma 90.000000
_cell_volume 3248.953669
_symmetry_space_group_name_H-M "C M C M"
_symmetry_group_IT_number 63
_symmetry_cell_setting 'orthorhombic'
loop_
_space_group_symop_operation_xyz
x,y,z
-x,-y,1/2+z
x,-y,-z
-x,y,1/2-z
-x,-y,-z
x,y,1/2-z
-x,y,z
x,-y,1/2+z
1/2+x,1/2+y,z
1/2-x,1/2-y,1/2+z
1/2+x,1/2-y,-z
1/2-x,1/2+y,1/2-z
1/2-x,1/2-y,-z
1/2+x,1/2+y,1/2-z
1/2-x,1/2+y,z
1/2+x,1/2-y,1/2+z
loop_
_atom_site_type_symbol
_atom_site_label
_atom_site_fract_x
_atom_site_fract_y
_atom_site_fract_z
Si Si1 0.500000 0.576810 0.571774
Si Si2 0.000000 0.805468 0.426189
Si Si3 0.110814 0.378822 0.435665
Si Si4 0.214344 0.053463 0.433983
Si Si5 0.649532 0.234294 0.931569
O O1 0.500000 0.559745 0.750000
O O2 0.500000 0.636103 0.569170
O O3 0.602934 0.562015 0.494058
O O4 0.086736 0.779828 0.512414
O O5 0.000000 0.789878 0.250000
O O6 0.118769 0.381838 0.250000
O O7 0.203045 0.408062 0.506144
O O8 0.117871 0.320775 0.481262
O O9 0.000000 0.396027 0.476246
O O10 0.213258 0.053913 0.250000
O O11 0.243391 0.000000 0.500000
O O12 0.649989 0.232474 0.750000
O O13 0.750000 0.250000 0.000000
#
# Coordination Sequence:
#
# PCOD9475131 Si02
#       5
#     8   8  16  16  16
#     4  11  24  44  67  95 132 171 213 268 325 386
#     4  11  23  38  60  91 126 167 208 250 307 374
#     4  10  22  43  66  91 129 174 217 266 322 381
#     4  12  26  44  68  97 127 166 214 271 330 391
#     4  11  22  38  60  90 127 169 210 259 313 370
#
# _framework density 19.698649
#
# number of rings (size 3 to 8) (size 9 to 14) (size 15 to 20)
#    0.000    1.000    1.250    5.625    0.000   11.000 
#    0.000    0.000    0.000    0.000    0.000    0.000 
#    0.000    0.000    0.000    0.000    0.000    0.000 
#
# Total GULP energy -178536.379938 kJ/mol
# GULP energy per Si atom -5579.261873 kJ/mol
# Density = 1.965381 g / cm^3
# Si number density = 19.698649 Si / 1000 Ang^3
#
#
#
# Elastic Constant Matrix: (Units=GPa)
#
#
# Indices 1 2 3 4 5 6 
#
# 1 130.9127 22.2415 45.0970 0.0000 0.0000 0.0000
# 2 22.2415 74.5269 37.7631 0.0000 0.0000 0.0000
# 3 45.0970 37.7631 103.3112 0.0000 0.0000 0.0000
# 4 0.0000 0.0000 0.0000 34.8858 0.0000 0.0000
# 5 0.0000 0.0000 0.0000 0.0000 44.8400 0.0000
# 6 0.0000 0.0000 0.0000 0.0000 0.0000 37.5377
#
#
#
# Elastic Compliance Matrix: (Units=1/GPa)
#
#
# Indices 1 2 3 4 5 6 
#
# 1 0.009035 -0.000857 -0.003631 0.000000 0.000000 0.000000
# 2 -0.000857 0.016549 -0.005675 0.000000 0.000000 0.000000
# 3 -0.003631 -0.005675 0.013339 0.000000 0.000000 0.000000
# 4 0.000000 0.000000 0.000000 0.028665 0.000000 0.000000
# 5 0.000000 0.000000 0.000000 0.000000 0.022302 0.000000
# 6 0.000000 0.000000 0.000000 0.000000 0.000000 0.026640
#
#
# Mechanical properties :
#
#
# Convention : Reuss Voigt Hill
#
# Bulk Modulus (GPa) = 53.77002 57.66154 55.71578
# Shear Modulus (GPa) = 34.95181 37.02932 35.99056
#
# Velocity S-wave (km/s) = 4.21684 4.34036 4.27905
# Velocity P-wave (km/s) = 7.14595 7.37927 7.26355
#
# Compressibility (1/GPa) = 0.01859772
#
# Stress axis : x y z
#
# Youngs Moduli (GPa) = 110.68127 60.42550 74.96893
#
# Poissons Ratio (x) = 0.05176 0.27220
# Poissons Ratio (y) = 0.09481 0.42547
# Poissons Ratio (z) = 0.40186 0.34293
#
# Static dielectric constant tensor:
#      x y z
#    x 1.656730 0.000000 0.000000 
#    y 0.000000 1.667040 0.000000 
#    z 0.000000 0.000000 1.657250 
# 
# From -- ./inp_files/4323.got.cif
#   From: 2010.05.17/outbox.cif.g08.bks.cpg/sg63_3_cif.got.tgz:4323.got - 2010.06.03 15:47:04.
