data_PCOD9475022
_publ_section_title
;
Structure prediction by ZEFSAII (Michael W. Deem and Ramdas Pophale) SiO2 
 PCOD9475022
Probable space group: C M C M
;
_chemical_formula_sum "Si O2"
_cell_formula_units_Z 64
_cell_length_a 36.340958
_cell_length_b 5.028187
_cell_length_c 16.500870
_cell_angle_alpha 90.000000
_cell_angle_beta 90.000000
_cell_angle_gamma 90.000000
_cell_volume 3015.189662
_symmetry_space_group_name_H-M "C M C M"
_symmetry_group_IT_number 63
_symmetry_cell_setting 'orthorhombic'
loop_
_space_group_symop_operation_xyz
x,y,z
-x,-y,1/2+z
x,-y,-z
-x,y,1/2-z
-x,-y,-z
x,y,1/2-z
-x,y,z
x,-y,1/2+z
1/2+x,1/2+y,z
1/2-x,1/2-y,1/2+z
1/2+x,1/2-y,-z
1/2-x,1/2+y,1/2-z
1/2-x,1/2-y,-z
1/2+x,1/2+y,1/2-z
1/2-x,1/2+y,z
1/2+x,1/2-y,1/2+z
loop_
_atom_site_type_symbol
_atom_site_label
_atom_site_fract_x
_atom_site_fract_y
_atom_site_fract_z
Si Si1 0.957324 0.908372 0.093262
Si Si2 0.773961 0.053354 0.153948
Si Si3 0.084912 0.596246 0.656189
Si Si4 0.344459 0.744591 0.444961
O O1 0.933436 0.647002 0.108463
O O2 0.000000 0.854593 0.112669
O O3 0.941181 0.148188 0.146042
O O4 0.955127 0.000000 0.000000
O O5 0.782520 0.074994 0.250000
O O6 0.740636 0.258052 0.137253
O O7 0.808747 0.137310 0.101667
O O8 0.088899 0.523640 0.750000
O O9 0.123931 0.669735 0.617175
O O10 0.358381 0.500000 0.500000
O O11 0.335615 0.000000 0.500000
#
# Coordination Sequence:
#
# PCOD9475022 Si02
#       4
#    16  16  16  16
#     4  11  24  43  67  94 127 166 208 259 319 379
#     4  10  22  41  64  91 125 162 202 252 311 371
#     4  12  25  42  65  93 128 167 212 262 314 375
#     4  12  25  41  64  91 125 165 209 259 309 370
#
# _framework density 21.225861999999999
#
# number of rings (size 3 to 8) (size 9 to 14) (size 15 to 20)
#    0.000    0.750    0.000    8.250    0.000    8.000 
#    0.000    7.500    0.000    0.000    0.000    0.000 
#    0.000    0.000    0.000    0.000    0.000    0.000 
#
# Total GULP energy -179327.667621 kJ/mol
# GULP energy per Si atom -5603.989613 kJ/mol
# Density = 2.117755 g / cm^3
# Si number density = 21.225862 Si / 1000 Ang^3
#
#
#
# Elastic Constant Matrix: (Units=GPa)
#
#
# Indices 1 2 3 4 5 6 
#
# 1 78.1458 -11.4844 33.7176 0.0000 0.0000 0.0000
# 2 -11.4844 78.4347 -4.8624 0.0000 0.0000 0.0000
# 3 33.7176 -4.8624 62.2725 0.0000 0.0000 0.0000
# 4 0.0000 0.0000 0.0000 23.6000 0.0000 0.0000
# 5 0.0000 0.0000 0.0000 0.0000 55.8475 0.0000
# 6 0.0000 0.0000 0.0000 0.0000 0.0000 -249.4656
#
#
#
# Elastic Compliance Matrix: (Units=1/GPa)
#
#
# Indices 1 2 3 4 5 6 
#
# 1 0.016982 0.001926 -0.009045 0.000000 0.000000 0.000000
# 2 0.001926 0.013030 -0.000025 0.000000 0.000000 0.000000
# 3 -0.009045 -0.000025 0.020954 0.000000 0.000000 0.000000
# 4 0.000000 0.000000 0.000000 0.042373 0.000000 0.000000
# 5 0.000000 0.000000 0.000000 0.000000 0.017906 0.000000
# 6 0.000000 0.000000 0.000000 0.000000 0.000000 -0.004009
#
#
# Mechanical properties :
#
#
# Convention : Reuss Voigt Hill
#
# Bulk Modulus (GPa) = 27.26476 28.17719 27.72098
# Shear Modulus (GPa) = 37.38316 -20.57147 8.40584
#
# Velocity S-wave (km/s) = 4.20123 -3.11653 1.99218
# Velocity P-wave (km/s) = 6.03380 0.59450 4.28720
#
# Compressibility (1/GPa) = 0.03667738
#
# Stress axis : x y z
#
# Youngs Moduli (GPa) = 58.88548 76.74679 47.72420
#
# Poissons Ratio (x) = -0.14780 0.43165
# Poissons Ratio (y) = -0.11340 0.00121
# Poissons Ratio (z) = 0.53260 0.00194
#
# Static dielectric constant tensor:
#      x y z
#    x 1.729090 0.000000 0.000000 
#    y 0.000000 1.730890 0.000000 
#    z 0.000000 0.000000 1.755130 
# 
# From -- ./inp_files/49307.got.cif
#   From: 2010.05.17/outbox.cif.g08.bks.cpg/sg63_25_cif.got.tgz:49307.got - 2010.06.03 15:47:04.
