data_PCOD9475083
_publ_section_title
;
Structure prediction by ZEFSAII (Michael W. Deem and Ramdas Pophale) SiO2 
 PCOD9475083
Probable space group: C M C M
;
_chemical_formula_sum "Si O2"
_cell_formula_units_Z 68
_cell_length_a 20.824882
_cell_length_b 9.673837
_cell_length_c 16.835992
_cell_angle_alpha 90.000000
_cell_angle_beta 90.000000
_cell_angle_gamma 90.000000
_cell_volume 3391.720258
_symmetry_space_group_name_H-M "C M C M"
_symmetry_group_IT_number 63
_symmetry_cell_setting 'orthorhombic'
loop_
_space_group_symop_operation_xyz
x,y,z
-x,-y,1/2+z
x,-y,-z
-x,y,1/2-z
-x,-y,-z
x,y,1/2-z
-x,y,z
x,-y,1/2+z
1/2+x,1/2+y,z
1/2-x,1/2-y,1/2+z
1/2+x,1/2-y,-z
1/2-x,1/2+y,1/2-z
1/2-x,1/2-y,-z
1/2+x,1/2+y,1/2-z
1/2-x,1/2+y,z
1/2+x,1/2-y,1/2+z
loop_
_atom_site_type_symbol
_atom_site_label
_atom_site_fract_x
_atom_site_fract_y
_atom_site_fract_z
Si Si1 0.889727 0.855260 0.464004
Si Si2 0.783351 0.939631 0.158791
Si Si3 0.500000 0.868568 0.564513
Si Si4 0.073180 0.732387 0.750000
Si Si5 0.500000 0.034731 0.250000
Si Si6 0.178975 0.769333 0.618700
O O1 0.847418 0.894047 0.387637
O O2 0.840079 0.801844 0.529669
O O3 0.939739 0.732642 0.451041
O O4 0.917358 0.000000 0.500000
O O5 0.789304 0.900557 0.250000
O O6 0.719911 0.868168 0.125612
O O7 0.778638 0.103981 0.150203
O O8 0.500000 0.901934 0.660187
O O9 0.500000 0.000000 0.500000
O O10 0.115077 0.768562 0.673135
O O11 0.000000 0.791366 0.750000
O O12 0.061081 0.568327 0.750000
#
# Coordination Sequence:
#
# PCOD9475083 Si02
#       6
#    16  16   8   8   4  16
#     4  10  25  43  67  94 142 181 230 271 351 420
#     4  11  22  41  64 103 135 171 230 275 344 399
#     4  12  25  47  69 102 140 186 234 292 351 401
#     4  10  22  42  65  96 136 170 230 272 342 408
#     4  10  26  40  66 104 136 168 240 284 344 400
#     4  11  22  43  67 100 129 185 220 279 340 407
#
# _framework density 20.048822999999999
#
# number of rings (size 3 to 8) (size 9 to 14) (size 15 to 20)
#    0.353    0.941    2.353    2.471    3.294    3.765 
#    2.118    0.000    0.000    0.000    0.000    0.000 
#    0.000    0.000    0.000    0.000    0.000    0.000 
#
# Total GULP energy -189644.695636 kJ/mol
# GULP energy per Si atom -5577.785166 kJ/mol
# Density = 2.000319 g / cm^3
# Si number density = 20.048823 Si / 1000 Ang^3
#
#
#
# Elastic Constant Matrix: (Units=GPa)
#
#
# Indices 1 2 3 4 5 6 
#
# 1 49.6714 37.6015 -10.8774 0.0000 0.0000 0.0000
# 2 37.6015 95.9127 34.8753 0.0000 0.0000 0.0000
# 3 -10.8774 34.8753 85.5858 0.0000 0.0000 0.0000
# 4 0.0000 0.0000 0.0000 29.3046 0.0000 0.0000
# 5 0.0000 0.0000 0.0000 0.0000 15.9678 0.0000
# 6 0.0000 0.0000 0.0000 0.0000 0.0000 53.7459
#
#
#
# Elastic Compliance Matrix: (Units=1/GPa)
#
#
# Indices 1 2 3 4 5 6 
#
# 1 0.037505 -0.019296 0.012629 0.000000 0.000000 0.000000
# 2 -0.019296 0.022167 -0.011485 0.000000 0.000000 0.000000
# 3 0.012629 -0.011485 0.017969 0.000000 0.000000 0.000000
# 4 0.000000 0.000000 0.000000 0.034124 0.000000 0.000000
# 5 0.000000 0.000000 0.000000 0.000000 0.062626 0.000000
# 6 0.000000 0.000000 0.000000 0.000000 0.000000 0.018606
#
#
# Mechanical properties :
#
#
# Convention : Reuss Voigt Hill
#
# Bulk Modulus (GPa) = 24.19062 39.37431 31.78247
# Shear Modulus (GPa) = 20.56941 31.10837 25.83889
#
# Velocity S-wave (km/s) = 3.20655 3.94335 3.59388
# Velocity P-wave (km/s) = 5.07950 6.35729 5.75398
#
# Compressibility (1/GPa) = 0.04133834
#
# Stress axis : x y z
#
# Youngs Moduli (GPa) = 26.66331 45.11230 55.65037
#
# Poissons Ratio (x) = 0.87047 -0.70283
# Poissons Ratio (y) = 0.51448 0.63915
# Poissons Ratio (z) = -0.33674 0.51812
#
# Static dielectric constant tensor:
#      x y z
#    x 1.694190 0.000000 0.000000 
#    y 0.000000 1.723920 0.000000 
#    z 0.000000 0.000000 1.853080 
# 
# From -- ./inp_files/46676.got.cif
#   From: 2010.05.17/outbox.cif.g08.bks.cpg/sg63_24_cif.got.tgz:46676.got - 2010.06.03 15:47:04.
