data_PCOD9475862
_publ_section_title
;
Structure prediction by ZEFSAII (Michael W. Deem and Ramdas Pophale) SiO2 
 PCOD9475862
Probable space group: C M C M
;
_chemical_formula_sum "Si O2"
_cell_formula_units_Z 64
_cell_length_a 20.472192
_cell_length_b 9.493649
_cell_length_c 16.107680
_cell_angle_alpha 90.000000
_cell_angle_beta 90.000000
_cell_angle_gamma 90.000000
_cell_volume 3130.621115
_symmetry_space_group_name_H-M "C M C M"
_symmetry_group_IT_number 63
_symmetry_cell_setting 'orthorhombic'
loop_
_space_group_symop_operation_xyz
x,y,z
-x,-y,1/2+z
x,-y,-z
-x,y,1/2-z
-x,-y,-z
x,y,1/2-z
-x,y,z
x,-y,1/2+z
1/2+x,1/2+y,z
1/2-x,1/2-y,1/2+z
1/2+x,1/2-y,-z
1/2-x,1/2+y,1/2-z
1/2-x,1/2-y,-z
1/2+x,1/2+y,1/2-z
1/2-x,1/2+y,z
1/2+x,1/2-y,1/2+z
loop_
_atom_site_type_symbol
_atom_site_label
_atom_site_fract_x
_atom_site_fract_y
_atom_site_fract_z
Si Si1 0.372909 0.763456 0.342411
Si Si2 0.883937 0.584264 0.350633
Si Si3 0.000000 0.893411 0.613562
Si Si4 0.000000 0.220243 0.577027
Si Si5 0.754802 0.126581 0.435818
O O1 0.349146 0.795420 0.250000
O O2 0.436904 0.670026 0.343730
O O3 0.318115 0.667688 0.383996
O O4 0.390743 0.919090 0.377286
O O5 0.892165 0.596521 0.250000
O O6 0.936833 0.686757 0.395024
O O7 0.810037 0.618216 0.379542
O O8 0.000000 0.825105 0.520159
O O9 0.000000 0.063131 0.616656
O O10 0.750000 0.250000 0.500000
O O11 0.762642 0.000000 0.500000
#
# Coordination Sequence:
#
# PCOD9475862 Si02
#       5
#    16  16   8   8  16
#     4  11  25  45  69  99 136 178 223 278 338 401
#     4  11  25  46  69  98 136 180 224 274 338 405
#     4  11  26  43  68 102 137 170 224 279 331 394
#     4  11  26  43  70 100 134 177 223 274 335 396
#     4  12  25  44  69  98 133 176 225 278 334 398
#
# _framework density 20.443228999999999
#
# number of rings (size 3 to 8) (size 9 to 14) (size 15 to 20)
#    0.000    0.750    2.500    3.750    7.000    5.000 
#    0.000    0.000    0.000    0.000    0.000    0.000 
#    0.000    0.000    0.000    0.000    0.000    0.000 
#
# Total GULP energy -178516.451513 kJ/mol
# GULP energy per Si atom -5578.639110 kJ/mol
# Density = 2.039670 g / cm^3
# Si number density = 20.443229 Si / 1000 Ang^3
#
#
#
# Elastic Constant Matrix: (Units=GPa)
#
#
# Indices 1 2 3 4 5 6 
#
# 1 167.8395 78.2000 38.4635 0.0000 0.0000 0.0000
# 2 78.2000 182.5090 41.0863 0.0000 0.0000 0.0000
# 3 38.4635 41.0863 67.9387 0.0000 0.0000 0.0000
# 4 0.0000 0.0000 0.0000 22.8419 0.0000 0.0000
# 5 0.0000 0.0000 0.0000 0.0000 33.7656 0.0000
# 6 0.0000 0.0000 0.0000 0.0000 0.0000 37.5480
#
#
#
# Elastic Compliance Matrix: (Units=1/GPa)
#
#
# Indices 1 2 3 4 5 6 
#
# 1 0.007879 -0.002746 -0.002800 0.000000 0.000000 0.000000
# 2 -0.002746 0.007299 -0.002860 0.000000 0.000000 0.000000
# 3 -0.002800 -0.002860 0.018034 0.000000 0.000000 0.000000
# 4 0.000000 0.000000 0.000000 0.043779 0.000000 0.000000
# 5 0.000000 0.000000 0.000000 0.000000 0.029616 0.000000
# 6 0.000000 0.000000 0.000000 0.000000 0.000000 0.026633
#
#
# Mechanical properties :
#
#
# Convention : Reuss Voigt Hill
#
# Bulk Modulus (GPa) = 60.97228 81.53189 71.25209
# Shear Modulus (GPa) = 32.15044 36.20028 34.17536
#
# Velocity S-wave (km/s) = 3.96999 4.21262 4.09310
# Velocity P-wave (km/s) = 7.13473 7.97685 7.56752
#
# Compressibility (1/GPa) = 0.01640089
#
# Stress axis : x y z
#
# Youngs Moduli (GPa) = 126.91933 136.99761 55.45035
#
# Poissons Ratio (x) = 0.37613 0.15528
# Poissons Ratio (y) = 0.34846 0.15859
# Poissons Ratio (z) = 0.35542 0.39181
#
# Static dielectric constant tensor:
#      x y z
#    x 1.636350 0.000000 0.000000 
#    y 0.000000 1.700880 0.000000 
#    z 0.000000 0.000000 1.741100 
# 
# From -- ./inp_files/46540.got.cif
#   From: 2010.05.17/outbox.cif.g08.bks.cpg/sg63_24_cif.got.tgz:46540.got - 2010.06.03 15:47:04.
