data_PCOD9475946
_publ_section_title
;
Structure prediction by ZEFSAII (Michael W. Deem and Ramdas Pophale) SiO2 
 PCOD9475946
Probable space group: C M C M
;
_chemical_formula_sum "Si O2"
_cell_formula_units_Z 96
_cell_length_a 7.264531
_cell_length_b 28.459050
_cell_length_c 23.816389
_cell_angle_alpha 90.000000
_cell_angle_beta 90.000000
_cell_angle_gamma 90.000000
_cell_volume 4923.839582
_symmetry_space_group_name_H-M "C M C M"
_symmetry_group_IT_number 63
_symmetry_cell_setting 'orthorhombic'
loop_
_space_group_symop_operation_xyz
x,y,z
-x,-y,1/2+z
x,-y,-z
-x,y,1/2-z
-x,-y,-z
x,y,1/2-z
-x,y,z
x,-y,1/2+z
1/2+x,1/2+y,z
1/2-x,1/2-y,1/2+z
1/2+x,1/2-y,-z
1/2-x,1/2+y,1/2-z
1/2-x,1/2-y,-z
1/2+x,1/2+y,1/2-z
1/2-x,1/2+y,z
1/2+x,1/2-y,1/2+z
loop_
_atom_site_type_symbol
_atom_site_label
_atom_site_fract_x
_atom_site_fract_y
_atom_site_fract_z
Si Si1 0.724197 0.393017 0.951093
Si Si2 0.722818 0.647395 0.628811
Si Si3 0.219020 0.196835 0.982002
Si Si4 0.224421 0.011777 0.750000
Si Si5 0.224453 0.965912 0.866772
Si Si6 0.724900 0.377986 0.250000
Si Si7 0.222347 0.053926 0.561945
O O1 0.500000 0.392104 0.950277
O O2 0.781730 0.415623 0.892035
O O3 0.785917 0.341851 0.972680
O O4 0.780546 0.428897 0.000777
O O5 0.500000 0.650670 0.630619
O O6 0.787103 0.683478 0.580642
O O7 0.785251 0.647814 0.693015
O O8 0.768211 0.596015 0.604348
O O9 0.000000 0.189944 0.979554
O O10 0.250000 0.250000 0.000000
O O11 0.280027 0.066779 0.750000
O O12 0.000000 0.012756 0.750000
O O13 0.283030 0.983950 0.805812
O O14 0.000000 0.966080 0.865512
O O15 0.283721 0.005376 0.911662
O O16 0.500000 0.378586 0.250000
O O17 0.000000 0.051229 0.559156
#
# Coordination Sequence:
#
# PCOD9475946 Si02
#       7
#    16  16  16   8  16   8  16
#     4   8  14  21  31  47  68  95 125 155 186 225
#     4   8  13  20  33  53  77 102 128 157 196 241
#     4   9  17  29  43  59  77 101 134 171 208 240
#     4   9  14  16  24  43  72 111 135 143 171 230
#     4   9  13  17  25  42  70 103 130 145 172 225
#     4   9  12  18  30  49  79 109 127 149 191 240
#     4   8  11  16  26  43  68  96 121 145 178 224
#
# _framework density 19.496979
#
# number of rings (size 3 to 8) (size 9 to 14) (size 15 to 20)
#    0.000    3.500    1.667    2.500    0.000    2.000 
#    0.000    0.000    0.000    1.000    0.000    1.750 
#    0.000   10.667    0.000    0.333    0.000    0.000 
#
# Total GULP energy -267469.172980 kJ/mol
# GULP energy per Si atom -5572.274437 kJ/mol
# Density = 1.945260 g / cm^3
# Si number density = 19.496979 Si / 1000 Ang^3
#
#
#
# Elastic Constant Matrix: (Units=GPa)
#
#
# Indices 1 2 3 4 5 6 
#
# 1 83.5451 1.5105 2.3276 0.0000 0.0000 0.0000
# 2 1.5105 137.4738 103.3847 0.0000 0.0000 0.0000
# 3 2.3276 103.3847 125.7053 0.0000 0.0000 0.0000
# 4 0.0000 0.0000 0.0000 18.4489 0.0000 0.0000
# 5 0.0000 0.0000 0.0000 0.0000 -20.2102 0.0000
# 6 0.0000 0.0000 0.0000 0.0000 0.0000 -3.2193
#
#
#
# Elastic Compliance Matrix: (Units=1/GPa)
#
#
# Indices 1 2 3 4 5 6 
#
# 1 0.011976 0.000092 -0.000298 0.000000 0.000000 0.000000
# 2 0.000092 0.019068 -0.015684 0.000000 0.000000 0.000000
# 3 -0.000298 -0.015684 0.020860 0.000000 0.000000 0.000000
# 4 0.000000 0.000000 0.000000 0.054204 0.000000 0.000000
# 5 0.000000 0.000000 0.000000 0.000000 -0.049480 0.000000
# 6 0.000000 0.000000 0.000000 0.000000 0.000000 -0.310627
#
#
# Mechanical properties :
#
#
# Convention : Reuss Voigt Hill
#
# Bulk Modulus (GPa) = 49.68885 62.35221 56.02053
# Shear Modulus (GPa) = -23.20049 14.97063 -4.11493
#
# Velocity S-wave (km/s) = -3.45331 2.77401 -1.45435
# Velocity P-wave (km/s) = 3.10488 6.50461 5.09658
#
# Compressibility (1/GPa) = 0.02012524
#
# Stress axis : x y z
#
# Youngs Moduli (GPa) = 83.49887 52.44449 47.93974
#
# Poissons Ratio (x) = -0.00484 0.01427
# Poissons Ratio (y) = -0.00770 0.75188
# Poissons Ratio (z) = 0.02485 0.82253
#
# Static dielectric constant tensor:
#      x y z
#    x 1.811890 0.000000 0.000000 
#    y 0.000000 1.656520 0.000000 
#    z 0.000000 0.000000 1.703230 
# 
# From -- ./inp_files/53314.got.cif
#   From: 2010.05.17/outbox.cif.g08.bks.cpg/sg63_27_cif.got.tgz:53314.got - 2010.06.03 15:47:04.
