data_PCOD9475292
_publ_section_title
;
Structure prediction by ZEFSAII (Michael W. Deem and Ramdas Pophale) SiO2 
 PCOD9475292
Probable space group: C M C M
;
_chemical_formula_sum "Si O2"
_cell_formula_units_Z 64
_cell_length_a 21.136447
_cell_length_b 7.874404
_cell_length_c 17.084146
_cell_angle_alpha 90.000000
_cell_angle_beta 90.000000
_cell_angle_gamma 90.000000
_cell_volume 2843.432689
_symmetry_space_group_name_H-M "C M C M"
_symmetry_group_IT_number 63
_symmetry_cell_setting 'orthorhombic'
loop_
_space_group_symop_operation_xyz
x,y,z
-x,-y,1/2+z
x,-y,-z
-x,y,1/2-z
-x,-y,-z
x,y,1/2-z
-x,y,z
x,-y,1/2+z
1/2+x,1/2+y,z
1/2-x,1/2-y,1/2+z
1/2+x,1/2-y,-z
1/2-x,1/2+y,1/2-z
1/2-x,1/2-y,-z
1/2+x,1/2+y,1/2-z
1/2-x,1/2+y,z
1/2+x,1/2-y,1/2+z
loop_
_atom_site_type_symbol
_atom_site_label
_atom_site_fract_x
_atom_site_fract_y
_atom_site_fract_z
Si Si1 0.648265 0.543984 0.340591
Si Si2 0.345265 0.928100 0.340269
Si Si3 0.429144 0.250513 0.555630
Si Si4 0.691372 0.762498 0.941083
O O1 0.636153 0.504607 0.250000
O O2 0.685805 0.396495 0.382979
O O3 0.585662 0.581637 0.392346
O O4 0.680083 0.732784 0.342326
O O5 0.348632 0.979254 0.250000
O O6 0.309717 0.065211 0.391672
O O7 0.413322 0.899401 0.382021
O O8 0.500000 0.244489 0.526223
O O9 0.373373 0.239829 0.492315
O O10 0.750000 0.750000 0.000000
#
# Coordination Sequence:
#
# PCOD9475292 Si02
#       4
#    16  16  16  16
#     4   9  22  44  69  98 137 187 235 292 357 426
#     4   9  22  44  69  98 137 187 235 292 357 426
#     4  10  23  45  71 103 140 183 242 301 357 423
#     4  12  25  42  69 108 142 187 239 299 356 429
#
# _framework density 22.508006000000002
#
# number of rings (size 3 to 8) (size 9 to 14) (size 15 to 20)
#    1.500    0.500    0.000    2.250    0.000   11.000 
#    0.000    7.500    0.000    4.500    0.000    0.000 
#    0.000    0.000    0.000    0.000    0.000    0.000 
#
# Total GULP energy -178645.231152 kJ/mol
# GULP energy per Si atom -5582.663474 kJ/mol
# Density = 2.245678 g / cm^3
# Si number density = 22.508006 Si / 1000 Ang^3
#
#
#
# Elastic Constant Matrix: (Units=GPa)
#
#
# Indices 1 2 3 4 5 6 
#
# 1 124.0933 30.2138 19.8052 0.0000 0.0000 0.0000
# 2 30.2138 99.9933 38.7980 0.0000 0.0000 0.0000
# 3 19.8052 38.7980 115.7467 0.0000 0.0000 0.0000
# 4 0.0000 0.0000 0.0000 49.7212 0.0000 0.0000
# 5 0.0000 0.0000 0.0000 0.0000 18.9186 0.0000
# 6 0.0000 0.0000 0.0000 0.0000 0.0000 17.9559
#
#
#
# Elastic Compliance Matrix: (Units=1/GPa)
#
#
# Indices 1 2 3 4 5 6 
#
# 1 0.008748 -0.002371 -0.000702 0.000000 0.000000 0.000000
# 2 -0.002371 0.012138 -0.003663 0.000000 0.000000 0.000000
# 3 -0.000702 -0.003663 0.009988 0.000000 0.000000 0.000000
# 4 0.000000 0.000000 0.000000 0.020112 0.000000 0.000000
# 5 0.000000 0.000000 0.000000 0.000000 0.052858 0.000000
# 6 0.000000 0.000000 0.000000 0.000000 0.000000 0.055692
#
#
# Mechanical properties :
#
#
# Convention : Reuss Voigt Hill
#
# Bulk Modulus (GPa) = 57.46582 57.49636 57.48109
# Shear Modulus (GPa) = 27.96290 34.05356 31.00823
#
# Velocity S-wave (km/s) = 3.52853 3.89389 3.71570
# Velocity P-wave (km/s) = 6.49518 6.76881 6.63341
#
# Compressibility (1/GPa) = 0.01740165
#
# Stress axis : x y z
#
# Youngs Moduli (GPa) = 114.31531 82.38385 100.12470
#
# Poissons Ratio (x) = 0.19531 0.07030
# Poissons Ratio (y) = 0.27101 0.36676
# Poissons Ratio (z) = 0.08026 0.30178
#
# Static dielectric constant tensor:
#      x y z
#    x 1.859240 0.000000 0.000000 
#    y 0.000000 1.890310 0.000000 
#    z 0.000000 0.000000 1.850330 
# 
# From -- ./inp_files/41717.got.cif
#   From: 2010.05.17/outbox.cif.g08.bks.cpg/sg63_21_cif.got.tgz:41717.got - 2010.06.03 15:47:04.
