data_PCOD9475207
_publ_section_title
;
Structure prediction by ZEFSAII (Michael W. Deem and Ramdas Pophale) SiO2 
 PCOD9475207
Probable space group: C M C M
;
_chemical_formula_sum "Si O2"
_cell_formula_units_Z 88
_cell_length_a 10.654392
_cell_length_b 15.002056
_cell_length_c 27.317182
_cell_angle_alpha 90.000000
_cell_angle_beta 90.000000
_cell_angle_gamma 90.000000
_cell_volume 4366.317875
_symmetry_space_group_name_H-M "C M C M"
_symmetry_group_IT_number 63
_symmetry_cell_setting 'orthorhombic'
loop_
_space_group_symop_operation_xyz
x,y,z
-x,-y,1/2+z
x,-y,-z
-x,y,1/2-z
-x,-y,-z
x,y,1/2-z
-x,y,z
x,-y,1/2+z
1/2+x,1/2+y,z
1/2-x,1/2-y,1/2+z
1/2+x,1/2-y,-z
1/2-x,1/2+y,1/2-z
1/2-x,1/2-y,-z
1/2+x,1/2+y,1/2-z
1/2-x,1/2+y,z
1/2+x,1/2-y,1/2+z
loop_
_atom_site_type_symbol
_atom_site_label
_atom_site_fract_x
_atom_site_fract_y
_atom_site_fract_z
Si Si1 0.000000 0.622800 0.480652
Si Si2 0.646269 0.779188 0.750000
Si Si3 0.000000 0.382935 0.408605
Si Si4 0.754199 0.873596 0.923204
Si Si5 0.500000 0.296436 0.538140
Si Si6 0.644703 0.274593 0.355273
Si Si7 0.746560 0.042227 0.856170
Si Si8 0.352285 0.993328 0.750000
O O1 0.000000 0.416716 0.464738
O O2 0.128390 0.602318 0.452881
O O3 0.000000 0.730726 0.491451
O O4 0.500000 0.750071 0.750000
O O5 0.699467 0.744211 0.698955
O O6 0.649735 0.885788 0.750000
O O7 0.000000 0.276052 0.417075
O O8 0.120713 0.418218 0.380607
O O9 0.874028 0.853780 0.957032
O O10 0.719946 0.783263 0.894226
O O11 0.779970 0.951461 0.884155
O O12 0.500000 0.242933 0.356597
O O13 0.653199 0.379643 0.363303
O O14 0.715881 0.024836 0.799334
O O15 0.500000 0.020203 0.750000
#
# Coordination Sequence:
#
# PCOD9475207 Si02
#       8
#     8   8   8  16   8  16  16   8
#     4  10  23  44  71  94 125 173 227 263 330 395
#     4   9  19  36  60  87 121 168 219 269 306 390
#     4  10  23  41  65  92 126 165 221 266 322 377
#     4  12  23  41  71  93 131 174 215 273 330 387
#     4  10  24  44  63  95 134 164 212 272 331 382
#     4  11  22  40  62  92 128 171 220 262 327 391
#     4  12  24  39  65  99 131 170 213 274 324 383
#     4  11  21  36  65  98 128 165 225 263 314 386
#
# _framework density 20.154281000000001
#
# number of rings (size 3 to 8) (size 9 to 14) (size 15 to 20)
#    0.545    0.545    5.455    1.636    1.273    1.455 
#    0.000    0.000    0.000    3.273    0.000    0.000 
#    0.000    0.000    0.000    0.000    0.000    0.000 
#
# Total GULP energy -245717.904929 kJ/mol
# GULP energy per Si atom -5584.497839 kJ/mol
# Density = 2.010841 g / cm^3
# Si number density = 20.154281 Si / 1000 Ang^3
#
#
#
# Elastic Constant Matrix: (Units=GPa)
#
#
# Indices 1 2 3 4 5 6 
#
# 1 66.5185 9.8337 13.3107 0.0000 0.0000 0.0000
# 2 9.8337 76.7814 9.8341 0.0000 0.0000 0.0000
# 3 13.3107 9.8341 89.6738 0.0000 0.0000 0.0000
# 4 0.0000 0.0000 0.0000 24.2883 0.0000 0.0000
# 5 0.0000 0.0000 0.0000 0.0000 4.7581 0.0000
# 6 0.0000 0.0000 0.0000 0.0000 0.0000 19.7523
#
#
#
# Elastic Compliance Matrix: (Units=1/GPa)
#
#
# Indices 1 2 3 4 5 6 
#
# 1 0.015719 -0.001739 -0.002143 0.000000 0.000000 0.000000
# 2 -0.001739 0.013402 -0.001212 0.000000 0.000000 0.000000
# 3 -0.002143 -0.001212 0.011602 0.000000 0.000000 0.000000
# 4 0.000000 0.000000 0.000000 0.041172 0.000000 0.000000
# 5 0.000000 0.000000 0.000000 0.000000 0.210167 0.000000
# 6 0.000000 0.000000 0.000000 0.000000 0.000000 0.050627
#
#
# Mechanical properties :
#
#
# Convention : Reuss Voigt Hill
#
# Bulk Modulus (GPa) = 32.74665 33.21454 32.98060
# Shear Modulus (GPa) = 13.77203 23.09274 18.43238
#
# Velocity S-wave (km/s) = 2.61689 3.38864 3.02746
# Velocity P-wave (km/s) = 5.04124 5.64149 5.34979
#
# Compressibility (1/GPa) = 0.03053747
#
# Stress axis : x y z
#
# Youngs Moduli (GPa) = 63.61640 74.61642 86.18877
#
# Poissons Ratio (x) = 0.12974 0.18467
# Poissons Ratio (y) = 0.11062 0.10443
# Poissons Ratio (z) = 0.13630 0.09041
#
# Static dielectric constant tensor:
#      x y z
#    x 1.702210 0.000000 0.000000 
#    y 0.000000 1.734760 0.000000 
#    z 0.000000 0.000000 1.721650 
# 
# From -- ./inp_files/68248.got.cif
#   From: 2010.05.17/outbox.cif.g08.bks.cpg/sg63_35_cif.got.tgz:68248.got - 2010.06.03 15:47:04.
