data_PCOD9475644
_publ_section_title
;
Structure prediction by ZEFSAII (Michael W. Deem and Ramdas Pophale) SiO2 
 PCOD9475644
Probable space group: C M C M
;
_chemical_formula_sum "Si O2"
_cell_formula_units_Z 68
_cell_length_a 7.462184
_cell_length_b 14.394948
_cell_length_c 24.031067
_cell_angle_alpha 90.000000
_cell_angle_beta 90.000000
_cell_angle_gamma 90.000000
_cell_volume 2581.363163
_symmetry_space_group_name_H-M "C M C M"
_symmetry_group_IT_number 63
_symmetry_cell_setting 'orthorhombic'
loop_
_space_group_symop_operation_xyz
x,y,z
-x,-y,1/2+z
x,-y,-z
-x,y,1/2-z
-x,-y,-z
x,y,1/2-z
-x,y,z
x,-y,1/2+z
1/2+x,1/2+y,z
1/2-x,1/2-y,1/2+z
1/2+x,1/2-y,-z
1/2-x,1/2+y,1/2-z
1/2-x,1/2-y,-z
1/2+x,1/2+y,1/2-z
1/2-x,1/2+y,z
1/2+x,1/2-y,1/2+z
loop_
_atom_site_type_symbol
_atom_site_label
_atom_site_fract_x
_atom_site_fract_y
_atom_site_fract_z
Si Si1 0.698901 0.660930 0.830553
Si Si2 0.000000 0.413035 0.250000
Si Si3 0.711288 0.133043 0.545713
Si Si4 0.212737 0.376590 0.691076
Si Si5 0.285906 0.914148 0.569978
O O1 0.500000 0.626838 0.818528
O O2 0.713488 0.673870 0.897470
O O3 0.721932 0.765164 0.808257
O O4 0.844653 0.598826 0.799639
O O5 0.500000 0.152795 0.545072
O O6 0.783045 0.145829 0.482654
O O7 0.732904 0.022335 0.555857
O O8 0.287695 0.410352 0.750000
O O9 0.290266 0.402826 0.631499
O O10 0.000000 0.402665 0.691979
O O11 0.500000 0.894348 0.573148
#
# Coordination Sequence:
#
# PCOD9475644 Si02
#       5
#    16   4  16  16  16
#     4  11  22  37  61  86 115 150 195 237 289 346
#     4  12  22  40  60  84 116 158 184 238 292 346
#     4   9  17  34  57  85 115 156 199 240 286 341
#     4   9  17  32  52  80 113 153 193 241 292 341
#     4   8  16  32  56  82 117 158 200 237 287 345
#
# _framework density 26.342670999999999
#
# number of rings (size 3 to 8) (size 9 to 14) (size 15 to 20)
#    0.000    2.588    2.353    1.765    0.000    0.941 
#    2.118    2.353    5.176    0.000    0.000    0.000 
#    0.000    0.000    0.000    0.000    0.000    0.000 
#
# Total GULP energy -189614.942432 kJ/mol
# GULP energy per Si atom -5576.910072 kJ/mol
# Density = 2.628271 g / cm^3
# Si number density = 26.342671 Si / 1000 Ang^3
#
#
#
# Elastic Constant Matrix: (Units=GPa)
#
#
# Indices 1 2 3 4 5 6 
#
# 1 110.7618 18.1189 50.1767 0.0000 0.0000 0.0000
# 2 18.1189 52.7293 26.7700 0.0000 0.0000 0.0000
# 3 50.1767 26.7700 324.1538 0.0000 0.0000 0.0000
# 4 0.0000 0.0000 0.0000 50.5486 0.0000 0.0000
# 5 0.0000 0.0000 0.0000 0.0000 -2.3964 0.0000
# 6 0.0000 0.0000 0.0000 0.0000 0.0000 7.6680
#
#
#
# Elastic Compliance Matrix: (Units=1/GPa)
#
#
# Indices 1 2 3 4 5 6 
#
# 1 0.010088 -0.002791 -0.001331 0.000000 0.000000 0.000000
# 2 -0.002791 0.020567 -0.001267 0.000000 0.000000 0.000000
# 3 -0.001331 -0.001267 0.003396 0.000000 0.000000 0.000000
# 4 0.000000 0.000000 0.000000 0.019783 0.000000 0.000000
# 5 0.000000 0.000000 0.000000 0.000000 -0.417300 0.000000
# 6 0.000000 0.000000 0.000000 0.000000 0.000000 0.130412
#
#
# Mechanical properties :
#
#
# Convention : Reuss Voigt Hill
#
# Bulk Modulus (GPa) = 42.96691 75.30844 59.13767
# Shear Modulus (GPa) = -23.30785 37.33600 7.01408
#
# Velocity S-wave (km/s) = -2.97778 3.76882 1.63353
# Velocity P-wave (km/s) = 2.12681 6.89846 5.10451
#
# Compressibility (1/GPa) = 0.02327373
#
# Stress axis : x y z
#
# Youngs Moduli (GPa) = 99.12883 48.62229 294.49966
#
# Poissons Ratio (x) = 0.13569 0.39200
# Poissons Ratio (y) = 0.27663 0.37299
# Poissons Ratio (z) = 0.13195 0.06158
#
# Static dielectric constant tensor:
#      x y z
#    x 1.969430 0.000000 0.000000 
#    y 0.000000 2.185190 0.000000 
#    z 0.000000 0.000000 2.107560 
# 
# From -- ./inp_files/59267.got.cif
#   From: 2010.05.17/outbox.cif.g08.bks.cpg/sg63_30_cif.got.tgz:59267.got - 2010.06.03 15:47:04.
