data_PCOD9475882
_publ_section_title
;
Structure prediction by ZEFSAII (Michael W. Deem and Ramdas Pophale) SiO2 
 PCOD9475882
Probable space group: C M C M
;
_chemical_formula_sum "Si O2"
_cell_formula_units_Z 80
_cell_length_a 13.527465
_cell_length_b 25.494333
_cell_length_c 13.771174
_cell_angle_alpha 90.000000
_cell_angle_beta 90.000000
_cell_angle_gamma 90.000000
_cell_volume 4749.315694
_symmetry_space_group_name_H-M "C M C M"
_symmetry_group_IT_number 63
_symmetry_cell_setting 'orthorhombic'
loop_
_space_group_symop_operation_xyz
x,y,z
-x,-y,1/2+z
x,-y,-z
-x,y,1/2-z
-x,-y,-z
x,y,1/2-z
-x,y,z
x,-y,1/2+z
1/2+x,1/2+y,z
1/2-x,1/2-y,1/2+z
1/2+x,1/2-y,-z
1/2-x,1/2+y,1/2-z
1/2-x,1/2-y,-z
1/2+x,1/2+y,1/2-z
1/2-x,1/2+y,z
1/2+x,1/2-y,1/2+z
loop_
_atom_site_type_symbol
_atom_site_label
_atom_site_fract_x
_atom_site_fract_y
_atom_site_fract_z
Si Si1 0.116177 0.045364 0.132794
Si Si2 0.883272 0.928096 0.357005
Si Si3 0.615223 0.716966 0.137244
Si Si4 0.217125 0.133547 0.489062
Si Si5 0.384272 0.842974 0.137349
O O1 0.116451 0.048901 0.250000
O O2 0.000000 0.054051 0.102151
O O3 0.147704 0.985860 0.107251
O O4 0.190565 0.087189 0.086646
O O5 0.841525 0.920227 0.250000
O O6 0.858351 0.880075 0.424741
O O7 0.000000 0.932966 0.349768
O O8 0.632537 0.701833 0.250000
O O9 0.500000 0.703469 0.115368
O O10 0.625458 0.779648 0.130829
O O11 0.688638 0.686590 0.066186
O O12 0.319428 0.134092 0.548954
O O13 0.357318 0.856897 0.250000
O O14 0.500000 0.855907 0.125749
#
# Coordination Sequence:
#
# PCOD9475882 Si02
#       5
#    16  16  16  16  16
#     4   9  18  31  46  69 103 135 156 180 225 286
#     4   9  18  30  43  67 104 134 152 180 230 287
#     4   9  18  32  49  71  99 126 152 187 232 282
#     4  12  18  26  50  76  90 115 162 203 230 265
#     4   9  20  37  50  63  90 126 162 200 239 277
#
# _framework density 16.844532000000001
#
# number of rings (size 3 to 8) (size 9 to 14) (size 15 to 20)
#    0.000    2.400    0.000    6.600    0.000    3.200 
#    0.000    0.000    0.000    4.800    0.000   16.800 
#    0.000    0.000    0.000    0.000    0.000    0.000 
#
# Total GULP energy -222672.311720 kJ/mol
# GULP energy per Si atom -5566.807793 kJ/mol
# Density = 1.680619 g / cm^3
# Si number density = 16.844532 Si / 1000 Ang^3
#
#
#
# Elastic Constant Matrix: (Units=GPa)
#
#
# Indices 1 2 3 4 5 6 
#
# 1 69.7866 23.7686 35.5784 0.0000 0.0000 0.0000
# 2 23.7686 28.7105 16.1530 0.0000 0.0000 0.0000
# 3 35.5784 16.1530 88.3259 0.0000 0.0000 0.0000
# 4 0.0000 0.0000 0.0000 29.3073 0.0000 0.0000
# 5 0.0000 0.0000 0.0000 0.0000 35.6730 0.0000
# 6 0.0000 0.0000 0.0000 0.0000 0.0000 13.1958
#
#
#
# Elastic Compliance Matrix: (Units=1/GPa)
#
#
# Indices 1 2 3 4 5 6 
#
# 1 0.022786 -0.015271 -0.006386 0.000000 0.000000 0.000000
# 2 -0.015271 0.049060 -0.002821 0.000000 0.000000 0.000000
# 3 -0.006386 -0.002821 0.014410 0.000000 0.000000 0.000000
# 4 0.000000 0.000000 0.000000 0.034121 0.000000 0.000000
# 5 0.000000 0.000000 0.000000 0.000000 0.028032 0.000000
# 6 0.000000 0.000000 0.000000 0.000000 0.000000 0.075782
#
#
# Mechanical properties :
#
#
# Convention : Reuss Voigt Hill
#
# Bulk Modulus (GPa) = 26.80913 37.53588 32.17250
# Shear Modulus (GPa) = 17.50821 23.05675 20.28248
#
# Velocity S-wave (km/s) = 3.22747 3.70374 3.47378
# Velocity P-wave (km/s) = 5.46250 6.37357 5.93554
#
# Compressibility (1/GPa) = 0.03730073
#
# Stress axis : x y z
#
# Youngs Moduli (GPa) = 43.88626 20.38317 69.39755
#
# Poissons Ratio (x) = 0.31128 0.44315
# Poissons Ratio (y) = 0.67020 0.19575
# Poissons Ratio (z) = 0.28024 0.05749
#
# Static dielectric constant tensor:
#      x y z
#    x 1.561360 0.000000 0.000000 
#    y 0.000000 1.589230 0.000000 
#    z 0.000000 0.000000 1.617620 
# 
# From -- ./inp_files/29997.got.cif
#   From: 2010.05.17/outbox.cif.g08.bks.cpg/sg63_15_cif.got.tgz:29997.got - 2010.06.03 15:47:04.
