data_PCOD9475679
_publ_section_title
;
Structure prediction by ZEFSAII (Michael W. Deem and Ramdas Pophale) SiO2 
 PCOD9475679
Probable space group: C M C M
;
_chemical_formula_sum "Si O2"
_cell_formula_units_Z 68
_cell_length_a 9.838166
_cell_length_b 20.141026
_cell_length_c 18.562051
_cell_angle_alpha 90.000000
_cell_angle_beta 90.000000
_cell_angle_gamma 90.000000
_cell_volume 3678.084461
_symmetry_space_group_name_H-M "C M C M"
_symmetry_group_IT_number 63
_symmetry_cell_setting 'orthorhombic'
loop_
_space_group_symop_operation_xyz
x,y,z
-x,-y,1/2+z
x,-y,-z
-x,y,1/2-z
-x,-y,-z
x,y,1/2-z
-x,y,z
x,-y,1/2+z
1/2+x,1/2+y,z
1/2-x,1/2-y,1/2+z
1/2+x,1/2-y,-z
1/2-x,1/2+y,1/2-z
1/2-x,1/2-y,-z
1/2+x,1/2+y,1/2-z
1/2-x,1/2+y,z
1/2+x,1/2-y,1/2+z
loop_
_atom_site_type_symbol
_atom_site_label
_atom_site_fract_x
_atom_site_fract_y
_atom_site_fract_z
Si Si1 0.201961 0.098101 0.250000
Si Si2 0.500000 0.343355 0.635696
Si Si3 0.161723 0.939100 0.250000
Si Si4 0.000000 0.077178 0.509927
Si Si5 0.500000 0.149360 0.250000
Si Si6 0.000000 0.747134 0.386028
Si Si7 0.722958 0.640763 0.609528
Si Si8 0.000000 0.297243 0.445072
O O1 0.130323 0.135416 0.182936
O O2 0.362161 0.107613 0.250000
O O3 0.170790 0.019229 0.250000
O O4 0.500000 0.388292 0.566094
O O5 0.500000 0.268660 0.605469
O O6 0.228455 0.904737 0.319584
O O7 0.000000 0.922429 0.250000
O O8 0.131989 0.100559 0.553018
O O9 0.000000 0.000000 0.500000
O O10 0.500000 0.193041 0.323105
O O11 0.132823 0.793405 0.375467
O O12 0.000000 0.721935 0.469572
O O13 0.865684 0.662032 0.576087
#
# Coordination Sequence:
#
# PCOD9475679 Si02
#       8
#     8   8   8   8   4   8  16   8
#     4  11  26  41  67  94 128 169 212 272 306 386
#     4  11  22  42  66  91 131 169 210 260 321 379
#     4  12  21  47  65  90 126 167 232 253 310 388
#     4  11  22  40  65  93 120 174 223 249 312 387
#     4  12  26  40  64  98 132 170 204 260 346 364
#     4  11  22  43  65  93 134 167 213 253 315 404
#     4  11  24  40  69  93 125 175 204 273 315 376
#     4  12  25  41  63 103 136 156 213 270 333 379
#
# _framework density 18.487884999999999
#
# number of rings (size 3 to 8) (size 9 to 14) (size 15 to 20)
#    0.000    0.706    5.882    4.235    3.294    3.294 
#    0.000    0.588    0.000    0.000    0.000    0.000 
#    0.000    0.000    0.000    0.000    0.000    0.000 
#
# Total GULP energy -189985.105577 kJ/mol
# GULP energy per Si atom -5587.797223 kJ/mol
# Density = 1.844581 g / cm^3
# Si number density = 18.487885 Si / 1000 Ang^3
#
#
#
# Elastic Constant Matrix: (Units=GPa)
#
#
# Indices 1 2 3 4 5 6 
#
# 1 143.8549 59.7645 47.5347 0.0000 0.0000 0.0000
# 2 59.7645 120.6493 68.7417 0.0000 0.0000 0.0000
# 3 47.5347 68.7417 161.0885 0.0000 0.0000 0.0000
# 4 0.0000 0.0000 0.0000 50.9569 0.0000 0.0000
# 5 0.0000 0.0000 0.0000 0.0000 -3.4933 0.0000
# 6 0.0000 0.0000 0.0000 0.0000 0.0000 -12.0910
#
#
#
# Elastic Compliance Matrix: (Units=1/GPa)
#
#
# Indices 1 2 3 4 5 6 
#
# 1 0.008868 -0.003834 -0.000981 0.000000 0.000000 0.000000
# 2 -0.003834 0.012609 -0.004249 0.000000 0.000000 0.000000
# 3 -0.000981 -0.004249 0.008310 0.000000 0.000000 0.000000
# 4 0.000000 0.000000 0.000000 0.019624 0.000000 0.000000
# 5 0.000000 0.000000 0.000000 0.000000 -0.286266 0.000000
# 6 0.000000 0.000000 0.000000 0.000000 0.000000 -0.082706
#
#
# Mechanical properties :
#
#
# Convention : Reuss Voigt Hill
#
# Bulk Modulus (GPa) = 85.76784 86.40828 86.08806
# Shear Modulus (GPa) = -16.80419 23.71130 3.45356
#
# Velocity S-wave (km/s) = -3.01812 3.58513 1.36823
# Velocity P-wave (km/s) = 5.86061 7.99855 7.01154
#
# Compressibility (1/GPa) = 0.01165938
#
# Stress axis : x y z
#
# Youngs Moduli (GPa) = 112.75899 79.30936 120.33070
#
# Poissons Ratio (x) = 0.30409 0.11801
# Poissons Ratio (y) = 0.43235 0.51131
# Poissons Ratio (z) = 0.11059 0.33700
#
# Static dielectric constant tensor:
#      x y z
#    x 1.615760 0.000000 0.000000 
#    y 0.000000 1.601580 0.000000 
#    z 0.000000 0.000000 1.618580 
# 
# From -- ./inp_files/40056.got.cif
#   From: 2010.05.17/outbox.cif.g08.bks.cpg/sg63_21_cif.got.tgz:40056.got - 2010.06.03 15:47:04.
