data_PCOD9475295
_publ_section_title
;
Structure prediction by ZEFSAII (Michael W. Deem and Ramdas Pophale) SiO2 
 PCOD9475295
Probable space group: C M C M
;
_chemical_formula_sum "Si O2"
_cell_formula_units_Z 68
_cell_length_a 30.281642
_cell_length_b 4.991883
_cell_length_c 20.298835
_cell_angle_alpha 90.000000
_cell_angle_beta 90.000000
_cell_angle_gamma 90.000000
_cell_volume 3068.420898
_symmetry_space_group_name_H-M "C M C M"
_symmetry_group_IT_number 63
_symmetry_cell_setting 'orthorhombic'
loop_
_space_group_symop_operation_xyz
x,y,z
-x,-y,1/2+z
x,-y,-z
-x,y,1/2-z
-x,-y,-z
x,y,1/2-z
-x,y,z
x,-y,1/2+z
1/2+x,1/2+y,z
1/2-x,1/2-y,1/2+z
1/2+x,1/2-y,-z
1/2-x,1/2+y,1/2-z
1/2-x,1/2-y,-z
1/2+x,1/2+y,1/2-z
1/2-x,1/2+y,z
1/2+x,1/2-y,1/2+z
loop_
_atom_site_type_symbol
_atom_site_label
_atom_site_fract_x
_atom_site_fract_y
_atom_site_fract_z
Si Si1 0.000000 0.500000 0.500000
Si Si2 0.664331 0.768041 0.456009
Si Si3 0.282587 0.315091 0.822589
Si Si4 0.051598 0.947017 0.826216
Si Si5 0.079060 0.560710 0.103218
O O1 0.038571 0.570650 0.446640
O O2 0.656822 0.500000 0.500000
O O3 0.688173 0.686860 0.388106
O O4 0.620724 0.927176 0.431829
O O5 0.688556 0.000000 0.500000
O O6 0.305844 0.321608 0.750000
O O7 0.248298 0.556571 0.824438
O O8 0.054584 0.015186 0.750000
O O9 0.082926 0.142042 0.868098
O O10 0.000000 0.978739 0.846836
O O11 0.064931 0.642403 0.839139
#
# Coordination Sequence:
#
# PCOD9475295 Si02
#       5
#     4  16  16  16  16
#     4  12  24  42  66  86 132 186 228 264 318 400
#     4  12  26  43  66 102 138 169 222 279 328 391
#     4  10  23  45  72 100 133 175 217 261 330 413
#     4  11  23  41  62  89 120 163 224 281 335 390
#     4  12  25  41  65  93 128 179 221 273 331 387
#
# _framework density 22.161237
#
# number of rings (size 3 to 8) (size 9 to 14) (size 15 to 20)
#    0.000    0.706    3.529    3.529    0.000    7.529 
#    0.000    2.353    0.000    0.000    0.000    0.000 
#    0.000    0.000    0.000    0.000    0.000    0.000 
#
# Total GULP energy -189491.206401 kJ/mol
# GULP energy per Si atom -5573.270776 kJ/mol
# Density = 2.211080 g / cm^3
# Si number density = 22.161237 Si / 1000 Ang^3
#
#
#
# Elastic Constant Matrix: (Units=GPa)
#
#
# Indices 1 2 3 4 5 6 
#
# 1 223.5628 179.5404 179.7500 0.0000 0.0000 0.0000
# 2 179.5404 288.5073 152.2464 0.0000 0.0000 0.0000
# 3 179.7500 152.2464 231.7496 0.0000 0.0000 0.0000
# 4 0.0000 0.0000 0.0000 -6.3157 0.0000 0.0000
# 5 0.0000 0.0000 0.0000 0.0000 23.3470 0.0000
# 6 0.0000 0.0000 0.0000 0.0000 0.0000 25.0055
#
#
#
# Elastic Compliance Matrix: (Units=1/GPa)
#
#
# Indices 1 2 3 4 5 6 
#
# 1 0.015599 -0.005086 -0.008758 0.000000 0.000000 0.000000
# 2 -0.005086 0.006963 -0.000630 0.000000 0.000000 0.000000
# 3 -0.008758 -0.000630 0.011521 0.000000 0.000000 0.000000
# 4 0.000000 0.000000 0.000000 -0.158336 0.000000 0.000000
# 5 0.000000 0.000000 0.000000 0.000000 0.042832 0.000000
# 6 0.000000 0.000000 0.000000 0.000000 0.000000 0.039991
#
#
# Mechanical properties :
#
#
# Convention : Reuss Voigt Hill
#
# Bulk Modulus (GPa) = 194.67010 196.32147 195.49579
# Shear Modulus (GPa) = -464.24349 23.89289 -220.17530
#
# Velocity S-wave (km/s) = -14.48928 3.28706 -9.97834
# Velocity P-wave (km/s) = 13.85228 10.15807 6.65955
#
# Compressibility (1/GPa) = 0.00513690
#
# Stress axis : x y z
#
# Youngs Moduli (GPa) = 64.10825 143.60684 86.79464
#
# Poissons Ratio (x) = 0.73035 0.76011
# Poissons Ratio (y) = 0.32604 0.05468
# Poissons Ratio (z) = 0.56143 0.09047
#
# Static dielectric constant tensor:
#      x y z
#    x 1.805120 0.000000 0.000000 
#    y 0.000000 1.788920 0.000000 
#    z 0.000000 0.000000 1.862440 
# 
# From -- ./inp_files/57903.got.cif
#   From: 2010.05.17/outbox.cif.g08.bks.cpg/sg63_29_cif.got.tgz:57903.got - 2010.06.03 15:47:04.
