data_PCOD9475106
_publ_section_title
;
Structure prediction by ZEFSAII (Michael W. Deem and Ramdas Pophale) SiO2 
 PCOD9475106
Probable space group: C M C M
;
_chemical_formula_sum "Si O2"
_cell_formula_units_Z 80
_cell_length_a 15.291134
_cell_length_b 10.627174
_cell_length_c 23.381612
_cell_angle_alpha 90.000000
_cell_angle_beta 90.000000
_cell_angle_gamma 90.000000
_cell_volume 3799.547997
_symmetry_space_group_name_H-M "C M C M"
_symmetry_group_IT_number 63
_symmetry_cell_setting 'orthorhombic'
loop_
_space_group_symop_operation_xyz
x,y,z
-x,-y,1/2+z
x,-y,-z
-x,y,1/2-z
-x,-y,-z
x,y,1/2-z
-x,y,z
x,-y,1/2+z
1/2+x,1/2+y,z
1/2-x,1/2-y,1/2+z
1/2+x,1/2-y,-z
1/2-x,1/2+y,1/2-z
1/2-x,1/2-y,-z
1/2+x,1/2+y,1/2-z
1/2-x,1/2+y,z
1/2+x,1/2-y,1/2+z
loop_
_atom_site_type_symbol
_atom_site_label
_atom_site_fract_x
_atom_site_fract_y
_atom_site_fract_z
Si Si1 0.402650 0.789773 0.117959
Si Si2 0.187863 0.136370 0.021571
Si Si3 0.747475 0.906419 0.183289
Si Si4 0.842488 0.443875 0.902923
Si Si5 0.599692 0.340412 0.403947
O O1 0.500000 0.768623 0.140325
O O2 0.375378 0.688887 0.070876
O O3 0.325414 0.802242 0.164591
O O4 0.397958 0.929155 0.088746
O O5 0.261526 0.053634 0.053526
O O6 0.250000 0.250000 0.000000
O O7 0.130535 0.106175 0.965442
O O8 0.764026 0.907371 0.250000
O O9 0.833085 0.883372 0.145028
O O10 0.700482 0.033269 0.159711
O O11 0.890945 0.311915 0.907401
O O12 0.500000 0.375056 0.392219
#
# Coordination Sequence:
#
# PCOD9475106 Si02
#       5
#    16  16  16  16  16
#     4  10  23  42  66  98 131 168 220 278 329 392
#     4  12  23  42  66  97 137 174 212 267 342 407
#     4  10  24  44  67  94 132 178 220 271 335 395
#     4  10  22  42  68  94 131 171 220 273 330 390
#     4  12  25  41  68 101 132 174 223 276 335 396
#
# _framework density 21.055136000000001
#
# number of rings (size 3 to 8) (size 9 to 14) (size 15 to 20)
#    1.200    0.000    4.000    1.800    2.800    3.200 
#    0.000    2.000    0.000    0.000    0.000    0.000 
#    0.000    0.000    0.000    0.000    0.000    0.000 
#
# Total GULP energy -222990.366250 kJ/mol
# GULP energy per Si atom -5574.759156 kJ/mol
# Density = 2.100721 g / cm^3
# Si number density = 21.055136 Si / 1000 Ang^3
#
#
#
# Elastic Constant Matrix: (Units=GPa)
#
#
# Indices 1 2 3 4 5 6 
#
# 1 165.9386 -0.2359 60.0247 0.0000 0.0000 0.0000
# 2 -0.2359 34.2475 12.2093 0.0000 0.0000 0.0000
# 3 60.0247 12.2093 165.1961 0.0000 0.0000 0.0000
# 4 0.0000 0.0000 0.0000 23.4514 0.0000 0.0000
# 5 0.0000 0.0000 0.0000 0.0000 3.9019 0.0000
# 6 0.0000 0.0000 0.0000 0.0000 0.0000 21.6619
#
#
#
# Elastic Compliance Matrix: (Units=1/GPa)
#
#
# Indices 1 2 3 4 5 6 
#
# 1 0.006970 0.000977 -0.002605 0.000000 0.000000 0.000000
# 2 0.000977 0.030126 -0.002581 0.000000 0.000000 0.000000
# 3 -0.002605 -0.002581 0.007191 0.000000 0.000000 0.000000
# 4 0.000000 0.000000 0.000000 0.042641 0.000000 0.000000
# 5 0.000000 0.000000 0.000000 0.000000 0.256283 0.000000
# 6 0.000000 0.000000 0.000000 0.000000 0.000000 0.046164
#
#
# Mechanical properties :
#
#
# Convention : Reuss Voigt Hill
#
# Bulk Modulus (GPa) = 27.88025 56.59759 42.23892
# Shear Modulus (GPa) = 12.20256 29.36200 20.78228
#
# Velocity S-wave (km/s) = 2.41000 3.73839 3.14513
# Velocity P-wave (km/s) = 4.58415 6.75078 5.77007
#
# Compressibility (1/GPa) = 0.03586769
#
# Stress axis : x y z
#
# Youngs Moduli (GPa) = 143.47371 33.19368 139.06968
#
# Poissons Ratio (x) = -0.03242 0.36224
# Poissons Ratio (y) = -0.14012 0.35900
# Poissons Ratio (z) = 0.37371 0.08569
#
# Static dielectric constant tensor:
#      x y z
#    x 1.791360 0.000000 0.000000 
#    y 0.000000 1.972780 0.000000 
#    z 0.000000 0.000000 1.735510 
# 
# From -- ./inp_files/69160.got.cif
#   From: 2010.05.17/outbox.cif.g08.bks.cpg/sg63_35_cif.got.tgz:69160.got - 2010.06.03 15:47:04.
