data_PCOD9475380
_publ_section_title
;
Structure prediction by ZEFSAII (Michael W. Deem and Ramdas Pophale) SiO2 
 PCOD9475380
Probable space group: C M C M
;
_chemical_formula_sum "Si O2"
_cell_formula_units_Z 40
_cell_length_a 11.230012
_cell_length_b 9.359491
_cell_length_c 13.519888
_cell_angle_alpha 90.000000
_cell_angle_beta 90.000000
_cell_angle_gamma 90.000000
_cell_volume 1421.037521
_symmetry_space_group_name_H-M "C M C M"
_symmetry_group_IT_number 63
_symmetry_cell_setting 'orthorhombic'
loop_
_space_group_symop_operation_xyz
x,y,z
-x,-y,1/2+z
x,-y,-z
-x,y,1/2-z
-x,-y,-z
x,y,1/2-z
-x,y,z
x,-y,1/2+z
1/2+x,1/2+y,z
1/2-x,1/2-y,1/2+z
1/2+x,1/2-y,-z
1/2-x,1/2+y,1/2-z
1/2-x,1/2-y,-z
1/2+x,1/2+y,1/2-z
1/2-x,1/2+y,z
1/2+x,1/2-y,1/2+z
loop_
_atom_site_type_symbol
_atom_site_label
_atom_site_fract_x
_atom_site_fract_y
_atom_site_fract_z
Si Si1 0.000000 0.031893 0.750000
Si Si2 0.635632 0.141234 0.431997
Si Si3 0.000000 0.828202 0.564765
Si Si4 0.000000 0.620176 0.750000
Si Si5 0.252750 0.037648 0.250000
O O1 0.000000 0.965943 0.634803
O O2 0.860539 0.066205 0.750000
O O3 0.500000 0.127247 0.386787
O O4 0.613425 0.285410 0.495447
O O5 0.733375 0.135256 0.346892
O O6 0.650003 0.000000 0.500000
O O7 0.000000 0.712104 0.650914
O O8 0.127358 0.549203 0.750000
#
# Coordination Sequence:
#
# PCOD9475380 Si02
#       5
#     4  16   8   4   8
#     4  11  28  30  44  85 136 126 152 221 312 290
#     4   9  15  30  61  84  87 127 200 227 231 289
#     4   9  18  36  54  85  93 145 179 233 235 316
#     4  11  14  34  72  69  96 134 214 201 236 306
#     4  12  18  34  52  88 104 142 168 232 254 324
#
# _framework density 28.148448999999999
#
# number of rings (size 3 to 8) (size 9 to 14) (size 15 to 20)
#    1.200    0.800    6.000    0.000    0.000    1.600 
#    0.000    1.000    0.000    4.800    0.000    0.000 
#    0.000    0.000    0.000    0.000    0.000    0.000 
#
# Total GULP energy -111519.604383 kJ/mol
# GULP energy per Si atom -5575.980219 kJ/mol
# Density = 2.808438 g / cm^3
# Si number density = 28.148449 Si / 1000 Ang^3
#
#
#
# Elastic Constant Matrix: (Units=GPa)
#
#
# Indices 1 2 3 4 5 6 
#
# 1 165.8239 35.9639 37.2616 0.0000 0.0000 0.0000
# 2 35.9639 60.0577 32.7466 0.0000 0.0000 0.0000
# 3 37.2616 32.7466 101.3757 0.0000 0.0000 0.0000
# 4 0.0000 0.0000 0.0000 33.2260 0.0000 0.0000
# 5 0.0000 0.0000 0.0000 0.0000 60.9090 0.0000
# 6 0.0000 0.0000 0.0000 0.0000 0.0000 19.6250
#
#
#
# Elastic Compliance Matrix: (Units=1/GPa)
#
#
# Indices 1 2 3 4 5 6 
#
# 1 0.007115 -0.003440 -0.001504 0.000000 0.000000 0.000000
# 2 -0.003440 0.021874 -0.005801 0.000000 0.000000 0.000000
# 3 -0.001504 -0.005801 0.012291 0.000000 0.000000 0.000000
# 4 0.000000 0.000000 0.000000 0.030097 0.000000 0.000000
# 5 0.000000 0.000000 0.000000 0.000000 0.016418 0.000000
# 6 0.000000 0.000000 0.000000 0.000000 0.000000 0.050955
#
#
# Mechanical properties :
#
#
# Convention : Reuss Voigt Hill
#
# Bulk Modulus (GPa) = 50.53377 59.91128 55.22253
# Shear Modulus (GPa) = 29.96945 37.50436 33.73690
#
# Velocity S-wave (km/s) = 3.26650 3.65413 3.46574
# Velocity P-wave (km/s) = 5.67612 6.25571 5.97294
#
# Compressibility (1/GPa) = 0.01978875
#
# Stress axis : x y z
#
# Youngs Moduli (GPa) = 140.55711 45.71636 81.36095
#
# Poissons Ratio (x) = 0.15729 0.12234
# Poissons Ratio (y) = 0.48358 0.47199
# Poissons Ratio (z) = 0.21135 0.26521
#
# Static dielectric constant tensor:
#      x y z
#    x 2.199410 0.000000 0.000000 
#    y 0.000000 2.316970 0.000000 
#    z 0.000000 0.000000 2.012480 
# 
# From -- ./inp_files/28419.got.cif
#   From: 2010.05.17/outbox.cif.g08.bks.cpg/sg63_15_cif.got.tgz:28419.got - 2010.06.03 15:47:04.
