data_PCOD9475760
_publ_section_title
;
Structure prediction by ZEFSAII (Michael W. Deem and Ramdas Pophale) SiO2 
 PCOD9475760
Probable space group: C M C M
;
_chemical_formula_sum "Si O2"
_cell_formula_units_Z 104
_cell_length_a 27.831394
_cell_length_b 21.343526
_cell_length_c 9.129424
_cell_angle_alpha 90.000000
_cell_angle_beta 90.000000
_cell_angle_gamma 90.000000
_cell_volume 5423.061188
_symmetry_space_group_name_H-M "C M C M"
_symmetry_group_IT_number 63
_symmetry_cell_setting 'orthorhombic'
loop_
_space_group_symop_operation_xyz
x,y,z
-x,-y,1/2+z
x,-y,-z
-x,y,1/2-z
-x,-y,-z
x,y,1/2-z
-x,y,z
x,-y,1/2+z
1/2+x,1/2+y,z
1/2-x,1/2-y,1/2+z
1/2+x,1/2-y,-z
1/2-x,1/2+y,1/2-z
1/2-x,1/2-y,-z
1/2+x,1/2+y,1/2-z
1/2-x,1/2+y,z
1/2+x,1/2-y,1/2+z
loop_
_atom_site_type_symbol
_atom_site_label
_atom_site_fract_x
_atom_site_fract_y
_atom_site_fract_z
Si Si1 0.130848 0.316848 0.575318
Si Si2 0.445795 0.394054 0.923456
Si Si3 0.207747 0.098323 0.589403
Si Si4 0.631096 0.500000 0.500000
Si Si5 0.797623 0.777843 0.575758
Si Si6 0.942522 0.755120 0.919041
Si Si7 0.180073 0.435004 0.077481
O O1 0.135199 0.317347 0.750000
O O2 0.160276 0.260419 0.500700
O O3 0.077843 0.299969 0.519274
O O4 0.153132 0.379265 0.505874
O O5 0.450457 0.384799 0.750000
O O6 0.500000 0.410123 0.979600
O O7 0.430569 0.325171 0.979294
O O8 0.406174 0.447473 0.942894
O O9 0.206100 0.129715 0.750000
O O10 0.197656 0.149254 0.464974
O O11 0.262160 0.074657 0.567334
O O12 0.169077 0.042560 0.589236
O O13 0.796479 0.768612 0.750000
O O14 0.750000 0.750000 0.500000
O O15 0.924802 0.748698 0.750000
O O16 0.000000 0.753572 0.914529
O O17 0.168123 0.434816 0.250000
O O18 0.167922 0.500000 0.000000
#
# Coordination Sequence:
#
# PCOD9475760 Si02
#       7
#    16  16  16   8  16  16  16
#     4  12  24  39  63  92 123 159 203 252 312 373
#     4   9  19  36  57  82 114 156 205 253 303 360
#     4  11  24  38  55  83 120 160 205 254 303 362
#     4  12  21  34  56  84 120 164 211 256 302 348
#     4  12  24  39  60  84 115 155 204 259 316 371
#     4   9  19  39  66  94 124 160 204 253 310 372
#     4  11  23  41  61  85 122 163 205 246 297 363
#
# _framework density 19.177361000000001
#
# number of rings (size 3 to 8) (size 9 to 14) (size 15 to 20)
#    0.000    1.231    2.308    5.769    0.000    3.385 
#    0.000    0.769    0.000    2.308    0.000    0.000 
#    0.000    0.000    0.000    0.000    0.000    0.000 
#
# Total GULP energy -290157.317816 kJ/mol
# GULP energy per Si atom -5579.948420 kJ/mol
# Density = 1.913371 g / cm^3
# Si number density = 19.177361 Si / 1000 Ang^3
#
#
#
# Elastic Constant Matrix: (Units=GPa)
#
#
# Indices 1 2 3 4 5 6 
#
# 1 80.2625 55.6881 36.1914 0.0000 0.0000 0.0000
# 2 55.6881 112.7056 66.8625 0.0000 0.0000 0.0000
# 3 36.1914 66.8625 141.1198 0.0000 0.0000 0.0000
# 4 0.0000 0.0000 0.0000 27.0500 0.0000 0.0000
# 5 0.0000 0.0000 0.0000 0.0000 19.7824 0.0000
# 6 0.0000 0.0000 0.0000 0.0000 0.0000 36.9128
#
#
#
# Elastic Compliance Matrix: (Units=1/GPa)
#
#
# Indices 1 2 3 4 5 6 
#
# 1 0.018994 -0.009035 -0.000591 0.000000 0.000000 0.000000
# 2 -0.009035 0.016639 -0.005567 0.000000 0.000000 0.000000
# 3 -0.000591 -0.005567 0.009875 0.000000 0.000000 0.000000
# 4 0.000000 0.000000 0.000000 0.036969 0.000000 0.000000
# 5 0.000000 0.000000 0.000000 0.000000 0.050550 0.000000
# 6 0.000000 0.000000 0.000000 0.000000 0.000000 0.027091
#
#
# Mechanical properties :
#
#
# Convention : Reuss Voigt Hill
#
# Bulk Modulus (GPa) = 66.11766 72.39685 69.25726
# Shear Modulus (GPa) = 25.56993 28.43878 27.00436
#
# Velocity S-wave (km/s) = 3.65545 3.85507 3.75659
# Velocity P-wave (km/s) = 7.23659 7.59266 7.41676
#
# Compressibility (1/GPa) = 0.01512455
#
# Stress axis : x y z
#
# Youngs Moduli (GPa) = 52.64879 60.09970 101.26506
#
# Poissons Ratio (x) = 0.54297 0.05980
# Poissons Ratio (y) = 0.47566 0.56370
# Poissons Ratio (z) = 0.03109 0.33455
#
# Static dielectric constant tensor:
#      x y z
#    x 1.762520 0.000000 0.000000 
#    y 0.000000 1.678250 0.000000 
#    z 0.000000 0.000000 1.683130 
# 
# From -- ./inp_files/12605.got.cif
#   From: 2010.05.17/outbox.cif.g08.bks.cpg/sg63_7_cif.got.tgz:12605.got - 2010.06.03 15:47:04.
