data_PCOD9475620
_publ_section_title
;
Structure prediction by ZEFSAII (Michael W. Deem and Ramdas Pophale) SiO2 
 PCOD9475620
Probable space group: C M C M
;
_chemical_formula_sum "Si O2"
_cell_formula_units_Z 80
_cell_length_a 26.973789
_cell_length_b 9.444088
_cell_length_c 15.289778
_cell_angle_alpha 90.000000
_cell_angle_beta 90.000000
_cell_angle_gamma 90.000000
_cell_volume 3894.961425
_symmetry_space_group_name_H-M "C M C M"
_symmetry_group_IT_number 63
_symmetry_cell_setting 'orthorhombic'
loop_
_space_group_symop_operation_xyz
x,y,z
-x,-y,1/2+z
x,-y,-z
-x,y,1/2-z
-x,-y,-z
x,y,1/2-z
-x,y,z
x,-y,1/2+z
1/2+x,1/2+y,z
1/2-x,1/2-y,1/2+z
1/2+x,1/2-y,-z
1/2-x,1/2+y,1/2-z
1/2-x,1/2-y,-z
1/2+x,1/2+y,1/2-z
1/2-x,1/2+y,z
1/2+x,1/2-y,1/2+z
loop_
_atom_site_type_symbol
_atom_site_label
_atom_site_fract_x
_atom_site_fract_y
_atom_site_fract_z
Si Si1 0.500000 0.260651 0.145082
Si Si2 0.205526 0.272985 0.356954
Si Si3 0.500000 0.588224 0.142086
Si Si4 0.591267 0.063669 0.404130
Si Si5 0.800768 0.398862 0.855795
Si Si6 0.097007 0.752245 0.649902
O O1 0.500000 0.263466 0.250000
O O2 0.500000 0.424085 0.115711
O O3 0.451956 0.172770 0.115943
O O4 0.204559 0.263624 0.250000
O O5 0.208747 0.437898 0.378969
O O6 0.151624 0.220618 0.389334
O O7 0.254313 0.192121 0.387051
O O8 0.500000 0.595185 0.250000
O O9 0.450685 0.670278 0.110571
O O10 0.644828 0.135359 0.391471
O O11 0.589679 0.918019 0.348251
O O12 0.586252 0.000000 0.500000
O O13 0.803409 0.387850 0.750000
O O14 0.099799 0.802453 0.750000
#
# Coordination Sequence:
#
# PCOD9475620 Si02
#       6
#     8  16   8  16  16  16
#     4  11  22  37  57  82 103 127 170 225 268 304
#     4   8  15  27  49  75  98 127 169 212 255 302
#     4   9  19  33  56  84 104 125 166 219 270 314
#     4  11  22  36  53  77 107 143 179 212 254 316
#     4   9  17  32  52  75 101 135 176 222 265 304
#     4   9  17  34  55  76 104 141 176 212 263 324
#
# _framework density 20.539356000000002
#
# number of rings (size 3 to 8) (size 9 to 14) (size 15 to 20)
#    0.000    2.600    0.000    3.900    0.000    2.400 
#    0.000   12.000    0.000    0.000    0.000    0.000 
#    0.000    0.000    0.000    0.000    0.000    0.000 
#
# Total GULP energy -223188.981073 kJ/mol
# GULP energy per Si atom -5579.724527 kJ/mol
# Density = 2.049261 g / cm^3
# Si number density = 20.539356 Si / 1000 Ang^3
#
#
#
# Elastic Constant Matrix: (Units=GPa)
#
#
# Indices 1 2 3 4 5 6 
#
# 1 240.3459 108.2488 11.1633 0.0000 0.0000 0.0000
# 2 108.2488 75.2173 3.0299 0.0000 0.0000 0.0000
# 3 11.1633 3.0299 33.4868 0.0000 0.0000 0.0000
# 4 0.0000 0.0000 0.0000 14.2328 0.0000 0.0000
# 5 0.0000 0.0000 0.0000 0.0000 -8.0816 0.0000
# 6 0.0000 0.0000 0.0000 0.0000 0.0000 34.8286
#
#
#
# Elastic Compliance Matrix: (Units=1/GPa)
#
#
# Indices 1 2 3 4 5 6 
#
# 1 0.012023 -0.017204 -0.002451 0.000000 0.000000 0.000000
# 2 -0.017204 0.037962 0.002300 0.000000 0.000000 0.000000
# 3 -0.002451 0.002300 0.030472 0.000000 0.000000 0.000000
# 4 0.000000 0.000000 0.000000 0.070260 0.000000 0.000000
# 5 0.000000 0.000000 0.000000 0.000000 -0.123738 0.000000
# 6 0.000000 0.000000 0.000000 0.000000 0.000000 0.028712
#
#
# Mechanical properties :
#
#
# Convention : Reuss Voigt Hill
#
# Bulk Modulus (GPa) = 21.85991 65.99268 43.92629
# Shear Modulus (GPa) = 47.32620 23.30317 35.31468
#
# Velocity S-wave (km/s) = 4.80539 3.37198 4.15102
# Velocity P-wave (km/s) = 6.43856 6.88186 6.66389
#
# Compressibility (1/GPa) = 0.04574585
#
# Stress axis : x y z
#
# Youngs Moduli (GPa) = 83.17297 26.34236 32.81750
#
# Poissons Ratio (x) = 0.45320 0.08045
# Poissons Ratio (y) = 1.43093 -0.07550
# Poissons Ratio (z) = 0.20389 -0.06060
#
# Static dielectric constant tensor:
#      x y z
#    x 1.740790 0.000000 0.000000 
#    y 0.000000 1.693570 0.000000 
#    z 0.000000 0.000000 1.837550 
# 
# From -- ./inp_files/48866.got.cif
#   From: 2010.05.17/outbox.cif.g08.bks.cpg/sg63_25_cif.got.tgz:48866.got - 2010.06.03 15:47:04.
