data_PCOD9475632
_publ_section_title
;
Structure prediction by ZEFSAII (Michael W. Deem and Ramdas Pophale) SiO2 
 PCOD9475632
Probable space group: C M C M
;
_chemical_formula_sum "Si O2"
_cell_formula_units_Z 64
_cell_length_a 14.322800
_cell_length_b 27.844493
_cell_length_c 9.406891
_cell_angle_alpha 90.000000
_cell_angle_beta 90.000000
_cell_angle_gamma 90.000000
_cell_volume 3751.572588
_symmetry_space_group_name_H-M "C M C M"
_symmetry_group_IT_number 63
_symmetry_cell_setting 'orthorhombic'
loop_
_space_group_symop_operation_xyz
x,y,z
-x,-y,1/2+z
x,-y,-z
-x,y,1/2-z
-x,-y,-z
x,y,1/2-z
-x,y,z
x,-y,1/2+z
1/2+x,1/2+y,z
1/2-x,1/2-y,1/2+z
1/2+x,1/2-y,-z
1/2-x,1/2+y,1/2-z
1/2-x,1/2-y,-z
1/2+x,1/2+y,1/2-z
1/2-x,1/2+y,z
1/2+x,1/2-y,1/2+z
loop_
_atom_site_type_symbol
_atom_site_label
_atom_site_fract_x
_atom_site_fract_y
_atom_site_fract_z
Si Si1 0.500000 0.720081 0.421268
Si Si2 0.500000 0.810304 0.905064
Si Si3 0.167705 0.621577 0.479911
Si Si4 0.608865 0.936990 0.250000
Si Si5 0.617350 0.952643 0.750000
Si Si6 0.195900 0.795504 0.425521
O O1 0.500000 0.711311 0.250000
O O2 0.500000 0.776756 0.457400
O O3 0.592809 0.703198 0.504758
O O4 0.500000 0.784821 0.750000
O O5 0.409362 0.843042 0.914127
O O6 0.133885 0.596381 0.620663
O O7 0.166040 0.575684 0.377920
O O8 0.253406 0.655909 0.521004
O O9 0.500000 0.945257 0.250000
O O10 0.645199 0.991510 0.250000
O O11 0.500000 0.947634 0.750000
O O12 0.196772 0.791641 0.250000
O O13 0.250000 0.750000 0.500000
#
# Coordination Sequence:
#
# PCOD9475632 Si02
#       6
#     8   8  16   8   8  16
#     4  12  28  42  62  89 122 162 211 258 303 362
#     4  12  22  36  57  88 129 168 205 246 298 356
#     4  12  22  37  59  87 124 168 205 240 305 361
#     4  11  22  36  59  89 127 163 205 254 299 365
#     4  11  22  38  57  89 127 167 203 252 305 359
#     4  12  26  41  62  90 125 164 208 252 301 365
#
# _framework density 17.059514
#
# number of rings (size 3 to 8) (size 9 to 14) (size 15 to 20)
#    0.000    0.250    7.500    2.625    5.250    2.000 
#    0.000    0.000    0.000    0.000    0.000    5.250 
#    0.000    0.000    0.000    0.000    0.000    0.000 
#
# Total GULP energy -178139.211043 kJ/mol
# GULP energy per Si atom -5566.850345 kJ/mol
# Density = 1.702069 g / cm^3
# Si number density = 17.059514 Si / 1000 Ang^3
#
#
#
# Elastic Constant Matrix: (Units=GPa)
#
#
# Indices 1 2 3 4 5 6 
#
# 1 106.1148 36.5210 40.0191 0.0000 0.0000 0.0000
# 2 36.5210 81.0161 17.6829 0.0000 0.0000 0.0000
# 3 40.0191 17.6829 148.6435 0.0000 0.0000 0.0000
# 4 0.0000 0.0000 0.0000 42.3017 0.0000 0.0000
# 5 0.0000 0.0000 0.0000 0.0000 20.2976 0.0000
# 6 0.0000 0.0000 0.0000 0.0000 0.0000 500.8202
#
#
#
# Elastic Compliance Matrix: (Units=1/GPa)
#
#
# Indices 1 2 3 4 5 6 
#
# 1 0.012113 -0.004875 -0.002681 0.000000 0.000000 0.000000
# 2 -0.004875 0.014634 -0.000428 0.000000 0.000000 0.000000
# 3 -0.002681 -0.000428 0.007500 0.000000 0.000000 0.000000
# 4 0.000000 0.000000 0.000000 0.023640 0.000000 0.000000
# 5 0.000000 0.000000 0.000000 0.000000 0.049267 0.000000
# 6 0.000000 0.000000 0.000000 0.000000 0.000000 0.001997
#
#
# Mechanical properties :
#
#
# Convention : Reuss Voigt Hill
#
# Bulk Modulus (GPa) = 54.71018 58.24669 56.47843
# Shear Modulus (GPa) = 38.10607 128.78733 83.44670
#
# Velocity S-wave (km/s) = 4.73135 8.69809 7.00152
# Velocity P-wave (km/s) = 7.87320 11.62296 9.92674
#
# Compressibility (1/GPa) = 0.01827813
#
# Stress axis : x y z
#
# Youngs Moduli (GPa) = 82.55788 68.33238 133.32778
#
# Poissons Ratio (x) = 0.33312 0.35747
# Poissons Ratio (y) = 0.40247 0.05712
# Poissons Ratio (z) = 0.22135 0.02928
#
# Static dielectric constant tensor:
#      x y z
#    x 1.564490 0.000000 0.000000 
#    y 0.000000 1.624930 0.000000 
#    z 0.000000 0.000000 1.531090 
# 
# From -- ./inp_files/3227.got.cif
#   From: 2010.05.17/outbox.cif.g08.bks.cpg/sg63_2_cif.got.tgz:3227.got - 2010.06.03 15:47:04.
