data_PCOD9475110
_publ_section_title
;
Structure prediction by ZEFSAII (Michael W. Deem and Ramdas Pophale) SiO2 
 PCOD9475110
Probable space group: C M C M
;
_chemical_formula_sum "Si O2"
_cell_formula_units_Z 64
_cell_length_a 13.443372
_cell_length_b 28.492373
_cell_length_c 8.803930
_cell_angle_alpha 90.000000
_cell_angle_beta 90.000000
_cell_angle_gamma 90.000000
_cell_volume 3372.200733
_symmetry_space_group_name_H-M "C M C M"
_symmetry_group_IT_number 63
_symmetry_cell_setting 'orthorhombic'
loop_
_space_group_symop_operation_xyz
x,y,z
-x,-y,1/2+z
x,-y,-z
-x,y,1/2-z
-x,-y,-z
x,y,1/2-z
-x,y,z
x,-y,1/2+z
1/2+x,1/2+y,z
1/2-x,1/2-y,1/2+z
1/2+x,1/2-y,-z
1/2-x,1/2+y,1/2-z
1/2-x,1/2-y,-z
1/2+x,1/2+y,1/2-z
1/2-x,1/2+y,z
1/2+x,1/2-y,1/2+z
loop_
_atom_site_type_symbol
_atom_site_label
_atom_site_fract_x
_atom_site_fract_y
_atom_site_fract_z
Si Si1 0.112280 0.447546 0.567264
Si Si2 0.815995 0.710864 0.576278
Si Si3 0.293693 0.611661 0.925555
Si Si4 0.000000 0.748206 0.074047
Si Si5 0.500000 0.353917 0.567786
O O1 0.115426 0.500000 0.500000
O O2 0.117787 0.448607 0.750000
O O3 0.209097 0.420559 0.503423
O O4 0.000000 0.428500 0.526859
O O5 0.842492 0.722533 0.750000
O O6 0.750000 0.750000 0.500000
O O7 0.757441 0.662684 0.575769
O O8 0.910533 0.714617 0.471535
O O9 0.309350 0.596778 0.750000
O O10 0.400390 0.619857 0.006340
O O11 0.000000 0.760467 0.250000
O O12 0.000000 0.799028 0.988768
O O13 0.500000 0.353885 0.750000
#
# Coordination Sequence:
#
# PCOD9475110 Si02
#       5
#    16  16  16   8   8
#     4  10  22  42  68  97 127 160 200 249 307 367
#     4  11  23  38  58  85 120 162 208 254 304 362
#     4  11  24  41  63  91 125 163 207 255 309 367
#     4  12  24  38  56  81 120 163 208 258 308 361
#     4  12  24  40  63  87 122 165 211 256 307 367
#
# _framework density 18.978704
#
# number of rings (size 3 to 8) (size 9 to 14) (size 15 to 20)
#    0.000    1.000    2.500    4.500    1.750    4.500 
#    0.000    0.625    0.000    0.000    0.000    0.000 
#    0.000    0.000    0.000    0.000    0.000    0.000 
#
# Total GULP energy -178479.256105 kJ/mol
# GULP energy per Si atom -5577.476753 kJ/mol
# Density = 1.893551 g / cm^3
# Si number density = 18.978704 Si / 1000 Ang^3
#
#
#
# Elastic Constant Matrix: (Units=GPa)
#
#
# Indices 1 2 3 4 5 6 
#
# 1 170.3563 33.8515 75.0846 0.0000 0.0000 0.0000
# 2 33.8515 50.3522 36.5455 0.0000 0.0000 0.0000
# 3 75.0846 36.5455 156.8413 0.0000 0.0000 0.0000
# 4 0.0000 0.0000 0.0000 31.2093 0.0000 0.0000
# 5 0.0000 0.0000 0.0000 0.0000 32.9147 0.0000
# 6 0.0000 0.0000 0.0000 0.0000 0.0000 32.5108
#
#
#
# Elastic Compliance Matrix: (Units=1/GPa)
#
#
# Indices 1 2 3 4 5 6 
#
# 1 0.007811 -0.003054 -0.003028 0.000000 0.000000 0.000000
# 2 -0.003054 0.025096 -0.004386 0.000000 0.000000 0.000000
# 3 -0.003028 -0.004386 0.008847 0.000000 0.000000 0.000000
# 4 0.000000 0.000000 0.000000 0.032042 0.000000 0.000000
# 5 0.000000 0.000000 0.000000 0.000000 0.030382 0.000000
# 6 0.000000 0.000000 0.000000 0.000000 0.000000 0.030759
#
#
# Mechanical properties :
#
#
# Convention : Reuss Voigt Hill
#
# Bulk Modulus (GPa) = 48.03067 74.27921 61.15494
# Shear Modulus (GPa) = 30.71012 34.79816 32.75414
#
# Velocity S-wave (km/s) = 4.02697 4.28663 4.15883
# Velocity P-wave (km/s) = 6.85453 7.98269 7.44003
#
# Compressibility (1/GPa) = 0.02082003
#
# Stress axis : x y z
#
# Youngs Moduli (GPa) = 128.01664 39.84641 113.02784
#
# Poissons Ratio (x) = 0.12169 0.34225
# Poissons Ratio (y) = 0.39095 0.49571
# Poissons Ratio (z) = 0.38764 0.17475
#
# Static dielectric constant tensor:
#      x y z
#    x 1.639480 0.000000 0.000000 
#    y 0.000000 1.613480 0.000000 
#    z 0.000000 0.000000 1.802430 
# 
# From -- ./inp_files/3150.got.cif
#   From: 2010.05.17/outbox.cif.g08.bks.cpg/sg63_2_cif.got.tgz:3150.got - 2010.06.03 15:47:04.
