data_PCOD9475509
_publ_section_title
;
Structure prediction by ZEFSAII (Michael W. Deem and Ramdas Pophale) SiO2 
 PCOD9475509
Probable space group: C M C M
;
_chemical_formula_sum "Si O2"
_cell_formula_units_Z 96
_cell_length_a 23.221570
_cell_length_b 26.194991
_cell_length_c 8.662780
_cell_angle_alpha 90.000000
_cell_angle_beta 90.000000
_cell_angle_gamma 90.000000
_cell_volume 5269.472199
_symmetry_space_group_name_H-M "C M C M"
_symmetry_group_IT_number 63
_symmetry_cell_setting 'orthorhombic'
loop_
_space_group_symop_operation_xyz
x,y,z
-x,-y,1/2+z
x,-y,-z
-x,y,1/2-z
-x,-y,-z
x,y,1/2-z
-x,y,z
x,-y,1/2+z
1/2+x,1/2+y,z
1/2-x,1/2-y,1/2+z
1/2+x,1/2-y,-z
1/2-x,1/2+y,1/2-z
1/2-x,1/2-y,-z
1/2+x,1/2+y,1/2-z
1/2-x,1/2+y,z
1/2+x,1/2-y,1/2+z
loop_
_atom_site_type_symbol
_atom_site_label
_atom_site_fract_x
_atom_site_fract_y
_atom_site_fract_z
Si Si1 0.195018 0.944345 0.065952
Si Si2 0.824332 0.555858 0.065362
Si Si3 0.126390 0.346653 0.069923
Si Si4 0.567782 0.254694 0.066142
Si Si5 0.136575 0.850834 0.575054
Si Si6 0.737147 0.196154 0.425688
O O1 0.200900 0.945764 0.250000
O O2 0.259104 0.933065 0.996372
O O3 0.146494 0.903139 0.018304
O O4 0.179702 0.000000 0.000000
O O5 0.821322 0.555632 0.250000
O O6 0.838953 0.500000 0.000000
O O7 0.870824 0.598051 0.011222
O O8 0.113592 0.351976 0.250000
O O9 0.089830 0.299574 0.000883
O O10 0.191723 0.329009 0.038996
O O11 0.576938 0.254234 0.250000
O O12 0.500000 0.259529 0.034167
O O13 0.600512 0.304143 0.997390
O O14 0.116189 0.860643 0.750000
O O15 0.202085 0.831168 0.583124
O O16 0.713442 0.198937 0.250000
O O17 0.750000 0.250000 0.500000
#
# Coordination Sequence:
#
# PCOD9475509 Si02
#       6
#    16  16  16  16  16  16
#     4  11  21  34  54  82 119 157 192 231 278 338
#     4  11  21  35  54  82 119 156 192 231 278 338
#     4  12  23  36  57  84 115 153 190 232 284 340
#     4  11  25  43  62  84 111 148 193 241 291 341
#     4  11  22  36  57  84 116 153 190 233 284 341
#     4  11  21  32  51  81 115 149 185 228 281 344
#
# _framework density 18.218142
#
# number of rings (size 3 to 8) (size 9 to 14) (size 15 to 20)
#    0.000    0.833    3.333    7.000    0.000    2.667 
#    0.000    0.000    0.000    1.000    0.000    0.000 
#    0.000    0.000    0.000    0.000    0.000    0.000 
#
# Total GULP energy -267823.238571 kJ/mol
# GULP energy per Si atom -5579.650804 kJ/mol
# Density = 1.817668 g / cm^3
# Si number density = 18.218142 Si / 1000 Ang^3
#
#
#
# Elastic Constant Matrix: (Units=GPa)
#
#
# Indices 1 2 3 4 5 6 
#
# 1 63.0640 35.2362 33.9616 0.0000 0.0000 0.0000
# 2 35.2362 144.5834 63.3588 0.0000 0.0000 0.0000
# 3 33.9616 63.3588 157.3364 0.0000 0.0000 0.0000
# 4 0.0000 0.0000 0.0000 25.1396 0.0000 0.0000
# 5 0.0000 0.0000 0.0000 0.0000 18.9666 0.0000
# 6 0.0000 0.0000 0.0000 0.0000 0.0000 6.9737
#
#
#
# Elastic Compliance Matrix: (Units=1/GPa)
#
#
# Indices 1 2 3 4 5 6 
#
# 1 0.019294 -0.003494 -0.002758 0.000000 0.000000 0.000000
# 2 -0.003494 0.009031 -0.002883 0.000000 0.000000 0.000000
# 3 -0.002758 -0.002883 0.008112 0.000000 0.000000 0.000000
# 4 0.000000 0.000000 0.000000 0.039778 0.000000 0.000000
# 5 0.000000 0.000000 0.000000 0.000000 0.052724 0.000000
# 6 0.000000 0.000000 0.000000 0.000000 0.000000 0.143395
#
#
# Mechanical properties :
#
#
# Convention : Reuss Voigt Hill
#
# Bulk Modulus (GPa) = 55.03919 70.01077 62.52498
# Shear Modulus (GPa) = 16.85439 25.71114 21.28276
#
# Velocity S-wave (km/s) = 3.04492 3.76079 3.42163
# Velocity P-wave (km/s) = 6.52984 7.57434 7.07140
#
# Compressibility (1/GPa) = 0.01816887
#
# Stress axis : x y z
#
# Youngs Moduli (GPa) = 51.82937 110.72873 123.27515
#
# Poissons Ratio (x) = 0.38684 0.33997
# Poissons Ratio (y) = 0.18107 0.35536
# Poissons Ratio (z) = 0.14294 0.31919
#
# Static dielectric constant tensor:
#      x y z
#    x 1.605590 0.000000 0.000000 
#    y 0.000000 1.685060 0.000000 
#    z 0.000000 0.000000 1.512180 
# 
# From -- ./inp_files/10433.got.cif
#   From: 2010.05.17/outbox.cif.g08.bks.cpg/sg63_6_cif.got.tgz:10433.got - 2010.06.03 15:47:04.
