data_PCOD9475873
_publ_section_title
;
Structure prediction by ZEFSAII (Michael W. Deem and Ramdas Pophale) SiO2 
 PCOD9475873
Probable space group: C M C M
;
_chemical_formula_sum "Si O2"
_cell_formula_units_Z 52
_cell_length_a 17.079842
_cell_length_b 7.780020
_cell_length_c 17.591072
_cell_angle_alpha 90.000000
_cell_angle_beta 90.000000
_cell_angle_gamma 90.000000
_cell_volume 2337.528251
_symmetry_space_group_name_H-M "C M C M"
_symmetry_group_IT_number 63
_symmetry_cell_setting 'orthorhombic'
loop_
_space_group_symop_operation_xyz
x,y,z
-x,-y,1/2+z
x,-y,-z
-x,y,1/2-z
-x,-y,-z
x,y,1/2-z
-x,y,z
x,-y,1/2+z
1/2+x,1/2+y,z
1/2-x,1/2-y,1/2+z
1/2+x,1/2-y,-z
1/2-x,1/2+y,1/2-z
1/2-x,1/2-y,-z
1/2+x,1/2+y,1/2-z
1/2-x,1/2+y,z
1/2+x,1/2-y,1/2+z
loop_
_atom_site_type_symbol
_atom_site_label
_atom_site_fract_x
_atom_site_fract_y
_atom_site_fract_z
Si Si1 0.859857 0.790579 0.636004
Si Si2 0.589107 0.197314 0.473528
Si Si3 0.812148 0.178889 0.834409
Si Si4 0.000000 0.297524 0.250000
O O1 0.879664 0.798349 0.546790
O O2 0.780175 0.685650 0.649283
O O3 0.931276 0.713232 0.683510
O O4 0.842643 0.984007 0.663139
O O5 0.500000 0.248958 0.455515
O O6 0.642757 0.221664 0.400396
O O7 0.589529 0.000000 0.500000
O O8 0.826735 0.250858 0.750000
#
# Coordination Sequence:
#
# PCOD9475873 Si02
#       4
#    16  16  16   4
#     4  12  25  47  73 103 142 185 233 289 350 413
#     4  11  26  46  69 103 144 187 234 288 351 413
#     4  12  25  44  72 105 141 181 235 287 352 413
#     4  12  24  44  76 106 138 180 238 290 342 412
#
# _framework density 22.245719999999999
#
# number of rings (size 3 to 8) (size 9 to 14) (size 15 to 20)
#    0.000    0.308    4.615    3.692    2.154    1.846 
#    2.769    0.000    0.000    1.846    0.000    0.000 
#    0.000    0.000    0.000    0.000    0.000    0.000 
#
# Total GULP energy -145175.793773 kJ/mol
# GULP energy per Si atom -5583.684376 kJ/mol
# Density = 2.219509 g / cm^3
# Si number density = 22.245720 Si / 1000 Ang^3
#
#
#
# Elastic Constant Matrix: (Units=GPa)
#
#
# Indices 1 2 3 4 5 6 
#
# 1 177.5378 13.7128 135.0874 0.0000 0.0000 0.0000
# 2 13.7128 27.6593 15.4754 0.0000 0.0000 0.0000
# 3 135.0874 15.4754 212.7659 0.0000 0.0000 0.0000
# 4 0.0000 0.0000 0.0000 -18.4356 0.0000 0.0000
# 5 0.0000 0.0000 0.0000 0.0000 41.1143 0.0000
# 6 0.0000 0.0000 0.0000 0.0000 0.0000 -72.9334
#
#
#
# Elastic Compliance Matrix: (Units=1/GPa)
#
#
# Indices 1 2 3 4 5 6 
#
# 1 0.010965 -0.001606 -0.006845 0.000000 0.000000 0.000000
# 2 -0.001606 0.037923 -0.001738 0.000000 0.000000 0.000000
# 3 -0.006845 -0.001738 0.009172 0.000000 0.000000 0.000000
# 4 0.000000 0.000000 0.000000 -0.054243 0.000000 0.000000
# 5 0.000000 0.000000 0.000000 0.000000 0.024322 0.000000
# 6 0.000000 0.000000 0.000000 0.000000 0.000000 -0.013711
#
#
# Mechanical properties :
#
#
# Convention : Reuss Voigt Hill
#
# Bulk Modulus (GPa) = 26.53852 82.94601 54.74226
# Shear Modulus (GPa) = 105.55461 6.86153 56.20807
#
# Velocity S-wave (km/s) = 6.89583 1.75816 5.03207
# Velocity P-wave (km/s) = 8.68095 6.44117 7.64354
#
# Compressibility (1/GPa) = 0.03768108
#
# Stress axis : x y z
#
# Youngs Moduli (GPa) = 91.19977 26.36906 109.02321
#
# Poissons Ratio (x) = 0.04236 0.74626
# Poissons Ratio (y) = 0.14650 0.18953
# Poissons Ratio (z) = 0.62426 0.04584
#
# Static dielectric constant tensor:
#      x y z
#    x 1.765970 0.000000 0.000000 
#    y 0.000000 1.859400 0.000000 
#    z 0.000000 0.000000 1.817890 
# 
# From -- ./inp_files/44884.got.cif
#   From: 2010.05.17/outbox.cif.g08.bks.cpg/sg63_23_cif.got.tgz:44884.got - 2010.06.03 15:47:04.
