data_PCOD9475407
_publ_section_title
;
Structure prediction by ZEFSAII (Michael W. Deem and Ramdas Pophale) SiO2 
 PCOD9475407
Probable space group: C M C M
;
_chemical_formula_sum "Si O2"
_cell_formula_units_Z 96
_cell_length_a 26.092668
_cell_length_b 11.647222
_cell_length_c 18.401284
_cell_angle_alpha 90.000000
_cell_angle_beta 90.000000
_cell_angle_gamma 90.000000
_cell_volume 5592.280797
_symmetry_space_group_name_H-M "C M C M"
_symmetry_group_IT_number 63
_symmetry_cell_setting 'orthorhombic'
loop_
_space_group_symop_operation_xyz
x,y,z
-x,-y,1/2+z
x,-y,-z
-x,y,1/2-z
-x,-y,-z
x,y,1/2-z
-x,y,z
x,-y,1/2+z
1/2+x,1/2+y,z
1/2-x,1/2-y,1/2+z
1/2+x,1/2-y,-z
1/2-x,1/2+y,1/2-z
1/2-x,1/2-y,-z
1/2+x,1/2+y,1/2-z
1/2-x,1/2+y,z
1/2+x,1/2-y,1/2+z
loop_
_atom_site_type_symbol
_atom_site_label
_atom_site_fract_x
_atom_site_fract_y
_atom_site_fract_z
Si Si1 0.185541 0.560330 0.078450
Si Si2 0.214171 0.177248 0.445387
Si Si3 0.442264 0.479479 0.087665
Si Si4 0.060486 0.239635 0.095687
Si Si5 0.844217 0.656047 0.665610
Si Si6 0.375200 0.710302 0.954735
O O1 0.246488 0.583949 0.084606
O O2 0.167929 0.471980 0.139135
O O3 0.153850 0.679589 0.078057
O O4 0.176919 0.500000 0.000000
O O5 0.250000 0.250000 0.500000
O O6 0.190419 0.258469 0.383514
O O7 0.166386 0.142579 0.495621
O O8 0.500000 0.445358 0.108568
O O9 0.431339 0.605875 0.118091
O O10 0.401814 0.378569 0.099721
O O11 0.442766 0.500000 0.000000
O O12 0.097007 0.315690 0.145393
O O13 0.000000 0.262946 0.098554
O O14 0.082061 0.251783 0.013209
O O15 0.834378 0.672404 0.750000
#
# Coordination Sequence:
#
# PCOD9475407 Si02
#       6
#    16  16  16  16  16  16
#     4  11  19  35  55  78 110 145 182 221 273 321
#     4   9  18  33  53  76 101 142 180 219 264 319
#     4   8  14  26  47  77 110 133 168 224 274 309
#     4   9  17  32  53  79 110 144 179 223 276 324
#     4  11  23  38  54  80 111 142 183 228 272 328
#     4   9  16  29  51  84 105 136 177 227 269 315
#
# _framework density 17.166519999999998
#
# number of rings (size 3 to 8) (size 9 to 14) (size 15 to 20)
#    0.000    2.500    5.000    1.500    0.000    4.333 
#    0.000    2.500    0.000    1.000    0.000    0.000 
#    0.000    0.000    0.000    0.000    0.000    0.000 
#
# Total GULP energy -267314.944609 kJ/mol
# GULP energy per Si atom -5569.061346 kJ/mol
# Density = 1.712745 g / cm^3
# Si number density = 17.166520 Si / 1000 Ang^3
#
#
#
# Elastic Constant Matrix: (Units=GPa)
#
#
# Indices 1 2 3 4 5 6 
#
# 1 129.5363 55.1002 25.1002 0.0000 0.0000 0.0000
# 2 55.1002 77.8289 8.7516 0.0000 0.0000 0.0000
# 3 25.1002 8.7516 45.4662 0.0000 0.0000 0.0000
# 4 0.0000 0.0000 0.0000 9.4727 0.0000 0.0000
# 5 0.0000 0.0000 0.0000 0.0000 6.7299 0.0000
# 6 0.0000 0.0000 0.0000 0.0000 0.0000 34.5635
#
#
#
# Elastic Compliance Matrix: (Units=1/GPa)
#
#
# Indices 1 2 3 4 5 6 
#
# 1 0.012122 -0.008003 -0.005152 0.000000 0.000000 0.000000
# 2 -0.008003 0.018416 0.000873 0.000000 0.000000 0.000000
# 3 -0.005152 0.000873 0.024670 0.000000 0.000000 0.000000
# 4 0.000000 0.000000 0.000000 0.105566 0.000000 0.000000
# 5 0.000000 0.000000 0.000000 0.000000 0.148591 0.000000
# 6 0.000000 0.000000 0.000000 0.000000 0.000000 0.028932
#
#
# Mechanical properties :
#
#
# Convention : Reuss Voigt Hill
#
# Bulk Modulus (GPa) = 32.63066 47.85948 40.24507
# Shear Modulus (GPa) = 13.40208 21.07852 17.24030
#
# Velocity S-wave (km/s) = 2.79715 3.50792 3.17250
# Velocity P-wave (km/s) = 5.42970 6.65939 6.07573
#
# Compressibility (1/GPa) = 0.03064602
#
# Stress axis : x y z
#
# Youngs Moduli (GPa) = 82.49313 54.29991 40.53439
#
# Poissons Ratio (x) = 0.43455 0.20883
# Poissons Ratio (y) = 0.66018 -0.03539
# Poissons Ratio (z) = 0.42499 -0.04741
#
# Static dielectric constant tensor:
#      x y z
#    x 1.621240 0.000000 0.000000 
#    y 0.000000 1.648130 0.000000 
#    z 0.000000 0.000000 1.569450 
# 
# From -- ./inp_files/48950.got.cif
#   From: 2010.05.17/outbox.cif.g08.bks.cpg/sg63_25_cif.got.tgz:48950.got - 2010.06.03 15:47:04.
