data_PCOD9475669
_publ_section_title
;
Structure prediction by ZEFSAII (Michael W. Deem and Ramdas Pophale) SiO2 
 PCOD9475669
Probable space group: C M C M
;
_chemical_formula_sum "Si O2"
_cell_formula_units_Z 72
_cell_length_a 18.375424
_cell_length_b 8.746265
_cell_length_c 21.495451
_cell_angle_alpha 90.000000
_cell_angle_beta 90.000000
_cell_angle_gamma 90.000000
_cell_volume 3454.669949
_symmetry_space_group_name_H-M "C M C M"
_symmetry_group_IT_number 63
_symmetry_cell_setting 'orthorhombic'
loop_
_space_group_symop_operation_xyz
x,y,z
-x,-y,1/2+z
x,-y,-z
-x,y,1/2-z
-x,-y,-z
x,y,1/2-z
-x,y,z
x,-y,1/2+z
1/2+x,1/2+y,z
1/2-x,1/2-y,1/2+z
1/2+x,1/2-y,-z
1/2-x,1/2+y,1/2-z
1/2-x,1/2-y,-z
1/2+x,1/2+y,1/2-z
1/2-x,1/2+y,z
1/2+x,1/2-y,1/2+z
loop_
_atom_site_type_symbol
_atom_site_label
_atom_site_fract_x
_atom_site_fract_y
_atom_site_fract_z
Si Si1 0.303365 0.020406 0.103772
Si Si2 0.084445 0.254785 0.943493
Si Si3 0.082493 0.949838 0.319434
Si Si4 0.179772 0.000000 0.500000
Si Si5 0.701607 0.283814 0.678801
O O1 0.371687 0.089769 0.067684
O O2 0.276461 0.139729 0.156083
O O3 0.234207 0.010030 0.057990
O O4 0.316464 0.857791 0.134778
O O5 0.000000 0.273352 0.960399
O O6 0.087911 0.164398 0.877338
O O7 0.128734 0.147684 0.991371
O O8 0.092183 0.880082 0.250000
O O9 0.140652 0.084774 0.325130
O O10 0.000000 0.012463 0.321481
O O11 0.707321 0.231672 0.750000
#
# Coordination Sequence:
#
# PCOD9475669 Si02
#       5
#    16  16  16   8  16
#     4  12  24  40  64  95 127 165 211 268 313 374
#     4  11  24  42  66  94 125 167 213 258 313 378
#     4   9  19  38  63  91 126 166 208 259 318 376
#     4  12  23  44  67  88 128 172 212 258 319 374
#     4  11  22  39  64  93 126 166 214 260 318 384
#
# _framework density 20.841353999999999
#
# number of rings (size 3 to 8) (size 9 to 14) (size 15 to 20)
#    0.000    1.111    4.444    1.667    0.000    4.444 
#    0.000    0.556    0.000    0.000    0.000    0.000 
#    0.000    0.000    0.000    0.000    0.000    0.000 
#
# Total GULP energy -201339.202567 kJ/mol
# GULP energy per Si atom -5592.755627 kJ/mol
# Density = 2.079392 g / cm^3
# Si number density = 20.841354 Si / 1000 Ang^3
#
#
#
# Elastic Constant Matrix: (Units=GPa)
#
#
# Indices 1 2 3 4 5 6 
#
# 1 131.2847 15.5982 21.8946 0.0000 0.0000 0.0000
# 2 15.5982 42.9894 2.5103 0.0000 0.0000 0.0000
# 3 21.8946 2.5103 72.7772 0.0000 0.0000 0.0000
# 4 0.0000 0.0000 0.0000 10.8308 0.0000 0.0000
# 5 0.0000 0.0000 0.0000 0.0000 31.1887 0.0000
# 6 0.0000 0.0000 0.0000 0.0000 0.0000 28.1936
#
#
#
# Elastic Compliance Matrix: (Units=1/GPa)
#
#
# Indices 1 2 3 4 5 6 
#
# 1 0.008364 -0.002894 -0.002416 0.000000 0.000000 0.000000
# 2 -0.002894 0.024310 0.000032 0.000000 0.000000 0.000000
# 3 -0.002416 0.000032 0.014466 0.000000 0.000000 0.000000
# 4 0.000000 0.000000 0.000000 0.092329 0.000000 0.000000
# 5 0.000000 0.000000 0.000000 0.000000 0.032063 0.000000
# 6 0.000000 0.000000 0.000000 0.000000 0.000000 0.035469
#
#
# Mechanical properties :
#
#
# Convention : Reuss Voigt Hill
#
# Bulk Modulus (GPa) = 27.33446 36.33971 31.83708
# Shear Modulus (GPa) = 21.76266 27.84584 24.80425
#
# Velocity S-wave (km/s) = 3.23492 3.65922 3.45359
# Velocity P-wave (km/s) = 5.20547 5.94368 5.58678
#
# Compressibility (1/GPa) = 0.03658386
#
# Stress axis : x y z
#
# Youngs Moduli (GPa) = 119.56267 41.13602 69.12562
#
# Poissons Ratio (x) = 0.11903 0.16703
# Poissons Ratio (y) = 0.34597 -0.00221
# Poissons Ratio (z) = 0.28891 -0.00132
#
# Static dielectric constant tensor:
#      x y z
#    x 1.737900 0.000000 0.000000 
#    y 0.000000 1.723890 0.000000 
#    z 0.000000 0.000000 1.807940 
# 
# From -- ./inp_files/56308.got.cif
#   From: 2010.05.17/outbox.cif.g08.bks.cpg/sg63_29_cif.got.tgz:56308.got - 2010.06.03 15:47:04.
