data_PCOD9475640
_publ_section_title
;
Structure prediction by ZEFSAII (Michael W. Deem and Ramdas Pophale) SiO2 
 PCOD9475640
Probable space group: C M C M
;
_chemical_formula_sum "Si O2"
_cell_formula_units_Z 96
_cell_length_a 8.696386
_cell_length_b 26.191032
_cell_length_c 23.866091
_cell_angle_alpha 90.000000
_cell_angle_beta 90.000000
_cell_angle_gamma 90.000000
_cell_volume 5435.915682
_symmetry_space_group_name_H-M "C M C M"
_symmetry_group_IT_number 63
_symmetry_cell_setting 'orthorhombic'
loop_
_space_group_symop_operation_xyz
x,y,z
-x,-y,1/2+z
x,-y,-z
-x,y,1/2-z
-x,-y,-z
x,y,1/2-z
-x,y,z
x,-y,1/2+z
1/2+x,1/2+y,z
1/2-x,1/2-y,1/2+z
1/2+x,1/2-y,-z
1/2-x,1/2+y,1/2-z
1/2-x,1/2-y,-z
1/2+x,1/2+y,1/2-z
1/2-x,1/2+y,z
1/2+x,1/2-y,1/2+z
loop_
_atom_site_type_symbol
_atom_site_label
_atom_site_fract_x
_atom_site_fract_y
_atom_site_fract_z
Si Si1 0.815110 0.404550 0.377954
Si Si2 0.315422 0.904661 0.887540
Si Si3 0.685160 0.802571 0.314870
Si Si4 0.184269 0.939928 0.495847
Si Si5 0.317059 0.502197 0.183873
Si Si6 0.814627 0.692122 0.314512
O O1 0.766907 0.349405 0.354068
O O2 0.756567 0.415762 0.440320
O O3 0.747127 0.448741 0.338602
O O4 0.000000 0.407259 0.376547
O O5 0.500000 0.904471 0.892371
O O6 0.265362 0.853056 0.855771
O O7 0.263565 0.952467 0.849920
O O8 0.242341 0.912019 0.948439
O O9 0.730179 0.812772 0.250000
O O10 0.500000 0.799349 0.316468
O O11 0.752998 0.747725 0.330881
O O12 0.000000 0.937565 0.492291
O O13 0.228089 0.000000 0.500000
O O14 0.289175 0.507399 0.250000
O O15 0.500000 0.504418 0.173467
O O16 0.764849 0.682001 0.250000
O O17 0.000000 0.693327 0.314664
#
# Coordination Sequence:
#
# PCOD9475640 Si02
#       6
#    16  16  16  16  16  16
#     4  11  22  37  59  84 112 147 191 235 280 334
#     4  11  22  37  59  84 112 147 191 235 280 334
#     4   9  19  36  58  85 115 147 184 228 279 334
#     4  11  23  39  58  81 113 150 191 235 282 338
#     4  11  23  36  53  82 117 149 183 227 282 339
#     4   9  19  36  58  85 115 147 184 228 279 334
#
# _framework density 17.660318
#
# number of rings (size 3 to 8) (size 9 to 14) (size 15 to 20)
#    0.000    1.667    1.667    3.000    0.000    6.000 
#    0.000    4.167    0.000    0.000    0.000    0.000 
#    0.000    0.000    0.000    0.000    0.000    0.000 
#
# Total GULP energy -268169.972678 kJ/mol
# GULP energy per Si atom -5586.874431 kJ/mol
# Density = 1.762012 g / cm^3
# Si number density = 17.660318 Si / 1000 Ang^3
#
#
#
# Elastic Constant Matrix: (Units=GPa)
#
#
# Indices 1 2 3 4 5 6 
#
# 1 9.4780 -5.4692 2.1176 0.0000 0.0000 0.0000
# 2 -5.4692 84.3035 16.8703 0.0000 0.0000 0.0000
# 3 2.1176 16.8703 44.4737 0.0000 0.0000 0.0000
# 4 0.0000 0.0000 0.0000 4.9638 0.0000 0.0000
# 5 0.0000 0.0000 0.0000 0.0000 21.9577 0.0000
# 6 0.0000 0.0000 0.0000 0.0000 0.0000 31.9834
#
#
#
# Elastic Compliance Matrix: (Units=1/GPa)
#
#
# Indices 1 2 3 4 5 6 
#
# 1 0.112713 0.009075 -0.008809 0.000000 0.000000 0.000000
# 2 0.009075 0.013567 -0.005579 0.000000 0.000000 0.000000
# 3 -0.008809 -0.005579 0.025021 0.000000 0.000000 0.000000
# 4 0.000000 0.000000 0.000000 0.201460 0.000000 0.000000
# 5 0.000000 0.000000 0.000000 0.000000 0.045542 0.000000
# 6 0.000000 0.000000 0.000000 0.000000 0.000000 0.031266
#
#
# Mechanical properties :
#
#
# Convention : Reuss Voigt Hill
#
# Bulk Modulus (GPa) = 7.10859 18.36585 12.73722
# Shear Modulus (GPa) = 10.26514 20.09673 15.18094
#
# Velocity S-wave (km/s) = 2.41354 3.37703 2.93509
# Velocity P-wave (km/s) = 3.43523 5.06239 4.32600
#
# Compressibility (1/GPa) = 0.14067494
#
# Stress axis : x y z
#
# Youngs Moduli (GPa) = 8.87212 73.70823 39.96674
#
# Poissons Ratio (x) = -0.66891 0.35208
# Poissons Ratio (y) = -0.08052 0.22296
# Poissons Ratio (z) = 0.07816 0.41118
#
# Static dielectric constant tensor:
#      x y z
#    x 1.596320 0.000000 0.000000 
#    y 0.000000 1.576220 0.000000 
#    z 0.000000 0.000000 1.583940 
# 
# From -- ./inp_files/51406.got.cif
#   From: 2010.05.17/outbox.cif.g08.bks.cpg/sg63_26_cif.got.tgz:51406.got - 2010.06.03 15:47:04.
