data_PCOD9475194
_publ_section_title
;
Structure prediction by ZEFSAII (Michael W. Deem and Ramdas Pophale) SiO2 
 PCOD9475194
Probable space group: C M C M
;
_chemical_formula_sum "Si O2"
_cell_formula_units_Z 112
_cell_length_a 14.568511
_cell_length_b 14.572251
_cell_length_c 25.518470
_cell_angle_alpha 90.000000
_cell_angle_beta 90.000000
_cell_angle_gamma 90.000000
_cell_volume 5417.469081
_symmetry_space_group_name_H-M "C M C M"
_symmetry_group_IT_number 63
_symmetry_cell_setting 'orthorhombic'
loop_
_space_group_symop_operation_xyz
x,y,z
-x,-y,1/2+z
x,-y,-z
-x,y,1/2-z
-x,-y,-z
x,y,1/2-z
-x,y,z
x,-y,1/2+z
1/2+x,1/2+y,z
1/2-x,1/2-y,1/2+z
1/2+x,1/2-y,-z
1/2-x,1/2+y,1/2-z
1/2-x,1/2-y,-z
1/2+x,1/2+y,1/2-z
1/2-x,1/2+y,z
1/2+x,1/2-y,1/2+z
loop_
_atom_site_type_symbol
_atom_site_label
_atom_site_fract_x
_atom_site_fract_y
_atom_site_fract_z
Si Si1 0.388735 0.552666 0.337712
Si Si2 0.731411 0.178370 0.192211
Si Si3 0.895607 0.934204 0.542197
Si Si4 0.605952 0.916087 0.402772
Si Si5 0.856799 0.731820 0.506642
Si Si6 0.397225 0.122272 0.097070
Si Si7 0.249836 0.604315 0.691189
O O1 0.500000 0.554014 0.331192
O O2 0.334934 0.638413 0.312254
O O3 0.361144 0.559946 0.398993
O O4 0.338781 0.460439 0.317487
O O5 0.696538 0.150801 0.250000
O O6 0.673377 0.140045 0.143806
O O7 0.727437 0.288013 0.188687
O O8 0.896796 0.830517 0.522101
O O9 0.000000 0.968453 0.547830
O O10 0.847476 0.000000 0.500000
O O11 0.500000 0.903363 0.385957
O O12 0.626023 0.840464 0.446922
O O13 0.674982 0.911183 0.353947
O O14 0.615136 0.019298 0.424620
O O15 0.750000 0.750000 0.500000
O O16 0.889549 0.691767 0.451341
O O17 0.500000 0.128786 0.119064
O O18 0.214778 0.584637 0.750000
#
# Coordination Sequence:
#
# PCOD9475194 Si02
#       7
#    16  16  16  16  16  16  16
#     4  11  24  45  72 101 140 184 230 286 356 426
#     4  11  25  45  67  99 136 176 234 294 350 418
#     4  10  23  40  61  92 131 175 219 268 325 401
#     4  11  24  43  68  97 134 178 228 283 343 413
#     4  12  25  39  65  99 137 176 220 279 340 412
#     4  11  24  42  68  98 132 179 227 279 348 417
#     4  11  25  44  68 100 137 177 232 291 348 417
#
# _framework density 20.673859
#
# number of rings (size 3 to 8) (size 9 to 14) (size 15 to 20)
#    0.000    1.000    1.429    4.714    4.000    5.143 
#    0.000    4.286    0.000    0.000    0.000    0.000 
#    0.000    0.000    0.000    0.000    0.000    0.000 
#
# Total GULP energy -312832.587266 kJ/mol
# GULP energy per Si atom -5586.296201 kJ/mol
# Density = 2.062680 g / cm^3
# Si number density = 20.673859 Si / 1000 Ang^3
#
#
#
# Elastic Constant Matrix: (Units=GPa)
#
#
# Indices 1 2 3 4 5 6 
#
# 1 117.5918 27.4210 35.9709 0.0000 0.0000 0.0000
# 2 27.4210 132.1166 46.0733 0.0000 0.0000 0.0000
# 3 35.9709 46.0733 136.9500 0.0000 0.0000 0.0000
# 4 0.0000 0.0000 0.0000 40.5097 0.0000 0.0000
# 5 0.0000 0.0000 0.0000 0.0000 -17.3232 0.0000
# 6 0.0000 0.0000 0.0000 0.0000 0.0000 24.7264
#
#
#
# Elastic Compliance Matrix: (Units=1/GPa)
#
#
# Indices 1 2 3 4 5 6 
#
# 1 0.009422 -0.001238 -0.002058 0.000000 0.000000 0.000000
# 2 -0.001238 0.008738 -0.002614 0.000000 0.000000 0.000000
# 3 -0.002058 -0.002614 0.008722 0.000000 0.000000 0.000000
# 4 0.000000 0.000000 0.000000 0.024685 0.000000 0.000000
# 5 0.000000 0.000000 0.000000 0.000000 -0.057726 0.000000
# 6 0.000000 0.000000 0.000000 0.000000 0.000000 0.040443
#
#
# Mechanical properties :
#
#
# Convention : Reuss Voigt Hill
#
# Bulk Modulus (GPa) = 66.39730 67.28765 66.84247
# Shear Modulus (GPa) = 97.79805 28.06214 62.93010
#
# Velocity S-wave (km/s) = 6.88534 3.68825 5.52318
# Velocity P-wave (km/s) = 9.76713 7.12429 8.54846
#
# Compressibility (1/GPa) = 0.01506085
#
# Stress axis : x y z
#
# Youngs Moduli (GPa) = 106.13134 114.44630 114.65051
#
# Poissons Ratio (x) = 0.14166 0.23600
# Poissons Ratio (y) = 0.13137 0.29975
# Poissons Ratio (z) = 0.21846 0.29922
#
# Static dielectric constant tensor:
#      x y z
#    x 1.736230 0.000000 0.000000 
#    y 0.000000 1.742970 0.000000 
#    z 0.000000 0.000000 1.765730 
# 
# From -- ./inp_files/62970.got.cif
#   From: 2010.05.17/outbox.cif.g08.bks.cpg/sg63_32_cif.got.tgz:62970.got - 2010.06.03 15:47:04.
