data_PCOD9475817
_publ_section_title
;
Structure prediction by ZEFSAII (Michael W. Deem and Ramdas Pophale) SiO2 
 PCOD9475817
Probable space group: C M C M
;
_chemical_formula_sum "Si O2"
_cell_formula_units_Z 44
_cell_length_a 9.648315
_cell_length_b 29.108576
_cell_length_c 7.713164
_cell_angle_alpha 90.000000
_cell_angle_beta 90.000000
_cell_angle_gamma 90.000000
_cell_volume 2166.232163
_symmetry_space_group_name_H-M "C M C M"
_symmetry_group_IT_number 63
_symmetry_cell_setting 'orthorhombic'
loop_
_space_group_symop_operation_xyz
x,y,z
-x,-y,1/2+z
x,-y,-z
-x,y,1/2-z
-x,-y,-z
x,y,1/2-z
-x,y,z
x,-y,1/2+z
1/2+x,1/2+y,z
1/2-x,1/2-y,1/2+z
1/2+x,1/2-y,-z
1/2-x,1/2+y,1/2-z
1/2-x,1/2-y,-z
1/2+x,1/2+y,1/2-z
1/2-x,1/2+y,z
1/2+x,1/2-y,1/2+z
loop_
_atom_site_type_symbol
_atom_site_label
_atom_site_fract_x
_atom_site_fract_y
_atom_site_fract_z
Si Si1 0.275262 0.392934 0.556573
Si Si2 0.500000 0.053622 0.956666
Si Si3 0.339395 0.794881 0.457471
Si Si4 0.500000 0.593814 0.750000
O O1 0.330946 0.400988 0.750000
O O2 0.230389 0.339668 0.538953
O O3 0.380052 0.404549 0.403092
O O4 0.136229 0.422484 0.532146
O O5 0.500000 0.060560 0.750000
O O6 0.500000 0.000000 0.000000
O O7 0.339121 0.801419 0.250000
O O8 0.500000 0.789976 0.513349
O O9 0.250000 0.750000 0.500000
#
# Coordination Sequence:
#
# PCOD9475817 Si02
#       4
#    16   8  16   4
#     4  12  25  46  73 107 142 192 242 297 368 431
#     4  12  24  48  81 111 143 187 251 309 360 433
#     4  11  24  41  63  97 140 187 241 299 356 427
#     4  12  26  46  72  98 154 184 228 292 360 438
#
# _framework density 20.311767
#
# number of rings (size 3 to 8) (size 9 to 14) (size 15 to 20)
#    0.000    0.364    5.455    3.273    2.545    2.182 
#    0.000    0.909    0.000    0.000    0.000    0.000 
#    0.000    0.000    0.000    0.000    0.000    0.000 
#
# Total GULP energy -122602.261653 kJ/mol
# GULP energy per Si atom -5572.830075 kJ/mol
# Density = 2.026554 g / cm^3
# Si number density = 20.311767 Si / 1000 Ang^3
#
#
#
# Elastic Constant Matrix: (Units=GPa)
#
#
# Indices 1 2 3 4 5 6 
#
# 1 165.5413 35.5254 68.7461 0.0000 0.0000 0.0000
# 2 35.5254 104.6519 16.3326 0.0000 0.0000 0.0000
# 3 68.7461 16.3326 207.3638 0.0000 0.0000 0.0000
# 4 0.0000 0.0000 0.0000 27.7713 0.0000 0.0000
# 5 0.0000 0.0000 0.0000 0.0000 8.6296 0.0000
# 6 0.0000 0.0000 0.0000 0.0000 0.0000 27.8359
#
#
#
# Elastic Compliance Matrix: (Units=1/GPa)
#
#
# Indices 1 2 3 4 5 6 
#
# 1 0.007464 -0.002174 -0.002303 0.000000 0.000000 0.000000
# 2 -0.002174 0.010308 -0.000091 0.000000 0.000000 0.000000
# 3 -0.002303 -0.000091 0.005593 0.000000 0.000000 0.000000
# 4 0.000000 0.000000 0.000000 0.036008 0.000000 0.000000
# 5 0.000000 0.000000 0.000000 0.000000 0.115880 0.000000
# 6 0.000000 0.000000 0.000000 0.000000 0.000000 0.035925
#
#
# Mechanical properties :
#
#
# Convention : Reuss Voigt Hill
#
# Bulk Modulus (GPa) = 70.28487 79.86277 75.07382
# Shear Modulus (GPa) = 22.21655 36.64423 29.43039
#
# Velocity S-wave (km/s) = 3.31082 4.25206 3.81061
# Velocity P-wave (km/s) = 7.02093 7.96935 7.51013
#
# Compressibility (1/GPa) = 0.01422781
#
# Stress axis : x y z
#
# Youngs Moduli (GPa) = 133.97891 97.01412 178.78914
#
# Poissons Ratio (x) = 0.21093 0.41179
# Poissons Ratio (y) = 0.29130 0.01628
# Poissons Ratio (z) = 0.30858 0.00883
#
# Static dielectric constant tensor:
#      x y z
#    x 1.678430 0.000000 0.000000 
#    y 0.000000 1.695330 0.000000 
#    z 0.000000 0.000000 1.730460 
# 
# From -- ./inp_files/1912.got.cif
#   From: 2010.05.17/outbox.cif.g08.bks.cpg/sg63_1_cif.got.tgz:1912.got - 2010.06.03 15:47:04.
