data_PCOD9475067
_publ_section_title
;
Structure prediction by ZEFSAII (Michael W. Deem and Ramdas Pophale) SiO2 
 PCOD9475067
Probable space group: C M C M
;
_chemical_formula_sum "Si O2"
_cell_formula_units_Z 96
_cell_length_a 14.242109
_cell_length_b 23.401772
_cell_length_c 14.885683
_cell_angle_alpha 90.000000
_cell_angle_beta 90.000000
_cell_angle_gamma 90.000000
_cell_volume 4961.258034
_symmetry_space_group_name_H-M "C M C M"
_symmetry_group_IT_number 63
_symmetry_cell_setting 'orthorhombic'
loop_
_space_group_symop_operation_xyz
x,y,z
-x,-y,1/2+z
x,-y,-z
-x,y,1/2-z
-x,-y,-z
x,y,1/2-z
-x,y,z
x,-y,1/2+z
1/2+x,1/2+y,z
1/2-x,1/2-y,1/2+z
1/2+x,1/2-y,-z
1/2-x,1/2+y,1/2-z
1/2-x,1/2-y,-z
1/2+x,1/2+y,1/2-z
1/2-x,1/2+y,z
1/2+x,1/2-y,1/2+z
loop_
_atom_site_type_symbol
_atom_site_label
_atom_site_fract_x
_atom_site_fract_y
_atom_site_fract_z
Si Si1 0.107744 0.480046 0.396538
Si Si2 0.608629 0.683859 0.541320
Si Si3 0.895800 0.125746 0.351615
Si Si4 0.308187 0.902959 0.847465
Si Si5 0.888092 0.687019 0.011416
Si Si6 0.219603 0.634903 0.643848
O O1 0.113093 0.500000 0.500000
O O2 0.137658 0.537709 0.347532
O O3 0.176509 0.427893 0.374656
O O4 0.000000 0.463402 0.376730
O O5 0.500000 0.676578 0.568652
O O6 0.613507 0.668623 0.435164
O O7 0.635268 0.750385 0.548967
O O8 0.679016 0.644937 0.598165
O O9 0.892483 0.150749 0.250000
O O10 0.803493 0.086657 0.358815
O O11 0.000000 0.098864 0.360173
O O12 0.322134 0.874667 0.750000
O O13 0.344316 0.861734 0.925456
O O14 0.000000 0.680849 0.010381
O O15 0.847413 0.677544 0.912177
O O16 0.222116 0.645310 0.750000
#
# Coordination Sequence:
#
# PCOD9475067 Si02
#       6
#    16  16  16  16  16  16
#     4  11  22  40  64  88 123 164 203 253 308 366
#     4  10  22  42  64  87 123 163 205 255 307 366
#     4   9  18  35  61  90 119 155 204 258 309 364
#     4  11  22  37  62  91 121 157 200 250 307 366
#     4  11  23  40  61  89 123 162 206 251 304 366
#     4  12  25  40  61  90 127 167 209 253 308 368
#
# _framework density 19.349930000000001
#
# number of rings (size 3 to 8) (size 9 to 14) (size 15 to 20)
#    0.000    1.333    3.333    2.000    0.000    5.000 
#    0.000    4.167    0.000    5.000    0.000    0.000 
#    0.000    0.000    0.000    0.000    0.000    0.000 
#
# Total GULP energy -267788.927049 kJ/mol
# GULP energy per Si atom -5578.935980 kJ/mol
# Density = 1.930589 g / cm^3
# Si number density = 19.349930 Si / 1000 Ang^3
#
#
#
# Elastic Constant Matrix: (Units=GPa)
#
#
# Indices 1 2 3 4 5 6 
#
# 1 124.5204 58.0952 63.9659 0.0000 0.0000 0.0000
# 2 58.0952 77.0193 39.5024 0.0000 0.0000 0.0000
# 3 63.9659 39.5024 130.3969 0.0000 0.0000 0.0000
# 4 0.0000 0.0000 0.0000 10.1654 0.0000 0.0000
# 5 0.0000 0.0000 0.0000 0.0000 15.1847 0.0000
# 6 0.0000 0.0000 0.0000 0.0000 0.0000 30.3448
#
#
#
# Elastic Compliance Matrix: (Units=1/GPa)
#
#
# Indices 1 2 3 4 5 6 
#
# 1 0.014266 -0.008490 -0.004426 0.000000 0.000000 0.000000
# 2 -0.008490 0.020426 -0.002023 0.000000 0.000000 0.000000
# 3 -0.004426 -0.002023 0.010453 0.000000 0.000000 0.000000
# 4 0.000000 0.000000 0.000000 0.098373 0.000000 0.000000
# 5 0.000000 0.000000 0.000000 0.000000 0.065856 0.000000
# 6 0.000000 0.000000 0.000000 0.000000 0.000000 0.032955
#
#
# Mechanical properties :
#
#
# Convention : Reuss Voigt Hill
#
# Bulk Modulus (GPa) = 65.50605 72.78482 69.14543
# Shear Modulus (GPa) = 18.03140 22.49718 20.26429
#
# Velocity S-wave (km/s) = 3.05595 3.41346 3.23964
# Velocity P-wave (km/s) = 6.81019 7.29605 7.05730
#
# Compressibility (1/GPa) = 0.01526576
#
# Stress axis : x y z
#
# Youngs Moduli (GPa) = 70.09864 48.95840 95.66863
#
# Poissons Ratio (x) = 0.41568 0.42342
# Poissons Ratio (y) = 0.59517 0.19351
# Poissons Ratio (z) = 0.31025 0.09903
#
# Static dielectric constant tensor:
#      x y z
#    x 1.699790 0.000000 0.000000 
#    y 0.000000 1.645340 0.000000 
#    z 0.000000 0.000000 1.790470 
# 
# From -- ./inp_files/31948.got.cif
#   From: 2010.05.17/outbox.cif.g08.bks.cpg/sg63_16_cif.got.tgz:31948.got - 2010.06.03 15:47:04.
