data_PCOD9475007
_publ_section_title
;
Structure prediction by ZEFSAII (Michael W. Deem and Ramdas Pophale) SiO2 
 PCOD9475007
Probable space group: C M C M
;
_chemical_formula_sum "Si O2"
_cell_formula_units_Z 80
_cell_length_a 11.624559
_cell_length_b 20.210338
_cell_length_c 17.867249
_cell_angle_alpha 90.000000
_cell_angle_beta 90.000000
_cell_angle_gamma 90.000000
_cell_volume 4197.664773
_symmetry_space_group_name_H-M "C M C M"
_symmetry_group_IT_number 63
_symmetry_cell_setting 'orthorhombic'
loop_
_space_group_symop_operation_xyz
x,y,z
-x,-y,1/2+z
x,-y,-z
-x,y,1/2-z
-x,-y,-z
x,y,1/2-z
-x,y,z
x,-y,1/2+z
1/2+x,1/2+y,z
1/2-x,1/2-y,1/2+z
1/2+x,1/2-y,-z
1/2-x,1/2+y,1/2-z
1/2-x,1/2-y,-z
1/2+x,1/2+y,1/2-z
1/2-x,1/2+y,z
1/2+x,1/2-y,1/2+z
loop_
_atom_site_type_symbol
_atom_site_label
_atom_site_fract_x
_atom_site_fract_y
_atom_site_fract_z
Si Si1 0.000000 0.485895 0.088277
Si Si2 0.286169 0.938629 0.660879
Si Si3 0.361889 0.812018 0.574983
Si Si4 0.633497 0.558388 0.839548
Si Si5 0.500000 0.153905 0.835398
Si Si6 0.771973 0.680065 0.905476
O O1 0.110068 0.519116 0.126066
O O2 0.000000 0.408982 0.109228
O O3 0.000000 0.500000 0.000000
O O4 0.299103 0.933410 0.750000
O O5 0.297186 0.867160 0.623883
O O6 0.174538 0.983481 0.644554
O O7 0.500000 0.819192 0.581390
O O8 0.319485 0.739349 0.598829
O O9 0.321685 0.822248 0.489499
O O10 0.648939 0.568755 0.750000
O O11 0.500000 0.567599 0.857957
O O12 0.711934 0.611664 0.881870
O O13 0.500000 0.130172 0.750000
O O14 0.382606 0.192194 0.852887
#
# Coordination Sequence:
#
# PCOD9475007 Si02
#       6
#     8  16  16  16   8  16
#     4  12  22  36  66  94 126 155 198 257 314 366
#     4  11  23  39  62  93 124 159 203 257 310 368
#     4  11  24  42  64  89 126 166 206 259 314 372
#     4  10  22  41  63  89 124 164 206 256 311 371
#     4  12  22  38  64  94 124 160 210 266 312 363
#     4  11  23  41  63  91 123 164 212 257 311 371
#
# _framework density 19.058216000000002
#
# number of rings (size 3 to 8) (size 9 to 14) (size 15 to 20)
#    0.000    1.000    4.000    3.300    0.000    1.600 
#    1.800    1.000    0.000    0.000    0.000    0.000 
#    0.000    0.000    0.000    0.000    0.000    0.000 
#
# Total GULP energy -223525.035835 kJ/mol
# GULP energy per Si atom -5588.125896 kJ/mol
# Density = 1.901484 g / cm^3
# Si number density = 19.058216 Si / 1000 Ang^3
#
#
#
# Elastic Constant Matrix: (Units=GPa)
#
#
# Indices 1 2 3 4 5 6 
#
# 1 94.8677 37.1711 38.8773 0.0000 0.0000 0.0000
# 2 37.1711 106.2130 48.5789 0.0000 0.0000 0.0000
# 3 38.8773 48.5789 55.7510 0.0000 0.0000 0.0000
# 4 0.0000 0.0000 0.0000 67.9177 0.0000 0.0000
# 5 0.0000 0.0000 0.0000 0.0000 13.8045 0.0000
# 6 0.0000 0.0000 0.0000 0.0000 0.0000 32.9767
#
#
#
# Elastic Compliance Matrix: (Units=1/GPa)
#
#
# Indices 1 2 3 4 5 6 
#
# 1 0.014796 -0.000763 -0.009653 0.000000 0.000000 0.000000
# 2 -0.000763 0.015693 -0.013142 0.000000 0.000000 0.000000
# 3 -0.009653 -0.013142 0.036119 0.000000 0.000000 0.000000
# 4 0.000000 0.000000 0.000000 0.014724 0.000000 0.000000
# 5 0.000000 0.000000 0.000000 0.000000 0.072440 0.000000
# 6 0.000000 0.000000 0.000000 0.000000 0.000000 0.030324
#
#
# Mechanical properties :
#
#
# Convention : Reuss Voigt Hill
#
# Bulk Modulus (GPa) = 51.30172 56.23183 53.76677
# Shear Modulus (GPa) = 21.03413 31.75339 26.39376
#
# Velocity S-wave (km/s) = 3.32577 4.08625 3.72546
# Velocity P-wave (km/s) = 6.45945 7.19949 6.83948
#
# Compressibility (1/GPa) = 0.01949252
#
# Stress axis : x y z
#
# Youngs Moduli (GPa) = 67.58702 63.72323 27.68603
#
# Poissons Ratio (x) = 0.04863 0.26724
# Poissons Ratio (y) = 0.05158 0.36385
# Poissons Ratio (z) = 0.65239 0.83744
#
# Static dielectric constant tensor:
#      x y z
#    x 1.650050 0.000000 0.000000 
#    y 0.000000 1.653550 0.000000 
#    z 0.000000 0.000000 1.648160 
# 
# From -- ./inp_files/42187.got.cif
#   From: 2010.05.17/outbox.cif.g08.bks.cpg/sg63_22_cif.got.tgz:42187.got - 2010.06.03 15:47:04.
