data_PCOD9475447
_publ_section_title
;
Structure prediction by ZEFSAII (Michael W. Deem and Ramdas Pophale) SiO2 
 PCOD9475447
Probable space group: C M C M
;
_chemical_formula_sum "Si O2"
_cell_formula_units_Z 96
_cell_length_a 7.946436
_cell_length_b 21.643650
_cell_length_c 25.164747
_cell_angle_alpha 90.000000
_cell_angle_beta 90.000000
_cell_angle_gamma 90.000000
_cell_volume 4328.081805
_symmetry_space_group_name_H-M "C M C M"
_symmetry_group_IT_number 63
_symmetry_cell_setting 'orthorhombic'
loop_
_space_group_symop_operation_xyz
x,y,z
-x,-y,1/2+z
x,-y,-z
-x,y,1/2-z
-x,-y,-z
x,y,1/2-z
-x,y,z
x,-y,1/2+z
1/2+x,1/2+y,z
1/2-x,1/2-y,1/2+z
1/2+x,1/2-y,-z
1/2-x,1/2+y,1/2-z
1/2-x,1/2-y,-z
1/2+x,1/2+y,1/2-z
1/2-x,1/2+y,z
1/2+x,1/2-y,1/2+z
loop_
_atom_site_type_symbol
_atom_site_label
_atom_site_fract_x
_atom_site_fract_y
_atom_site_fract_z
Si Si1 0.194331 0.165107 0.499707
Si Si2 0.693177 0.041445 0.448253
Si Si3 0.810093 0.977062 0.344684
Si Si4 0.792945 0.788418 0.609154
Si Si5 0.205801 0.893362 0.808682
Si Si6 0.195418 0.344676 0.120195
O O1 0.209309 0.102005 0.465884
O O2 0.261596 0.210589 0.453107
O O3 0.282839 0.152017 0.555872
O O4 0.000000 0.178415 0.511065
O O5 0.500000 0.054785 0.430906
O O6 0.680695 0.000000 0.500000
O O7 0.792238 0.003401 0.404254
O O8 0.753819 0.906255 0.349918
O O9 0.000000 0.973946 0.325440
O O10 0.730099 0.035858 0.314201
O O11 0.738434 0.846603 0.644877
O O12 0.733679 0.723239 0.633599
O O13 0.000000 0.789336 0.607614
O O14 0.248029 0.869807 0.750000
O O15 0.000000 0.895544 0.812652
O O16 0.000000 0.341577 0.131642
#
# Coordination Sequence:
#
# PCOD9475447 Si02
#       6
#    16  16  16  16  16  16
#     4  11  20  33  54  80 112 149 191 228 263 319
#     4  11  21  32  50  79 114 150 184 220 271 323
#     4  11  21  35  57  82 109 142 186 231 273 324
#     4   9  19  35  54  80 112 147 186 227 269 322
#     4   9  18  36  62  86 104 132 183 239 283 325
#     4  11  22  35  52  80 120 154 182 219 271 331
#
# _framework density 22.180726
#
# number of rings (size 3 to 8) (size 9 to 14) (size 15 to 20)
#    0.000    1.667    3.333    2.500    0.000    0.667 
#    0.000    3.333    0.000    3.000    0.000    0.000 
#    0.000    0.000    0.000    0.000    0.000    0.000 
#
# Total GULP energy -267552.798910 kJ/mol
# GULP energy per Si atom -5574.016644 kJ/mol
# Density = 2.213024 g / cm^3
# Si number density = 22.180726 Si / 1000 Ang^3
#
#
#
# Elastic Constant Matrix: (Units=GPa)
#
#
# Indices 1 2 3 4 5 6 
#
# 1 27.4601 14.4715 -9.4660 0.0000 0.0000 0.0000
# 2 14.4715 145.9765 27.2144 0.0000 0.0000 0.0000
# 3 -9.4660 27.2144 80.7287 0.0000 0.0000 0.0000
# 4 0.0000 0.0000 0.0000 23.0069 0.0000 0.0000
# 5 0.0000 0.0000 0.0000 0.0000 2.5699 0.0000
# 6 0.0000 0.0000 0.0000 0.0000 0.0000 15.4091
#
#
#
# Elastic Compliance Matrix: (Units=1/GPa)
#
#
# Indices 1 2 3 4 5 6 
#
# 1 0.041546 -0.005364 0.006680 0.000000 0.000000 0.000000
# 2 -0.005364 0.008002 -0.003327 0.000000 0.000000 0.000000
# 3 0.006680 -0.003327 0.014292 0.000000 0.000000 0.000000
# 4 0.000000 0.000000 0.000000 0.043465 0.000000 0.000000
# 5 0.000000 0.000000 0.000000 0.000000 0.389126 0.000000
# 6 0.000000 0.000000 0.000000 0.000000 0.000000 0.064897
#
#
# Mechanical properties :
#
#
# Convention : Reuss Voigt Hill
#
# Bulk Modulus (GPa) = 16.71720 35.40056 26.05888
# Shear Modulus (GPa) = 8.54278 22.99352 15.76815
#
# Velocity S-wave (km/s) = 1.96464 3.22319 2.66915
# Velocity P-wave (km/s) = 3.56365 5.46321 4.61228
#
# Compressibility (1/GPa) = 0.05981862
#
# Stress axis : x y z
#
# Youngs Moduli (GPa) = 24.06969 124.96290 69.96980
#
# Poissons Ratio (x) = 0.67030 -0.46739
# Poissons Ratio (y) = 0.12911 0.23277
# Poissons Ratio (z) = -0.16078 0.41571
#
# Static dielectric constant tensor:
#      x y z
#    x 1.821690 0.000000 0.000000 
#    y 0.000000 1.923380 0.000000 
#    z 0.000000 0.000000 1.828740 
# 
# From -- ./inp_files/66929.got.cif
#   From: 2010.05.17/outbox.cif.g08.bks.cpg/sg63_34_cif.got.tgz:66929.got - 2010.06.03 15:47:04.
