data_PCOD9475633
_publ_section_title
;
Structure prediction by ZEFSAII (Michael W. Deem and Ramdas Pophale) SiO2 
 PCOD9475633
Probable space group: C M C M
;
_chemical_formula_sum "Si O2"
_cell_formula_units_Z 64
_cell_length_a 17.754446
_cell_length_b 8.443892
_cell_length_c 20.925317
_cell_angle_alpha 90.000000
_cell_angle_beta 90.000000
_cell_angle_gamma 90.000000
_cell_volume 3137.052892
_symmetry_space_group_name_H-M "C M C M"
_symmetry_group_IT_number 63
_symmetry_cell_setting 'orthorhombic'
loop_
_space_group_symop_operation_xyz
x,y,z
-x,-y,1/2+z
x,-y,-z
-x,y,1/2-z
-x,-y,-z
x,y,1/2-z
-x,y,z
x,-y,1/2+z
1/2+x,1/2+y,z
1/2-x,1/2-y,1/2+z
1/2+x,1/2-y,-z
1/2-x,1/2+y,1/2-z
1/2-x,1/2-y,-z
1/2+x,1/2+y,1/2-z
1/2-x,1/2+y,z
1/2+x,1/2-y,1/2+z
loop_
_atom_site_type_symbol
_atom_site_label
_atom_site_fract_x
_atom_site_fract_y
_atom_site_fract_z
Si Si1 0.000000 0.216722 0.820599
Si Si2 0.135134 0.111424 0.750000
Si Si3 0.218713 0.116021 0.452998
Si Si4 0.212321 0.455907 0.750000
Si Si5 0.839121 0.396444 0.381344
Si Si6 0.500000 0.989398 0.922900
O O1 0.922838 0.118091 0.810225
O O2 0.000000 0.309855 0.750000
O O3 0.000000 0.321276 0.883995
O O4 0.182392 0.275901 0.750000
O O5 0.197170 0.975443 0.750000
O O6 0.250000 0.250000 0.500000
O O7 0.180130 0.214927 0.397117
O O8 0.172124 0.000000 0.500000
O O9 0.286160 0.012154 0.424070
O O10 0.179909 0.546867 0.810972
O O11 0.924593 0.427324 0.399251
O O12 0.500000 0.000000 0.000000
#
# Coordination Sequence:
#
# PCOD9475633 Si02
#       6
#     8   8  16   8  16   8
#     4   8  18  40  56  85 120 166 195 247 299 370
#     4   9  20  36  64  85 120 158 200 247 302 362
#     4   9  19  38  58  83 120 160 202 253 303 363
#     4  12  20  36  60  96 118 156 208 254 304 368
#     4  11  22  36  61  90 121 160 205 259 308 365
#     4  12  22  36  61  91 120 161 211 248 304 365
#
# _framework density 20.401312000000001
#
# number of rings (size 3 to 8) (size 9 to 14) (size 15 to 20)
#    0.750    1.000    2.500    3.750    0.000    0.000 
#    0.000    0.625    0.000   19.500    0.000    0.000 
#    0.000    0.000    0.000    0.000    0.000    0.000 
#
# Total GULP energy -178282.201090 kJ/mol
# GULP energy per Si atom -5571.318784 kJ/mol
# Density = 2.035488 g / cm^3
# Si number density = 20.401312 Si / 1000 Ang^3
#
#
#
# Elastic Constant Matrix: (Units=GPa)
#
#
# Indices 1 2 3 4 5 6 
#
# 1 154.3143 33.6626 20.9069 0.0000 0.0000 0.0000
# 2 33.6626 63.4529 17.8665 0.0000 0.0000 0.0000
# 3 20.9069 17.8665 121.6096 0.0000 0.0000 0.0000
# 4 0.0000 0.0000 0.0000 15.1427 0.0000 0.0000
# 5 0.0000 0.0000 0.0000 0.0000 53.5966 0.0000
# 6 0.0000 0.0000 0.0000 0.0000 0.0000 -49.2105
#
#
#
# Elastic Compliance Matrix: (Units=1/GPa)
#
#
# Indices 1 2 3 4 5 6 
#
# 1 0.007389 -0.003716 -0.000724 0.000000 0.000000 0.000000
# 2 -0.003716 0.018309 -0.002051 0.000000 0.000000 0.000000
# 3 -0.000724 -0.002051 0.008649 0.000000 0.000000 0.000000
# 4 0.000000 0.000000 0.000000 0.066039 0.000000 0.000000
# 5 0.000000 0.000000 0.000000 0.000000 0.018658 0.000000
# 6 0.000000 0.000000 0.000000 0.000000 0.000000 -0.020321
#
#
# Mechanical properties :
#
#
# Convention : Reuss Voigt Hill
#
# Bulk Modulus (GPa) = 46.80819 53.80544 50.30682
# Shear Modulus (GPa) = 42.07825 21.70180 31.89003
#
# Velocity S-wave (km/s) = 4.54643 3.26505 3.95794
# Velocity P-wave (km/s) = 7.11010 6.37533 6.75272
#
# Compressibility (1/GPa) = 0.02136378
#
# Stress axis : x y z
#
# Youngs Moduli (GPa) = 135.33548 54.61911 115.62175
#
# Poissons Ratio (x) = 0.20297 0.08375
# Poissons Ratio (y) = 0.50291 0.23714
# Poissons Ratio (z) = 0.09803 0.11202
#
# Static dielectric constant tensor:
#      x y z
#    x 1.748560 0.000000 0.000000 
#    y 0.000000 1.737860 0.000000 
#    z 0.000000 0.000000 1.798690 
# 
# From -- ./inp_files/56298.got.cif
#   From: 2010.05.17/outbox.cif.g08.bks.cpg/sg63_29_cif.got.tgz:56298.got - 2010.06.03 15:47:04.
