data_PCOD9475572
_publ_section_title
;
Structure prediction by ZEFSAII (Michael W. Deem and Ramdas Pophale) SiO2 
 PCOD9475572
Probable space group: C M C M
;
_chemical_formula_sum "Si O2"
_cell_formula_units_Z 112
_cell_length_a 19.758181
_cell_length_b 12.590752
_cell_length_c 24.298139
_cell_angle_alpha 90.000000
_cell_angle_beta 90.000000
_cell_angle_gamma 90.000000
_cell_volume 6044.656712
_symmetry_space_group_name_H-M "C M C M"
_symmetry_group_IT_number 63
_symmetry_cell_setting 'orthorhombic'
loop_
_space_group_symop_operation_xyz
x,y,z
-x,-y,1/2+z
x,-y,-z
-x,y,1/2-z
-x,-y,-z
x,y,1/2-z
-x,y,z
x,-y,1/2+z
1/2+x,1/2+y,z
1/2-x,1/2-y,1/2+z
1/2+x,1/2-y,-z
1/2-x,1/2+y,1/2-z
1/2-x,1/2-y,-z
1/2+x,1/2+y,1/2-z
1/2-x,1/2+y,z
1/2+x,1/2-y,1/2+z
loop_
_atom_site_type_symbol
_atom_site_label
_atom_site_fract_x
_atom_site_fract_y
_atom_site_fract_z
Si Si1 0.654998 0.887406 0.378908
Si Si2 0.316544 0.119796 0.119333
Si Si3 0.338030 0.446322 0.855298
Si Si4 0.793386 0.171920 0.684207
Si Si5 0.922300 0.895104 0.536939
Si Si6 0.423207 0.731746 0.190045
Si Si7 0.325923 0.795741 0.002015
O O1 0.720826 0.844803 0.345750
O O2 0.594563 0.814023 0.357789
O O3 0.667488 0.869417 0.443862
O O4 0.645907 0.010939 0.365394
O O5 0.236860 0.088933 0.125185
O O6 0.325805 0.222178 0.158016
O O7 0.335037 0.148545 0.056707
O O8 0.333724 0.564953 0.832002
O O9 0.387361 0.430924 0.906710
O O10 0.369166 0.362927 0.812729
O O11 0.786148 0.180220 0.750000
O O12 0.877995 0.800973 0.510742
O O13 0.000000 0.861440 0.544636
O O14 0.921175 0.000000 0.500000
O O15 0.417197 0.784666 0.250000
O O16 0.500000 0.691842 0.184599
O O17 0.250000 0.750000 0.000000
#
# Coordination Sequence:
#
# PCOD9475572 Si02
#       7
#    16  16  16  16  16  16  16
#     4  11  23  37  58  90 120 160 201 253 300 367
#     4  11  23  37  59  91 120 163 196 252 308 364
#     4  11  21  37  59  85 120 154 202 248 303 369
#     4  11  22  36  57  87 122 156 194 253 313 362
#     4  11  23  36  59  90 124 159 196 255 313 366
#     4  11  22  39  62  86 117 157 203 250 300 361
#     4  12  20  38  60  87 123 164 209 248 306 369
#
# _framework density 18.528760999999999
#
# number of rings (size 3 to 8) (size 9 to 14) (size 15 to 20)
#    0.000    0.857    5.714    2.571    2.000    2.857 
#    0.000    0.714    0.000    3.429    0.000    2.000 
#    0.000    0.000    0.000    0.000    0.000    0.000 
#
# Total GULP energy -312686.958563 kJ/mol
# GULP energy per Si atom -5583.695689 kJ/mol
# Density = 1.848659 g / cm^3
# Si number density = 18.528761 Si / 1000 Ang^3
#
#
#
# Elastic Constant Matrix: (Units=GPa)
#
#
# Indices 1 2 3 4 5 6 
#
# 1 71.8742 27.1091 17.1872 0.0000 0.0000 0.0000
# 2 27.1091 141.1570 47.9642 0.0000 0.0000 0.0000
# 3 17.1872 47.9642 129.4891 0.0000 0.0000 0.0000
# 4 0.0000 0.0000 0.0000 19.5353 0.0000 0.0000
# 5 0.0000 0.0000 0.0000 0.0000 17.6909 0.0000
# 6 0.0000 0.0000 0.0000 0.0000 0.0000 21.7096
#
#
#
# Elastic Compliance Matrix: (Units=1/GPa)
#
#
# Indices 1 2 3 4 5 6 
#
# 1 0.015127 -0.002543 -0.001066 0.000000 0.000000 0.000000
# 2 -0.002543 0.008532 -0.002823 0.000000 0.000000 0.000000
# 3 -0.001066 -0.002823 0.008910 0.000000 0.000000 0.000000
# 4 0.000000 0.000000 0.000000 0.051189 0.000000 0.000000
# 5 0.000000 0.000000 0.000000 0.000000 0.056526 0.000000
# 6 0.000000 0.000000 0.000000 0.000000 0.000000 0.046062
#
#
# Mechanical properties :
#
#
# Convention : Reuss Voigt Hill
#
# Bulk Modulus (GPa) = 50.74725 58.56015 54.65370
# Shear Modulus (GPa) = 24.29794 28.47115 26.38455
#
# Velocity S-wave (km/s) = 3.62520 3.92419 3.77766
# Velocity P-wave (km/s) = 6.70601 7.22537 6.97053
#
# Compressibility (1/GPa) = 0.01970550
#
# Stress axis : x y z
#
# Youngs Moduli (GPa) = 66.10592 117.20790 112.23704
#
# Poissons Ratio (x) = 0.29806 0.11963
# Poissons Ratio (y) = 0.16811 0.31682
# Poissons Ratio (z) = 0.07046 0.33085
#
# Static dielectric constant tensor:
#      x y z
#    x 1.618450 0.000000 0.000000 
#    y 0.000000 1.652620 0.000000 
#    z 0.000000 0.000000 1.688980 
# 
# From -- ./inp_files/64613.got.cif
#   From: 2010.05.17/outbox.cif.g08.bks.cpg/sg63_33_cif.got.tgz:64613.got - 2010.06.03 15:47:04.
