data_PCOD9475169
_publ_section_title
;
Structure prediction by ZEFSAII (Michael W. Deem and Ramdas Pophale) SiO2 
 PCOD9475169
Probable space group: C M C M
;
_chemical_formula_sum "Si O2"
_cell_formula_units_Z 92
_cell_length_a 29.359001
_cell_length_b 24.709481
_cell_length_c 7.632556
_cell_angle_alpha 90.000000
_cell_angle_beta 90.000000
_cell_angle_gamma 90.000000
_cell_volume 5537.004758
_symmetry_space_group_name_H-M "C M C M"
_symmetry_group_IT_number 63
_symmetry_cell_setting 'orthorhombic'
loop_
_space_group_symop_operation_xyz
x,y,z
-x,-y,1/2+z
x,-y,-z
-x,y,1/2-z
-x,-y,-z
x,y,1/2-z
-x,y,z
x,-y,1/2+z
1/2+x,1/2+y,z
1/2-x,1/2-y,1/2+z
1/2+x,1/2-y,-z
1/2-x,1/2+y,1/2-z
1/2-x,1/2-y,-z
1/2+x,1/2+y,1/2-z
1/2-x,1/2+y,z
1/2+x,1/2-y,1/2+z
loop_
_atom_site_type_symbol
_atom_site_label
_atom_site_fract_x
_atom_site_fract_y
_atom_site_fract_z
Si Si1 0.816400 0.562364 0.041485
Si Si2 0.500000 0.062964 0.539818
Si Si3 0.000000 0.251420 0.250000
Si Si4 0.919941 0.258378 0.546712
Si Si5 0.091037 0.379169 0.043771
Si Si6 0.236970 0.334659 0.960855
Si Si7 0.822072 0.232854 0.541362
O O1 0.818050 0.566684 0.250000
O O2 0.780079 0.606926 0.976076
O O3 0.807077 0.500000 0.000000
O O4 0.865646 0.582242 0.976046
O O5 0.500000 0.068705 0.750000
O O6 0.454322 0.091575 0.474848
O O7 0.500000 0.000000 0.500000
O O8 0.960199 0.252696 0.406539
O O9 0.931745 0.244042 0.750000
O O10 0.904310 0.321427 0.546826
O O11 0.874162 0.227433 0.484184
O O12 0.084661 0.368139 0.250000
O O13 0.233937 0.334368 0.750000
O O14 0.203321 0.286979 0.028898
O O15 0.287945 0.316414 0.005408
O O16 0.824838 0.239660 0.750000
#
# Coordination Sequence:
#
# PCOD9475169 Si02
#       7
#    16   8   4  16  16  16  16
#     4  11  22  36  50  73 102 137 179 223 274 321
#     4  10  23  36  46  61  82 113 169 223 270 315
#     4  12  24  36  52  80 106 142 180 210 286 326
#     4  11  22  37  55  78 106 137 177 224 265 324
#     4  11  21  35  53  69  92 129 178 227 276 323
#     4   9  18  32  51  74 102 131 171 220 264 319
#     4   9  18  33  53  78 101 129 171 217 266 313
#
# _framework density 16.615480999999999
#
# number of rings (size 3 to 8) (size 9 to 14) (size 15 to 20)
#    0.000    1.739    2.609    2.348    2.435    4.174 
#    0.000    0.000    0.000    0.000    0.000    0.000 
#    0.000    0.000    0.000    0.783    5.217    1.913 
#
# Total GULP energy -256131.397015 kJ/mol
# GULP energy per Si atom -5568.073848 kJ/mol
# Density = 1.657766 g / cm^3
# Si number density = 16.615481 Si / 1000 Ang^3
#
#
#
# Elastic Constant Matrix: (Units=GPa)
#
#
# Indices 1 2 3 4 5 6 
#
# 1 143.3677 71.0864 29.3593 0.0000 0.0000 0.0000
# 2 71.0864 60.6226 6.7342 0.0000 0.0000 0.0000
# 3 29.3593 6.7342 72.6951 0.0000 0.0000 0.0000
# 4 0.0000 0.0000 0.0000 17.4059 0.0000 0.0000
# 5 0.0000 0.0000 0.0000 0.0000 26.3921 0.0000
# 6 0.0000 0.0000 0.0000 0.0000 0.0000 25.1303
#
#
#
# Elastic Compliance Matrix: (Units=1/GPa)
#
#
# Indices 1 2 3 4 5 6 
#
# 1 0.018654 -0.021255 -0.005565 0.000000 0.000000 0.000000
# 2 -0.021255 0.040887 0.004797 0.000000 0.000000 0.000000
# 3 -0.005565 0.004797 0.015559 0.000000 0.000000 0.000000
# 4 0.000000 0.000000 0.000000 0.057452 0.000000 0.000000
# 5 0.000000 0.000000 0.000000 0.000000 0.037890 0.000000
# 6 0.000000 0.000000 0.000000 0.000000 0.000000 0.039793
#
#
# Mechanical properties :
#
#
# Convention : Reuss Voigt Hill
#
# Bulk Modulus (GPa) = 32.20281 54.56058 43.38170
# Shear Modulus (GPa) = 18.89423 25.08605 21.99014
#
# Velocity S-wave (km/s) = 3.37582 3.88983 3.64190
# Velocity P-wave (km/s) = 5.88372 7.28580 6.62197
#
# Compressibility (1/GPa) = 0.03105319
#
# Stress axis : x y z
#
# Youngs Moduli (GPa) = 53.60876 24.45784 64.27105
#
# Poissons Ratio (x) = 0.51986 0.35764
# Poissons Ratio (y) = 1.13947 -0.30829
# Poissons Ratio (z) = 0.29831 -0.11732
#
# Static dielectric constant tensor:
#      x y z
#    x 1.593480 0.000000 0.000000 
#    y 0.000000 1.557900 0.000000 
#    z 0.000000 0.000000 1.583410 
# 
# From -- ./inp_files/13042.got.cif
#   From: 2010.05.17/outbox.cif.g08.bks.cpg/sg63_7_cif.got.tgz:13042.got - 2010.06.03 15:47:04.
