data_PCOD9475057
_publ_section_title
;
Structure prediction by ZEFSAII (Michael W. Deem and Ramdas Pophale) SiO2 
 PCOD9475057
Probable space group: C M C M
;
_chemical_formula_sum "Si O2"
_cell_formula_units_Z 48
_cell_length_a 26.805080
_cell_length_b 7.747686
_cell_length_c 10.735093
_cell_angle_alpha 90.000000
_cell_angle_beta 90.000000
_cell_angle_gamma 90.000000
_cell_volume 2229.435592
_symmetry_space_group_name_H-M "C M C M"
_symmetry_group_IT_number 63
_symmetry_cell_setting 'orthorhombic'
loop_
_space_group_symop_operation_xyz
x,y,z
-x,-y,1/2+z
x,-y,-z
-x,y,1/2-z
-x,-y,-z
x,y,1/2-z
-x,y,z
x,-y,1/2+z
1/2+x,1/2+y,z
1/2-x,1/2-y,1/2+z
1/2+x,1/2-y,-z
1/2-x,1/2+y,1/2-z
1/2-x,1/2-y,-z
1/2+x,1/2+y,1/2-z
1/2-x,1/2+y,z
1/2+x,1/2-y,1/2+z
loop_
_atom_site_type_symbol
_atom_site_label
_atom_site_fract_x
_atom_site_fract_y
_atom_site_fract_z
Si Si1 0.181871 0.500000 0.000000
Si Si2 0.727861 0.869194 0.250000
Si Si3 0.889256 0.765881 0.109905
Si Si4 0.168010 0.009616 0.250000
Si Si5 0.000000 0.149464 0.601512
O O1 0.213986 0.468158 0.123088
O O2 0.146165 0.663208 0.019193
O O3 0.787813 0.865870 0.250000
O O4 0.696482 0.690613 0.250000
O O5 0.884469 0.685965 0.250000
O O6 0.868397 0.959795 0.135449
O O7 0.947400 0.756730 0.079636
O O8 0.000000 0.098609 0.750000
O O9 0.000000 0.000000 0.500000
#
# Coordination Sequence:
#
# PCOD9475057 Si02
#       5
#     8   8  16   8   8
#     4  12  24  43  68  98 136 173 222 270 336 388
#     4  12  26  42  67  98 134 175 222 273 324 406
#     4   9  22  43  64  96 133 168 215 276 324 386
#     4  10  24  45  67  98 132 178 218 275 332 388
#     4  10  22  41  68  96 136 170 223 270 326 396
#
# _framework density 21.530114000000001
#
# number of rings (size 3 to 8) (size 9 to 14) (size 15 to 20)
#    1.000    0.667    1.667    2.000    4.667    6.000 
#    0.000    0.000    0.000    0.000    0.000    0.000 
#    0.000    0.000    0.000    0.000    0.000    0.000 
#
# Total GULP energy -133786.396345 kJ/mol
# GULP energy per Si atom -5574.433181 kJ/mol
# Density = 2.148111 g / cm^3
# Si number density = 21.530114 Si / 1000 Ang^3
#
#
#
# Elastic Constant Matrix: (Units=GPa)
#
#
# Indices 1 2 3 4 5 6 
#
# 1 158.6327 9.3090 27.5924 0.0000 0.0000 0.0000
# 2 9.3090 53.9901 5.2962 0.0000 0.0000 0.0000
# 3 27.5924 5.2962 98.3315 0.0000 0.0000 0.0000
# 4 0.0000 0.0000 0.0000 33.3236 0.0000 0.0000
# 5 0.0000 0.0000 0.0000 0.0000 3.0475 0.0000
# 6 0.0000 0.0000 0.0000 0.0000 0.0000 18.8966
#
#
#
# Elastic Compliance Matrix: (Units=1/GPa)
#
#
# Indices 1 2 3 4 5 6 
#
# 1 0.006678 -0.000973 -0.001821 0.000000 0.000000 0.000000
# 2 -0.000973 0.018762 -0.000738 0.000000 0.000000 0.000000
# 3 -0.001821 -0.000738 0.010721 0.000000 0.000000 0.000000
# 4 0.000000 0.000000 0.000000 0.030009 0.000000 0.000000
# 5 0.000000 0.000000 0.000000 0.000000 0.328142 0.000000
# 6 0.000000 0.000000 0.000000 0.000000 0.000000 0.052919
#
#
# Mechanical properties :
#
#
# Convention : Reuss Voigt Hill
#
# Bulk Modulus (GPa) = 34.36802 43.92770 39.14786
# Shear Modulus (GPa) = 10.77603 28.97066 19.87335
#
# Velocity S-wave (km/s) = 2.23963 3.67221 3.04147
# Velocity P-wave (km/s) = 4.76292 6.19898 5.52778
#
# Compressibility (1/GPa) = 0.02909682
#
# Stress axis : x y z
#
# Youngs Moduli (GPa) = 149.75062 53.29930 93.27918
#
# Poissons Ratio (x) = 0.05184 0.16990
# Poissons Ratio (y) = 0.14566 0.06880
# Poissons Ratio (z) = 0.27276 0.03931
#
# Static dielectric constant tensor:
#      x y z
#    x 1.789160 0.000000 0.000000 
#    y 0.000000 1.835420 0.000000 
#    z 0.000000 0.000000 1.829480 
# 
# From -- ./inp_files/13575.got.cif
#   From: 2010.05.17/outbox.cif.g08.bks.cpg/sg63_7_cif.got.tgz:13575.got - 2010.06.03 15:47:04.
