data_PCOD9475749
_publ_section_title
;
Structure prediction by ZEFSAII (Michael W. Deem and Ramdas Pophale) SiO2 
 PCOD9475749
Probable space group: C M C M
;
_chemical_formula_sum "Si O2"
_cell_formula_units_Z 64
_cell_length_a 7.709471
_cell_length_b 22.054887
_cell_length_c 20.378239
_cell_angle_alpha 90.000000
_cell_angle_beta 90.000000
_cell_angle_gamma 90.000000
_cell_volume 3464.942784
_symmetry_space_group_name_H-M "C M C M"
_symmetry_group_IT_number 63
_symmetry_cell_setting 'orthorhombic'
loop_
_space_group_symop_operation_xyz
x,y,z
-x,-y,1/2+z
x,-y,-z
-x,y,1/2-z
-x,-y,-z
x,y,1/2-z
-x,y,z
x,-y,1/2+z
1/2+x,1/2+y,z
1/2-x,1/2-y,1/2+z
1/2+x,1/2-y,-z
1/2-x,1/2+y,1/2-z
1/2-x,1/2-y,-z
1/2+x,1/2+y,1/2-z
1/2-x,1/2+y,z
1/2+x,1/2-y,1/2+z
loop_
_atom_site_type_symbol
_atom_site_label
_atom_site_fract_x
_atom_site_fract_y
_atom_site_fract_z
Si Si1 0.210279 0.233712 0.674127
Si Si2 0.197533 0.194573 0.047650
Si Si3 0.000000 0.525317 0.603472
Si Si4 0.698861 0.595462 0.828952
Si Si5 0.000000 0.597727 0.033106
O O1 0.262212 0.243712 0.750000
O O2 0.286240 0.279708 0.621588
O O3 0.255534 0.164446 0.654703
O O4 0.000000 0.237374 0.671661
O O5 0.332273 0.140437 0.038079
O O6 0.000000 0.176760 0.033456
O O7 0.250000 0.250000 0.000000
O O8 0.830316 0.547352 0.641982
O O9 0.000000 0.454218 0.588362
O O10 0.000000 0.562237 0.535394
O O11 0.699697 0.592454 0.750000
O O12 0.500000 0.587081 0.851199
#
# Coordination Sequence:
#
# PCOD9475749 Si02
#       5
#    16  16   8  16   8
#     4   9  18  35  60  91 124 152 193 251 302 355
#     4  12  23  39  62  87 122 157 196 251 307 362
#     4  11  23  40  62  82 121 161 204 248 286 362
#     4   9  19  36  62  93 118 151 199 249 301 349
#     4  11  26  42  56  90 118 161 210 238 304 362
#
# _framework density 18.470724000000001
#
# number of rings (size 3 to 8) (size 9 to 14) (size 15 to 20)
#    0.000    1.750    2.500    3.375    1.750    4.500 
#    0.000    5.000    0.000    0.000    0.000    0.000 
#    0.000    0.000    0.000    0.000    0.000    0.000 
#
# Total GULP energy -178809.698061 kJ/mol
# GULP energy per Si atom -5587.803064 kJ/mol
# Density = 1.842868 g / cm^3
# Si number density = 18.470724 Si / 1000 Ang^3
#
#
#
# Elastic Constant Matrix: (Units=GPa)
#
#
# Indices 1 2 3 4 5 6 
#
# 1 127.1452 66.2660 19.1033 0.0000 0.0000 0.0000
# 2 66.2660 115.4028 28.6862 0.0000 0.0000 0.0000
# 3 19.1033 28.6862 40.9838 0.0000 0.0000 0.0000
# 4 0.0000 0.0000 0.0000 35.3411 0.0000 0.0000
# 5 0.0000 0.0000 0.0000 0.0000 33.9637 0.0000
# 6 0.0000 0.0000 0.0000 0.0000 0.0000 34.5835
#
#
#
# Elastic Compliance Matrix: (Units=1/GPa)
#
#
# Indices 1 2 3 4 5 6 
#
# 1 0.011250 -0.006243 -0.000874 0.000000 0.000000 0.000000
# 2 -0.006243 0.013954 -0.006858 0.000000 0.000000 0.000000
# 3 -0.000874 -0.006858 0.029607 0.000000 0.000000 0.000000
# 4 0.000000 0.000000 0.000000 0.028296 0.000000 0.000000
# 5 0.000000 0.000000 0.000000 0.000000 0.029443 0.000000
# 6 0.000000 0.000000 0.000000 0.000000 0.000000 0.028916
#
#
# Mechanical properties :
#
#
# Convention : Reuss Voigt Hill
#
# Bulk Modulus (GPa) = 37.22621 56.84920 47.03771
# Shear Modulus (GPa) = 28.03174 32.07607 30.05390
#
# Velocity S-wave (km/s) = 3.89990 4.17176 4.03812
# Velocity P-wave (km/s) = 6.36215 7.35184 6.87483
#
# Compressibility (1/GPa) = 0.02686279
#
# Stress axis : x y z
#
# Youngs Moduli (GPa) = 88.88973 71.66169 33.77541
#
# Poissons Ratio (x) = 0.44735 0.02953
# Poissons Ratio (y) = 0.55489 0.23162
# Poissons Ratio (z) = 0.07772 0.49142
#
# Static dielectric constant tensor:
#      x y z
#    x 1.663140 0.000000 0.000000 
#    y 0.000000 1.601580 0.000000 
#    z 0.000000 0.000000 1.647840 
# 
# From -- ./inp_files/50624.got.cif
#   From: 2010.05.17/outbox.cif.g08.bks.cpg/sg63_26_cif.got.tgz:50624.got - 2010.06.03 15:47:04.
