data_PCOD9475938
_publ_section_title
;
Structure prediction by ZEFSAII (Michael W. Deem and Ramdas Pophale) SiO2 
 PCOD9475938
Probable space group: C M C M
;
_chemical_formula_sum "Si O2"
_cell_formula_units_Z 80
_cell_length_a 7.396156
_cell_length_b 27.725437
_cell_length_c 18.850181
_cell_angle_alpha 90.000000
_cell_angle_beta 90.000000
_cell_angle_gamma 90.000000
_cell_volume 3865.449355
_symmetry_space_group_name_H-M "C M C M"
_symmetry_group_IT_number 63
_symmetry_cell_setting 'orthorhombic'
loop_
_space_group_symop_operation_xyz
x,y,z
-x,-y,1/2+z
x,-y,-z
-x,y,1/2-z
-x,-y,-z
x,y,1/2-z
-x,y,z
x,-y,1/2+z
1/2+x,1/2+y,z
1/2-x,1/2-y,1/2+z
1/2+x,1/2-y,-z
1/2-x,1/2+y,1/2-z
1/2-x,1/2-y,-z
1/2+x,1/2+y,1/2-z
1/2-x,1/2+y,z
1/2+x,1/2-y,1/2+z
loop_
_atom_site_type_symbol
_atom_site_label
_atom_site_fract_x
_atom_site_fract_y
_atom_site_fract_z
Si Si1 0.214892 0.091169 0.830820
Si Si2 0.778741 0.000905 0.081382
Si Si3 0.217057 0.303302 0.168305
Si Si4 0.278985 0.594787 0.332389
Si Si5 0.286342 0.299939 0.836221
O O1 0.288077 0.090439 0.750000
O O2 0.283156 0.046741 0.876965
O O3 0.242187 0.144452 0.863472
O O4 0.000000 0.084681 0.825434
O O5 0.000000 0.000785 0.082102
O O6 0.721301 0.049585 0.121112
O O7 0.721901 0.000000 0.000000
O O8 0.283629 0.306092 0.250000
O O9 0.284564 0.252076 0.137976
O O10 0.000000 0.299640 0.170901
O O11 0.226739 0.588469 0.250000
O O12 0.500000 0.595769 0.333098
O O13 0.215088 0.647658 0.358083
O O14 0.270479 0.298940 0.750000
O O15 0.500000 0.300683 0.852644
#
# Coordination Sequence:
#
# PCOD9475938 Si02
#       5
#    16  16  16  16  16
#     4   9  16  25  38  57  79 101 125 152 183 223
#     4   9  16  24  34  50  74 102 128 155 189 226
#     4   8  13  22  37  57  78  97 120 153 189 222
#     4   8  12  19  33  52  72  93 120 157 194 221
#     4   7  10  17  31  52  73  89 111 149 191 222
#
# _framework density 20.696172000000001
#
# number of rings (size 3 to 8) (size 9 to 14) (size 15 to 20)
#    0.000    3.800    0.000    3.000    0.000    2.400 
#    0.000    0.000    0.000    1.800    0.000    1.400 
#    0.000    8.000    0.000    0.000    0.000    0.000 
#
# Total GULP energy -222688.604965 kJ/mol
# GULP energy per Si atom -5567.215124 kJ/mol
# Density = 2.064907 g / cm^3
# Si number density = 20.696172 Si / 1000 Ang^3
#
#
#
# Elastic Constant Matrix: (Units=GPa)
#
#
# Indices 1 2 3 4 5 6 
#
# 1 69.2702 7.4738 3.6018 0.0000 0.0000 0.0000
# 2 7.4738 288.5391 89.4884 0.0000 0.0000 0.0000
# 3 3.6018 89.4884 61.8449 0.0000 0.0000 0.0000
# 4 0.0000 0.0000 0.0000 -5.1570 0.0000 0.0000
# 5 0.0000 0.0000 0.0000 0.0000 -8.2265 0.0000
# 6 0.0000 0.0000 0.0000 0.0000 0.0000 5.2877
#
#
#
# Elastic Compliance Matrix: (Units=1/GPa)
#
#
# Indices 1 2 3 4 5 6 
#
# 1 0.014487 -0.000206 -0.000546 0.000000 0.000000 0.000000
# 2 -0.000206 0.006290 -0.009090 0.000000 0.000000 0.000000
# 3 -0.000546 -0.009090 0.029354 0.000000 0.000000 0.000000
# 4 0.000000 0.000000 0.000000 -0.193913 0.000000 0.000000
# 5 0.000000 0.000000 0.000000 0.000000 -0.121558 0.000000
# 6 0.000000 0.000000 0.000000 0.000000 0.000000 0.189119
#
#
# Mechanical properties :
#
#
# Convention : Reuss Voigt Hill
#
# Bulk Modulus (GPa) = 32.84265 68.97581 50.90923
# Shear Modulus (GPa) = -107.78363 19.65353 -44.06505
#
# Velocity S-wave (km/s) = -7.22441 3.08494 -4.61927
# Velocity P-wave (km/s) = 7.32708 6.78891 1.94895
#
# Compressibility (1/GPa) = 0.03044822
#
# Stress axis : x y z
#
# Youngs Moduli (GPa) = 69.02830 158.97705 34.06683
#
# Poissons Ratio (x) = 0.03275 0.01859
# Poissons Ratio (y) = 0.01422 0.30966
# Poissons Ratio (z) = 0.03766 1.44507
#
# Static dielectric constant tensor:
#      x y z
#    x 1.832490 0.000000 0.000000 
#    y 0.000000 1.800840 0.000000 
#    z 0.000000 0.000000 1.675130 
# 
# From -- ./inp_files/29745.got.cif
#   From: 2010.05.17/outbox.cif.g08.bks.cpg/sg63_15_cif.got.tgz:29745.got - 2010.06.03 15:47:04.
