data_PCOD9475905
_publ_section_title
;
Structure prediction by ZEFSAII (Michael W. Deem and Ramdas Pophale) SiO2 
 PCOD9475905
Probable space group: C M C M
;
_chemical_formula_sum "Si O2"
_cell_formula_units_Z 84
_cell_length_a 26.473302
_cell_length_b 15.682689
_cell_length_c 10.158427
_cell_angle_alpha 90.000000
_cell_angle_beta 90.000000
_cell_angle_gamma 90.000000
_cell_volume 4217.500164
_symmetry_space_group_name_H-M "C M C M"
_symmetry_group_IT_number 63
_symmetry_cell_setting 'orthorhombic'
loop_
_space_group_symop_operation_xyz
x,y,z
-x,-y,1/2+z
x,-y,-z
-x,y,1/2-z
-x,-y,-z
x,y,1/2-z
-x,y,z
x,-y,1/2+z
1/2+x,1/2+y,z
1/2-x,1/2-y,1/2+z
1/2+x,1/2-y,-z
1/2-x,1/2+y,1/2-z
1/2-x,1/2-y,-z
1/2+x,1/2+y,1/2-z
1/2-x,1/2+y,z
1/2+x,1/2-y,1/2+z
loop_
_atom_site_type_symbol
_atom_site_label
_atom_site_fract_x
_atom_site_fract_y
_atom_site_fract_z
Si Si1 0.310176 0.091871 0.750000
Si Si2 0.443915 0.721722 0.472817
Si Si3 0.250238 0.648197 0.006068
Si Si4 0.319240 0.895934 0.750000
Si Si5 0.500000 0.022058 0.250000
Si Si6 0.075501 0.642457 0.750000
Si Si7 0.426412 0.811659 0.750000
Si Si8 0.360084 0.580794 0.092121
O O1 0.274842 0.111144 0.625471
O O2 0.363239 0.141666 0.750000
O O3 0.329819 0.995656 0.750000
O O4 0.500000 0.684209 0.456554
O O5 0.439885 0.803677 0.378038
O O6 0.437835 0.756603 0.620492
O O7 0.401240 0.654562 0.432538
O O8 0.213805 0.622390 0.123302
O O9 0.305736 0.613716 0.040188
O O10 0.250000 0.750000 0.000000
O O11 0.368103 0.837670 0.750000
O O12 0.542943 0.099471 0.250000
O O13 0.455095 0.946737 0.250000
O O14 0.357359 0.562257 0.250000
O O15 0.373099 0.500000 0.000000
#
# Coordination Sequence:
#
# PCOD9475905 Si02
#       8
#     8  16  16   8   4   8   8  16
#     4  12  25  41  69 103 137 184 232 287 341 428
#     4  12  26  48  74 104 147 193 243 305 372 437
#     4  12  26  45  70 102 142 184 233 291 362 426
#     4  12  23  43  65  99 139 182 232 285 343 424
#     4  12  24  46  72 110 158 194 250 296 354 442
#     4  12  24  45  73 107 147 199 242 297 368 430
#     4  12  26  45  69 113 151 193 240 301 362 436
#     4  12  28  50  78 109 144 191 248 306 370 437
#
# _framework density 19.917010999999999
#
# number of rings (size 3 to 8) (size 9 to 14) (size 15 to 20)
#    0.000    0.000    4.762    5.714    2.667    1.905 
#    0.000    0.000    0.000    0.000    0.000    0.000 
#    0.000    0.000    0.000    0.000    0.000    0.000 
#
# Total GULP energy -234431.221695 kJ/mol
# GULP energy per Si atom -5581.695755 kJ/mol
# Density = 1.987168 g / cm^3
# Si number density = 19.917011 Si / 1000 Ang^3
#
#
#
# Elastic Constant Matrix: (Units=GPa)
#
#
# Indices 1 2 3 4 5 6 
#
# 1 174.7798 18.9635 47.7371 0.0000 0.0000 0.0000
# 2 18.9635 77.4961 27.2598 0.0000 0.0000 0.0000
# 3 47.7371 27.2598 170.8248 0.0000 0.0000 0.0000
# 4 0.0000 0.0000 0.0000 22.6669 0.0000 0.0000
# 5 0.0000 0.0000 0.0000 0.0000 58.2699 0.0000
# 6 0.0000 0.0000 0.0000 0.0000 0.0000 43.6659
#
#
#
# Elastic Compliance Matrix: (Units=1/GPa)
#
#
# Indices 1 2 3 4 5 6 
#
# 1 0.006263 -0.000971 -0.001595 0.000000 0.000000 0.000000
# 2 -0.000971 0.013822 -0.001934 0.000000 0.000000 0.000000
# 3 -0.001595 -0.001934 0.006608 0.000000 0.000000 0.000000
# 4 0.000000 0.000000 0.000000 0.044117 0.000000 0.000000
# 5 0.000000 0.000000 0.000000 0.000000 0.017162 0.000000
# 6 0.000000 0.000000 0.000000 0.000000 0.000000 0.022901
#
#
# Mechanical properties :
#
#
# Convention : Reuss Voigt Hill
#
# Bulk Modulus (GPa) = 56.52429 67.89126 62.20777
# Shear Modulus (GPa) = 39.75470 46.86322 43.30896
#
# Velocity S-wave (km/s) = 4.47253 4.85596 4.66818
# Velocity P-wave (km/s) = 7.42380 8.09948 7.76899
#
# Compressibility (1/GPa) = 0.01769151
#
# Stress axis : x y z
#
# Youngs Moduli (GPa) = 159.67976 72.34873 151.32376
#
# Poissons Ratio (x) = 0.07028 0.24137
# Poissons Ratio (y) = 0.15511 0.29269
# Poissons Ratio (z) = 0.25470 0.13994
#
# Static dielectric constant tensor:
#      x y z
#    x 1.693420 0.000000 0.000000 
#    y 0.000000 1.645090 0.000000 
#    z 0.000000 0.000000 1.730430 
# 
# From -- ./inp_files/23815.got.cif
#   From: 2010.05.17/outbox.cif.g08.bks.cpg/sg63_12_cif.got.tgz:23815.got - 2010.06.03 15:47:04.
