data_PCOD9475944
_publ_section_title
;
Structure prediction by ZEFSAII (Michael W. Deem and Ramdas Pophale) SiO2 
 PCOD9475944
Probable space group: C M C M
;
_chemical_formula_sum "Si O2"
_cell_formula_units_Z 80
_cell_length_a 8.744146
_cell_length_b 14.601471
_cell_length_c 28.150489
_cell_angle_alpha 90.000000
_cell_angle_beta 90.000000
_cell_angle_gamma 90.000000
_cell_volume 3594.181082
_symmetry_space_group_name_H-M "C M C M"
_symmetry_group_IT_number 63
_symmetry_cell_setting 'orthorhombic'
loop_
_space_group_symop_operation_xyz
x,y,z
-x,-y,1/2+z
x,-y,-z
-x,y,1/2-z
-x,-y,-z
x,y,1/2-z
-x,y,z
x,-y,1/2+z
1/2+x,1/2+y,z
1/2-x,1/2-y,1/2+z
1/2+x,1/2-y,-z
1/2-x,1/2+y,1/2-z
1/2-x,1/2-y,-z
1/2+x,1/2+y,1/2-z
1/2-x,1/2+y,z
1/2+x,1/2-y,1/2+z
loop_
_atom_site_type_symbol
_atom_site_label
_atom_site_fract_x
_atom_site_fract_y
_atom_site_fract_z
Si Si1 0.820199 0.002865 0.250000
Si Si2 0.321005 0.273028 0.750000
Si Si3 0.826643 0.515074 0.051510
Si Si4 0.816256 0.986138 0.851559
Si Si5 0.329341 0.765266 0.949865
Si Si6 0.185411 0.719983 0.151531
O O1 0.810446 0.114740 0.250000
O O2 0.757693 0.972906 0.198640
O O3 0.000000 0.979036 0.250000
O O4 0.500000 0.250343 0.750000
O O5 0.240343 0.240280 0.798317
O O6 0.743580 0.478296 0.098087
O O7 0.837305 0.624739 0.055625
O O8 0.000000 0.477125 0.049924
O O9 0.752392 0.500000 0.000000
O O10 0.759443 0.881055 0.849649
O O11 0.000000 0.989345 0.851400
O O12 0.500000 0.726953 0.953817
O O13 0.264981 0.734338 0.898533
O O14 0.250000 0.750000 0.000000
O O15 0.000000 0.714748 0.151021
#
# Coordination Sequence:
#
# PCOD9475944 Si02
#       6
#     8   8  16  16  16  16
#     4   7  12  21  33  53  82 109 130 163 211 255
#     4   9  15  23  37  59  84 111 142 179 223 261
#     4   9  18  32  46  62  88 119 149 181 219 264
#     4   9  15  24  39  60  85 111 142 179 218 260
#     4   9  18  30  45  65  88 117 149 182 221 262
#     4   9  16  26  39  58  85 116 146 176 218 267
#
# _framework density 22.258199999999999
#
# number of rings (size 3 to 8) (size 9 to 14) (size 15 to 20)
#    0.000    3.200    0.000    3.900    0.000    4.400 
#    0.000    1.500    0.000    0.000    0.000    1.400 
#    0.000    6.400    0.000    0.000    0.000    0.000 
#
# Total GULP energy -222731.228025 kJ/mol
# GULP energy per Si atom -5568.280701 kJ/mol
# Density = 2.220754 g / cm^3
# Si number density = 22.258200 Si / 1000 Ang^3
#
#
#
# Elastic Constant Matrix: (Units=GPa)
#
#
# Indices 1 2 3 4 5 6 
#
# 1 51.6477 -3.0811 70.5239 0.0000 0.0000 0.0000
# 2 -3.0811 54.3757 5.8993 0.0000 0.0000 0.0000
# 3 70.5239 5.8993 324.7077 0.0000 0.0000 0.0000
# 4 0.0000 0.0000 0.0000 9.4455 0.0000 0.0000
# 5 0.0000 0.0000 0.0000 0.0000 43.0768 0.0000
# 6 0.0000 0.0000 0.0000 0.0000 0.0000 -1.3243
#
#
#
# Elastic Compliance Matrix: (Units=1/GPa)
#
#
# Indices 1 2 3 4 5 6 
#
# 1 0.027793 0.002234 -0.006077 0.000000 0.000000 0.000000
# 2 0.002234 0.018606 -0.000823 0.000000 0.000000 0.000000
# 3 -0.006077 -0.000823 0.004415 0.000000 0.000000 0.000000
# 4 0.000000 0.000000 0.000000 0.105870 0.000000 0.000000
# 5 0.000000 0.000000 0.000000 0.000000 0.023214 0.000000
# 6 0.000000 0.000000 0.000000 0.000000 0.000000 -0.755090
#
#
# Mechanical properties :
#
#
# Convention : Reuss Voigt Hill
#
# Bulk Modulus (GPa) = 24.10686 64.15727 44.13207
# Shear Modulus (GPa) = -9.05746 34.06552 12.50403
#
# Velocity S-wave (km/s) = -2.01943 3.91637 2.37274
# Velocity P-wave (km/s) = 2.32736 7.02405 5.23230
#
# Compressibility (1/GPa) = 0.04148197
#
# Stress axis : x y z
#
# Youngs Moduli (GPa) = 35.97983 53.74472 226.52387
#
# Poissons Ratio (x) = -0.12007 1.37661
# Poissons Ratio (y) = -0.08039 0.18649
# Poissons Ratio (z) = 0.21865 0.04425
#
# Static dielectric constant tensor:
#      x y z
#    x 1.779090 0.000000 0.000000 
#    y 0.000000 1.962350 0.000000 
#    z 0.000000 0.000000 1.931570 
# 
# From -- ./inp_files/66696.got.cif
#   From: 2010.05.17/outbox.cif.g08.bks.cpg/sg63_34_cif.got.tgz:66696.got - 2010.06.03 15:47:04.
