data_PCOD9475757
_publ_section_title
;
Structure prediction by ZEFSAII (Michael W. Deem and Ramdas Pophale) SiO2 
 PCOD9475757
Probable space group: C M C M
;
_chemical_formula_sum "Si O2"
_cell_formula_units_Z 80
_cell_length_a 14.755589
_cell_length_b 9.149518
_cell_length_c 29.370960
_cell_angle_alpha 90.000000
_cell_angle_beta 90.000000
_cell_angle_gamma 90.000000
_cell_volume 3965.271309
_symmetry_space_group_name_H-M "C M C M"
_symmetry_group_IT_number 63
_symmetry_cell_setting 'orthorhombic'
loop_
_space_group_symop_operation_xyz
x,y,z
-x,-y,1/2+z
x,-y,-z
-x,y,1/2-z
-x,-y,-z
x,y,1/2-z
-x,y,z
x,-y,1/2+z
1/2+x,1/2+y,z
1/2-x,1/2-y,1/2+z
1/2+x,1/2-y,-z
1/2-x,1/2+y,1/2-z
1/2-x,1/2-y,-z
1/2+x,1/2+y,1/2-z
1/2-x,1/2+y,z
1/2+x,1/2-y,1/2+z
loop_
_atom_site_type_symbol
_atom_site_label
_atom_site_fract_x
_atom_site_fract_y
_atom_site_fract_z
Si Si1 0.352859 0.312598 0.107477
Si Si2 0.855953 0.050319 0.800642
Si Si3 0.656952 0.963657 0.388320
Si Si4 0.657783 0.199988 0.700091
Si Si5 0.000000 0.855401 0.028898
Si Si6 0.500000 0.894500 0.042151
O O1 0.396761 0.382675 0.153276
O O2 0.338326 0.139207 0.115257
O O3 0.256072 0.394412 0.102544
O O4 0.414740 0.334572 0.063024
O O5 0.897315 0.069773 0.750000
O O6 0.842632 0.875301 0.806978
O O7 0.759814 0.135373 0.798183
O O8 0.618720 0.888631 0.342255
O O9 0.588060 0.921460 0.427723
O O10 0.616563 0.172600 0.750000
O O11 0.000000 0.751952 0.985419
O O12 0.000000 0.000000 0.000000
O O13 0.500000 0.000000 0.000000
#
# Coordination Sequence:
#
# PCOD9475757 Si02
#       6
#    16  16  16  16   8   8
#     4  11  23  42  64  97 124 163 209 250 310 368
#     4   9  17  31  55  88 127 162 200 248 298 360
#     4  11  23  40  68  92 127 164 204 256 304 371
#     4   9  17  31  55  90 125 163 202 244 300 361
#     4  12  30  46  67  90 121 161 208 265 314 372
#     4  12  26  50  63  88 125 161 204 263 318 360
#
# _framework density 20.175166000000001
#
# number of rings (size 3 to 8) (size 9 to 14) (size 15 to 20)
#    0.000    1.600    2.000    4.800    5.600    4.000 
#    0.000    1.000    0.000    4.800    0.000    0.000 
#    0.000    0.000    0.000    0.000    0.000    0.000 
#
# Total GULP energy -222973.116016 kJ/mol
# GULP energy per Si atom -5574.327900 kJ/mol
# Density = 2.012925 g / cm^3
# Si number density = 20.175166 Si / 1000 Ang^3
#
#
#
# Elastic Constant Matrix: (Units=GPa)
#
#
# Indices 1 2 3 4 5 6 
#
# 1 103.1390 48.3580 70.5852 0.0000 0.0000 0.0000
# 2 48.3580 207.3866 91.4285 0.0000 0.0000 0.0000
# 3 70.5852 91.4285 176.4690 0.0000 0.0000 0.0000
# 4 0.0000 0.0000 0.0000 50.6278 0.0000 0.0000
# 5 0.0000 0.0000 0.0000 0.0000 120.9378 0.0000
# 6 0.0000 0.0000 0.0000 0.0000 0.0000 -4.7845
#
#
#
# Elastic Compliance Matrix: (Units=1/GPa)
#
#
# Indices 1 2 3 4 5 6 
#
# 1 0.013507 -0.000995 -0.004887 0.000000 0.000000 0.000000
# 2 -0.000995 0.006323 -0.002878 0.000000 0.000000 0.000000
# 3 -0.004887 -0.002878 0.009112 0.000000 0.000000 0.000000
# 4 0.000000 0.000000 0.000000 0.019752 0.000000 0.000000
# 5 0.000000 0.000000 0.000000 0.000000 0.008269 0.000000
# 6 0.000000 0.000000 0.000000 0.000000 0.000000 -0.209007
#
#
# Mechanical properties :
#
#
# Convention : Reuss Voigt Hill
#
# Bulk Modulus (GPa) = 87.54856 100.85980 94.20418
# Shear Modulus (GPa) = -38.25036 51.79774 6.77369
#
# Velocity S-wave (km/s) = -4.35893 5.07245 1.83432
# Velocity P-wave (km/s) = 4.26083 9.18732 7.16106
#
# Compressibility (1/GPa) = 0.01142223
#
# Stress axis : x y z
#
# Youngs Moduli (GPa) = 74.03749 158.16249 109.74037
#
# Poissons Ratio (x) = 0.15737 0.53630
# Poissons Ratio (y) = 0.07367 0.31581
# Poissons Ratio (z) = 0.36182 0.45515
#
# Static dielectric constant tensor:
#      x y z
#    x 1.736250 0.000000 0.000000 
#    y 0.000000 1.650310 0.000000 
#    z 0.000000 0.000000 1.736560 
# 
# From -- ./inp_files/69768.got.cif
#   From: 2010.05.17/outbox.cif.g08.bks.cpg/sg63_35_cif.got.tgz:69768.got - 2010.06.03 15:47:04.
