data_PCOD9475028
_publ_section_title
;
Structure prediction by ZEFSAII (Michael W. Deem and Ramdas Pophale) SiO2 
 PCOD9475028
Probable space group: C M C M
;
_chemical_formula_sum "Si O2"
_cell_formula_units_Z 64
_cell_length_a 24.856560
_cell_length_b 6.827509
_cell_length_c 18.197875
_cell_angle_alpha 90.000000
_cell_angle_beta 90.000000
_cell_angle_gamma 90.000000
_cell_volume 3088.332015
_symmetry_space_group_name_H-M "C M C M"
_symmetry_group_IT_number 63
_symmetry_cell_setting 'orthorhombic'
loop_
_space_group_symop_operation_xyz
x,y,z
-x,-y,1/2+z
x,-y,-z
-x,y,1/2-z
-x,-y,-z
x,y,1/2-z
-x,y,z
x,-y,1/2+z
1/2+x,1/2+y,z
1/2-x,1/2-y,1/2+z
1/2+x,1/2-y,-z
1/2-x,1/2+y,1/2-z
1/2-x,1/2-y,-z
1/2+x,1/2+y,1/2-z
1/2-x,1/2+y,z
1/2+x,1/2-y,1/2+z
loop_
_atom_site_type_symbol
_atom_site_label
_atom_site_fract_x
_atom_site_fract_y
_atom_site_fract_z
Si Si1 0.294424 0.845826 0.945378
Si Si2 0.375818 0.493042 0.415131
Si Si3 0.440537 0.181078 0.162510
Si Si4 0.840256 0.392593 0.162189
O O1 0.327330 0.661301 0.918539
O O2 0.290110 0.986369 0.873581
O O3 0.250000 0.750000 0.000000
O O4 0.324024 0.000000 0.000000
O O5 0.393594 0.500000 0.500000
O O6 0.422461 0.390256 0.368838
O O7 0.352634 0.689058 0.378784
O O8 0.442515 0.196164 0.250000
O O9 0.500000 0.123990 0.135415
O O10 0.393447 0.024978 0.147138
O O11 0.833890 0.368111 0.250000
#
# Coordination Sequence:
#
# PCOD9475028 Si02
#       4
#    16  16  16  16
#     4  11  23  40  67  90 120 165 211 260 326 391
#     4  11  21  37  63  93 124 167 213 261 328 388
#     4   9  20  38  60  90 129 171 216 267 324 384
#     4  10  22  41  64  92 128 169 216 270 321 384
#
# _framework density 20.723158999999999
#
# number of rings (size 3 to 8) (size 9 to 14) (size 15 to 20)
#    0.000    1.750    2.500    1.500    0.000    2.500 
#    0.000    5.000    0.000    0.000    0.000    0.000 
#    0.000    0.000    0.000    0.000    0.000    0.000 
#
# Total GULP energy -178231.031873 kJ/mol
# GULP energy per Si atom -5569.719746 kJ/mol
# Density = 2.067599 g / cm^3
# Si number density = 20.723159 Si / 1000 Ang^3
#
#
#
# Elastic Constant Matrix: (Units=GPa)
#
#
# Indices 1 2 3 4 5 6 
#
# 1 86.5949 39.6686 38.7356 0.0000 0.0000 0.0000
# 2 39.6686 149.5007 70.8301 0.0000 0.0000 0.0000
# 3 38.7356 70.8301 103.8408 0.0000 0.0000 0.0000
# 4 0.0000 0.0000 0.0000 42.7683 0.0000 0.0000
# 5 0.0000 0.0000 0.0000 0.0000 28.7545 0.0000
# 6 0.0000 0.0000 0.0000 0.0000 0.0000 16.1503
#
#
#
# Elastic Compliance Matrix: (Units=1/GPa)
#
#
# Indices 1 2 3 4 5 6 
#
# 1 0.014202 -0.001859 -0.004030 0.000000 0.000000 0.000000
# 2 -0.001859 0.010126 -0.006213 0.000000 0.000000 0.000000
# 3 -0.004030 -0.006213 0.015371 0.000000 0.000000 0.000000
# 4 0.000000 0.000000 0.000000 0.023382 0.000000 0.000000
# 5 0.000000 0.000000 0.000000 0.000000 0.034777 0.000000
# 6 0.000000 0.000000 0.000000 0.000000 0.000000 0.061918
#
#
# Mechanical properties :
#
#
# Convention : Reuss Voigt Hill
#
# Bulk Modulus (GPa) = 64.53648 70.93389 67.73518
# Shear Modulus (GPa) = 26.43448 30.24810 28.34129
#
# Velocity S-wave (km/s) = 3.57543 3.82465 3.70214
# Velocity P-wave (km/s) = 6.94656 7.33536 7.14361
#
# Compressibility (1/GPa) = 0.01549511
#
# Stress axis : x y z
#
# Youngs Moduli (GPa) = 70.41121 98.75499 65.05549
#
# Poissons Ratio (x) = 0.18361 0.26215
# Poissons Ratio (y) = 0.13092 0.40422
# Poissons Ratio (z) = 0.28373 0.61361
#
# Static dielectric constant tensor:
#      x y z
#    x 1.835990 0.000000 0.000000 
#    y 0.000000 1.757980 0.000000 
#    z 0.000000 0.000000 1.789850 
# 
# From -- ./inp_files/57849.got.cif
#   From: 2010.05.17/outbox.cif.g08.bks.cpg/sg63_29_cif.got.tgz:57849.got - 2010.06.03 15:47:04.
