data_PCOD9475790
_publ_section_title
;
Structure prediction by ZEFSAII (Michael W. Deem and Ramdas Pophale) SiO2 
 PCOD9475790
Probable space group: C M C M
;
_chemical_formula_sum "Si O2"
_cell_formula_units_Z 52
_cell_length_a 7.591097
_cell_length_b 14.148769
_cell_length_c 21.344981
_cell_angle_alpha 90.000000
_cell_angle_beta 90.000000
_cell_angle_gamma 90.000000
_cell_volume 2292.550809
_symmetry_space_group_name_H-M "C M C M"
_symmetry_group_IT_number 63
_symmetry_cell_setting 'orthorhombic'
loop_
_space_group_symop_operation_xyz
x,y,z
-x,-y,1/2+z
x,-y,-z
-x,y,1/2-z
-x,-y,-z
x,y,1/2-z
-x,y,z
x,-y,1/2+z
1/2+x,1/2+y,z
1/2-x,1/2-y,1/2+z
1/2+x,1/2-y,-z
1/2-x,1/2+y,1/2-z
1/2-x,1/2-y,-z
1/2+x,1/2+y,1/2-z
1/2-x,1/2+y,z
1/2+x,1/2-y,1/2+z
loop_
_atom_site_type_symbol
_atom_site_label
_atom_site_fract_x
_atom_site_fract_y
_atom_site_fract_z
Si Si1 0.000000 0.875452 0.750000
Si Si2 0.786365 0.657349 0.820925
Si Si3 0.290434 0.708468 0.067664
Si Si4 0.797702 0.437881 0.654963
O O1 0.155274 0.882779 0.696254
O O2 0.721943 0.676601 0.750000
O O3 0.720501 0.722346 0.877203
O O4 0.751314 0.548069 0.837244
O O5 0.000000 0.668349 0.817927
O O6 0.500000 0.704643 0.071823
O O7 0.217196 0.605423 0.085508
O O8 0.250000 0.750000 0.000000
O O9 0.000000 0.427254 0.675935
#
# Coordination Sequence:
#
# PCOD9475790 Si02
#       4
#     4  16  16  16
#     4  12  22  40  68 104 132 160 212 270 332 378
#     4   9  20  39  67  94 127 168 213 270 333 379
#     4  11  24  43  65  94 134 178 221 269 324 389
#     4  11  23  43  67  97 132 169 213 267 327 387
#
# _framework density 22.68216
#
# number of rings (size 3 to 8) (size 9 to 14) (size 15 to 20)
#    0.000    1.538    3.077    1.385    2.154    1.231 
#    5.538    6.154    0.000    0.000    0.000    0.000 
#    0.000    0.000    0.000    0.000    0.000    0.000 
#
# Total GULP energy -144847.137059 kJ/mol
# GULP energy per Si atom -5571.043733 kJ/mol
# Density = 2.263053 g / cm^3
# Si number density = 22.682160 Si / 1000 Ang^3
#
#
#
# Elastic Constant Matrix: (Units=GPa)
#
#
# Indices 1 2 3 4 5 6 
#
# 1 108.6854 15.8209 11.9421 0.0000 0.0000 0.0000
# 2 15.8209 87.3209 64.2482 0.0000 0.0000 0.0000
# 3 11.9421 64.2482 137.8546 0.0000 0.0000 0.0000
# 4 0.0000 0.0000 0.0000 33.0203 0.0000 0.0000
# 5 0.0000 0.0000 0.0000 0.0000 52.6765 0.0000
# 6 0.0000 0.0000 0.0000 0.0000 0.0000 14.9551
#
#
#
# Elastic Compliance Matrix: (Units=1/GPa)
#
#
# Indices 1 2 3 4 5 6 
#
# 1 0.009450 -0.001689 -0.000031 0.000000 0.000000 0.000000
# 2 -0.001689 0.017730 -0.008117 0.000000 0.000000 0.000000
# 3 -0.000031 -0.008117 0.011040 0.000000 0.000000 0.000000
# 4 0.000000 0.000000 0.000000 0.030284 0.000000 0.000000
# 5 0.000000 0.000000 0.000000 0.000000 0.018984 0.000000
# 6 0.000000 0.000000 0.000000 0.000000 0.000000 0.066867
#
#
# Mechanical properties :
#
#
# Convention : Reuss Voigt Hill
#
# Bulk Modulus (GPa) = 53.92237 57.54259 55.73248
# Shear Modulus (GPa) = 27.74509 36.25370 31.99939
#
# Velocity S-wave (km/s) = 3.50124 4.00226 3.76010
# Velocity P-wave (km/s) = 6.33794 6.83971 6.59360
#
# Compressibility (1/GPa) = 0.01854518
#
# Stress axis : x y z
#
# Youngs Moduli (GPa) = 105.81792 56.40051 90.58171
#
# Poissons Ratio (x) = 0.09526 0.00285
# Poissons Ratio (y) = 0.17873 0.73526
# Poissons Ratio (z) = 0.00333 0.45781
#
# Static dielectric constant tensor:
#      x y z
#    x 1.839070 0.000000 0.000000 
#    y 0.000000 1.932590 0.000000 
#    z 0.000000 0.000000 1.802160 
# 
# From -- ./inp_files/50061.got.cif
#   From: 2010.05.17/outbox.cif.g08.bks.cpg/sg63_26_cif.got.tgz:50061.got - 2010.06.03 15:47:04.
