data_PCOD9475235
_publ_section_title
;
Structure prediction by ZEFSAII (Michael W. Deem and Ramdas Pophale) SiO2 
 PCOD9475235
Probable space group: C M C M
;
_chemical_formula_sum "Si O2"
_cell_formula_units_Z 112
_cell_length_a 23.146409
_cell_length_b 15.562392
_cell_length_c 14.608757
_cell_angle_alpha 90.000000
_cell_angle_beta 90.000000
_cell_angle_gamma 90.000000
_cell_volume 5262.271347
_symmetry_space_group_name_H-M "C M C M"
_symmetry_group_IT_number 63
_symmetry_cell_setting 'orthorhombic'
loop_
_space_group_symop_operation_xyz
x,y,z
-x,-y,1/2+z
x,-y,-z
-x,y,1/2-z
-x,-y,-z
x,y,1/2-z
-x,y,z
x,-y,1/2+z
1/2+x,1/2+y,z
1/2-x,1/2-y,1/2+z
1/2+x,1/2-y,-z
1/2-x,1/2+y,1/2-z
1/2-x,1/2-y,-z
1/2+x,1/2+y,1/2-z
1/2-x,1/2+y,z
1/2+x,1/2-y,1/2+z
loop_
_atom_site_type_symbol
_atom_site_label
_atom_site_fract_x
_atom_site_fract_y
_atom_site_fract_z
Si Si1 0.565734 0.990032 0.638915
Si Si2 0.435617 0.486815 0.391145
Si Si3 0.664012 0.651969 0.853383
Si Si4 0.263144 0.599481 0.019392
Si Si5 0.868340 0.150142 0.146400
Si Si6 0.657307 0.845939 0.641733
Si Si7 0.066855 0.317485 0.138307
O O1 0.564130 0.991787 0.750000
O O2 0.500000 0.975426 0.607681
O O3 0.584423 0.086121 0.610295
O O4 0.608592 0.914123 0.614283
O O5 0.435382 0.500000 0.500000
O O6 0.500000 0.459717 0.362760
O O7 0.385782 0.418739 0.367829
O O8 0.419077 0.579753 0.351554
O O9 0.686094 0.643324 0.750000
O O10 0.638118 0.747154 0.864258
O O11 0.716344 0.640347 0.924040
O O12 0.318883 0.610014 0.084262
O O13 0.210911 0.641354 0.074227
O O14 0.250700 0.500000 0.000000
O O15 0.847058 0.163640 0.250000
O O16 0.892399 0.239970 0.107703
O O17 0.672426 0.861571 0.750000
O O18 0.067512 0.314455 0.250000
O O19 0.000000 0.304183 0.110699
#
# Coordination Sequence:
#
# PCOD9475235 Si02
#       7
#    16  16  16  16  16  16  16
#     4   8  15  34  63  95 130 163 202 254 308 373
#     4  11  22  39  62  94 135 175 214 261 321 384
#     4  11  23  43  66  90 123 170 221 270 322 380
#     4  12  24  44  63  91 127 171 211 273 322 377
#     4  11  20  35  61  93 130 170 210 255 316 375
#     4  10  23  42  67  97 129 166 212 263 324 390
#     4   8  15  29  54  90 127 164 207 251 302 365
#
# _framework density 21.283587000000001
#
# number of rings (size 3 to 8) (size 9 to 14) (size 15 to 20)
#    0.000    1.857    2.857    2.571    0.000    2.857 
#    5.143    1.429    0.000    0.429    0.000    0.000 
#    0.000    0.571    0.000    0.000    0.000    0.000 
#
# Total GULP energy -312976.965362 kJ/mol
# GULP energy per Si atom -5588.874381 kJ/mol
# Density = 2.123514 g / cm^3
# Si number density = 21.283587 Si / 1000 Ang^3
#
#
#
# Elastic Constant Matrix: (Units=GPa)
#
#
# Indices 1 2 3 4 5 6 
#
# 1 71.6421 49.0576 26.7319 0.0000 0.0000 0.0000
# 2 49.0576 135.4004 23.2409 0.0000 0.0000 0.0000
# 3 26.7319 23.2409 102.1047 0.0000 0.0000 0.0000
# 4 0.0000 0.0000 0.0000 10.3199 0.0000 0.0000
# 5 0.0000 0.0000 0.0000 0.0000 14.9339 0.0000
# 6 0.0000 0.0000 0.0000 0.0000 0.0000 23.7725
#
#
#
# Elastic Compliance Matrix: (Units=1/GPa)
#
#
# Indices 1 2 3 4 5 6 
#
# 1 0.019821 -0.006547 -0.003699 0.000000 0.000000 0.000000
# 2 -0.006547 0.009848 -0.000528 0.000000 0.000000 0.000000
# 3 -0.003699 -0.000528 0.010882 0.000000 0.000000 0.000000
# 4 0.000000 0.000000 0.000000 0.096900 0.000000 0.000000
# 5 0.000000 0.000000 0.000000 0.000000 0.066962 0.000000
# 6 0.000000 0.000000 0.000000 0.000000 0.000000 0.042065
#
#
# Mechanical properties :
#
#
# Convention : Reuss Voigt Hill
#
# Bulk Modulus (GPa) = 52.61819 56.35645 54.48732
# Shear Modulus (GPa) = 18.22415 23.81305 21.01860
#
# Velocity S-wave (km/s) = 2.92936 3.34854 3.14594
# Velocity P-wave (km/s) = 6.01811 6.44101 6.23315
#
# Compressibility (1/GPa) = 0.01900483
#
# Stress axis : x y z
#
# Youngs Moduli (GPa) = 50.45034 101.54331 91.89087
#
# Poissons Ratio (x) = 0.66477 0.33993
# Poissons Ratio (y) = 0.33028 0.04848
# Poissons Ratio (z) = 0.18663 0.05358
#
# Static dielectric constant tensor:
#      x y z
#    x 1.735100 0.000000 0.000000 
#    y 0.000000 1.746340 0.000000 
#    z 0.000000 0.000000 1.830760 
# 
# From -- ./inp_files/36933.got.cif
#   From: 2010.05.17/outbox.cif.g08.bks.cpg/sg63_19_cif.got.tgz:36933.got - 2010.06.03 15:47:04.
