data_PCOD9475388
_publ_section_title
;
Structure prediction by ZEFSAII (Michael W. Deem and Ramdas Pophale) SiO2 
 PCOD9475388
Probable space group: C M C M
;
_chemical_formula_sum "Si O2"
_cell_formula_units_Z 44
_cell_length_a 12.848937
_cell_length_b 19.016465
_cell_length_c 9.968292
_cell_angle_alpha 90.000000
_cell_angle_beta 90.000000
_cell_angle_gamma 90.000000
_cell_volume 2435.666032
_symmetry_space_group_name_H-M "C M C M"
_symmetry_group_IT_number 63
_symmetry_cell_setting 'orthorhombic'
loop_
_space_group_symop_operation_xyz
x,y,z
-x,-y,1/2+z
x,-y,-z
-x,y,1/2-z
-x,-y,-z
x,y,1/2-z
-x,y,z
x,-y,1/2+z
1/2+x,1/2+y,z
1/2-x,1/2-y,1/2+z
1/2+x,1/2-y,-z
1/2-x,1/2+y,1/2-z
1/2-x,1/2-y,-z
1/2+x,1/2+y,1/2-z
1/2-x,1/2+y,z
1/2+x,1/2-y,1/2+z
loop_
_atom_site_type_symbol
_atom_site_label
_atom_site_fract_x
_atom_site_fract_y
_atom_site_fract_z
Si Si1 0.000000 0.245360 0.489904
Si Si2 0.318034 0.000000 0.500000
Si Si3 0.723199 0.423560 0.250000
Si Si4 0.386997 0.796236 0.250000
Si Si5 0.000000 0.145023 0.750000
Si Si6 0.000000 0.401645 0.906070
O O1 0.097943 0.248671 0.384263
O O2 0.000000 0.189612 0.609778
O O3 0.000000 0.319975 0.563392
O O4 0.251120 0.029141 0.621992
O O5 0.396694 0.062957 0.463729
O O6 0.795134 0.352271 0.250000
O O7 0.604721 0.399853 0.250000
O O8 0.500000 0.837320 0.250000
O O9 0.000000 0.416607 0.750000
#
# Coordination Sequence:
#
# PCOD9475388 Si02
#       6
#     8   8   8   8   4   8
#     4   9  19  38  60  93 119 147 196 256 311 357
#     4  11  22  37  62  94 126 153 195 264 314 362
#     4  12  24  41  60  90 126 169 202 252 301 358
#     4   8  18  38  61  88 114 145 192 262 325 336
#     4  12  28  40  56  86 130 182 214 222 276 390
#     4  11  18  31  66 102 119 135 194 270 339 354
#
# _framework density 18.064875000000001
#
# number of rings (size 3 to 8) (size 9 to 14) (size 15 to 20)
#    1.091    0.364    6.364    0.000    2.545    2.182 
#    0.000    3.636    0.000    0.000    0.000    0.000 
#    0.000    0.000    0.000    0.000    0.000    0.000 
#
# Total GULP energy -122479.630657 kJ/mol
# GULP energy per Si atom -5567.255939 kJ/mol
# Density = 1.802376 g / cm^3
# Si number density = 18.064875 Si / 1000 Ang^3
#
#
#
# Elastic Constant Matrix: (Units=GPa)
#
#
# Indices 1 2 3 4 5 6 
#
# 1 137.3781 58.4697 74.3114 0.0000 0.0000 0.0000
# 2 58.4697 69.6356 59.3636 0.0000 0.0000 0.0000
# 3 74.3114 59.3636 155.1355 0.0000 0.0000 0.0000
# 4 0.0000 0.0000 0.0000 16.3595 0.0000 0.0000
# 5 0.0000 0.0000 0.0000 0.0000 -8.5693 0.0000
# 6 0.0000 0.0000 0.0000 0.0000 0.0000 17.3875
#
#
#
# Elastic Compliance Matrix: (Units=1/GPa)
#
#
# Indices 1 2 3 4 5 6 
#
# 1 0.012113 -0.007754 -0.002835 0.000000 0.000000 0.000000
# 2 -0.007754 0.026276 -0.006341 0.000000 0.000000 0.000000
# 3 -0.002835 -0.006341 0.010230 0.000000 0.000000 0.000000
# 4 0.000000 0.000000 0.000000 0.061126 0.000000 0.000000
# 5 0.000000 0.000000 0.000000 0.000000 -0.116696 0.000000
# 6 0.000000 0.000000 0.000000 0.000000 0.000000 0.057512
#
#
# Mechanical properties :
#
#
# Convention : Reuss Voigt Hill
#
# Bulk Modulus (GPa) = 67.74886 82.93761 75.34323
# Shear Modulus (GPa) = 55.96499 16.36919 36.16709
#
# Velocity S-wave (km/s) = 5.57201 3.01347 4.47930
# Velocity P-wave (km/s) = 8.88712 7.62356 8.27948
#
# Compressibility (1/GPa) = 0.01476040
#
# Stress axis : x y z
#
# Youngs Moduli (GPa) = 82.55718 38.05727 97.74801
#
# Poissons Ratio (x) = 0.29508 0.27713
# Poissons Ratio (y) = 0.64011 0.61979
# Poissons Ratio (z) = 0.23407 0.24131
#
# Static dielectric constant tensor:
#      x y z
#    x 1.625790 0.000000 0.000000 
#    y 0.000000 1.587530 0.000000 
#    z 0.000000 0.000000 1.674860 
# 
# From -- ./inp_files/3698.got.cif
#   From: 2010.05.17/outbox.cif.g08.bks.cpg/sg63_2_cif.got.tgz:3698.got - 2010.06.03 15:47:04.
