data_PCOD9475575
_publ_section_title
;
Structure prediction by ZEFSAII (Michael W. Deem and Ramdas Pophale) SiO2 
 PCOD9475575
Probable space group: C M C M
;
_chemical_formula_sum "Si O2"
_cell_formula_units_Z 96
_cell_length_a 8.337502
_cell_length_b 20.588807
_cell_length_c 28.567213
_cell_angle_alpha 90.000000
_cell_angle_beta 90.000000
_cell_angle_gamma 90.000000
_cell_volume 4903.825488
_symmetry_space_group_name_H-M "C M C M"
_symmetry_group_IT_number 63
_symmetry_cell_setting 'orthorhombic'
loop_
_space_group_symop_operation_xyz
x,y,z
-x,-y,1/2+z
x,-y,-z
-x,y,1/2-z
-x,-y,-z
x,y,1/2-z
-x,y,z
x,-y,1/2+z
1/2+x,1/2+y,z
1/2-x,1/2-y,1/2+z
1/2+x,1/2-y,-z
1/2-x,1/2+y,1/2-z
1/2-x,1/2-y,-z
1/2+x,1/2+y,1/2-z
1/2-x,1/2+y,z
1/2+x,1/2-y,1/2+z
loop_
_atom_site_type_symbol
_atom_site_label
_atom_site_fract_x
_atom_site_fract_y
_atom_site_fract_z
Si Si1 0.189329 0.231027 0.395127
Si Si2 0.690806 0.488078 0.400587
Si Si3 0.314983 0.113636 0.452349
Si Si4 0.693742 0.953188 0.302726
Si Si5 0.195206 0.301889 0.198014
Si Si6 0.312000 0.646532 0.947583
O O1 0.279847 0.168207 0.413642
O O2 0.248347 0.257763 0.344982
O O3 0.217039 0.290180 0.431194
O O4 0.000000 0.216499 0.392184
O O5 0.500000 0.492737 0.406868
O O6 0.771294 0.544093 0.430988
O O7 0.734221 0.492294 0.345897
O O8 0.742743 0.417113 0.418993
O O9 0.500000 0.115181 0.466412
O O10 0.212068 0.130917 0.498004
O O11 0.739800 0.973725 0.250000
O O12 0.500000 0.955581 0.305570
O O13 0.742889 0.877307 0.308084
O O14 0.246107 0.280756 0.250000
O O15 0.000000 0.301782 0.197230
O O16 0.500000 0.657675 0.937863
#
# Coordination Sequence:
#
# PCOD9475575 Si02
#       6
#    16  16  16  16  16  16
#     4  11  21  37  62  88 118 153 193 236 287 345
#     4  11  23  39  60  87 119 152 191 240 291 344
#     4  12  26  41  58  81 116 156 197 241 292 348
#     4   9  17  33  59  89 118 149 190 236 281 336
#     4   8  15  30  56  88 116 145 185 231 278 333
#     4  11  23  40  61  86 116 149 193 243 290 343
#
# _framework density 19.576553000000001
#
# number of rings (size 3 to 8) (size 9 to 14) (size 15 to 20)
#    0.000    1.667    1.667    5.000    0.000    4.333 
#    0.000    0.833    0.000    5.000    0.000    0.000 
#    0.000    0.000    0.000    0.000    0.000    0.000 
#
# Total GULP energy -268217.130082 kJ/mol
# GULP energy per Si atom -5587.856877 kJ/mol
# Density = 1.953200 g / cm^3
# Si number density = 19.576553 Si / 1000 Ang^3
#
#
#
# Elastic Constant Matrix: (Units=GPa)
#
#
# Indices 1 2 3 4 5 6 
#
# 1 21.6865 7.5808 -11.8913 0.0000 0.0000 0.0000
# 2 7.5808 21.3354 -23.3777 0.0000 0.0000 0.0000
# 3 -11.8913 -23.3777 70.1812 0.0000 0.0000 0.0000
# 4 0.0000 0.0000 0.0000 -5.1253 0.0000 0.0000
# 5 0.0000 0.0000 0.0000 0.0000 18.9189 0.0000
# 6 0.0000 0.0000 0.0000 0.0000 0.0000 21.9224
#
#
#
# Elastic Compliance Matrix: (Units=1/GPa)
#
#
# Indices 1 2 3 4 5 6 
#
# 1 0.053463 -0.014284 0.004301 0.000000 0.000000 0.000000
# 2 -0.014284 0.077627 0.023438 0.000000 0.000000 0.000000
# 3 0.004301 0.023438 0.022785 0.000000 0.000000 0.000000
# 4 0.000000 0.000000 0.000000 -0.195111 0.000000 0.000000
# 5 0.000000 0.000000 0.000000 0.000000 0.052857 0.000000
# 6 0.000000 0.000000 0.000000 0.000000 0.000000 0.045615
#
#
# Mechanical properties :
#
#
# Convention : Reuss Voigt Hill
#
# Bulk Modulus (GPa) = 5.53151 6.42520 5.97836
# Shear Modulus (GPa) = 55.19501 16.53596 35.86549
#
# Velocity S-wave (km/s) = 5.31560 2.90949 4.28490
# Velocity P-wave (km/s) = 6.36443 3.81787 5.24795
#
# Compressibility (1/GPa) = 0.18078256
#
# Stress axis : x y z
#
# Youngs Moduli (GPa) = 18.70460 12.88217 43.88918
#
# Poissons Ratio (x) = 0.18401 -0.18875
# Poissons Ratio (y) = 0.26717 -1.02866
# Poissons Ratio (z) = -0.08044 -0.30193
#
# Static dielectric constant tensor:
#      x y z
#    x 1.662400 0.000000 0.000000 
#    y 0.000000 1.652750 0.000000 
#    z 0.000000 0.000000 1.694940 
# 
# From -- ./inp_files/66870.got.cif
#   From: 2010.05.17/outbox.cif.g08.bks.cpg/sg63_34_cif.got.tgz:66870.got - 2010.06.03 15:47:04.
