data_PCOD9475964
_publ_section_title
;
Structure prediction by ZEFSAII (Michael W. Deem and Ramdas Pophale) SiO2 
 PCOD9475964
Probable space group: C M C M
;
_chemical_formula_sum "Si O2"
_cell_formula_units_Z 112
_cell_length_a 7.734171
_cell_length_b 28.495677
_cell_length_c 30.479618
_cell_angle_alpha 90.000000
_cell_angle_beta 90.000000
_cell_angle_gamma 90.000000
_cell_volume 6717.416382
_symmetry_space_group_name_H-M "C M C M"
_symmetry_group_IT_number 63
_symmetry_cell_setting 'orthorhombic'
loop_
_space_group_symop_operation_xyz
x,y,z
-x,-y,1/2+z
x,-y,-z
-x,y,1/2-z
-x,-y,-z
x,y,1/2-z
-x,y,z
x,-y,1/2+z
1/2+x,1/2+y,z
1/2-x,1/2-y,1/2+z
1/2+x,1/2-y,-z
1/2-x,1/2+y,1/2-z
1/2-x,1/2-y,-z
1/2+x,1/2+y,1/2-z
1/2-x,1/2+y,z
1/2+x,1/2-y,1/2+z
loop_
_atom_site_type_symbol
_atom_site_label
_atom_site_fract_x
_atom_site_fract_y
_atom_site_fract_z
Si Si1 0.211141 0.519749 0.568302
Si Si2 0.294619 0.321282 0.250000
Si Si3 0.292219 0.178001 0.020187
Si Si4 0.788970 0.572452 0.479517
Si Si5 0.791908 0.729825 0.932179
Si Si6 0.794343 0.071860 0.750000
Si Si7 0.706946 0.178919 0.654693
Si Si8 0.793390 0.571277 0.654753
O O1 0.267652 0.467418 0.554854
O O2 0.259421 0.553846 0.527947
O O3 0.272864 0.540231 0.614466
O O4 0.000000 0.519018 0.569191
O O5 0.500000 0.323994 0.250000
O O6 0.221126 0.374690 0.250000
O O7 0.242403 0.300667 0.296917
O O8 0.500000 0.175389 0.016861
O O9 0.227994 0.125344 0.028069
O O10 0.250801 0.216397 0.057039
O O11 0.227734 0.199194 0.973754
O O12 0.000000 0.572780 0.478481
O O13 0.727093 0.709269 0.886163
O O14 0.000000 0.726045 0.931997
O O15 0.740736 0.051168 0.796738
O O16 0.000000 0.074273 0.750000
O O17 0.500000 0.176113 0.650367
O O18 0.774705 0.125070 0.652857
O O19 0.000000 0.574282 0.649641
#
# Coordination Sequence:
#
# PCOD9475964 Si02
#       8
#    16   8  16  16  16   8  16  16
#     4   8  13  21  37  61  83 102 128 161 195 229
#     4   9  17  27  39  57  80 103 128 159 196 237
#     4   9  16  26  40  58  81 107 134 164 195 227
#     4   8  13  22  37  59  84 105 127 160 198 230
#     4   9  17  27  39  57  80 107 137 163 190 228
#     4   9  17  27  37  53  80 109 130 153 192 237
#     4   9  16  26  40  57  79 106 133 160 191 230
#     4   9  15  24  40  60  79 101 131 163 191 225
#
# _framework density 16.673076999999999
#
# number of rings (size 3 to 8) (size 9 to 14) (size 15 to 20)
#    0.000    3.286    0.000    2.143    0.000    5.714 
#    0.000    0.000    0.000    3.429    0.000    3.000 
#    0.000    2.286    0.000    0.000    0.000    0.000 
#
# Total GULP energy -311809.660036 kJ/mol
# GULP energy per Si atom -5568.029643 kJ/mol
# Density = 1.663513 g / cm^3
# Si number density = 16.673077 Si / 1000 Ang^3
#
#
#
# Elastic Constant Matrix: (Units=GPa)
#
#
# Indices 1 2 3 4 5 6 
#
# 1 24.4399 5.6025 4.1278 0.0000 0.0000 0.0000
# 2 5.6025 117.1828 80.7329 0.0000 0.0000 0.0000
# 3 4.1278 80.7329 164.4328 0.0000 0.0000 0.0000
# 4 0.0000 0.0000 0.0000 20.7666 0.0000 0.0000
# 5 0.0000 0.0000 0.0000 0.0000 4.4949 0.0000
# 6 0.0000 0.0000 0.0000 0.0000 0.0000 9.9729
#
#
#
# Elastic Compliance Matrix: (Units=1/GPa)
#
#
# Indices 1 2 3 4 5 6 
#
# 1 0.041371 -0.001908 -0.000102 0.000000 0.000000 0.000000
# 2 -0.001908 0.012984 -0.006327 0.000000 0.000000 0.000000
# 3 -0.000102 -0.006327 0.009190 0.000000 0.000000 0.000000
# 4 0.000000 0.000000 0.000000 0.048154 0.000000 0.000000
# 5 0.000000 0.000000 0.000000 0.000000 0.222474 0.000000
# 6 0.000000 0.000000 0.000000 0.000000 0.000000 0.100272
#
#
# Mechanical properties :
#
#
# Convention : Reuss Voigt Hill
#
# Bulk Modulus (GPa) = 21.33453 54.10910 37.72181
# Shear Modulus (GPa) = 10.71254 21.41970 16.06612
#
# Velocity S-wave (km/s) = 2.53752 3.58814 3.10755
# Velocity P-wave (km/s) = 4.62698 7.04910 5.96233
#
# Compressibility (1/GPa) = 0.04687237
#
# Stress axis : x y z
#
# Youngs Moduli (GPa) = 24.17143 77.01921 108.80894
#
# Poissons Ratio (x) = 0.14693 0.01109
# Poissons Ratio (y) = 0.04611 0.68842
# Poissons Ratio (z) = 0.00246 0.48729
#
# Static dielectric constant tensor:
#      x y z
#    x 1.617780 0.000000 0.000000 
#    y 0.000000 1.556060 0.000000 
#    z 0.000000 0.000000 1.579840 
# 
# From -- ./inp_files/72266.got.cif
#   From: 2010.05.17/outbox.cif.g08.bks.cpg/sg63_37_cif.got.tgz:72266.got - 2010.06.03 15:47:04.
