data_PCOD9475750
_publ_section_title
;
Structure prediction by ZEFSAII (Michael W. Deem and Ramdas Pophale) SiO2 
 PCOD9475750
Probable space group: C M C M
;
_chemical_formula_sum "Si O2"
_cell_formula_units_Z 88
_cell_length_a 20.364335
_cell_length_b 25.202363
_cell_length_c 8.313723
_cell_angle_alpha 90.000000
_cell_angle_beta 90.000000
_cell_angle_gamma 90.000000
_cell_volume 4266.846759
_symmetry_space_group_name_H-M "C M C M"
_symmetry_group_IT_number 63
_symmetry_cell_setting 'orthorhombic'
loop_
_space_group_symop_operation_xyz
x,y,z
-x,-y,1/2+z
x,-y,-z
-x,y,1/2-z
-x,-y,-z
x,y,1/2-z
-x,y,z
x,-y,1/2+z
1/2+x,1/2+y,z
1/2-x,1/2-y,1/2+z
1/2+x,1/2-y,-z
1/2-x,1/2+y,1/2-z
1/2-x,1/2-y,-z
1/2+x,1/2+y,1/2-z
1/2-x,1/2+y,z
1/2+x,1/2-y,1/2+z
loop_
_atom_site_type_symbol
_atom_site_label
_atom_site_fract_x
_atom_site_fract_y
_atom_site_fract_z
Si Si1 0.124791 0.132042 0.056432
Si Si2 0.739592 0.556489 0.056638
Si Si3 0.825088 0.244498 0.557257
Si Si4 0.429413 0.828800 0.553645
Si Si5 0.000000 0.937899 0.441814
Si Si6 0.890479 0.556450 0.443765
O O1 0.122218 0.132762 0.250000
O O2 0.191241 0.102193 0.001941
O O3 0.135420 0.191944 0.996775
O O4 0.063340 0.096630 0.997979
O O5 0.741304 0.557547 0.250000
O O6 0.814553 0.560662 0.999771
O O7 0.712836 0.500000 0.000000
O O8 0.823651 0.244994 0.750000
O O9 0.750000 0.250000 0.500000
O O10 0.867855 0.294604 0.498776
O O11 0.427425 0.828875 0.750000
O O12 0.500000 0.805978 0.505136
O O13 0.424764 0.889858 0.501926
O O14 0.000000 0.939935 0.250000
O O15 0.000000 0.000000 0.500000
O O16 0.917222 0.500000 0.500000
O O17 0.891098 0.555956 0.250000
#
# Coordination Sequence:
#
# PCOD9475750 Si02
#       6
#    16  16  16  16   8  16
#     4  11  23  40  62  89 122 161 208 263 322 381
#     4   9  18  32  53  80 112 148 189 239 296 356
#     4  11  23  40  64  91 121 160 209 263 319 384
#     4   9  19  36  58  82 112 153 198 241 293 361
#     4  12  26  44  64  92 130 174 221 268 325 394
#     4   9  17  32  54  81 112 147 187 234 287 349
#
# _framework density 20.624127999999999
#
# number of rings (size 3 to 8) (size 9 to 14) (size 15 to 20)
#    0.000    2.000    0.000    3.545    1.273    6.182 
#    0.000    5.455    0.000    2.182    0.000    0.000 
#    0.000    0.000    0.000    0.000    0.000    0.000 
#
# Total GULP energy -245571.411498 kJ/mol
# GULP energy per Si atom -5581.168443 kJ/mol
# Density = 2.057719 g / cm^3
# Si number density = 20.624128 Si / 1000 Ang^3
#
#
#
# Elastic Constant Matrix: (Units=GPa)
#
#
# Indices 1 2 3 4 5 6 
#
# 1 132.8470 76.8043 23.6972 0.0000 0.0000 0.0000
# 2 76.8043 154.5432 24.3166 0.0000 0.0000 0.0000
# 3 23.6972 24.3166 40.9258 0.0000 0.0000 0.0000
# 4 0.0000 0.0000 0.0000 32.9514 0.0000 0.0000
# 5 0.0000 0.0000 0.0000 0.0000 20.5524 0.0000
# 6 0.0000 0.0000 0.0000 0.0000 0.0000 32.8999
#
#
#
# Elastic Compliance Matrix: (Units=1/GPa)
#
#
# Indices 1 2 3 4 5 6 
#
# 1 0.010984 -0.004918 -0.003438 0.000000 0.000000 0.000000
# 2 -0.004918 0.009340 -0.002702 0.000000 0.000000 0.000000
# 3 -0.003438 -0.002702 0.028031 0.000000 0.000000 0.000000
# 4 0.000000 0.000000 0.000000 0.030348 0.000000 0.000000
# 5 0.000000 0.000000 0.000000 0.000000 0.048656 0.000000
# 6 0.000000 0.000000 0.000000 0.000000 0.000000 0.030395
#
#
# Mechanical properties :
#
#
# Convention : Reuss Voigt Hill
#
# Bulk Modulus (GPa) = 38.11132 64.21692 51.16412
# Shear Modulus (GPa) = 26.50903 30.84726 28.67815
#
# Velocity S-wave (km/s) = 3.58905 3.87161 3.73301
# Velocity P-wave (km/s) = 5.97446 7.15473 6.59107
#
# Compressibility (1/GPa) = 0.02623892
#
# Stress axis : x y z
#
# Youngs Moduli (GPa) = 91.04232 107.06844 35.67541
#
# Poissons Ratio (x) = 0.52654 0.12265
# Poissons Ratio (y) = 0.44773 0.09639
# Poissons Ratio (z) = 0.31301 0.28928
#
# Static dielectric constant tensor:
#      x y z
#    x 1.744780 0.000000 0.000000 
#    y 0.000000 1.755640 0.000000 
#    z 0.000000 0.000000 1.719050 
# 
# From -- ./inp_files/8227.got.cif
#   From: 2010.05.17/outbox.cif.g08.bks.cpg/sg63_5_cif.got.tgz:8227.got - 2010.06.03 15:47:04.
