data_PCOD9475279
_publ_section_title
;
Structure prediction by ZEFSAII (Michael W. Deem and Ramdas Pophale) SiO2 
 PCOD9475279
Probable space group: C M C M
;
_chemical_formula_sum "Si O2"
_cell_formula_units_Z 68
_cell_length_a 14.235563
_cell_length_b 8.701394
_cell_length_c 26.052340
_cell_angle_alpha 90.000000
_cell_angle_beta 90.000000
_cell_angle_gamma 90.000000
_cell_volume 3227.083620
_symmetry_space_group_name_H-M "C M C M"
_symmetry_group_IT_number 63
_symmetry_cell_setting 'orthorhombic'
loop_
_space_group_symop_operation_xyz
x,y,z
-x,-y,1/2+z
x,-y,-z
-x,y,1/2-z
-x,-y,-z
x,y,1/2-z
-x,y,z
x,-y,1/2+z
1/2+x,1/2+y,z
1/2-x,1/2-y,1/2+z
1/2+x,1/2-y,-z
1/2-x,1/2+y,1/2-z
1/2-x,1/2-y,-z
1/2+x,1/2+y,1/2-z
1/2-x,1/2+y,z
1/2+x,1/2-y,1/2+z
loop_
_atom_site_type_symbol
_atom_site_label
_atom_site_fract_x
_atom_site_fract_y
_atom_site_fract_z
Si Si1 0.823810 0.328606 0.693177
Si Si2 0.500000 0.201739 0.451180
Si Si3 0.500000 0.713500 0.750000
Si Si4 0.000000 0.659031 0.927428
Si Si5 0.812599 0.136969 0.535970
Si Si6 0.681897 0.873974 0.371844
O O1 0.786646 0.373961 0.750000
O O2 0.916407 0.230077 0.705943
O O3 0.745669 0.236634 0.662275
O O4 0.848805 0.482306 0.662444
O O5 0.500000 0.207722 0.513559
O O6 0.401350 0.280517 0.437827
O O7 0.500000 0.027203 0.431801
O O8 0.907952 0.707631 0.896719
O O9 0.750000 0.250000 0.500000
O O10 0.744222 0.072554 0.579809
O O11 0.847067 0.000000 0.500000
#
# Coordination Sequence:
#
# PCOD9475279 Si02
#       6
#    16   8   4   8  16  16
#     4  10  23  44  68  97 124 166 217 279 330 396
#     4  11  23  42  61  95 141 182 218 275 313 389
#     4   8  22  44  74  86 132 154 216 268 352 378
#     4  11  23  38  67  98 129 179 228 260 325 389
#     4  12  24  41  64  98 139 179 220 274 326 395
#     4  12  23  41  70  95 131 172 223 264 334 394
#
# _framework density 21.071657999999999
#
# number of rings (size 3 to 8) (size 9 to 14) (size 15 to 20)
#    0.706    0.235    2.353    6.000    0.000    0.941 
#    0.000    1.176    0.000    0.000    0.000    0.000 
#    0.000    0.000    0.000    0.000    0.000    0.000 
#
# Total GULP energy -189473.604108 kJ/mol
# GULP energy per Si atom -5572.753062 kJ/mol
# Density = 2.102370 g / cm^3
# Si number density = 21.071658 Si / 1000 Ang^3
#
#
#
# Elastic Constant Matrix: (Units=GPa)
#
#
# Indices 1 2 3 4 5 6 
#
# 1 128.6650 -7.2739 22.3534 0.0000 0.0000 0.0000
# 2 -7.2739 18.1397 -5.1117 0.0000 0.0000 0.0000
# 3 22.3534 -5.1117 103.1593 0.0000 0.0000 0.0000
# 4 0.0000 0.0000 0.0000 28.6270 0.0000 0.0000
# 5 0.0000 0.0000 0.0000 0.0000 57.9406 0.0000
# 6 0.0000 0.0000 0.0000 0.0000 0.0000 16.9540
#
#
#
# Elastic Compliance Matrix: (Units=1/GPa)
#
#
# Indices 1 2 3 4 5 6 
#
# 1 0.008217 0.002833 -0.001640 0.000000 0.000000 0.000000
# 2 0.002833 0.056885 0.002205 0.000000 0.000000 0.000000
# 3 -0.001640 0.002205 0.010158 0.000000 0.000000 0.000000
# 4 0.000000 0.000000 0.000000 0.034932 0.000000 0.000000
# 5 0.000000 0.000000 0.000000 0.000000 0.017259 0.000000
# 6 0.000000 0.000000 0.000000 0.000000 0.000000 0.058983
#
#
# Mechanical properties :
#
#
# Convention : Reuss Voigt Hill
#
# Bulk Modulus (GPa) = 12.18684 29.98882 21.08783
# Shear Modulus (GPa) = 24.15556 36.70407 30.42982
#
# Velocity S-wave (km/s) = 3.38946 4.17810 3.80427
# Velocity P-wave (km/s) = 4.59499 6.12683 5.41535
#
# Compressibility (1/GPa) = 0.08205573
#
# Stress axis : x y z
#
# Youngs Moduli (GPa) = 121.69546 17.57935 98.44054
#
# Poissons Ratio (x) = -0.04980 0.16146
# Poissons Ratio (y) = -0.34475 -0.21705
# Poissons Ratio (z) = 0.19961 -0.03876
#
# Static dielectric constant tensor:
#      x y z
#    x 1.754590 0.000000 0.000000 
#    y 0.000000 1.758260 0.000000 
#    z 0.000000 0.000000 1.760020 
# 
# From -- ./inp_files/68994.got.cif
#   From: 2010.05.17/outbox.cif.g08.bks.cpg/sg63_35_cif.got.tgz:68994.got - 2010.06.03 15:47:04.
