data_PCOD9475912
_publ_section_title
;
Structure prediction by ZEFSAII (Michael W. Deem and Ramdas Pophale) SiO2 
 PCOD9475912
Probable space group: C M C M
;
_chemical_formula_sum "Si O2"
_cell_formula_units_Z 84
_cell_length_a 7.613043
_cell_length_b 25.899837
_cell_length_c 20.491758
_cell_angle_alpha 90.000000
_cell_angle_beta 90.000000
_cell_angle_gamma 90.000000
_cell_volume 4040.494613
_symmetry_space_group_name_H-M "C M C M"
_symmetry_group_IT_number 63
_symmetry_cell_setting 'orthorhombic'
loop_
_space_group_symop_operation_xyz
x,y,z
-x,-y,1/2+z
x,-y,-z
-x,y,1/2-z
-x,-y,-z
x,y,1/2-z
-x,y,z
x,-y,1/2+z
1/2+x,1/2+y,z
1/2-x,1/2-y,1/2+z
1/2+x,1/2-y,-z
1/2-x,1/2+y,1/2-z
1/2-x,1/2-y,-z
1/2+x,1/2+y,1/2-z
1/2-x,1/2+y,z
1/2+x,1/2-y,1/2+z
loop_
_atom_site_type_symbol
_atom_site_label
_atom_site_fract_x
_atom_site_fract_y
_atom_site_fract_z
Si Si1 0.787133 0.587547 0.508256
Si Si2 0.287501 0.051398 0.366791
Si Si3 0.285780 0.834169 0.678634
Si Si4 0.710191 0.199137 0.459624
Si Si5 0.193543 0.061164 0.845604
Si Si6 0.000000 0.406752 0.250000
O O1 0.737182 0.555967 0.443200
O O2 0.729665 0.646559 0.494582
O O3 0.717377 0.568541 0.576854
O O4 0.000000 0.585667 0.511153
O O5 0.500000 0.047239 0.363678
O O6 0.239058 0.105827 0.334044
O O7 0.213121 0.000348 0.334262
O O8 0.224243 0.817320 0.750000
O O9 0.500000 0.832479 0.679265
O O10 0.225063 0.802422 0.615315
O O11 0.500000 0.194683 0.455968
O O12 0.750000 0.250000 0.500000
O O13 0.346097 0.089329 0.806631
O O14 0.000000 0.078780 0.827034
#
# Coordination Sequence:
#
# PCOD9475912 Si02
#       6
#    16  16  16  16  16   4
#     4   9  18  36  57  81 113 153 192 239 296 346
#     4   9  17  31  56  85 114 150 186 231 293 349
#     4   8  15  28  52  81 111 147 186 225 287 356
#     4   9  18  33  57  84 109 146 191 238 295 352
#     4  12  24  37  59  84 112 157 204 240 288 345
#     4  12  26  44  54  74 120 164 196 248 288 334
#
# _framework density 20.789535000000001
#
# number of rings (size 3 to 8) (size 9 to 14) (size 15 to 20)
#    0.000    2.476    1.905    3.143    1.333    3.810 
#    0.000    2.857    2.095    1.714    0.000    0.000 
#    0.000    0.000    0.000    0.000    0.000    0.190 
#
# Total GULP energy -233997.371358 kJ/mol
# GULP energy per Si atom -5571.365985 kJ/mol
# Density = 2.074222 g / cm^3
# Si number density = 20.789535 Si / 1000 Ang^3
#
#
#
# Elastic Constant Matrix: (Units=GPa)
#
#
# Indices 1 2 3 4 5 6 
#
# 1 94.1697 -2.0362 17.6903 0.0000 0.0000 0.0000
# 2 -2.0362 49.4786 33.8700 0.0000 0.0000 0.0000
# 3 17.6903 33.8700 134.9133 0.0000 0.0000 0.0000
# 4 0.0000 0.0000 0.0000 -2.9278 0.0000 0.0000
# 5 0.0000 0.0000 0.0000 0.0000 -24.0063 0.0000
# 6 0.0000 0.0000 0.0000 0.0000 0.0000 14.6329
#
#
#
# Elastic Compliance Matrix: (Units=1/GPa)
#
#
# Indices 1 2 3 4 5 6 
#
# 1 0.011010 0.001740 -0.001881 0.000000 0.000000 0.000000
# 2 0.001740 0.024680 -0.006424 0.000000 0.000000 0.000000
# 3 -0.001881 -0.006424 0.009272 0.000000 0.000000 0.000000
# 4 0.000000 0.000000 0.000000 -0.341549 0.000000 0.000000
# 5 0.000000 0.000000 0.000000 0.000000 -0.041656 0.000000
# 6 0.000000 0.000000 0.000000 0.000000 0.000000 0.068339
#
#
# Mechanical properties :
#
#
# Convention : Reuss Voigt Hill
#
# Bulk Modulus (GPa) = 31.41397 41.95664 36.68531
# Shear Modulus (GPa) = -20.31162 12.80892 -3.75135
#
# Velocity S-wave (km/s) = -3.12911 2.48488 -1.34475
# Velocity P-wave (km/s) = 1.44505 5.33463 3.90810
#
# Compressibility (1/GPa) = 0.03183297
#
# Stress axis : x y z
#
# Youngs Moduli (GPa) = 90.82611 40.51872 107.85692
#
# Poissons Ratio (x) = -0.07052 0.20284
# Poissons Ratio (y) = -0.15808 0.69289
# Poissons Ratio (z) = 0.17081 0.26030
#
# Static dielectric constant tensor:
#      x y z
#    x 1.780210 0.000000 0.000000 
#    y 0.000000 1.735640 0.000000 
#    z 0.000000 0.000000 1.780810 
# 
# From -- ./inp_files/51228.got.cif
#   From: 2010.05.17/outbox.cif.g08.bks.cpg/sg63_26_cif.got.tgz:51228.got - 2010.06.03 15:47:04.
