data_PCOD9475348
_publ_section_title
;
Structure prediction by ZEFSAII (Michael W. Deem and Ramdas Pophale) SiO2 
 PCOD9475348
Probable space group: C M C M
;
_chemical_formula_sum "Si O2"
_cell_formula_units_Z 48
_cell_length_a 16.097625
_cell_length_b 8.717185
_cell_length_c 15.049926
_cell_angle_alpha 90.000000
_cell_angle_beta 90.000000
_cell_angle_gamma 90.000000
_cell_volume 2111.895542
_symmetry_space_group_name_H-M "C M C M"
_symmetry_group_IT_number 63
_symmetry_cell_setting 'orthorhombic'
loop_
_space_group_symop_operation_xyz
x,y,z
-x,-y,1/2+z
x,-y,-z
-x,y,1/2-z
-x,-y,-z
x,y,1/2-z
-x,y,z
x,-y,1/2+z
1/2+x,1/2+y,z
1/2-x,1/2-y,1/2+z
1/2+x,1/2-y,-z
1/2-x,1/2+y,1/2-z
1/2-x,1/2-y,-z
1/2+x,1/2+y,1/2-z
1/2-x,1/2+y,z
1/2+x,1/2-y,1/2+z
loop_
_atom_site_type_symbol
_atom_site_label
_atom_site_fract_x
_atom_site_fract_y
_atom_site_fract_z
Si Si1 0.500000 0.139251 0.877854
Si Si2 0.736124 0.484207 0.250000
Si Si3 0.000000 0.303343 0.583211
Si Si4 0.180730 0.150525 0.940381
Si Si5 0.634221 0.212530 0.750000
O O1 0.578075 0.224942 0.836258
O O2 0.500000 0.957918 0.858452
O O3 0.500000 0.152332 0.980736
O O4 0.714394 0.402503 0.156308
O O5 0.700258 0.652880 0.250000
O O6 0.834068 0.461726 0.250000
O O7 0.090650 0.221899 0.586816
O O8 0.250000 0.250000 0.000000
O O9 0.166224 0.000000 0.000000
#
# Coordination Sequence:
#
# PCOD9475348 Si02
#       5
#     8   8   8  16   8
#     4  10  24  45  70 100 145 194 240 305 385 445
#     4  12  26  45  75 107 149 193 251 315 378 454
#     4  11  25  45  72 106 147 192 251 309 373 457
#     4  12  28  47  76 112 153 200 258 315 385 455
#     4  11  26  45  71 102 145 193 251 303 380 456
#
# _framework density 22.728396
#
# number of rings (size 3 to 8) (size 9 to 14) (size 15 to 20)
#    0.000    0.667    0.000    6.500   14.000    4.667 
#    0.000    0.000    0.000    0.000    0.000    0.000 
#    0.000    0.000    0.000    0.000    0.000    0.000 
#
# Total GULP energy -133650.555350 kJ/mol
# GULP energy per Si atom -5568.773140 kJ/mol
# Density = 2.267667 g / cm^3
# Si number density = 22.728396 Si / 1000 Ang^3
#
#
#
# Elastic Constant Matrix: (Units=GPa)
#
#
# Indices 1 2 3 4 5 6 
#
# 1 97.0283 33.7808 -3.2565 0.0000 0.0000 0.0000
# 2 33.7808 85.7088 15.5440 0.0000 0.0000 0.0000
# 3 -3.2565 15.5440 128.7426 0.0000 0.0000 0.0000
# 4 0.0000 0.0000 0.0000 37.3067 0.0000 0.0000
# 5 0.0000 0.0000 0.0000 0.0000 274.2059 0.0000
# 6 0.0000 0.0000 0.0000 0.0000 0.0000 33.6111
#
#
#
# Elastic Compliance Matrix: (Units=1/GPa)
#
#
# Indices 1 2 3 4 5 6 
#
# 1 0.012046 -0.004911 0.000898 0.000000 0.000000 0.000000
# 2 -0.004911 0.013930 -0.001806 0.000000 0.000000 0.000000
# 3 0.000898 -0.001806 0.008008 0.000000 0.000000 0.000000
# 4 0.000000 0.000000 0.000000 0.026805 0.000000 0.000000
# 5 0.000000 0.000000 0.000000 0.000000 0.003647 0.000000
# 6 0.000000 0.000000 0.000000 0.000000 0.000000 0.029752
#
#
# Mechanical properties :
#
#
# Convention : Reuss Voigt Hill
#
# Bulk Modulus (GPa) = 44.74984 44.84627 44.79805
# Shear Modulus (GPa) = 44.14025 86.71885 65.42955
#
# Velocity S-wave (km/s) = 4.41168 6.18363 5.37123
# Velocity P-wave (km/s) = 6.75886 8.41173 7.63019
#
# Compressibility (1/GPa) = 0.02234645
#
# Stress axis : x y z
#
# Youngs Moduli (GPa) = 83.01498 71.78556 124.87194
#
# Poissons Ratio (x) = 0.35251 -0.11208
# Poissons Ratio (y) = 0.40765 0.22553
# Poissons Ratio (z) = -0.07451 0.12965
#
# Static dielectric constant tensor:
#      x y z
#    x 1.932590 0.000000 0.000000 
#    y 0.000000 1.895090 0.000000 
#    z 0.000000 0.000000 1.881580 
# 
# From -- ./inp_files/43224.got.cif
#   From: 2010.05.17/outbox.cif.g08.bks.cpg/sg63_22_cif.got.tgz:43224.got - 2010.06.03 15:47:04.
