data_PCOD9475806
_publ_section_title
;
Structure prediction by ZEFSAII (Michael W. Deem and Ramdas Pophale) SiO2 
 PCOD9475806
Probable space group: C M C M
;
_chemical_formula_sum "Si O2"
_cell_formula_units_Z 64
_cell_length_a 7.729777
_cell_length_b 22.660536
_cell_length_c 20.112317
_cell_angle_alpha 90.000000
_cell_angle_beta 90.000000
_cell_angle_gamma 90.000000
_cell_volume 3522.891345
_symmetry_space_group_name_H-M "C M C M"
_symmetry_group_IT_number 63
_symmetry_cell_setting 'orthorhombic'
loop_
_space_group_symop_operation_xyz
x,y,z
-x,-y,1/2+z
x,-y,-z
-x,y,1/2-z
-x,-y,-z
x,y,1/2-z
-x,y,z
x,-y,1/2+z
1/2+x,1/2+y,z
1/2-x,1/2-y,1/2+z
1/2+x,1/2-y,-z
1/2-x,1/2+y,1/2-z
1/2-x,1/2-y,-z
1/2+x,1/2+y,1/2-z
1/2-x,1/2+y,z
1/2+x,1/2-y,1/2+z
loop_
_atom_site_type_symbol
_atom_site_label
_atom_site_fract_x
_atom_site_fract_y
_atom_site_fract_z
Si Si1 0.500000 0.102950 0.173894
Si Si2 0.202345 0.038004 0.097720
Si Si3 0.196224 0.719980 0.929452
Si Si4 0.703276 0.412221 0.051951
Si Si5 0.000000 0.743983 0.329052
O O1 0.500000 0.086353 0.250000
O O2 0.329808 0.075842 0.141358
O O3 0.500000 0.173219 0.167738
O O4 0.000000 0.040928 0.116639
O O5 0.256271 0.969108 0.095077
O O6 0.216407 0.064769 0.023544
O O7 0.201691 0.649225 0.938676
O O8 0.332197 0.735131 0.871154
O O9 0.000000 0.739072 0.913921
O O10 0.250000 0.750000 0.000000
O O11 0.500000 0.401147 0.065150
O O12 0.000000 0.761079 0.250000
#
# Coordination Sequence:
#
# PCOD9475806 Si02
#       5
#     8  16  16  16   8
#     4  11  24  39  59  83 114 158 205 239 292 371
#     4   9  20  36  60  89 120 148 188 249 311 351
#     4  12  23  38  65  95 124 162 214 259 302 364
#     4   9  18  36  61  92 121 149 190 252 307 354
#     4  11  26  46  61  88 131 167 203 258 317 370
#
# _framework density 18.166896000000001
#
# number of rings (size 3 to 8) (size 9 to 14) (size 15 to 20)
#    0.000    1.750    2.500    3.000    3.500    5.000 
#    0.000    3.750    0.000    0.000    0.000    0.000 
#    0.000    0.000    0.000    0.000    0.000    0.000 
#
# Total GULP energy -178570.059095 kJ/mol
# GULP energy per Si atom -5580.314347 kJ/mol
# Density = 1.812555 g / cm^3
# Si number density = 18.166896 Si / 1000 Ang^3
#
#
#
# Elastic Constant Matrix: (Units=GPa)
#
#
# Indices 1 2 3 4 5 6 
#
# 1 122.4511 39.7184 65.4803 0.0000 0.0000 0.0000
# 2 39.7184 72.4238 39.5145 0.0000 0.0000 0.0000
# 3 65.4803 39.5145 87.2587 0.0000 0.0000 0.0000
# 4 0.0000 0.0000 0.0000 25.5762 0.0000 0.0000
# 5 0.0000 0.0000 0.0000 0.0000 29.4081 0.0000
# 6 0.0000 0.0000 0.0000 0.0000 0.0000 30.2908
#
#
#
# Elastic Compliance Matrix: (Units=1/GPa)
#
#
# Indices 1 2 3 4 5 6 
#
# 1 0.013995 -0.002583 -0.009332 0.000000 0.000000 0.000000
# 2 -0.002583 0.018815 -0.006582 0.000000 0.000000 0.000000
# 3 -0.009332 -0.006582 0.021444 0.000000 0.000000 0.000000
# 4 0.000000 0.000000 0.000000 0.039099 0.000000 0.000000
# 5 0.000000 0.000000 0.000000 0.000000 0.034004 0.000000
# 6 0.000000 0.000000 0.000000 0.000000 0.000000 0.033013
#
#
# Mechanical properties :
#
#
# Convention : Reuss Voigt Hill
#
# Bulk Modulus (GPa) = 57.93965 63.50665 60.72315
# Shear Modulus (GPa) = 24.61628 26.21639 25.41634
#
# Velocity S-wave (km/s) = 3.68504 3.80292 3.74444
# Velocity P-wave (km/s) = 7.07589 7.36995 7.22442
#
# Compressibility (1/GPa) = 0.01725934
#
# Stress axis : x y z
#
# Youngs Moduli (GPa) = 71.45544 53.14787 46.63402
#
# Poissons Ratio (x) = 0.13730 0.43519
# Poissons Ratio (y) = 0.18460 0.30694
# Poissons Ratio (z) = 0.66682 0.34981
#
# Static dielectric constant tensor:
#      x y z
#    x 1.647440 0.000000 0.000000 
#    y 0.000000 1.630180 0.000000 
#    z 0.000000 0.000000 1.552370 
# 
# From -- ./inp_files/39853.got.cif
#   From: 2010.05.17/outbox.cif.g08.bks.cpg/sg63_20_cif.got.tgz:39853.got - 2010.06.03 15:47:04.
