data_PCOD9475597
_publ_section_title
;
Structure prediction by ZEFSAII (Michael W. Deem and Ramdas Pophale) SiO2 
 PCOD9475597
Probable space group: C M C M
;
_chemical_formula_sum "Si O2"
_cell_formula_units_Z 56
_cell_length_a 10.964257
_cell_length_b 14.189760
_cell_length_c 18.588583
_cell_angle_alpha 90.000000
_cell_angle_beta 90.000000
_cell_angle_gamma 90.000000
_cell_volume 2892.015004
_symmetry_space_group_name_H-M "C M C M"
_symmetry_group_IT_number 63
_symmetry_cell_setting 'orthorhombic'
loop_
_space_group_symop_operation_xyz
x,y,z
-x,-y,1/2+z
x,-y,-z
-x,y,1/2-z
-x,-y,-z
x,y,1/2-z
-x,y,z
x,-y,1/2+z
1/2+x,1/2+y,z
1/2-x,1/2-y,1/2+z
1/2+x,1/2-y,-z
1/2-x,1/2+y,1/2-z
1/2-x,1/2-y,-z
1/2+x,1/2+y,1/2-z
1/2-x,1/2+y,z
1/2+x,1/2-y,1/2+z
loop_
_atom_site_type_symbol
_atom_site_label
_atom_site_fract_x
_atom_site_fract_y
_atom_site_fract_z
Si Si1 0.000000 0.783404 0.750000
Si Si2 0.000000 0.378092 0.128114
Si Si3 0.269092 0.892980 0.478556
Si Si4 0.729443 0.179802 0.250000
Si Si5 0.640742 0.243389 0.101929
Si Si6 0.500000 0.036531 0.250000
O O1 0.000000 0.713535 0.819798
O O2 0.873945 0.842603 0.750000
O O3 0.883503 0.381804 0.075601
O O4 0.000000 0.468842 0.180336
O O5 0.298163 0.833787 0.550209
O O6 0.158684 0.842530 0.437666
O O7 0.249622 0.000000 0.500000
O O8 0.703730 0.240336 0.178959
O O9 0.625115 0.098327 0.250000
O O10 0.500000 0.219576 0.110907
#
# Coordination Sequence:
#
# PCOD9475597 Si02
#       6
#     4   8  16   8  16   4
#     4  11  24  40  68  87 134 172 208 259 342 374
#     4  11  21  42  64  95 123 170 217 266 317 389
#     4  11  23  39  65  95 130 166 219 272 321 389
#     4  12  22  42  62  98 124 170 214 273 313 400
#     4  11  23  40  65  94 129 175 216 266 332 382
#     4  11  24  36  76  95 120 172 230 259 328 380
#
# _framework density 19.363662000000001
#
# number of rings (size 3 to 8) (size 9 to 14) (size 15 to 20)
#    0.000    0.857    5.714    2.143    0.000    0.571 
#    0.000    0.000    9.429    1.714    0.000    0.000 
#    0.000    0.000    0.000    0.000    0.000    0.000 
#
# Total GULP energy -156423.096343 kJ/mol
# GULP energy per Si atom -5586.539155 kJ/mol
# Density = 1.931959 g / cm^3
# Si number density = 19.363662 Si / 1000 Ang^3
#
#
#
# Elastic Constant Matrix: (Units=GPa)
#
#
# Indices 1 2 3 4 5 6 
#
# 1 86.2943 10.4456 26.7891 0.0000 0.0000 0.0000
# 2 10.4456 81.6140 38.4686 0.0000 0.0000 0.0000
# 3 26.7891 38.4686 147.0675 0.0000 0.0000 0.0000
# 4 0.0000 0.0000 0.0000 217.0089 0.0000 0.0000
# 5 0.0000 0.0000 0.0000 0.0000 14.4933 0.0000
# 6 0.0000 0.0000 0.0000 0.0000 0.0000 12.5507
#
#
#
# Elastic Compliance Matrix: (Units=1/GPa)
#
#
# Indices 1 2 3 4 5 6 
#
# 1 0.012308 -0.000591 -0.002087 0.000000 0.000000 0.000000
# 2 -0.000591 0.014004 -0.003555 0.000000 0.000000 0.000000
# 3 -0.002087 -0.003555 0.008110 0.000000 0.000000 0.000000
# 4 0.000000 0.000000 0.000000 0.004608 0.000000 0.000000
# 5 0.000000 0.000000 0.000000 0.000000 0.068997 0.000000
# 6 0.000000 0.000000 0.000000 0.000000 0.000000 0.079677
#
#
# Mechanical properties :
#
#
# Convention : Reuss Voigt Hill
#
# Bulk Modulus (GPa) = 45.55020 51.82025 48.68523
# Shear Modulus (GPa) = 24.09753 64.76210 44.42981
#
# Velocity S-wave (km/s) = 3.53153 5.78945 4.79528
# Velocity P-wave (km/s) = 6.34063 8.45636 7.47374
#
# Compressibility (1/GPa) = 0.02195380
#
# Stress axis : x y z
#
# Youngs Moduli (GPa) = 81.24931 71.40657 123.30780
#
# Poissons Ratio (x) = 0.04223 0.25737
# Poissons Ratio (y) = 0.04805 0.43841
# Poissons Ratio (z) = 0.16959 0.25388
#
# Static dielectric constant tensor:
#      x y z
#    x 1.672040 0.000000 0.000000 
#    y 0.000000 1.652890 0.000000 
#    z 0.000000 0.000000 1.666400 
# 
# From -- ./inp_files/28799.got.cif
#   From: 2010.05.17/outbox.cif.g08.bks.cpg/sg63_15_cif.got.tgz:28799.got - 2010.06.03 15:47:04.
