data_PCOD9475378
_publ_section_title
;
Structure prediction by ZEFSAII (Michael W. Deem and Ramdas Pophale) SiO2 
 PCOD9475378
Probable space group: C M C M
;
_chemical_formula_sum "Si O2"
_cell_formula_units_Z 44
_cell_length_a 10.274250
_cell_length_b 25.246403
_cell_length_c 7.431646
_cell_angle_alpha 90.000000
_cell_angle_beta 90.000000
_cell_angle_gamma 90.000000
_cell_volume 1927.678723
_symmetry_space_group_name_H-M "C M C M"
_symmetry_group_IT_number 63
_symmetry_cell_setting 'orthorhombic'
loop_
_space_group_symop_operation_xyz
x,y,z
-x,-y,1/2+z
x,-y,-z
-x,y,1/2-z
-x,-y,-z
x,y,1/2-z
-x,y,z
x,-y,1/2+z
1/2+x,1/2+y,z
1/2-x,1/2-y,1/2+z
1/2+x,1/2-y,-z
1/2-x,1/2+y,1/2-z
1/2-x,1/2-y,-z
1/2+x,1/2+y,1/2-z
1/2-x,1/2+y,z
1/2+x,1/2-y,1/2+z
loop_
_atom_site_type_symbol
_atom_site_label
_atom_site_fract_x
_atom_site_fract_y
_atom_site_fract_z
Si Si1 0.644259 0.294545 0.036574
Si Si2 0.000000 0.562166 0.462882
Si Si3 0.000000 0.053022 0.750000
Si Si4 0.211825 0.086853 0.043431
O O1 0.641375 0.304400 0.250000
O O2 0.500000 0.276694 0.980456
O O3 0.750000 0.250000 0.000000
O O4 0.674902 0.351170 0.952086
O O5 0.000000 0.500000 0.500000
O O6 0.860609 0.583412 0.525589
O O7 0.000000 0.572909 0.250000
O O8 0.886536 0.058588 0.591482
O O9 0.202882 0.066010 0.250000
#
# Coordination Sequence:
#
# PCOD9475378 Si02
#       4
#    16   8   4  16
#     4  11  23  40  61  94 134 180 227 275 334 401
#     4  10  26  46  75 102 136 181 230 288 348 411
#     4  12  22  42  72  98 130 176 218 276 350 402
#     4  11  23  44  69  98 137 179 228 284 343 406
#
# _framework density 22.825381
#
# number of rings (size 3 to 8) (size 9 to 14) (size 15 to 20)
#    0.000    1.091    3.636    1.636    5.091    2.182 
#    0.000    0.909    0.000    0.000    0.000    0.000 
#    0.000    0.000    0.000    0.000    0.000    0.000 
#
# Total GULP energy -122583.410818 kJ/mol
# GULP energy per Si atom -5571.973219 kJ/mol
# Density = 2.277343 g / cm^3
# Si number density = 22.825381 Si / 1000 Ang^3
#
#
#
# Elastic Constant Matrix: (Units=GPa)
#
#
# Indices 1 2 3 4 5 6 
#
# 1 264.0488 41.4634 60.8281 0.0000 0.0000 0.0000
# 2 41.4634 73.8327 7.4830 0.0000 0.0000 0.0000
# 3 60.8281 7.4830 145.5225 0.0000 0.0000 0.0000
# 4 0.0000 0.0000 0.0000 21.7752 0.0000 0.0000
# 5 0.0000 0.0000 0.0000 0.0000 29.0267 0.0000
# 6 0.0000 0.0000 0.0000 0.0000 0.0000 58.4519
#
#
#
# Elastic Compliance Matrix: (Units=1/GPa)
#
#
# Indices 1 2 3 4 5 6 
#
# 1 0.004574 -0.002388 -0.001789 0.000000 0.000000 0.000000
# 2 -0.002388 0.014861 0.000234 0.000000 0.000000 0.000000
# 3 -0.001789 0.000234 0.007608 0.000000 0.000000 0.000000
# 4 0.000000 0.000000 0.000000 0.045924 0.000000 0.000000
# 5 0.000000 0.000000 0.000000 0.000000 0.034451 0.000000
# 6 0.000000 0.000000 0.000000 0.000000 0.000000 0.017108
#
#
# Mechanical properties :
#
#
# Convention : Reuss Voigt Hill
#
# Bulk Modulus (GPa) = 52.19969 78.10590 65.15279
# Shear Modulus (GPa) = 36.02363 46.75939 41.39151
#
# Velocity S-wave (km/s) = 3.97700 4.53102 4.26302
# Velocity P-wave (km/s) = 6.63381 7.85282 7.26891
#
# Compressibility (1/GPa) = 0.01915720
#
# Stress axis : x y z
#
# Youngs Moduli (GPa) = 218.61387 67.28915 131.44613
#
# Poissons Ratio (x) = 0.16065 0.23519
# Poissons Ratio (y) = 0.52194 -0.03073
# Poissons Ratio (z) = 0.39116 -0.01573
#
# Static dielectric constant tensor:
#      x y z
#    x 1.830650 0.000000 0.000000 
#    y 0.000000 1.839940 0.000000 
#    z 0.000000 0.000000 1.887650 
# 
# From -- ./inp_files/1923.got.cif
#   From: 2010.05.17/outbox.cif.g08.bks.cpg/sg63_1_cif.got.tgz:1923.got - 2010.06.03 15:47:04.
