data_PCOD9475864
_publ_section_title
;
Structure prediction by ZEFSAII (Michael W. Deem and Ramdas Pophale) SiO2 
 PCOD9475864
Probable space group: C M C M
;
_chemical_formula_sum "Si O2"
_cell_formula_units_Z 68
_cell_length_a 7.768386
_cell_length_b 19.309577
_cell_length_c 18.693458
_cell_angle_alpha 90.000000
_cell_angle_beta 90.000000
_cell_angle_gamma 90.000000
_cell_volume 2804.098103
_symmetry_space_group_name_H-M "C M C M"
_symmetry_group_IT_number 63
_symmetry_cell_setting 'orthorhombic'
loop_
_space_group_symop_operation_xyz
x,y,z
-x,-y,1/2+z
x,-y,-z
-x,y,1/2-z
-x,-y,-z
x,y,1/2-z
-x,y,z
x,-y,1/2+z
1/2+x,1/2+y,z
1/2-x,1/2-y,1/2+z
1/2+x,1/2-y,-z
1/2-x,1/2+y,1/2-z
1/2-x,1/2-y,-z
1/2+x,1/2+y,1/2-z
1/2-x,1/2+y,z
1/2+x,1/2-y,1/2+z
loop_
_atom_site_type_symbol
_atom_site_label
_atom_site_fract_x
_atom_site_fract_y
_atom_site_fract_z
Si Si1 0.300498 0.013973 0.641304
Si Si2 0.698294 0.623670 0.962009
Si Si3 0.801741 0.645963 0.119090
Si Si4 0.697710 0.212001 0.828636
Si Si5 0.500000 0.444694 0.250000
O O1 0.500000 0.018926 0.665781
O O2 0.288253 0.054123 0.566134
O O3 0.153699 0.049138 0.688796
O O4 0.254471 0.932895 0.637036
O O5 0.500000 0.609440 0.978414
O O6 0.712300 0.677704 0.896525
O O7 0.781734 0.653066 0.033780
O O8 0.699889 0.705730 0.159160
O O9 0.000000 0.655889 0.139389
O O10 0.774049 0.196497 0.750000
O O11 0.500000 0.187537 0.829212
#
# Coordination Sequence:
#
# PCOD9475864 Si02
#       5
#    16  16  16  16   4
#     4  11  26  45  72 105 141 184 233 287 346 415
#     4  12  25  44  71 101 137 183 234 288 347 416
#     4  11  25  45  70 100 137 181 230 290 348 412
#     4  11  26  44  68  98 137 181 230 287 350 418
#     4  12  26  44  70 106 148 184 228 282 360 410
#
# _framework density 24.250222999999998
#
# number of rings (size 3 to 8) (size 9 to 14) (size 15 to 20)
#    0.000    0.706    1.176    5.294    6.588    4.706 
#    0.000    0.000    0.000    0.000    0.000    0.000 
#    0.000    0.000    0.000    0.000    0.000    0.000 
#
# Total GULP energy -189935.934298 kJ/mol
# GULP energy per Si atom -5586.351009 kJ/mol
# Density = 2.419503 g / cm^3
# Si number density = 24.250223 Si / 1000 Ang^3
#
#
#
# Elastic Constant Matrix: (Units=GPa)
#
#
# Indices 1 2 3 4 5 6 
#
# 1 98.6414 -3.6475 -3.5272 0.0000 0.0000 0.0000
# 2 -3.6475 124.6266 18.3679 0.0000 0.0000 0.0000
# 3 -3.5272 18.3679 93.0846 0.0000 0.0000 0.0000
# 4 0.0000 0.0000 0.0000 -25.1575 0.0000 0.0000
# 5 0.0000 0.0000 0.0000 0.0000 227.6549 0.0000
# 6 0.0000 0.0000 0.0000 0.0000 0.0000 22.3607
#
#
#
# Elastic Compliance Matrix: (Units=1/GPa)
#
#
# Indices 1 2 3 4 5 6 
#
# 1 0.010159 0.000248 0.000336 0.000000 0.000000 0.000000
# 2 0.000248 0.008270 -0.001623 0.000000 0.000000 0.000000
# 3 0.000336 -0.001623 0.011076 0.000000 0.000000 0.000000
# 4 0.000000 0.000000 0.000000 -0.039750 0.000000 0.000000
# 5 0.000000 0.000000 0.000000 0.000000 0.004393 0.000000
# 6 0.000000 0.000000 0.000000 0.000000 0.000000 0.044721
#
#
# Mechanical properties :
#
#
# Convention : Reuss Voigt Hill
#
# Bulk Modulus (GPa) = 36.45955 37.63768 37.04862
# Shear Modulus (GPa) = 99.82156 65.31557 82.56857
#
# Velocity S-wave (km/s) = 6.42281 5.19543 5.84145
# Velocity P-wave (km/s) = 8.37083 7.17943 7.79791
#
# Compressibility (1/GPa) = 0.02742766
#
# Stress axis : x y z
#
# Youngs Moduli (GPa) = 98.43572 120.91368 90.28678
#
# Poissons Ratio (x) = -0.02996 -0.03034
# Poissons Ratio (y) = -0.02439 0.14650
# Poissons Ratio (z) = -0.03308 0.19619
#
# Static dielectric constant tensor:
#      x y z
#    x 1.860450 0.000000 0.000000 
#    y 0.000000 1.955450 0.000000 
#    z 0.000000 0.000000 1.943440 
# 
# From -- ./inp_files/39957.got.cif
#   From: 2010.05.17/outbox.cif.g08.bks.cpg/sg63_20_cif.got.tgz:39957.got - 2010.06.03 15:47:04.
