data_PCOD9475558
_publ_section_title
;
Structure prediction by ZEFSAII (Michael W. Deem and Ramdas Pophale) SiO2 
 PCOD9475558
Probable space group: C M C M
;
_chemical_formula_sum "Si O2"
_cell_formula_units_Z 96
_cell_length_a 7.687026
_cell_length_b 20.642712
_cell_length_c 29.776942
_cell_angle_alpha 90.000000
_cell_angle_beta 90.000000
_cell_angle_gamma 90.000000
_cell_volume 4725.036835
_symmetry_space_group_name_H-M "C M C M"
_symmetry_group_IT_number 63
_symmetry_cell_setting 'orthorhombic'
loop_
_space_group_symop_operation_xyz
x,y,z
-x,-y,1/2+z
x,-y,-z
-x,y,1/2-z
-x,-y,-z
x,y,1/2-z
-x,y,z
x,-y,1/2+z
1/2+x,1/2+y,z
1/2-x,1/2-y,1/2+z
1/2+x,1/2-y,-z
1/2-x,1/2+y,1/2-z
1/2-x,1/2-y,-z
1/2+x,1/2+y,1/2-z
1/2-x,1/2+y,z
1/2+x,1/2-y,1/2+z
loop_
_atom_site_type_symbol
_atom_site_label
_atom_site_fract_x
_atom_site_fract_y
_atom_site_fract_z
Si Si1 0.699520 0.244603 0.369181
Si Si2 0.712721 0.568343 0.520375
Si Si3 0.786306 0.109168 0.620535
Si Si4 0.706601 0.365597 0.700048
Si Si5 0.292414 0.693160 0.034652
Si Si6 0.787721 0.010620 0.698072
O O1 0.500000 0.254615 0.357052
O O2 0.776401 0.316996 0.372260
O O3 0.767479 0.193232 0.333505
O O4 0.713183 0.211798 0.417830
O O5 0.769204 0.500000 0.500000
O O6 0.500000 0.568506 0.520813
O O7 0.767764 0.582912 0.571510
O O8 0.768269 0.626473 0.487726
O O9 0.730343 0.062590 0.661172
O O10 0.000000 0.109714 0.619742
O O11 0.776032 0.351467 0.750000
O O12 0.500000 0.373573 0.703718
O O13 0.770517 0.437281 0.686057
O O14 0.500000 0.689140 0.040799
O O15 0.250000 0.750000 0.000000
O O16 0.736167 0.023497 0.750000
O O17 0.000000 0.012278 0.697443
#
# Coordination Sequence:
#
# PCOD9475558 Si02
#       6
#    16  16  16  16  16  16
#     4  11  22  35  53  81 113 144 178 217 265 320
#     4   9  18  31  50  77 103 134 178 225 265 305
#     4   9  17  30  48  74 107 136 175 224 262 306
#     4   9  19  36  57  82 108 136 176 222 268 319
#     4  11  21  36  57  79 108 144 179 218 268 319
#     4   8  15  29  51  77 103 132 171 222 270 309
#
# _framework density 20.317302999999999
#
# number of rings (size 3 to 8) (size 9 to 14) (size 15 to 20)
#    0.000    2.500    1.667    2.000    2.333    1.000 
#    0.000    1.667    0.000    6.000    0.000    0.000 
#    0.000    0.000    0.000    0.000    0.000    0.000 
#
# Total GULP energy -267821.977442 kJ/mol
# GULP energy per Si atom -5579.624530 kJ/mol
# Density = 2.027106 g / cm^3
# Si number density = 20.317303 Si / 1000 Ang^3
#
#
#
# Elastic Constant Matrix: (Units=GPa)
#
#
# Indices 1 2 3 4 5 6 
#
# 1 28.3296 0.6869 -6.3583 0.0000 0.0000 0.0000
# 2 0.6869 227.0385 133.2554 0.0000 0.0000 0.0000
# 3 -6.3583 133.2554 153.5495 0.0000 0.0000 0.0000
# 4 0.0000 0.0000 0.0000 40.4564 0.0000 0.0000
# 5 0.0000 0.0000 0.0000 0.0000 12.2080 0.0000
# 6 0.0000 0.0000 0.0000 0.0000 0.0000 19.9162
#
#
#
# Elastic Compliance Matrix: (Units=1/GPa)
#
#
# Indices 1 2 3 4 5 6 
#
# 1 0.036074 -0.002009 0.003238 0.000000 0.000000 0.000000
# 2 -0.002009 0.009089 -0.007971 0.000000 0.000000 0.000000
# 3 0.003238 -0.007971 0.013564 0.000000 0.000000 0.000000
# 4 0.000000 0.000000 0.000000 0.024718 0.000000 0.000000
# 5 0.000000 0.000000 0.000000 0.000000 0.081914 0.000000
# 6 0.000000 0.000000 0.000000 0.000000 0.000000 0.050210
#
#
# Mechanical properties :
#
#
# Convention : Reuss Voigt Hill
#
# Bulk Modulus (GPa) = 22.10346 73.78729 47.94537
# Shear Modulus (GPa) = 20.48045 33.27169 26.87607
#
# Velocity S-wave (km/s) = 3.17839 4.05112 3.64100
# Velocity P-wave (km/s) = 4.93683 7.63403 6.42848
#
# Compressibility (1/GPa) = 0.04524179
#
# Stress axis : x y z
#
# Youngs Moduli (GPa) = 27.72066 110.02317 73.72415
#
# Poissons Ratio (x) = 0.22108 -0.23869
# Poissons Ratio (y) = 0.05570 0.58765
# Poissons Ratio (z) = -0.08975 0.87699
#
# Static dielectric constant tensor:
#      x y z
#    x 1.781850 0.000000 0.000000 
#    y 0.000000 1.718610 0.000000 
#    z 0.000000 0.000000 1.762930 
# 
# From -- ./inp_files/66887.got.cif
#   From: 2010.05.17/outbox.cif.g08.bks.cpg/sg63_34_cif.got.tgz:66887.got - 2010.06.03 15:47:04.
