data_PCOD9475387
_publ_section_title
;
Structure prediction by ZEFSAII (Michael W. Deem and Ramdas Pophale) SiO2 
 PCOD9475387
Probable space group: C M C M
;
_chemical_formula_sum "Si O2"
_cell_formula_units_Z 112
_cell_length_a 26.245764
_cell_length_b 12.193815
_cell_length_c 18.788566
_cell_angle_alpha 90.000000
_cell_angle_beta 90.000000
_cell_angle_gamma 90.000000
_cell_volume 6013.017335
_symmetry_space_group_name_H-M "C M C M"
_symmetry_group_IT_number 63
_symmetry_cell_setting 'orthorhombic'
loop_
_space_group_symop_operation_xyz
x,y,z
-x,-y,1/2+z
x,-y,-z
-x,y,1/2-z
-x,-y,-z
x,y,1/2-z
-x,y,z
x,-y,1/2+z
1/2+x,1/2+y,z
1/2-x,1/2-y,1/2+z
1/2+x,1/2-y,-z
1/2-x,1/2+y,1/2-z
1/2-x,1/2-y,-z
1/2+x,1/2+y,1/2-z
1/2-x,1/2+y,z
1/2+x,1/2-y,1/2+z
loop_
_atom_site_type_symbol
_atom_site_label
_atom_site_fract_x
_atom_site_fract_y
_atom_site_fract_z
Si Si1 0.713293 0.439464 0.931944
Si Si2 0.672342 0.110591 0.832784
Si Si3 0.438614 0.537290 0.166909
Si Si4 0.704087 0.627768 0.667766
Si Si5 0.939862 0.113294 0.955935
Si Si6 0.696724 0.868664 0.667112
Si Si7 0.379118 0.712231 0.429485
O O1 0.686872 0.532856 0.884418
O O2 0.755597 0.384978 0.883823
O O3 0.671988 0.351003 0.952503
O O4 0.736045 0.500000 0.000000
O O5 0.660987 0.139217 0.750000
O O6 0.733588 0.133085 0.842049
O O7 0.639454 0.179550 0.888551
O O8 0.664449 0.979488 0.842022
O O9 0.425639 0.531400 0.250000
O O10 0.500000 0.555378 0.160117
O O11 0.427893 0.424072 0.124351
O O12 0.409511 0.636755 0.127749
O O13 0.696130 0.597540 0.750000
O O14 0.678591 0.745299 0.653935
O O15 0.000000 0.132781 0.960717
O O16 0.911967 0.210150 0.998251
O O17 0.928858 0.000000 0.000000
O O18 0.713588 0.869921 0.750000
#
# Coordination Sequence:
#
# PCOD9475387 Si02
#       7
#    16  16  16  16  16  16  16
#     4  11  21  29  44  69  94 120 157 200 239 281
#     4   9  17  28  46  67  85 114 156 200 236 275
#     4   9  17  28  44  66  93 124 155 189 230 284
#     4   9  18  34  50  63  87 125 165 200 241 283
#     4   8  15  28  43  60  93 130 150 177 232 293
#     4   9  18  35  49  60  85 122 164 201 240 279
#     4  11  18  28  43  68  97 122 153 189 238 290
#
# _framework density 18.626256000000001
#
# number of rings (size 3 to 8) (size 9 to 14) (size 15 to 20)
#    0.000    2.571    1.429    4.286    0.000    2.286 
#    0.000    0.000    0.000    0.000    0.000    0.000 
#    0.000    4.571    0.000   56.857    0.000   24.857 
#
# Total GULP energy -312117.124343 kJ/mol
# GULP energy per Si atom -5573.520078 kJ/mol
# Density = 1.858386 g / cm^3
# Si number density = 18.626256 Si / 1000 Ang^3
#
#
#
# Elastic Constant Matrix: (Units=GPa)
#
#
# Indices 1 2 3 4 5 6 
#
# 1 21.4346 -21.0372 -7.2682 0.0000 0.0000 0.0000
# 2 -21.0372 45.0611 -4.1383 0.0000 0.0000 0.0000
# 3 -7.2682 -4.1383 41.4478 0.0000 0.0000 0.0000
# 4 0.0000 0.0000 0.0000 11.0707 0.0000 0.0000
# 5 0.0000 0.0000 0.0000 0.0000 12.1876 0.0000
# 6 0.0000 0.0000 0.0000 0.0000 0.0000 8.0258
#
#
#
# Elastic Compliance Matrix: (Units=1/GPa)
#
#
# Indices 1 2 3 4 5 6 
#
# 1 0.104689 0.051029 0.023453 0.000000 0.000000 0.000000
# 2 0.051029 0.047270 0.013668 0.000000 0.000000 0.000000
# 3 0.023453 0.013668 0.029604 0.000000 0.000000 0.000000
# 4 0.000000 0.000000 0.000000 0.090329 0.000000 0.000000
# 5 0.000000 0.000000 0.000000 0.000000 0.082051 0.000000
# 6 0.000000 0.000000 0.000000 0.000000 0.000000 0.124599
#
#
# Mechanical properties :
#
#
# Convention : Reuss Voigt Hill
#
# Bulk Modulus (GPa) = 2.79438 4.78404 3.78921
# Shear Modulus (GPa) = 11.86156 15.61595 13.73876
#
# Velocity S-wave (km/s) = 2.52627 2.89863 2.71883
# Velocity P-wave (km/s) = 3.16431 3.71170 3.44888
#
# Compressibility (1/GPa) = 0.35786128
#
# Stress axis : x y z
#
# Youngs Moduli (GPa) = 9.55214 21.15485 33.77932
#
# Poissons Ratio (x) = -1.07950 -0.79222
# Poissons Ratio (y) = -0.48743 -0.46169
# Poissons Ratio (z) = -0.22402 -0.28914
#
# Static dielectric constant tensor:
#      x y z
#    x 1.660490 0.000000 0.000000 
#    y 0.000000 1.669120 0.000000 
#    z 0.000000 0.000000 1.687320 
# 
# From -- ./inp_files/58324.got.cif
#   From: 2010.05.17/outbox.cif.g08.bks.cpg/sg63_30_cif.got.tgz:58324.got - 2010.06.03 15:47:04.
