data_PCOD9475445
_publ_section_title
;
Structure prediction by ZEFSAII (Michael W. Deem and Ramdas Pophale) SiO2 
 PCOD9475445
Probable space group: C M C M
;
_chemical_formula_sum "Si O2"
_cell_formula_units_Z 80
_cell_length_a 21.770385
_cell_length_b 23.213319
_cell_length_c 10.276575
_cell_angle_alpha 90.000000
_cell_angle_beta 90.000000
_cell_angle_gamma 90.000000
_cell_volume 5193.399659
_symmetry_space_group_name_H-M "C M C M"
_symmetry_group_IT_number 63
_symmetry_cell_setting 'orthorhombic'
loop_
_space_group_symop_operation_xyz
x,y,z
-x,-y,1/2+z
x,-y,-z
-x,y,1/2-z
-x,-y,-z
x,y,1/2-z
-x,y,z
x,-y,1/2+z
1/2+x,1/2+y,z
1/2-x,1/2-y,1/2+z
1/2+x,1/2-y,-z
1/2-x,1/2+y,1/2-z
1/2-x,1/2-y,-z
1/2+x,1/2+y,1/2-z
1/2-x,1/2+y,z
1/2+x,1/2-y,1/2+z
loop_
_atom_site_type_symbol
_atom_site_label
_atom_site_fract_x
_atom_site_fract_y
_atom_site_fract_z
Si Si1 0.265063 0.836526 0.908330
Si Si2 0.427168 0.254966 0.250000
Si Si3 0.350509 0.729474 0.998687
Si Si4 0.853296 0.432578 0.505262
Si Si5 0.929760 0.261513 0.250000
Si Si6 0.429386 0.899569 0.250000
Si Si7 0.427502 0.884628 0.750000
O O1 0.265345 0.839205 0.750000
O O2 0.310018 0.785103 0.956371
O O3 0.198090 0.819504 0.961515
O O4 0.292809 0.894071 0.971545
O O5 0.500000 0.264211 0.250000
O O6 0.394505 0.280934 0.123520
O O7 0.417738 0.184867 0.250000
O O8 0.392405 0.743070 0.122757
O O9 0.839484 0.500000 0.500000
O O10 0.891280 0.417992 0.375969
O O11 0.896591 0.413517 0.625059
O O12 0.932396 0.330581 0.250000
O O13 0.000000 0.239933 0.250000
O O14 0.500000 0.921621 0.250000
O O15 0.500000 0.894308 0.750000
#
# Coordination Sequence:
#
# PCOD9475445 Si02
#       7
#    16   8  16  16   8   8   8
#     4  11  21  36  54  73 104 138 178 215 266 316
#     4  11  20  35  57  81 109 140 173 212 258 312
#     4  11  20  34  55  77 101 138 173 209 264 321
#     4  12  23  36  52  71 100 139 188 228 258 297
#     4  11  20  33  51  77 107 132 169 218 262 308
#     4  11  23  35  47  73 105 134 180 229 261 291
#     4  11  21  37  53  69 105 150 186 215 257 305
#
# _framework density 15.404168
#
# number of rings (size 3 to 8) (size 9 to 14) (size 15 to 20)
#    0.000    0.800    7.000    1.800    0.000    6.400 
#    0.000    0.000    0.000    0.000    0.000    0.000 
#    0.000    4.800    0.000    0.000    0.000    0.000 
#
# Total GULP energy -223325.681363 kJ/mol
# GULP energy per Si atom -5583.142034 kJ/mol
# Density = 1.536911 g / cm^3
# Si number density = 15.404168 Si / 1000 Ang^3
#
#
#
# Elastic Constant Matrix: (Units=GPa)
#
#
# Indices 1 2 3 4 5 6 
#
# 1 135.7596 67.7268 75.9634 0.0000 0.0000 0.0000
# 2 67.7268 82.4915 47.0561 0.0000 0.0000 0.0000
# 3 75.9634 47.0561 163.8808 0.0000 0.0000 0.0000
# 4 0.0000 0.0000 0.0000 19.0477 0.0000 0.0000
# 5 0.0000 0.0000 0.0000 0.0000 39.3969 0.0000
# 6 0.0000 0.0000 0.0000 0.0000 0.0000 17.0390
#
#
#
# Elastic Compliance Matrix: (Units=1/GPa)
#
#
# Indices 1 2 3 4 5 6 
#
# 1 0.014289 -0.009511 -0.003892 0.000000 0.000000 0.000000
# 2 -0.009511 0.020828 -0.001572 0.000000 0.000000 0.000000
# 3 -0.003892 -0.001572 0.008357 0.000000 0.000000 0.000000
# 4 0.000000 0.000000 0.000000 0.052500 0.000000 0.000000
# 5 0.000000 0.000000 0.000000 0.000000 0.025383 0.000000
# 6 0.000000 0.000000 0.000000 0.000000 0.000000 0.058689
#
#
# Mechanical properties :
#
#
# Convention : Reuss Voigt Hill
#
# Bulk Modulus (GPa) = 73.94342 84.84717 79.39530
# Shear Modulus (GPa) = 23.30972 27.85575 25.58274
#
# Velocity S-wave (km/s) = 3.89422 4.25705 4.07967
# Velocity P-wave (km/s) = 8.26597 8.90862 8.59331
#
# Compressibility (1/GPa) = 0.01352385
#
# Stress axis : x y z
#
# Youngs Moduli (GPa) = 69.98614 48.01318 119.65317
#
# Poissons Ratio (x) = 0.45665 0.46572
# Poissons Ratio (y) = 0.66563 0.18807
# Poissons Ratio (z) = 0.27240 0.07547
#
# Static dielectric constant tensor:
#      x y z
#    x 1.513840 0.000000 0.000000 
#    y 0.000000 1.492250 0.000000 
#    z 0.000000 0.000000 1.526330 
# 
# From -- ./inp_files/8132.got.cif
#   From: 2010.05.17/outbox.cif.g08.bks.cpg/sg63_5_cif.got.tgz:8132.got - 2010.06.03 15:47:04.
