data_PCOD9475533
_publ_section_title
;
Structure prediction by ZEFSAII (Michael W. Deem and Ramdas Pophale) SiO2 
 PCOD9475533
Probable space group: C M C M
;
_chemical_formula_sum "Si O2"
_cell_formula_units_Z 68
_cell_length_a 15.916779
_cell_length_b 28.612635
_cell_length_c 7.604172
_cell_angle_alpha 90.000000
_cell_angle_beta 90.000000
_cell_angle_gamma 90.000000
_cell_volume 3463.099524
_symmetry_space_group_name_H-M "C M C M"
_symmetry_group_IT_number 63
_symmetry_cell_setting 'orthorhombic'
loop_
_space_group_symop_operation_xyz
x,y,z
-x,-y,1/2+z
x,-y,-z
-x,y,1/2-z
-x,-y,-z
x,y,1/2-z
-x,y,z
x,-y,1/2+z
1/2+x,1/2+y,z
1/2-x,1/2-y,1/2+z
1/2+x,1/2-y,-z
1/2-x,1/2+y,1/2-z
1/2-x,1/2-y,-z
1/2+x,1/2+y,1/2-z
1/2-x,1/2+y,z
1/2+x,1/2-y,1/2+z
loop_
_atom_site_type_symbol
_atom_site_label
_atom_site_fract_x
_atom_site_fract_y
_atom_site_fract_z
Si Si1 0.095299 0.797346 0.035214
Si Si2 0.093681 0.309695 0.538704
Si Si3 0.500000 0.420943 0.250000
Si Si4 0.741646 0.366569 0.458391
Si Si5 0.865820 0.945825 0.550252
O O1 0.095371 0.798738 0.250000
O O2 0.110684 0.743756 0.979701
O O3 0.169278 0.830966 0.973855
O O4 0.000000 0.810762 0.982600
O O5 0.090895 0.307629 0.750000
O O6 0.167802 0.344404 0.490886
O O7 0.000000 0.322742 0.476468
O O8 0.572497 0.576271 0.905414
O O9 0.732228 0.370464 0.250000
O O10 0.720063 0.416535 0.539649
O O11 0.898431 0.943585 0.750000
O O12 0.856343 0.000000 0.500000
#
# Coordination Sequence:
#
# PCOD9475533 Si02
#       5
#    16  16   4  16  16
#     4   8  16  30  51  78 114 155 194 239 292 349
#     4   9  18  35  56  79 108 152 203 249 300 353
#     4  12  24  44  62  90 122 158 206 232 294 342
#     4  11  21  34  56  84 118 155 197 247 295 349
#     4  12  25  41  62  89 121 161 196 241 289 350
#
# _framework density 19.635590000000001
#
# number of rings (size 3 to 8) (size 9 to 14) (size 15 to 20)
#    0.000    1.882    2.353    3.529    1.647    0.471 
#    0.000    1.176    0.000    3.529    0.000    0.000 
#    0.000    0.000    0.000    0.000    0.000    0.000 
#
# Total GULP energy -189388.151753 kJ/mol
# GULP energy per Si atom -5570.239757 kJ/mol
# Density = 1.959090 g / cm^3
# Si number density = 19.635590 Si / 1000 Ang^3
#
#
#
# Elastic Constant Matrix: (Units=GPa)
#
#
# Indices 1 2 3 4 5 6 
#
# 1 109.6095 48.7797 22.4148 0.0000 0.0000 0.0000
# 2 48.7797 40.5429 22.4392 0.0000 0.0000 0.0000
# 3 22.4148 22.4392 113.7886 0.0000 0.0000 0.0000
# 4 0.0000 0.0000 0.0000 8.8498 0.0000 0.0000
# 5 0.0000 0.0000 0.0000 0.0000 26.6186 0.0000
# 6 0.0000 0.0000 0.0000 0.0000 0.0000 -38.1980
#
#
#
# Elastic Compliance Matrix: (Units=1/GPa)
#
#
# Indices 1 2 3 4 5 6 
#
# 1 0.019719 -0.024219 0.000892 0.000000 0.000000 0.000000
# 2 -0.024219 0.057432 -0.006555 0.000000 0.000000 0.000000
# 3 0.000892 -0.006555 0.009905 0.000000 0.000000 0.000000
# 4 0.000000 0.000000 0.000000 0.112997 0.000000 0.000000
# 5 0.000000 0.000000 0.000000 0.000000 0.037568 0.000000
# 6 0.000000 0.000000 0.000000 0.000000 0.000000 -0.026179
#
#
# Mechanical properties :
#
#
# Convention : Reuss Voigt Hill
#
# Bulk Modulus (GPa) = 36.64029 50.13427 43.38728
# Shear Modulus (GPa) = 17.83786 10.80791 14.32288
#
# Velocity S-wave (km/s) = 3.01731 2.34866 2.70374
# Velocity P-wave (km/s) = 5.55334 5.73957 5.64722
#
# Compressibility (1/GPa) = 0.02729236
#
# Stress axis : x y z
#
# Youngs Moduli (GPa) = 50.71245 17.41189 100.95675
#
# Poissons Ratio (x) = 0.42169 -0.09001
# Poissons Ratio (y) = 1.22818 0.66176
# Poissons Ratio (z) = -0.04521 0.11413
#
# Static dielectric constant tensor:
#      x y z
#    x 1.697150 0.000000 0.000000 
#    y 0.000000 1.710490 0.000000 
#    z 0.000000 0.000000 1.732760 
# 
# From -- ./inp_files/6291.got.cif
#   From: 2010.05.17/outbox.cif.g08.bks.cpg/sg63_4_cif.got.tgz:6291.got - 2010.06.03 15:47:04.
