data_PCOD9475321
_publ_section_title
;
Structure prediction by ZEFSAII (Michael W. Deem and Ramdas Pophale) SiO2 
 PCOD9475321
Probable space group: C M C M
;
_chemical_formula_sum "Si O2"
_cell_formula_units_Z 56
_cell_length_a 17.611278
_cell_length_b 8.959711
_cell_length_c 17.483141
_cell_angle_alpha 90.000000
_cell_angle_beta 90.000000
_cell_angle_gamma 90.000000
_cell_volume 2758.699107
_symmetry_space_group_name_H-M "C M C M"
_symmetry_group_IT_number 63
_symmetry_cell_setting 'orthorhombic'
loop_
_space_group_symop_operation_xyz
x,y,z
-x,-y,1/2+z
x,-y,-z
-x,y,1/2-z
-x,-y,-z
x,y,1/2-z
-x,y,z
x,-y,1/2+z
1/2+x,1/2+y,z
1/2-x,1/2-y,1/2+z
1/2+x,1/2-y,-z
1/2-x,1/2+y,1/2-z
1/2-x,1/2-y,-z
1/2+x,1/2+y,1/2-z
1/2-x,1/2+y,z
1/2+x,1/2-y,1/2+z
loop_
_atom_site_type_symbol
_atom_site_label
_atom_site_fract_x
_atom_site_fract_y
_atom_site_fract_z
Si Si1 0.789770 0.794813 0.250000
Si Si2 0.500000 0.705865 0.166769
Si Si3 0.749990 0.000000 0.500000
Si Si4 0.842586 0.244942 0.584930
Si Si5 0.000000 0.818709 0.007238
Si Si6 0.359195 0.615528 0.250000
O O1 0.829957 0.733827 0.325628
O O2 0.700486 0.751711 0.250000
O O3 0.807110 0.970824 0.250000
O O4 0.500000 0.796646 0.250000
O O5 0.500000 0.752148 0.078708
O O6 0.419917 0.619189 0.179780
O O7 0.800868 0.092478 0.559231
O O8 0.699046 0.119683 0.456912
O O9 0.926991 0.231630 0.554206
O O10 0.000000 0.000000 0.000000
#
# Coordination Sequence:
#
# PCOD9475321 Si02
#       6
#     8   8   8  16   8   8
#     4  12  22  40  64 102 120 174 202 280 302 392
#     4   8  22  40  60  88 120 173 205 258 303 394
#     4  10  24  42  62 100 122 174 210 278 308 384
#     4  11  25  40  67  92 136 164 221 255 330 374
#     4  12  22  40  63  95 127 174 208 262 319 386
#     4   9  22  38  68  89 126 156 226 255 320 364
#
# _framework density 20.299423000000001
#
# number of rings (size 3 to 8) (size 9 to 14) (size 15 to 20)
#    0.857    0.571    1.429    3.429    8.000    1.143 
#    0.000    0.000    0.000    3.429    0.000    0.000 
#    0.000    0.000    0.000    0.000    0.000    0.000 
#
# Total GULP energy -156137.556471 kJ/mol
# GULP energy per Si atom -5576.341303 kJ/mol
# Density = 2.025322 g / cm^3
# Si number density = 20.299423 Si / 1000 Ang^3
#
#
#
# Elastic Constant Matrix: (Units=GPa)
#
#
# Indices 1 2 3 4 5 6 
#
# 1 198.5902 58.6149 75.4247 0.0000 0.0000 0.0000
# 2 58.6149 48.7301 10.4555 0.0000 0.0000 0.0000
# 3 75.4247 10.4555 163.6563 0.0000 0.0000 0.0000
# 4 0.0000 0.0000 0.0000 6.7044 0.0000 0.0000
# 5 0.0000 0.0000 0.0000 0.0000 16.5596 0.0000
# 6 0.0000 0.0000 0.0000 0.0000 0.0000 2.4421
#
#
#
# Elastic Compliance Matrix: (Units=1/GPa)
#
#
# Indices 1 2 3 4 5 6 
#
# 1 0.009651 -0.010803 -0.003758 0.000000 0.000000 0.000000
# 2 -0.010803 0.032898 0.002877 0.000000 0.000000 0.000000
# 3 -0.003758 0.002877 0.007658 0.000000 0.000000 0.000000
# 4 0.000000 0.000000 0.000000 0.149157 0.000000 0.000000
# 5 0.000000 0.000000 0.000000 0.000000 0.060388 0.000000
# 6 0.000000 0.000000 0.000000 0.000000 0.000000 0.409476
#
#
# Mechanical properties :
#
#
# Convention : Reuss Voigt Hill
#
# Bulk Modulus (GPa) = 37.25727 77.77407 57.51567
# Shear Modulus (GPa) = 7.12716 22.90665 15.01690
#
# Velocity S-wave (km/s) = 1.87580 3.36287 2.72282
# Velocity P-wave (km/s) = 4.80471 7.31267 6.18710
#
# Compressibility (1/GPa) = 0.02684040
#
# Stress axis : x y z
#
# Youngs Moduli (GPa) = 103.61443 30.39710 130.57483
#
# Poissons Ratio (x) = 0.32837 0.49068
# Poissons Ratio (y) = 1.11931 -0.37565
# Poissons Ratio (z) = 0.38936 -0.08745
#
# Static dielectric constant tensor:
#      x y z
#    x 1.622930 0.000000 0.000000 
#    y 0.000000 1.737890 0.000000 
#    z 0.000000 0.000000 1.720000 
# 
# From -- ./inp_files/53712.got.cif
#   From: 2010.05.17/outbox.cif.g08.bks.cpg/sg63_27_cif.got.tgz:53712.got - 2010.06.03 15:47:04.
