data_PCOD9475671
_publ_section_title
;
Structure prediction by ZEFSAII (Michael W. Deem and Ramdas Pophale) SiO2 
 PCOD9475671
Probable space group: C M C M
;
_chemical_formula_sum "Si O2"
_cell_formula_units_Z 112
_cell_length_a 28.579897
_cell_length_b 11.527056
_cell_length_c 15.232884
_cell_angle_alpha 90.000000
_cell_angle_beta 90.000000
_cell_angle_gamma 90.000000
_cell_volume 5018.352886
_symmetry_space_group_name_H-M "C M C M"
_symmetry_group_IT_number 63
_symmetry_cell_setting 'orthorhombic'
loop_
_space_group_symop_operation_xyz
x,y,z
-x,-y,1/2+z
x,-y,-z
-x,y,1/2-z
-x,-y,-z
x,y,1/2-z
-x,y,z
x,-y,1/2+z
1/2+x,1/2+y,z
1/2-x,1/2-y,1/2+z
1/2+x,1/2-y,-z
1/2-x,1/2+y,1/2-z
1/2-x,1/2-y,-z
1/2+x,1/2+y,1/2-z
1/2-x,1/2+y,z
1/2+x,1/2-y,1/2+z
loop_
_atom_site_type_symbol
_atom_site_label
_atom_site_fract_x
_atom_site_fract_y
_atom_site_fract_z
Si Si1 0.604493 0.699496 0.655021
Si Si2 0.947045 0.231673 0.022381
Si Si3 0.298929 0.790583 0.902248
Si Si4 0.388168 0.422837 0.847931
Si Si5 0.843129 0.487112 0.147138
Si Si6 0.551453 0.958179 0.354396
Si Si7 0.194052 0.233636 0.396155
O O1 0.583528 0.731476 0.750000
O O2 0.577139 0.746655 0.571295
O O3 0.657763 0.741979 0.651853
O O4 0.606770 0.560311 0.647215
O O5 0.918669 0.137704 0.077915
O O6 0.947596 0.347229 0.081727
O O7 0.000000 0.193055 0.008941
O O8 0.247581 0.767505 0.864995
O O9 0.309575 0.927970 0.906885
O O10 0.303116 0.733605 0.998248
O O11 0.403315 0.385453 0.750000
O O12 0.335782 0.374761 0.862326
O O13 0.834530 0.508266 0.250000
O O14 0.897813 0.514757 0.128966
O O15 0.832411 0.352258 0.129473
O O16 0.552525 0.927274 0.250000
O O17 0.500000 0.016014 0.369609
#
# Coordination Sequence:
#
# PCOD9475671 Si02
#       7
#    16  16  16  16  16  16  16
#     4  11  25  43  63  92 135 177 218 264 319 392
#     4  11  22  40  67  97 129 168 216 273 330 386
#     4  11  25  43  65  94 129 178 222 263 328 400
#     4  11  23  41  67  97 128 167 217 273 328 388
#     4  11  22  39  65  96 135 171 214 275 332 395
#     4   9  18  36  66 102 135 172 223 281 335 387
#     4  11  24  42  67  94 129 170 221 275 325 389
#
# _framework density 22.318079999999998
#
# number of rings (size 3 to 8) (size 9 to 14) (size 15 to 20)
#    0.000    1.286    2.857    2.143    2.000    4.571 
#    0.000    2.143    0.000    4.286    0.000    0.000 
#    0.000    0.000    0.000    0.000    0.000    0.000 
#
# Total GULP energy -313212.515093 kJ/mol
# GULP energy per Si atom -5593.080627 kJ/mol
# Density = 2.226728 g / cm^3
# Si number density = 22.318080 Si / 1000 Ang^3
#
#
#
# Elastic Constant Matrix: (Units=GPa)
#
#
# Indices 1 2 3 4 5 6 
#
# 1 148.9936 11.4464 43.1909 0.0000 0.0000 0.0000
# 2 11.4464 34.7988 20.3118 0.0000 0.0000 0.0000
# 3 43.1909 20.3118 116.3626 0.0000 0.0000 0.0000
# 4 0.0000 0.0000 0.0000 -41.6963 0.0000 0.0000
# 5 0.0000 0.0000 0.0000 0.0000 7.7496 0.0000
# 6 0.0000 0.0000 0.0000 0.0000 0.0000 8.6926
#
#
#
# Elastic Compliance Matrix: (Units=1/GPa)
#
#
# Indices 1 2 3 4 5 6 
#
# 1 0.007549 -0.000944 -0.002637 0.000000 0.000000 0.000000
# 2 -0.000944 0.032115 -0.005256 0.000000 0.000000 0.000000
# 3 -0.002637 -0.005256 0.010490 0.000000 0.000000 0.000000
# 4 0.000000 0.000000 0.000000 -0.023983 0.000000 0.000000
# 5 0.000000 0.000000 0.000000 0.000000 0.129040 0.000000
# 6 0.000000 0.000000 0.000000 0.000000 0.000000 0.115041
#
#
# Mechanical properties :
#
#
# Convention : Reuss Voigt Hill
#
# Bulk Modulus (GPa) = 30.78763 50.00594 40.39678
# Shear Modulus (GPa) = 16.73639 9.96289 13.34964
#
# Velocity S-wave (km/s) = 2.74141 2.11512 2.44837
# Velocity P-wave (km/s) = 4.88316 5.33101 5.11199
#
# Compressibility (1/GPa) = 0.03248058
#
# Stress axis : x y z
#
# Youngs Moduli (GPa) = 132.47376 31.13846 95.32835
#
# Poissons Ratio (x) = 0.02939 0.25140
# Poissons Ratio (y) = 0.12502 0.50100
# Poissons Ratio (z) = 0.34935 0.16365
#
# Static dielectric constant tensor:
#      x y z
#    x 1.806090 0.000000 0.000000 
#    y 0.000000 1.830910 0.000000 
#    z 0.000000 0.000000 1.837410 
# 
# From -- ./inp_files/38495.got.cif
#   From: 2010.05.17/outbox.cif.g08.bks.cpg/sg63_20_cif.got.tgz:38495.got - 2010.06.03 15:47:04.
