data_PCOD9475190
_publ_section_title
;
Structure prediction by ZEFSAII (Michael W. Deem and Ramdas Pophale) SiO2 
 PCOD9475190
Probable space group: C M C M
;
_chemical_formula_sum "Si O2"
_cell_formula_units_Z 64
_cell_length_a 14.951301
_cell_length_b 5.337400
_cell_length_c 30.741170
_cell_angle_alpha 90.000000
_cell_angle_beta 90.000000
_cell_angle_gamma 90.000000
_cell_volume 2453.178381
_symmetry_space_group_name_H-M "C M C M"
_symmetry_group_IT_number 63
_symmetry_cell_setting 'orthorhombic'
loop_
_space_group_symop_operation_xyz
x,y,z
-x,-y,1/2+z
x,-y,-z
-x,y,1/2-z
-x,-y,-z
x,y,1/2-z
-x,y,z
x,-y,1/2+z
1/2+x,1/2+y,z
1/2-x,1/2-y,1/2+z
1/2+x,1/2-y,-z
1/2-x,1/2+y,1/2-z
1/2-x,1/2-y,-z
1/2+x,1/2+y,1/2-z
1/2-x,1/2+y,z
1/2+x,1/2-y,1/2+z
loop_
_atom_site_type_symbol
_atom_site_label
_atom_site_fract_x
_atom_site_fract_y
_atom_site_fract_z
Si Si1 0.500000 0.024585 0.051186
Si Si2 0.000000 0.237571 0.201158
Si Si3 0.357409 0.892411 0.669267
Si Si4 0.000000 0.100622 0.616769
Si Si5 0.197280 0.594086 0.584700
Si Si6 0.803242 0.891197 0.250000
O O1 0.500000 0.320685 0.066115
O O2 0.406946 0.898824 0.069163
O O3 0.500000 0.000000 0.000000
O O4 0.914810 0.417981 0.198403
O O5 0.000000 0.111785 0.250000
O O6 0.000000 0.121895 0.151959
O O7 0.414119 0.753754 0.632663
O O8 0.297357 0.069903 0.638088
O O9 0.344736 0.668899 0.703729
O O10 0.249618 0.844009 0.570158
O O11 0.730385 0.669610 0.250000
#
# Coordination Sequence:
#
# PCOD9475190 Si02
#       6
#     8   8  16   8  16   8
#     4  10  25  52  81 117 158 205 268 337 411 498
#     4  11  22  37  68 101 143 198 256 313 384 461
#     4  10  23  40  60  97 141 192 250 307 371 455
#     4   9  23  39  69  97 138 190 249 312 391 452
#     4  11  26  48  79 114 158 204 257 325 397 473
#     4  12  26  37  56  87 128 186 242 302 364 429
#
# _framework density 26.088605999999999
#
# number of rings (size 3 to 8) (size 9 to 14) (size 15 to 20)
#    0.000    1.500    1.250    2.250   12.250    2.000 
#    0.000    1.250    0.000    0.000    0.000    0.000 
#    0.000    0.000    0.000    0.000    0.000    0.000 
#
# Total GULP energy -178275.261323 kJ/mol
# GULP energy per Si atom -5571.101916 kJ/mol
# Density = 2.602923 g / cm^3
# Si number density = 26.088606 Si / 1000 Ang^3
#
#
#
# Elastic Constant Matrix: (Units=GPa)
#
#
# Indices 1 2 3 4 5 6 
#
# 1 103.0222 43.9676 27.6262 0.0000 0.0000 0.0000
# 2 43.9676 94.0744 -8.4246 0.0000 0.0000 0.0000
# 3 27.6262 -8.4246 117.2654 0.0000 0.0000 0.0000
# 4 0.0000 0.0000 0.0000 175.0649 0.0000 0.0000
# 5 0.0000 0.0000 0.0000 0.0000 29.3431 0.0000
# 6 0.0000 0.0000 0.0000 0.0000 0.0000 50.8055
#
#
#
# Elastic Compliance Matrix: (Units=1/GPa)
#
#
# Indices 1 2 3 4 5 6 
#
# 1 0.013528 -0.006651 -0.003665 0.000000 0.000000 0.000000
# 2 -0.006651 0.013968 0.002570 0.000000 0.000000 0.000000
# 3 -0.003665 0.002570 0.009576 0.000000 0.000000 0.000000
# 4 0.000000 0.000000 0.000000 0.005712 0.000000 0.000000
# 5 0.000000 0.000000 0.000000 0.000000 0.034080 0.000000
# 6 0.000000 0.000000 0.000000 0.000000 0.000000 0.019683
#
#
# Mechanical properties :
#
#
# Convention : Reuss Voigt Hill
#
# Bulk Modulus (GPa) = 46.33565 48.96670 47.65118
# Shear Modulus (GPa) = 41.93557 67.78888 54.86223
#
# Velocity S-wave (km/s) = 4.01362 5.10299 4.59073
# Velocity P-wave (km/s) = 6.26724 7.31647 6.81209
#
# Compressibility (1/GPa) = 0.02158165
#
# Stress axis : x y z
#
# Youngs Moduli (GPa) = 73.92227 71.59020 104.43113
#
# Poissons Ratio (x) = 0.47612 0.38271
# Poissons Ratio (y) = 0.49163 -0.26842
# Poissons Ratio (z) = 0.27091 -0.18401
#
# Static dielectric constant tensor:
#      x y z
#    x 2.228410 0.000000 0.000000 
#    y 0.000000 2.128820 0.000000 
#    z 0.000000 0.000000 1.813940 
# 
# From -- ./inp_files/73694.got.cif
#   From: 2010.05.17/outbox.cif.g08.bks.cpg/sg63_37_cif.got.tgz:73694.got - 2010.06.03 15:47:04.
