data_PCOD9475005
_publ_section_title
;
Structure prediction by ZEFSAII (Michael W. Deem and Ramdas Pophale) SiO2 
 PCOD9475005
Probable space group: C M C M
;
_chemical_formula_sum "Si O2"
_cell_formula_units_Z 80
_cell_length_a 11.431979
_cell_length_b 20.564443
_cell_length_c 19.064352
_cell_angle_alpha 90.000000
_cell_angle_beta 90.000000
_cell_angle_gamma 90.000000
_cell_volume 4481.881988
_symmetry_space_group_name_H-M "C M C M"
_symmetry_group_IT_number 63
_symmetry_cell_setting 'orthorhombic'
loop_
_space_group_symop_operation_xyz
x,y,z
-x,-y,1/2+z
x,-y,-z
-x,y,1/2-z
-x,-y,-z
x,y,1/2-z
-x,y,z
x,-y,1/2+z
1/2+x,1/2+y,z
1/2-x,1/2-y,1/2+z
1/2+x,1/2-y,-z
1/2-x,1/2+y,1/2-z
1/2-x,1/2-y,-z
1/2+x,1/2+y,1/2-z
1/2-x,1/2+y,z
1/2+x,1/2-y,1/2+z
loop_
_atom_site_type_symbol
_atom_site_label
_atom_site_fract_x
_atom_site_fract_y
_atom_site_fract_z
Si Si1 0.000000 0.461146 0.387303
Si Si2 0.000000 0.401954 0.543142
Si Si3 0.245439 0.931266 0.332994
Si Si4 0.763109 0.674701 0.426834
Si Si5 0.859549 0.186071 0.576138
Si Si6 0.136059 0.929824 0.666089
O O1 0.883212 0.438262 0.348339
O O2 0.000000 0.431145 0.465191
O O3 0.000000 0.538900 0.400872
O O4 0.115297 0.359093 0.551864
O O5 0.224545 0.921545 0.250000
O O6 0.188591 0.873649 0.378007
O O7 0.189234 0.000420 0.354726
O O8 0.796168 0.746886 0.401486
O O9 0.680103 0.677540 0.495193
O O10 0.702872 0.629211 0.369793
O O11 0.000000 0.190784 0.581564
O O12 0.146098 0.925188 0.750000
O O13 0.000000 0.928031 0.646779
#
# Coordination Sequence:
#
# PCOD9475005 Si02
#       6
#     8   8  16  16  16  16
#     4  11  21  38  64  92 123 157 198 250 309 352
#     4  11  20  38  66  92 120 153 196 260 302 356
#     4  11  23  40  61  88 122 160 202 248 299 359
#     4  11  22  41  63  89 121 155 202 248 304 360
#     4  11  24  39  62  89 121 161 200 248 303 358
#     4  10  22  41  63  87 119 157 197 246 300 357
#
# _framework density 17.849644000000001
#
# number of rings (size 3 to 8) (size 9 to 14) (size 15 to 20)
#    0.000    1.200    5.000    1.500    0.000    2.800 
#    1.800    2.500    0.000    0.000    0.000    0.000 
#    0.000    0.000    0.000    0.000    0.000    0.000 
#
# Total GULP energy -223455.213725 kJ/mol
# GULP energy per Si atom -5586.380343 kJ/mol
# Density = 1.780902 g / cm^3
# Si number density = 17.849644 Si / 1000 Ang^3
#
#
#
# Elastic Constant Matrix: (Units=GPa)
#
#
# Indices 1 2 3 4 5 6 
#
# 1 129.8102 75.8215 38.4957 0.0000 0.0000 0.0000
# 2 75.8215 156.3300 49.1818 0.0000 0.0000 0.0000
# 3 38.4957 49.1818 36.0417 0.0000 0.0000 0.0000
# 4 0.0000 0.0000 0.0000 34.1714 0.0000 0.0000
# 5 0.0000 0.0000 0.0000 0.0000 -113.4846 0.0000
# 6 0.0000 0.0000 0.0000 0.0000 0.0000 29.6245
#
#
#
# Elastic Compliance Matrix: (Units=1/GPa)
#
#
# Indices 1 2 3 4 5 6 
#
# 1 0.012105 -0.003160 -0.008617 0.000000 0.000000 0.000000
# 2 -0.003160 0.012034 -0.013046 0.000000 0.000000 0.000000
# 3 -0.008617 -0.013046 0.054751 0.000000 0.000000 0.000000
# 4 0.000000 0.000000 0.000000 0.029264 0.000000 0.000000
# 5 0.000000 0.000000 0.000000 0.000000 -0.008812 0.000000
# 6 0.000000 0.000000 0.000000 0.000000 0.000000 0.033756
#
#
# Mechanical properties :
#
#
# Convention : Reuss Voigt Hill
#
# Bulk Modulus (GPa) = 34.19464 72.13110 53.16287
# Shear Modulus (GPa) = 25.97542 0.64112 13.30827
#
# Velocity S-wave (km/s) = 3.81889 0.59996 2.73349
# Velocity P-wave (km/s) = 6.21642 6.40141 6.30959
#
# Compressibility (1/GPa) = 0.02924435
#
# Stress axis : x y z
#
# Youngs Moduli (GPa) = 82.61318 83.10108 18.26461
#
# Poissons Ratio (x) = 0.26260 0.15738
# Poissons Ratio (y) = 0.26106 0.23827
# Poissons Ratio (z) = 0.71185 1.08410
#
# Static dielectric constant tensor:
#      x y z
#    x 1.588370 0.000000 0.000000 
#    y 0.000000 1.599950 0.000000 
#    z 0.000000 0.000000 1.581450 
# 
# From -- ./inp_files/42140.got.cif
#   From: 2010.05.17/outbox.cif.g08.bks.cpg/sg63_22_cif.got.tgz:42140.got - 2010.06.03 15:47:04.
