data_PCOD9475018
_publ_section_title
;
Structure prediction by ZEFSAII (Michael W. Deem and Ramdas Pophale) SiO2 
 PCOD9475018
Probable space group: C M C M
;
_chemical_formula_sum "Si O2"
_cell_formula_units_Z 112
_cell_length_a 13.535236
_cell_length_b 13.246841
_cell_length_c 27.581273
_cell_angle_alpha 90.000000
_cell_angle_beta 90.000000
_cell_angle_gamma 90.000000
_cell_volume 4945.297955
_symmetry_space_group_name_H-M "C M C M"
_symmetry_group_IT_number 63
_symmetry_cell_setting 'orthorhombic'
loop_
_space_group_symop_operation_xyz
x,y,z
-x,-y,1/2+z
x,-y,-z
-x,y,1/2-z
-x,-y,-z
x,y,1/2-z
-x,y,z
x,-y,1/2+z
1/2+x,1/2+y,z
1/2-x,1/2-y,1/2+z
1/2+x,1/2-y,-z
1/2-x,1/2+y,1/2-z
1/2-x,1/2-y,-z
1/2+x,1/2+y,1/2-z
1/2-x,1/2+y,z
1/2+x,1/2-y,1/2+z
loop_
_atom_site_type_symbol
_atom_site_label
_atom_site_fract_x
_atom_site_fract_y
_atom_site_fract_z
Si Si1 0.391196 0.564826 0.853543
Si Si2 0.886324 0.273055 0.042992
Si Si3 0.609517 0.914190 0.541787
Si Si4 0.315790 0.636720 0.306568
Si Si5 0.811564 0.339205 0.359676
Si Si6 0.678445 0.545562 0.446362
Si Si7 0.610079 0.033593 0.307183
O O1 0.500000 0.606546 0.845871
O O2 0.373677 0.464381 0.821560
O O3 0.301373 0.640488 0.844410
O O4 0.377359 0.524419 0.908437
O O5 0.820848 0.330730 0.082423
O O6 0.870116 0.155022 0.049237
O O7 0.000000 0.299301 0.053937
O O8 0.868566 0.312119 0.988585
O O9 0.500000 0.909185 0.564458
O O10 0.708054 0.937507 0.571439
O O11 0.603742 0.000000 0.500000
O O12 0.329340 0.658474 0.250000
O O13 0.346389 0.732917 0.337964
O O14 0.200466 0.609766 0.315755
O O15 0.872414 0.432777 0.338418
O O16 0.680857 0.500000 0.500000
O O17 0.617281 0.005620 0.250000
O O18 0.500000 0.074065 0.315766
#
# Coordination Sequence:
#
# PCOD9475018 Si02
#       7
#    16  16  16  16  16  16  16
#     4  11  25  43  63  94 132 169 213 264 321 383
#     4  11  22  37  61  89 120 163 210 256 312 378
#     4   9  19  36  58  86 118 155 201 253 309 366
#     4  10  22  41  64  90 125 165 205 255 314 377
#     4  11  21  38  63  90 123 160 206 260 308 370
#     4  11  22  40  62  87 125 170 211 262 316 377
#     4   9  19  36  59  88 118 151 195 247 304 366
#
# _framework density 22.647774999999999
#
# number of rings (size 3 to 8) (size 9 to 14) (size 15 to 20)
#    0.000    1.714    1.429    3.429    0.000    3.143 
#    0.000    5.000    0.000    0.000    0.000    0.000 
#    0.000    0.000    0.000    0.000    0.000    0.000 
#
# Total GULP energy -313300.447521 kJ/mol
# GULP energy per Si atom -5594.650849 kJ/mol
# Density = 2.259623 g / cm^3
# Si number density = 22.647775 Si / 1000 Ang^3
#
#
#
# Elastic Constant Matrix: (Units=GPa)
#
#
# Indices 1 2 3 4 5 6 
#
# 1 86.8973 -23.6234 -5.1201 0.0000 0.0000 0.0000
# 2 -23.6234 53.4092 8.4117 0.0000 0.0000 0.0000
# 3 -5.1201 8.4117 69.6701 0.0000 0.0000 0.0000
# 4 0.0000 0.0000 0.0000 26.0007 0.0000 0.0000
# 5 0.0000 0.0000 0.0000 0.0000 19.0572 0.0000
# 6 0.0000 0.0000 0.0000 0.0000 0.0000 9.1567
#
#
#
# Elastic Compliance Matrix: (Units=1/GPa)
#
#
# Indices 1 2 3 4 5 6 
#
# 1 0.013086 0.005746 0.000268 0.000000 0.000000 0.000000
# 2 0.005746 0.021609 -0.002187 0.000000 0.000000 0.000000
# 3 0.000268 -0.002187 0.014637 0.000000 0.000000 0.000000
# 4 0.000000 0.000000 0.000000 0.038460 0.000000 0.000000
# 5 0.000000 0.000000 0.000000 0.000000 0.052474 0.000000
# 6 0.000000 0.000000 0.000000 0.000000 0.000000 0.109210
#
#
# Mechanical properties :
#
#
# Convention : Reuss Voigt Hill
#
# Bulk Modulus (GPa) = 17.54831 18.81258 18.18045
# Shear Modulus (GPa) = 19.17052 26.19680 22.68366
#
# Velocity S-wave (km/s) = 2.91256 3.40473 3.16822
# Velocity P-wave (km/s) = 4.36759 4.87656 4.62908
#
# Compressibility (1/GPa) = 0.05698554
#
# Stress axis : x y z
#
# Youngs Moduli (GPa) = 76.41985 46.27672 68.31965
#
# Poissons Ratio (x) = -0.26589 -0.01831
# Poissons Ratio (y) = -0.43908 0.14940
# Poissons Ratio (z) = -0.02048 0.10120
#
# Static dielectric constant tensor:
#      x y z
#    x 1.865320 0.000000 0.000000 
#    y 0.000000 1.805770 0.000000 
#    z 0.000000 0.000000 1.827950 
# 
# From -- ./inp_files/69418.got.cif
#   From: 2010.05.17/outbox.cif.g08.bks.cpg/sg63_35_cif.got.tgz:69418.got - 2010.06.03 15:47:04.
