data_PCOD9475618
_publ_section_title
;
Structure prediction by ZEFSAII (Michael W. Deem and Ramdas Pophale) SiO2 
 PCOD9475618
Probable space group: C M C M
;
_chemical_formula_sum "Si O2"
_cell_formula_units_Z 96
_cell_length_a 26.419105
_cell_length_b 23.674484
_cell_length_c 8.500042
_cell_angle_alpha 90.000000
_cell_angle_beta 90.000000
_cell_angle_gamma 90.000000
_cell_volume 5316.425038
_symmetry_space_group_name_H-M "C M C M"
_symmetry_group_IT_number 63
_symmetry_cell_setting 'orthorhombic'
loop_
_space_group_symop_operation_xyz
x,y,z
-x,-y,1/2+z
x,-y,-z
-x,y,1/2-z
-x,-y,-z
x,y,1/2-z
-x,y,z
x,-y,1/2+z
1/2+x,1/2+y,z
1/2-x,1/2-y,1/2+z
1/2+x,1/2-y,-z
1/2-x,1/2+y,1/2-z
1/2-x,1/2-y,-z
1/2+x,1/2+y,1/2-z
1/2-x,1/2+y,z
1/2+x,1/2-y,1/2+z
loop_
_atom_site_type_symbol
_atom_site_label
_atom_site_fract_x
_atom_site_fract_y
_atom_site_fract_z
Si Si1 0.304780 0.737991 0.066811
Si Si2 0.745740 0.063031 0.437610
Si Si3 0.057715 0.176536 0.060516
Si Si4 0.154760 0.124686 0.568011
Si Si5 0.559209 0.808555 0.439354
Si Si6 0.844858 0.351287 0.937273
O O1 0.305031 0.720859 0.250000
O O2 0.250000 0.750000 0.000000
O O3 0.326562 0.688392 0.961657
O O4 0.332471 0.796586 0.041215
O O5 0.747059 0.062664 0.250000
O O6 0.799920 0.087589 0.494507
O O7 0.696846 0.101566 0.482489
O O8 0.739189 0.000000 0.500000
O O9 0.059840 0.177389 0.250000
O O10 0.068480 0.242209 0.012139
O O11 0.000000 0.163814 0.012081
O O12 0.098389 0.130496 0.003116
O O13 0.151314 0.110200 0.750000
O O14 0.566241 0.811362 0.250000
O O15 0.500000 0.818950 0.471572
O O16 0.595470 0.854032 0.524296
O O17 0.838274 0.340874 0.750000
#
# Coordination Sequence:
#
# PCOD9475618 Si02
#       6
#    16  16  16  16  16  16
#     4  12  22  33  51  79 114 149 185 225 276 338
#     4  11  25  43  61  81 110 145 190 239 287 339
#     4   9  18  33  53  80 117 156 190 227 273 326
#     4  12  23  35  56  84 116 151 187 229 281 337
#     4   9  18  32  52  80 116 155 189 225 273 330
#     4  11  22  35  55  83 114 148 183 230 283 337
#
# _framework density 18.057245999999999
#
# number of rings (size 3 to 8) (size 9 to 14) (size 15 to 20)
#    0.000    1.333    3.333    5.000    0.000    2.667 
#    0.000    1.667    0.000    1.000    0.000    0.000 
#    0.000    0.000    0.000    0.000    0.000    0.000 
#
# Total GULP energy -267507.762877 kJ/mol
# GULP energy per Si atom -5573.078393 kJ/mol
# Density = 1.801615 g / cm^3
# Si number density = 18.057246 Si / 1000 Ang^3
#
#
#
# Elastic Constant Matrix: (Units=GPa)
#
#
# Indices 1 2 3 4 5 6 
#
# 1 131.2259 32.0748 25.0630 0.0000 0.0000 0.0000
# 2 32.0748 56.9304 8.5171 0.0000 0.0000 0.0000
# 3 25.0630 8.5171 41.5357 0.0000 0.0000 0.0000
# 4 0.0000 0.0000 0.0000 23.9106 0.0000 0.0000
# 5 0.0000 0.0000 0.0000 0.0000 32.1972 0.0000
# 6 0.0000 0.0000 0.0000 0.0000 0.0000 9.9605
#
#
#
# Elastic Compliance Matrix: (Units=1/GPa)
#
#
# Indices 1 2 3 4 5 6 
#
# 1 0.009713 -0.004741 -0.004889 0.000000 0.000000 0.000000
# 2 -0.004741 0.020435 -0.001330 0.000000 0.000000 0.000000
# 3 -0.004889 -0.001330 0.027298 0.000000 0.000000 0.000000
# 4 0.000000 0.000000 0.000000 0.041822 0.000000 0.000000
# 5 0.000000 0.000000 0.000000 0.000000 0.031059 0.000000
# 6 0.000000 0.000000 0.000000 0.000000 0.000000 0.100397
#
#
# Mechanical properties :
#
#
# Convention : Reuss Voigt Hill
#
# Bulk Modulus (GPa) = 28.14691 40.11130 34.12911
# Shear Modulus (GPa) = 18.90463 24.14947 21.52705
#
# Velocity S-wave (km/s) = 3.23914 3.66099 3.45651
# Velocity P-wave (km/s) = 5.44158 6.33499 5.90521
#
# Compressibility (1/GPa) = 0.03552788
#
# Stress axis : x y z
#
# Youngs Moduli (GPa) = 102.95530 48.93496 36.63246
#
# Poissons Ratio (x) = 0.23200 0.17909
# Poissons Ratio (y) = 0.48810 0.04871
# Poissons Ratio (z) = 0.50332 0.06506
#
# Static dielectric constant tensor:
#      x y z
#    x 1.745890 0.000000 0.000000 
#    y 0.000000 1.609350 0.000000 
#    z 0.000000 0.000000 1.571130 
# 
# From -- ./inp_files/12378.got.cif
#   From: 2010.05.17/outbox.cif.g08.bks.cpg/sg63_7_cif.got.tgz:12378.got - 2010.06.03 15:47:04.
