data_PCOD9475815
_publ_section_title
;
Structure prediction by ZEFSAII (Michael W. Deem and Ramdas Pophale) SiO2 
 PCOD9475815
Probable space group: C M C M
;
_chemical_formula_sum "Si O2"
_cell_formula_units_Z 96
_cell_length_a 20.390750
_cell_length_b 14.250468
_cell_length_c 17.241864
_cell_angle_alpha 90.000000
_cell_angle_beta 90.000000
_cell_angle_gamma 90.000000
_cell_volume 5010.101708
_symmetry_space_group_name_H-M "C M C M"
_symmetry_group_IT_number 63
_symmetry_cell_setting 'orthorhombic'
loop_
_space_group_symop_operation_xyz
x,y,z
-x,-y,1/2+z
x,-y,-z
-x,y,1/2-z
-x,-y,-z
x,y,1/2-z
-x,y,z
x,-y,1/2+z
1/2+x,1/2+y,z
1/2-x,1/2-y,1/2+z
1/2+x,1/2-y,-z
1/2-x,1/2+y,1/2-z
1/2-x,1/2-y,-z
1/2+x,1/2+y,1/2-z
1/2-x,1/2+y,z
1/2+x,1/2-y,1/2+z
loop_
_atom_site_type_symbol
_atom_site_label
_atom_site_fract_x
_atom_site_fract_y
_atom_site_fract_z
Si Si1 0.370638 0.154718 0.101949
Si Si2 0.725867 0.351917 0.662043
Si Si3 0.573951 0.344024 0.342442
Si Si4 0.194229 0.954532 0.084447
Si Si5 0.423460 0.958286 0.157904
Si Si6 0.676498 0.175269 0.574548
O O1 0.303661 0.160088 0.151036
O O2 0.417874 0.236293 0.131541
O O3 0.401946 0.052894 0.113963
O O4 0.349210 0.170938 0.013235
O O5 0.707104 0.329360 0.750000
O O6 0.709910 0.458992 0.641282
O O7 0.690961 0.280048 0.603488
O O8 0.584431 0.350667 0.250000
O O9 0.500000 0.376468 0.359647
O O10 0.629880 0.401338 0.386691
O O11 0.255914 0.883737 0.081011
O O12 0.185867 0.000000 0.000000
O O13 0.414493 0.972958 0.250000
O O14 0.500000 0.938561 0.143397
O O15 0.377122 0.875408 0.128072
#
# Coordination Sequence:
#
# PCOD9475815 Si02
#       6
#    16  16  16  16  16  16
#     4  12  22  39  65  95 125 161 208 264 314 372
#     4  12  24  38  64  97 123 160 210 261 312 370
#     4  11  25  43  64  92 127 167 210 259 314 369
#     4  12  23  42  65  93 128 163 208 262 313 375
#     4  11  24  41  63  94 132 170 210 258 316 381
#     4  12  24  42  64  94 131 167 207 260 319 381
#
# _framework density 19.161287999999999
#
# number of rings (size 3 to 8) (size 9 to 14) (size 15 to 20)
#    0.000    0.333    5.000    5.000    0.000    5.000 
#    0.000    0.833    0.000    3.000    0.000    0.000 
#    0.000    0.000    0.000    0.000    0.000    0.000 
#
# Total GULP energy -268657.861984 kJ/mol
# GULP energy per Si atom -5597.038791 kJ/mol
# Density = 1.911768 g / cm^3
# Si number density = 19.161288 Si / 1000 Ang^3
#
#
#
# Elastic Constant Matrix: (Units=GPa)
#
#
# Indices 1 2 3 4 5 6 
#
# 1 91.6357 -3.8721 27.5713 0.0000 0.0000 0.0000
# 2 -3.8721 37.3635 -6.1187 0.0000 0.0000 0.0000
# 3 27.5713 -6.1187 60.8206 0.0000 0.0000 0.0000
# 4 0.0000 0.0000 0.0000 -208.1474 0.0000 0.0000
# 5 0.0000 0.0000 0.0000 0.0000 11.6542 0.0000
# 6 0.0000 0.0000 0.0000 0.0000 0.0000 27.0692
#
#
#
# Elastic Compliance Matrix: (Units=1/GPa)
#
#
# Indices 1 2 3 4 5 6 
#
# 1 0.012642 0.000378 -0.005693 0.000000 0.000000 0.000000
# 2 0.000378 0.027224 0.002567 0.000000 0.000000 0.000000
# 3 -0.005693 0.002567 0.019281 0.000000 0.000000 0.000000
# 4 0.000000 0.000000 0.000000 -0.004804 0.000000 0.000000
# 5 0.000000 0.000000 0.000000 0.000000 0.085806 0.000000
# 6 0.000000 0.000000 0.000000 0.000000 0.000000 0.036942
#
#
# Mechanical properties :
#
#
# Convention : Reuss Voigt Hill
#
# Bulk Modulus (GPa) = 18.63889 24.99787 21.81838
# Shear Modulus (GPa) = 24.94157 -22.40218 1.26970
#
# Velocity S-wave (km/s) = 3.61177 -3.42297 0.81491
# Velocity P-wave (km/s) = 5.20977 1.59624 3.50669
#
# Compressibility (1/GPa) = 0.05365126
#
# Stress axis : x y z
#
# Youngs Moduli (GPa) = 79.10423 36.73266 51.86533
#
# Poissons Ratio (x) = -0.01388 0.29525
# Poissons Ratio (y) = -0.02989 -0.13316
# Poissons Ratio (z) = 0.45031 -0.09431
#
# Static dielectric constant tensor:
#      x y z
#    x 1.654850 0.000000 0.000000 
#    y 0.000000 1.654080 0.000000 
#    z 0.000000 0.000000 1.433970 
# 
# From -- ./inp_files/35293.got.cif
#   From: 2010.05.17/outbox.cif.g08.bks.cpg/sg63_18_cif.got.tgz:35293.got - 2010.06.03 15:47:04.
