data_PCOD9475556
_publ_section_title
;
Structure prediction by ZEFSAII (Michael W. Deem and Ramdas Pophale) SiO2 
 PCOD9475556
Probable space group: C M C M
;
_chemical_formula_sum "Si O2"
_cell_formula_units_Z 96
_cell_length_a 23.302294
_cell_length_b 9.417010
_cell_length_c 24.737025
_cell_angle_alpha 90.000000
_cell_angle_beta 90.000000
_cell_angle_gamma 90.000000
_cell_volume 5428.241699
_symmetry_space_group_name_H-M "C M C M"
_symmetry_group_IT_number 63
_symmetry_cell_setting 'orthorhombic'
loop_
_space_group_symop_operation_xyz
x,y,z
-x,-y,1/2+z
x,-y,-z
-x,y,1/2-z
-x,-y,-z
x,y,1/2-z
-x,y,z
x,-y,1/2+z
1/2+x,1/2+y,z
1/2-x,1/2-y,1/2+z
1/2+x,1/2-y,-z
1/2-x,1/2+y,1/2-z
1/2-x,1/2-y,-z
1/2+x,1/2+y,1/2-z
1/2-x,1/2+y,z
1/2+x,1/2-y,1/2+z
loop_
_atom_site_type_symbol
_atom_site_label
_atom_site_fract_x
_atom_site_fract_y
_atom_site_fract_z
Si Si1 0.121593 0.752854 0.092825
Si Si2 0.765042 0.627695 0.457906
Si Si3 0.147017 0.088902 0.397672
Si Si4 0.437761 0.331200 0.987567
Si Si5 0.431777 0.073769 0.311864
Si Si6 0.066626 0.760583 0.814762
O O1 0.178223 0.671071 0.073875
O O2 0.097315 0.678029 0.145766
O O3 0.134613 0.920208 0.100707
O O4 0.077556 0.750741 0.042462
O O5 0.772975 0.500000 0.500000
O O6 0.750000 0.750000 0.500000
O O7 0.713344 0.605655 0.414895
O O8 0.112604 0.174967 0.444323
O O9 0.116485 0.150597 0.344180
O O10 0.500000 0.286351 0.966544
O O11 0.440588 0.500000 0.000000
O O12 0.411631 0.095093 0.250000
O O13 0.500000 0.099059 0.312629
O O14 0.423910 0.907150 0.325907
O O15 0.069371 0.779029 0.750000
O O16 0.000000 0.797133 0.830819
#
# Coordination Sequence:
#
# PCOD9475556 Si02
#       6
#    16  16  16  16  16  16
#     4  11  22  35  58  86 115 150 196 243 287 344
#     4  12  23  41  58  82 118 157 195 236 289 347
#     4  11  21  36  56  85 114 151 196 237 290 347
#     4   9  17  30  49  78 114 143 175 226 285 342
#     4   9  20  39  60  85 118 153 190 237 295 352
#     4   9  20  39  61  86 118 155 192 236 295 355
#
# _framework density 17.685283999999999
#
# number of rings (size 3 to 8) (size 9 to 14) (size 15 to 20)
#    0.000    1.833    3.333    2.500    2.333    2.667 
#    0.000    2.500    0.000    4.000    0.000    0.000 
#    0.000    0.000    0.000    0.000    0.000    0.000 
#
# Total GULP energy -267495.144208 kJ/mol
# GULP energy per Si atom -5572.815504 kJ/mol
# Density = 1.764503 g / cm^3
# Si number density = 17.685284 Si / 1000 Ang^3
#
#
#
# Elastic Constant Matrix: (Units=GPa)
#
#
# Indices 1 2 3 4 5 6 
#
# 1 99.8928 42.9776 49.2762 0.0000 0.0000 0.0000
# 2 42.9776 85.0600 52.1992 0.0000 0.0000 0.0000
# 3 49.2762 52.1992 88.6361 0.0000 0.0000 0.0000
# 4 0.0000 0.0000 0.0000 38.5985 0.0000 0.0000
# 5 0.0000 0.0000 0.0000 0.0000 16.6833 0.0000
# 6 0.0000 0.0000 0.0000 0.0000 0.0000 21.7442
#
#
#
# Elastic Compliance Matrix: (Units=1/GPa)
#
#
# Indices 1 2 3 4 5 6 
#
# 1 0.014511 -0.003729 -0.005871 0.000000 0.000000 0.000000
# 2 -0.003729 0.019368 -0.009333 0.000000 0.000000 0.000000
# 3 -0.005871 -0.009333 0.020043 0.000000 0.000000 0.000000
# 4 0.000000 0.000000 0.000000 0.025908 0.000000 0.000000
# 5 0.000000 0.000000 0.000000 0.000000 0.059940 0.000000
# 6 0.000000 0.000000 0.000000 0.000000 0.000000 0.045989
#
#
# Mechanical properties :
#
#
# Convention : Reuss Voigt Hill
#
# Bulk Modulus (GPa) = 62.28518 62.49944 62.39231
# Shear Modulus (GPa) = 21.83622 24.01427 22.92525
#
# Velocity S-wave (km/s) = 3.51766 3.68892 3.60431
# Velocity P-wave (km/s) = 7.19678 7.31852 7.25791
#
# Compressibility (1/GPa) = 0.01605518
#
# Stress axis : x y z
#
# Youngs Moduli (GPa) = 68.91162 51.63174 49.89374
#
# Poissons Ratio (x) = 0.19253 0.29295
# Poissons Ratio (y) = 0.25696 0.46566
# Poissons Ratio (z) = 0.40461 0.48188
#
# Static dielectric constant tensor:
#      x y z
#    x 1.554370 0.000000 0.000000 
#    y 0.000000 1.579540 0.000000 
#    z 0.000000 0.000000 1.605470 
# 
# From -- ./inp_files/64981.got.cif
#   From: 2010.05.17/outbox.cif.g08.bks.cpg/sg63_33_cif.got.tgz:64981.got - 2010.06.03 15:47:04.
