data_PCOD9475417
_publ_section_title
;
Structure prediction by ZEFSAII (Michael W. Deem and Ramdas Pophale) SiO2 
 PCOD9475417
Probable space group: C M C M
;
_chemical_formula_sum "Si O2"
_cell_formula_units_Z 96
_cell_length_a 16.543792
_cell_length_b 20.180961
_cell_length_c 16.079990
_cell_angle_alpha 90.000000
_cell_angle_beta 90.000000
_cell_angle_gamma 90.000000
_cell_volume 5368.620169
_symmetry_space_group_name_H-M "C M C M"
_symmetry_group_IT_number 63
_symmetry_cell_setting 'orthorhombic'
loop_
_space_group_symop_operation_xyz
x,y,z
-x,-y,1/2+z
x,-y,-z
-x,y,1/2-z
-x,-y,-z
x,y,1/2-z
-x,y,z
x,-y,1/2+z
1/2+x,1/2+y,z
1/2-x,1/2-y,1/2+z
1/2+x,1/2-y,-z
1/2-x,1/2+y,1/2-z
1/2-x,1/2-y,-z
1/2+x,1/2+y,1/2-z
1/2-x,1/2+y,z
1/2+x,1/2-y,1/2+z
loop_
_atom_site_type_symbol
_atom_site_label
_atom_site_fract_x
_atom_site_fract_y
_atom_site_fract_z
Si Si1 0.674700 0.425801 0.850148
Si Si2 0.500000 0.624223 0.350760
Si Si3 0.592835 0.982439 0.750000
Si Si4 0.500000 0.780423 0.350359
Si Si5 0.327569 0.179697 0.580304
Si Si6 0.715432 0.202351 0.390269
Si Si7 0.908393 0.677237 0.250000
Si Si8 0.197313 0.525665 0.909254
O O1 0.676337 0.433230 0.750000
O O2 0.583059 0.410802 0.877626
O O3 0.729208 0.361988 0.872805
O O4 0.718101 0.488749 0.890975
O O5 0.500000 0.622717 0.250000
O O6 0.500000 0.702053 0.373158
O O7 0.500000 0.005770 0.750000
O O8 0.638577 0.005426 0.833335
O O9 0.593456 0.902739 0.750000
O O10 0.500000 0.785828 0.250000
O O11 0.418718 0.812542 0.386959
O O12 0.318207 0.198456 0.483522
O O13 0.270599 0.233394 0.624865
O O14 0.297829 0.104723 0.590232
O O15 0.640284 0.201161 0.329409
O O16 0.000000 0.699718 0.250000
O O17 0.168408 0.500000 0.000000
#
# Coordination Sequence:
#
# PCOD9475417 Si02
#       8
#    16   8   8   8  16  16   8  16
#     4  11  19  40  65  90 118 159 209 249 304 367
#     4   9  20  36  67  92 115 152 209 268 297 351
#     4  11  24  39  58  90 126 162 201 243 296 362
#     4  11  24  38  59  95 127 156 197 259 317 354
#     4  11  26  37  62  91 127 157 200 258 315 362
#     4  11  21  42  62  88 117 163 206 255 301 365
#     4  11  22  39  66  86 116 166 213 239 290 370
#     4  12  23  41  62  89 123 166 204 246 305 377
#
# _framework density 17.881689999999999
#
# number of rings (size 3 to 8) (size 9 to 14) (size 15 to 20)
#    0.000    1.000    6.667    0.000    4.667    0.333 
#    0.000    0.417    1.833    0.000    0.000    0.000 
#    0.000    0.000    0.000    0.000    0.000    0.000 
#
# Total GULP energy -268113.161854 kJ/mol
# GULP energy per Si atom -5585.690872 kJ/mol
# Density = 1.784099 g / cm^3
# Si number density = 17.881690 Si / 1000 Ang^3
#
#
#
# Elastic Constant Matrix: (Units=GPa)
#
#
# Indices 1 2 3 4 5 6 
#
# 1 159.9688 70.0661 50.5963 0.0000 0.0000 0.0000
# 2 70.0661 136.9025 24.7563 0.0000 0.0000 0.0000
# 3 50.5963 24.7563 86.3784 0.0000 0.0000 0.0000
# 4 0.0000 0.0000 0.0000 15.5190 0.0000 0.0000
# 5 0.0000 0.0000 0.0000 0.0000 9.3015 0.0000
# 6 0.0000 0.0000 0.0000 0.0000 0.0000 21.3948
#
#
#
# Elastic Compliance Matrix: (Units=1/GPa)
#
#
# Indices 1 2 3 4 5 6 
#
# 1 0.009386 -0.004018 -0.004346 0.000000 0.000000 0.000000
# 2 -0.004018 0.009423 -0.000348 0.000000 0.000000 0.000000
# 3 -0.004346 -0.000348 0.014222 0.000000 0.000000 0.000000
# 4 0.000000 0.000000 0.000000 0.064437 0.000000 0.000000
# 5 0.000000 0.000000 0.000000 0.000000 0.107510 0.000000
# 6 0.000000 0.000000 0.000000 0.000000 0.000000 0.046740
#
#
# Mechanical properties :
#
#
# Convention : Reuss Voigt Hill
#
# Bulk Modulus (GPa) = 64.06592 74.89855 69.48223
# Shear Modulus (GPa) = 18.22532 25.09848 21.66190
#
# Velocity S-wave (km/s) = 3.19598 3.75051 3.48429
# Velocity P-wave (km/s) = 7.03736 7.79305 7.42483
#
# Compressibility (1/GPa) = 0.01560892
#
# Stress axis : x y z
#
# Youngs Moduli (GPa) = 106.54692 106.11797 70.31199
#
# Poissons Ratio (x) = 0.42633 0.30559
# Poissons Ratio (y) = 0.42806 0.02443
# Poissons Ratio (z) = 0.46307 0.03688
#
# Static dielectric constant tensor:
#      x y z
#    x 1.597940 0.000000 0.000000 
#    y 0.000000 1.602920 0.000000 
#    z 0.000000 0.000000 1.611640 
# 
# From -- ./inp_files/32012.got.cif
#   From: 2010.05.17/outbox.cif.g08.bks.cpg/sg63_17_cif.got.tgz:32012.got - 2010.06.03 15:47:04.
