data_PCOD9475269
_publ_section_title
;
Structure prediction by ZEFSAII (Michael W. Deem and Ramdas Pophale) SiO2 
 PCOD9475269
Probable space group: C M C M
;
_chemical_formula_sum "Si O2"
_cell_formula_units_Z 120
_cell_length_a 19.984495
_cell_length_b 16.545562
_cell_length_c 16.408818
_cell_angle_alpha 90.000000
_cell_angle_beta 90.000000
_cell_angle_gamma 90.000000
_cell_volume 5425.652811
_symmetry_space_group_name_H-M "C M C M"
_symmetry_group_IT_number 63
_symmetry_cell_setting 'orthorhombic'
loop_
_space_group_symop_operation_xyz
x,y,z
-x,-y,1/2+z
x,-y,-z
-x,y,1/2-z
-x,-y,-z
x,y,1/2-z
-x,y,z
x,-y,1/2+z
1/2+x,1/2+y,z
1/2-x,1/2-y,1/2+z
1/2+x,1/2-y,-z
1/2-x,1/2+y,1/2-z
1/2-x,1/2-y,-z
1/2+x,1/2+y,1/2-z
1/2-x,1/2+y,z
1/2+x,1/2-y,1/2+z
loop_
_atom_site_type_symbol
_atom_site_label
_atom_site_fract_x
_atom_site_fract_y
_atom_site_fract_z
Si Si1 0.076642 0.733207 0.075909
Si Si2 0.122128 0.450902 0.418946
Si Si3 0.318656 0.894312 0.654871
Si Si4 0.000000 0.659967 0.857023
Si Si5 0.639117 0.619856 0.847212
Si Si6 0.771213 0.309780 0.426336
Si Si7 0.832249 0.062050 0.348586
Si Si8 0.109543 0.222147 0.388002
O O1 0.131970 0.670660 0.111213
O O2 0.082442 0.819319 0.120991
O O3 0.000000 0.701566 0.080741
O O4 0.092463 0.752409 0.981435
O O5 0.103467 0.500000 0.500000
O O6 0.148360 0.517516 0.355850
O O7 0.181702 0.387988 0.442527
O O8 0.059354 0.403748 0.383139
O O9 0.315198 0.871382 0.750000
O O10 0.242474 0.910280 0.623156
O O11 0.056966 0.728318 0.838359
O O12 0.638097 0.619767 0.750000
O O13 0.705923 0.660426 0.881779
O O14 0.644765 0.527012 0.875466
O O15 0.750000 0.250000 0.500000
O O16 0.817017 0.255306 0.368340
O O17 0.829530 0.061836 0.250000
O O18 0.885813 0.127288 0.378129
#
# Coordination Sequence:
#
# PCOD9475269 Si02
#       8
#    16  16  16   8  16  16  16  16
#     4  12  26  44  67  97 138 184 229 278 336 414
#     4  11  24  38  67  99 139 181 225 276 339 406
#     4  11  24  44  70 103 139 179 226 284 348 412
#     4  10  23  44  59  95 135 182 217 272 331 405
#     4  11  24  45  69  98 136 178 227 286 347 408
#     4  11  22  38  64 101 135 175 224 280 338 403
#     4  10  24  46  70  99 133 171 226 290 351 406
#     4  11  23  41  68  95 136 175 227 275 343 404
#
# _framework density 22.117155
#
# number of rings (size 3 to 8) (size 9 to 14) (size 15 to 20)
#    0.000    1.067    3.333    3.000    2.800    3.200 
#    1.200    3.667    0.000    0.000    0.000    0.000 
#    0.000    0.000    0.000    0.000    0.000    0.000 
#
# Total GULP energy -334203.195062 kJ/mol
# GULP energy per Si atom -5570.053251 kJ/mol
# Density = 2.206682 g / cm^3
# Si number density = 22.117155 Si / 1000 Ang^3
#
#
#
# Elastic Constant Matrix: (Units=GPa)
#
#
# Indices 1 2 3 4 5 6 
#
# 1 93.0150 47.7370 6.6570 0.0000 0.0000 0.0000
# 2 47.7370 158.0606 26.8191 0.0000 0.0000 0.0000
# 3 6.6570 26.8191 57.2804 0.0000 0.0000 0.0000
# 4 0.0000 0.0000 0.0000 8.8631 0.0000 0.0000
# 5 0.0000 0.0000 0.0000 0.0000 -18.6085 0.0000
# 6 0.0000 0.0000 0.0000 0.0000 0.0000 34.2608
#
#
#
# Elastic Compliance Matrix: (Units=1/GPa)
#
#
# Indices 1 2 3 4 5 6 
#
# 1 0.012729 -0.003904 0.000348 0.000000 0.000000 0.000000
# 2 -0.003904 0.008070 -0.003325 0.000000 0.000000 0.000000
# 3 0.000348 -0.003325 0.018974 0.000000 0.000000 0.000000
# 4 0.000000 0.000000 0.000000 0.112828 0.000000 0.000000
# 5 0.000000 0.000000 0.000000 0.000000 -0.053739 0.000000
# 6 0.000000 0.000000 0.000000 0.000000 0.000000 0.029188
#
#
# Mechanical properties :
#
#
# Convention : Reuss Voigt Hill
#
# Bulk Modulus (GPa) = 38.44169 52.30915 45.37542
# Shear Modulus (GPa) = 33.22678 20.04593 26.63636
#
# Velocity S-wave (km/s) = 3.88017 3.01383 3.47411
# Velocity P-wave (km/s) = 6.12315 5.98441 6.05418
#
# Compressibility (1/GPa) = 0.02601343
#
# Stress axis : x y z
#
# Youngs Moduli (GPa) = 78.55812 123.91948 52.70332
#
# Poissons Ratio (x) = 0.48373 -0.01836
# Poissons Ratio (y) = 0.30666 0.17522
# Poissons Ratio (z) = -0.02736 0.41199
#
# Static dielectric constant tensor:
#      x y z
#    x 1.776780 0.000000 0.000000 
#    y 0.000000 2.316230 0.000000 
#    z 0.000000 0.000000 1.863280 
# 
# From -- ./inp_files/56823.got.cif
#   From: 2010.05.17/outbox.cif.g08.bks.cpg/sg63_29_cif.got.tgz:56823.got - 2010.06.03 15:47:04.
