data_PCOD9475581
_publ_section_title
;
Structure prediction by ZEFSAII (Michael W. Deem and Ramdas Pophale) SiO2 
 PCOD9475581
Probable space group: C M C M
;
_chemical_formula_sum "Si O2"
_cell_formula_units_Z 92
_cell_length_a 26.066450
_cell_length_b 8.738651
_cell_length_c 21.765111
_cell_angle_alpha 90.000000
_cell_angle_beta 90.000000
_cell_angle_gamma 90.000000
_cell_volume 4957.779072
_symmetry_space_group_name_H-M "C M C M"
_symmetry_group_IT_number 63
_symmetry_cell_setting 'orthorhombic'
loop_
_space_group_symop_operation_xyz
x,y,z
-x,-y,1/2+z
x,-y,-z
-x,y,1/2-z
-x,-y,-z
x,y,1/2-z
-x,y,z
x,-y,1/2+z
1/2+x,1/2+y,z
1/2-x,1/2-y,1/2+z
1/2+x,1/2-y,-z
1/2-x,1/2+y,1/2-z
1/2-x,1/2-y,-z
1/2+x,1/2+y,1/2-z
1/2-x,1/2+y,z
1/2+x,1/2-y,1/2+z
loop_
_atom_site_type_symbol
_atom_site_label
_atom_site_fract_x
_atom_site_fract_y
_atom_site_fract_z
Si Si1 0.718107 0.000000 0.000000
Si Si2 0.717584 0.435109 0.616670
Si Si3 0.500000 0.076925 0.250000
Si Si4 0.057840 0.318232 0.982400
Si Si5 0.407782 0.910421 0.648791
Si Si6 0.197507 0.752690 0.319120
Si Si7 0.637882 0.198910 0.579404
O O1 0.754511 0.076475 0.050615
O O2 0.680472 0.891255 0.039032
O O3 0.758731 0.369850 0.664678
O O4 0.704205 0.608543 0.633301
O O5 0.667262 0.330921 0.615250
O O6 0.545554 0.078172 0.196160
O O7 0.075318 0.316891 0.912083
O O8 0.000000 0.262531 0.989281
O O9 0.058665 0.500000 0.000000
O O10 0.096602 0.241678 0.030051
O O11 0.357614 0.826893 0.674903
O O12 0.389380 0.077219 0.624401
O O13 0.204085 0.811122 0.250000
#
# Coordination Sequence:
#
# PCOD9475581 Si02
#       7
#     8  16   4  16  16  16  16
#     4  12  20  36  63  98 129 166 194 258 324 386
#     4  12  25  39  62  94 132 164 207 254 317 379
#     4  12  24  40  66  94 118 162 220 270 294 362
#     4   9  17  32  60  87 116 150 195 254 313 362
#     4  11  21  39  63  91 118 157 212 259 307 362
#     4  12  24  42  61  86 123 173 211 252 300 373
#     4  11  21  38  63  93 129 158 202 258 317 380
#
# _framework density 18.556695000000001
#
# number of rings (size 3 to 8) (size 9 to 14) (size 15 to 20)
#    0.000    0.870    7.826    1.043    3.652    0.000 
#    3.130    0.000    1.913    2.087    0.000    0.000 
#    0.000    0.000    0.000    0.000    0.000    0.000 
#
# Total GULP energy -256367.948105 kJ/mol
# GULP energy per Si atom -5573.216263 kJ/mol
# Density = 1.851446 g / cm^3
# Si number density = 18.556695 Si / 1000 Ang^3
#
#
#
# Elastic Constant Matrix: (Units=GPa)
#
#
# Indices 1 2 3 4 5 6 
#
# 1 154.9978 33.0947 58.1092 0.0000 0.0000 0.0000
# 2 33.0947 35.0414 22.4094 0.0000 0.0000 0.0000
# 3 58.1092 22.4094 94.5961 0.0000 0.0000 0.0000
# 4 0.0000 0.0000 0.0000 12.0329 0.0000 0.0000
# 5 0.0000 0.0000 0.0000 0.0000 37.5809 0.0000
# 6 0.0000 0.0000 0.0000 0.0000 0.0000 11.7245
#
#
#
# Elastic Compliance Matrix: (Units=1/GPa)
#
#
# Indices 1 2 3 4 5 6 
#
# 1 0.009369 -0.006091 -0.004312 0.000000 0.000000 0.000000
# 2 -0.006091 0.037592 -0.005164 0.000000 0.000000 0.000000
# 3 -0.004312 -0.005164 0.014444 0.000000 0.000000 0.000000
# 4 0.000000 0.000000 0.000000 0.083105 0.000000 0.000000
# 5 0.000000 0.000000 0.000000 0.000000 0.026609 0.000000
# 6 0.000000 0.000000 0.000000 0.000000 0.000000 0.085291
#
#
# Mechanical properties :
#
#
# Convention : Reuss Voigt Hill
#
# Bulk Modulus (GPa) = 33.03511 56.87352 44.95432
# Shear Modulus (GPa) = 16.79911 23.66916 20.23413
#
# Velocity S-wave (km/s) = 3.01206 3.57530 3.30570
# Velocity P-wave (km/s) = 5.47153 6.91077 6.23283
#
# Compressibility (1/GPa) = 0.03027082
#
# Stress axis : x y z
#
# Youngs Moduli (GPa) = 106.73667 26.60118 69.23475
#
# Poissons Ratio (x) = 0.16202 0.29856
# Poissons Ratio (y) = 0.65009 0.35753
# Poissons Ratio (z) = 0.46028 0.13737
#
# Static dielectric constant tensor:
#      x y z
#    x 1.641790 0.000000 0.000000 
#    y 0.000000 1.632370 0.000000 
#    z 0.000000 0.000000 1.654690 
# 
# From -- ./inp_files/58129.got.cif
#   From: 2010.05.17/outbox.cif.g08.bks.cpg/sg63_30_cif.got.tgz:58129.got - 2010.06.03 15:47:04.
