data_PCOD9475087
_publ_section_title
;
Structure prediction by ZEFSAII (Michael W. Deem and Ramdas Pophale) SiO2 
 PCOD9475087
Probable space group: C M C M
;
_chemical_formula_sum "Si O2"
_cell_formula_units_Z 64
_cell_length_a 8.720907
_cell_length_b 31.226294
_cell_length_c 12.396749
_cell_angle_alpha 90.000000
_cell_angle_beta 90.000000
_cell_angle_gamma 90.000000
_cell_volume 3375.902596
_symmetry_space_group_name_H-M "C M C M"
_symmetry_group_IT_number 63
_symmetry_cell_setting 'orthorhombic'
loop_
_space_group_symop_operation_xyz
x,y,z
-x,-y,1/2+z
x,-y,-z
-x,y,1/2-z
-x,-y,-z
x,y,1/2-z
-x,y,z
x,-y,1/2+z
1/2+x,1/2+y,z
1/2-x,1/2-y,1/2+z
1/2+x,1/2-y,-z
1/2-x,1/2+y,1/2-z
1/2-x,1/2-y,-z
1/2+x,1/2+y,1/2-z
1/2-x,1/2+y,z
1/2+x,1/2-y,1/2+z
loop_
_atom_site_type_symbol
_atom_site_label
_atom_site_fract_x
_atom_site_fract_y
_atom_site_fract_z
Si Si1 0.815369 0.876120 0.377695
Si Si2 0.678341 0.049926 0.471055
Si Si3 0.319513 0.576424 0.250000
Si Si4 0.185403 0.702657 0.483085
Si Si5 0.316674 0.170024 0.250000
O O1 0.776304 0.877241 0.250000
O O2 0.749782 0.917521 0.441243
O O3 0.749823 0.833340 0.435160
O O4 0.000000 0.875937 0.387259
O O5 0.500000 0.062445 0.456569
O O6 0.766644 0.053930 0.358818
O O7 0.684130 0.000000 0.500000
O O8 0.500000 0.582339 0.250000
O O9 0.236441 0.621694 0.250000
O O10 0.250000 0.750000 0.500000
O O11 0.235548 0.690385 0.361800
O O12 0.000000 0.702479 0.489741
O O13 0.500000 0.172312 0.250000
#
# Coordination Sequence:
#
# PCOD9475087 Si02
#       5
#    16  16   8  16   8
#     4  11  25  44  65  94 132 169 211 266 324 382
#     4  11  25  44  67  95 129 171 217 264 318 383
#     4  12  24  40  68  97 128 167 212 268 323 377
#     4  11  24  42  66  95 129 169 214 264 320 383
#     4  10  22  42  66  91 126 169 210 264 321 375
#
# _framework density 18.957892999999999
#
# number of rings (size 3 to 8) (size 9 to 14) (size 15 to 20)
#    0.000    1.000    2.500    3.375    3.500    5.000 
#    0.000    0.000    0.000    0.000    0.000    0.000 
#    0.000    0.000    0.000    0.000    0.000    0.000 
#
# Total GULP energy -178837.688592 kJ/mol
# GULP energy per Si atom -5588.677769 kJ/mol
# Density = 1.891474 g / cm^3
# Si number density = 18.957893 Si / 1000 Ang^3
#
#
#
# Elastic Constant Matrix: (Units=GPa)
#
#
# Indices 1 2 3 4 5 6 
#
# 1 937.6674 440.3708 529.4356 0.0000 0.0000 0.0000
# 2 440.3708 292.7188 276.8415 0.0000 0.0000 0.0000
# 3 529.4356 276.8415 423.9632 0.0000 0.0000 0.0000
# 4 0.0000 0.0000 0.0000 25.3328 0.0000 0.0000
# 5 0.0000 0.0000 0.0000 0.0000 78.2225 0.0000
# 6 0.0000 0.0000 0.0000 0.0000 0.0000 36.4214
#
#
#
# Elastic Compliance Matrix: (Units=1/GPa)
#
#
# Indices 1 2 3 4 5 6 
#
# 1 0.005090 -0.004304 -0.003546 0.000000 0.000000 0.000000
# 2 -0.004304 0.012572 -0.002835 0.000000 0.000000 0.000000
# 3 -0.003546 -0.002835 0.008638 0.000000 0.000000 0.000000
# 4 0.000000 0.000000 0.000000 0.039474 0.000000 0.000000
# 5 0.000000 0.000000 0.000000 0.000000 0.012784 0.000000
# 6 0.000000 0.000000 0.000000 0.000000 0.000000 0.027456
#
#
# Mechanical properties :
#
#
# Convention : Reuss Voigt Hill
#
# Bulk Modulus (GPa) = 202.81384 460.84947 331.83165
# Shear Modulus (GPa) = 38.75197 55.17545 46.96371
#
# Velocity S-wave (km/s) = 4.52609 5.40068 4.98261
# Velocity P-wave (km/s) = 11.59859 16.80799 14.44015
#
# Compressibility (1/GPa) = 0.00493063
#
# Stress axis : x y z
#
# Youngs Moduli (GPa) = 196.48125 79.54278 115.77350
#
# Poissons Ratio (x) = 0.34232 0.41048
# Poissons Ratio (y) = 0.84557 0.32822
# Poissons Ratio (z) = 0.69664 0.22551
#
# Static dielectric constant tensor:
#      x y z
#    x 1.647520 0.000000 0.000000 
#    y 0.000000 1.674620 0.000000 
#    z 0.000000 0.000000 1.630790 
# 
# From -- ./inp_files/16245.got.cif
#   From: 2010.05.17/outbox.cif.g08.bks.cpg/sg63_9_cif.got.tgz:16245.got - 2010.06.03 15:47:04.
