data_PCOD9475437
_publ_section_title
;
Structure prediction by ZEFSAII (Michael W. Deem and Ramdas Pophale) SiO2 
 PCOD9475437
Probable space group: C M C M
;
_chemical_formula_sum "Si O2"
_cell_formula_units_Z 56
_cell_length_a 13.809402
_cell_length_b 24.230892
_cell_length_c 8.657643
_cell_angle_alpha 90.000000
_cell_angle_beta 90.000000
_cell_angle_gamma 90.000000
_cell_volume 2896.969667
_symmetry_space_group_name_H-M "C M C M"
_symmetry_group_IT_number 63
_symmetry_cell_setting 'orthorhombic'
loop_
_space_group_symop_operation_xyz
x,y,z
-x,-y,1/2+z
x,-y,-z
-x,y,1/2-z
-x,-y,-z
x,y,1/2-z
-x,y,z
x,-y,1/2+z
1/2+x,1/2+y,z
1/2-x,1/2-y,1/2+z
1/2+x,1/2-y,-z
1/2-x,1/2+y,1/2-z
1/2-x,1/2-y,-z
1/2+x,1/2+y,1/2-z
1/2-x,1/2+y,z
1/2+x,1/2-y,1/2+z
loop_
_atom_site_type_symbol
_atom_site_label
_atom_site_fract_x
_atom_site_fract_y
_atom_site_fract_z
Si Si1 0.886578 0.767211 0.071082
Si Si2 0.606568 0.138794 0.438247
Si Si3 0.184977 0.875934 0.567305
Si Si4 0.000000 0.938681 0.433027
O O1 0.853754 0.770646 0.250000
O O2 0.884057 0.703619 0.020098
O O3 0.000000 0.783127 0.068989
O O4 0.830928 0.811033 0.967867
O O5 0.605675 0.137556 0.250000
O O6 0.500000 0.119144 0.490483
O O7 0.705980 0.109704 0.487937
O O8 0.179047 0.885394 0.750000
O O9 0.097180 0.907815 0.488284
O O10 0.000000 0.940171 0.250000
O O11 0.000000 0.000000 0.500000
#
# Coordination Sequence:
#
# PCOD9475437 Si02
#       4
#    16  16  16   8
#     4   9  16  28  47  73 110 153 187 218 260 309
#     4   8  16  30  49  77 114 152 185 216 256 311
#     4  11  20  32  54  81 109 141 181 225 270 322
#     4  12  26  44  62  80 104 134 176 232 287 334
#
# _framework density 19.330542999999999
#
# number of rings (size 3 to 8) (size 9 to 14) (size 15 to 20)
#    0.000    2.286    1.429    4.714    0.000    0.000 
#    0.000    1.429    0.000    6.000    0.000    0.000 
#    0.000    0.000    0.000    0.000    0.000    0.000 
#
# Total GULP energy -156136.446993 kJ/mol
# GULP energy per Si atom -5576.301678 kJ/mol
# Density = 1.928655 g / cm^3
# Si number density = 19.330543 Si / 1000 Ang^3
#
#
#
# Elastic Constant Matrix: (Units=GPa)
#
#
# Indices 1 2 3 4 5 6 
#
# 1 209.1688 47.2065 47.8129 0.0000 0.0000 0.0000
# 2 47.2065 27.4924 15.8050 0.0000 0.0000 0.0000
# 3 47.8129 15.8050 58.4411 0.0000 0.0000 0.0000
# 4 0.0000 0.0000 0.0000 23.2293 0.0000 0.0000
# 5 0.0000 0.0000 0.0000 0.0000 11.4572 0.0000
# 6 0.0000 0.0000 0.0000 0.0000 0.0000 9.7436
#
#
#
# Elastic Compliance Matrix: (Units=1/GPa)
#
#
# Indices 1 2 3 4 5 6 
#
# 1 0.008372 -0.012359 -0.003507 0.000000 0.000000 0.000000
# 2 -0.012359 0.061315 -0.006471 0.000000 0.000000 0.000000
# 3 -0.003507 -0.006471 0.021730 0.000000 0.000000 0.000000
# 4 0.000000 0.000000 0.000000 0.043049 0.000000 0.000000
# 5 0.000000 0.000000 0.000000 0.000000 0.087281 0.000000
# 6 0.000000 0.000000 0.000000 0.000000 0.000000 0.102631
#
#
# Mechanical properties :
#
#
# Convention : Reuss Voigt Hill
#
# Bulk Modulus (GPa) = 21.39330 57.41679 39.40505
# Shear Modulus (GPa) = 12.99942 21.17122 17.08532
#
# Velocity S-wave (km/s) = 2.59604 3.31300 2.97619
# Velocity P-wave (km/s) = 4.48074 6.66346 5.67797
#
# Compressibility (1/GPa) = 0.04674360
#
# Stress axis : x y z
#
# Youngs Moduli (GPa) = 119.45111 16.30929 46.01854
#
# Poissons Ratio (x) = 0.20156 0.16138
# Poissons Ratio (y) = 1.47626 0.29779
# Poissons Ratio (z) = 0.41889 0.10554
#
# Static dielectric constant tensor:
#      x y z
#    x 1.761550 0.000000 0.000000 
#    y 0.000000 1.662620 0.000000 
#    z 0.000000 0.000000 1.640510 
# 
# From -- ./inp_files/4162.got.cif
#   From: 2010.05.17/outbox.cif.g08.bks.cpg/sg63_3_cif.got.tgz:4162.got - 2010.06.03 15:47:04.
