data_PCOD9475470
_publ_section_title
;
Structure prediction by ZEFSAII (Michael W. Deem and Ramdas Pophale) SiO2 
 PCOD9475470
Probable space group: C M C M
;
_chemical_formula_sum "Si O2"
_cell_formula_units_Z 96
_cell_length_a 24.186766
_cell_length_b 13.496182
_cell_length_c 18.207879
_cell_angle_alpha 90.000000
_cell_angle_beta 90.000000
_cell_angle_gamma 90.000000
_cell_volume 5943.579660
_symmetry_space_group_name_H-M "C M C M"
_symmetry_group_IT_number 63
_symmetry_cell_setting 'orthorhombic'
loop_
_space_group_symop_operation_xyz
x,y,z
-x,-y,1/2+z
x,-y,-z
-x,y,1/2-z
-x,-y,-z
x,y,1/2-z
-x,y,z
x,-y,1/2+z
1/2+x,1/2+y,z
1/2-x,1/2-y,1/2+z
1/2+x,1/2-y,-z
1/2-x,1/2+y,1/2-z
1/2-x,1/2-y,-z
1/2+x,1/2+y,1/2-z
1/2-x,1/2+y,z
1/2+x,1/2-y,1/2+z
loop_
_atom_site_type_symbol
_atom_site_label
_atom_site_fract_x
_atom_site_fract_y
_atom_site_fract_z
Si Si1 0.935821 0.663477 0.162520
Si Si2 0.835529 0.680442 0.909852
Si Si3 0.232649 0.849334 0.663605
Si Si4 0.665420 0.750967 0.921403
Si Si5 0.271440 0.547268 0.919035
Si Si6 0.564365 0.929848 0.337594
O O1 0.927938 0.677074 0.250000
O O2 0.892452 0.727345 0.117404
O O3 0.926398 0.546605 0.146822
O O4 0.000000 0.685289 0.145697
O O5 0.814473 0.771829 0.860544
O O6 0.788473 0.595892 0.904610
O O7 0.893097 0.636183 0.882603
O O8 0.836697 0.716972 0.993784
O O9 0.242869 0.843869 0.750000
O O10 0.287371 0.815843 0.619133
O O11 0.217828 0.959756 0.638206
O O12 0.685534 0.637737 0.915639
O O13 0.272121 0.500000 0.000000
O O14 0.572891 0.916098 0.250000
O O15 0.500000 0.908104 0.353575
#
# Coordination Sequence:
#
# PCOD9475470 Si02
#       6
#    16  16  16  16  16  16
#     4   9  19  35  53  77 108 138 174 220 264 312
#     4  11  21  33  55  78 108 143 173 218 264 318
#     4  11  22  35  53  80 107 138 180 220 260 316
#     4  11  21  34  56  77 107 142 175 217 268 316
#     4  11  20  37  53  75 109 144 174 214 268 315
#     4   9  19  35  54  78 110 143 175 217 267 317
#
# _framework density 16.151882000000001
#
# number of rings (size 3 to 8) (size 9 to 14) (size 15 to 20)
#    0.000    1.667    3.333    4.000    0.000    6.000 
#    0.000    1.667    0.000    1.500    0.000    2.333 
#    0.000    0.000    0.000    0.000    0.000    0.000 
#
# Total GULP energy -268027.462114 kJ/mol
# GULP energy per Si atom -5583.905461 kJ/mol
# Density = 1.611512 g / cm^3
# Si number density = 16.151882 Si / 1000 Ang^3
#
#
#
# Elastic Constant Matrix: (Units=GPa)
#
#
# Indices 1 2 3 4 5 6 
#
# 1 96.9924 68.7826 44.8715 0.0000 0.0000 0.0000
# 2 68.7826 111.7563 55.8310 0.0000 0.0000 0.0000
# 3 44.8715 55.8310 85.0265 0.0000 0.0000 0.0000
# 4 0.0000 0.0000 0.0000 13.0185 0.0000 0.0000
# 5 0.0000 0.0000 0.0000 0.0000 13.5142 0.0000
# 6 0.0000 0.0000 0.0000 0.0000 0.0000 19.9150
#
#
#
# Elastic Compliance Matrix: (Units=1/GPa)
#
#
# Indices 1 2 3 4 5 6 
#
# 1 0.018966 -0.009930 -0.003489 0.000000 0.000000 0.000000
# 2 -0.009930 0.018516 -0.006917 0.000000 0.000000 0.000000
# 3 -0.003489 -0.006917 0.018144 0.000000 0.000000 0.000000
# 4 0.000000 0.000000 0.000000 0.076814 0.000000 0.000000
# 5 0.000000 0.000000 0.000000 0.000000 0.073996 0.000000
# 6 0.000000 0.000000 0.000000 0.000000 0.000000 0.050213
#
#
# Mechanical properties :
#
#
# Convention : Reuss Voigt Hill
#
# Bulk Modulus (GPa) = 66.87376 70.30505 68.58941
# Shear Modulus (GPa) = 16.53954 17.57555 17.05755
#
# Velocity S-wave (km/s) = 3.20347 3.30228 3.25325
# Velocity P-wave (km/s) = 7.42805 7.62640 7.52788
#
# Compressibility (1/GPa) = 0.01495355
#
# Stress axis : x y z
#
# Youngs Moduli (GPa) = 52.72574 54.00866 55.11401
#
# Poissons Ratio (x) = 0.53632 0.19227
# Poissons Ratio (y) = 0.52358 0.38124
# Poissons Ratio (z) = 0.18394 0.37360
#
# Static dielectric constant tensor:
#      x y z
#    x 1.523760 0.000000 0.000000 
#    y 0.000000 1.528960 0.000000 
#    z 0.000000 0.000000 1.535590 
# 
# From -- ./inp_files/47963.got.cif
#   From: 2010.05.17/outbox.cif.g08.bks.cpg/sg63_24_cif.got.tgz:47963.got - 2010.06.03 15:47:04.
