data_PCOD9475426
_publ_section_title
;
Structure prediction by ZEFSAII (Michael W. Deem and Ramdas Pophale) SiO2 
 PCOD9475426
Probable space group: C M C M
;
_chemical_formula_sum "Si O2"
_cell_formula_units_Z 112
_cell_length_a 19.653193
_cell_length_b 18.772511
_cell_length_c 14.322698
_cell_angle_alpha 90.000000
_cell_angle_beta 90.000000
_cell_angle_gamma 90.000000
_cell_volume 5284.213075
_symmetry_space_group_name_H-M "C M C M"
_symmetry_group_IT_number 63
_symmetry_cell_setting 'orthorhombic'
loop_
_space_group_symop_operation_xyz
x,y,z
-x,-y,1/2+z
x,-y,-z
-x,y,1/2-z
-x,-y,-z
x,y,1/2-z
-x,y,z
x,-y,1/2+z
1/2+x,1/2+y,z
1/2-x,1/2-y,1/2+z
1/2+x,1/2-y,-z
1/2-x,1/2+y,1/2-z
1/2-x,1/2-y,-z
1/2+x,1/2+y,1/2-z
1/2-x,1/2+y,z
1/2+x,1/2-y,1/2+z
loop_
_atom_site_type_symbol
_atom_site_label
_atom_site_fract_x
_atom_site_fract_y
_atom_site_fract_z
Si Si1 0.849531 0.903252 0.145983
Si Si2 0.202422 0.137293 0.142258
Si Si3 0.724229 0.003325 0.892706
Si Si4 0.073799 0.652661 0.136740
Si Si5 0.073515 0.511757 0.637606
Si Si6 0.302825 0.748973 0.865365
Si Si7 0.577497 0.458882 0.864978
O O1 0.876394 0.885354 0.250000
O O2 0.824311 0.829533 0.102150
O O3 0.780316 0.948263 0.154457
O O4 0.901600 0.960973 0.103760
O O5 0.185560 0.152325 0.250000
O O6 0.262903 0.077292 0.142643
O O7 0.234077 0.210469 0.103338
O O8 0.135667 0.097149 0.103264
O O9 0.649141 0.036883 0.886262
O O10 0.742778 0.000000 0.000000
O O11 0.076380 0.650489 0.250000
O O12 0.076176 0.570693 0.105503
O O13 0.135580 0.700040 0.104909
O O14 0.000000 0.682520 0.110184
O O15 0.071392 0.512631 0.750000
O O16 0.000000 0.542012 0.605792
O O17 0.299611 0.746933 0.750000
O O18 0.581412 0.460694 0.750000
O O19 0.500000 0.441477 0.890161
#
# Coordination Sequence:
#
# PCOD9475426 Si02
#       7
#    16  16  16  16  16  16  16
#     4   9  18  30  46  68  95 122 150 193 243 289
#     4   9  16  29  49  66  86 120 158 195 230 280
#     4  11  20  30  45  66  95 123 157 192 228 273
#     4   8  13  21  38  66  92 110 136 178 225 274
#     4   9  16  28  48  69  88 115 151 189 228 270
#     4   9  15  25  44  68  91 117 150 188 235 280
#     4   8  14  25  43  68  92 115 148 192 237 274
#
# _framework density 21.195208999999998
#
# number of rings (size 3 to 8) (size 9 to 14) (size 15 to 20)
#    0.000    3.000    1.429    3.000    0.000    0.857 
#    0.000    3.571    0.000    7.714    0.000    4.000 
#    0.000    0.000    0.000    0.000    0.000    0.000 
#
# Total GULP energy -311769.798173 kJ/mol
# GULP energy per Si atom -5567.317825 kJ/mol
# Density = 2.114697 g / cm^3
# Si number density = 21.195209 Si / 1000 Ang^3
#
#
#
# Elastic Constant Matrix: (Units=GPa)
#
#
# Indices 1 2 3 4 5 6 
#
# 1 135.1067 17.2099 -4.3136 0.0000 0.0000 0.0000
# 2 17.2099 49.5041 -18.3253 0.0000 0.0000 0.0000
# 3 -4.3136 -18.3253 45.2533 0.0000 0.0000 0.0000
# 4 0.0000 0.0000 0.0000 67.0006 0.0000 0.0000
# 5 0.0000 0.0000 0.0000 0.0000 100.4810 0.0000
# 6 0.0000 0.0000 0.0000 0.0000 0.0000 15.3546
#
#
#
# Elastic Compliance Matrix: (Units=1/GPa)
#
#
# Indices 1 2 3 4 5 6 
#
# 1 0.007751 -0.002848 -0.000414 0.000000 0.000000 0.000000
# 2 -0.002848 0.024809 0.009775 0.000000 0.000000 0.000000
# 3 -0.000414 0.009775 0.026017 0.000000 0.000000 0.000000
# 4 0.000000 0.000000 0.000000 0.014925 0.000000 0.000000
# 5 0.000000 0.000000 0.000000 0.000000 0.009952 0.000000
# 6 0.000000 0.000000 0.000000 0.000000 0.000000 0.065127
#
#
# Mechanical properties :
#
#
# Convention : Reuss Voigt Hill
#
# Bulk Modulus (GPa) = 13.96624 24.33403 19.15014
# Shear Modulus (GPa) = 31.36302 52.25344 41.80823
#
# Velocity S-wave (km/s) = 3.85089 4.97061 4.44614
# Velocity P-wave (km/s) = 5.13577 6.66696 5.95082
#
# Compressibility (1/GPa) = 0.07160121
#
# Stress axis : x y z
#
# Youngs Moduli (GPa) = 129.01371 40.30810 38.43697
#
# Poissons Ratio (x) = 0.11480 0.01593
# Poissons Ratio (y) = 0.36744 -0.37572
# Poissons Ratio (z) = 0.05347 -0.39401
#
# Static dielectric constant tensor:
#      x y z
#    x 1.799090 0.000000 0.000000 
#    y 0.000000 1.779490 0.000000 
#    z 0.000000 0.000000 1.813660 
# 
# From -- ./inp_files/46070.got.cif
#   From: 2010.05.17/outbox.cif.g08.bks.cpg/sg63_24_cif.got.tgz:46070.got - 2010.06.03 15:47:04.
