data_PCOD9475419
_publ_section_title
;
Structure prediction by ZEFSAII (Michael W. Deem and Ramdas Pophale) SiO2 
 PCOD9475419
Probable space group: C M C M
;
_chemical_formula_sum "Si O2"
_cell_formula_units_Z 80
_cell_length_a 7.665322
_cell_length_b 20.133615
_cell_length_c 26.588509
_cell_angle_alpha 90.000000
_cell_angle_beta 90.000000
_cell_angle_gamma 90.000000
_cell_volume 4103.421664
_symmetry_space_group_name_H-M "C M C M"
_symmetry_group_IT_number 63
_symmetry_cell_setting 'orthorhombic'
loop_
_space_group_symop_operation_xyz
x,y,z
-x,-y,1/2+z
x,-y,-z
-x,y,1/2-z
-x,-y,-z
x,y,1/2-z
-x,y,z
x,-y,1/2+z
1/2+x,1/2+y,z
1/2-x,1/2-y,1/2+z
1/2+x,1/2-y,-z
1/2-x,1/2+y,1/2-z
1/2-x,1/2-y,-z
1/2+x,1/2+y,1/2-z
1/2-x,1/2+y,z
1/2+x,1/2-y,1/2+z
loop_
_atom_site_type_symbol
_atom_site_label
_atom_site_fract_x
_atom_site_fract_y
_atom_site_fract_z
Si Si1 0.211573 0.121322 0.027877
Si Si2 0.213425 0.874339 0.807224
Si Si3 0.712810 0.729901 0.109234
Si Si4 0.794527 0.978000 0.612059
Si Si5 0.798176 0.624683 0.911536
O O1 0.262040 0.186080 0.060470
O O2 0.271786 0.058344 0.061391
O O3 0.000000 0.119722 0.023596
O O4 0.281943 0.121942 0.971851
O O5 0.275163 0.872792 0.750000
O O6 0.264694 0.811258 0.841348
O O7 0.272387 0.938918 0.839010
O O8 0.000000 0.874561 0.805525
O O9 0.500000 0.731258 0.108629
O O10 0.778915 0.804969 0.106144
O O11 0.000000 0.963755 0.611316
O O12 0.773644 0.056387 0.610533
O O13 0.000000 0.625471 0.897479
#
# Coordination Sequence:
#
# PCOD9475419 Si02
#       5
#    16  16  16  16  16
#     4   9  17  31  48  63  87 125 160 186 214 254
#     4   8  14  29  53  71  82 108 154 197 224 257
#     4   8  16  29  44  66  92 116 148 188 226 264
#     4   9  18  31  47  68  91 117 152 189 223 261
#     4  11  20  28  42  68 100 125 146 180 225 271
#
# _framework density 19.495923999999999
#
# number of rings (size 3 to 8) (size 9 to 14) (size 15 to 20)
#    0.000    3.000    0.000    4.200    0.000    3.200 
#    0.000    2.000    0.000    4.200    0.000    0.000 
#    0.000    0.000    0.000    0.000    0.000    0.000 
#
# Total GULP energy -223047.322841 kJ/mol
# GULP energy per Si atom -5576.183071 kJ/mol
# Density = 1.945155 g / cm^3
# Si number density = 19.495924 Si / 1000 Ang^3
#
#
#
# Elastic Constant Matrix: (Units=GPa)
#
#
# Indices 1 2 3 4 5 6 
#
# 1 24.2431 -4.3000 -5.5044 0.0000 0.0000 0.0000
# 2 -4.3000 163.9113 69.1892 0.0000 0.0000 0.0000
# 3 -5.5044 69.1892 128.1543 0.0000 0.0000 0.0000
# 4 0.0000 0.0000 0.0000 3.6271 0.0000 0.0000
# 5 0.0000 0.0000 0.0000 0.0000 -3.4067 0.0000
# 6 0.0000 0.0000 0.0000 0.0000 0.0000 18.2666
#
#
#
# Elastic Compliance Matrix: (Units=1/GPa)
#
#
# Indices 1 2 3 4 5 6 
#
# 1 0.041679 0.000437 0.001554 0.000000 0.000000 0.000000
# 2 0.000437 0.007906 -0.004250 0.000000 0.000000 0.000000
# 3 0.001554 -0.004250 0.010164 0.000000 0.000000 0.000000
# 4 0.000000 0.000000 0.000000 0.275699 0.000000 0.000000
# 5 0.000000 0.000000 0.000000 0.000000 -0.293542 0.000000
# 6 0.000000 0.000000 0.000000 0.000000 0.000000 0.054745
#
#
# Mechanical properties :
#
#
# Convention : Reuss Voigt Hill
#
# Bulk Modulus (GPa) = 18.10503 48.34201 33.22352
# Shear Modulus (GPa) = 41.81340 20.82568 31.31954
#
# Velocity S-wave (km/s) = 4.63614 3.27189 4.01242
# Velocity P-wave (km/s) = 6.16159 6.25488 6.20841
#
# Compressibility (1/GPa) = 0.05523326
#
# Stress axis : x y z
#
# Youngs Moduli (GPa) = 23.99272 126.48327 98.38450
#
# Poissons Ratio (x) = -0.05533 -0.15289
# Poissons Ratio (y) = -0.01050 0.41810
# Poissons Ratio (z) = -0.03729 0.53751
#
# Static dielectric constant tensor:
#      x y z
#    x 1.738120 0.000000 0.000000 
#    y 0.000000 1.705110 0.000000 
#    z 0.000000 0.000000 1.649100 
# 
# From -- ./inp_files/66551.got.cif
#   From: 2010.05.17/outbox.cif.g08.bks.cpg/sg63_34_cif.got.tgz:66551.got - 2010.06.03 15:47:04.
