data_PCOD9475064
_publ_section_title
;
Structure prediction by ZEFSAII (Michael W. Deem and Ramdas Pophale) SiO2 
 PCOD9475064
Probable space group: C M C M
;
_chemical_formula_sum "Si O2"
_cell_formula_units_Z 68
_cell_length_a 12.263497
_cell_length_b 13.368744
_cell_length_c 21.569489
_cell_angle_alpha 90.000000
_cell_angle_beta 90.000000
_cell_angle_gamma 90.000000
_cell_volume 3536.264918
_symmetry_space_group_name_H-M "C M C M"
_symmetry_group_IT_number 63
_symmetry_cell_setting 'orthorhombic'
loop_
_space_group_symop_operation_xyz
x,y,z
-x,-y,1/2+z
x,-y,-z
-x,y,1/2-z
-x,-y,-z
x,y,1/2-z
-x,y,z
x,-y,1/2+z
1/2+x,1/2+y,z
1/2-x,1/2-y,1/2+z
1/2+x,1/2-y,-z
1/2-x,1/2+y,1/2-z
1/2-x,1/2-y,-z
1/2+x,1/2+y,1/2-z
1/2-x,1/2+y,z
1/2+x,1/2-y,1/2+z
loop_
_atom_site_type_symbol
_atom_site_label
_atom_site_fract_x
_atom_site_fract_y
_atom_site_fract_z
Si Si1 0.750219 0.488238 0.647781
Si Si2 0.869725 0.880556 0.250000
Si Si3 0.180901 0.630680 0.547434
Si Si4 0.500000 0.000000 0.000000
Si Si5 0.372189 0.359775 0.954886
Si Si6 0.131047 0.355559 0.750000
O O1 0.679887 0.561545 0.691166
O O2 0.827601 0.559686 0.606987
O O3 0.674557 0.427728 0.600130
O O4 0.817448 0.411727 0.690643
O O5 0.841542 0.762576 0.250000
O O6 0.000000 0.888602 0.250000
O O7 0.095164 0.586786 0.498936
O O8 0.300221 0.623348 0.516746
O O9 0.151386 0.744220 0.562175
O O10 0.500000 0.376129 0.964791
O O11 0.000000 0.365414 0.750000
#
# Coordination Sequence:
#
# PCOD9475064 Si02
#       6
#    16   8  16   4  16   8
#     4  11  22  40  61  87 118 155 201 246 301 355
#     4  10  22  42  60  84 116 154 194 248 303 349
#     4  11  24  39  62  91 125 161 199 245 302 357
#     4  12  20  44  58  86 130 160 192 254 290 368
#     4  11  23  39  61  93 125 160 201 244 297 367
#     4  10  24  40  62  86 114 154 206 253 296 358
#
# _framework density 19.229327999999999
#
# number of rings (size 3 to 8) (size 9 to 14) (size 15 to 20)
#    0.000    1.176    3.529    2.118    1.647    2.824 
#    0.000    2.353    0.000    4.235    0.000    0.000 
#    0.000    0.000    0.000    0.000    0.000    0.000 
#
# Total GULP energy -189429.015075 kJ/mol
# GULP energy per Si atom -5571.441620 kJ/mol
# Density = 1.918556 g / cm^3
# Si number density = 19.229328 Si / 1000 Ang^3
#
#
#
# Elastic Constant Matrix: (Units=GPa)
#
#
# Indices 1 2 3 4 5 6 
#
# 1 111.3433 37.4971 14.8467 0.0000 0.0000 0.0000
# 2 37.4971 163.2409 43.4100 0.0000 0.0000 0.0000
# 3 14.8467 43.4100 57.3817 0.0000 0.0000 0.0000
# 4 0.0000 0.0000 0.0000 27.6921 0.0000 0.0000
# 5 0.0000 0.0000 0.0000 0.0000 -15.7989 0.0000
# 6 0.0000 0.0000 0.0000 0.0000 0.0000 48.7213
#
#
#
# Elastic Compliance Matrix: (Units=1/GPa)
#
#
# Indices 1 2 3 4 5 6 
#
# 1 0.009784 -0.001971 -0.001041 0.000000 0.000000 0.000000
# 2 -0.001971 0.008066 -0.005592 0.000000 0.000000 0.000000
# 3 -0.001041 -0.005592 0.021927 0.000000 0.000000 0.000000
# 4 0.000000 0.000000 0.000000 0.036111 0.000000 0.000000
# 5 0.000000 0.000000 0.000000 0.000000 -0.063296 0.000000
# 6 0.000000 0.000000 0.000000 0.000000 0.000000 0.020525
#
#
# Mechanical properties :
#
#
# Convention : Reuss Voigt Hill
#
# Bulk Modulus (GPa) = 44.30697 58.16373 51.23535
# Shear Modulus (GPa) = 86.43629 27.87037 57.15333
#
# Velocity S-wave (km/s) = 6.71177 3.81119 5.45770
# Velocity P-wave (km/s) = 9.11894 7.04840 8.14970
#
# Compressibility (1/GPa) = 0.02256981
#
# Stress axis : x y z
#
# Youngs Moduli (GPa) = 102.21153 123.98341 45.60652
#
# Poissons Ratio (x) = 0.24432 0.04746
# Poissons Ratio (y) = 0.20142 0.25502
# Poissons Ratio (z) = 0.10636 0.69330
#
# Static dielectric constant tensor:
#      x y z
#    x 1.625760 0.000000 0.000000 
#    y 0.000000 1.683830 0.000000 
#    z 0.000000 0.000000 1.657920 
# 
# From -- ./inp_files/52256.got.cif
#   From: 2010.05.17/outbox.cif.g08.bks.cpg/sg63_27_cif.got.tgz:52256.got - 2010.06.03 15:47:04.
