data_PCOD9475731
_publ_section_title
;
Structure prediction by ZEFSAII (Michael W. Deem and Ramdas Pophale) SiO2 
 PCOD9475731
Probable space group: C M C M
;
_chemical_formula_sum "Si O2"
_cell_formula_units_Z 80
_cell_length_a 8.180818
_cell_length_b 18.155060
_cell_length_c 24.723745
_cell_angle_alpha 90.000000
_cell_angle_beta 90.000000
_cell_angle_gamma 90.000000
_cell_volume 3672.050753
_symmetry_space_group_name_H-M "C M C M"
_symmetry_group_IT_number 63
_symmetry_cell_setting 'orthorhombic'
loop_
_space_group_symop_operation_xyz
x,y,z
-x,-y,1/2+z
x,-y,-z
-x,y,1/2-z
-x,-y,-z
x,y,1/2-z
-x,y,z
x,-y,1/2+z
1/2+x,1/2+y,z
1/2-x,1/2-y,1/2+z
1/2+x,1/2-y,-z
1/2-x,1/2+y,1/2-z
1/2-x,1/2-y,-z
1/2+x,1/2+y,1/2-z
1/2-x,1/2+y,z
1/2+x,1/2-y,1/2+z
loop_
_atom_site_type_symbol
_atom_site_label
_atom_site_fract_x
_atom_site_fract_y
_atom_site_fract_z
Si Si1 0.243606 0.935527 0.467537
Si Si2 0.000000 0.659751 0.000007
Si Si3 0.306093 0.389275 0.186435
Si Si4 0.312385 0.966755 0.867349
Si Si5 0.500000 0.363221 0.604082
Si Si6 0.000000 0.306899 0.129584
Si Si7 0.500000 0.323543 0.474575
O O1 0.352984 0.894063 0.511345
O O2 0.323603 0.977969 0.418761
O O3 0.146477 0.865782 0.446947
O O4 0.156927 0.000000 0.500000
O O5 0.000000 0.736884 0.029039
O O6 0.000000 0.673806 0.935164
O O7 0.298030 0.372081 0.250000
O O8 0.500000 0.380492 0.170315
O O9 0.253577 0.474860 0.177075
O O10 0.163702 0.340708 0.157151
O O11 0.500000 0.939698 0.856860
O O12 0.164736 0.908621 0.879171
O O13 0.500000 0.282138 0.630847
O O14 0.500000 0.346737 0.538526
#
# Coordination Sequence:
#
# PCOD9475731 Si02
#       7
#    16   8  16  16   8   8   8
#     4  12  21  36  59  86 124 172 213 260 316 371
#     4  11  23  39  55  90 124 161 220 260 326 378
#     4  11  23  42  72 100 123 163 215 263 322 397
#     4  12  23  41  67  98 130 173 223 268 318 385
#     4  11  25  43  62  96 137 168 219 266 330 374
#     4  11  23  44  67  93 133 169 205 274 330 382
#     4  11  24  37  57  86 129 176 207 272 311 381
#
# _framework density 21.786190000000001
#
# number of rings (size 3 to 8) (size 9 to 14) (size 15 to 20)
#    0.000    0.600    7.000    2.100    0.000    0.800 
#    0.000    2.000    0.000    0.000    0.000    0.000 
#    0.000    0.000    0.000    0.000    0.000    0.000 
#
# Total GULP energy -222735.567061 kJ/mol
# GULP energy per Si atom -5568.389177 kJ/mol
# Density = 2.173660 g / cm^3
# Si number density = 21.786190 Si / 1000 Ang^3
#
#
#
# Elastic Constant Matrix: (Units=GPa)
#
#
# Indices 1 2 3 4 5 6 
#
# 1 206.3027 79.5005 39.5916 0.0000 0.0000 0.0000
# 2 79.5005 172.7809 36.9440 0.0000 0.0000 0.0000
# 3 39.5916 36.9440 73.3051 0.0000 0.0000 0.0000
# 4 0.0000 0.0000 0.0000 24.7360 0.0000 0.0000
# 5 0.0000 0.0000 0.0000 0.0000 32.9578 0.0000
# 6 0.0000 0.0000 0.0000 0.0000 0.0000 33.7037
#
#
#
# Elastic Compliance Matrix: (Units=1/GPa)
#
#
# Indices 1 2 3 4 5 6 
#
# 1 0.006176 -0.002386 -0.002133 0.000000 0.000000 0.000000
# 2 -0.002386 0.007408 -0.002445 0.000000 0.000000 0.000000
# 3 -0.002133 -0.002445 0.016026 0.000000 0.000000 0.000000
# 4 0.000000 0.000000 0.000000 0.040427 0.000000 0.000000
# 5 0.000000 0.000000 0.000000 0.000000 0.030342 0.000000
# 6 0.000000 0.000000 0.000000 0.000000 0.000000 0.029670
#
#
# Mechanical properties :
#
#
# Convention : Reuss Voigt Hill
#
# Bulk Modulus (GPa) = 63.76655 84.94011 74.35333
# Shear Modulus (GPa) = 33.51104 38.03634 35.77369
#
# Velocity S-wave (km/s) = 3.92622 4.18292 4.05660
# Velocity P-wave (km/s) = 7.06303 7.89948 7.49294
#
# Compressibility (1/GPa) = 0.01568220
#
# Stress axis : x y z
#
# Youngs Moduli (GPa) = 161.91848 134.98674 62.39831
#
# Poissons Ratio (x) = 0.32202 0.13312
# Poissons Ratio (y) = 0.38626 0.15257
# Poissons Ratio (z) = 0.34543 0.33006
#
# Static dielectric constant tensor:
#      x y z
#    x 1.744200 0.000000 0.000000 
#    y 0.000000 1.742550 0.000000 
#    z 0.000000 0.000000 1.830440 
# 
# From -- ./inp_files/66734.got.cif
#   From: 2010.05.17/outbox.cif.g08.bks.cpg/sg63_34_cif.got.tgz:66734.got - 2010.06.03 15:47:04.
