data_PCOD9475843
_publ_section_title
;
Structure prediction by ZEFSAII (Michael W. Deem and Ramdas Pophale) SiO2 
 PCOD9475843
Probable space group: C M C M
;
_chemical_formula_sum "Si O2"
_cell_formula_units_Z 60
_cell_length_a 11.964456
_cell_length_b 16.734915
_cell_length_c 14.511514
_cell_angle_alpha 90.000000
_cell_angle_beta 90.000000
_cell_angle_gamma 90.000000
_cell_volume 2905.555617
_symmetry_space_group_name_H-M "C M C M"
_symmetry_group_IT_number 63
_symmetry_cell_setting 'orthorhombic'
loop_
_space_group_symop_operation_xyz
x,y,z
-x,-y,1/2+z
x,-y,-z
-x,y,1/2-z
-x,-y,-z
x,y,1/2-z
-x,y,z
x,-y,1/2+z
1/2+x,1/2+y,z
1/2-x,1/2-y,1/2+z
1/2+x,1/2-y,-z
1/2-x,1/2+y,1/2-z
1/2-x,1/2-y,-z
1/2+x,1/2+y,1/2-z
1/2-x,1/2+y,z
1/2+x,1/2-y,1/2+z
loop_
_atom_site_type_symbol
_atom_site_label
_atom_site_fract_x
_atom_site_fract_y
_atom_site_fract_z
Si Si1 0.873207 0.957068 0.598205
Si Si2 0.701953 0.817258 0.932646
Si Si3 0.252586 0.558251 0.750000
Si Si4 0.500000 0.092897 0.967121
Si Si5 0.500000 0.927221 0.250000
Si Si6 0.870425 0.224937 0.750000
O O1 0.801535 0.876814 0.594563
O O2 0.000000 0.941559 0.628659
O O3 0.876621 0.000000 0.500000
O O4 0.811424 0.019215 0.663183
O O5 0.650304 0.777123 0.841394
O O6 0.750000 0.750000 0.000000
O O7 0.608504 0.866664 0.987863
O O8 0.281455 0.652118 0.750000
O O9 0.122627 0.533905 0.750000
O O10 0.500000 0.107572 0.855881
O O11 0.500000 0.000000 0.000000
O O12 0.000000 0.195522 0.750000
#
# Coordination Sequence:
#
# PCOD9475843 Si02
#       6
#    16  16   8   8   4   8
#     4  11  24  44  71 102 140 185 239 298 361 440
#     4  12  26  44  72 107 148 192 246 311 379 448
#     4  12  25  46  72 105 140 190 241 300 367 445
#     4  12  26  46  72 106 145 200 253 307 380 460
#     4  12  24  42  70 104 146 182 246 306 362 448
#     4  12  25  47  71 101 143 191 247 303 376 447
#
# _framework density 20.650096000000001
#
# number of rings (size 3 to 8) (size 9 to 14) (size 15 to 20)
#    0.000    0.267    1.333    9.200    1.867    3.200 
#    4.800    0.000    0.000    0.000    0.000    0.000 
#    0.000    0.000    0.000    0.000    0.000    0.000 
#
# Total GULP energy -167798.142080 kJ/mol
# GULP energy per Si atom -5593.271403 kJ/mol
# Density = 2.060310 g / cm^3
# Si number density = 20.650096 Si / 1000 Ang^3
#
#
#
# Elastic Constant Matrix: (Units=GPa)
#
#
# Indices 1 2 3 4 5 6 
#
# 1 175.3493 43.7167 45.4107 0.0000 0.0000 0.0000
# 2 43.7167 113.0247 40.2714 0.0000 0.0000 0.0000
# 3 45.4107 40.2714 155.7468 0.0000 0.0000 0.0000
# 4 0.0000 0.0000 0.0000 32.6932 0.0000 0.0000
# 5 0.0000 0.0000 0.0000 0.0000 40.9892 0.0000
# 6 0.0000 0.0000 0.0000 0.0000 0.0000 26.9497
#
#
#
# Elastic Compliance Matrix: (Units=1/GPa)
#
#
# Indices 1 2 3 4 5 6 
#
# 1 0.006573 -0.002048 -0.001387 0.000000 0.000000 0.000000
# 2 -0.002048 0.010384 -0.002088 0.000000 0.000000 0.000000
# 3 -0.001387 -0.002088 0.007365 0.000000 0.000000 0.000000
# 4 0.000000 0.000000 0.000000 0.030587 0.000000 0.000000
# 5 0.000000 0.000000 0.000000 0.000000 0.024397 0.000000
# 6 0.000000 0.000000 0.000000 0.000000 0.000000 0.037106
#
#
# Mechanical properties :
#
#
# Convention : Reuss Voigt Hill
#
# Bulk Modulus (GPa) = 75.32446 78.10204 76.71325
# Shear Modulus (GPa) = 37.91267 41.10789 39.51028
#
# Velocity S-wave (km/s) = 4.28945 4.46655 4.37890
# Velocity P-wave (km/s) = 7.81590 8.03143 7.92440
#
# Compressibility (1/GPa) = 0.01327590
#
# Stress axis : x y z
#
# Youngs Moduli (GPa) = 152.14532 96.30490 135.78005
#
# Poissons Ratio (x) = 0.19724 0.18830
# Poissons Ratio (y) = 0.31161 0.28347
# Poissons Ratio (z) = 0.21099 0.20106
#
# Static dielectric constant tensor:
#      x y z
#    x 1.720070 0.000000 0.000000 
#    y 0.000000 1.731550 0.000000 
#    z 0.000000 0.000000 1.708320 
# 
# From -- ./inp_files/29083.got.cif
#   From: 2010.05.17/outbox.cif.g08.bks.cpg/sg63_15_cif.got.tgz:29083.got - 2010.06.03 15:47:04.
