data_PCOD9475182
_publ_section_title
;
Structure prediction by ZEFSAII (Michael W. Deem and Ramdas Pophale) SiO2 
 PCOD9475182
Probable space group: C M C M
;
_chemical_formula_sum "Si O2"
_cell_formula_units_Z 80
_cell_length_a 18.552498
_cell_length_b 9.375982
_cell_length_c 18.476255
_cell_angle_alpha 90.000000
_cell_angle_beta 90.000000
_cell_angle_gamma 90.000000
_cell_volume 3213.905523
_symmetry_space_group_name_H-M "C M C M"
_symmetry_group_IT_number 63
_symmetry_cell_setting 'orthorhombic'
loop_
_space_group_symop_operation_xyz
x,y,z
-x,-y,1/2+z
x,-y,-z
-x,y,1/2-z
-x,-y,-z
x,y,1/2-z
-x,y,z
x,-y,1/2+z
1/2+x,1/2+y,z
1/2-x,1/2-y,1/2+z
1/2+x,1/2-y,-z
1/2-x,1/2+y,1/2-z
1/2-x,1/2-y,-z
1/2+x,1/2+y,1/2-z
1/2-x,1/2+y,z
1/2+x,1/2-y,1/2+z
loop_
_atom_site_type_symbol
_atom_site_label
_atom_site_fract_x
_atom_site_fract_y
_atom_site_fract_z
Si Si1 0.500000 0.483829 0.381573
Si Si2 0.692501 0.072553 0.120744
Si Si3 0.000000 0.758028 0.509379
Si Si4 0.416723 0.111057 0.250000
Si Si5 0.648332 0.417518 0.862713
Si Si6 0.919563 0.725343 0.750000
Si Si7 0.844201 0.301042 0.021770
O O1 0.500000 0.366175 0.443022
O O2 0.500000 0.641668 0.418957
O O3 0.419299 0.477680 0.347922
O O4 0.632993 0.128224 0.178058
O O5 0.770233 0.046294 0.157486
O O6 0.678180 0.925686 0.076973
O O7 0.695668 0.188083 0.055130
O O8 0.928088 0.668700 0.506316
O O9 0.500000 0.172370 0.250000
O O10 0.426561 0.941033 0.250000
O O11 0.624446 0.279969 0.817702
O O12 0.653534 0.358252 0.944705
O O13 0.000000 0.790255 0.750000
#
# Coordination Sequence:
#
# PCOD9475182 Si02
#       7
#     8  16   8   8  16   8  16
#     4   9  20  37  62  91 113 166 200 262 313 369
#     4  11  24  39  64  96 129 169 208 265 322 383
#     4   9  20  37  60  89 129 156 205 249 318 371
#     4  11  25  42  64  89 128 174 214 254 323 395
#     4  11  21  40  65  92 130 162 220 267 323 372
#     4  11  21  40  68  90 119 169 223 268 313 373
#     4  10  23  39  65  95 125 168 212 266 318 385
#
# _framework density 24.891832999999998
#
# number of rings (size 3 to 8) (size 9 to 14) (size 15 to 20)
#    0.000    1.600    3.000    1.200    2.800    8.800 
#    0.000    0.000    0.000    1.200    0.000    0.000 
#    0.000    0.000    0.000    0.000    0.000    0.000 
#
# Total GULP energy -223250.682486 kJ/mol
# GULP energy per Si atom -5581.267062 kJ/mol
# Density = 2.483518 g / cm^3
# Si number density = 24.891833 Si / 1000 Ang^3
#
#
#
# Elastic Constant Matrix: (Units=GPa)
#
#
# Indices 1 2 3 4 5 6 
#
# 1 209.6878 2.1101 34.5659 0.0000 0.0000 0.0000
# 2 2.1101 39.2116 13.0394 0.0000 0.0000 0.0000
# 3 34.5659 13.0394 108.7254 0.0000 0.0000 0.0000
# 4 0.0000 0.0000 0.0000 -3.5099 0.0000 0.0000
# 5 0.0000 0.0000 0.0000 0.0000 43.9325 0.0000
# 6 0.0000 0.0000 0.0000 0.0000 0.0000 23.0056
#
#
#
# Elastic Compliance Matrix: (Units=1/GPa)
#
#
# Indices 1 2 3 4 5 6 
#
# 1 0.005036 0.000272 -0.001634 0.000000 0.000000 0.000000
# 2 0.000272 0.026577 -0.003274 0.000000 0.000000 0.000000
# 3 -0.001634 -0.003274 0.010109 0.000000 0.000000 0.000000
# 4 0.000000 0.000000 0.000000 -0.284905 0.000000 0.000000
# 5 0.000000 0.000000 0.000000 0.000000 0.022762 0.000000
# 6 0.000000 0.000000 0.000000 0.000000 0.000000 0.043468
#
#
# Mechanical properties :
#
#
# Convention : Reuss Voigt Hill
#
# Bulk Modulus (GPa) = 30.81542 50.78396 40.79969
# Shear Modulus (GPa) = -31.87431 33.21293 0.66931
#
# Velocity S-wave (km/s) = -3.58231 3.65676 0.51911
# Velocity P-wave (km/s) = 2.16886 6.18670 4.09703
#
# Compressibility (1/GPa) = 0.03245129
#
# Stress axis : x y z
#
# Youngs Moduli (GPa) = 198.58863 37.62698 98.91736
#
# Poissons Ratio (x) = -0.01024 0.16159
# Poissons Ratio (y) = -0.05406 0.32384
# Poissons Ratio (z) = 0.32440 0.12319
#
# Static dielectric constant tensor:
#      x y z
#    x 2.096350 0.000000 0.000000 
#    y 0.000000 1.958790 0.000000 
#    z 0.000000 0.000000 2.064310 
# 
# From -- ./inp_files/55349.got.cif
#   From: 2010.05.17/outbox.cif.g08.bks.cpg/sg63_28_cif.got.tgz:55349.got - 2010.06.03 15:47:04.
