data_PCOD9475311
_publ_section_title
;
Structure prediction by ZEFSAII (Michael W. Deem and Ramdas Pophale) SiO2 
 PCOD9475311
Probable space group: C M C M
;
_chemical_formula_sum "Si O2"
_cell_formula_units_Z 92
_cell_length_a 24.648855
_cell_length_b 20.986709
_cell_length_c 9.453703
_cell_angle_alpha 90.000000
_cell_angle_beta 90.000000
_cell_angle_gamma 90.000000
_cell_volume 4890.384936
_symmetry_space_group_name_H-M "C M C M"
_symmetry_group_IT_number 63
_symmetry_cell_setting 'orthorhombic'
loop_
_space_group_symop_operation_xyz
x,y,z
-x,-y,1/2+z
x,-y,-z
-x,y,1/2-z
-x,-y,-z
x,y,1/2-z
-x,y,z
x,-y,1/2+z
1/2+x,1/2+y,z
1/2-x,1/2-y,1/2+z
1/2+x,1/2-y,-z
1/2-x,1/2+y,1/2-z
1/2-x,1/2-y,-z
1/2+x,1/2+y,1/2-z
1/2-x,1/2+y,z
1/2+x,1/2-y,1/2+z
loop_
_atom_site_type_symbol
_atom_site_label
_atom_site_fract_x
_atom_site_fract_y
_atom_site_fract_z
Si Si1 0.376972 0.732347 0.901118
Si Si2 0.938816 0.031975 0.750000
Si Si3 0.000000 0.223355 0.250000
Si Si4 0.645740 0.594227 0.955670
Si Si5 0.792845 0.704644 0.919075
Si Si6 0.090727 0.111781 0.250000
Si Si7 0.500000 0.747568 0.919790
Si Si8 0.732747 0.059910 0.913713
O O1 0.368148 0.765882 0.750000
O O2 0.347693 0.664864 0.895289
O O3 0.440739 0.716699 0.914364
O O4 0.351787 0.772435 0.027546
O O5 0.903653 0.057418 0.618519
O O6 0.000000 0.057642 0.750000
O O7 0.940716 0.955626 0.750000
O O8 0.948517 0.173401 0.250000
O O9 0.000000 0.262078 0.402852
O O10 0.701925 0.559621 0.928217
O O11 0.629473 0.607590 0.115377
O O12 0.786902 0.711068 0.750000
O O13 0.784806 0.630717 0.959689
O O14 0.750000 0.750000 0.000000
O O15 0.500000 0.778271 0.750000
O O16 0.718342 0.052838 0.750000
O O17 0.710684 0.000000 0.000000
#
# Coordination Sequence:
#
# PCOD9475311 Si02
#       8
#    16   8   4  16  16   8   8  16
#     4  11  22  40  61  86 121 159 199 250 313 367
#     4  12  26  38  54  70 109 160 207 262 304 350
#     4  12  22  38  58  82 112 154 230 256 304 372
#     4  12  24  38  55  78 110 151 202 257 303 356
#     4  11  24  40  63  92 122 158 204 258 314 372
#     4  12  26  38  48  77 107 156 218 258 302 361
#     4  10  24  40  61  90 124 163 201 260 321 372
#     4  11  24  43  62  87 118 157 201 253 310 376
#
# _framework density 18.812425000000001
#
# number of rings (size 3 to 8) (size 9 to 14) (size 15 to 20)
#    0.000    0.696    5.652    2.087    6.087    2.087 
#    0.000    0.000    0.000    0.000    0.000    0.609 
#    0.000    0.000    0.000    0.000    0.000    0.000 
#
# Total GULP energy -256204.269666 kJ/mol
# GULP energy per Si atom -5569.658036 kJ/mol
# Density = 1.876961 g / cm^3
# Si number density = 18.812425 Si / 1000 Ang^3
#
#
#
# Elastic Constant Matrix: (Units=GPa)
#
#
# Indices 1 2 3 4 5 6 
#
# 1 46.4848 26.6853 3.0838 0.0000 0.0000 0.0000
# 2 26.6853 109.6757 34.0479 0.0000 0.0000 0.0000
# 3 3.0838 34.0479 128.0902 0.0000 0.0000 0.0000
# 4 0.0000 0.0000 0.0000 27.7148 0.0000 0.0000
# 5 0.0000 0.0000 0.0000 0.0000 13.0233 0.0000
# 6 0.0000 0.0000 0.0000 0.0000 0.0000 10.5214
#
#
#
# Elastic Compliance Matrix: (Units=1/GPa)
#
#
# Indices 1 2 3 4 5 6 
#
# 1 0.025150 -0.006465 0.001113 0.000000 0.000000 0.000000
# 2 -0.006465 0.011600 -0.002928 0.000000 0.000000 0.000000
# 3 0.001113 -0.002928 0.008558 0.000000 0.000000 0.000000
# 4 0.000000 0.000000 0.000000 0.036082 0.000000 0.000000
# 5 0.000000 0.000000 0.000000 0.000000 0.076785 0.000000
# 6 0.000000 0.000000 0.000000 0.000000 0.000000 0.095045
#
#
# Mechanical properties :
#
#
# Convention : Reuss Voigt Hill
#
# Bulk Modulus (GPa) = 34.78401 45.76497 40.27449
# Shear Modulus (GPa) = 17.89795 24.94747 21.42271
#
# Velocity S-wave (km/s) = 3.08781 3.64554 3.37820
# Velocity P-wave (km/s) = 5.58952 6.48843 6.05568
#
# Compressibility (1/GPa) = 0.02874884
#
# Stress axis : x y z
#
# Youngs Moduli (GPa) = 39.76182 86.20993 116.84400
#
# Poissons Ratio (x) = 0.55732 -0.13004
# Poissons Ratio (y) = 0.25705 0.34208
# Poissons Ratio (z) = -0.04425 0.25239
#
# Static dielectric constant tensor:
#      x y z
#    x 1.661850 0.000000 0.000000 
#    y 0.000000 1.651150 0.000000 
#    z 0.000000 0.000000 1.797850 
# 
# From -- ./inp_files/12485.got.cif
#   From: 2010.05.17/outbox.cif.g08.bks.cpg/sg63_7_cif.got.tgz:12485.got - 2010.06.03 15:47:04.
