data_PCOD9475340
_publ_section_title
;
Structure prediction by ZEFSAII (Michael W. Deem and Ramdas Pophale) SiO2 
 PCOD9475340
Probable space group: C M C M
;
_chemical_formula_sum "Si O2"
_cell_formula_units_Z 72
_cell_length_a 27.025513
_cell_length_b 14.897352
_cell_length_c 8.838712
_cell_angle_alpha 90.000000
_cell_angle_beta 90.000000
_cell_angle_gamma 90.000000
_cell_volume 3558.541289
_symmetry_space_group_name_H-M "C M C M"
_symmetry_group_IT_number 63
_symmetry_cell_setting 'orthorhombic'
loop_
_space_group_symop_operation_xyz
x,y,z
-x,-y,1/2+z
x,-y,-z
-x,y,1/2-z
-x,-y,-z
x,y,1/2-z
-x,y,z
x,-y,1/2+z
1/2+x,1/2+y,z
1/2-x,1/2-y,1/2+z
1/2+x,1/2-y,-z
1/2-x,1/2+y,1/2-z
1/2-x,1/2-y,-z
1/2+x,1/2+y,1/2-z
1/2-x,1/2+y,z
1/2+x,1/2-y,1/2+z
loop_
_atom_site_type_symbol
_atom_site_label
_atom_site_fract_x
_atom_site_fract_y
_atom_site_fract_z
Si Si1 0.163718 0.091657 0.925172
Si Si2 0.407996 0.273885 0.569471
Si Si3 0.500000 0.400326 0.567873
Si Si4 0.873590 0.596181 0.069502
Si Si5 0.229074 0.659267 0.926144
O O1 0.148494 0.097980 0.750000
O O2 0.223109 0.095031 0.929905
O O3 0.141354 0.174843 0.016172
O O4 0.145560 0.000000 0.000000
O O5 0.408819 0.262919 0.750000
O O6 0.452375 0.340669 0.524678
O O7 0.407728 0.177071 0.491272
O O8 0.500000 0.500000 0.500000
O O9 0.500000 0.409040 0.750000
O O10 0.874397 0.592786 0.250000
O O11 0.887112 0.500000 0.000000
O O12 0.818042 0.620581 0.013091
O O13 0.215642 0.673872 0.750000
O O14 0.250000 0.750000 0.000000
#
# Coordination Sequence:
#
# PCOD9475340 Si02
#       5
#    16  16   8  16  16
#     4  11  23  37  57  88 123 163 208 253 306 368
#     4  11  23  42  66  92 125 161 205 259 315 375
#     4  10  24  44  69 100 129 162 201 250 314 382
#     4  12  25  42  64  92 126 168 217 261 313 372
#     4  11  22  37  59  88 126 168 213 259 308 364
#
# _framework density 20.233008999999999
#
# number of rings (size 3 to 8) (size 9 to 14) (size 15 to 20)
#    0.000    0.889    2.222    5.333    0.000    8.000 
#    0.000    0.556    0.000    0.000    0.000    0.000 
#    0.000    0.000    0.000    0.000    0.000    0.000 
#
# Total GULP energy -201356.861608 kJ/mol
# GULP energy per Si atom -5593.246156 kJ/mol
# Density = 2.018696 g / cm^3
# Si number density = 20.233009 Si / 1000 Ang^3
#
#
#
# Elastic Constant Matrix: (Units=GPa)
#
#
# Indices 1 2 3 4 5 6 
#
# 1 81.2655 39.3077 32.8740 0.0000 0.0000 0.0000
# 2 39.3077 186.2633 78.6050 0.0000 0.0000 0.0000
# 3 32.8740 78.6050 151.0621 0.0000 0.0000 0.0000
# 4 0.0000 0.0000 0.0000 37.6432 0.0000 0.0000
# 5 0.0000 0.0000 0.0000 0.0000 20.7130 0.0000
# 6 0.0000 0.0000 0.0000 0.0000 0.0000 24.8400
#
#
#
# Elastic Compliance Matrix: (Units=1/GPa)
#
#
# Indices 1 2 3 4 5 6 
#
# 1 0.014140 -0.002160 -0.001953 0.000000 0.000000 0.000000
# 2 -0.002160 0.007209 -0.003281 0.000000 0.000000 0.000000
# 3 -0.001953 -0.003281 0.008752 0.000000 0.000000 0.000000
# 4 0.000000 0.000000 0.000000 0.026565 0.000000 0.000000
# 5 0.000000 0.000000 0.000000 0.000000 0.048279 0.000000
# 6 0.000000 0.000000 0.000000 0.000000 0.000000 0.040258
#
#
# Mechanical properties :
#
#
# Convention : Reuss Voigt Hill
#
# Bulk Modulus (GPa) = 65.30426 80.01826 72.66126
# Shear Modulus (GPa) = 30.28530 34.49285 32.38908
#
# Velocity S-wave (km/s) = 3.87308 4.13338 4.00535
# Velocity P-wave (km/s) = 7.23513 7.90025 7.57500
#
# Compressibility (1/GPa) = 0.01531294
#
# Stress axis : x y z
#
# Youngs Moduli (GPa) = 70.72050 138.71019 114.25530
#
# Poissons Ratio (x) = 0.29957 0.22318
# Poissons Ratio (y) = 0.15274 0.37491
# Poissons Ratio (z) = 0.13814 0.45516
#
# Static dielectric constant tensor:
#      x y z
#    x 1.744430 0.000000 0.000000 
#    y 0.000000 1.722920 0.000000 
#    z 0.000000 0.000000 1.680280 
# 
# From -- ./inp_files/11727.got.cif
#   From: 2010.05.17/outbox.cif.g08.bks.cpg/sg63_6_cif.got.tgz:11727.got - 2010.06.03 15:47:04.
