data_PCOD9475819
_publ_section_title
;
Structure prediction by ZEFSAII (Michael W. Deem and Ramdas Pophale) SiO2 
 PCOD9475819
Probable space group: C M C M
;
_chemical_formula_sum "Si O2"
_cell_formula_units_Z 56
_cell_length_a 17.610868
_cell_length_b 8.932494
_cell_length_c 14.794105
_cell_angle_alpha 90.000000
_cell_angle_beta 90.000000
_cell_angle_gamma 90.000000
_cell_volume 2327.245460
_symmetry_space_group_name_H-M "C M C M"
_symmetry_group_IT_number 63
_symmetry_cell_setting 'orthorhombic'
loop_
_space_group_symop_operation_xyz
x,y,z
-x,-y,1/2+z
x,-y,-z
-x,y,1/2-z
-x,-y,-z
x,y,1/2-z
-x,y,z
x,-y,1/2+z
1/2+x,1/2+y,z
1/2-x,1/2-y,1/2+z
1/2+x,1/2-y,-z
1/2-x,1/2+y,1/2-z
1/2-x,1/2-y,-z
1/2+x,1/2+y,1/2-z
1/2-x,1/2+y,z
1/2+x,1/2-y,1/2+z
loop_
_atom_site_type_symbol
_atom_site_label
_atom_site_fract_x
_atom_site_fract_y
_atom_site_fract_z
Si Si1 0.860904 0.000000 0.000000
Si Si2 0.415512 0.037106 0.604919
Si Si3 0.615989 0.705423 0.651823
Si Si4 0.792312 0.215951 0.351098
O O1 0.811420 0.898758 0.931303
O O2 0.908058 0.107919 0.933816
O O3 0.500000 0.102681 0.615197
O O4 0.351812 0.148523 0.640360
O O5 0.401350 0.000000 0.500000
O O6 0.413076 0.874483 0.649461
O O7 0.597535 0.639762 0.750000
O O8 0.707174 0.722671 0.641285
O O9 0.798596 0.148739 0.250000
#
# Coordination Sequence:
#
# PCOD9475819 Si02
#       4
#     8  16  16  16
#     4  12  22  38  63  92 133 170 208 274 336 380
#     4  11  24  45  71  98 131 179 230 272 327 399
#     4  11  24  41  66 100 133 174 227 273 327 399
#     4  11  24  41  66 100 133 174 227 273 327 399
#
# _framework density 24.062781999999999
#
# number of rings (size 3 to 8) (size 9 to 14) (size 15 to 20)
#    0.000    0.857    2.857    4.286    4.000    6.857 
#    0.000    2.857    0.000    3.429    0.000    0.000 
#    0.000    0.000    0.000    0.000    0.000    0.000 
#
# Total GULP energy -156875.239425 kJ/mol
# GULP energy per Si atom -5602.687122 kJ/mol
# Density = 2.400801 g / cm^3
# Si number density = 24.062782 Si / 1000 Ang^3
#
#
#
# Elastic Constant Matrix: (Units=GPa)
#
#
# Indices 1 2 3 4 5 6 
#
# 1 118.5878 16.6329 20.9928 0.0000 0.0000 0.0000
# 2 16.6329 98.5611 55.1865 0.0000 0.0000 0.0000
# 3 20.9928 55.1865 207.3392 0.0000 0.0000 0.0000
# 4 0.0000 0.0000 0.0000 12.0234 0.0000 0.0000
# 5 0.0000 0.0000 0.0000 0.0000-1139.0801 0.0000
# 6 0.0000 0.0000 0.0000 0.0000 0.0000 19.5565
#
#
#
# Elastic Compliance Matrix: (Units=1/GPa)
#
#
# Indices 1 2 3 4 5 6 
#
# 1 0.008695 -0.001145 -0.000576 0.000000 0.000000 0.000000
# 2 -0.001145 0.012074 -0.003098 0.000000 0.000000 0.000000
# 3 -0.000576 -0.003098 0.005706 0.000000 0.000000 0.000000
# 4 0.000000 0.000000 0.000000 0.083171 0.000000 0.000000
# 5 0.000000 0.000000 0.000000 0.000000 -0.000878 0.000000
# 6 0.000000 0.000000 0.000000 0.000000 0.000000 0.051134
#
#
# Mechanical properties :
#
#
# Convention : Reuss Voigt Hill
#
# Bulk Modulus (GPa) = 59.38985 67.79028 63.59006
# Shear Modulus (GPa) = 28.54683 -199.38831 -85.42074
#
# Velocity S-wave (km/s) = 3.44808 -9.11272 -5.96458
# Velocity P-wave (km/s) = 6.37080 9.08233 4.57720
#
# Compressibility (1/GPa) = 0.01683789
#
# Stress axis : x y z
#
# Youngs Moduli (GPa) = 115.00769 82.82482 175.26090
#
# Poissons Ratio (x) = 0.09484 0.10088
# Poissons Ratio (y) = 0.13169 0.54290
# Poissons Ratio (z) = 0.06620 0.25656
#
# Static dielectric constant tensor:
#      x y z
#    x 1.872760 0.000000 0.000000 
#    y 0.000000 1.925490 0.000000 
#    z 0.000000 0.000000 2.359740 
# 
# From -- ./inp_files/33245.got.cif
#   From: 2010.05.17/outbox.cif.g08.bks.cpg/sg63_17_cif.got.tgz:33245.got - 2010.06.03 15:47:04.
