data_PCOD9475239
_publ_section_title
;
Structure prediction by ZEFSAII (Michael W. Deem and Ramdas Pophale) SiO2 
 PCOD9475239
Probable space group: C M C M
;
_chemical_formula_sum "Si O2"
_cell_formula_units_Z 56
_cell_length_a 28.858223
_cell_length_b 5.582030
_cell_length_c 14.630604
_cell_angle_alpha 90.000000
_cell_angle_beta 90.000000
_cell_angle_gamma 90.000000
_cell_volume 2356.806932
_symmetry_space_group_name_H-M "C M C M"
_symmetry_group_IT_number 63
_symmetry_cell_setting 'orthorhombic'
loop_
_space_group_symop_operation_xyz
x,y,z
-x,-y,1/2+z
x,-y,-z
-x,y,1/2-z
-x,-y,-z
x,y,1/2-z
-x,y,z
x,-y,1/2+z
1/2+x,1/2+y,z
1/2-x,1/2-y,1/2+z
1/2+x,1/2-y,-z
1/2-x,1/2+y,1/2-z
1/2-x,1/2-y,-z
1/2+x,1/2+y,1/2-z
1/2-x,1/2+y,z
1/2+x,1/2-y,1/2+z
loop_
_atom_site_type_symbol
_atom_site_label
_atom_site_fract_x
_atom_site_fract_y
_atom_site_fract_z
Si Si1 0.890913 0.000000 0.000000
Si Si2 0.054123 0.315394 0.145314
Si Si3 0.364723 0.829371 0.849657
Si Si4 0.272764 0.970843 0.109666
O O1 0.923268 0.853478 0.930443
O O2 0.858827 0.158852 0.935362
O O3 0.058633 0.221625 0.250000
O O4 0.084300 0.557180 0.142357
O O5 0.000000 0.356104 0.127711
O O6 0.359901 0.715055 0.750000
O O7 0.326170 0.033603 0.859196
O O8 0.251782 0.226915 0.141456
O O9 0.270636 0.000000 0.000000
#
# Coordination Sequence:
#
# PCOD9475239 Si02
#       4
#     8  16  16  16
#     4  12  23  40  68  98 134 178 228 286 345 416
#     4  10  23  43  67  98 136 176 223 281 349 422
#     4  11  26  44  66  97 137 182 231 288 352 422
#     4  10  23  42  71 103 137 182 234 291 354 422
#
# _framework density 23.760963
#
# number of rings (size 3 to 8) (size 9 to 14) (size 15 to 20)
#    0.000    1.429    0.000    3.857   10.000    4.571 
#    0.000    2.857    0.000    0.000    0.000    0.000 
#    0.000    0.000    0.000    0.000    0.000    0.000 
#
# Total GULP energy -156719.207947 kJ/mol
# GULP energy per Si atom -5597.114570 kJ/mol
# Density = 2.370688 g / cm^3
# Si number density = 23.760963 Si / 1000 Ang^3
#
#
#
# Elastic Constant Matrix: (Units=GPa)
#
#
# Indices 1 2 3 4 5 6 
#
# 1 86.5834 29.9920 8.1665 0.0000 0.0000 0.0000
# 2 29.9920 88.8699 46.7011 0.0000 0.0000 0.0000
# 3 8.1665 46.7011 150.3066 0.0000 0.0000 0.0000
# 4 0.0000 0.0000 0.0000 32.6762 0.0000 0.0000
# 5 0.0000 0.0000 0.0000 0.0000 39.5635 0.0000
# 6 0.0000 0.0000 0.0000 0.0000 0.0000 31.0819
#
#
#
# Elastic Compliance Matrix: (Units=1/GPa)
#
#
# Indices 1 2 3 4 5 6 
#
# 1 0.013157 -0.004858 0.000795 0.000000 0.000000 0.000000
# 2 -0.004858 0.015242 -0.004472 0.000000 0.000000 0.000000
# 3 0.000795 -0.004472 0.007999 0.000000 0.000000 0.000000
# 4 0.000000 0.000000 0.000000 0.030603 0.000000 0.000000
# 5 0.000000 0.000000 0.000000 0.000000 0.025276 0.000000
# 6 0.000000 0.000000 0.000000 0.000000 0.000000 0.032173
#
#
# Mechanical properties :
#
#
# Convention : Reuss Voigt Hill
#
# Bulk Modulus (GPa) = 51.73803 55.05324 53.39563
# Shear Modulus (GPa) = 33.79207 36.72432 35.25820
#
# Velocity S-wave (km/s) = 3.77525 3.93564 3.85628
# Velocity P-wave (km/s) = 6.38945 6.62362 6.50759
#
# Compressibility (1/GPa) = 0.01932814
#
# Stress axis : x y z
#
# Youngs Moduli (GPa) = 76.00303 65.60919 125.01090
#
# Poissons Ratio (x) = 0.31872 -0.09932
# Poissons Ratio (y) = 0.36921 0.55902
# Poissons Ratio (z) = -0.06038 0.29339
#
# Static dielectric constant tensor:
#      x y z
#    x 1.838380 0.000000 0.000000 
#    y 0.000000 1.942040 0.000000 
#    z 0.000000 0.000000 1.774650 
# 
# From -- ./inp_files/38213.got.cif
#   From: 2010.05.17/outbox.cif.g08.bks.cpg/sg63_20_cif.got.tgz:38213.got - 2010.06.03 15:47:04.
