data_PCOD9475720
_publ_section_title
;
Structure prediction by ZEFSAII (Michael W. Deem and Ramdas Pophale) SiO2 
 PCOD9475720
Probable space group: C M C M
;
_chemical_formula_sum "Si O2"
_cell_formula_units_Z 104
_cell_length_a 20.991403
_cell_length_b 25.322935
_cell_length_c 7.652870
_cell_angle_alpha 90.000000
_cell_angle_beta 90.000000
_cell_angle_gamma 90.000000
_cell_volume 4067.989682
_symmetry_space_group_name_H-M "C M C M"
_symmetry_group_IT_number 63
_symmetry_cell_setting 'orthorhombic'
loop_
_space_group_symop_operation_xyz
x,y,z
-x,-y,1/2+z
x,-y,-z
-x,y,1/2-z
-x,-y,-z
x,y,1/2-z
-x,y,z
x,-y,1/2+z
1/2+x,1/2+y,z
1/2-x,1/2-y,1/2+z
1/2+x,1/2-y,-z
1/2-x,1/2+y,1/2-z
1/2-x,1/2-y,-z
1/2+x,1/2+y,1/2-z
1/2-x,1/2+y,z
1/2+x,1/2-y,1/2+z
loop_
_atom_site_type_symbol
_atom_site_label
_atom_site_fract_x
_atom_site_fract_y
_atom_site_fract_z
Si Si1 0.867984 0.438358 0.959379
Si Si2 0.100540 0.057919 0.556556
Si Si3 0.217278 0.305516 0.458620
Si Si4 0.268310 0.411421 0.546937
Si Si5 0.425689 0.790565 0.046773
Si Si6 0.500000 0.937086 0.539776
Si Si7 0.424396 0.671225 0.552925
O O1 0.865803 0.430534 0.750000
O O2 0.800727 0.422718 0.032702
O O3 0.933914 0.413648 0.026844
O O4 0.873458 0.500000 0.000000
O O5 0.074641 0.065275 0.750000
O O6 0.176876 0.058643 0.553482
O O7 0.088700 0.114316 0.463568
O O8 0.078611 0.000000 0.500000
O O9 0.214228 0.311384 0.250000
O O10 0.250000 0.250000 0.500000
O O11 0.266766 0.348385 0.534618
O O12 0.143168 0.312286 0.526439
O O13 0.272265 0.427589 0.750000
O O14 0.428901 0.804736 0.250000
O O15 0.500000 0.798908 0.975075
O O16 0.411667 0.727241 0.035453
O O17 0.500000 0.932424 0.750000
O O18 0.500000 0.000000 0.500000
O O19 0.394964 0.672336 0.750000
O O20 0.500000 0.671131 0.571325
#
# Coordination Sequence:
#
# PCOD9475720 Si02
#       7
#    16  16  16  16  16   8  16
#     4   9  18  32  52  75 102 136 174 218 263 314
#     4  11  23  38  57  82 114 152 191 235 285 338
#     4  11  23  39  60  84 113 148 188 237 287 342
#     4  11  23  38  55  80 111 145 186 231 281 334
#     4   9  19  37  60  85 114 149 189 234 287 345
#     4   8  14  28  48  70  96 128 168 210 254 302
#     4   9  19  36  58  84 113 145 184 229 279 338
#
# _framework density 25.565453999999999
#
# number of rings (size 3 to 8) (size 9 to 14) (size 15 to 20)
#    0.000    2.154    0.000    2.769    0.000    7.692 
#    1.385    0.000    0.000    0.000    0.000    0.000 
#    0.000    0.000    0.000    0.000    0.000    0.000 
#
# Total GULP energy -290053.005599 kJ/mol
# GULP energy per Si atom -5577.942415 kJ/mol
# Density = 2.550727 g / cm^3
# Si number density = 25.565454 Si / 1000 Ang^3
#
#
#
# Elastic Constant Matrix: (Units=GPa)
#
#
# Indices 1 2 3 4 5 6 
#
# 1 115.6715 11.8098 9.0677 0.0000 0.0000 0.0000
# 2 11.8098 79.2932 4.5796 0.0000 0.0000 0.0000
# 3 9.0677 4.5796 81.5729 0.0000 0.0000 0.0000
# 4 0.0000 0.0000 0.0000 17.6641 0.0000 0.0000
# 5 0.0000 0.0000 0.0000 0.0000 -25.7672 0.0000
# 6 0.0000 0.0000 0.0000 0.0000 0.0000 27.8833
#
#
#
# Elastic Compliance Matrix: (Units=1/GPa)
#
#
# Indices 1 2 3 4 5 6 
#
# 1 0.008846 -0.001265 -0.000912 0.000000 0.000000 0.000000
# 2 -0.001265 0.012833 -0.000580 0.000000 0.000000 0.000000
# 3 -0.000912 -0.000580 0.012393 0.000000 0.000000 0.000000
# 4 0.000000 0.000000 0.000000 0.056612 0.000000 0.000000
# 5 0.000000 0.000000 0.000000 0.000000 -0.038809 0.000000
# 6 0.000000 0.000000 0.000000 0.000000 0.000000 0.035864
#
#
# Mechanical properties :
#
#
# Convention : Reuss Voigt Hill
#
# Bulk Modulus (GPa) = 35.01635 36.38355 35.69995
# Shear Modulus (GPa) = 48.65123 20.69471 34.67297
#
# Velocity S-wave (km/s) = 4.36708 2.84822 3.68672
# Velocity P-wave (km/s) = 6.25739 5.00789 5.66718
#
# Compressibility (1/GPa) = 0.02855809
#
# Stress axis : x y z
#
# Youngs Moduli (GPa) = 113.04767 77.92236 80.69106
#
# Poissons Ratio (x) = 0.09856 0.07361
# Poissons Ratio (y) = 0.14298 0.04679
# Poissons Ratio (z) = 0.10313 0.04519
#
# Static dielectric constant tensor:
#      x y z
#    x 2.112940 0.000000 0.000000 
#    y 0.000000 2.138390 0.000000 
#    z 0.000000 0.000000 1.954270 
# 
# From -- ./inp_files/8762.got.cif
#   From: 2010.05.17/outbox.cif.g08.bks.cpg/sg63_5_cif.got.tgz:8762.got - 2010.06.03 15:47:04.
