data_PCOD9475874
_publ_section_title
;
Structure prediction by ZEFSAII (Michael W. Deem and Ramdas Pophale) SiO2 
 PCOD9475874
Probable space group: C M C M
;
_chemical_formula_sum "Si O2"
_cell_formula_units_Z 68
_cell_length_a 18.476413
_cell_length_b 9.004759
_cell_length_c 16.526124
_cell_angle_alpha 90.000000
_cell_angle_beta 90.000000
_cell_angle_gamma 90.000000
_cell_volume 2749.544560
_symmetry_space_group_name_H-M "C M C M"
_symmetry_group_IT_number 63
_symmetry_cell_setting 'orthorhombic'
loop_
_space_group_symop_operation_xyz
x,y,z
-x,-y,1/2+z
x,-y,-z
-x,y,1/2-z
-x,-y,-z
x,y,1/2-z
-x,y,z
x,-y,1/2+z
1/2+x,1/2+y,z
1/2-x,1/2-y,1/2+z
1/2+x,1/2-y,-z
1/2-x,1/2+y,1/2-z
1/2-x,1/2-y,-z
1/2+x,1/2+y,1/2-z
1/2-x,1/2+y,z
1/2+x,1/2-y,1/2+z
loop_
_atom_site_type_symbol
_atom_site_label
_atom_site_fract_x
_atom_site_fract_y
_atom_site_fract_z
Si Si1 0.415344 0.623565 0.429102
Si Si2 0.346134 0.629229 0.839997
Si Si3 0.201643 0.386187 0.426569
Si Si4 0.096271 0.559484 0.158775
Si Si5 0.500000 0.000000 0.500000
O O1 0.413896 0.500000 0.500000
O O2 0.500000 0.677500 0.424319
O O3 0.387134 0.525309 0.354600
O O4 0.356007 0.752900 0.439459
O O5 0.316082 0.635801 0.750000
O O6 0.282033 0.663221 0.902601
O O7 0.402793 0.763370 0.846439
O O8 0.208628 0.500000 0.500000
O O9 0.174197 0.485228 0.351362
O O10 0.072044 0.518575 0.250000
O O11 0.059945 0.511617 0.074108
#
# Coordination Sequence:
#
# PCOD9475874 Si02
#       5
#    16  16  16  16   4
#     4  11  27  46  73 108 146 194 253 318 388 458
#     4  11  26  49  75 108 152 199 255 321 391 464
#     4  12  25  46  77 109 152 199 256 312 387 469
#     4  11  26  46  76 110 149 199 255 318 388 467
#     4  12  26  48  72 108 152 208 254 312 382 478
#
# _framework density 24.731369999999998
#
# number of rings (size 3 to 8) (size 9 to 14) (size 15 to 20)
#    0.000    0.706    1.176    4.588    3.294    7.529 
#    2.118    0.000    0.000    0.000    0.000    0.000 
#    0.000    0.000    0.000    0.000    0.000    0.000 
#
# Total GULP energy -189455.351011 kJ/mol
# GULP energy per Si atom -5572.216206 kJ/mol
# Density = 2.467508 g / cm^3
# Si number density = 24.731370 Si / 1000 Ang^3
#
#
#
# Elastic Constant Matrix: (Units=GPa)
#
#
# Indices 1 2 3 4 5 6 
#
# 1 107.9394 21.4930 71.0535 0.0000 0.0000 0.0000
# 2 21.4930 106.5245 61.3800 0.0000 0.0000 0.0000
# 3 71.0535 61.3800 204.4499 0.0000 0.0000 0.0000
# 4 0.0000 0.0000 0.0000 25.6327 0.0000 0.0000
# 5 0.0000 0.0000 0.0000 0.0000 53.9893 0.0000
# 6 0.0000 0.0000 0.0000 0.0000 0.0000 11.0092
#
#
#
# Elastic Compliance Matrix: (Units=1/GPa)
#
#
# Indices 1 2 3 4 5 6 
#
# 1 0.012013 -0.000022 -0.004168 0.000000 0.000000 0.000000
# 2 -0.000022 0.011351 -0.003400 0.000000 0.000000 0.000000
# 3 -0.004168 -0.003400 0.007361 0.000000 0.000000 0.000000
# 4 0.000000 0.000000 0.000000 0.039013 0.000000 0.000000
# 5 0.000000 0.000000 0.000000 0.000000 0.018522 0.000000
# 6 0.000000 0.000000 0.000000 0.000000 0.000000 0.090833
#
#
# Mechanical properties :
#
#
# Convention : Reuss Voigt Hill
#
# Bulk Modulus (GPa) = 64.33525 80.75187 72.54356
# Shear Modulus (GPa) = 25.06837 35.79206 30.43022
#
# Velocity S-wave (km/s) = 3.18720 3.80838 3.51155
# Velocity P-wave (km/s) = 6.29400 7.21532 6.77035
#
# Compressibility (1/GPa) = 0.01554358
#
# Stress axis : x y z
#
# Youngs Moduli (GPa) = 83.24554 88.09663 135.85879
#
# Poissons Ratio (x) = 0.00194 0.56629
# Poissons Ratio (y) = 0.00183 0.46195
# Poissons Ratio (z) = 0.34699 0.29955
#
# Static dielectric constant tensor:
#      x y z
#    x 2.054630 0.000000 0.000000 
#    y 0.000000 2.033940 0.000000 
#    z 0.000000 0.000000 1.942280 
# 
# From -- ./inp_files/46655.got.cif
#   From: 2010.05.17/outbox.cif.g08.bks.cpg/sg63_24_cif.got.tgz:46655.got - 2010.06.03 15:47:04.
