data_PCOD9475338
_publ_section_title
;
Structure prediction by ZEFSAII (Michael W. Deem and Ramdas Pophale) SiO2 
 PCOD9475338
Probable space group: C M C M
;
_chemical_formula_sum "Si O2"
_cell_formula_units_Z 88
_cell_length_a 14.350288
_cell_length_b 11.901021
_cell_length_c 26.918640
_cell_angle_alpha 90.000000
_cell_angle_beta 90.000000
_cell_angle_gamma 90.000000
_cell_volume 4597.248217
_symmetry_space_group_name_H-M "C M C M"
_symmetry_group_IT_number 63
_symmetry_cell_setting 'orthorhombic'
loop_
_space_group_symop_operation_xyz
x,y,z
-x,-y,1/2+z
x,-y,-z
-x,y,1/2-z
-x,-y,-z
x,y,1/2-z
-x,y,z
x,-y,1/2+z
1/2+x,1/2+y,z
1/2-x,1/2-y,1/2+z
1/2+x,1/2-y,-z
1/2-x,1/2+y,1/2-z
1/2-x,1/2-y,-z
1/2+x,1/2+y,1/2-z
1/2-x,1/2+y,z
1/2+x,1/2-y,1/2+z
loop_
_atom_site_type_symbol
_atom_site_label
_atom_site_fract_x
_atom_site_fract_y
_atom_site_fract_z
Si Si1 0.500000 0.490865 0.190723
Si Si2 0.000000 0.133506 0.500462
Si Si3 0.815699 0.648761 0.634462
Si Si4 0.607053 0.093230 0.118253
Si Si5 0.500000 0.702721 0.384015
Si Si6 0.185985 0.234830 0.952784
Si Si7 0.645443 0.705308 0.692880
O O1 0.500000 0.522512 0.250000
O O2 0.500000 0.594315 0.152482
O O3 0.411541 0.408856 0.181640
O O4 0.090605 0.177169 0.529844
O O5 0.000000 0.173257 0.442839
O O6 0.000000 0.000000 0.500000
O O7 0.845924 0.519938 0.637033
O O8 0.906913 0.725101 0.626935
O O9 0.744634 0.667195 0.588418
O O10 0.753931 0.685495 0.681333
O O11 0.500000 0.069964 0.105413
O O12 0.660405 0.145400 0.071368
O O13 0.611542 0.192653 0.158714
O O14 0.250000 0.250000 0.000000
O O15 0.628273 0.732313 0.750000
#
# Coordination Sequence:
#
# PCOD9475338 Si02
#       7
#     8   8  16  16   8  16  16
#     4  10  24  45  69  94 130 170 215 272 323 384
#     4  12  28  41  66  95 131 175 224 269 314 388
#     4  11  26  42  68  96 134 171 212 272 329 387
#     4  11  23  43  69  94 130 169 218 271 323 383
#     4  12  26  46  63  99 133 171 219 267 332 386
#     4  11  25  44  62  96 130 174 218 261 322 381
#     4  10  24  44  68  97 127 171 218 264 326 392
#
# _framework density 19.141886
#
# number of rings (size 3 to 8) (size 9 to 14) (size 15 to 20)
#    0.000    1.091    4.545    0.000   12.727    1.455 
#    0.000    1.818    0.000    0.000    0.000    0.000 
#    0.000    0.000    0.000    0.000    0.000    0.000 
#
# Total GULP energy -245867.809548 kJ/mol
# GULP energy per Si atom -5587.904762 kJ/mol
# Density = 1.909832 g / cm^3
# Si number density = 19.141886 Si / 1000 Ang^3
#
#
#
# Elastic Constant Matrix: (Units=GPa)
#
#
# Indices 1 2 3 4 5 6 
#
# 1 133.9566 34.9011 26.1319 0.0000 0.0000 0.0000
# 2 34.9011 88.8078 18.7887 0.0000 0.0000 0.0000
# 3 26.1319 18.7887 69.3976 0.0000 0.0000 0.0000
# 4 0.0000 0.0000 0.0000 19.7807 0.0000 0.0000
# 5 0.0000 0.0000 0.0000 0.0000 27.9773 0.0000
# 6 0.0000 0.0000 0.0000 0.0000 0.0000 26.0930
#
#
#
# Elastic Compliance Matrix: (Units=1/GPa)
#
#
# Indices 1 2 3 4 5 6 
#
# 1 0.008706 -0.002893 -0.002495 0.000000 0.000000 0.000000
# 2 -0.002893 0.012906 -0.002405 0.000000 0.000000 0.000000
# 3 -0.002495 -0.002405 0.016000 0.000000 0.000000 0.000000
# 4 0.000000 0.000000 0.000000 0.050554 0.000000 0.000000
# 5 0.000000 0.000000 0.000000 0.000000 0.035743 0.000000
# 6 0.000000 0.000000 0.000000 0.000000 0.000000 0.038324
#
#
# Mechanical properties :
#
#
# Convention : Reuss Voigt Hill
#
# Bulk Modulus (GPa) = 45.40058 50.20062 47.80060
# Shear Modulus (GPa) = 27.00339 28.92620 27.96480
#
# Velocity S-wave (km/s) = 3.76000 3.89156 3.82635
# Velocity P-wave (km/s) = 6.52836 6.81725 6.67437
#
# Compressibility (1/GPa) = 0.02202615
#
# Stress axis : x y z
#
# Youngs Moduli (GPa) = 114.86799 77.48250 62.49936
#
# Poissons Ratio (x) = 0.22419 0.15592
# Poissons Ratio (y) = 0.33237 0.15029
# Poissons Ratio (z) = 0.28657 0.18632
#
# Static dielectric constant tensor:
#      x y z
#    x 1.660620 0.000000 0.000000 
#    y 0.000000 1.632760 0.000000 
#    z 0.000000 0.000000 1.682950 
# 
# From -- ./inp_files/69262.got.cif
#   From: 2010.05.17/outbox.cif.g08.bks.cpg/sg63_35_cif.got.tgz:69262.got - 2010.06.03 15:47:04.
