data_PCOD9475066
_publ_section_title
;
Structure prediction by ZEFSAII (Michael W. Deem and Ramdas Pophale) SiO2 
 PCOD9475066
Probable space group: C M C M
;
_chemical_formula_sum "Si O2"
_cell_formula_units_Z 88
_cell_length_a 15.363404
_cell_length_b 11.069663
_cell_length_c 26.792334
_cell_angle_alpha 90.000000
_cell_angle_beta 90.000000
_cell_angle_gamma 90.000000
_cell_volume 4556.510750
_symmetry_space_group_name_H-M "C M C M"
_symmetry_group_IT_number 63
_symmetry_cell_setting 'orthorhombic'
loop_
_space_group_symop_operation_xyz
x,y,z
-x,-y,1/2+z
x,-y,-z
-x,y,1/2-z
-x,-y,-z
x,y,1/2-z
-x,y,z
x,-y,1/2+z
1/2+x,1/2+y,z
1/2-x,1/2-y,1/2+z
1/2+x,1/2-y,-z
1/2-x,1/2+y,1/2-z
1/2-x,1/2-y,-z
1/2+x,1/2+y,1/2-z
1/2-x,1/2+y,z
1/2+x,1/2-y,1/2+z
loop_
_atom_site_type_symbol
_atom_site_label
_atom_site_fract_x
_atom_site_fract_y
_atom_site_fract_z
Si Si1 0.000000 0.922772 0.694074
Si Si2 0.398591 0.812905 0.619267
Si Si3 0.858302 0.471277 0.192491
Si Si4 0.500000 0.184919 0.646527
Si Si5 0.000000 0.376612 0.467227
Si Si6 0.818626 0.643627 0.487798
Si Si7 0.839881 0.893784 0.193243
O O1 0.000000 0.828653 0.649001
O O2 0.000000 0.865022 0.750000
O O3 0.085369 0.005555 0.691511
O O4 0.500000 0.792297 0.606019
O O5 0.344373 0.846303 0.570253
O O6 0.360503 0.700445 0.649827
O O7 0.391450 0.922844 0.657511
O O8 0.875537 0.499473 0.250000
O O9 0.914269 0.356338 0.176031
O O10 0.755900 0.448264 0.186354
O O11 0.500000 0.121653 0.592565
O O12 0.000000 0.500000 0.500000
O O13 0.092671 0.322352 0.482584
O O14 0.796847 0.500000 0.500000
O O15 0.750000 0.750000 0.500000
O O16 0.842715 0.840323 0.250000
#
# Coordination Sequence:
#
# PCOD9475066 Si02
#       7
#     8  16  16   8   8  16  16
#     4  10  22  42  62  90 139 180 212 264 332 390
#     4  12  24  43  72  95 128 175 228 276 330 399
#     4  11  24  39  63  99 133 172 224 269 318 394
#     4  12  24  39  65  94 130 177 215 272 330 398
#     4  10  22  45  66  94 129 173 220 274 348 398
#     4  11  26  47  71  98 133 172 222 285 348 406
#     4  10  24  42  63  96 139 180 218 268 329 395
#
# _framework density 19.313023000000001
#
# number of rings (size 3 to 8) (size 9 to 14) (size 15 to 20)
#    0.000    1.091    2.727    3.545    7.636    0.727 
#    0.000    0.455    0.000    0.000    0.000    0.000 
#    0.000    0.000    0.000    0.000    0.000    0.000 
#
# Total GULP energy -245610.587537 kJ/mol
# GULP energy per Si atom -5582.058808 kJ/mol
# Density = 1.926907 g / cm^3
# Si number density = 19.313023 Si / 1000 Ang^3
#
#
#
# Elastic Constant Matrix: (Units=GPa)
#
#
# Indices 1 2 3 4 5 6 
#
# 1 134.1280 25.5746 37.2325 0.0000 0.0000 0.0000
# 2 25.5746 56.5160 38.2467 0.0000 0.0000 0.0000
# 3 37.2325 38.2467 127.5006 0.0000 0.0000 0.0000
# 4 0.0000 0.0000 0.0000 20.8145 0.0000 0.0000
# 5 0.0000 0.0000 0.0000 0.0000 29.2268 0.0000
# 6 0.0000 0.0000 0.0000 0.0000 0.0000 23.6963
#
#
#
# Elastic Compliance Matrix: (Units=1/GPa)
#
#
# Indices 1 2 3 4 5 6 
#
# 1 0.008428 -0.002696 -0.001653 0.000000 0.000000 0.000000
# 2 -0.002696 0.023063 -0.006131 0.000000 0.000000 0.000000
# 3 -0.001653 -0.006131 0.010165 0.000000 0.000000 0.000000
# 4 0.000000 0.000000 0.000000 0.048043 0.000000 0.000000
# 5 0.000000 0.000000 0.000000 0.000000 0.034215 0.000000
# 6 0.000000 0.000000 0.000000 0.000000 0.000000 0.042201
#
#
# Mechanical properties :
#
#
# Convention : Reuss Voigt Hill
#
# Bulk Modulus (GPa) = 48.31482 57.80580 53.06031
# Shear Modulus (GPa) = 25.77673 29.22024 27.49849
#
# Velocity S-wave (km/s) = 3.65729 3.89393 3.77746
# Velocity P-wave (km/s) = 6.55022 7.08610 6.82342
#
# Compressibility (1/GPa) = 0.02069758
#
# Stress axis : x y z
#
# Youngs Moduli (GPa) = 118.64805 43.35934 98.37806
#
# Poissons Ratio (x) = 0.11688 0.16258
# Poissons Ratio (y) = 0.31982 0.60317
# Poissons Ratio (z) = 0.19608 0.26584
#
# Static dielectric constant tensor:
#      x y z
#    x 1.671640 0.000000 0.000000 
#    y 0.000000 1.685540 0.000000 
#    z 0.000000 0.000000 1.671510 
# 
# From -- ./inp_files/62736.got.cif
#   From: 2010.05.17/outbox.cif.g08.bks.cpg/sg63_32_cif.got.tgz:62736.got - 2010.06.03 15:47:04.
