data_PCOD9475376
_publ_section_title
;
Structure prediction by ZEFSAII (Michael W. Deem and Ramdas Pophale) SiO2 
 PCOD9475376
Probable space group: C M C M
;
_chemical_formula_sum "Si O2"
_cell_formula_units_Z 52
_cell_length_a 12.340683
_cell_length_b 32.355768
_cell_length_c 7.523585
_cell_angle_alpha 90.000000
_cell_angle_beta 90.000000
_cell_angle_gamma 90.000000
_cell_volume 3004.109379
_symmetry_space_group_name_H-M "C M C M"
_symmetry_group_IT_number 63
_symmetry_cell_setting 'orthorhombic'
loop_
_space_group_symop_operation_xyz
x,y,z
-x,-y,1/2+z
x,-y,-z
-x,y,1/2-z
-x,-y,-z
x,y,1/2-z
-x,y,z
x,-y,1/2+z
1/2+x,1/2+y,z
1/2-x,1/2-y,1/2+z
1/2+x,1/2-y,-z
1/2-x,1/2+y,1/2-z
1/2-x,1/2-y,-z
1/2+x,1/2+y,1/2-z
1/2-x,1/2+y,z
1/2+x,1/2-y,1/2+z
loop_
_atom_site_type_symbol
_atom_site_label
_atom_site_fract_x
_atom_site_fract_y
_atom_site_fract_z
Si Si1 0.377420 0.667012 0.750000
Si Si2 0.876413 0.453695 0.537657
Si Si3 0.500000 0.818269 0.039465
Si Si4 0.219509 0.631403 0.459889
Si Si5 0.000000 0.247854 0.750000
O O1 0.500000 0.649632 0.750000
O O2 0.310803 0.652497 0.578894
O O3 0.398182 0.716417 0.750000
O O4 0.837076 0.500000 0.500000
O O5 0.883397 0.449205 0.750000
O O6 0.803292 0.415647 0.477447
O O7 0.000000 0.450339 0.466644
O O8 0.500000 0.810238 0.250000
O O9 0.393582 0.844528 0.989323
O O10 0.500000 0.777027 0.921560
O O11 0.245382 0.632007 0.250000
#
# Coordination Sequence:
#
# PCOD9475376 Si02
#       5
#     8  16   8  16   4
#     4  10  26  45  59  87 111 168 213 246 300 349
#     4   9  18  30  52  91 129 152 181 231 294 366
#     4  12  22  38  65  95 121 155 193 248 317 376
#     4  11  21  39  65  89 125 160 196 246 306 361
#     4  10  26  46  56  90 122 144 214 262 298 356
#
# _framework density 17.309622000000001
#
# number of rings (size 3 to 8) (size 9 to 14) (size 15 to 20)
#    0.462    1.231    4.615    0.000    2.154    3.077 
#    0.000    0.000    0.000    0.923    0.000    0.000 
#    0.000    0.000    0.000    0.000    0.000    0.000 
#
# Total GULP energy -145018.292951 kJ/mol
# GULP energy per Si atom -5577.626652 kJ/mol
# Density = 1.727022 g / cm^3
# Si number density = 17.309622 Si / 1000 Ang^3
#
#
#
# Elastic Constant Matrix: (Units=GPa)
#
#
# Indices 1 2 3 4 5 6 
#
# 1 102.7448 51.3852 34.6285 0.0000 0.0000 0.0000
# 2 51.3852 152.9729 44.4901 0.0000 0.0000 0.0000
# 3 34.6285 44.4901 110.5892 0.0000 0.0000 0.0000
# 4 0.0000 0.0000 0.0000 29.4989 0.0000 0.0000
# 5 0.0000 0.0000 0.0000 0.0000 10.3062 0.0000
# 6 0.0000 0.0000 0.0000 0.0000 0.0000 -165.8154
#
#
#
# Elastic Compliance Matrix: (Units=1/GPa)
#
#
# Indices 1 2 3 4 5 6 
#
# 1 0.012268 -0.003402 -0.002473 0.000000 0.000000 0.000000
# 2 -0.003402 0.008347 -0.002293 0.000000 0.000000 0.000000
# 3 -0.002473 -0.002293 0.010739 0.000000 0.000000 0.000000
# 4 0.000000 0.000000 0.000000 0.033900 0.000000 0.000000
# 5 0.000000 0.000000 0.000000 0.000000 0.097029 0.000000
# 6 0.000000 0.000000 0.000000 0.000000 0.000000 -0.006031
#
#
# Mechanical properties :
#
#
# Convention : Reuss Voigt Hill
#
# Bulk Modulus (GPa) = 66.58250 69.70160 68.14205
# Shear Modulus (GPa) = 28.15454 -9.48186 9.33634
#
# Velocity S-wave (km/s) = 4.03740 -2.34301 2.32496
# Velocity P-wave (km/s) = 7.76423 5.74764 6.83076
#
# Compressibility (1/GPa) = 0.01501896
#
# Stress axis : x y z
#
# Youngs Moduli (GPa) = 81.51617 119.81024 93.11737
#
# Poissons Ratio (x) = 0.40755 0.23026
# Poissons Ratio (y) = 0.27729 0.21349
# Poissons Ratio (z) = 0.20158 0.27469
#
# Static dielectric constant tensor:
#      x y z
#    x 1.555090 0.000000 0.000000 
#    y 0.000000 1.604450 0.000000 
#    z 0.000000 0.000000 1.604220 
# 
# From -- ./inp_files/2988.got.cif
#   From: 2010.05.17/outbox.cif.g08.bks.cpg/sg63_2_cif.got.tgz:2988.got - 2010.06.03 15:47:04.
