data_PCOD9475906
_publ_section_title
;
Structure prediction by ZEFSAII (Michael W. Deem and Ramdas Pophale) SiO2 
 PCOD9475906
Probable space group: C M C M
;
_chemical_formula_sum "Si O2"
_cell_formula_units_Z 48
_cell_length_a 29.331732
_cell_length_b 4.966861
_cell_length_c 15.158921
_cell_angle_alpha 90.000000
_cell_angle_beta 90.000000
_cell_angle_gamma 90.000000
_cell_volume 2208.452202
_symmetry_space_group_name_H-M "C M C M"
_symmetry_group_IT_number 63
_symmetry_cell_setting 'orthorhombic'
loop_
_space_group_symop_operation_xyz
x,y,z
-x,-y,1/2+z
x,-y,-z
-x,y,1/2-z
-x,-y,-z
x,y,1/2-z
-x,y,z
x,-y,1/2+z
1/2+x,1/2+y,z
1/2-x,1/2-y,1/2+z
1/2+x,1/2-y,-z
1/2-x,1/2+y,1/2-z
1/2-x,1/2-y,-z
1/2+x,1/2+y,1/2-z
1/2-x,1/2+y,z
1/2+x,1/2-y,1/2+z
loop_
_atom_site_type_symbol
_atom_site_label
_atom_site_fract_x
_atom_site_fract_y
_atom_site_fract_z
Si Si1 0.906561 0.921202 0.149323
Si Si2 0.350586 0.090777 0.597181
Si Si3 0.500000 0.252807 0.065048
Si Si4 0.781484 0.333510 0.250000
O O1 0.908913 0.018485 0.250000
O O2 0.870894 0.678515 0.140402
O O3 0.954478 0.789945 0.121992
O O4 0.889465 0.176987 0.092325
O O5 0.312104 0.202400 0.662636
O O6 0.335153 0.000000 0.500000
O O7 0.500000 0.500000 0.000000
O O8 0.500000 0.000000 0.000000
O O9 0.760337 0.629440 0.250000
#
# Coordination Sequence:
#
# PCOD9475906 Si02
#       4
#    16  16   8   8
#     4  12  23  44  68  99 140 189 233 281 340 410
#     4  12  25  45  72 101 137 184 231 285 354 422
#     4  12  25  40  63 102 141 180 235 279 324 393
#     4  12  26  46  72 101 138 171 228 300 360 428
#
# _framework density 21.734680999999998
#
# number of rings (size 3 to 8) (size 9 to 14) (size 15 to 20)
#    0.000    0.000    3.333    8.500    0.000    1.333 
#    0.000    5.000    0.000    0.000    0.000    0.000 
#    0.000    0.000    0.000    0.000    0.000    0.000 
#
# Total GULP energy -134343.654200 kJ/mol
# GULP energy per Si atom -5597.652258 kJ/mol
# Density = 2.168521 g / cm^3
# Si number density = 21.734681 Si / 1000 Ang^3
#
#
#
# Elastic Constant Matrix: (Units=GPa)
#
#
# Indices 1 2 3 4 5 6 
#
# 1 84.3450 -0.4387 39.2404 0.0000 0.0000 0.0000
# 2 -0.4387 103.9617 4.8581 0.0000 0.0000 0.0000
# 3 39.2404 4.8581 131.4575 0.0000 0.0000 0.0000
# 4 0.0000 0.0000 0.0000 32.0315 0.0000 0.0000
# 5 0.0000 0.0000 0.0000 0.0000 11.5403 0.0000
# 6 0.0000 0.0000 0.0000 0.0000 0.0000 38.5962
#
#
#
# Elastic Compliance Matrix: (Units=1/GPa)
#
#
# Indices 1 2 3 4 5 6 
#
# 1 0.013775 0.000251 -0.004121 0.000000 0.000000 0.000000
# 2 0.000251 0.009640 -0.000431 0.000000 0.000000 0.000000
# 3 -0.004121 -0.000431 0.008853 0.000000 0.000000 0.000000
# 4 0.000000 0.000000 0.000000 0.031219 0.000000 0.000000
# 5 0.000000 0.000000 0.000000 0.000000 0.086653 0.000000
# 6 0.000000 0.000000 0.000000 0.000000 0.000000 0.025909
#
#
# Mechanical properties :
#
#
# Convention : Reuss Voigt Hill
#
# Bulk Modulus (GPa) = 42.25647 45.23153 43.74400
# Shear Modulus (GPa) = 25.96858 34.84057 30.40458
#
# Velocity S-wave (km/s) = 3.46034 4.00808 3.74424
# Velocity P-wave (km/s) = 5.95394 6.50197 6.23398
#
# Compressibility (1/GPa) = 0.02366501
#
# Stress axis : x y z
#
# Youngs Moduli (GPa) = 72.59728 103.73305 112.95488
#
# Poissons Ratio (x) = -0.02601 0.46549
# Poissons Ratio (y) = -0.01820 0.04869
# Poissons Ratio (z) = 0.29918 0.04472
#
# Static dielectric constant tensor:
#      x y z
#    x 1.972530 0.000000 0.000000 
#    y 0.000000 1.734470 0.000000 
#    z 0.000000 0.000000 1.782450 
# 
# From -- ./inp_files/37351.got.cif
#   From: 2010.05.17/outbox.cif.g08.bks.cpg/sg63_19_cif.got.tgz:37351.got - 2010.06.03 15:47:04.
