data_PCOD9475779
_publ_section_title
;
Structure prediction by ZEFSAII (Michael W. Deem and Ramdas Pophale) SiO2 
 PCOD9475779
Probable space group: C M C M
;
_chemical_formula_sum "Si O2"
_cell_formula_units_Z 60
_cell_length_a 12.245253
_cell_length_b 13.675059
_cell_length_c 18.658734
_cell_angle_alpha 90.000000
_cell_angle_beta 90.000000
_cell_angle_gamma 90.000000
_cell_volume 3124.490041
_symmetry_space_group_name_H-M "C M C M"
_symmetry_group_IT_number 63
_symmetry_cell_setting 'orthorhombic'
loop_
_space_group_symop_operation_xyz
x,y,z
-x,-y,1/2+z
x,-y,-z
-x,y,1/2-z
-x,-y,-z
x,y,1/2-z
-x,y,z
x,-y,1/2+z
1/2+x,1/2+y,z
1/2-x,1/2-y,1/2+z
1/2+x,1/2-y,-z
1/2-x,1/2+y,1/2-z
1/2-x,1/2-y,-z
1/2+x,1/2+y,1/2-z
1/2-x,1/2+y,z
1/2+x,1/2-y,1/2+z
loop_
_atom_site_type_symbol
_atom_site_label
_atom_site_fract_x
_atom_site_fract_y
_atom_site_fract_z
Si Si1 0.181514 0.500000 0.500000
Si Si2 0.500000 0.094079 0.403763
Si Si3 0.223091 0.077280 0.860009
Si Si4 0.755281 0.095406 0.250000
Si Si5 0.500000 0.692114 0.834971
Si Si6 0.000000 0.421856 0.750000
Si Si7 0.631014 0.195376 0.750000
O O1 0.249739 0.439156 0.442673
O O2 0.103758 0.568246 0.451674
O O3 0.500000 0.204882 0.376150
O O4 0.500000 0.030913 0.329747
O O5 0.108442 0.131649 0.851853
O O6 0.314630 0.140717 0.818260
O O7 0.219997 0.973571 0.818249
O O8 0.625479 0.118960 0.250000
O O9 0.825050 0.193610 0.250000
O O10 0.500000 0.709848 0.750000
O O11 0.500000 0.190960 0.750000
#
# Coordination Sequence:
#
# PCOD9475779 Si02
#       7
#     8   8  16   8   8   4   8
#     4  11  26  43  62 104 138 179 223 282 356 392
#     4  11  24  39  71  94 135 175 233 281 326 416
#     4  11  26  43  69 100 137 179 229 279 339 415
#     4  11  23  42  69 101 134 175 224 288 330 397
#     4  12  23  46  71  99 131 180 241 275 332 405
#     4  12  18  38  76  94 114 184 232 266 328 376
#     4  11  26  42  68 105 136 176 230 284 337 395
#
# _framework density 19.203133999999999
#
# number of rings (size 3 to 8) (size 9 to 14) (size 15 to 20)
#    0.000    0.800    6.000    1.600    9.333    1.600 
#    0.000    0.000    0.000    0.000    0.000    0.000 
#    0.000    0.000    0.000    0.000    0.000    0.000 
#
# Total GULP energy -167565.816108 kJ/mol
# GULP energy per Si atom -5585.527204 kJ/mol
# Density = 1.915943 g / cm^3
# Si number density = 19.203134 Si / 1000 Ang^3
#
#
#
# Elastic Constant Matrix: (Units=GPa)
#
#
# Indices 1 2 3 4 5 6 
#
# 1 191.2544 88.7026 74.7965 0.0000 0.0000 0.0000
# 2 88.7026 148.2377 67.1666 0.0000 0.0000 0.0000
# 3 74.7965 67.1666 181.0012 0.0000 0.0000 0.0000
# 4 0.0000 0.0000 0.0000 22.7570 0.0000 0.0000
# 5 0.0000 0.0000 0.0000 0.0000 23.9111 0.0000
# 6 0.0000 0.0000 0.0000 0.0000 0.0000 34.5373
#
#
#
# Elastic Compliance Matrix: (Units=1/GPa)
#
#
# Indices 1 2 3 4 5 6 
#
# 1 0.007679 -0.003795 -0.001765 0.000000 0.000000 0.000000
# 2 -0.003795 0.009985 -0.002137 0.000000 0.000000 0.000000
# 3 -0.001765 -0.002137 0.007047 0.000000 0.000000 0.000000
# 4 0.000000 0.000000 0.000000 0.043942 0.000000 0.000000
# 5 0.000000 0.000000 0.000000 0.000000 0.041822 0.000000
# 6 0.000000 0.000000 0.000000 0.000000 0.000000 0.028954
#
#
# Mechanical properties :
#
#
# Convention : Reuss Voigt Hill
#
# Bulk Modulus (GPa) = 107.33025 109.09164 108.21095
# Shear Modulus (GPa) = 31.65960 35.56293 33.61127
#
# Velocity S-wave (km/s) = 4.06478 4.30808 4.18820
# Velocity P-wave (km/s) = 8.83422 9.03763 8.93650
#
# Compressibility (1/GPa) = 0.00931704
#
# Stress axis : x y z
#
# Youngs Moduli (GPa) = 130.22306 100.14757 141.90134
#
# Poissons Ratio (x) = 0.38010 0.25044
# Poissons Ratio (y) = 0.49424 0.30324
# Poissons Ratio (z) = 0.22983 0.21401
#
# Static dielectric constant tensor:
#      x y z
#    x 1.659010 0.000000 0.000000 
#    y 0.000000 1.732060 0.000000 
#    z 0.000000 0.000000 1.675190 
# 
# From -- ./inp_files/41476.got.cif
#   From: 2010.05.17/outbox.cif.g08.bks.cpg/sg63_21_cif.got.tgz:41476.got - 2010.06.03 15:47:04.
