data_PCOD9475003
_publ_section_title
;
Structure prediction by ZEFSAII (Michael W. Deem and Ramdas Pophale) SiO2 
 PCOD9475003
Probable space group: C M C M
;
_chemical_formula_sum "Si O2"
_cell_formula_units_Z 108
_cell_length_a 27.314585
_cell_length_b 12.264668
_cell_length_c 15.475962
_cell_angle_alpha 90.000000
_cell_angle_beta 90.000000
_cell_angle_gamma 90.000000
_cell_volume 5184.514073
_symmetry_space_group_name_H-M "C M C M"
_symmetry_group_IT_number 63
_symmetry_cell_setting 'orthorhombic'
loop_
_space_group_symop_operation_xyz
x,y,z
-x,-y,1/2+z
x,-y,-z
-x,y,1/2-z
-x,-y,-z
x,y,1/2-z
-x,y,z
x,-y,1/2+z
1/2+x,1/2+y,z
1/2-x,1/2-y,1/2+z
1/2+x,1/2-y,-z
1/2-x,1/2+y,1/2-z
1/2-x,1/2-y,-z
1/2+x,1/2+y,1/2-z
1/2-x,1/2+y,z
1/2+x,1/2-y,1/2+z
loop_
_atom_site_type_symbol
_atom_site_label
_atom_site_fract_x
_atom_site_fract_y
_atom_site_fract_z
Si Si1 0.000000 0.267244 0.750000
Si Si2 0.220633 0.399721 0.059987
Si Si3 0.682028 0.703858 0.940276
Si Si4 0.370968 0.500000 0.500000
Si Si5 0.877042 0.472452 0.350504
Si Si6 0.944199 0.969715 0.650850
Si Si7 0.084869 0.296900 0.604890
Si Si8 0.944659 0.277213 0.091794
O O1 0.043336 0.272420 0.674404
O O2 0.268743 0.345208 0.101668
O O3 0.178134 0.447194 0.120185
O O4 0.236522 0.500000 0.000000
O O5 0.197001 0.307052 0.998620
O O6 0.637596 0.740400 0.879248
O O7 0.661219 0.608783 0.002544
O O8 0.405581 0.513111 0.582967
O O9 0.878660 0.500173 0.250000
O O10 0.902274 0.574074 0.398604
O O11 0.907734 0.363858 0.368956
O O12 0.934615 0.999899 0.750000
O O13 0.942305 0.838947 0.639251
O O14 0.000000 0.004992 0.630534
O O15 0.067491 0.261844 0.509276
O O16 0.000000 0.319250 0.100090
#
# Coordination Sequence:
#
# PCOD9475003 Si02
#       8
#     4  16  16   8  16  16  16  16
#     4  12  28  44  66 102 158 190 228 292 370 452
#     4  11  21  44  74  99 130 180 232 295 363 419
#     4  11  24  41  73 101 130 179 242 286 351 438
#     4  12  21  42  68  96 134 176 231 290 340 424
#     4  12  24  39  64 100 143 182 231 291 357 430
#     4  10  22  41  62  95 133 178 236 288 340 410
#     4  12  23  44  63 100 143 182 232 284 356 439
#     4  11  22  38  68  94 133 185 235 288 350 420
#
# _framework density 20.831268000000001
#
# number of rings (size 3 to 8) (size 9 to 14) (size 15 to 20)
#    0.000    0.741    6.667    1.111    1.037    1.481 
#    4.000    0.000    0.000    0.000    0.000    0.000 
#    0.000    0.000    0.000    0.000    0.000    0.000 
#
# Total GULP energy -301404.334324 kJ/mol
# GULP energy per Si atom -5581.561747 kJ/mol
# Density = 2.078386 g / cm^3
# Si number density = 20.831268 Si / 1000 Ang^3
#
#
#
# Elastic Constant Matrix: (Units=GPa)
#
#
# Indices 1 2 3 4 5 6 
#
# 1 148.2373 24.9765 29.3213 0.0000 0.0000 0.0000
# 2 24.9765 86.7491 5.1560 0.0000 0.0000 0.0000
# 3 29.3213 5.1560 50.9353 0.0000 0.0000 0.0000
# 4 0.0000 0.0000 0.0000 14.0531 0.0000 0.0000
# 5 0.0000 0.0000 0.0000 0.0000 14.4399 0.0000
# 6 0.0000 0.0000 0.0000 0.0000 0.0000 13.4119
#
#
#
# Elastic Compliance Matrix: (Units=1/GPa)
#
#
# Indices 1 2 3 4 5 6 
#
# 1 0.007953 -0.002030 -0.004373 0.000000 0.000000 0.000000
# 2 -0.002030 0.012115 -0.000058 0.000000 0.000000 0.000000
# 3 -0.004373 -0.000058 0.022156 0.000000 0.000000 0.000000
# 4 0.000000 0.000000 0.000000 0.071159 0.000000 0.000000
# 5 0.000000 0.000000 0.000000 0.000000 0.069252 0.000000
# 6 0.000000 0.000000 0.000000 0.000000 0.000000 0.074561
#
#
# Mechanical properties :
#
#
# Convention : Reuss Voigt Hill
#
# Bulk Modulus (GPa) = 34.12597 44.98101 39.55349
# Shear Modulus (GPa) = 17.86451 23.47885 20.67168
#
# Velocity S-wave (km/s) = 2.93163 3.36087 3.15356
# Velocity P-wave (km/s) = 5.27986 6.05809 5.68231
#
# Compressibility (1/GPa) = 0.02930319
#
# Stress axis : x y z
#
# Youngs Moduli (GPa) = 125.74090 82.53983 45.13500
#
# Poissons Ratio (x) = 0.16754 0.19736
# Poissons Ratio (y) = 0.25524 0.00261
# Poissons Ratio (z) = 0.54982 0.00478
#
# Static dielectric constant tensor:
#      x y z
#    x 1.766520 0.000000 0.000000 
#    y 0.000000 1.770000 0.000000 
#    z 0.000000 0.000000 1.719720 
# 
# From -- ./inp_files/38613.got.cif
#   From: 2010.05.17/outbox.cif.g08.bks.cpg/sg63_20_cif.got.tgz:38613.got - 2010.06.03 15:47:04.
