data_PCOD9475271
_publ_section_title
;
Structure prediction by ZEFSAII (Michael W. Deem and Ramdas Pophale) SiO2 
 PCOD9475271
Probable space group: C M C M
;
_chemical_formula_sum "Si O2"
_cell_formula_units_Z 116
_cell_length_a 25.882635
_cell_length_b 12.657672
_cell_length_c 18.447130
_cell_angle_alpha 90.000000
_cell_angle_beta 90.000000
_cell_angle_gamma 90.000000
_cell_volume 6043.536283
_symmetry_space_group_name_H-M "C M C M"
_symmetry_group_IT_number 63
_symmetry_cell_setting 'orthorhombic'
loop_
_space_group_symop_operation_xyz
x,y,z
-x,-y,1/2+z
x,-y,-z
-x,y,1/2-z
-x,-y,-z
x,y,1/2-z
-x,y,z
x,-y,1/2+z
1/2+x,1/2+y,z
1/2-x,1/2-y,1/2+z
1/2+x,1/2-y,-z
1/2-x,1/2+y,1/2-z
1/2-x,1/2-y,-z
1/2+x,1/2+y,1/2-z
1/2-x,1/2+y,z
1/2+x,1/2-y,1/2+z
loop_
_atom_site_type_symbol
_atom_site_label
_atom_site_fract_x
_atom_site_fract_y
_atom_site_fract_z
Si Si1 0.000000 0.500000 0.500000
Si Si2 0.438998 0.330558 0.664668
Si Si3 0.213529 0.870566 0.335998
Si Si4 0.559812 0.264097 0.087932
Si Si5 0.082633 0.353172 0.438299
Si Si6 0.380313 0.518086 0.584772
Si Si7 0.346957 0.153285 0.334806
Si Si8 0.192462 0.454142 0.425382
O O1 0.045456 0.453474 0.445793
O O2 0.428011 0.338438 0.750000
O O3 0.500000 0.350914 0.653383
O O4 0.426525 0.215065 0.633296
O O5 0.405862 0.415366 0.620180
O O6 0.219019 0.890528 0.250000
O O7 0.192075 0.751801 0.345563
O O8 0.266187 0.889993 0.378923
O O9 0.170286 0.946872 0.370930
O O10 0.500000 0.254876 0.108504
O O11 0.579645 0.384086 0.090484
O O12 0.597846 0.194686 0.137033
O O13 0.565876 0.219537 0.006477
O O14 0.142139 0.385407 0.445055
O O15 0.368799 0.500000 0.500000
O O16 0.349341 0.129144 0.250000
O O17 0.327775 0.052799 0.378749
O O18 0.215453 0.500000 0.500000
#
# Coordination Sequence:
#
# PCOD9475271 Si02
#       8
#     4  16  16  16  16  16  16  16
#     4  12  20  40  66  86 124 176 210 270 318 392
#     4  11  24  41  63  99 143 179 217 275 339 400
#     4  10  24  44  65  91 132 175 214 274 337 392
#     4  11  21  39  67  96 131 172 217 270 321 386
#     4  12  23  40  66  96 127 170 224 265 329 391
#     4  11  22  39  67 101 130 173 225 271 321 398
#     4  10  23  44  64  93 131 169 218 275 330 393
#     4  12  24  41  67  99 124 169 221 274 328 393
#
# _framework density 19.194058999999999
#
# number of rings (size 3 to 8) (size 9 to 14) (size 15 to 20)
#    0.000    0.966    4.828    1.655    0.000    4.138 
#    0.000    1.379    0.000    0.000    0.000    0.000 
#    0.000    0.000    0.000    0.000    0.000    0.000 
#
# Total GULP energy -323730.116748 kJ/mol
# GULP energy per Si atom -5581.553737 kJ/mol
# Density = 1.915037 g / cm^3
# Si number density = 19.194059 Si / 1000 Ang^3
#
#
#
# Elastic Constant Matrix: (Units=GPa)
#
#
# Indices 1 2 3 4 5 6 
#
# 1 117.3081 13.0166 26.2743 0.0000 0.0000 0.0000
# 2 13.0166 33.5202 10.9365 0.0000 0.0000 0.0000
# 3 26.2743 10.9365 73.0778 0.0000 0.0000 0.0000
# 4 0.0000 0.0000 0.0000 30.7443 0.0000 0.0000
# 5 0.0000 0.0000 0.0000 0.0000 96.2134 0.0000
# 6 0.0000 0.0000 0.0000 0.0000 0.0000 37.4326
#
#
#
# Elastic Compliance Matrix: (Units=1/GPa)
#
#
# Indices 1 2 3 4 5 6 
#
# 1 0.009499 -0.002707 -0.003010 0.000000 0.000000 0.000000
# 2 -0.002707 0.032135 -0.003836 0.000000 0.000000 0.000000
# 3 -0.003010 -0.003836 0.015340 0.000000 0.000000 0.000000
# 4 0.000000 0.000000 0.000000 0.032526 0.000000 0.000000
# 5 0.000000 0.000000 0.000000 0.000000 0.010394 0.000000
# 6 0.000000 0.000000 0.000000 0.000000 0.000000 0.026715
#
#
# Mechanical properties :
#
#
# Convention : Reuss Voigt Hill
#
# Bulk Modulus (GPa) = 26.40678 36.04009 31.22344
# Shear Modulus (GPa) = 31.57793 44.45665 38.01729
#
# Velocity S-wave (km/s) = 4.06050 4.81788 4.45531
# Velocity P-wave (km/s) = 5.98090 7.05455 6.53980
#
# Compressibility (1/GPa) = 0.03786906
#
# Stress axis : x y z
#
# Youngs Moduli (GPa) = 105.27304 31.11835 65.18716
#
# Poissons Ratio (x) = 0.08422 0.19623
# Poissons Ratio (y) = 0.28493 0.25007
# Poissons Ratio (z) = 0.31690 0.11937
#
# Static dielectric constant tensor:
#      x y z
#    x 1.647630 0.000000 0.000000 
#    y 0.000000 1.679880 0.000000 
#    z 0.000000 0.000000 1.647920 
# 
# From -- ./inp_files/49101.got.cif
#   From: 2010.05.17/outbox.cif.g08.bks.cpg/sg63_25_cif.got.tgz:49101.got - 2010.06.03 15:47:04.
