data_PCOD9475831
_publ_section_title
;
Structure prediction by ZEFSAII (Michael W. Deem and Ramdas Pophale) SiO2 
 PCOD9475831
Probable space group: C M C M
;
_chemical_formula_sum "Si O2"
_cell_formula_units_Z 112
_cell_length_a 31.249059
_cell_length_b 12.131187
_cell_length_c 14.462864
_cell_angle_alpha 90.000000
_cell_angle_beta 90.000000
_cell_angle_gamma 90.000000
_cell_volume 5482.700767
_symmetry_space_group_name_H-M "C M C M"
_symmetry_group_IT_number 63
_symmetry_cell_setting 'orthorhombic'
loop_
_space_group_symop_operation_xyz
x,y,z
-x,-y,1/2+z
x,-y,-z
-x,y,1/2-z
-x,-y,-z
x,y,1/2-z
-x,y,z
x,-y,1/2+z
1/2+x,1/2+y,z
1/2-x,1/2-y,1/2+z
1/2+x,1/2-y,-z
1/2-x,1/2+y,1/2-z
1/2-x,1/2-y,-z
1/2+x,1/2+y,1/2-z
1/2-x,1/2+y,z
1/2+x,1/2-y,1/2+z
loop_
_atom_site_type_symbol
_atom_site_label
_atom_site_fract_x
_atom_site_fract_y
_atom_site_fract_z
Si Si1 0.380536 0.738097 0.639641
Si Si2 0.690857 0.291229 0.649918
Si Si3 0.449905 0.368649 0.486640
Si Si4 0.594367 0.777246 0.358609
Si Si5 0.133055 0.486906 0.862059
Si Si6 0.692416 0.393129 0.036523
Si Si7 0.275934 0.956857 0.146621
O O1 0.377468 0.726945 0.750000
O O2 0.419868 0.672113 0.596433
O O3 0.386021 0.867678 0.616539
O O4 0.337529 0.689008 0.593143
O O5 0.699633 0.343482 0.750000
O O6 0.639796 0.286472 0.637836
O O7 0.710133 0.337630 0.556363
O O8 0.706378 0.166806 0.655072
O O9 0.443493 0.500000 0.500000
O O10 0.500000 0.351296 0.467757
O O11 0.436299 0.292292 0.574584
O O12 0.580920 0.780999 0.250000
O O13 0.606658 0.903238 0.389869
O O14 0.135795 0.496863 0.750000
O O15 0.182600 0.482724 0.895458
O O16 0.731541 0.441486 0.094823
O O17 0.666427 0.500000 0.000000
O O18 0.269267 0.000873 0.250000
#
# Coordination Sequence:
#
# PCOD9475831 Si02
#       7
#    16  16  16  16  16  16  16
#     4  11  24  43  66  91 127 174 215 263 326 388
#     4   9  19  36  58  81 117 162 210 265 315 366
#     4  11  25  45  67  99 135 164 207 261 315 392
#     4   9  18  39  68  96 126 166 213 260 316 378
#     4   8  18  39  66  94 127 170 218 266 319 377
#     4  12  24  37  53  85 124 167 222 268 319 378
#     4   9  19  37  58  86 121 163 214 269 319 371
#
# _framework density 20.427890000000001
#
# number of rings (size 3 to 8) (size 9 to 14) (size 15 to 20)
#    0.000    2.143    1.429    3.000    0.000    5.143 
#    0.000    5.714    0.000    2.571    0.000    0.000 
#    0.000    0.000    0.000    0.000    0.000    0.000 
#
# Total GULP energy -312340.576877 kJ/mol
# GULP energy per Si atom -5577.510301 kJ/mol
# Density = 2.038139 g / cm^3
# Si number density = 20.427890 Si / 1000 Ang^3
#
#
#
# Elastic Constant Matrix: (Units=GPa)
#
#
# Indices 1 2 3 4 5 6 
#
# 1 96.0464 43.1785 32.7889 0.0000 0.0000 0.0000
# 2 43.1785 105.2922 29.1855 0.0000 0.0000 0.0000
# 3 32.7889 29.1855 113.8860 0.0000 0.0000 0.0000
# 4 0.0000 0.0000 0.0000 29.7023 0.0000 0.0000
# 5 0.0000 0.0000 0.0000 0.0000 -16.5930 0.0000
# 6 0.0000 0.0000 0.0000 0.0000 0.0000 23.5725
#
#
#
# Elastic Compliance Matrix: (Units=1/GPa)
#
#
# Indices 1 2 3 4 5 6 
#
# 1 0.013469 -0.004789 -0.002651 0.000000 0.000000 0.000000
# 2 -0.004789 0.011926 -0.001678 0.000000 0.000000 0.000000
# 3 -0.002651 -0.001678 0.009974 0.000000 0.000000 0.000000
# 4 0.000000 0.000000 0.000000 0.033667 0.000000 0.000000
# 5 0.000000 0.000000 0.000000 0.000000 -0.060266 0.000000
# 6 0.000000 0.000000 0.000000 0.000000 0.000000 0.042422
#
#
# Mechanical properties :
#
#
# Convention : Reuss Voigt Hill
#
# Bulk Modulus (GPa) = 58.35968 58.39228 58.37598
# Shear Modulus (GPa) = 66.54342 21.34114 43.94228
#
# Velocity S-wave (km/s) = 5.71362 3.23570 4.64302
# Velocity P-wave (km/s) = 8.49459 6.52735 7.57510
#
# Compressibility (1/GPa) = 0.01713512
#
# Stress axis : x y z
#
# Youngs Moduli (GPa) = 74.24225 83.84905 100.26268
#
# Poissons Ratio (x) = 0.40154 0.26577
# Poissons Ratio (y) = 0.35553 0.16820
# Poissons Ratio (z) = 0.19680 0.14066
#
# Static dielectric constant tensor:
#      x y z
#    x 1.717890 0.000000 0.000000 
#    y 0.000000 1.758770 0.000000 
#    z 0.000000 0.000000 1.777330 
# 
# From -- ./inp_files/38533.got.cif
#   From: 2010.05.17/outbox.cif.g08.bks.cpg/sg63_20_cif.got.tgz:38533.got - 2010.06.03 15:47:04.
