data_PCOD9475489
_publ_section_title
;
Structure prediction by ZEFSAII (Michael W. Deem and Ramdas Pophale) SiO2 
 PCOD9475489
Probable space group: C M C M
;
_chemical_formula_sum "Si O2"
_cell_formula_units_Z 96
_cell_length_a 24.694683
_cell_length_b 14.225769
_cell_length_c 15.331490
_cell_angle_alpha 90.000000
_cell_angle_beta 90.000000
_cell_angle_gamma 90.000000
_cell_volume 5385.965559
_symmetry_space_group_name_H-M "C M C M"
_symmetry_group_IT_number 63
_symmetry_cell_setting 'orthorhombic'
loop_
_space_group_symop_operation_xyz
x,y,z
-x,-y,1/2+z
x,-y,-z
-x,y,1/2-z
-x,-y,-z
x,y,1/2-z
-x,y,z
x,-y,1/2+z
1/2+x,1/2+y,z
1/2-x,1/2-y,1/2+z
1/2+x,1/2-y,-z
1/2-x,1/2+y,1/2-z
1/2-x,1/2-y,-z
1/2+x,1/2+y,1/2-z
1/2-x,1/2+y,z
1/2+x,1/2-y,1/2+z
loop_
_atom_site_type_symbol
_atom_site_label
_atom_site_fract_x
_atom_site_fract_y
_atom_site_fract_z
Si Si1 0.061497 0.986176 0.643267
Si Si2 0.263135 0.992161 0.600364
Si Si3 0.438893 0.269656 0.856386
Si Si4 0.834024 0.663198 0.855413
Si Si5 0.728827 0.223516 0.355371
Si Si6 0.839953 0.892858 0.149209
O O1 0.062807 0.987392 0.750000
O O2 0.072738 0.877863 0.618642
O O3 0.000000 0.010365 0.617135
O O4 0.107738 0.056242 0.609894
O O5 0.313893 0.060317 0.617886
O O6 0.211028 0.035309 0.649330
O O7 0.248192 0.000000 0.500000
O O8 0.275839 0.884903 0.621653
O O9 0.438761 0.267971 0.750000
O O10 0.500000 0.245848 0.884405
O O11 0.391922 0.199916 0.886833
O O12 0.834789 0.665019 0.750000
O O13 0.786530 0.734357 0.884808
O O14 0.728345 0.230377 0.250000
O O15 0.682941 0.295452 0.389363
O O16 0.853862 0.872915 0.250000
#
# Coordination Sequence:
#
# PCOD9475489 Si02
#       6
#    16  16  16  16  16  16
#     4   8  13  23  43  71  96 113 135 173 219 264
#     4  11  21  30  43  64  90 119 150 185 222 259
#     4   8  13  22  40  66  90 110 136 176 223 263
#     4   9  17  29  46  66  88 115 146 181 220 262
#     4   9  17  30  47  65  86 114 146 178 215 261
#     4   9  17  29  46  67  90 118 148 178 217 263
#
# _framework density 17.824102
#
# number of rings (size 3 to 8) (size 9 to 14) (size 15 to 20)
#    0.000    3.000    0.000    4.500    0.000    5.333 
#    0.000    0.000    0.000    2.000    0.000    7.000 
#    0.000    0.000    0.000    0.000    0.000    0.000 
#
# Total GULP energy -267448.260438 kJ/mol
# GULP energy per Si atom -5571.838759 kJ/mol
# Density = 1.778353 g / cm^3
# Si number density = 17.824102 Si / 1000 Ang^3
#
#
#
# Elastic Constant Matrix: (Units=GPa)
#
#
# Indices 1 2 3 4 5 6 
#
# 1 103.7812 83.2189 0.8033 0.0000 0.0000 0.0000
# 2 83.2189 152.2636 -1.4201 0.0000 0.0000 0.0000
# 3 0.8033 -1.4201 14.9858 0.0000 0.0000 0.0000
# 4 0.0000 0.0000 0.0000 -92.9751 0.0000 0.0000
# 5 0.0000 0.0000 0.0000 0.0000 -3.3593 0.0000
# 6 0.0000 0.0000 0.0000 0.0000 0.0000 15.4285
#
#
#
# Elastic Compliance Matrix: (Units=1/GPa)
#
#
# Indices 1 2 3 4 5 6 
#
# 1 0.017202 -0.009419 -0.001815 0.000000 0.000000 0.000000
# 2 -0.009419 0.011730 0.001617 0.000000 0.000000 0.000000
# 3 -0.001815 0.001617 0.066980 0.000000 0.000000 0.000000
# 4 0.000000 0.000000 0.000000 -0.010756 0.000000 0.000000
# 5 0.000000 0.000000 0.000000 0.000000 -0.297681 0.000000
# 6 0.000000 0.000000 0.000000 0.000000 0.000000 0.064815
#
#
# Mechanical properties :
#
#
# Convention : Reuss Voigt Hill
#
# Bulk Modulus (GPa) = 13.04134 48.47054 30.75594
# Shear Modulus (GPa) = -48.58403 -3.61928 -26.10166
#
# Velocity S-wave (km/s) = -5.22653 -1.42652 -3.83090
# Velocity P-wave (km/s) = 5.39348 4.95374 1.50832
#
# Compressibility (1/GPa) = 0.07667922
#
# Stress axis : x y z
#
# Youngs Moduli (GPa) = 58.13171 85.24849 14.92975
#
# Poissons Ratio (x) = 0.80294 0.02709
# Poissons Ratio (y) = 0.54753 -0.02413
# Poissons Ratio (z) = 0.10549 -0.13781
#
# Static dielectric constant tensor:
#      x y z
#    x 1.622450 0.000000 0.000000 
#    y 0.000000 1.610910 0.000000 
#    z 0.000000 0.000000 1.626090 
# 
# From -- ./inp_files/48058.got.cif
#   From: 2010.05.17/outbox.cif.g08.bks.cpg/sg63_25_cif.got.tgz:48058.got - 2010.06.03 15:47:04.
