data_PCOD9475878
_publ_section_title
;
Structure prediction by ZEFSAII (Michael W. Deem and Ramdas Pophale) SiO2 
 PCOD9475878
Probable space group: C M C M
;
_chemical_formula_sum "Si O2"
_cell_formula_units_Z 56
_cell_length_a 26.733619
_cell_length_b 5.300442
_cell_length_c 16.271759
_cell_angle_alpha 90.000000
_cell_angle_beta 90.000000
_cell_angle_gamma 90.000000
_cell_volume 2305.708201
_symmetry_space_group_name_H-M "C M C M"
_symmetry_group_IT_number 63
_symmetry_cell_setting 'orthorhombic'
loop_
_space_group_symop_operation_xyz
x,y,z
-x,-y,1/2+z
x,-y,-z
-x,y,1/2-z
-x,-y,-z
x,y,1/2-z
-x,y,z
x,-y,1/2+z
1/2+x,1/2+y,z
1/2-x,1/2-y,1/2+z
1/2+x,1/2-y,-z
1/2-x,1/2+y,1/2-z
1/2-x,1/2-y,-z
1/2+x,1/2+y,1/2-z
1/2-x,1/2+y,z
1/2+x,1/2-y,1/2+z
loop_
_atom_site_type_symbol
_atom_site_label
_atom_site_fract_x
_atom_site_fract_y
_atom_site_fract_z
Si Si1 0.087188 0.500000 0.500000
Si Si2 0.718388 0.500000 0.500000
Si Si3 0.944446 0.798769 0.160044
Si Si4 0.284854 0.904401 0.250000
Si Si5 0.145315 0.839487 0.620453
O O1 0.059814 0.375847 0.578886
O O2 0.121560 0.707468 0.541631
O O3 0.750000 0.250000 0.500000
O O4 0.686788 0.520937 0.583365
O O5 0.941083 0.665700 0.250000
O O6 0.000000 0.917788 0.156210
O O7 0.899966 0.002179 0.158665
O O8 0.245038 0.668820 0.250000
O O9 0.323750 0.858591 0.174876
#
# Coordination Sequence:
#
# PCOD9475878 Si02
#       5
#     8   8  16   8  16
#     4  12  26  46  77 116 160 203 268 331 411 478
#     4  12  25  44  70 110 153 205 262 319 396 472
#     4  11  26  49  79 113 156 208 266 331 412 489
#     4  12  30  50  79 116 161 216 276 336 402 482
#     4  12  26  46  76 109 159 204 263 337 398 482
#
# _framework density 24.287548999999999
#
# number of rings (size 3 to 8) (size 9 to 14) (size 15 to 20)
#    0.000    0.286    4.286    3.000    6.000    3.429 
#    0.000    2.857    0.000    0.000    0.000    0.000 
#    0.000    0.000    0.000    0.000    0.000    0.000 
#
# Total GULP energy -156565.441813 kJ/mol
# GULP energy per Si atom -5591.622922 kJ/mol
# Density = 2.423227 g / cm^3
# Si number density = 24.287549 Si / 1000 Ang^3
#
#
#
# Elastic Constant Matrix: (Units=GPa)
#
#
# Indices 1 2 3 4 5 6 
#
# 1 139.9167 52.2787 47.5326 0.0000 0.0000 0.0000
# 2 52.2787 96.8050 34.6641 0.0000 0.0000 0.0000
# 3 47.5326 34.6641 176.0504 0.0000 0.0000 0.0000
# 4 0.0000 0.0000 0.0000 24.3228 0.0000 0.0000
# 5 0.0000 0.0000 0.0000 0.0000 104.2366 0.0000
# 6 0.0000 0.0000 0.0000 0.0000 0.0000 11.1776
#
#
#
# Elastic Compliance Matrix: (Units=1/GPa)
#
#
# Indices 1 2 3 4 5 6 
#
# 1 0.009380 -0.004474 -0.001652 0.000000 0.000000 0.000000
# 2 -0.004474 0.013248 -0.001400 0.000000 0.000000 0.000000
# 3 -0.001652 -0.001400 0.006402 0.000000 0.000000 0.000000
# 4 0.000000 0.000000 0.000000 0.041114 0.000000 0.000000
# 5 0.000000 0.000000 0.000000 0.000000 0.009594 0.000000
# 6 0.000000 0.000000 0.000000 0.000000 0.000000 0.089465
#
#
# Mechanical properties :
#
#
# Convention : Reuss Voigt Hill
#
# Bulk Modulus (GPa) = 71.54534 75.74698 73.64616
# Shear Modulus (GPa) = 26.46721 46.50052 36.48386
#
# Velocity S-wave (km/s) = 3.30471 4.38034 3.87998
# Velocity P-wave (km/s) = 6.63951 7.53913 7.10357
#
# Compressibility (1/GPa) = 0.01397715
#
# Stress axis : x y z
#
# Youngs Moduli (GPa) = 106.61089 75.48448 156.20468
#
# Poissons Ratio (x) = 0.33773 0.25798
# Poissons Ratio (y) = 0.47699 0.21876
# Poissons Ratio (z) = 0.17607 0.10571
#
# Static dielectric constant tensor:
#      x y z
#    x 1.985730 0.000000 0.000000 
#    y 0.000000 1.917410 0.000000 
#    z 0.000000 0.000000 2.054390 
# 
# From -- ./inp_files/48618.got.cif
#   From: 2010.05.17/outbox.cif.g08.bks.cpg/sg63_25_cif.got.tgz:48618.got - 2010.06.03 15:47:04.
