data_PCOD9475193
_publ_section_title
;
Structure prediction by ZEFSAII (Michael W. Deem and Ramdas Pophale) SiO2 
 PCOD9475193
Probable space group: C M C M
;
_chemical_formula_sum "Si O2"
_cell_formula_units_Z 80
_cell_length_a 23.595463
_cell_length_b 9.197636
_cell_length_c 17.468372
_cell_angle_alpha 90.000000
_cell_angle_beta 90.000000
_cell_angle_gamma 90.000000
_cell_volume 3791.029412
_symmetry_space_group_name_H-M "C M C M"
_symmetry_group_IT_number 63
_symmetry_cell_setting 'orthorhombic'
loop_
_space_group_symop_operation_xyz
x,y,z
-x,-y,1/2+z
x,-y,-z
-x,y,1/2-z
-x,-y,-z
x,y,1/2-z
-x,y,z
x,-y,1/2+z
1/2+x,1/2+y,z
1/2-x,1/2-y,1/2+z
1/2+x,1/2-y,-z
1/2-x,1/2+y,1/2-z
1/2-x,1/2-y,-z
1/2+x,1/2+y,1/2-z
1/2-x,1/2+y,z
1/2+x,1/2-y,1/2+z
loop_
_atom_site_type_symbol
_atom_site_label
_atom_site_fract_x
_atom_site_fract_y
_atom_site_fract_z
Si Si1 0.643034 0.500106 0.659964
Si Si2 0.855967 0.669801 0.660569
Si Si3 0.566488 0.641562 0.947234
Si Si4 0.356474 0.908874 0.930261
Si Si5 0.233927 0.805474 0.086026
O O1 0.658822 0.513027 0.750000
O O2 0.625202 0.334067 0.644288
O O3 0.589511 0.597754 0.636624
O O4 0.693703 0.554390 0.603209
O O5 0.859032 0.647094 0.750000
O O6 0.885262 0.533135 0.620041
O O7 0.790717 0.672817 0.632994
O O8 0.500000 0.669430 0.950637
O O9 0.602705 0.785818 0.964902
O O10 0.578849 0.500000 0.000000
O O11 0.307260 0.824539 0.885314
O O12 0.330190 0.000000 0.000000
O O13 0.250000 0.750000 0.000000
#
# Coordination Sequence:
#
# PCOD9475193 Si02
#       5
#    16  16  16  16  16
#     4  10  23  40  61  90 129 171 216 265 317 384
#     4  11  23  38  58  90 132 172 210 256 310 376
#     4  10  23  43  68  92 118 159 213 270 331 394
#     4  11  22  38  61  92 126 161 207 264 312 380
#     4  11  22  36  60  92 127 170 213 251 306 376
#
# _framework density 21.102447999999999
#
# number of rings (size 3 to 8) (size 9 to 14) (size 15 to 20)
#    0.000    1.400    2.000    3.000    2.800    6.400 
#    0.000    1.000    0.000    1.200    0.000    0.000 
#    0.000    0.000    0.000    0.000    0.000    0.000 
#
# Total GULP energy -222996.730223 kJ/mol
# GULP energy per Si atom -5574.918256 kJ/mol
# Density = 2.105442 g / cm^3
# Si number density = 21.102448 Si / 1000 Ang^3
#
#
#
# Elastic Constant Matrix: (Units=GPa)
#
#
# Indices 1 2 3 4 5 6 
#
# 1 48.2406 22.7322 -7.6212 0.0000 0.0000 0.0000
# 2 22.7322 136.3834 39.8607 0.0000 0.0000 0.0000
# 3 -7.6212 39.8607 71.1127 0.0000 0.0000 0.0000
# 4 0.0000 0.0000 0.0000 36.0784 0.0000 0.0000
# 5 0.0000 0.0000 0.0000 0.0000 16.2982 0.0000
# 6 0.0000 0.0000 0.0000 0.0000 0.0000 24.7951
#
#
#
# Elastic Compliance Matrix: (Units=1/GPa)
#
#
# Indices 1 2 3 4 5 6 
#
# 1 0.024373 -0.005771 0.005847 0.000000 0.000000 0.000000
# 2 -0.005771 0.010135 -0.006300 0.000000 0.000000 0.000000
# 3 0.005847 -0.006300 0.018220 0.000000 0.000000 0.000000
# 4 0.000000 0.000000 0.000000 0.027717 0.000000 0.000000
# 5 0.000000 0.000000 0.000000 0.000000 0.061357 0.000000
# 6 0.000000 0.000000 0.000000 0.000000 0.000000 0.040331
#
#
# Mechanical properties :
#
#
# Convention : Reuss Voigt Hill
#
# Bulk Modulus (GPa) = 24.82610 40.63114 32.72862
# Shear Modulus (GPa) = 24.03759 28.81866 26.42813
#
# Velocity S-wave (km/s) = 3.37870 3.69949 3.54273
# Velocity P-wave (km/s) = 5.19721 6.12734 5.68134
#
# Compressibility (1/GPa) = 0.04028019
#
# Stress axis : x y z
#
# Youngs Moduli (GPa) = 41.02938 98.66361 54.88477
#
# Poissons Ratio (x) = 0.56942 -0.32091
# Poissons Ratio (y) = 0.23679 0.34576
# Poissons Ratio (z) = -0.23990 0.62155
#
# Static dielectric constant tensor:
#      x y z
#    x 1.731200 0.000000 0.000000 
#    y 0.000000 1.845930 0.000000 
#    z 0.000000 0.000000 1.800760 
# 
# From -- ./inp_files/48772.got.cif
#   From: 2010.05.17/outbox.cif.g08.bks.cpg/sg63_25_cif.got.tgz:48772.got - 2010.06.03 15:47:04.
