data_PCOD9475994
_publ_section_title
;
Structure prediction by ZEFSAII (Michael W. Deem and Ramdas Pophale) SiO2 
 PCOD9475994
Probable space group: C M C M
;
_chemical_formula_sum "Si O2"
_cell_formula_units_Z 96
_cell_length_a 7.421798
_cell_length_b 20.756225
_cell_length_c 31.265873
_cell_angle_alpha 90.000000
_cell_angle_beta 90.000000
_cell_angle_gamma 90.000000
_cell_volume 4816.461124
_symmetry_space_group_name_H-M "C M C M"
_symmetry_group_IT_number 63
_symmetry_cell_setting 'orthorhombic'
loop_
_space_group_symop_operation_xyz
x,y,z
-x,-y,1/2+z
x,-y,-z
-x,y,1/2-z
-x,-y,-z
x,y,1/2-z
-x,y,z
x,-y,1/2+z
1/2+x,1/2+y,z
1/2-x,1/2-y,1/2+z
1/2+x,1/2-y,-z
1/2-x,1/2+y,1/2-z
1/2-x,1/2-y,-z
1/2+x,1/2+y,1/2-z
1/2-x,1/2+y,z
1/2+x,1/2-y,1/2+z
loop_
_atom_site_type_symbol
_atom_site_label
_atom_site_fract_x
_atom_site_fract_y
_atom_site_fract_z
Si Si1 0.284373 0.302914 0.201545
Si Si2 0.279937 0.200651 0.132152
Si Si3 0.220001 0.551959 0.465522
Si Si4 0.285176 0.197348 0.464117
Si Si5 0.715549 0.950990 0.298453
Si Si6 0.280450 0.053061 0.367935
O O1 0.214830 0.293504 0.250000
O O2 0.500000 0.295101 0.203428
O O3 0.216001 0.251799 0.167051
O O4 0.249582 0.376934 0.189103
O O5 0.500000 0.202368 0.132567
O O6 0.220375 0.215358 0.083554
O O7 0.227692 0.126807 0.141687
O O8 0.282046 0.500000 0.500000
O O9 0.279247 0.625211 0.475188
O O10 0.273944 0.537362 0.416623
O O11 0.000000 0.551147 0.466334
O O12 0.500000 0.191862 0.460378
O O13 0.250000 0.250000 0.500000
O O14 0.785202 0.960316 0.250000
O O15 0.500000 0.959124 0.296591
O O16 0.783875 0.002012 0.333008
O O17 0.500000 0.052030 0.367689
#
# Coordination Sequence:
#
# PCOD9475994 Si02
#       6
#    16  16  16  16  16  16
#     4   9  17  29  45  63  84 113 145 173 205 251
#     4   8  15  28  44  63  86 111 143 181 213 242
#     4   8  14  25  41  61  83 107 138 173 205 241
#     4   9  17  29  45  64  87 113 140 175 215 253
#     4   9  17  28  43  65  90 111 134 172 217 252
#     4   8  14  25  41  60  82 108 138 172 207 242
#
# _framework density 19.931647999999999
#
# number of rings (size 3 to 8) (size 9 to 14) (size 15 to 20)
#    0.000    3.500    0.000    2.000    0.000    2.000 
#    0.000    5.833    0.000    5.500    0.000    4.667 
#    0.000    0.000    0.000    0.000    0.000    0.000 
#
# Total GULP energy -267626.411112 kJ/mol
# GULP energy per Si atom -5575.550232 kJ/mol
# Density = 1.988628 g / cm^3
# Si number density = 19.931648 Si / 1000 Ang^3
#
#
#
# Elastic Constant Matrix: (Units=GPa)
#
#
# Indices 1 2 3 4 5 6 
#
# 1 62.6053 2.3928 5.4968 0.0000 0.0000 0.0000
# 2 2.3928 188.9028 170.2050 0.0000 0.0000 0.0000
# 3 5.4968 170.2050 180.9622 0.0000 0.0000 0.0000
# 4 0.0000 0.0000 0.0000 44.3827 0.0000 0.0000
# 5 0.0000 0.0000 0.0000 0.0000 2.3821 0.0000
# 6 0.0000 0.0000 0.0000 0.0000 0.0000 11.3660
#
#
#
# Elastic Compliance Matrix: (Units=1/GPa)
#
#
# Indices 1 2 3 4 5 6 
#
# 1 0.016085 0.001550 -0.001947 0.000000 0.000000 0.000000
# 2 0.001550 0.034853 -0.032828 0.000000 0.000000 0.000000
# 3 -0.001947 -0.032828 0.036462 0.000000 0.000000 0.000000
# 4 0.000000 0.000000 0.000000 0.022531 0.000000 0.000000
# 5 0.000000 0.000000 0.000000 0.000000 0.419790 0.000000
# 6 0.000000 0.000000 0.000000 0.000000 0.000000 0.087982
#
#
# Mechanical properties :
#
#
# Convention : Reuss Voigt Hill
#
# Bulk Modulus (GPa) = 47.73197 87.62886 67.68042
# Shear Modulus (GPa) = 7.23447 28.58454 17.90951
#
# Velocity S-wave (km/s) = 1.90723 3.79110 3.00083
# Velocity P-wave (km/s) = 5.37120 7.95131 6.78503
#
# Compressibility (1/GPa) = 0.02095032
#
# Stress axis : x y z
#
# Youngs Moduli (GPa) = 62.17063 28.69201 27.42590
#
# Poissons Ratio (x) = -0.04448 0.05339
# Poissons Ratio (y) = -0.09638 0.90034
# Poissons Ratio (z) = 0.12103 0.94191
#
# Static dielectric constant tensor:
#      x y z
#    x 1.782750 0.000000 0.000000 
#    y 0.000000 1.670150 0.000000 
#    z 0.000000 0.000000 1.694200 
# 
# From -- ./inp_files/61653.got.cif
#   From: 2010.05.17/outbox.cif.g08.bks.cpg/sg63_31_cif.got.tgz:61653.got - 2010.06.03 15:47:04.
