data_PCOD9475354
_publ_section_title
;
Structure prediction by ZEFSAII (Michael W. Deem and Ramdas Pophale) SiO2 
 PCOD9475354
Probable space group: C M C M
;
_chemical_formula_sum "Si O2"
_cell_formula_units_Z 96
_cell_length_a 14.213324
_cell_length_b 14.575915
_cell_length_c 24.481778
_cell_angle_alpha 90.000000
_cell_angle_beta 90.000000
_cell_angle_gamma 90.000000
_cell_volume 5071.943869
_symmetry_space_group_name_H-M "C M C M"
_symmetry_group_IT_number 63
_symmetry_cell_setting 'orthorhombic'
loop_
_space_group_symop_operation_xyz
x,y,z
-x,-y,1/2+z
x,-y,-z
-x,y,1/2-z
-x,-y,-z
x,y,1/2-z
-x,y,z
x,-y,1/2+z
1/2+x,1/2+y,z
1/2-x,1/2-y,1/2+z
1/2+x,1/2-y,-z
1/2-x,1/2+y,1/2-z
1/2-x,1/2-y,-z
1/2+x,1/2+y,1/2-z
1/2-x,1/2+y,z
1/2+x,1/2-y,1/2+z
loop_
_atom_site_type_symbol
_atom_site_label
_atom_site_fract_x
_atom_site_fract_y
_atom_site_fract_z
Si Si1 0.890305 0.897491 0.185470
Si Si2 0.890744 0.698919 0.365885
Si Si3 0.104857 0.921589 0.959519
Si Si4 0.747997 0.456740 0.633339
Si Si5 0.394451 0.946241 0.056562
Si Si6 0.359752 0.767900 0.992779
O O1 0.884519 0.879279 0.250000
O O2 0.868487 0.802486 0.153761
O O3 0.000000 0.921152 0.172879
O O4 0.818534 0.979076 0.170267
O O5 0.816315 0.623539 0.344046
O O6 0.883165 0.697373 0.432078
O O7 0.000000 0.680099 0.350806
O O8 0.176587 0.910809 0.910090
O O9 0.097373 0.830213 0.994676
O O10 0.000000 0.948486 0.940722
O O11 0.141275 0.000000 0.000000
O O12 0.817670 0.523905 0.600018
O O13 0.500000 0.969000 0.075709
O O14 0.389568 0.841131 0.038106
O O15 0.377629 0.000000 0.000000
O O16 0.250000 0.750000 0.000000
#
# Coordination Sequence:
#
# PCOD9475354 Si02
#       6
#    16  16  16  16  16  16
#     4  10  24  46  67  86 112 150 201 265 325 368
#     4  11  22  38  62  91 122 159 204 248 294 359
#     4  11  22  34  50  80 119 156 196 241 284 340
#     4  12  22  36  62  89 117 154 202 247 297 359
#     4  11  21  34  53  86 129 165 192 223 277 350
#     4  12  20  34  54  82 123 166 196 231 281 350
#
# _framework density 18.927655000000001
#
# number of rings (size 3 to 8) (size 9 to 14) (size 15 to 20)
#    0.000    0.833    3.333    6.000    0.000    3.333 
#    0.000    0.000    0.000    1.500    0.000    0.000 
#    0.000    0.000    0.000    0.000    0.000    0.000 
#
# Total GULP energy -268104.578713 kJ/mol
# GULP energy per Si atom -5585.512057 kJ/mol
# Density = 1.888458 g / cm^3
# Si number density = 18.927655 Si / 1000 Ang^3
#
#
#
# Elastic Constant Matrix: (Units=GPa)
#
#
# Indices 1 2 3 4 5 6 
#
# 1 126.3795 23.8895 18.1757 0.0000 0.0000 0.0000
# 2 23.8895 100.8969 12.5091 0.0000 0.0000 0.0000
# 3 18.1757 12.5091 34.7536 0.0000 0.0000 0.0000
# 4 0.0000 0.0000 0.0000 16.0480 0.0000 0.0000
# 5 0.0000 0.0000 0.0000 0.0000 24.0752 0.0000
# 6 0.0000 0.0000 0.0000 0.0000 0.0000 40.3912
#
#
#
# Elastic Compliance Matrix: (Units=1/GPa)
#
#
# Indices 1 2 3 4 5 6 
#
# 1 0.008791 -0.001582 -0.004028 0.000000 0.000000 0.000000
# 2 -0.001582 0.010659 -0.003009 0.000000 0.000000 0.000000
# 3 -0.004028 -0.003009 0.031964 0.000000 0.000000 0.000000
# 4 0.000000 0.000000 0.000000 0.062313 0.000000 0.000000
# 5 0.000000 0.000000 0.000000 0.000000 0.041536 0.000000
# 6 0.000000 0.000000 0.000000 0.000000 0.000000 0.024758
#
#
# Mechanical properties :
#
#
# Convention : Reuss Voigt Hill
#
# Bulk Modulus (GPa) = 29.26118 41.24206 35.25162
# Shear Modulus (GPa) = 23.96342 29.93326 26.94834
#
# Velocity S-wave (km/s) = 3.56202 3.98107 3.77736
# Velocity P-wave (km/s) = 5.69301 6.55503 6.13917
#
# Compressibility (1/GPa) = 0.03417497
#
# Stress axis : x y z
#
# Youngs Moduli (GPa) = 113.75197 93.81957 31.28538
#
# Poissons Ratio (x) = 0.14843 0.12602
# Poissons Ratio (y) = 0.17996 0.09414
# Poissons Ratio (z) = 0.45821 0.28231
#
# Static dielectric constant tensor:
#      x y z
#    x 1.735830 0.000000 0.000000 
#    y 0.000000 1.683160 0.000000 
#    z 0.000000 0.000000 1.627070 
# 
# From -- ./inp_files/54188.got.cif
#   From: 2010.05.17/outbox.cif.g08.bks.cpg/sg63_28_cif.got.tgz:54188.got - 2010.06.03 15:47:04.
