data_PCOD9475594
_publ_section_title
;
Structure prediction by ZEFSAII (Michael W. Deem and Ramdas Pophale) SiO2 
 PCOD9475594
Probable space group: C M C M
;
_chemical_formula_sum "Si O2"
_cell_formula_units_Z 68
_cell_length_a 14.351960
_cell_length_b 12.112303
_cell_length_c 16.740032
_cell_angle_alpha 90.000000
_cell_angle_beta 90.000000
_cell_angle_gamma 90.000000
_cell_volume 2910.008287
_symmetry_space_group_name_H-M "C M C M"
_symmetry_group_IT_number 63
_symmetry_cell_setting 'orthorhombic'
loop_
_space_group_symop_operation_xyz
x,y,z
-x,-y,1/2+z
x,-y,-z
-x,y,1/2-z
-x,-y,-z
x,y,1/2-z
-x,y,z
x,-y,1/2+z
1/2+x,1/2+y,z
1/2-x,1/2-y,1/2+z
1/2+x,1/2-y,-z
1/2-x,1/2+y,1/2-z
1/2-x,1/2-y,-z
1/2+x,1/2+y,1/2-z
1/2-x,1/2+y,z
1/2+x,1/2-y,1/2+z
loop_
_atom_site_type_symbol
_atom_site_label
_atom_site_fract_x
_atom_site_fract_y
_atom_site_fract_z
Si Si1 0.500000 0.659768 0.250000
Si Si2 0.649535 0.156055 0.157445
Si Si3 0.189291 0.556034 0.913307
Si Si4 0.101364 0.124242 0.574611
Si Si5 0.139932 0.192670 0.396812
O O1 0.579282 0.664689 0.320777
O O2 0.640418 0.183826 0.250000
O O3 0.599284 0.250238 0.107147
O O4 0.754853 0.164404 0.125909
O O5 0.631874 0.026803 0.143189
O O6 0.300331 0.574365 0.893340
O O7 0.142588 0.676018 0.913690
O O8 0.185517 0.500000 0.000000
O O9 0.111548 0.132196 0.478762
O O10 0.000000 0.074360 0.596386
#
# Coordination Sequence:
#
# PCOD9475594 Si02
#       5
#     4  16  16  16  16
#     4  12  24  40  62  98 128 166 224 272 312 372
#     4  11  23  42  64  90 129 174 211 261 328 388
#     4  11  21  40  67  95 122 171 217 256 328 387
#     4  11  23  42  66  96 131 169 216 268 322 388
#     4  11  22  41  64  91 130 168 211 268 326 380
#
# _framework density 23.367629999999998
#
# number of rings (size 3 to 8) (size 9 to 14) (size 15 to 20)
#    0.000    0.941    7.059    1.412    1.647    1.882 
#    4.235    1.765    0.000    0.000    0.000    0.000 
#    0.000    0.000    0.000    0.000    0.000    0.000 
#
# Total GULP energy -189597.229539 kJ/mol
# GULP energy per Si atom -5576.389104 kJ/mol
# Density = 2.331444 g / cm^3
# Si number density = 23.367630 Si / 1000 Ang^3
#
#
#
# Elastic Constant Matrix: (Units=GPa)
#
#
# Indices 1 2 3 4 5 6 
#
# 1 90.2487 -2.9070 24.5140 0.0000 0.0000 0.0000
# 2 -2.9070 98.4429 11.3743 0.0000 0.0000 0.0000
# 3 24.5140 11.3743 112.8896 0.0000 0.0000 0.0000
# 4 0.0000 0.0000 0.0000 13.2632 0.0000 0.0000
# 5 0.0000 0.0000 0.0000 0.0000 53.4954 0.0000
# 6 0.0000 0.0000 0.0000 0.0000 0.0000 25.7059
#
#
#
# Elastic Compliance Matrix: (Units=1/GPa)
#
#
# Indices 1 2 3 4 5 6 
#
# 1 0.011816 0.000653 -0.002632 0.000000 0.000000 0.000000
# 2 0.000653 0.010314 -0.001181 0.000000 0.000000 0.000000
# 3 -0.002632 -0.001181 0.009549 0.000000 0.000000 0.000000
# 4 0.000000 0.000000 0.000000 0.075397 0.000000 0.000000
# 5 0.000000 0.000000 0.000000 0.000000 0.018693 0.000000
# 6 0.000000 0.000000 0.000000 0.000000 0.000000 0.038902
#
#
# Mechanical properties :
#
#
# Convention : Reuss Voigt Hill
#
# Bulk Modulus (GPa) = 39.43287 40.83821 40.13554
# Shear Modulus (GPa) = 27.86399 36.39956 32.13178
#
# Velocity S-wave (km/s) = 3.45689 3.95104 3.71220
# Velocity P-wave (km/s) = 5.73106 6.19101 5.96547
#
# Compressibility (1/GPa) = 0.02535956
#
# Stress axis : x y z
#
# Youngs Moduli (GPa) = 84.62829 96.95648 104.72651
#
# Poissons Ratio (x) = -0.06331 0.27561
# Poissons Ratio (y) = -0.05526 0.12368
# Poissons Ratio (z) = 0.22272 0.11450
#
# Static dielectric constant tensor:
#      x y z
#    x 1.931960 0.000000 0.000000 
#    y 0.000000 2.006220 0.000000 
#    z 0.000000 0.000000 1.832790 
# 
# From -- ./inp_files/45236.got.cif
#   From: 2010.05.17/outbox.cif.g08.bks.cpg/sg63_23_cif.got.tgz:45236.got - 2010.06.03 15:47:04.
