data_PCOD9475834
_publ_section_title
;
Structure prediction by ZEFSAII (Michael W. Deem and Ramdas Pophale) SiO2 
 PCOD9475834
Probable space group: C M C M
;
_chemical_formula_sum "Si O2"
_cell_formula_units_Z 104
_cell_length_a 8.420872
_cell_length_b 27.265099
_cell_length_c 21.221748
_cell_angle_alpha 90.000000
_cell_angle_beta 90.000000
_cell_angle_gamma 90.000000
_cell_volume 4872.426517
_symmetry_space_group_name_H-M "C M C M"
_symmetry_group_IT_number 63
_symmetry_cell_setting 'orthorhombic'
loop_
_space_group_symop_operation_xyz
x,y,z
-x,-y,1/2+z
x,-y,-z
-x,y,1/2-z
-x,-y,-z
x,y,1/2-z
-x,y,z
x,-y,1/2+z
1/2+x,1/2+y,z
1/2-x,1/2-y,1/2+z
1/2+x,1/2-y,-z
1/2-x,1/2+y,1/2-z
1/2-x,1/2-y,-z
1/2+x,1/2+y,1/2-z
1/2-x,1/2+y,z
1/2+x,1/2-y,1/2+z
loop_
_atom_site_type_symbol
_atom_site_label
_atom_site_fract_x
_atom_site_fract_y
_atom_site_fract_z
Si Si1 0.000000 0.141655 0.682450
Si Si2 0.000000 0.051084 0.908280
Si Si3 0.500000 0.551651 0.171891
Si Si4 0.321463 0.189880 0.860888
Si Si5 0.757717 0.878697 0.598148
Si Si6 0.832429 0.556558 0.982830
Si Si7 0.679907 0.787159 0.823314
Si Si8 0.678872 0.696166 0.987773
O O1 0.000000 0.098839 0.633430
O O2 0.832254 0.170006 0.675935
O O3 0.000000 0.117551 0.750000
O O4 0.161376 0.057744 0.948732
O O5 0.000000 0.001047 0.865603
O O6 0.500000 0.548154 0.250000
O O7 0.643400 0.584481 0.142865
O O8 0.500000 0.176892 0.840449
O O9 0.298372 0.248769 0.855838
O O10 0.290347 0.174309 0.933172
O O11 0.672036 0.913209 0.547815
O O12 0.678515 0.840428 0.645569
O O13 0.830192 0.839085 0.547934
O O14 0.000000 0.569585 0.948585
O O15 0.842930 0.500000 0.000000
O O16 0.722588 0.790408 0.750000
O O17 0.500000 0.767866 0.828543
O O18 0.500000 0.701749 0.962279
O O19 0.750000 0.750000 0.000000
#
# Coordination Sequence:
#
# PCOD9475834 Si02
#       8
#     8   8   8  16  16  16  16  16
#     4  12  27  48  74 102 140 193 244 302 371 434
#     4  12  25  50  79 108 145 181 248 313 369 440
#     4  12  26  47  74 109 147 193 249 305 369 447
#     4  12  26  46  70 102 144 193 245 302 366 440
#     4  12  24  42  69 103 143 189 237 297 366 437
#     4  11  24  44  75 108 141 185 232 296 378 439
#     4  11  24  43  67  99 145 200 249 297 354 431
#     4  12  24  40  64  99 140 181 231 294 358 422
#
# _framework density 21.3446
#
# number of rings (size 3 to 8) (size 9 to 14) (size 15 to 20)
#    0.000    0.308    5.385    3.692    1.077    4.923 
#    0.000    0.000    0.000    2.308    0.000    0.000 
#    0.000    0.000    0.000    0.000    0.000    0.000 
#
# Total GULP energy -289834.679583 kJ/mol
# GULP energy per Si atom -5573.743838 kJ/mol
# Density = 2.129602 g / cm^3
# Si number density = 21.344600 Si / 1000 Ang^3
#
#
#
# Elastic Constant Matrix: (Units=GPa)
#
#
# Indices 1 2 3 4 5 6 
#
# 1 179.1667 52.2630 56.1634 0.0000 0.0000 0.0000
# 2 52.2630 117.2272 34.6324 0.0000 0.0000 0.0000
# 3 56.1634 34.6324 121.5638 0.0000 0.0000 0.0000
# 4 0.0000 0.0000 0.0000 8.9017 0.0000 0.0000
# 5 0.0000 0.0000 0.0000 0.0000 21.9255 0.0000
# 6 0.0000 0.0000 0.0000 0.0000 0.0000 60.8199
#
#
#
# Elastic Compliance Matrix: (Units=1/GPa)
#
#
# Indices 1 2 3 4 5 6 
#
# 1 0.007094 -0.002396 -0.002595 0.000000 0.000000 0.000000
# 2 -0.002396 0.010124 -0.001777 0.000000 0.000000 0.000000
# 3 -0.002595 -0.001777 0.009931 0.000000 0.000000 0.000000
# 4 0.000000 0.000000 0.000000 0.112338 0.000000 0.000000
# 5 0.000000 0.000000 0.000000 0.000000 0.045609 0.000000
# 6 0.000000 0.000000 0.000000 0.000000 0.000000 0.016442
#
#
# Mechanical properties :
#
#
# Convention : Reuss Voigt Hill
#
# Bulk Modulus (GPa) = 73.46046 78.23060 75.84553
# Shear Modulus (GPa) = 22.76748 36.65601 29.71175
#
# Velocity S-wave (km/s) = 3.26952 4.14858 3.73500
# Velocity P-wave (km/s) = 6.98170 7.72518 7.36283
#
# Compressibility (1/GPa) = 0.01361277
#
# Stress axis : x y z
#
# Youngs Moduli (GPa) = 140.97060 98.77836 100.69255
#
# Poissons Ratio (x) = 0.23667 0.26127
# Poissons Ratio (y) = 0.33776 0.17895
# Poissons Ratio (z) = 0.36578 0.17555
#
# Static dielectric constant tensor:
#      x y z
#    x 1.885850 0.000000 0.000000 
#    y 0.000000 1.764810 0.000000 
#    z 0.000000 0.000000 1.722410 
# 
# From -- ./inp_files/51543.got.cif
#   From: 2010.05.17/outbox.cif.g08.bks.cpg/sg63_26_cif.got.tgz:51543.got - 2010.06.03 15:47:04.
