data_PCOD9475125
_publ_section_title
;
Structure prediction by ZEFSAII (Michael W. Deem and Ramdas Pophale) SiO2 
 PCOD9475125
Probable space group: C M C M
;
_chemical_formula_sum "Si O2"
_cell_formula_units_Z 64
_cell_length_a 17.983121
_cell_length_b 5.079316
_cell_length_c 30.247815
_cell_angle_alpha 90.000000
_cell_angle_beta 90.000000
_cell_angle_gamma 90.000000
_cell_volume 2762.894533
_symmetry_space_group_name_H-M "C M C M"
_symmetry_group_IT_number 63
_symmetry_cell_setting 'orthorhombic'
loop_
_space_group_symop_operation_xyz
x,y,z
-x,-y,1/2+z
x,-y,-z
-x,y,1/2-z
-x,-y,-z
x,y,1/2-z
-x,y,z
x,-y,1/2+z
1/2+x,1/2+y,z
1/2-x,1/2-y,1/2+z
1/2+x,1/2-y,-z
1/2-x,1/2+y,1/2-z
1/2-x,1/2-y,-z
1/2+x,1/2+y,1/2-z
1/2-x,1/2+y,z
1/2+x,1/2-y,1/2+z
loop_
_atom_site_type_symbol
_atom_site_label
_atom_site_fract_x
_atom_site_fract_y
_atom_site_fract_z
Si Si1 0.586217 0.235103 0.970983
Si Si2 0.915515 0.335756 0.200789
Si Si3 0.087093 0.022110 0.613991
Si Si4 0.196629 0.623177 0.349986
O O1 0.500000 0.156050 0.962022
O O2 0.617428 0.330541 0.924116
O O3 0.585739 0.500000 0.000000
O O4 0.620461 0.000000 0.000000
O O5 0.907272 0.223174 0.250000
O O6 0.906926 0.124594 0.161312
O O7 0.854627 0.560686 0.192609
O O8 0.000000 0.441596 0.196887
O O9 0.000000 0.074856 0.605540
O O10 0.133480 0.290446 0.614971
O O11 0.248333 0.369372 0.352261
#
# Coordination Sequence:
#
# PCOD9475125 Si02
#       4
#    16  16  16  16
#     4   9  19  34  60  99 134 166 215 277 336 395
#     4  10  23  44  69  99 133 172 222 277 335 399
#     4  10  22  42  72 102 136 177 225 282 342 396
#     4  12  25  44  65  95 134 177 221 268 325 397
#
# _framework density 23.164114999999999
#
# number of rings (size 3 to 8) (size 9 to 14) (size 15 to 20)
#    0.000    1.750    2.500    0.750    3.500    2.000 
#    0.000    2.500    0.000    4.500    0.000    0.000 
#    0.000    0.000    0.000    0.000    0.000    0.000 
#
# Total GULP energy -178589.042354 kJ/mol
# GULP energy per Si atom -5580.907574 kJ/mol
# Density = 2.311139 g / cm^3
# Si number density = 23.164115 Si / 1000 Ang^3
#
#
#
# Elastic Constant Matrix: (Units=GPa)
#
#
# Indices 1 2 3 4 5 6 
#
# 1 101.6188 49.6503 13.5825 0.0000 0.0000 0.0000
# 2 49.6503 139.4535 37.7476 0.0000 0.0000 0.0000
# 3 13.5825 37.7476 115.5484 0.0000 0.0000 0.0000
# 4 0.0000 0.0000 0.0000 36.4553 0.0000 0.0000
# 5 0.0000 0.0000 0.0000 0.0000 7.1663 0.0000
# 6 0.0000 0.0000 0.0000 0.0000 0.0000 21.9157
#
#
#
# Elastic Compliance Matrix: (Units=1/GPa)
#
#
# Indices 1 2 3 4 5 6 
#
# 1 0.011913 -0.004237 -0.000016 0.000000 0.000000 0.000000
# 2 -0.004237 0.009373 -0.002564 0.000000 0.000000 0.000000
# 3 -0.000016 -0.002564 0.009494 0.000000 0.000000 0.000000
# 4 0.000000 0.000000 0.000000 0.027431 0.000000 0.000000
# 5 0.000000 0.000000 0.000000 0.000000 0.139543 0.000000
# 6 0.000000 0.000000 0.000000 0.000000 0.000000 0.045629
#
#
# Mechanical properties :
#
#
# Convention : Reuss Voigt Hill
#
# Bulk Modulus (GPa) = 58.32344 62.06459 60.19401
# Shear Modulus (GPa) = 19.03070 30.15014 24.59042
#
# Velocity S-wave (km/s) = 2.86940 3.61167 3.26172
# Velocity P-wave (km/s) = 6.01755 6.65160 6.34250
#
# Compressibility (1/GPa) = 0.01714577
#
# Stress axis : x y z
#
# Youngs Moduli (GPa) = 83.94133 106.68430 105.33056
#
# Poissons Ratio (x) = 0.45203 0.00170
# Poissons Ratio (y) = 0.35567 0.27008
# Poissons Ratio (z) = 0.00136 0.27355
#
# Static dielectric constant tensor:
#      x y z
#    x 1.906520 0.000000 0.000000 
#    y 0.000000 1.945740 0.000000 
#    z 0.000000 0.000000 1.920970 
# 
# From -- ./inp_files/73669.got.cif
#   From: 2010.05.17/outbox.cif.g08.bks.cpg/sg63_37_cif.got.tgz:73669.got - 2010.06.03 15:47:04.
