data_PCOD9475055
_publ_section_title
;
Structure prediction by ZEFSAII (Michael W. Deem and Ramdas Pophale) SiO2 
 PCOD9475055
Probable space group: C M C M
;
_chemical_formula_sum "Si O2"
_cell_formula_units_Z 40
_cell_length_a 9.790328
_cell_length_b 11.068431
_cell_length_c 14.893402
_cell_angle_alpha 90.000000
_cell_angle_beta 90.000000
_cell_angle_gamma 90.000000
_cell_volume 1613.902209
_symmetry_space_group_name_H-M "C M C M"
_symmetry_group_IT_number 63
_symmetry_cell_setting 'orthorhombic'
loop_
_space_group_symop_operation_xyz
x,y,z
-x,-y,1/2+z
x,-y,-z
-x,y,1/2-z
-x,-y,-z
x,y,1/2-z
-x,y,z
x,-y,1/2+z
1/2+x,1/2+y,z
1/2-x,1/2-y,1/2+z
1/2+x,1/2-y,-z
1/2-x,1/2+y,1/2-z
1/2-x,1/2-y,-z
1/2+x,1/2+y,1/2-z
1/2-x,1/2+y,z
1/2+x,1/2-y,1/2+z
loop_
_atom_site_type_symbol
_atom_site_label
_atom_site_fract_x
_atom_site_fract_y
_atom_site_fract_z
Si Si1 0.500000 0.329326 0.350370
Si Si2 0.000000 0.518805 0.605864
Si Si3 0.500000 0.282405 0.550442
Si Si4 0.700440 0.448121 0.848970
O O1 0.500000 0.273596 0.250000
O O2 0.500000 0.257569 0.443723
O O3 0.371019 0.420735 0.355142
O O4 0.000000 0.500000 0.500000
O O5 0.000000 0.664151 0.611730
O O6 0.139178 0.464666 0.643171
O O7 0.368702 0.363407 0.576892
O O8 0.666102 0.399090 0.750000
#
# Coordination Sequence:
#
# PCOD9475055 Si02
#       4
#     8   8   8  16
#     4   9  19  39  67  97 131 174 226 281 334 395
#     4  12  26  42  65  99 136 176 224 278 332 394
#     4  11  23  45  71  92 132 186 223 267 340 403
#     4  10  22  41  67  99 133 172 223 279 334 400
#
# _framework density 24.784651
#
# number of rings (size 3 to 8) (size 9 to 14) (size 15 to 20)
#    0.000    1.600    0.000    7.200    0.000    9.600 
#    0.000    8.000    0.000    7.200    0.000    0.000 
#    0.000    0.000    0.000    0.000    0.000    0.000 
#
# Total GULP energy -112053.205832 kJ/mol
# GULP energy per Si atom -5602.660292 kJ/mol
# Density = 2.472824 g / cm^3
# Si number density = 24.784651 Si / 1000 Ang^3
#
#
#
# Elastic Constant Matrix: (Units=GPa)
#
#
# Indices 1 2 3 4 5 6 
#
# 1 211.5305 42.7562 38.7695 0.0000 0.0000 0.0000
# 2 42.7562 84.1363 32.9278 0.0000 0.0000 0.0000
# 3 38.7695 32.9278 173.3416 0.0000 0.0000 0.0000
# 4 0.0000 0.0000 0.0000 18.0335 0.0000 0.0000
# 5 0.0000 0.0000 0.0000 0.0000 30.3713 0.0000
# 6 0.0000 0.0000 0.0000 0.0000 0.0000 3.8566
#
#
#
# Elastic Compliance Matrix: (Units=1/GPa)
#
#
# Indices 1 2 3 4 5 6 
#
# 1 0.005354 -0.002433 -0.000735 0.000000 0.000000 0.000000
# 2 -0.002433 0.013946 -0.002105 0.000000 0.000000 0.000000
# 3 -0.000735 -0.002105 0.006333 0.000000 0.000000 0.000000
# 4 0.000000 0.000000 0.000000 0.055452 0.000000 0.000000
# 5 0.000000 0.000000 0.000000 0.000000 0.032926 0.000000
# 6 0.000000 0.000000 0.000000 0.000000 0.000000 0.259297
#
#
# Mechanical properties :
#
#
# Convention : Reuss Voigt Hill
#
# Bulk Modulus (GPa) = 66.28473 77.54615 71.91544
# Shear Modulus (GPa) = 12.85732 34.08927 23.47329
#
# Velocity S-wave (km/s) = 2.28010 3.71269 3.08082
# Velocity P-wave (km/s) = 5.80811 7.05228 6.46022
#
# Compressibility (1/GPa) = 0.01508643
#
# Stress axis : x y z
#
# Youngs Moduli (GPa) = 186.77640 71.70687 157.89646
#
# Poissons Ratio (x) = 0.17446 0.11610
# Poissons Ratio (y) = 0.45443 0.33236
# Poissons Ratio (z) = 0.13734 0.15094
#
# Static dielectric constant tensor:
#      x y z
#    x 1.924140 0.000000 0.000000 
#    y 0.000000 1.975320 0.000000 
#    z 0.000000 0.000000 1.916570 
# 
# From -- ./inp_files/26734.got.cif
#   From: 2010.05.17/outbox.cif.g08.bks.cpg/sg63_14_cif.got.tgz:26734.got - 2010.06.03 15:47:04.
