data_PCOD9475371
_publ_section_title
;
Structure prediction by ZEFSAII (Michael W. Deem and Ramdas Pophale) SiO2 
 PCOD9475371
Probable space group: C M C M
;
_chemical_formula_sum "Si O2"
_cell_formula_units_Z 116
_cell_length_a 19.997402
_cell_length_b 15.244880
_cell_length_c 15.716863
_cell_angle_alpha 90.000000
_cell_angle_beta 90.000000
_cell_angle_gamma 90.000000
_cell_volume 4791.411323
_symmetry_space_group_name_H-M "C M C M"
_symmetry_group_IT_number 63
_symmetry_cell_setting 'orthorhombic'
loop_
_space_group_symop_operation_xyz
x,y,z
-x,-y,1/2+z
x,-y,-z
-x,y,1/2-z
-x,-y,-z
x,y,1/2-z
-x,y,z
x,-y,1/2+z
1/2+x,1/2+y,z
1/2-x,1/2-y,1/2+z
1/2+x,1/2-y,-z
1/2-x,1/2+y,1/2-z
1/2-x,1/2-y,-z
1/2+x,1/2+y,1/2-z
1/2-x,1/2+y,z
1/2+x,1/2-y,1/2+z
loop_
_atom_site_type_symbol
_atom_site_label
_atom_site_fract_x
_atom_site_fract_y
_atom_site_fract_z
Si Si1 0.159729 0.708773 0.157200
Si Si2 0.000000 0.074318 0.750000
Si Si3 0.609946 0.874075 0.073480
Si Si4 0.099933 0.869714 0.102092
Si Si5 0.250277 0.423806 0.353650
Si Si6 0.281936 0.379539 0.851539
Si Si7 0.925121 0.558889 0.116909
Si Si8 0.426601 0.330720 0.586859
O O1 0.170399 0.749117 0.250000
O O2 0.100534 0.764840 0.116879
O O3 0.231234 0.694390 0.112770
O O4 0.130450 0.611911 0.166067
O O5 0.057844 0.082058 0.825855
O O6 0.687970 0.878845 0.099273
O O7 0.582651 0.775462 0.083152
O O8 0.579979 0.954445 0.128485
O O9 0.592096 0.909302 0.979384
O O10 0.178455 0.887540 0.115166
O O11 0.076106 0.877220 0.005738
O O12 0.243672 0.418165 0.250000
O O13 0.256535 0.525752 0.380108
O O14 0.273823 0.375272 0.750000
O O15 0.359687 0.365482 0.869032
O O16 0.000000 0.586133 0.138131
O O17 0.500000 0.349612 0.625305
#
# Coordination Sequence:
#
# PCOD9475371 Si02
#       8
#    16   4  16  16  16  16  16  16
#     4  11  22  40  67  98 130 172 225 279 340 405
#     4  12  24  48  64 102 140 180 216 300 360 404
#     4  11  23  40  68  92 139 174 218 278 334 405
#     4  12  25  41  70  99 133 176 226 287 351 409
#     4  11  24  46  69  97 127 177 235 284 341 406
#     4  10  25  48  68  94 136 179 230 288 340 411
#     4  11  23  38  62  98 135 180 219 269 341 411
#     4  12  26  43  67 104 140 181 231 281 346 429
#
# _framework density 24.209985
#
# number of rings (size 3 to 8) (size 9 to 14) (size 15 to 20)
#    0.000    0.828    4.828    2.483    2.897    3.862 
#    1.241    0.690    0.000    4.552    0.000    0.000 
#    0.000    0.000    0.000    0.000    0.000    0.000 
#
# Total GULP energy -323410.179710 kJ/mol
# GULP energy per Si atom -5576.037581 kJ/mol
# Density = 2.415488 g / cm^3
# Si number density = 24.209985 Si / 1000 Ang^3
#
#
#
# Elastic Constant Matrix: (Units=GPa)
#
#
# Indices 1 2 3 4 5 6 
#
# 1 179.9256 -6.7985 6.5825 0.0000 0.0000 0.0000
# 2 -6.7985 38.9615 -5.8147 0.0000 0.0000 0.0000
# 3 6.5825 -5.8147 20.7000 0.0000 0.0000 0.0000
# 4 0.0000 0.0000 0.0000 29.3323 0.0000 0.0000
# 5 0.0000 0.0000 0.0000 0.0000 123.0257 0.0000
# 6 0.0000 0.0000 0.0000 0.0000 0.0000 19.5136
#
#
#
# Elastic Compliance Matrix: (Units=1/GPa)
#
#
# Indices 1 2 3 4 5 6 
#
# 1 0.005644 0.000748 -0.001585 0.000000 0.000000 0.000000
# 2 0.000748 0.026889 0.007315 0.000000 0.000000 0.000000
# 3 -0.001585 0.007315 0.050868 0.000000 0.000000 0.000000
# 4 0.000000 0.000000 0.000000 0.034092 0.000000 0.000000
# 5 0.000000 0.000000 0.000000 0.000000 0.008128 0.000000
# 6 0.000000 0.000000 0.000000 0.000000 0.000000 0.051246
#
#
# Mechanical properties :
#
#
# Convention : Reuss Voigt Hill
#
# Bulk Modulus (GPa) = 10.37792 25.28063 17.82927
# Shear Modulus (GPa) = 25.50644 50.74886 38.12765
#
# Velocity S-wave (km/s) = 3.24937 4.58339 3.97277
# Velocity P-wave (km/s) = 4.28646 6.20281 5.33145
#
# Compressibility (1/GPa) = 0.09635842
#
# Stress axis : x y z
#
# Youngs Moduli (GPa) = 177.17614 37.19040 19.65879
#
# Poissons Ratio (x) = -0.02783 0.03115
# Poissons Ratio (y) = -0.13259 -0.14381
# Poissons Ratio (z) = 0.28075 -0.27205
#
# Static dielectric constant tensor:
#      x y z
#    x 1.953240 0.000000 0.000000 
#    y 0.000000 2.071930 0.000000 
#    z 0.000000 0.000000 1.232640 
# 
# From -- ./inp_files/45917.got.cif
#   From: 2010.05.17/outbox.cif.g08.bks.cpg/sg63_23_cif.got.tgz:45917.got - 2010.06.03 15:47:04.
