data_PCOD9475759
_publ_section_title
;
Structure prediction by ZEFSAII (Michael W. Deem and Ramdas Pophale) SiO2 
 PCOD9475759
Probable space group: C M C M
;
_chemical_formula_sum "Si O2"
_cell_formula_units_Z 48
_cell_length_a 10.196259
_cell_length_b 13.770009
_cell_length_c 15.854800
_cell_angle_alpha 90.000000
_cell_angle_beta 90.000000
_cell_angle_gamma 90.000000
_cell_volume 2226.054797
_symmetry_space_group_name_H-M "C M C M"
_symmetry_group_IT_number 63
_symmetry_cell_setting 'orthorhombic'
loop_
_space_group_symop_operation_xyz
x,y,z
-x,-y,1/2+z
x,-y,-z
-x,y,1/2-z
-x,-y,-z
x,y,1/2-z
-x,y,z
x,-y,1/2+z
1/2+x,1/2+y,z
1/2-x,1/2-y,1/2+z
1/2+x,1/2-y,-z
1/2-x,1/2+y,1/2-z
1/2-x,1/2-y,-z
1/2+x,1/2+y,1/2-z
1/2-x,1/2+y,z
1/2+x,1/2-y,1/2+z
loop_
_atom_site_type_symbol
_atom_site_label
_atom_site_fract_x
_atom_site_fract_y
_atom_site_fract_z
Si Si1 0.500000 0.885033 0.985040
Si Si2 0.714902 0.164495 0.884530
Si Si3 0.000000 0.233244 0.647772
Si Si4 0.153908 0.499203 0.250000
Si Si5 0.145148 0.173922 0.250000
O O1 0.500000 0.841441 0.891444
O O2 0.630533 0.844720 0.031156
O O3 0.500000 0.000000 0.000000
O O4 0.870190 0.180626 0.886838
O O5 0.661437 0.255096 0.829915
O O6 0.687418 0.067623 0.830617
O O7 0.000000 0.231550 0.750000
O O8 0.242305 0.594277 0.250000
O O9 0.000000 0.515802 0.250000
O O10 0.000000 0.129712 0.250000
#
# Coordination Sequence:
#
# PCOD9475759 Si02
#       5
#     8  16   8   8   8
#     4  12  28  49  74 105 144 202 251 298 360 440
#     4  11  24  47  70 104 150 190 240 305 354 437
#     4  12  26  46  74 109 146 195 241 307 371 424
#     4  11  23  40  75 107 143 190 252 286 370 442
#     4  11  23  40  75 107 147 190 238 300 366 420
#
# _framework density 21.562812999999998
#
# number of rings (size 3 to 8) (size 9 to 14) (size 15 to 20)
#    0.000    0.667    6.667    2.000    9.333    0.000 
#    3.000    0.833    0.000    0.000    0.000    0.000 
#    0.000    0.000    0.000    0.000    0.000    0.000 
#
# Total GULP energy -134394.702739 kJ/mol
# GULP energy per Si atom -5599.779281 kJ/mol
# Density = 2.151373 g / cm^3
# Si number density = 21.562813 Si / 1000 Ang^3
#
#
#
# Elastic Constant Matrix: (Units=GPa)
#
#
# Indices 1 2 3 4 5 6 
#
# 1 233.1073 70.5754 47.4598 0.0000 0.0000 0.0000
# 2 70.5754 142.9535 34.9260 0.0000 0.0000 0.0000
# 3 47.4598 34.9260 84.4239 0.0000 0.0000 0.0000
# 4 0.0000 0.0000 0.0000 18.3837 0.0000 0.0000
# 5 0.0000 0.0000 0.0000 0.0000 25.1914 0.0000
# 6 0.0000 0.0000 0.0000 0.0000 0.0000 32.5185
#
#
#
# Elastic Compliance Matrix: (Units=1/GPa)
#
#
# Indices 1 2 3 4 5 6 
#
# 1 0.005370 -0.002129 -0.002138 0.000000 0.000000 0.000000
# 2 -0.002129 0.008626 -0.002372 0.000000 0.000000 0.000000
# 3 -0.002138 -0.002372 0.014028 0.000000 0.000000 0.000000
# 4 0.000000 0.000000 0.000000 0.054396 0.000000 0.000000
# 5 0.000000 0.000000 0.000000 0.000000 0.039696 0.000000
# 6 0.000000 0.000000 0.000000 0.000000 0.000000 0.030752
#
#
# Mechanical properties :
#
#
# Convention : Reuss Voigt Hill
#
# Bulk Modulus (GPa) = 67.81239 85.15634 76.48437
# Shear Modulus (GPa) = 29.22960 35.72028 32.47494
#
# Velocity S-wave (km/s) = 3.68578 4.07451 3.88501
# Velocity P-wave (km/s) = 7.04488 7.85579 7.46136
#
# Compressibility (1/GPa) = 0.01474657
#
# Stress axis : x y z
#
# Youngs Moduli (GPa) = 186.23332 115.93353 71.28557
#
# Poissons Ratio (x) = 0.24678 0.15241
# Poissons Ratio (y) = 0.39642 0.16907
# Poissons Ratio (z) = 0.39816 0.27497
#
# Static dielectric constant tensor:
#      x y z
#    x 1.785820 0.000000 0.000000 
#    y 0.000000 1.761980 0.000000 
#    z 0.000000 0.000000 1.798500 
# 
# From -- ./inp_files/41181.got.cif
#   From: 2010.05.17/outbox.cif.g08.bks.cpg/sg63_21_cif.got.tgz:41181.got - 2010.06.03 15:47:04.
