data_PCOD9475081
_publ_section_title
;
Structure prediction by ZEFSAII (Michael W. Deem and Ramdas Pophale) SiO2 
 PCOD9475081
Probable space group: C M C M
;
_chemical_formula_sum "Si O2"
_cell_formula_units_Z 68
_cell_length_a 23.289635
_cell_length_b 17.039007
_cell_length_c 8.509894
_cell_angle_alpha 90.000000
_cell_angle_beta 90.000000
_cell_angle_gamma 90.000000
_cell_volume 3377.000416
_symmetry_space_group_name_H-M "C M C M"
_symmetry_group_IT_number 63
_symmetry_cell_setting 'orthorhombic'
loop_
_space_group_symop_operation_xyz
x,y,z
-x,-y,1/2+z
x,-y,-z
-x,y,1/2-z
-x,-y,-z
x,y,1/2-z
-x,y,z
x,-y,1/2+z
1/2+x,1/2+y,z
1/2-x,1/2-y,1/2+z
1/2+x,1/2-y,-z
1/2-x,1/2+y,1/2-z
1/2-x,1/2-y,-z
1/2+x,1/2+y,1/2-z
1/2-x,1/2+y,z
1/2+x,1/2-y,1/2+z
loop_
_atom_site_type_symbol
_atom_site_label
_atom_site_fract_x
_atom_site_fract_y
_atom_site_fract_z
Si Si1 0.412131 0.363322 0.937515
Si Si2 0.208650 0.089336 0.562867
Si Si3 0.829210 0.411670 0.935975
Si Si4 0.500000 0.500000 0.000000
Si Si5 0.436516 0.183250 0.938994
O O1 0.419294 0.376175 0.750000
O O2 0.433014 0.275897 0.974188
O O3 0.345847 0.369260 0.985599
O O4 0.449895 0.431440 0.015336
O O5 0.203045 0.089850 0.750000
O O6 0.270868 0.121613 0.513249
O O7 0.207520 0.000000 0.500000
O O8 0.820738 0.415063 0.750000
O O9 0.837086 0.500000 0.000000
O O10 0.884749 0.361627 0.979538
O O11 0.430550 0.174910 0.750000
O O12 0.500000 0.154051 0.984055
#
# Coordination Sequence:
#
# PCOD9475081 Si02
#       5
#    16  16  16   4  16
#     4  11  23  40  63  94 130 170 211 255 307 364
#     4  11  22  38  62  91 124 164 210 259 310 367
#     4  11  23  42  67  93 123 160 206 259 315 374
#     4  12  22  36  68  98 132 172 212 248 300 368
#     4  10  22  42  65  91 126 165 207 257 312 368
#
# _framework density 20.136213000000001
#
# number of rings (size 3 to 8) (size 9 to 14) (size 15 to 20)
#    0.000    1.176    2.353    6.000    0.000    3.765 
#    0.000    0.000    0.000    0.000    0.000    0.000 
#    0.000    0.000    0.000    0.000    0.000    0.000 
#
# Total GULP energy -189569.326258 kJ/mol
# GULP energy per Si atom -5575.568419 kJ/mol
# Density = 2.009038 g / cm^3
# Si number density = 20.136213 Si / 1000 Ang^3
#
#
#
# Elastic Constant Matrix: (Units=GPa)
#
#
# Indices 1 2 3 4 5 6 
#
# 1 151.8409 36.9375 2.0451 0.0000 0.0000 0.0000
# 2 36.9375 47.9185 11.3597 0.0000 0.0000 0.0000
# 3 2.0451 11.3597 23.4281 0.0000 0.0000 0.0000
# 4 0.0000 0.0000 0.0000 17.3368 0.0000 0.0000
# 5 0.0000 0.0000 0.0000 0.0000 1.9945 0.0000
# 6 0.0000 0.0000 0.0000 0.0000 0.0000 104.8235
#
#
#
# Elastic Compliance Matrix: (Units=1/GPa)
#
#
# Indices 1 2 3 4 5 6 
#
# 1 0.008251 -0.006993 0.002671 0.000000 0.000000 0.000000
# 2 -0.006993 0.029507 -0.013697 0.000000 0.000000 0.000000
# 3 0.002671 -0.013697 0.049092 0.000000 0.000000 0.000000
# 4 0.000000 0.000000 0.000000 0.057681 0.000000 0.000000
# 5 0.000000 0.000000 0.000000 0.000000 0.501388 0.000000
# 6 0.000000 0.000000 0.000000 0.000000 0.000000 0.009540
#
#
# Mechanical properties :
#
#
# Convention : Reuss Voigt Hill
#
# Bulk Modulus (GPa) = 19.68083 35.98581 27.83332
# Shear Modulus (GPa) = 7.05783 36.35396 21.70589
#
# Velocity S-wave (km/s) = 1.87421 4.25361 3.28678
# Velocity P-wave (km/s) = 3.80508 6.48338 5.31568
#
# Compressibility (1/GPa) = 0.05081087
#
# Stress axis : x y z
#
# Youngs Moduli (GPa) = 121.19563 33.89079 20.37002
#
# Poissons Ratio (x) = 0.23701 -0.05440
# Poissons Ratio (y) = 0.84757 0.27900
# Poissons Ratio (z) = -0.32367 0.46419
#
# Static dielectric constant tensor:
#      x y z
#    x 1.701280 0.000000 0.000000 
#    y 0.000000 1.473470 0.000000 
#    z 0.000000 0.000000 1.686960 
# 
# From -- ./inp_files/7626.got.cif
#   From: 2010.05.17/outbox.cif.g08.bks.cpg/sg63_4_cif.got.tgz:7626.got - 2010.06.03 15:47:04.
