data_PCOD9475586
_publ_section_title
;
Structure prediction by ZEFSAII (Michael W. Deem and Ramdas Pophale) SiO2 
 PCOD9475586
Probable space group: C M C M
;
_chemical_formula_sum "Si O2"
_cell_formula_units_Z 96
_cell_length_a 14.789113
_cell_length_b 20.553236
_cell_length_c 16.858435
_cell_angle_alpha 90.000000
_cell_angle_beta 90.000000
_cell_angle_gamma 90.000000
_cell_volume 5124.359523
_symmetry_space_group_name_H-M "C M C M"
_symmetry_group_IT_number 63
_symmetry_cell_setting 'orthorhombic'
loop_
_space_group_symop_operation_xyz
x,y,z
-x,-y,1/2+z
x,-y,-z
-x,y,1/2-z
-x,-y,-z
x,y,1/2-z
-x,y,z
x,-y,1/2+z
1/2+x,1/2+y,z
1/2-x,1/2-y,1/2+z
1/2+x,1/2-y,-z
1/2-x,1/2+y,1/2-z
1/2-x,1/2-y,-z
1/2+x,1/2+y,1/2-z
1/2-x,1/2+y,z
1/2+x,1/2-y,1/2+z
loop_
_atom_site_type_symbol
_atom_site_label
_atom_site_fract_x
_atom_site_fract_y
_atom_site_fract_z
Si Si1 0.000000 0.665790 0.653703
Si Si2 0.193072 0.276671 0.156337
Si Si3 0.000000 0.903878 0.654758
Si Si4 0.307186 0.604384 0.595172
Si Si5 0.301913 0.980116 0.655219
Si Si6 0.500000 0.557973 0.845213
Si Si7 0.307825 0.639040 0.089306
Si Si8 0.500000 0.984450 0.346372
O O1 0.092631 0.700702 0.629876
O O2 0.000000 0.664699 0.750000
O O3 0.000000 0.590764 0.627236
O O4 0.189250 0.261253 0.250000
O O5 0.260295 0.336692 0.142288
O O6 0.220128 0.212447 0.108864
O O7 0.909865 0.871765 0.620412
O O8 0.000000 0.897647 0.750000
O O9 0.000000 0.980900 0.634517
O O10 0.251498 0.538769 0.613516
O O11 0.409682 0.590671 0.621359
O O12 0.303623 0.622353 0.503053
O O13 0.296988 0.991581 0.750000
O O14 0.254732 0.912614 0.634683
O O15 0.406507 0.982334 0.629391
O O16 0.500000 0.562429 0.750000
O O17 0.500000 0.983959 0.250000
#
# Coordination Sequence:
#
# PCOD9475586 Si02
#       8
#     8  16   8  16  16   8  16   8
#     4   9  17  33  61  91 110 141 202 262 292 328
#     4  11  22  40  64  88 120 161 207 252 300 365
#     4  11  22  39  65  92 122 160 204 256 310 365
#     4  12  24  40  61  89 125 165 201 250 309 367
#     4  11  21  39  64  89 119 158 205 249 298 366
#     4  11  23  39  63  91 119 162 215 250 294 377
#     4  12  25  39  59  95 130 156 195 257 320 359
#     4   9  18  35  62  91 113 146 203 256 286 334
#
# _framework density 18.734048999999999
#
# number of rings (size 3 to 8) (size 9 to 14) (size 15 to 20)
#    0.000    1.000    3.333    5.000    0.000    1.333 
#    0.000    3.333    0.000    1.000    0.000    0.000 
#    0.000    0.000    0.000    0.000    0.000    0.000 
#
# Total GULP energy -268421.369861 kJ/mol
# GULP energy per Si atom -5592.111872 kJ/mol
# Density = 1.869141 g / cm^3
# Si number density = 18.734049 Si / 1000 Ang^3
#
#
#
# Elastic Constant Matrix: (Units=GPa)
#
#
# Indices 1 2 3 4 5 6 
#
# 1 120.8610 27.1302 -3.1423 0.0000 0.0000 0.0000
# 2 27.1302 72.9435 -24.4224 0.0000 0.0000 0.0000
# 3 -3.1423 -24.4224 30.4935 0.0000 0.0000 0.0000
# 4 0.0000 0.0000 0.0000 27.7487 0.0000 0.0000
# 5 0.0000 0.0000 0.0000 0.0000 9.5187 0.0000
# 6 0.0000 0.0000 0.0000 0.0000 0.0000 19.5468
#
#
#
# Elastic Compliance Matrix: (Units=1/GPa)
#
#
# Indices 1 2 3 4 5 6 
#
# 1 0.009158 -0.004223 -0.002438 0.000000 0.000000 0.000000
# 2 -0.004223 0.020679 0.016127 0.000000 0.000000 0.000000
# 3 -0.002438 0.016127 0.045459 0.000000 0.000000 0.000000
# 4 0.000000 0.000000 0.000000 0.036038 0.000000 0.000000
# 5 0.000000 0.000000 0.000000 0.000000 0.105056 0.000000
# 6 0.000000 0.000000 0.000000 0.000000 0.000000 0.051159
#
#
# Mechanical properties :
#
#
# Convention : Reuss Voigt Hill
#
# Bulk Modulus (GPa) = 10.61247 24.82544 17.71895
# Shear Modulus (GPa) = 17.85541 26.34500 22.10020
#
# Velocity S-wave (km/s) = 3.09058 3.75409 3.43837
# Velocity P-wave (km/s) = 4.29100 5.66314 5.02413
#
# Compressibility (1/GPa) = 0.09422875
#
# Stress axis : x y z
#
# Youngs Moduli (GPa) = 109.18863 48.35749 21.99797
#
# Poissons Ratio (x) = 0.20420 0.05364
# Poissons Ratio (y) = 0.46107 -0.35476
# Poissons Ratio (z) = 0.26622 -0.77986
#
# Static dielectric constant tensor:
#      x y z
#    x 1.634990 0.000000 0.000000 
#    y 0.000000 1.620830 0.000000 
#    z 0.000000 0.000000 1.641750 
# 
# From -- ./inp_files/32019.got.cif
#   From: 2010.05.17/outbox.cif.g08.bks.cpg/sg63_17_cif.got.tgz:32019.got - 2010.06.03 15:47:04.
