data_PCOD9475615
_publ_section_title
;
Structure prediction by ZEFSAII (Michael W. Deem and Ramdas Pophale) SiO2 
 PCOD9475615
Probable space group: C M C M
;
_chemical_formula_sum "Si O2"
_cell_formula_units_Z 112
_cell_length_a 26.294711
_cell_length_b 13.912800
_cell_length_c 14.818033
_cell_angle_alpha 90.000000
_cell_angle_beta 90.000000
_cell_angle_gamma 90.000000
_cell_volume 5420.926284
_symmetry_space_group_name_H-M "C M C M"
_symmetry_group_IT_number 63
_symmetry_cell_setting 'orthorhombic'
loop_
_space_group_symop_operation_xyz
x,y,z
-x,-y,1/2+z
x,-y,-z
-x,y,1/2-z
-x,-y,-z
x,y,1/2-z
-x,y,z
x,-y,1/2+z
1/2+x,1/2+y,z
1/2-x,1/2-y,1/2+z
1/2+x,1/2-y,-z
1/2-x,1/2+y,1/2-z
1/2-x,1/2-y,-z
1/2+x,1/2+y,1/2-z
1/2-x,1/2+y,z
1/2+x,1/2-y,1/2+z
loop_
_atom_site_type_symbol
_atom_site_label
_atom_site_fract_x
_atom_site_fract_y
_atom_site_fract_z
Si Si1 0.441897 0.753117 0.039127
Si Si2 0.915365 0.665410 0.352729
Si Si3 0.561012 0.052629 0.647021
Si Si4 0.282397 0.172089 0.605611
Si Si5 0.732149 0.482395 0.891179
Si Si6 0.356987 0.344156 0.650570
Si Si7 0.194649 0.316624 0.590238
O O1 0.500000 0.728593 0.065853
O O2 0.428228 0.855651 0.085719
O O3 0.399720 0.678612 0.075488
O O4 0.440834 0.773449 0.932094
O O5 0.935063 0.674347 0.250000
O O6 0.917367 0.551777 0.377644
O O7 0.856859 0.696163 0.357680
O O8 0.577102 0.073985 0.750000
O O9 0.500000 0.039880 0.645382
O O10 0.317717 0.253144 0.649751
O O11 0.228215 0.221545 0.582974
O O12 0.312535 0.149448 0.513023
O O13 0.261578 0.074594 0.648245
O O14 0.676868 0.440312 0.864869
O O15 0.769666 0.395924 0.866969
O O16 0.730081 0.500000 0.000000
O O17 0.380751 0.348228 0.750000
#
# Coordination Sequence:
#
# PCOD9475615 Si02
#       7
#    16  16  16  16  16  16  16
#     4  11  23  39  60  83 118 164 207 258 316 363
#     4  11  22  34  56  86 120 159 205 253 301 364
#     4   9  19  35  54  81 115 153 199 246 299 363
#     4   9  18  36  59  84 122 163 194 241 301 355
#     4   9  20  36  63  88 120 161 198 248 302 365
#     4  11  23  38  60  93 126 160 209 252 299 369
#     4   9  18  33  55  89 120 155 198 237 291 367
#
# _framework density 20.660675000000001
#
# number of rings (size 3 to 8) (size 9 to 14) (size 15 to 20)
#    0.000    2.143    1.429    2.143    2.000    6.857 
#    0.000    0.000    0.000    0.429    0.000    0.000 
#    0.000    0.000    0.000    0.000    0.000    0.000 
#
# Total GULP energy -312094.349386 kJ/mol
# GULP energy per Si atom -5573.113382 kJ/mol
# Density = 2.061365 g / cm^3
# Si number density = 20.660675 Si / 1000 Ang^3
#
#
#
# Elastic Constant Matrix: (Units=GPa)
#
#
# Indices 1 2 3 4 5 6 
#
# 1 85.0150 5.6325 12.7751 0.0000 0.0000 0.0000
# 2 5.6325 39.6735 8.1064 0.0000 0.0000 0.0000
# 3 12.7751 8.1064 85.8400 0.0000 0.0000 0.0000
# 4 0.0000 0.0000 0.0000 5.5644 0.0000 0.0000
# 5 0.0000 0.0000 0.0000 0.0000 10.1298 0.0000
# 6 0.0000 0.0000 0.0000 0.0000 0.0000 20.0688
#
#
#
# Elastic Compliance Matrix: (Units=1/GPa)
#
#
# Indices 1 2 3 4 5 6 
#
# 1 0.012105 -0.001377 -0.001671 0.000000 0.000000 0.000000
# 2 -0.001377 0.025858 -0.002237 0.000000 0.000000 0.000000
# 3 -0.001671 -0.002237 0.012110 0.000000 0.000000 0.000000
# 4 0.000000 0.000000 0.000000 0.179715 0.000000 0.000000
# 5 0.000000 0.000000 0.000000 0.000000 0.098718 0.000000
# 6 0.000000 0.000000 0.000000 0.000000 0.000000 0.049829
#
#
# Mechanical properties :
#
#
# Convention : Reuss Voigt Hill
#
# Bulk Modulus (GPa) = 25.31525 29.28404 27.29964
# Shear Modulus (GPa) = 12.43555 19.42023 15.92789
#
# Velocity S-wave (km/s) = 2.45602 3.06920 2.77957
# Velocity P-wave (km/s) = 4.50801 5.17345 4.85215
#
# Compressibility (1/GPa) = 0.03950189
#
# Stress axis : x y z
#
# Youngs Moduli (GPa) = 82.61028 38.67225 82.57914
#
# Poissons Ratio (x) = 0.05325 0.13803
# Poissons Ratio (y) = 0.11376 0.18473
# Poissons Ratio (z) = 0.13808 0.08651
#
# Static dielectric constant tensor:
#      x y z
#    x 1.752170 0.000000 0.000000 
#    y 0.000000 1.742070 0.000000 
#    z 0.000000 0.000000 1.819760 
# 
# From -- ./inp_files/37912.got.cif
#   From: 2010.05.17/outbox.cif.g08.bks.cpg/sg63_19_cif.got.tgz:37912.got - 2010.06.03 15:47:04.
