data_PCOD9475381
_publ_section_title
;
Structure prediction by ZEFSAII (Michael W. Deem and Ramdas Pophale) SiO2 
 PCOD9475381
Probable space group: C M C M
;
_chemical_formula_sum "Si O2"
_cell_formula_units_Z 96
_cell_length_a 11.518234
_cell_length_b 20.331145
_cell_length_c 23.083651
_cell_angle_alpha 90.000000
_cell_angle_beta 90.000000
_cell_angle_gamma 90.000000
_cell_volume 5405.703667
_symmetry_space_group_name_H-M "C M C M"
_symmetry_group_IT_number 63
_symmetry_cell_setting 'orthorhombic'
loop_
_space_group_symop_operation_xyz
x,y,z
-x,-y,1/2+z
x,-y,-z
-x,y,1/2-z
-x,-y,-z
x,y,1/2-z
-x,y,z
x,-y,1/2+z
1/2+x,1/2+y,z
1/2-x,1/2-y,1/2+z
1/2+x,1/2-y,-z
1/2-x,1/2+y,1/2-z
1/2-x,1/2-y,-z
1/2+x,1/2+y,1/2-z
1/2-x,1/2+y,z
1/2+x,1/2-y,1/2+z
loop_
_atom_site_type_symbol
_atom_site_label
_atom_site_fract_x
_atom_site_fract_y
_atom_site_fract_z
Si Si1 0.211431 0.000000 0.500000
Si Si2 0.257849 0.615665 0.180516
Si Si3 0.500000 0.599280 0.991404
Si Si4 0.265463 0.609802 0.681622
Si Si5 0.866181 0.248441 0.679697
Si Si6 0.000000 0.096814 0.116119
Si Si7 0.363706 0.002963 0.884316
Si Si8 0.000000 0.058821 0.631356
O O1 0.290634 0.002488 0.443370
O O2 0.122266 0.060489 0.503387
O O3 0.267445 0.613059 0.250000
O O4 0.193675 0.683273 0.163355
O O5 0.384459 0.612387 0.151783
O O6 0.182929 0.554414 0.157693
O O7 0.500000 0.610791 0.922154
O O8 0.500000 0.634399 0.054130
O O9 0.240606 0.608478 0.750000
O O10 0.292500 0.684395 0.662602
O O11 0.168005 0.572173 0.645677
O O12 0.385405 0.570675 0.668835
O O13 0.869939 0.246606 0.750000
O O14 0.000000 0.244663 0.659880
O O15 0.000000 0.016362 0.107392
O O16 0.500000 0.996480 0.894451
#
# Coordination Sequence:
#
# PCOD9475381 Si02
#       8
#     8  16   8  16  16   8  16   8
#     4  11  19  38  56  84 109 145 194 230 284 331
#     4  11  22  36  56  85 117 151 188 229 282 339
#     4  11  16  34  62  82 110 142 188 235 284 327
#     4  11  21  35  58  88 116 145 187 235 283 335
#     4   9  19  36  56  79 113 154 189 220 270 344
#     4  12  20  34  57  87 116 142 184 245 284 326
#     4  12  24  37  57  83 116 153 185 237 280 334
#     4  12  18  32  61  91 110 136 184 247 286 322
#
# _framework density 17.75902
#
# number of rings (size 3 to 8) (size 9 to 14) (size 15 to 20)
#    0.000    1.000    7.500    1.750    0.000    2.667 
#    1.500    0.000    0.000    4.000    0.000    0.000 
#    0.000    0.000    0.000    0.000    0.000    0.000 
#
# Total GULP energy -267669.356839 kJ/mol
# GULP energy per Si atom -5576.444934 kJ/mol
# Density = 1.771860 g / cm^3
# Si number density = 17.759020 Si / 1000 Ang^3
#
#
#
# Elastic Constant Matrix: (Units=GPa)
#
#
# Indices 1 2 3 4 5 6 
#
# 1 126.4295 33.6783 31.8813 0.0000 0.0000 0.0000
# 2 33.6783 96.6380 21.1283 0.0000 0.0000 0.0000
# 3 31.8813 21.1283 83.5509 0.0000 0.0000 0.0000
# 4 0.0000 0.0000 0.0000 2.9809 0.0000 0.0000
# 5 0.0000 0.0000 0.0000 0.0000 17.9109 0.0000
# 6 0.0000 0.0000 0.0000 0.0000 0.0000 18.2001
#
#
#
# Elastic Compliance Matrix: (Units=1/GPa)
#
#
# Indices 1 2 3 4 5 6 
#
# 1 0.009339 -0.002620 -0.002901 0.000000 0.000000 0.000000
# 2 -0.002620 0.011689 -0.001956 0.000000 0.000000 0.000000
# 3 -0.002901 -0.001956 0.013570 0.000000 0.000000 0.000000
# 4 0.000000 0.000000 0.000000 0.335468 0.000000 0.000000
# 5 0.000000 0.000000 0.000000 0.000000 0.055832 0.000000
# 6 0.000000 0.000000 0.000000 0.000000 0.000000 0.054945
#
#
# Mechanical properties :
#
#
# Convention : Reuss Voigt Hill
#
# Bulk Modulus (GPa) = 50.90741 53.33271 52.12006
# Shear Modulus (GPa) = 9.95331 22.48043 16.21687
#
# Velocity S-wave (km/s) = 2.36998 3.56175 3.02514
# Velocity P-wave (km/s) = 6.01806 6.85648 6.45090
#
# Compressibility (1/GPa) = 0.01964351
#
# Stress axis : x y z
#
# Youngs Moduli (GPa) = 107.07671 85.55240 73.69030
#
# Poissons Ratio (x) = 0.22418 0.21377
# Poissons Ratio (y) = 0.28059 0.14413
# Poissons Ratio (z) = 0.31063 0.16733
#
# Static dielectric constant tensor:
#      x y z
#    x 1.578920 0.000000 0.000000 
#    y 0.000000 1.622390 0.000000 
#    z 0.000000 0.000000 1.630760 
# 
# From -- ./inp_files/52946.got.cif
#   From: 2010.05.17/outbox.cif.g08.bks.cpg/sg63_27_cif.got.tgz:52946.got - 2010.06.03 15:47:04.
