data_PCOD9475852
_publ_section_title
;
Structure prediction by ZEFSAII (Michael W. Deem and Ramdas Pophale) SiO2 
 PCOD9475852
Probable space group: C M C M
;
_chemical_formula_sum "Si O2"
_cell_formula_units_Z 52
_cell_length_a 9.428366
_cell_length_b 11.075761
_cell_length_c 20.421628
_cell_angle_alpha 90.000000
_cell_angle_beta 90.000000
_cell_angle_gamma 90.000000
_cell_volume 2132.555633
_symmetry_space_group_name_H-M "C M C M"
_symmetry_group_IT_number 63
_symmetry_cell_setting 'orthorhombic'
loop_
_space_group_symop_operation_xyz
x,y,z
-x,-y,1/2+z
x,-y,-z
-x,y,1/2-z
-x,-y,-z
x,y,1/2-z
-x,y,z
x,-y,1/2+z
1/2+x,1/2+y,z
1/2-x,1/2-y,1/2+z
1/2+x,1/2-y,-z
1/2-x,1/2+y,1/2-z
1/2-x,1/2-y,-z
1/2+x,1/2+y,1/2-z
1/2-x,1/2+y,z
1/2+x,1/2-y,1/2+z
loop_
_atom_site_type_symbol
_atom_site_label
_atom_site_fract_x
_atom_site_fract_y
_atom_site_fract_z
Si Si1 0.000000 0.740897 0.250000
Si Si2 0.200987 0.449540 0.120659
Si Si3 0.162768 0.287907 0.250000
Si Si4 0.000000 0.972365 0.923106
Si Si5 0.000000 0.325442 0.888653
Si Si6 0.500000 0.794503 0.038388
O O1 0.815571 0.716151 0.250000
O O2 0.000000 0.762447 0.327136
O O3 0.167820 0.375272 0.186258
O O4 0.363088 0.473749 0.109977
O O5 0.129108 0.580758 0.119279
O O6 0.134458 0.373802 0.060578
O O7 0.000000 0.230856 0.250000
O O8 0.000000 0.827540 0.920678
O O9 0.000000 0.000000 0.000000
O O10 0.000000 0.272587 0.961056
#
# Coordination Sequence:
#
# PCOD9475852 Si02
#       6
#     4  16   8   8   8   8
#     4  12  30  44  78 114 142 216 264 320 404 484
#     4  11  25  49  73 109 150 209 252 327 400 463
#     4  12  25  50  77 107 163 200 265 330 393 482
#     4  12  28  44  75 113 151 200 269 321 394 485
#     4  11  24  48  74 102 154 199 257 323 398 464
#     4  11  26  48  75 111 154 202 254 326 395 469
#
# _framework density 24.383890000000001
#
# number of rings (size 3 to 8) (size 9 to 14) (size 15 to 20)
#    0.000    0.615    3.077    5.538    8.615    2.462 
#    0.000    1.538    0.000    0.000    0.000    0.000 
#    0.000    0.000    0.000    0.000    0.000    0.000 
#
# Total GULP energy -145089.033173 kJ/mol
# GULP energy per Si atom -5580.347430 kJ/mol
# Density = 2.432839 g / cm^3
# Si number density = 24.383890 Si / 1000 Ang^3
#
#
#
# Elastic Constant Matrix: (Units=GPa)
#
#
# Indices 1 2 3 4 5 6 
#
# 1 235.7296 29.3543 28.3955 0.0000 0.0000 0.0000
# 2 29.3543 76.7171 22.9820 0.0000 0.0000 0.0000
# 3 28.3955 22.9820 174.5892 0.0000 0.0000 0.0000
# 4 0.0000 0.0000 0.0000 29.2737 0.0000 0.0000
# 5 0.0000 0.0000 0.0000 0.0000 31.7344 0.0000
# 6 0.0000 0.0000 0.0000 0.0000 0.0000 -33.0854
#
#
#
# Elastic Compliance Matrix: (Units=1/GPa)
#
#
# Indices 1 2 3 4 5 6 
#
# 1 0.004500 -0.001564 -0.000526 0.000000 0.000000 0.000000
# 2 -0.001564 0.014114 -0.001603 0.000000 0.000000 0.000000
# 3 -0.000526 -0.001603 0.006024 0.000000 0.000000 0.000000
# 4 0.000000 0.000000 0.000000 0.034160 0.000000 0.000000
# 5 0.000000 0.000000 0.000000 0.000000 0.031512 0.000000
# 6 0.000000 0.000000 0.000000 0.000000 0.000000 -0.030225
#
#
# Mechanical properties :
#
#
# Convention : Reuss Voigt Hill
#
# Bulk Modulus (GPa) = 57.96821 72.05549 65.01185
# Shear Modulus (GPa) = 68.28405 32.67148 50.47776
#
# Velocity S-wave (km/s) = 5.29760 3.66441 4.55480
# Velocity P-wave (km/s) = 7.82587 6.89336 7.37437
#
# Compressibility (1/GPa) = 0.01725083
#
# Stress axis : x y z
#
# Youngs Moduli (GPa) = 222.20664 70.85248 165.99300
#
# Poissons Ratio (x) = 0.11084 0.08731
# Poissons Ratio (y) = 0.34762 0.26616
# Poissons Ratio (z) = 0.11688 0.11361
#
# Static dielectric constant tensor:
#      x y z
#    x 2.064380 0.000000 0.000000 
#    y 0.000000 1.945500 0.000000 
#    z 0.000000 0.000000 1.860170 
# 
# From -- ./inp_files/50096.got.cif
#   From: 2010.05.17/outbox.cif.g08.bks.cpg/sg63_26_cif.got.tgz:50096.got - 2010.06.03 15:47:04.
