data_PCOD9475762
_publ_section_title
;
Structure prediction by ZEFSAII (Michael W. Deem and Ramdas Pophale) SiO2 
 PCOD9475762
Probable space group: C M C M
;
_chemical_formula_sum "Si O2"
_cell_formula_units_Z 64
_cell_length_a 7.940464
_cell_length_b 18.233911
_cell_length_c 23.733267
_cell_angle_alpha 90.000000
_cell_angle_beta 90.000000
_cell_angle_gamma 90.000000
_cell_volume 3436.238005
_symmetry_space_group_name_H-M "C M C M"
_symmetry_group_IT_number 63
_symmetry_cell_setting 'orthorhombic'
loop_
_space_group_symop_operation_xyz
x,y,z
-x,-y,1/2+z
x,-y,-z
-x,y,1/2-z
-x,-y,-z
x,y,1/2-z
-x,y,z
x,-y,1/2+z
1/2+x,1/2+y,z
1/2-x,1/2-y,1/2+z
1/2+x,1/2-y,-z
1/2-x,1/2+y,1/2-z
1/2-x,1/2-y,-z
1/2+x,1/2+y,1/2-z
1/2-x,1/2+y,z
1/2+x,1/2-y,1/2+z
loop_
_atom_site_type_symbol
_atom_site_label
_atom_site_fract_x
_atom_site_fract_y
_atom_site_fract_z
Si Si1 0.305621 0.913293 0.618436
Si Si2 0.307493 0.332978 0.509949
Si Si3 0.500000 0.661757 0.183044
Si Si4 0.308955 0.079191 0.595015
Si Si5 0.500000 0.835221 0.183138
O O1 0.500000 0.912904 0.639256
O O2 0.298252 0.872372 0.558441
O O3 0.168833 0.873994 0.657592
O O4 0.250704 0.997681 0.609079
O O5 0.500000 0.332718 0.529629
O O6 0.250000 0.250000 0.500000
O O7 0.293133 0.377742 0.451851
O O8 0.500000 0.652334 0.250000
O O9 0.500000 0.748899 0.170894
O O10 0.500000 0.071041 0.571130
O O11 0.341717 0.126587 0.651525
O O12 0.500000 0.847312 0.250000
#
# Coordination Sequence:
#
# PCOD9475762 Si02
#       5
#    16  16   8  16   8
#     4  11  23  41  64  94 128 166 209 264 319 374
#     4  12  23  36  61  92 133 168 207 262 321 388
#     4  11  24  42  67  94 127 169 219 264 310 380
#     4   9  21  38  62  89 120 164 212 253 316 379
#     4   9  20  42  65  86 125 169 209 264 314 372
#
# _framework density 18.625019000000002
#
# number of rings (size 3 to 8) (size 9 to 14) (size 15 to 20)
#    0.750    0.750    1.250    4.500    1.750    4.500 
#    0.000    0.000    0.000    1.500    0.000    0.000 
#    0.000    0.000    0.000    0.000    0.000    0.000 
#
# Total GULP energy -178541.258464 kJ/mol
# GULP energy per Si atom -5579.414327 kJ/mol
# Density = 1.858263 g / cm^3
# Si number density = 18.625019 Si / 1000 Ang^3
#
#
#
# Elastic Constant Matrix: (Units=GPa)
#
#
# Indices 1 2 3 4 5 6 
#
# 1 69.1068 39.4672 28.8426 0.0000 0.0000 0.0000
# 2 39.4672 177.1841 77.8996 0.0000 0.0000 0.0000
# 3 28.8426 77.8996 100.6751 0.0000 0.0000 0.0000
# 4 0.0000 0.0000 0.0000 -83.0890 0.0000 0.0000
# 5 0.0000 0.0000 0.0000 0.0000 28.2041 0.0000
# 6 0.0000 0.0000 0.0000 0.0000 0.0000 24.5479
#
#
#
# Elastic Compliance Matrix: (Units=1/GPa)
#
#
# Indices 1 2 3 4 5 6 
#
# 1 0.017144 -0.002515 -0.002966 0.000000 0.000000 0.000000
# 2 -0.002515 0.008923 -0.006184 0.000000 0.000000 0.000000
# 3 -0.002966 -0.006184 0.015567 0.000000 0.000000 0.000000
# 4 0.000000 0.000000 0.000000 -0.012035 0.000000 0.000000
# 5 0.000000 0.000000 0.000000 0.000000 0.035456 0.000000
# 6 0.000000 0.000000 0.000000 0.000000 0.000000 0.040737
#
#
# Mechanical properties :
#
#
# Convention : Reuss Voigt Hill
#
# Bulk Modulus (GPa) = 54.62744 71.04274 62.83509
# Shear Modulus (GPa) = 36.97613 7.31635 22.14624
#
# Velocity S-wave (km/s) = 4.46050 1.98413 3.45201
# Velocity P-wave (km/s) = 7.47809 6.59360 7.04973
#
# Compressibility (1/GPa) = 0.01830582
#
# Stress axis : x y z
#
# Youngs Moduli (GPa) = 58.32790 112.07372 64.23713
#
# Poissons Ratio (x) = 0.28186 0.19051
# Poissons Ratio (y) = 0.14669 0.39722
# Poissons Ratio (z) = 0.17299 0.69302
#
# Static dielectric constant tensor:
#      x y z
#    x 1.696850 0.000000 0.000000 
#    y 0.000000 1.635580 0.000000 
#    z 0.000000 0.000000 1.637500 
# 
# From -- ./inp_files/59121.got.cif
#   From: 2010.05.17/outbox.cif.g08.bks.cpg/sg63_30_cif.got.tgz:59121.got - 2010.06.03 15:47:04.
