data_PCOD9475242
_publ_section_title
;
Structure prediction by ZEFSAII (Michael W. Deem and Ramdas Pophale) SiO2 
 PCOD9475242
Probable space group: C M C M
;
_chemical_formula_sum "Si O2"
_cell_formula_units_Z 80
_cell_length_a 12.950761
_cell_length_b 13.946622
_cell_length_c 23.329840
_cell_angle_alpha 90.000000
_cell_angle_beta 90.000000
_cell_angle_gamma 90.000000
_cell_volume 4213.820963
_symmetry_space_group_name_H-M "C M C M"
_symmetry_group_IT_number 63
_symmetry_cell_setting 'orthorhombic'
loop_
_space_group_symop_operation_xyz
x,y,z
-x,-y,1/2+z
x,-y,-z
-x,y,1/2-z
-x,-y,-z
x,y,1/2-z
-x,y,z
x,-y,1/2+z
1/2+x,1/2+y,z
1/2-x,1/2-y,1/2+z
1/2+x,1/2-y,-z
1/2-x,1/2+y,1/2-z
1/2-x,1/2-y,-z
1/2+x,1/2+y,1/2-z
1/2-x,1/2+y,z
1/2+x,1/2-y,1/2+z
loop_
_atom_site_type_symbol
_atom_site_label
_atom_site_fract_x
_atom_site_fract_y
_atom_site_fract_z
Si Si1 0.117750 0.551433 0.317215
Si Si2 0.500000 0.364439 0.030946
Si Si3 0.202100 0.159837 0.125329
Si Si4 0.121099 0.363790 0.104539
Si Si5 0.500000 0.553097 0.400297
Si Si6 0.716347 0.614009 0.505413
O O1 0.126557 0.529194 0.250000
O O2 0.203711 0.627199 0.335820
O O3 0.133603 0.456054 0.355102
O O4 0.000000 0.585181 0.328040
O O5 0.500000 0.442553 0.081994
O O6 0.381860 0.328259 0.032061
O O7 0.500000 0.397663 0.963636
O O8 0.162757 0.267420 0.134058
O O9 0.103225 0.088932 0.130739
O O10 0.234995 0.149296 0.058686
O O11 0.186832 0.379025 0.047040
O O12 0.000000 0.350869 0.091444
O O13 0.688628 0.500000 0.500000
#
# Coordination Sequence:
#
# PCOD9475242 Si02
#       6
#    16   8  16  16   8  16
#     4  10  23  43  63  81 110 152 195 244 298 345
#     4   9  14  28  52  72 117 165 184 221 281 338
#     4  11  20  37  59  86 118 155 195 235 286 348
#     4  11  23  37  59  90 123 151 193 243 289 351
#     4   9  14  28  53  80 110 144 190 229 275 331
#     4  11  18  33  56  86 123 162 193 228 291 350
#
# _framework density 18.985146
#
# number of rings (size 3 to 8) (size 9 to 14) (size 15 to 20)
#    0.000    1.600    7.000    0.600    0.000    2.000 
#    1.800    0.500    0.000    0.000    0.000    0.000 
#    0.000    0.000    0.000    0.000    0.000    0.000 
#
# Total GULP energy -223033.630388 kJ/mol
# GULP energy per Si atom -5575.840760 kJ/mol
# Density = 1.894193 g / cm^3
# Si number density = 18.985146 Si / 1000 Ang^3
#
#
#
# Elastic Constant Matrix: (Units=GPa)
#
#
# Indices 1 2 3 4 5 6 
#
# 1 137.9005 30.7613 58.6214 0.0000 0.0000 0.0000
# 2 30.7613 31.2405 4.6220 0.0000 0.0000 0.0000
# 3 58.6214 4.6220 46.3019 0.0000 0.0000 0.0000
# 4 0.0000 0.0000 0.0000 7.4867 0.0000 0.0000
# 5 0.0000 0.0000 0.0000 0.0000 29.6697 0.0000
# 6 0.0000 0.0000 0.0000 0.0000 0.0000 30.0859
#
#
#
# Elastic Compliance Matrix: (Units=1/GPa)
#
#
# Indices 1 2 3 4 5 6 
#
# 1 0.022977 -0.018595 -0.027234 0.000000 0.000000 0.000000
# 2 -0.018595 0.047539 0.018797 0.000000 0.000000 0.000000
# 3 -0.027234 0.018797 0.054201 0.000000 0.000000 0.000000
# 4 0.000000 0.000000 0.000000 0.133570 0.000000 0.000000
# 5 0.000000 0.000000 0.000000 0.000000 0.033704 0.000000
# 6 0.000000 0.000000 0.000000 0.000000 0.000000 0.033238
#
#
# Mechanical properties :
#
#
# Convention : Reuss Voigt Hill
#
# Bulk Modulus (GPa) = 14.15372 44.82802 29.49087
# Shear Modulus (GPa) = 12.41177 21.54433 16.97805
#
# Velocity S-wave (km/s) = 2.55965 3.37233 2.99370
# Velocity P-wave (km/s) = 4.02580 6.23112 5.24567
#
# Compressibility (1/GPa) = 0.07065281
#
# Stress axis : x y z
#
# Youngs Moduli (GPa) = 43.52233 21.03557 18.44982
#
# Poissons Ratio (x) = 0.39116 0.50246
# Poissons Ratio (y) = 0.80930 -0.34681
# Poissons Ratio (z) = 1.18528 -0.39541
#
# Static dielectric constant tensor:
#      x y z
#    x 1.722030 0.000000 0.000000 
#    y 0.000000 1.717040 0.000000 
#    z 0.000000 0.000000 1.616150 
# 
# From -- ./inp_files/61164.got.cif
#   From: 2010.05.17/outbox.cif.g08.bks.cpg/sg63_31_cif.got.tgz:61164.got - 2010.06.03 15:47:04.
