data_PCOD9475500
_publ_section_title
;
Structure prediction by ZEFSAII (Michael W. Deem and Ramdas Pophale) SiO2 
 PCOD9475500
Probable space group: C M C M
;
_chemical_formula_sum "Si O2"
_cell_formula_units_Z 80
_cell_length_a 28.624523
_cell_length_b 18.655678
_cell_length_c 7.850929
_cell_angle_alpha 90.000000
_cell_angle_beta 90.000000
_cell_angle_gamma 90.000000
_cell_volume 4192.473685
_symmetry_space_group_name_H-M "C M C M"
_symmetry_group_IT_number 63
_symmetry_cell_setting 'orthorhombic'
loop_
_space_group_symop_operation_xyz
x,y,z
-x,-y,1/2+z
x,-y,-z
-x,y,1/2-z
-x,-y,-z
x,y,1/2-z
-x,y,z
x,-y,1/2+z
1/2+x,1/2+y,z
1/2-x,1/2-y,1/2+z
1/2+x,1/2-y,-z
1/2-x,1/2+y,1/2-z
1/2-x,1/2-y,-z
1/2+x,1/2+y,1/2-z
1/2-x,1/2+y,z
1/2+x,1/2-y,1/2+z
loop_
_atom_site_type_symbol
_atom_site_label
_atom_site_fract_x
_atom_site_fract_y
_atom_site_fract_z
Si Si1 0.051134 0.269380 0.541556
Si Si2 0.149923 0.785626 0.045745
Si Si3 0.911348 0.421676 0.953907
Si Si4 0.188221 0.633533 0.041520
Si Si5 0.788150 0.080599 0.451651
O O1 0.051107 0.268118 0.750000
O O2 0.096631 0.225185 0.484628
O O3 0.059977 0.352043 0.488544
O O4 0.000000 0.245013 0.484576
O O5 0.148388 0.780830 0.250000
O O6 0.179630 0.716035 0.987899
O O7 0.174509 0.859399 0.000954
O O8 0.910436 0.417635 0.750000
O O9 0.857753 0.410246 0.014070
O O10 0.929175 0.500000 0.000000
O O11 0.188722 0.632367 0.250000
O O12 0.236917 0.601876 0.977240
O O13 0.783859 0.082829 0.250000
O O14 0.800939 0.000000 0.500000
#
# Coordination Sequence:
#
# PCOD9475500 Si02
#       5
#    16  16  16  16  16
#     4   8  15  29  49  69  89 119 156 190 229 278
#     4   9  17  32  52  71  92 119 154 193 230 269
#     4   9  16  27  43  65  95 127 158 189 221 261
#     4   8  16  30  47  67  93 127 160 187 218 264
#     4  11  21  32  47  69  97 125 154 187 227 273
#
# _framework density 19.081813
#
# number of rings (size 3 to 8) (size 9 to 14) (size 15 to 20)
#    0.000    3.000    0.000    4.200    0.000    0.400 
#    0.000    6.000    0.000    2.400    0.000    0.000 
#    0.000    0.000    0.000    0.000    0.000    0.000 
#
# Total GULP energy -223044.113232 kJ/mol
# GULP energy per Si atom -5576.102831 kJ/mol
# Density = 1.903838 g / cm^3
# Si number density = 19.081813 Si / 1000 Ang^3
#
#
#
# Elastic Constant Matrix: (Units=GPa)
#
#
# Indices 1 2 3 4 5 6 
#
# 1 60.1234 10.5713 3.7199 0.0000 0.0000 0.0000
# 2 10.5713 65.4934 -1.2958 0.0000 0.0000 0.0000
# 3 3.7199 -1.2958 16.7307 0.0000 0.0000 0.0000
# 4 0.0000 0.0000 0.0000 18.2069 0.0000 0.0000
# 5 0.0000 0.0000 0.0000 0.0000 6.7785 0.0000
# 6 0.0000 0.0000 0.0000 0.0000 0.0000 9.6408
#
#
#
# Elastic Compliance Matrix: (Units=1/GPa)
#
#
# Indices 1 2 3 4 5 6 
#
# 1 0.017393 -0.002888 -0.004091 0.000000 0.000000 0.000000
# 2 -0.002888 0.015772 0.001864 0.000000 0.000000 0.000000
# 3 -0.004091 0.001864 0.060824 0.000000 0.000000 0.000000
# 4 0.000000 0.000000 0.000000 0.054924 0.000000 0.000000
# 5 0.000000 0.000000 0.000000 0.000000 0.147526 0.000000
# 6 0.000000 0.000000 0.000000 0.000000 0.000000 0.103726
#
#
# Mechanical properties :
#
#
# Convention : Reuss Voigt Hill
#
# Bulk Modulus (GPa) = 11.93913 18.70426 15.32169
# Shear Modulus (GPa) = 11.40729 15.54871 13.47800
#
# Velocity S-wave (km/s) = 2.44767 2.85764 2.66056
# Velocity P-wave (km/s) = 3.77604 4.55100 4.18151
#
# Compressibility (1/GPa) = 0.08375821
#
# Stress axis : x y z
#
# Youngs Moduli (GPa) = 57.49296 63.40428 16.44081
#
# Poissons Ratio (x) = 0.18314 0.06726
# Poissons Ratio (y) = 0.16606 -0.03064
# Poissons Ratio (z) = 0.23520 -0.11817
#
# Static dielectric constant tensor:
#      x y z
#    x 1.688550 0.000000 0.000000 
#    y 0.000000 1.564140 0.000000 
#    z 0.000000 0.000000 1.687650 
# 
# From -- ./inp_files/11969.got.cif
#   From: 2010.05.17/outbox.cif.g08.bks.cpg/sg63_6_cif.got.tgz:11969.got - 2010.06.03 15:47:04.
