data_PCOD9475223
_publ_section_title
;
Structure prediction by ZEFSAII (Michael W. Deem and Ramdas Pophale) SiO2 
 PCOD9475223
Probable space group: C M C M
;
_chemical_formula_sum "Si O2"
_cell_formula_units_Z 96
_cell_length_a 20.758999
_cell_length_b 8.607922
_cell_length_c 27.235455
_cell_angle_alpha 90.000000
_cell_angle_beta 90.000000
_cell_angle_gamma 90.000000
_cell_volume 4866.753681
_symmetry_space_group_name_H-M "C M C M"
_symmetry_group_IT_number 63
_symmetry_cell_setting 'orthorhombic'
loop_
_space_group_symop_operation_xyz
x,y,z
-x,-y,1/2+z
x,-y,-z
-x,y,1/2-z
-x,-y,-z
x,y,1/2-z
-x,y,z
x,-y,1/2+z
1/2+x,1/2+y,z
1/2-x,1/2-y,1/2+z
1/2+x,1/2-y,-z
1/2-x,1/2+y,1/2-z
1/2-x,1/2-y,-z
1/2+x,1/2+y,1/2-z
1/2-x,1/2+y,z
1/2+x,1/2-y,1/2+z
loop_
_atom_site_type_symbol
_atom_site_label
_atom_site_fract_x
_atom_site_fract_y
_atom_site_fract_z
Si Si1 0.654285 0.942338 0.551262
Si Si2 0.694517 0.747426 0.805911
Si Si3 0.287779 0.594352 0.949830
Si Si4 0.572066 0.753966 0.191968
Si Si5 0.809204 0.073522 0.350531
Si Si6 0.926478 0.402547 0.850957
O O1 0.688603 0.772200 0.546224
O O2 0.624239 0.000000 0.500000
O O3 0.711301 0.068698 0.559943
O O4 0.604325 0.931651 0.595496
O O5 0.707488 0.795967 0.750000
O O6 0.700628 0.564310 0.811739
O O7 0.745223 0.823173 0.843872
O O8 0.622807 0.792616 0.822247
O O9 0.317895 0.507373 0.903134
O O10 0.301443 0.500000 0.000000
O O11 0.582960 0.736442 0.250000
O O12 0.500000 0.695033 0.180430
O O13 0.628328 0.670307 0.163002
O O14 0.573630 0.934625 0.177789
O O15 0.000000 0.345845 0.853917
#
# Coordination Sequence:
#
# PCOD9475223 Si02
#       6
#    16  16  16  16  16  16
#     4  11  23  40  65  94 125 160 205 260 318 378
#     4  12  24  39  62  93 127 166 208 260 312 370
#     4  11  22  39  66  99 123 159 202 257 319 376
#     4  10  23  42  64  90 125 171 214 254 309 377
#     4  12  23  41  65  96 129 162 207 263 316 371
#     4  11  24  42  63  89 125 170 214 260 311 373
#
# _framework density 19.725674999999999
#
# number of rings (size 3 to 8) (size 9 to 14) (size 15 to 20)
#    0.000    0.833    3.333    5.000    4.667    2.000 
#    0.000    0.000    0.000    1.000    0.000    0.000 
#    0.000    0.000    0.000    0.000    0.000    0.000 
#
# Total GULP energy -268301.853958 kJ/mol
# GULP energy per Si atom -5589.621957 kJ/mol
# Density = 1.968078 g / cm^3
# Si number density = 19.725675 Si / 1000 Ang^3
#
#
#
# Elastic Constant Matrix: (Units=GPa)
#
#
# Indices 1 2 3 4 5 6 
#
# 1 102.5723 33.3972 19.1510 0.0000 0.0000 0.0000
# 2 33.3972 42.3925 -10.1477 0.0000 0.0000 0.0000
# 3 19.1510 -10.1477 79.0716 0.0000 0.0000 0.0000
# 4 0.0000 0.0000 0.0000 32.8396 0.0000 0.0000
# 5 0.0000 0.0000 0.0000 0.0000 18.3916 0.0000
# 6 0.0000 0.0000 0.0000 0.0000 0.0000 31.7588
#
#
#
# Elastic Compliance Matrix: (Units=1/GPa)
#
#
# Indices 1 2 3 4 5 6 
#
# 1 0.015004 -0.013093 -0.005314 0.000000 0.000000 0.000000
# 2 -0.013093 0.035761 0.007760 0.000000 0.000000 0.000000
# 3 -0.005314 0.007760 0.014930 0.000000 0.000000 0.000000
# 4 0.000000 0.000000 0.000000 0.030451 0.000000 0.000000
# 5 0.000000 0.000000 0.000000 0.000000 0.054373 0.000000
# 6 0.000000 0.000000 0.000000 0.000000 0.000000 0.031487
#
#
# Mechanical properties :
#
#
# Convention : Reuss Voigt Hill
#
# Bulk Modulus (GPa) = 22.52126 34.31528 28.41827
# Shear Modulus (GPa) = 22.92522 28.70705 25.81614
#
# Velocity S-wave (km/s) = 3.41281 3.81900 3.62160
# Velocity P-wave (km/s) = 5.19343 6.07292 5.65031
#
# Compressibility (1/GPa) = 0.04440249
#
# Stress axis : x y z
#
# Youngs Moduli (GPa) = 66.64713 27.96315 66.97997
#
# Poissons Ratio (x) = 0.36611 0.35595
# Poissons Ratio (y) = 0.87259 -0.51980
# Poissons Ratio (z) = 0.35418 -0.21701
#
# Static dielectric constant tensor:
#      x y z
#    x 1.681220 0.000000 0.000000 
#    y 0.000000 1.684600 0.000000 
#    z 0.000000 0.000000 1.724560 
# 
# From -- ./inp_files/70321.got.cif
#   From: 2010.05.17/outbox.cif.g08.bks.cpg/sg63_36_cif.got.tgz:70321.got - 2010.06.03 15:47:04.
