data_PCOD9475943
_publ_section_title
;
Structure prediction by ZEFSAII (Michael W. Deem and Ramdas Pophale) SiO2 
 PCOD9475943
Probable space group: C M C M
;
_chemical_formula_sum "Si O2"
_cell_formula_units_Z 80
_cell_length_a 7.435440
_cell_length_b 27.065925
_cell_length_c 20.192485
_cell_angle_alpha 90.000000
_cell_angle_beta 90.000000
_cell_angle_gamma 90.000000
_cell_volume 4063.678268
_symmetry_space_group_name_H-M "C M C M"
_symmetry_group_IT_number 63
_symmetry_cell_setting 'orthorhombic'
loop_
_space_group_symop_operation_xyz
x,y,z
-x,-y,1/2+z
x,-y,-z
-x,y,1/2-z
-x,-y,-z
x,y,1/2-z
-x,y,z
x,-y,1/2+z
1/2+x,1/2+y,z
1/2-x,1/2-y,1/2+z
1/2+x,1/2-y,-z
1/2-x,1/2+y,1/2-z
1/2-x,1/2-y,-z
1/2+x,1/2+y,1/2-z
1/2-x,1/2+y,z
1/2+x,1/2-y,1/2+z
loop_
_atom_site_type_symbol
_atom_site_label
_atom_site_fract_x
_atom_site_fract_y
_atom_site_fract_z
Si Si1 0.719177 0.695788 0.326254
Si Si2 0.779041 0.109197 0.076700
Si Si3 0.215914 0.693277 0.824949
Si Si4 0.286209 0.394442 0.425770
Si Si5 0.707632 0.500817 0.419392
O O1 0.771863 0.686710 0.250000
O O2 0.500000 0.695402 0.327636
O O3 0.780108 0.653306 0.375935
O O4 0.777347 0.751510 0.344366
O O5 0.717128 0.054455 0.099025
O O6 0.000000 0.108617 0.077332
O O7 0.721359 0.116455 0.000348
O O8 0.280292 0.682956 0.750000
O O9 0.260489 0.650507 0.876180
O O10 0.000000 0.695531 0.822059
O O11 0.500000 0.402154 0.432594
O O12 0.212969 0.447528 0.400620
O O13 0.708166 0.500000 0.500000
O O14 0.500000 0.501653 0.396723
#
# Coordination Sequence:
#
# PCOD9475943 Si02
#       5
#    16  16  16  16  16
#     4   8  14  25  40  57  79 109 142 171 201 242
#     4   8  13  23  41  63  85 108 135 170 208 241
#     4   9  18  31  43  56  80 113 142 169 205 246
#     4   9  16  26  43  66  87 107 134 169 207 246
#     4   7  11  21  37  58  85 111 129 154 201 249
#
# _framework density 19.686598
#
# number of rings (size 3 to 8) (size 9 to 14) (size 15 to 20)
#    0.000    3.800    0.000    3.600    0.000    1.200 
#    0.000    1.000    0.000    9.000    0.000    0.000 
#    0.000    0.000    0.000    0.000    0.000    0.000 
#
# Total GULP energy -222705.346647 kJ/mol
# GULP energy per Si atom -5567.633666 kJ/mol
# Density = 1.964179 g / cm^3
# Si number density = 19.686598 Si / 1000 Ang^3
#
#
#
# Elastic Constant Matrix: (Units=GPa)
#
#
# Indices 1 2 3 4 5 6 
#
# 1 57.8411 5.5251 2.5076 0.0000 0.0000 0.0000
# 2 5.5251 248.5396 127.4911 0.0000 0.0000 0.0000
# 3 2.5076 127.4911 93.2529 0.0000 0.0000 0.0000
# 4 0.0000 0.0000 0.0000 -38.2188 0.0000 0.0000
# 5 0.0000 0.0000 0.0000 0.0000 4.3258 0.0000
# 6 0.0000 0.0000 0.0000 0.0000 0.0000 37.2407
#
#
#
# Elastic Compliance Matrix: (Units=1/GPa)
#
#
# Indices 1 2 3 4 5 6 
#
# 1 0.017327 -0.000489 0.000203 0.000000 0.000000 0.000000
# 2 -0.000489 0.013484 -0.018421 0.000000 0.000000 0.000000
# 3 0.000203 -0.018421 0.035903 0.000000 0.000000 0.000000
# 4 0.000000 0.000000 0.000000 -0.026165 0.000000 0.000000
# 5 0.000000 0.000000 0.000000 0.000000 0.231174 0.000000
# 6 0.000000 0.000000 0.000000 0.000000 0.000000 0.026852
#
#
# Mechanical properties :
#
#
# Convention : Reuss Voigt Hill
#
# Bulk Modulus (GPa) = 34.13178 74.52012 54.32595
# Shear Modulus (GPa) = 14.46112 18.27684 16.36898
#
# Velocity S-wave (km/s) = 2.71323 3.05025 2.88666
# Velocity P-wave (km/s) = 5.21447 7.09513 6.22621
#
# Compressibility (1/GPa) = 0.02929821
#
# Stress axis : x y z
#
# Youngs Moduli (GPa) = 57.71443 74.16357 27.85314
#
# Poissons Ratio (x) = 0.03629 -0.00566
# Poissons Ratio (y) = 0.02824 0.51309
# Poissons Ratio (z) = -0.01172 1.36618
#
# Static dielectric constant tensor:
#      x y z
#    x 1.788600 0.000000 0.000000 
#    y 0.000000 1.726340 0.000000 
#    z 0.000000 0.000000 1.648220 
# 
# From -- ./inp_files/30227.got.cif
#   From: 2010.05.17/outbox.cif.g08.bks.cpg/sg63_16_cif.got.tgz:30227.got - 2010.06.03 15:47:04.
