data_PCOD9475298
_publ_section_title
;
Structure prediction by ZEFSAII (Michael W. Deem and Ramdas Pophale) SiO2 
 PCOD9475298
Probable space group: C M C M
;
_chemical_formula_sum "Si O2"
_cell_formula_units_Z 56
_cell_length_a 10.006593
_cell_length_b 11.510645
_cell_length_c 20.650884
_cell_angle_alpha 90.000000
_cell_angle_beta 90.000000
_cell_angle_gamma 90.000000
_cell_volume 2378.617136
_symmetry_space_group_name_H-M "C M C M"
_symmetry_group_IT_number 63
_symmetry_cell_setting 'orthorhombic'
loop_
_space_group_symop_operation_xyz
x,y,z
-x,-y,1/2+z
x,-y,-z
-x,y,1/2-z
-x,-y,-z
x,y,1/2-z
-x,y,z
x,-y,1/2+z
1/2+x,1/2+y,z
1/2-x,1/2-y,1/2+z
1/2+x,1/2-y,-z
1/2-x,1/2+y,1/2-z
1/2-x,1/2-y,-z
1/2+x,1/2+y,1/2-z
1/2-x,1/2+y,z
1/2+x,1/2-y,1/2+z
loop_
_atom_site_type_symbol
_atom_site_label
_atom_site_fract_x
_atom_site_fract_y
_atom_site_fract_z
Si Si1 0.295298 0.975431 0.853374
Si Si2 0.000000 0.673654 0.677576
Si Si3 0.727591 0.500000 0.500000
Si Si4 0.500000 0.221592 0.321256
Si Si5 0.500000 0.625581 0.549783
Si Si6 0.500000 0.575270 0.142608
O O1 0.373968 0.864540 0.827083
O O2 0.142430 0.965335 0.830032
O O3 0.372077 0.090984 0.831360
O O4 0.302010 0.976998 0.932142
O O5 0.000000 0.722687 0.750000
O O6 0.000000 0.786918 0.633581
O O7 0.642504 0.619803 0.514785
O O8 0.500000 0.278259 0.250000
O O9 0.500000 0.300302 0.385083
O O10 0.500000 0.491871 0.574896
#
# Coordination Sequence:
#
# PCOD9475298 Si02
#       6
#    16   8   8   8   8   8
#     4  10  23  46  69 104 141 179 231 291 350 410
#     4  11  26  46  67 100 144 186 237 287 345 423
#     4   9  20  43  66 102 136 176 240 286 346 418
#     4  11  25  44  69 104 146 189 232 286 352 419
#     4   9  21  44  67 103 139 180 232 291 348 416
#     4  10  24  44  69 101 135 181 233 279 346 404
#
# _framework density 23.543092999999999
#
# number of rings (size 3 to 8) (size 9 to 14) (size 15 to 20)
#    0.000    2.000    0.000    2.571    8.000    6.286 
#   15.429    4.286    0.000    0.000    0.000    0.000 
#    0.000    0.000    0.000    0.000    0.000    0.000 
#
# Total GULP energy -156117.939340 kJ/mol
# GULP energy per Si atom -5575.640691 kJ/mol
# Density = 2.348951 g / cm^3
# Si number density = 23.543093 Si / 1000 Ang^3
#
#
#
# Elastic Constant Matrix: (Units=GPa)
#
#
# Indices 1 2 3 4 5 6 
#
# 1 149.8026 30.1015 2.7832 0.0000 0.0000 0.0000
# 2 30.1015 100.4847 2.8689 0.0000 0.0000 0.0000
# 3 2.7832 2.8689 109.3255 0.0000 0.0000 0.0000
# 4 0.0000 0.0000 0.0000 47.3594 0.0000 0.0000
# 5 0.0000 0.0000 0.0000 0.0000 42.3156 0.0000
# 6 0.0000 0.0000 0.0000 0.0000 0.0000 3.0625
#
#
#
# Elastic Compliance Matrix: (Units=1/GPa)
#
#
# Indices 1 2 3 4 5 6 
#
# 1 0.007105 -0.002125 -0.000125 0.000000 0.000000 0.000000
# 2 -0.002125 0.010595 -0.000224 0.000000 0.000000 0.000000
# 3 -0.000125 -0.000224 0.009156 0.000000 0.000000 0.000000
# 4 0.000000 0.000000 0.000000 0.021115 0.000000 0.000000
# 5 0.000000 0.000000 0.000000 0.000000 0.023632 0.000000
# 6 0.000000 0.000000 0.000000 0.000000 0.000000 0.326527
#
#
# Mechanical properties :
#
#
# Convention : Reuss Voigt Hill
#
# Bulk Modulus (GPa) = 45.64571 47.90222 46.77396
# Shear Modulus (GPa) = 12.18384 40.13813 26.16098
#
# Velocity S-wave (km/s) = 2.27736 4.13350 3.33708
# Velocity P-wave (km/s) = 5.13278 6.57053 5.89564
#
# Compressibility (1/GPa) = 0.02190786
#
# Stress axis : x y z
#
# Youngs Moduli (GPa) = 140.75144 94.38726 109.21730
#
# Poissons Ratio (x) = 0.20055 0.01366
# Poissons Ratio (y) = 0.29906 0.02446
# Poissons Ratio (z) = 0.01761 0.02114
#
# Static dielectric constant tensor:
#      x y z
#    x 2.125820 0.000000 0.000000 
#    y 0.000000 1.862370 0.000000 
#    z 0.000000 0.000000 2.079100 
# 
# From -- ./inp_files/60827.got.cif
#   From: 2010.05.17/outbox.cif.g08.bks.cpg/sg63_31_cif.got.tgz:60827.got - 2010.06.03 15:47:04.
