data_PCOD9475853
_publ_section_title
;
Structure prediction by ZEFSAII (Michael W. Deem and Ramdas Pophale) SiO2 
 PCOD9475853
Probable space group: C M C M
;
_chemical_formula_sum "Si O2"
_cell_formula_units_Z 64
_cell_length_a 22.374340
_cell_length_b 14.264124
_cell_length_c 9.487393
_cell_angle_alpha 90.000000
_cell_angle_beta 90.000000
_cell_angle_gamma 90.000000
_cell_volume 3027.904893
_symmetry_space_group_name_H-M "C M C M"
_symmetry_group_IT_number 63
_symmetry_cell_setting 'orthorhombic'
loop_
_space_group_symop_operation_xyz
x,y,z
-x,-y,1/2+z
x,-y,-z
-x,y,1/2-z
-x,-y,-z
x,y,1/2-z
-x,y,z
x,-y,1/2+z
1/2+x,1/2+y,z
1/2-x,1/2-y,1/2+z
1/2+x,1/2-y,-z
1/2-x,1/2+y,1/2-z
1/2-x,1/2-y,-z
1/2+x,1/2+y,1/2-z
1/2-x,1/2+y,z
1/2+x,1/2-y,1/2+z
loop_
_atom_site_type_symbol
_atom_site_label
_atom_site_fract_x
_atom_site_fract_y
_atom_site_fract_z
Si Si1 0.500000 0.708735 0.750000
Si Si2 0.000000 0.103632 0.250000
Si Si3 0.314307 0.500000 0.500000
Si Si4 0.398580 0.553547 0.750000
Si Si5 0.000000 0.721915 0.946925
Si Si6 0.275549 0.161235 0.084656
Si Si7 0.889684 0.588912 0.588851
O O1 0.441957 0.642290 0.750000
O O2 0.500000 0.771118 0.613230
O O3 0.057857 0.037214 0.250000
O O4 0.000000 0.173781 0.117483
O O5 0.356599 0.549384 0.614075
O O6 0.272433 0.422783 0.573053
O O7 0.058819 0.666244 0.902690
O O8 0.286909 0.181847 0.250000
O O9 0.250000 0.250000 0.000000
O O10 0.334118 0.127874 0.000498
O O11 0.912484 0.500000 0.500000
O O12 0.872054 0.563399 0.750000
#
# Coordination Sequence:
#
# PCOD9475853 Si02
#       7
#     4   4   8   8   8  16  16
#     4  11  28  46  71 116 140 188 239 306 352 453
#     4  11  24  50  71 110 144 188 241 300 354 439
#     4  12  26  47  76 107 146 194 240 300 368 438
#     4  11  26  46  76 104 150 187 236 296 370 427
#     4  12  27  45  77 104 147 189 249 296 369 430
#     4  12  29  47  74 109 149 194 249 306 369 438
#     4  12  27  48  74 105 147 192 244 307 366 432
#
# _framework density 21.136728000000002
#
# number of rings (size 3 to 8) (size 9 to 14) (size 15 to 20)
#    0.000    0.250    3.750    3.375   14.000    2.000 
#    0.000    0.000    0.000    0.000    0.000    0.000 
#    0.000    0.000    0.000    0.000    0.000    0.000 
#
# Total GULP energy -179212.909193 kJ/mol
# GULP energy per Si atom -5600.403412 kJ/mol
# Density = 2.108862 g / cm^3
# Si number density = 21.136728 Si / 1000 Ang^3
#
#
#
# Elastic Constant Matrix: (Units=GPa)
#
#
# Indices 1 2 3 4 5 6 
#
# 1 114.9356 15.1506 38.2547 0.0000 0.0000 0.0000
# 2 15.1506 71.9762 23.8684 0.0000 0.0000 0.0000
# 3 38.2547 23.8684 206.1048 0.0000 0.0000 0.0000
# 4 0.0000 0.0000 0.0000 45.7648 0.0000 0.0000
# 5 0.0000 0.0000 0.0000 0.0000 -6.4195 0.0000
# 6 0.0000 0.0000 0.0000 0.0000 0.0000 -188.9227
#
#
#
# Elastic Compliance Matrix: (Units=1/GPa)
#
#
# Indices 1 2 3 4 5 6 
#
# 1 0.009418 -0.001459 -0.001579 0.000000 0.000000 0.000000
# 2 -0.001459 0.014674 -0.001429 0.000000 0.000000 0.000000
# 3 -0.001579 -0.001429 0.005310 0.000000 0.000000 0.000000
# 4 0.000000 0.000000 0.000000 0.021851 0.000000 0.000000
# 5 0.000000 0.000000 0.000000 0.000000 -0.155774 0.000000
# 6 0.000000 0.000000 0.000000 0.000000 0.000000 -0.005293
#
#
# Mechanical properties :
#
#
# Convention : Reuss Voigt Hill
#
# Bulk Modulus (GPa) = 48.85222 60.84042 54.84632
# Shear Modulus (GPa) = -53.15938 -8.86596 -31.01267
#
# Velocity S-wave (km/s) = -5.02044 -2.05029 -3.83461
# Velocity P-wave (km/s) = 3.23169 4.82097 2.52962
#
# Compressibility (1/GPa) = 0.02046990
#
# Stress axis : x y z
#
# Youngs Moduli (GPa) = 106.17470 68.14632 188.30775
#
# Poissons Ratio (x) = 0.09941 0.29737
# Poissons Ratio (y) = 0.15489 0.26902
# Poissons Ratio (z) = 0.16767 0.09735
#
# Static dielectric constant tensor:
#      x y z
#    x 1.743200 0.000000 0.000000 
#    y 0.000000 1.739310 0.000000 
#    z 0.000000 0.000000 1.773850 
# 
# From -- ./inp_files/9721.got.cif
#   From: 2010.05.17/outbox.cif.g08.bks.cpg/sg63_5_cif.got.tgz:9721.got - 2010.06.03 15:47:04.
