data_PCOD9475480
_publ_section_title
;
Structure prediction by ZEFSAII (Michael W. Deem and Ramdas Pophale) SiO2 
 PCOD9475480
Probable space group: C M C M
;
_chemical_formula_sum "Si O2"
_cell_formula_units_Z 80
_cell_length_a 11.929221
_cell_length_b 20.126097
_cell_length_c 16.630642
_cell_angle_alpha 90.000000
_cell_angle_beta 90.000000
_cell_angle_gamma 90.000000
_cell_volume 3992.828536
_symmetry_space_group_name_H-M "C M C M"
_symmetry_group_IT_number 63
_symmetry_cell_setting 'orthorhombic'
loop_
_space_group_symop_operation_xyz
x,y,z
-x,-y,1/2+z
x,-y,-z
-x,y,1/2-z
-x,-y,-z
x,y,1/2-z
-x,y,z
x,-y,1/2+z
1/2+x,1/2+y,z
1/2-x,1/2-y,1/2+z
1/2+x,1/2-y,-z
1/2-x,1/2+y,1/2-z
1/2-x,1/2-y,-z
1/2+x,1/2+y,1/2-z
1/2-x,1/2+y,z
1/2+x,1/2-y,1/2+z
loop_
_atom_site_type_symbol
_atom_site_label
_atom_site_fract_x
_atom_site_fract_y
_atom_site_fract_z
Si Si1 0.628261 0.990724 0.597616
Si Si2 0.500000 0.481444 0.404853
Si Si3 0.238197 0.859901 0.920641
Si Si4 0.869506 0.755823 0.340928
Si Si5 0.000000 0.871004 0.843541
Si Si6 0.218879 0.107327 0.891177
O O1 0.500000 0.978829 0.621675
O O2 0.679133 0.058968 0.631872
O O3 0.630382 0.000000 0.500000
O O4 0.706954 0.927452 0.615267
O O5 0.500000 0.500000 0.500000
O O6 0.500000 0.549460 0.355989
O O7 0.391015 0.438520 0.386177
O O8 0.316900 0.798294 0.899543
O O9 0.114330 0.847538 0.885849
O O10 0.231058 0.871792 0.015607
O O11 0.863729 0.729263 0.250000
O O12 0.802455 0.824749 0.345008
O O13 0.000000 0.768993 0.360514
O O14 0.000000 0.853459 0.750000
#
# Coordination Sequence:
#
# PCOD9475480 Si02
#       6
#    16   8  16  16   8  16
#     4   9  18  34  61  92 118 147 194 250 300 352
#     4  12  18  38  64  94 122 149 197 258 302 361
#     4  11  21  40  62  88 122 159 206 253 298 363
#     4  11  25  42  59  85 124 164 205 251 306 369
#     4  12  24  36  62  94 124 161 199 251 313 363
#     4  11  20  38  65  90 120 158 203 257 302 360
#
# _framework density 20.035921999999999
#
# number of rings (size 3 to 8) (size 9 to 14) (size 15 to 20)
#    0.000    1.200    5.000    2.400    0.000    1.600 
#    1.800    0.000    0.000    2.400    0.000    0.000 
#    0.000    0.000    0.000    0.000    0.000    0.000 
#
# Total GULP energy -223535.370056 kJ/mol
# GULP energy per Si atom -5588.384251 kJ/mol
# Density = 1.999032 g / cm^3
# Si number density = 20.035922 Si / 1000 Ang^3
#
#
#
# Elastic Constant Matrix: (Units=GPa)
#
#
# Indices 1 2 3 4 5 6 
#
# 1 107.7430 15.9127 10.5622 0.0000 0.0000 0.0000
# 2 15.9127 65.8429 -6.8571 0.0000 0.0000 0.0000
# 3 10.5622 -6.8571 28.5487 0.0000 0.0000 0.0000
# 4 0.0000 0.0000 0.0000 15.1911 0.0000 0.0000
# 5 0.0000 0.0000 0.0000 0.0000 -14.6310 0.0000
# 6 0.0000 0.0000 0.0000 0.0000 0.0000 36.1668
#
#
#
# Elastic Compliance Matrix: (Units=1/GPa)
#
#
# Indices 1 2 3 4 5 6 
#
# 1 0.010149 -0.002917 -0.004455 0.000000 0.000000 0.000000
# 2 -0.002917 0.016416 0.005022 0.000000 0.000000 0.000000
# 3 -0.004455 0.005022 0.037882 0.000000 0.000000 0.000000
# 4 0.000000 0.000000 0.000000 0.065828 0.000000 0.000000
# 5 0.000000 0.000000 0.000000 0.000000 -0.068348 0.000000
# 6 0.000000 0.000000 0.000000 0.000000 0.000000 0.027650
#
#
# Mechanical properties :
#
#
# Convention : Reuss Voigt Hill
#
# Bulk Modulus (GPa) = 16.73737 26.81894 21.77815
# Shear Modulus (GPa) = 43.78575 19.51317 31.64946
#
# Velocity S-wave (km/s) = 4.67986 3.12414 3.97877
# Velocity P-wave (km/s) = 6.12970 5.14083 5.65691
#
# Compressibility (1/GPa) = 0.05974654
#
# Stress axis : x y z
#
# Youngs Moduli (GPa) = 98.53294 60.91774 26.39746
#
# Poissons Ratio (x) = 0.17768 0.11761
# Poissons Ratio (y) = 0.28740 -0.13257
# Poissons Ratio (z) = 0.43900 -0.30593
#
# Static dielectric constant tensor:
#      x y z
#    x 1.693470 0.000000 0.000000 
#    y 0.000000 1.683440 0.000000 
#    z 0.000000 0.000000 1.709460 
# 
# From -- ./inp_files/42154.got.cif
#   From: 2010.05.17/outbox.cif.g08.bks.cpg/sg63_22_cif.got.tgz:42154.got - 2010.06.03 15:47:04.
