data_PCOD9475650
_publ_section_title
;
Structure prediction by ZEFSAII (Michael W. Deem and Ramdas Pophale) SiO2 
 PCOD9475650
Probable space group: C M C M
;
_chemical_formula_sum "Si O2"
_cell_formula_units_Z 96
_cell_length_a 12.090690
_cell_length_b 15.258797
_cell_length_c 28.810058
_cell_angle_alpha 90.000000
_cell_angle_beta 90.000000
_cell_angle_gamma 90.000000
_cell_volume 5315.149862
_symmetry_space_group_name_H-M "C M C M"
_symmetry_group_IT_number 63
_symmetry_cell_setting 'orthorhombic'
loop_
_space_group_symop_operation_xyz
x,y,z
-x,-y,1/2+z
x,-y,-z
-x,y,1/2-z
-x,-y,-z
x,y,1/2-z
-x,y,z
x,-y,1/2+z
1/2+x,1/2+y,z
1/2-x,1/2-y,1/2+z
1/2+x,1/2-y,-z
1/2-x,1/2+y,1/2-z
1/2-x,1/2-y,-z
1/2+x,1/2+y,1/2-z
1/2-x,1/2+y,z
1/2+x,1/2-y,1/2+z
loop_
_atom_site_type_symbol
_atom_site_label
_atom_site_fract_x
_atom_site_fract_y
_atom_site_fract_z
Si Si1 0.634282 0.898162 0.945566
Si Si2 0.500000 0.742182 0.802756
Si Si3 0.500000 0.466944 0.302764
Si Si4 0.132871 0.678631 0.647047
Si Si5 0.254324 0.485802 0.305888
Si Si6 0.866750 0.604144 0.548833
Si Si7 0.791681 0.669620 0.348858
O O1 0.500000 0.890088 0.941281
O O2 0.691029 0.849046 0.903250
O O3 0.661577 0.002011 0.942680
O O4 0.669915 0.868955 0.997247
O O5 0.500000 0.776659 0.750000
O O6 0.500000 0.637883 0.800235
O O7 0.607338 0.773748 0.829648
O O8 0.500000 0.503005 0.250000
O O9 0.381485 0.490061 0.323915
O O10 0.189731 0.599038 0.675172
O O11 0.165270 0.660713 0.593206
O O12 0.182766 0.772640 0.660723
O O13 0.000000 0.674994 0.651792
O O14 0.256231 0.480548 0.250000
O O15 0.202538 0.576338 0.323190
O O16 0.000000 0.605911 0.546913
#
# Coordination Sequence:
#
# PCOD9475650 Si02
#       7
#    16   8   8  16  16  16  16
#     4   9  16  31  58  87 111 147 198 242 283 340
#     4  11  22  38  58  84 115 147 201 253 278 326
#     4   9  20  42  62  77 108 154 196 236 287 341
#     4  11  24  40  58  88 123 154 190 239 295 352
#     4  11  24  41  61  84 114 155 195 237 288 344
#     4   8  16  33  55  82 117 149 188 241 290 339
#     4  12  23  36  61  90 116 153 195 240 292 344
#
# _framework density 18.061578999999998
#
# number of rings (size 3 to 8) (size 9 to 14) (size 15 to 20)
#    0.000    1.833    4.167    1.500    2.333    1.667 
#    0.000    0.000    0.000    0.000    0.000    2.333 
#    0.000    0.000    0.000    0.000    0.000    0.000 
#
# Total GULP energy -267591.811291 kJ/mol
# GULP energy per Si atom -5574.829402 kJ/mol
# Density = 1.802047 g / cm^3
# Si number density = 18.061579 Si / 1000 Ang^3
#
#
#
# Elastic Constant Matrix: (Units=GPa)
#
#
# Indices 1 2 3 4 5 6 
#
# 1 51.0035 -3.2606 0.5600 0.0000 0.0000 0.0000
# 2 -3.2606 47.6083 8.2677 0.0000 0.0000 0.0000
# 3 0.5600 8.2677 75.7108 0.0000 0.0000 0.0000
# 4 0.0000 0.0000 0.0000 13.1062 0.0000 0.0000
# 5 0.0000 0.0000 0.0000 0.0000 20.3183 0.0000
# 6 0.0000 0.0000 0.0000 0.0000 0.0000 -15.2192
#
#
#
# Elastic Compliance Matrix: (Units=1/GPa)
#
#
# Indices 1 2 3 4 5 6 
#
# 1 0.019699 0.001401 -0.000299 0.000000 0.000000 0.000000
# 2 0.001401 0.021510 -0.002359 0.000000 0.000000 0.000000
# 3 -0.000299 -0.002359 0.013468 0.000000 0.000000 0.000000
# 4 0.000000 0.000000 0.000000 0.076300 0.000000 0.000000
# 5 0.000000 0.000000 0.000000 0.000000 0.049217 0.000000
# 6 0.000000 0.000000 0.000000 0.000000 0.000000 -0.065707
#
#
# Mechanical properties :
#
#
# Convention : Reuss Voigt Hill
#
# Bulk Modulus (GPa) = 19.17039 20.60632 19.88836
# Shear Modulus (GPa) = 37.20531 14.89144 26.04837
#
# Velocity S-wave (km/s) = 4.54355 2.87449 3.80175
# Velocity P-wave (km/s) = 6.17755 4.73821 5.50512
#
# Compressibility (1/GPa) = 0.05216377
#
# Stress axis : x y z
#
# Youngs Moduli (GPa) = 50.76311 46.48910 74.25002
#
# Poissons Ratio (x) = -0.06513 0.02218
# Poissons Ratio (y) = -0.07112 0.17518
# Poissons Ratio (z) = 0.01516 0.10968
#
# Static dielectric constant tensor:
#      x y z
#    x 1.612170 0.000000 0.000000 
#    y 0.000000 1.598640 0.000000 
#    z 0.000000 0.000000 1.642700 
# 
# From -- ./inp_files/72810.got.cif
#   From: 2010.05.17/outbox.cif.g08.bks.cpg/sg63_37_cif.got.tgz:72810.got - 2010.06.03 15:47:04.
