data_PCOD9475390
_publ_section_title
;
Structure prediction by ZEFSAII (Michael W. Deem and Ramdas Pophale) SiO2 
 PCOD9475390
Probable space group: C M C M
;
_chemical_formula_sum "Si O2"
_cell_formula_units_Z 64
_cell_length_a 10.561276
_cell_length_b 19.021590
_cell_length_c 17.893609
_cell_angle_alpha 90.000000
_cell_angle_beta 90.000000
_cell_angle_gamma 90.000000
_cell_volume 3594.687586
_symmetry_space_group_name_H-M "C M C M"
_symmetry_group_IT_number 63
_symmetry_cell_setting 'orthorhombic'
loop_
_space_group_symop_operation_xyz
x,y,z
-x,-y,1/2+z
x,-y,-z
-x,y,1/2-z
-x,-y,-z
x,y,1/2-z
-x,y,z
x,-y,1/2+z
1/2+x,1/2+y,z
1/2-x,1/2-y,1/2+z
1/2+x,1/2-y,-z
1/2-x,1/2+y,1/2-z
1/2-x,1/2-y,-z
1/2+x,1/2+y,1/2-z
1/2-x,1/2+y,z
1/2+x,1/2-y,1/2+z
loop_
_atom_site_type_symbol
_atom_site_label
_atom_site_fract_x
_atom_site_fract_y
_atom_site_fract_z
Si Si1 0.644724 0.215704 0.750000
Si Si2 0.212160 0.348944 0.750000
Si Si3 0.500000 0.812097 0.868571
Si Si4 0.352748 0.001699 0.250000
Si Si5 0.500000 0.914360 0.488370
Si Si6 0.000000 0.145885 0.656180
Si Si7 0.777504 0.390310 0.127253
O O1 0.500000 0.195689 0.750000
O O2 0.669714 0.297779 0.750000
O O3 0.701909 0.180079 0.676428
O O4 0.124106 0.330879 0.679417
O O5 0.236027 0.431044 0.750000
O O6 0.500000 0.726927 0.872897
O O7 0.500000 0.864078 0.939192
O O8 0.500000 0.024400 0.250000
O O9 0.325853 0.953860 0.178910
O O10 0.628257 0.893818 0.442810
O O11 0.500000 0.000000 0.500000
O O12 0.874495 0.108212 0.623815
O O13 0.000000 0.145881 0.750000
#
# Coordination Sequence:
#
# PCOD9475390 Si02
#       7
#     8   8   8   8   8   8  16
#     4  11  19  37  64  89 122 155 202 266 290 357
#     4  11  20  37  59  91 120 149 204 262 304 356
#     4  11  20  36  64  82 117 157 200 247 315 359
#     4  11  18  32  63  88 117 157 202 258 296 357
#     4  12  25  40  61  90 123 162 206 259 302 367
#     4  12  20  40  65  91 120 161 203 257 306 367
#     4  11  21  38  62  90 121 159 210 246 303 361
#
# _framework density 17.80405
#
# number of rings (size 3 to 8) (size 9 to 14) (size 15 to 20)
#    0.000    0.750   10.000    2.250    0.000    1.000 
#    2.250    0.625    0.000    0.000    0.000    0.000 
#    0.000    0.000    0.000    0.000    0.000    0.000 
#
# Total GULP energy -178340.575697 kJ/mol
# GULP energy per Si atom -5573.142991 kJ/mol
# Density = 1.776353 g / cm^3
# Si number density = 17.804050 Si / 1000 Ang^3
#
#
#
# Elastic Constant Matrix: (Units=GPa)
#
#
# Indices 1 2 3 4 5 6 
#
# 1 118.4256 1.4405 38.5084 0.0000 0.0000 0.0000
# 2 1.4405 86.3247 22.6485 0.0000 0.0000 0.0000
# 3 38.5084 22.6485 85.1649 0.0000 0.0000 0.0000
# 4 0.0000 0.0000 0.0000 -6.1403 0.0000 0.0000
# 5 0.0000 0.0000 0.0000 0.0000 -32.7514 0.0000
# 6 0.0000 0.0000 0.0000 0.0000 0.0000 30.1204
#
#
#
# Elastic Compliance Matrix: (Units=1/GPa)
#
#
# Indices 1 2 3 4 5 6 
#
# 1 0.009995 0.001095 -0.004811 0.000000 0.000000 0.000000
# 2 0.001095 0.012573 -0.003839 0.000000 0.000000 0.000000
# 3 -0.004811 -0.003839 0.014938 0.000000 0.000000 0.000000
# 4 0.000000 0.000000 0.000000 -0.162857 0.000000 0.000000
# 5 0.000000 0.000000 0.000000 0.000000 -0.030533 0.000000
# 6 0.000000 0.000000 0.000000 0.000000 0.000000 0.033200
#
#
# Mechanical properties :
#
#
# Convention : Reuss Voigt Hill
#
# Bulk Modulus (GPa) = 44.64745 46.12334 45.38540
# Shear Modulus (GPa) = -49.94523 13.40027 -18.27248
#
# Velocity S-wave (km/s) = -5.30223 2.74643 -3.20708
# Velocity P-wave (km/s) = 3.51472 6.00162 3.43993
#
# Compressibility (1/GPa) = 0.02239770
#
# Stress axis : x y z
#
# Youngs Moduli (GPa) = 100.04907 79.53498 66.94309
#
# Poissons Ratio (x) = -0.08712 0.32204
# Poissons Ratio (y) = -0.10959 0.25699
# Poissons Ratio (z) = 0.48131 0.30533
#
# Static dielectric constant tensor:
#      x y z
#    x 1.617700 0.000000 0.000000 
#    y 0.000000 1.616900 0.000000 
#    z 0.000000 0.000000 1.532520 
# 
# From -- ./inp_files/41813.got.cif
#   From: 2010.05.17/outbox.cif.g08.bks.cpg/sg63_21_cif.got.tgz:41813.got - 2010.06.03 15:47:04.
