data_PCOD9475226
_publ_section_title
;
Structure prediction by ZEFSAII (Michael W. Deem and Ramdas Pophale) SiO2 
 PCOD9475226
Probable space group: C M C M
;
_chemical_formula_sum "Si O2"
_cell_formula_units_Z 56
_cell_length_a 8.672991
_cell_length_b 22.750675
_cell_length_c 14.791797
_cell_angle_alpha 90.000000
_cell_angle_beta 90.000000
_cell_angle_gamma 90.000000
_cell_volume 2918.664126
_symmetry_space_group_name_H-M "C M C M"
_symmetry_group_IT_number 63
_symmetry_cell_setting 'orthorhombic'
loop_
_space_group_symop_operation_xyz
x,y,z
-x,-y,1/2+z
x,-y,-z
-x,y,1/2-z
-x,-y,-z
x,y,1/2-z
-x,y,z
x,-y,1/2+z
1/2+x,1/2+y,z
1/2-x,1/2-y,1/2+z
1/2+x,1/2-y,-z
1/2-x,1/2+y,1/2-z
1/2-x,1/2-y,-z
1/2+x,1/2+y,1/2-z
1/2-x,1/2+y,z
1/2+x,1/2-y,1/2+z
loop_
_atom_site_type_symbol
_atom_site_label
_atom_site_fract_x
_atom_site_fract_y
_atom_site_fract_z
Si Si1 0.751005 0.642732 0.851735
Si Si2 0.829605 0.011166 0.892297
Si Si3 0.500000 0.951855 0.849828
Si Si4 0.000000 0.244137 0.849737
Si Si5 0.000000 0.347872 0.506640
O O1 0.819823 0.640876 0.750000
O O2 0.670770 0.579823 0.866678
O O3 0.642084 0.699297 0.854113
O O4 0.859499 0.649700 0.937526
O O5 0.663148 0.987026 0.857880
O O6 0.000000 0.987121 0.861890
O O7 0.825162 0.000000 0.000000
O O8 0.500000 0.924698 0.750000
O O9 0.500000 0.904430 0.929116
O O10 0.000000 0.272782 0.750000
O O11 0.000000 0.291274 0.929085
#
# Coordination Sequence:
#
# PCOD9475226 Si02
#       5
#    16  16   8   8   8
#     4  11  22  39  65  92 121 164 217 262 312 377
#     4  11  22  41  66  95 131 169 214 267 323 382
#     4  12  25  39  63  96 132 174 209 256 330 392
#     4  10  23  42  65  91 120 167 214 258 321 378
#     4  12  23  42  60  92 132 164 205 266 316 381
#
# _framework density 19.186858999999998
#
# number of rings (size 3 to 8) (size 9 to 14) (size 15 to 20)
#    0.000    0.857    4.286    3.857    0.000    1.714 
#    0.000    0.000    0.000    0.000    0.000    0.000 
#    0.000    0.000    0.000    0.000    0.000    0.000 
#
# Total GULP energy -156050.876320 kJ/mol
# GULP energy per Si atom -5573.245583 kJ/mol
# Density = 1.914319 g / cm^3
# Si number density = 19.186859 Si / 1000 Ang^3
#
#
#
# Elastic Constant Matrix: (Units=GPa)
#
#
# Indices 1 2 3 4 5 6 
#
# 1 153.8649 49.5391 66.8503 0.0000 0.0000 0.0000
# 2 49.5391 102.3985 60.1285 0.0000 0.0000 0.0000
# 3 66.8503 60.1285 179.3695 0.0000 0.0000 0.0000
# 4 0.0000 0.0000 0.0000 -79.5056 0.0000 0.0000
# 5 0.0000 0.0000 0.0000 0.0000 -59.2985 0.0000
# 6 0.0000 0.0000 0.0000 0.0000 0.0000 19.1457
#
#
#
# Elastic Compliance Matrix: (Units=1/GPa)
#
#
# Indices 1 2 3 4 5 6 
#
# 1 0.008333 -0.002749 -0.002184 0.000000 0.000000 0.000000
# 2 -0.002749 0.013066 -0.003355 0.000000 0.000000 0.000000
# 3 -0.002184 -0.003355 0.007514 0.000000 0.000000 0.000000
# 4 0.000000 0.000000 0.000000 -0.012578 0.000000 0.000000
# 5 0.000000 0.000000 0.000000 0.000000 -0.016864 0.000000
# 6 0.000000 0.000000 0.000000 0.000000 0.000000 0.052231
#
#
# Mechanical properties :
#
#
# Convention : Reuss Voigt Hill
#
# Bulk Modulus (GPa) = 81.06432 87.62984 84.34708
# Shear Modulus (GPa) = 69.06831 -6.65735 31.20548
#
# Velocity S-wave (km/s) = 6.00632 -1.86475 4.03724
# Velocity P-wave (km/s) = 9.51014 6.41362 8.11102
#
# Compressibility (1/GPa) = 0.01233588
#
# Stress axis : x y z
#
# Youngs Moduli (GPa) = 120.00080 76.53447 133.08505
#
# Poissons Ratio (x) = 0.21039 0.29070
# Poissons Ratio (y) = 0.32987 0.44657
# Poissons Ratio (z) = 0.26212 0.25681
#
# Static dielectric constant tensor:
#      x y z
#    x 1.760950 0.000000 0.000000 
#    y 0.000000 1.617090 0.000000 
#    z 0.000000 0.000000 1.653730 
# 
# From -- ./inp_files/27276.got.cif
#   From: 2010.05.17/outbox.cif.g08.bks.cpg/sg63_14_cif.got.tgz:27276.got - 2010.06.03 15:47:04.
