data_PCOD9475642
_publ_section_title
;
Structure prediction by ZEFSAII (Michael W. Deem and Ramdas Pophale) SiO2 
 PCOD9475642
Probable space group: C M C M
;
_chemical_formula_sum "Si O2"
_cell_formula_units_Z 88
_cell_length_a 22.427951
_cell_length_b 23.490176
_cell_length_c 8.644980
_cell_angle_alpha 90.000000
_cell_angle_beta 90.000000
_cell_angle_gamma 90.000000
_cell_volume 4554.491147
_symmetry_space_group_name_H-M "C M C M"
_symmetry_group_IT_number 63
_symmetry_cell_setting 'orthorhombic'
loop_
_space_group_symop_operation_xyz
x,y,z
-x,-y,1/2+z
x,-y,-z
-x,y,1/2-z
-x,-y,-z
x,y,1/2-z
-x,y,z
x,-y,1/2+z
1/2+x,1/2+y,z
1/2-x,1/2-y,1/2+z
1/2+x,1/2-y,-z
1/2-x,1/2+y,1/2-z
1/2-x,1/2-y,-z
1/2+x,1/2+y,1/2-z
1/2-x,1/2+y,z
1/2+x,1/2-y,1/2+z
loop_
_atom_site_type_symbol
_atom_site_label
_atom_site_fract_x
_atom_site_fract_y
_atom_site_fract_z
Si Si1 0.000000 0.934963 0.564822
Si Si2 0.621190 0.379861 0.434156
Si Si3 0.338100 0.150800 0.065426
Si Si4 0.066954 0.557290 0.065703
Si Si5 0.184736 0.766993 0.567662
Si Si6 0.755932 0.937947 0.434054
O O1 0.940388 0.901425 0.509239
O O2 0.000000 0.937867 0.750000
O O3 0.000000 0.000000 0.500000
O O4 0.612251 0.374798 0.250000
O O5 0.649843 0.320484 0.494957
O O6 0.674198 0.425360 0.462031
O O7 0.333629 0.161347 0.250000
O O8 0.393703 0.110868 0.030276
O O9 0.348274 0.208729 0.974133
O O10 0.281194 0.113451 0.011834
O O11 0.064359 0.551862 0.250000
O O12 0.000000 0.562319 0.003264
O O13 0.094783 0.500000 0.000000
O O14 0.190606 0.776470 0.750000
O O15 0.250000 0.750000 0.500000
O O16 0.745029 0.936340 0.250000
O O17 0.740379 0.000000 0.500000
#
# Coordination Sequence:
#
# PCOD9475642 Si02
#       6
#     8  16  16  16  16  16
#     4  12  26  46  72 102 136 176 223 276 331 394
#     4  11  24  44  68  95 128 170 217 266 326 388
#     4  11  22  37  60  87 121 161 207 258 313 376
#     4   9  19  36  57  83 116 156 199 245 299 360
#     4  12  24  41  65  92 126 164 208 259 316 381
#     4  11  23  37  59  90 125 160 203 256 316 380
#
# _framework density 19.321587000000001
#
# number of rings (size 3 to 8) (size 9 to 14) (size 15 to 20)
#    0.000    1.091    1.818    5.182    0.000    6.545 
#    1.636    0.000    0.000    0.000    0.000    0.000 
#    0.000    0.000    0.000    0.000    0.000    0.000 
#
# Total GULP energy -245762.105950 kJ/mol
# GULP energy per Si atom -5585.502408 kJ/mol
# Density = 1.927761 g / cm^3
# Si number density = 19.321587 Si / 1000 Ang^3
#
#
#
# Elastic Constant Matrix: (Units=GPa)
#
#
# Indices 1 2 3 4 5 6 
#
# 1 111.2443 55.6536 57.7424 0.0000 0.0000 0.0000
# 2 55.6536 135.8713 46.6112 0.0000 0.0000 0.0000
# 3 57.7424 46.6112 83.2596 0.0000 0.0000 0.0000
# 4 0.0000 0.0000 0.0000 35.4170 0.0000 0.0000
# 5 0.0000 0.0000 0.0000 0.0000 30.9843 0.0000
# 6 0.0000 0.0000 0.0000 0.0000 0.0000 11.1354
#
#
#
# Elastic Compliance Matrix: (Units=1/GPa)
#
#
# Indices 1 2 3 4 5 6 
#
# 1 0.015096 -0.003208 -0.008674 0.000000 0.000000 0.000000
# 2 -0.003208 0.009791 -0.003257 0.000000 0.000000 0.000000
# 3 -0.008674 -0.003257 0.019849 0.000000 0.000000 0.000000
# 4 0.000000 0.000000 0.000000 0.028235 0.000000 0.000000
# 5 0.000000 0.000000 0.000000 0.000000 0.032274 0.000000
# 6 0.000000 0.000000 0.000000 0.000000 0.000000 0.089804
#
#
# Mechanical properties :
#
#
# Convention : Reuss Voigt Hill
#
# Bulk Modulus (GPa) = 69.15585 72.26551 70.71068
# Shear Modulus (GPa) = 21.72530 26.86519 24.29525
#
# Velocity S-wave (km/s) = 3.35685 3.73288 3.54985
# Velocity P-wave (km/s) = 7.13403 7.48745 7.31287
#
# Compressibility (1/GPa) = 0.01446009
#
# Stress axis : x y z
#
# Youngs Moduli (GPa) = 66.24142 102.13385 50.38000
#
# Poissons Ratio (x) = 0.32764 0.43698
# Poissons Ratio (y) = 0.21250 0.16406
# Poissons Ratio (z) = 0.57456 0.33260
#
# Static dielectric constant tensor:
#      x y z
#    x 1.731840 0.000000 0.000000 
#    y 0.000000 1.678040 0.000000 
#    z 0.000000 0.000000 1.667380 
# 
# From -- ./inp_files/8195.got.cif
#   From: 2010.05.17/outbox.cif.g08.bks.cpg/sg63_5_cif.got.tgz:8195.got - 2010.06.03 15:47:04.
