data_PCOD9475494
_publ_section_title
;
Structure prediction by ZEFSAII (Michael W. Deem and Ramdas Pophale) SiO2 
 PCOD9475494
Probable space group: C M C M
;
_chemical_formula_sum "Si O2"
_cell_formula_units_Z 80
_cell_length_a 28.786307
_cell_length_b 13.610653
_cell_length_c 9.173007
_cell_angle_alpha 90.000000
_cell_angle_beta 90.000000
_cell_angle_gamma 90.000000
_cell_volume 3593.988140
_symmetry_space_group_name_H-M "C M C M"
_symmetry_group_IT_number 63
_symmetry_cell_setting 'orthorhombic'
loop_
_space_group_symop_operation_xyz
x,y,z
-x,-y,1/2+z
x,-y,-z
-x,y,1/2-z
-x,-y,-z
x,y,1/2-z
-x,y,z
x,-y,1/2+z
1/2+x,1/2+y,z
1/2-x,1/2-y,1/2+z
1/2+x,1/2-y,-z
1/2-x,1/2+y,1/2-z
1/2-x,1/2-y,-z
1/2+x,1/2+y,1/2-z
1/2-x,1/2+y,z
1/2+x,1/2-y,1/2+z
loop_
_atom_site_type_symbol
_atom_site_label
_atom_site_fract_x
_atom_site_fract_y
_atom_site_fract_z
Si Si1 0.158391 0.623785 0.410419
Si Si2 0.850811 0.861412 0.085774
Si Si3 0.448855 0.305814 0.074021
Si Si4 0.429746 0.901876 0.078995
Si Si5 0.238500 0.851205 0.918302
O O1 0.140269 0.591338 0.250000
O O2 0.155783 0.742746 0.405560
O O3 0.125573 0.596749 0.544045
O O4 0.212006 0.594193 0.423710
O O5 0.847325 0.901264 0.250000
O O6 0.903730 0.869486 0.029251
O O7 0.807580 0.894901 0.989771
O O8 0.444713 0.292486 0.250000
O O9 0.500000 0.347828 0.043316
O O10 0.446089 0.198881 0.997810
O O11 0.439661 0.900893 0.250000
O O12 0.447909 0.000000 0.000000
O O13 0.228564 0.830373 0.750000
O O14 0.250000 0.750000 0.000000
#
# Coordination Sequence:
#
# PCOD9475494 Si02
#       5
#    16  16  16  16  16
#     4   8  15  27  39  53  73  94 117 145 179 219
#     4   8  14  24  38  55  73  92 115 145 180 219
#     4   9  18  32  45  55  71  96 126 161 197 227
#     4  11  21  31  43  56  71  93 123 160 198 231
#     4   9  15  22  35  54  75  95 112 137 174 216
#
# _framework density 22.259394
#
# number of rings (size 3 to 8) (size 9 to 14) (size 15 to 20)
#    0.000    3.000    0.000    4.800    0.000    8.800 
#    0.000    0.000    0.000    0.000    0.000    0.000 
#    0.000    0.000    0.000    0.000    0.000    1.000 
#
# Total GULP energy -223001.726417 kJ/mol
# GULP energy per Si atom -5575.043160 kJ/mol
# Density = 2.220873 g / cm^3
# Si number density = 22.259394 Si / 1000 Ang^3
#
#
#
# Elastic Constant Matrix: (Units=GPa)
#
#
# Indices 1 2 3 4 5 6 
#
# 1 203.8715 -7.4584 47.3522 0.0000 0.0000 0.0000
# 2 -7.4584 44.8829 21.7565 0.0000 0.0000 0.0000
# 3 47.3522 21.7565 93.2339 0.0000 0.0000 0.0000
# 4 0.0000 0.0000 0.0000 9.9525 0.0000 0.0000
# 5 0.0000 0.0000 0.0000 0.0000 21.0673 0.0000
# 6 0.0000 0.0000 0.0000 0.0000 0.0000 -13.9498
#
#
#
# Elastic Compliance Matrix: (Units=1/GPa)
#
#
# Indices 1 2 3 4 5 6 
#
# 1 0.005841 0.002716 -0.003600 0.000000 0.000000 0.000000
# 2 0.002716 0.026385 -0.007536 0.000000 0.000000 0.000000
# 3 -0.003600 -0.007536 0.014313 0.000000 0.000000 0.000000
# 4 0.000000 0.000000 0.000000 0.100478 0.000000 0.000000
# 5 0.000000 0.000000 0.000000 0.000000 0.047467 0.000000
# 6 0.000000 0.000000 0.000000 0.000000 0.000000 -0.071686
#
#
# Mechanical properties :
#
#
# Convention : Reuss Voigt Hill
#
# Bulk Modulus (GPa) = 33.67385 51.69878 42.68631
# Shear Modulus (GPa) = 33.43658 22.10319 27.76988
#
# Velocity S-wave (km/s) = 3.87994 3.15458 3.53591
# Velocity P-wave (km/s) = 5.93571 6.04521 5.99071
#
# Compressibility (1/GPa) = 0.02969664
#
# Stress axis : x y z
#
# Youngs Moduli (GPa) = 171.21640 37.90101 69.86789
#
# Poissons Ratio (x) = -0.10293 0.25153
# Poissons Ratio (y) = -0.46496 0.52654
# Poissons Ratio (z) = 0.61639 0.28563
#
# Static dielectric constant tensor:
#      x y z
#    x 1.919820 0.000000 0.000000 
#    y 0.000000 1.859180 0.000000 
#    z 0.000000 0.000000 1.774290 
# 
# From -- ./inp_files/8887.got.cif
#   From: 2010.05.17/outbox.cif.g08.bks.cpg/sg63_5_cif.got.tgz:8887.got - 2010.06.03 15:47:04.
