data_PCOD9475107
_publ_section_title
;
Structure prediction by ZEFSAII (Michael W. Deem and Ramdas Pophale) SiO2 
 PCOD9475107
Probable space group: C M C M
;
_chemical_formula_sum "Si O2"
_cell_formula_units_Z 96
_cell_length_a 16.002072
_cell_length_b 28.444549
_cell_length_c 10.720331
_cell_angle_alpha 90.000000
_cell_angle_beta 90.000000
_cell_angle_gamma 90.000000
_cell_volume 4879.591512
_symmetry_space_group_name_H-M "C M C M"
_symmetry_group_IT_number 63
_symmetry_cell_setting 'orthorhombic'
loop_
_space_group_symop_operation_xyz
x,y,z
-x,-y,1/2+z
x,-y,-z
-x,y,1/2-z
-x,-y,-z
x,y,1/2-z
-x,y,z
x,-y,1/2+z
1/2+x,1/2+y,z
1/2-x,1/2-y,1/2+z
1/2+x,1/2-y,-z
1/2-x,1/2+y,1/2-z
1/2-x,1/2-y,-z
1/2+x,1/2+y,1/2-z
1/2-x,1/2+y,z
1/2+x,1/2-y,1/2+z
loop_
_atom_site_type_symbol
_atom_site_label
_atom_site_fract_x
_atom_site_fract_y
_atom_site_fract_z
Si Si1 0.830012 0.702029 0.394434
Si Si2 0.401287 0.813203 0.250000
Si Si3 0.597884 0.118876 0.520279
Si Si4 0.901949 0.790474 0.750000
Si Si5 0.347089 0.302917 0.015935
Si Si6 0.238814 0.544315 0.905661
Si Si7 0.593276 0.600312 0.894001
O O1 0.803920 0.707780 0.250000
O O2 0.881266 0.653542 0.405400
O O3 0.751726 0.697648 0.489042
O O4 0.873580 0.751058 0.436709
O O5 0.500000 0.805725 0.250000
O O6 0.384958 0.844672 0.131855
O O7 0.361631 0.761906 0.250000
O O8 0.500000 0.105075 0.520081
O O9 0.661019 0.076703 0.549447
O O10 0.879975 0.814377 0.878281
O O11 0.000000 0.785867 0.750000
O O12 0.379924 0.345040 0.099207
O O13 0.234496 0.537305 0.750000
O O14 0.326254 0.570828 0.937825
O O15 0.236042 0.500000 0.000000
O O16 0.585694 0.587093 0.750000
O O17 0.500000 0.593853 0.951297
#
# Coordination Sequence:
#
# PCOD9475107 Si02
#       7
#    16   8  16   8  16  16  16
#     4  11  23  36  56  90 132 172 213 259 306 362
#     4   9  18  34  58  85 117 161 215 250 285 357
#     4  11  22  40  66  91 121 167 213 254 307 373
#     4  11  20  32  54  87 125 167 213 256 299 353
#     4  11  21  36  58  89 128 171 214 256 301 364
#     4  11  25  46  71  97 126 161 208 268 329 389
#     4  10  22  42  68  95 125 164 208 254 311 380
#
# _framework density 19.673779
#
# number of rings (size 3 to 8) (size 9 to 14) (size 15 to 20)
#    0.000    1.333    5.000    1.000    0.000    2.333 
#    1.500    0.000    0.000    0.000    0.000    0.000 
#    0.000    0.000    0.000    0.000    0.000    0.000 
#
# Total GULP energy -267207.781907 kJ/mol
# GULP energy per Si atom -5566.828790 kJ/mol
# Density = 1.962900 g / cm^3
# Si number density = 19.673779 Si / 1000 Ang^3
#
#
#
# Elastic Constant Matrix: (Units=GPa)
#
#
# Indices 1 2 3 4 5 6 
#
# 1 130.9219 56.5419 36.0585 0.0000 0.0000 0.0000
# 2 56.5419 80.8876 33.0969 0.0000 0.0000 0.0000
# 3 36.0585 33.0969 63.1497 0.0000 0.0000 0.0000
# 4 0.0000 0.0000 0.0000 30.5014 0.0000 0.0000
# 5 0.0000 0.0000 0.0000 0.0000 14.3191 0.0000
# 6 0.0000 0.0000 0.0000 0.0000 0.0000 17.8741
#
#
#
# Elastic Compliance Matrix: (Units=1/GPa)
#
#
# Indices 1 2 3 4 5 6 
#
# 1 0.011360 -0.006730 -0.002959 0.000000 0.000000 0.000000
# 2 -0.006730 0.019725 -0.006495 0.000000 0.000000 0.000000
# 3 -0.002959 -0.006495 0.020929 0.000000 0.000000 0.000000
# 4 0.000000 0.000000 0.000000 0.032785 0.000000 0.000000
# 5 0.000000 0.000000 0.000000 0.000000 0.069837 0.000000
# 6 0.000000 0.000000 0.000000 0.000000 0.000000 0.055947
#
#
# Mechanical properties :
#
#
# Convention : Reuss Voigt Hill
#
# Bulk Modulus (GPa) = 50.90264 58.48374 54.69319
# Shear Modulus (GPa) = 20.04019 22.48972 21.26496
#
# Velocity S-wave (km/s) = 3.19505 3.38469 3.29124
# Velocity P-wave (km/s) = 6.28814 6.71313 6.50411
#
# Compressibility (1/GPa) = 0.01964535
#
# Stress axis : x y z
#
# Youngs Moduli (GPa) = 88.03154 50.69810 47.78010
#
# Poissons Ratio (x) = 0.34118 0.14139
# Poissons Ratio (y) = 0.59242 0.31033
# Poissons Ratio (z) = 0.26051 0.32929
#
# Static dielectric constant tensor:
#      x y z
#    x 1.748800 0.000000 0.000000 
#    y 0.000000 1.693390 0.000000 
#    z 0.000000 0.000000 1.716300 
# 
# From -- ./inp_files/21374.got.cif
#   From: 2010.05.17/outbox.cif.g08.bks.cpg/sg63_11_cif.got.tgz:21374.got - 2010.06.03 15:47:04.
