data_PCOD9475051
_publ_section_title
;
Structure prediction by ZEFSAII (Michael W. Deem and Ramdas Pophale) SiO2 
 PCOD9475051
Probable space group: C M C M
;
_chemical_formula_sum "Si O2"
_cell_formula_units_Z 64
_cell_length_a 15.015427
_cell_length_b 27.574432
_cell_length_c 7.635611
_cell_angle_alpha 90.000000
_cell_angle_beta 90.000000
_cell_angle_gamma 90.000000
_cell_volume 3161.462663
_symmetry_space_group_name_H-M "C M C M"
_symmetry_group_IT_number 63
_symmetry_cell_setting 'orthorhombic'
loop_
_space_group_symop_operation_xyz
x,y,z
-x,-y,1/2+z
x,-y,-z
-x,y,1/2-z
-x,-y,-z
x,y,1/2-z
-x,y,z
x,-y,1/2+z
1/2+x,1/2+y,z
1/2-x,1/2-y,1/2+z
1/2+x,1/2-y,-z
1/2-x,1/2+y,1/2-z
1/2-x,1/2-y,-z
1/2+x,1/2+y,1/2-z
1/2-x,1/2+y,z
1/2+x,1/2-y,1/2+z
loop_
_atom_site_type_symbol
_atom_site_label
_atom_site_fract_x
_atom_site_fract_y
_atom_site_fract_z
Si Si1 0.608080 0.583995 0.750000
Si Si2 0.095478 0.810468 0.250000
Si Si3 0.100843 0.370048 0.538365
Si Si4 0.243451 0.054478 0.459054
Si Si5 0.647937 0.240465 0.949851
O O1 0.500000 0.574630 0.750000
O O2 0.649027 0.639907 0.750000
O O3 0.655275 0.562448 0.576392
O O4 0.101297 0.776197 0.416190
O O5 0.000000 0.833700 0.250000
O O6 0.100396 0.368421 0.750000
O O7 0.178515 0.407567 0.489091
O O8 0.122770 0.315490 0.476512
O O9 0.000000 0.382896 0.480908
O O10 0.226809 0.059868 0.250000
O O11 0.275124 0.000000 0.500000
O O12 0.631451 0.253887 0.750000
O O13 0.750000 0.250000 0.000000
#
# Coordination Sequence:
#
# PCOD9475051 Si02
#       5
#     8   8  16  16  16
#     4  11  26  46  70  97 129 169 217 280 342 401
#     4  11  24  42  61  91 133 163 208 270 319 385
#     4  10  22  41  66  99 140 180 225 274 324 390
#     4  11  24  45  70  98 131 170 218 276 339 402
#     4  12  23  38  63  94 130 181 224 267 317 376
#
# _framework density 20.243794999999999
#
# number of rings (size 3 to 8) (size 9 to 14) (size 15 to 20)
#    0.000    1.000    3.750    2.250    1.750    6.500 
#    0.000    2.500    0.000    0.000    0.000    0.000 
#    0.000    0.000    0.000    0.000    0.000    0.000 
#
# Total GULP energy -178477.831321 kJ/mol
# GULP energy per Si atom -5577.432229 kJ/mol
# Density = 2.019772 g / cm^3
# Si number density = 20.243795 Si / 1000 Ang^3
#
#
#
# Elastic Constant Matrix: (Units=GPa)
#
#
# Indices 1 2 3 4 5 6 
#
# 1 128.0773 17.4190 37.4533 0.0000 0.0000 0.0000
# 2 17.4190 96.9946 30.0367 0.0000 0.0000 0.0000
# 3 37.4533 30.0367 125.6835 0.0000 0.0000 0.0000
# 4 0.0000 0.0000 0.0000 18.1628 0.0000 0.0000
# 5 0.0000 0.0000 0.0000 0.0000 119.9258 0.0000
# 6 0.0000 0.0000 0.0000 0.0000 0.0000 7.2084
#
#
#
# Elastic Compliance Matrix: (Units=1/GPa)
#
#
# Indices 1 2 3 4 5 6 
#
# 1 0.008612 -0.000812 -0.002372 0.000000 0.000000 0.000000
# 2 -0.000812 0.011210 -0.002437 0.000000 0.000000 0.000000
# 3 -0.002372 -0.002437 0.009246 0.000000 0.000000 0.000000
# 4 0.000000 0.000000 0.000000 0.055058 0.000000 0.000000
# 5 0.000000 0.000000 0.000000 0.000000 0.008338 0.000000
# 6 0.000000 0.000000 0.000000 0.000000 0.000000 0.138728
#
#
# Mechanical properties :
#
#
# Convention : Reuss Voigt Hill
#
# Bulk Modulus (GPa) = 56.09978 57.84147 56.97063
# Shear Modulus (GPa) = 20.13073 46.78250 33.45662
#
# Velocity S-wave (km/s) = 3.15686 4.81245 4.06973
# Velocity P-wave (km/s) = 6.40780 7.71454 7.09133
#
# Compressibility (1/GPa) = 0.01782538
#
# Stress axis : x y z
#
# Youngs Moduli (GPa) = 116.11795 89.20290 108.15636
#
# Poissons Ratio (x) = 0.07243 0.25658
# Poissons Ratio (y) = 0.09428 0.26360
# Poissons Ratio (z) = 0.27546 0.21740
#
# Static dielectric constant tensor:
#      x y z
#    x 1.670970 0.000000 0.000000 
#    y 0.000000 1.711250 0.000000 
#    z 0.000000 0.000000 1.722280 
# 
# From -- ./inp_files/4321.got.cif
#   From: 2010.05.17/outbox.cif.g08.bks.cpg/sg63_3_cif.got.tgz:4321.got - 2010.06.03 15:47:04.
