data_PCOD9475374
_publ_section_title
;
Structure prediction by ZEFSAII (Michael W. Deem and Ramdas Pophale) SiO2 
 PCOD9475374
Probable space group: C M C M
;
_chemical_formula_sum "Si O2"
_cell_formula_units_Z 68
_cell_length_a 15.465203
_cell_length_b 20.604045
_cell_length_c 11.217156
_cell_angle_alpha 90.000000
_cell_angle_beta 90.000000
_cell_angle_gamma 90.000000
_cell_volume 3574.298958
_symmetry_space_group_name_H-M "C M C M"
_symmetry_group_IT_number 63
_symmetry_cell_setting 'orthorhombic'
loop_
_space_group_symop_operation_xyz
x,y,z
-x,-y,1/2+z
x,-y,-z
-x,y,1/2-z
-x,-y,-z
x,y,1/2-z
-x,y,z
x,-y,1/2+z
1/2+x,1/2+y,z
1/2-x,1/2-y,1/2+z
1/2+x,1/2-y,-z
1/2-x,1/2+y,1/2-z
1/2-x,1/2-y,-z
1/2+x,1/2+y,1/2-z
1/2-x,1/2+y,z
1/2+x,1/2-y,1/2+z
loop_
_atom_site_type_symbol
_atom_site_label
_atom_site_fract_x
_atom_site_fract_y
_atom_site_fract_z
Si Si1 0.666630 0.490863 0.750000
Si Si2 0.000000 0.786790 0.119155
Si Si3 0.000000 0.915476 0.250000
Si Si4 0.397569 0.103970 0.888119
Si Si5 0.397188 0.655191 0.250000
Si Si6 0.775468 0.500000 0.000000
Si Si7 0.153853 0.251186 0.452518
O O1 0.587439 0.542465 0.750000
O O2 0.625320 0.419680 0.750000
O O3 0.719980 0.496158 0.875956
O O4 0.000000 0.757954 0.250000
O O5 0.000000 0.864848 0.138844
O O6 0.084655 0.763180 0.053990
O O7 0.384679 0.082804 0.750000
O O8 0.500000 0.098263 0.914986
O O9 0.370061 0.179190 0.897081
O O10 0.338458 0.061503 0.976188
O O11 0.500000 0.664850 0.250000
O O12 0.358333 0.692657 0.138489
O O13 0.250000 0.250000 0.500000
#
# Coordination Sequence:
#
# PCOD9475374 Si02
#       7
#     8   8   4  16   8   8  16
#     4  12  28  45  72 102 144 188 241 292 353 426
#     4  10  26  44  67 104 141 186 230 288 356 421
#     4  10  28  46  72  98 148 194 224 292 368 420
#     4  11  23  46  73 102 140 187 231 291 361 418
#     4  12  24  44  69 104 134 181 240 293 344 428
#     4  12  27  47  70 106 142 186 246 289 349 430
#     4  12  25  43  71 102 142 182 235 294 353 419
#
# _framework density 19.024709999999999
#
# number of rings (size 3 to 8) (size 9 to 14) (size 15 to 20)
#    0.353    0.235    5.294    1.765    8.235    0.471 
#    2.118    0.000    0.000    0.000    0.000    0.000 
#    0.000    0.000    0.000    0.000    0.000    0.000 
#
# Total GULP energy -189836.843845 kJ/mol
# GULP energy per Si atom -5583.436584 kJ/mol
# Density = 1.898141 g / cm^3
# Si number density = 19.024710 Si / 1000 Ang^3
#
#
#
# Elastic Constant Matrix: (Units=GPa)
#
#
# Indices 1 2 3 4 5 6 
#
# 1 178.4089 40.0172 74.5631 0.0000 0.0000 0.0000
# 2 40.0172 89.3043 12.1081 0.0000 0.0000 0.0000
# 3 74.5631 12.1081 118.5695 0.0000 0.0000 0.0000
# 4 0.0000 0.0000 0.0000 38.5832 0.0000 0.0000
# 5 0.0000 0.0000 0.0000 0.0000 -339.7197 0.0000
# 6 0.0000 0.0000 0.0000 0.0000 0.0000 -2.6691
#
#
#
# Elastic Compliance Matrix: (Units=1/GPa)
#
#
# Indices 1 2 3 4 5 6 
#
# 1 0.008361 -0.003076 -0.004944 0.000000 0.000000 0.000000
# 2 -0.003076 0.012487 0.000659 0.000000 0.000000 0.000000
# 3 -0.004944 0.000659 0.011476 0.000000 0.000000 0.000000
# 4 0.000000 0.000000 0.000000 0.025918 0.000000 0.000000
# 5 0.000000 0.000000 0.000000 0.000000 -0.002944 0.000000
# 6 0.000000 0.000000 0.000000 0.000000 0.000000 -0.374659
#
#
# Mechanical properties :
#
#
# Convention : Reuss Voigt Hill
#
# Bulk Modulus (GPa) = 56.81174 71.07327 63.94250
# Shear Modulus (GPa) = -16.73520 -43.45484 -30.09502
#
# Velocity S-wave (km/s) = -2.96912 -4.78444 -3.98161
# Velocity P-wave (km/s) = 4.26294 2.63028 3.54197
#
# Compressibility (1/GPa) = 0.01760200
#
# Stress axis : x y z
#
# Youngs Moduli (GPa) = 119.59732 80.08460 87.14170
#
# Poissons Ratio (x) = 0.24637 0.43082
# Poissons Ratio (y) = 0.36793 -0.05747
# Poissons Ratio (z) = 0.59128 -0.05282
#
# Static dielectric constant tensor:
#      x y z
#    x 1.638970 0.000000 0.000000 
#    y 0.000000 1.634730 0.000000 
#    z 0.000000 0.000000 1.649050 
# 
# From -- ./inp_files/19222.got.cif
#   From: 2010.05.17/outbox.cif.g08.bks.cpg/sg63_10_cif.got.tgz:19222.got - 2010.06.03 15:47:04.
