data_PCOD9475689
_publ_section_title
;
Structure prediction by ZEFSAII (Michael W. Deem and Ramdas Pophale) SiO2 
 PCOD9475689
Probable space group: C M C M
;
_chemical_formula_sum "Si O2"
_cell_formula_units_Z 100
_cell_length_a 19.767887
_cell_length_b 14.014733
_cell_length_c 19.303644
_cell_angle_alpha 90.000000
_cell_angle_beta 90.000000
_cell_angle_gamma 90.000000
_cell_volume 5347.913545
_symmetry_space_group_name_H-M "C M C M"
_symmetry_group_IT_number 63
_symmetry_cell_setting 'orthorhombic'
loop_
_space_group_symop_operation_xyz
x,y,z
-x,-y,1/2+z
x,-y,-z
-x,y,1/2-z
-x,-y,-z
x,y,1/2-z
-x,y,z
x,-y,1/2+z
1/2+x,1/2+y,z
1/2-x,1/2-y,1/2+z
1/2+x,1/2-y,-z
1/2-x,1/2+y,1/2-z
1/2-x,1/2-y,-z
1/2+x,1/2+y,1/2-z
1/2-x,1/2+y,z
1/2+x,1/2-y,1/2+z
loop_
_atom_site_type_symbol
_atom_site_label
_atom_site_fract_x
_atom_site_fract_y
_atom_site_fract_z
Si Si1 0.424578 0.247372 0.530111
Si Si2 0.000000 0.933234 0.750000
Si Si3 0.923928 0.145671 0.886648
Si Si4 0.796806 0.764375 0.328503
Si Si5 0.792812 0.626795 0.558701
Si Si6 0.739450 0.085505 0.405298
Si Si7 0.395080 0.433636 0.620833
O O1 0.500000 0.208374 0.541747
O O2 0.419059 0.282953 0.451217
O O3 0.365827 0.173336 0.547529
O O4 0.416222 0.343243 0.575160
O O5 0.059702 0.932437 0.810460
O O6 0.867045 0.178736 0.833548
O O7 0.000000 0.147520 0.857994
O O8 0.908940 0.038019 0.911611
O O9 0.771421 0.765371 0.250000
O O10 0.746960 0.814586 0.383151
O O11 0.802590 0.657036 0.357415
O O12 0.793832 0.517558 0.583797
O O13 0.755224 0.627569 0.483823
O O14 0.813905 0.074122 0.372600
#
# Coordination Sequence:
#
# PCOD9475689 Si02
#       7
#    16   4  16  16  16  16  16
#     4  11  22  41  66  95 125 166 222 272 323 383
#     4  12  28  40  54 100 144 180 202 264 348 408
#     4  11  23  40  63  95 128 167 214 264 329 393
#     4  12  25  39  63  95 130 174 213 264 332 396
#     4  11  23  43  68  94 129 171 222 278 321 382
#     4  11  24  41  67  96 129 167 221 278 320 382
#     4  12  23  37  63  91 133 168 208 265 331 390
#
# _framework density 18.698881
#
# number of rings (size 3 to 8) (size 9 to 14) (size 15 to 20)
#    0.000    0.640    6.400    1.920    4.480    2.240 
#    0.000    2.400    0.000    0.000    0.000    0.000 
#    0.000    0.000    0.000    0.000    0.000    0.000 
#
# Total GULP energy -278825.840431 kJ/mol
# GULP energy per Si atom -5576.516809 kJ/mol
# Density = 1.865632 g / cm^3
# Si number density = 18.698881 Si / 1000 Ang^3
#
#
#
# Elastic Constant Matrix: (Units=GPa)
#
#
# Indices 1 2 3 4 5 6 
#
# 1 133.3975 45.9003 36.7402 0.0000 0.0000 0.0000
# 2 45.9003 87.2816 42.9262 0.0000 0.0000 0.0000
# 3 36.7402 42.9262 94.3035 0.0000 0.0000 0.0000
# 4 0.0000 0.0000 0.0000 4.9716 0.0000 0.0000
# 5 0.0000 0.0000 0.0000 0.0000 24.0283 0.0000
# 6 0.0000 0.0000 0.0000 0.0000 0.0000 28.1397
#
#
#
# Elastic Compliance Matrix: (Units=1/GPa)
#
#
# Indices 1 2 3 4 5 6 
#
# 1 0.009388 -0.004043 -0.001817 0.000000 0.000000 0.000000
# 2 -0.004043 0.016503 -0.005937 0.000000 0.000000 0.000000
# 3 -0.001817 -0.005937 0.014014 0.000000 0.000000 0.000000
# 4 0.000000 0.000000 0.000000 0.201141 0.000000 0.000000
# 5 0.000000 0.000000 0.000000 0.000000 0.041618 0.000000
# 6 0.000000 0.000000 0.000000 0.000000 0.000000 0.035537
#
#
# Mechanical properties :
#
#
# Convention : Reuss Voigt Hill
#
# Bulk Modulus (GPa) = 61.30773 62.90179 62.10476
# Shear Modulus (GPa) = 14.39955 24.05566 19.22760
#
# Velocity S-wave (km/s) = 2.77803 3.59064 3.21015
# Velocity P-wave (km/s) = 6.56871 7.13461 6.85750
#
# Compressibility (1/GPa) = 0.01631116
#
# Stress axis : x y z
#
# Youngs Moduli (GPa) = 106.51746 60.59348 71.35522
#
# Poissons Ratio (x) = 0.24501 0.12965
# Poissons Ratio (y) = 0.43070 0.42363
# Poissons Ratio (z) = 0.19354 0.35974
#
# Static dielectric constant tensor:
#      x y z
#    x 1.655270 0.000000 0.000000 
#    y 0.000000 1.665010 0.000000 
#    z 0.000000 0.000000 1.635610 
# 
# From -- ./inp_files/55606.got.cif
#   From: 2010.05.17/outbox.cif.g08.bks.cpg/sg63_28_cif.got.tgz:55606.got - 2010.06.03 15:47:04.
