data_PCOD9475119
_publ_section_title
;
Structure prediction by ZEFSAII (Michael W. Deem and Ramdas Pophale) SiO2 
 PCOD9475119
Probable space group: C M C M
;
_chemical_formula_sum "Si O2"
_cell_formula_units_Z 72
_cell_length_a 23.519506
_cell_length_b 7.948041
_cell_length_c 17.582080
_cell_angle_alpha 90.000000
_cell_angle_beta 90.000000
_cell_angle_gamma 90.000000
_cell_volume 3286.688507
_symmetry_space_group_name_H-M "C M C M"
_symmetry_group_IT_number 63
_symmetry_cell_setting 'orthorhombic'
loop_
_space_group_symop_operation_xyz
x,y,z
-x,-y,1/2+z
x,-y,-z
-x,y,1/2-z
-x,-y,-z
x,y,1/2-z
-x,y,z
x,-y,1/2+z
1/2+x,1/2+y,z
1/2-x,1/2-y,1/2+z
1/2+x,1/2-y,-z
1/2-x,1/2+y,1/2-z
1/2-x,1/2-y,-z
1/2+x,1/2+y,1/2-z
1/2-x,1/2+y,z
1/2+x,1/2-y,1/2+z
loop_
_atom_site_type_symbol
_atom_site_label
_atom_site_fract_x
_atom_site_fract_y
_atom_site_fract_z
Si Si1 0.829025 0.292691 0.933759
Si Si2 0.726717 0.500000 0.500000
Si Si3 0.434369 0.505367 0.665784
Si Si4 0.583821 0.101047 0.337193
Si Si5 0.434029 0.788155 0.052675
O O1 0.849770 0.374203 0.855790
O O2 0.812412 0.098622 0.940320
O O3 0.771067 0.381813 0.956923
O O4 0.882774 0.314857 0.992161
O O5 0.407272 0.485803 0.750000
O O6 0.500000 0.456343 0.673357
O O7 0.434983 0.704949 0.647462
O O8 0.415730 0.376591 0.600720
O O9 0.570510 0.063052 0.250000
O O10 0.563687 0.949361 0.390783
O O11 0.500000 0.767042 0.023356
#
# Coordination Sequence:
#
# PCOD9475119 Si02
#       5
#    16   8  16  16  16
#     4  11  22  42  64  92 116 163 206 257 306 362
#     4  10  22  42  70  82 120 160 210 256 308 354
#     4   9  19  34  53  82 123 165 196 233 293 364
#     4  11  22  38  59  89 125 161 201 245 307 371
#     4  11  22  38  62  94 126 157 202 252 305 369
#
# _framework density 21.906548000000001
#
# number of rings (size 3 to 8) (size 9 to 14) (size 15 to 20)
#    0.000    1.556    2.222    2.667    0.000    4.889 
#    0.000    3.889    0.000    0.000    0.000    0.000 
#    0.000    0.000    0.000    0.000    0.000    0.000 
#
# Total GULP energy -200477.422431 kJ/mol
# GULP energy per Si atom -5568.817290 kJ/mol
# Density = 2.185669 g / cm^3
# Si number density = 21.906548 Si / 1000 Ang^3
#
#
#
# Elastic Constant Matrix: (Units=GPa)
#
#
# Indices 1 2 3 4 5 6 
#
# 1 99.8608 43.8217 29.2933 0.0000 0.0000 0.0000
# 2 43.8217 87.2539 33.6456 0.0000 0.0000 0.0000
# 3 29.2933 33.6456 78.0525 0.0000 0.0000 0.0000
# 4 0.0000 0.0000 0.0000 27.8910 0.0000 0.0000
# 5 0.0000 0.0000 0.0000 0.0000 25.1222 0.0000
# 6 0.0000 0.0000 0.0000 0.0000 0.0000 -21.9363
#
#
#
# Elastic Compliance Matrix: (Units=1/GPa)
#
#
# Indices 1 2 3 4 5 6 
#
# 1 0.013247 -0.005680 -0.002523 0.000000 0.000000 0.000000
# 2 -0.005680 0.016181 -0.004843 0.000000 0.000000 0.000000
# 3 -0.002523 -0.004843 0.015847 0.000000 0.000000 0.000000
# 4 0.000000 0.000000 0.000000 0.035854 0.000000 0.000000
# 5 0.000000 0.000000 0.000000 0.000000 0.039805 0.000000
# 6 0.000000 0.000000 0.000000 0.000000 0.000000 -0.045587
#
#
# Mechanical properties :
#
#
# Convention : Reuss Voigt Hill
#
# Bulk Modulus (GPa) = 52.13359 53.18763 52.66061
# Shear Modulus (GPa) = 46.36769 16.77581 31.57175
#
# Velocity S-wave (km/s) = 4.60566 2.77029 3.80043
# Velocity P-wave (km/s) = 7.22029 5.87918 6.58397
#
# Compressibility (1/GPa) = 0.01918149
#
# Stress axis : x y z
#
# Youngs Moduli (GPa) = 75.49119 61.80046 63.10498
#
# Poissons Ratio (x) = 0.35102 0.15922
# Poissons Ratio (y) = 0.42879 0.30564
# Poissons Ratio (z) = 0.19047 0.29932
#
# Static dielectric constant tensor:
#      x y z
#    x 1.850640 0.000000 0.000000 
#    y 0.000000 1.885600 0.000000 
#    z 0.000000 0.000000 1.903110 
# 
# From -- ./inp_files/47780.got.cif
#   From: 2010.05.17/outbox.cif.g08.bks.cpg/sg63_24_cif.got.tgz:47780.got - 2010.06.03 15:47:04.
