data_PCOD9475206
_publ_section_title
;
Structure prediction by ZEFSAII (Michael W. Deem and Ramdas Pophale) SiO2 
 PCOD9475206
Probable space group: C M C M
;
_chemical_formula_sum "Si O2"
_cell_formula_units_Z 68
_cell_length_a 13.770496
_cell_length_b 22.600176
_cell_length_c 9.523174
_cell_angle_alpha 90.000000
_cell_angle_beta 90.000000
_cell_angle_gamma 90.000000
_cell_volume 2963.760627
_symmetry_space_group_name_H-M "C M C M"
_symmetry_group_IT_number 63
_symmetry_cell_setting 'orthorhombic'
loop_
_space_group_symop_operation_xyz
x,y,z
-x,-y,1/2+z
x,-y,-z
-x,y,1/2-z
-x,-y,-z
x,y,1/2-z
-x,y,z
x,-y,1/2+z
1/2+x,1/2+y,z
1/2-x,1/2-y,1/2+z
1/2+x,1/2-y,-z
1/2-x,1/2+y,1/2-z
1/2-x,1/2-y,-z
1/2+x,1/2+y,1/2-z
1/2-x,1/2+y,z
1/2+x,1/2-y,1/2+z
loop_
_atom_site_type_symbol
_atom_site_label
_atom_site_fract_x
_atom_site_fract_y
_atom_site_fract_z
Si Si1 0.617301 0.779017 0.089892
Si Si2 0.106344 0.412877 0.513761
Si Si3 0.500000 0.959040 0.250000
Si Si4 0.383431 0.332061 0.409368
Si Si5 0.683486 0.442873 0.590943
O O1 0.652847 0.770915 0.250000
O O2 0.500000 0.773177 0.097677
O O3 0.630756 0.845825 0.035362
O O4 0.650422 0.728911 0.981371
O O5 0.082686 0.449974 0.373846
O O6 0.199621 0.436249 0.591994
O O7 0.000000 0.412662 0.589346
O O8 0.347066 0.339780 0.250000
O O9 0.500000 0.329734 0.402147
O O10 0.354961 0.385661 0.509511
O O11 0.657101 0.500000 0.500000
O O12 0.647210 0.446271 0.750000
#
# Coordination Sequence:
#
# PCOD9475206 Si02
#       5
#    16  16   4  16  16
#     4   9  15  32  62  93 125 160 196 240 296 359
#     4   9  19  37  64  93 128 161 201 237 302 353
#     4   8  16  36  64  96 120 180 184 248 296 354
#     4  10  23  41  64  93 123 158 199 251 307 362
#     4  12  28  44  64  87 117 161 208 258 304 357
#
# _framework density 22.943822999999998
#
# number of rings (size 3 to 8) (size 9 to 14) (size 15 to 20)
#    0.706    1.412    1.176    1.412    3.294    4.706 
#    0.000    2.353    0.000    0.000    0.000    0.000 
#    0.000    0.000    0.000    0.000    0.000    0.000 
#
# Total GULP energy -189544.278499 kJ/mol
# GULP energy per Si atom -5574.831721 kJ/mol
# Density = 2.289160 g / cm^3
# Si number density = 22.943823 Si / 1000 Ang^3
#
#
#
# Elastic Constant Matrix: (Units=GPa)
#
#
# Indices 1 2 3 4 5 6 
#
# 1 51.9681 26.0226 29.2695 0.0000 0.0000 0.0000
# 2 26.0226 96.9378 51.4045 0.0000 0.0000 0.0000
# 3 29.2695 51.4045 178.6979 0.0000 0.0000 0.0000
# 4 0.0000 0.0000 0.0000 -40.7579 0.0000 0.0000
# 5 0.0000 0.0000 0.0000 0.0000 29.5467 0.0000
# 6 0.0000 0.0000 0.0000 0.0000 0.0000 29.1211
#
#
#
# Elastic Compliance Matrix: (Units=1/GPa)
#
#
# Indices 1 2 3 4 5 6 
#
# 1 0.023040 -0.004937 -0.002354 0.000000 0.000000 0.000000
# 2 -0.004937 0.013231 -0.002997 0.000000 0.000000 0.000000
# 3 -0.002354 -0.002997 0.006844 0.000000 0.000000 0.000000
# 4 0.000000 0.000000 0.000000 -0.024535 0.000000 0.000000
# 5 0.000000 0.000000 0.000000 0.000000 0.033845 0.000000
# 6 0.000000 0.000000 0.000000 0.000000 0.000000 0.034339
#
#
# Mechanical properties :
#
#
# Convention : Reuss Voigt Hill
#
# Bulk Modulus (GPa) = 44.36785 60.11076 52.23931
# Shear Modulus (GPa) = 43.53408 18.30913 30.92161
#
# Velocity S-wave (km/s) = 4.36066 2.82795 3.67510
# Velocity P-wave (km/s) = 6.68831 6.07611 6.38954
#
# Compressibility (1/GPa) = 0.02253884
#
# Stress axis : x y z
#
# Youngs Moduli (GPa) = 43.40212 75.58219 146.11845
#
# Poissons Ratio (x) = 0.37315 0.34391
# Poissons Ratio (y) = 0.21428 0.43796
# Poissons Ratio (z) = 0.10215 0.22654
#
# Static dielectric constant tensor:
#      x y z
#    x 1.920650 0.000000 0.000000 
#    y 0.000000 1.855150 0.000000 
#    z 0.000000 0.000000 1.800490 
# 
# From -- ./inp_files/5877.got.cif
#   From: 2010.05.17/outbox.cif.g08.bks.cpg/sg63_3_cif.got.tgz:5877.got - 2010.06.03 15:47:04.
