data_PCOD9475153
_publ_section_title
;
Structure prediction by ZEFSAII (Michael W. Deem and Ramdas Pophale) SiO2 
 PCOD9475153
Probable space group: C M C M
;
_chemical_formula_sum "Si O2"
_cell_formula_units_Z 68
_cell_length_a 22.978707
_cell_length_b 9.295743
_cell_length_c 14.089060
_cell_angle_alpha 90.000000
_cell_angle_beta 90.000000
_cell_angle_gamma 90.000000
_cell_volume 3009.481752
_symmetry_space_group_name_H-M "C M C M"
_symmetry_group_IT_number 63
_symmetry_cell_setting 'orthorhombic'
loop_
_space_group_symop_operation_xyz
x,y,z
-x,-y,1/2+z
x,-y,-z
-x,y,1/2-z
-x,-y,-z
x,y,1/2-z
-x,y,z
x,-y,1/2+z
1/2+x,1/2+y,z
1/2-x,1/2-y,1/2+z
1/2+x,1/2-y,-z
1/2-x,1/2+y,1/2-z
1/2-x,1/2-y,-z
1/2+x,1/2+y,1/2-z
1/2-x,1/2+y,z
1/2+x,1/2-y,1/2+z
loop_
_atom_site_type_symbol
_atom_site_label
_atom_site_fract_x
_atom_site_fract_y
_atom_site_fract_z
Si Si1 0.208132 0.225394 0.638432
Si Si2 0.000000 0.485572 0.750000
Si Si3 0.905160 0.401705 0.591040
Si Si4 0.818978 0.900876 0.635427
Si Si5 0.438891 0.657830 0.043819
O O1 0.219153 0.202688 0.750000
O O2 0.155378 0.338452 0.629891
O O3 0.266802 0.298830 0.600523
O O4 0.190112 0.066771 0.601813
O O5 0.051878 0.473346 0.833142
O O6 0.893165 0.500000 0.500000
O O7 0.936150 0.264023 0.544697
O O8 0.818209 0.904292 0.750000
O O9 0.880465 0.835236 0.604192
O O10 0.500000 0.683307 0.097534
O O11 0.439840 0.500000 0.000000
#
# Coordination Sequence:
#
# PCOD9475153 Si02
#       5
#    16   4  16  16  16
#     4  10  22  44  69 103 142 191 240 288 358 422
#     4  12  26  52  74  96 146 196 234 298 346 438
#     4  12  26  46  75 105 138 190 242 290 357 429
#     4  10  23  43  69 104 144 190 238 290 353 419
#     4  11  24  44  66 102 142 175 238 297 348 427
#
# _framework density 22.595253
#
# number of rings (size 3 to 8) (size 9 to 14) (size 15 to 20)
#    0.000    1.176    4.706    0.353    3.294    2.353 
#    2.118    0.000    0.000    0.000    0.000    0.000 
#    0.000    0.000    0.000    0.000    0.000    0.000 
#
# Total GULP energy -189532.807172 kJ/mol
# GULP energy per Si atom -5574.494329 kJ/mol
# Density = 2.254382 g / cm^3
# Si number density = 22.595253 Si / 1000 Ang^3
#
#
#
# Elastic Constant Matrix: (Units=GPa)
#
#
# Indices 1 2 3 4 5 6 
#
# 1 225.2326 12.3524 28.4805 0.0000 0.0000 0.0000
# 2 12.3524 34.9847 16.9890 0.0000 0.0000 0.0000
# 3 28.4805 16.9890 79.2015 0.0000 0.0000 0.0000
# 4 0.0000 0.0000 0.0000 25.6959 0.0000 0.0000
# 5 0.0000 0.0000 0.0000 0.0000 38.8974 0.0000
# 6 0.0000 0.0000 0.0000 0.0000 0.0000 37.3874
#
#
#
# Elastic Compliance Matrix: (Units=1/GPa)
#
#
# Indices 1 2 3 4 5 6 
#
# 1 0.004678 -0.000932 -0.001482 0.000000 0.000000 0.000000
# 2 -0.000932 0.032093 -0.006549 0.000000 0.000000 0.000000
# 3 -0.001482 -0.006549 0.014564 0.000000 0.000000 0.000000
# 4 0.000000 0.000000 0.000000 0.038917 0.000000 0.000000
# 5 0.000000 0.000000 0.000000 0.000000 0.025709 0.000000
# 6 0.000000 0.000000 0.000000 0.000000 0.000000 0.026747
#
#
# Mechanical properties :
#
#
# Convention : Reuss Voigt Hill
#
# Bulk Modulus (GPa) = 29.93223 50.56250 40.24736
# Shear Modulus (GPa) = 29.10854 39.16927 34.13891
#
# Velocity S-wave (km/s) = 3.59313 4.16807 3.89123
# Velocity P-wave (km/s) = 5.52177 6.75202 6.16765
#
# Compressibility (1/GPa) = 0.03340881
#
# Stress axis : x y z
#
# Youngs Moduli (GPa) = 213.74748 31.15917 68.66305
#
# Poissons Ratio (x) = 0.02904 0.10179
# Poissons Ratio (y) = 0.19921 0.44967
# Poissons Ratio (z) = 0.31686 0.20406
#
# Static dielectric constant tensor:
#      x y z
#    x 1.857550 0.000000 0.000000 
#    y 0.000000 2.048800 0.000000 
#    z 0.000000 0.000000 1.829200 
# 
# From -- ./inp_files/46639.got.cif
#   From: 2010.05.17/outbox.cif.g08.bks.cpg/sg63_24_cif.got.tgz:46639.got - 2010.06.03 15:47:04.
