data_PCOD9475262
_publ_section_title
;
Structure prediction by ZEFSAII (Michael W. Deem and Ramdas Pophale) SiO2 
 PCOD9475262
Probable space group: C M C M
;
_chemical_formula_sum "Si O2"
_cell_formula_units_Z 80
_cell_length_a 17.909784
_cell_length_b 7.613811
_cell_length_c 27.923521
_cell_angle_alpha 90.000000
_cell_angle_beta 90.000000
_cell_angle_gamma 90.000000
_cell_volume 3807.699085
_symmetry_space_group_name_H-M "C M C M"
_symmetry_group_IT_number 63
_symmetry_cell_setting 'orthorhombic'
loop_
_space_group_symop_operation_xyz
x,y,z
-x,-y,1/2+z
x,-y,-z
-x,y,1/2-z
-x,-y,-z
x,y,1/2-z
-x,y,z
x,-y,1/2+z
1/2+x,1/2+y,z
1/2-x,1/2-y,1/2+z
1/2+x,1/2-y,-z
1/2-x,1/2+y,1/2-z
1/2-x,1/2-y,-z
1/2+x,1/2+y,1/2-z
1/2-x,1/2+y,z
1/2+x,1/2-y,1/2+z
loop_
_atom_site_type_symbol
_atom_site_label
_atom_site_fract_x
_atom_site_fract_y
_atom_site_fract_z
Si Si1 0.195246 0.215947 0.196451
Si Si2 0.584811 0.953578 0.553380
Si Si3 0.340195 0.925024 0.849536
Si Si4 0.588234 0.445368 0.156521
Si Si5 0.915605 0.964703 0.050952
O O1 0.227710 0.221992 0.250000
O O2 0.260106 0.166309 0.158909
O O3 0.160027 0.404262 0.183939
O O4 0.134365 0.062582 0.192932
O O5 0.500000 0.025418 0.560275
O O6 0.639047 0.994718 0.597406
O O7 0.578351 0.744126 0.553816
O O8 0.610629 0.000000 0.500000
O O9 0.395734 0.762629 0.838691
O O10 0.500000 0.473954 0.159438
O O11 0.614612 0.510870 0.103263
O O12 0.000000 0.041565 0.047986
O O13 0.877057 0.000000 0.000000
#
# Coordination Sequence:
#
# PCOD9475262 Si02
#       5
#    16  16  16  16  16
#     4  12  26  44  68  93 126 176 226 278 347 403
#     4   9  19  36  61  96 134 172 213 266 332 397
#     4  11  23  43  68  96 131 179 224 272 336 406
#     4  10  23  43  67  99 134 167 218 281 333 395
#     4   8  15  30  55  87 123 163 200 245 313 382
#
# _framework density 21.010064
#
# number of rings (size 3 to 8) (size 9 to 14) (size 15 to 20)
#    0.000    2.000    2.000    2.400    2.800    2.800 
#    0.000    2.000    0.000    5.400    0.000    0.000 
#    0.000    0.000    0.000    0.000    0.000    0.000 
#
# Total GULP energy -222929.371374 kJ/mol
# GULP energy per Si atom -5573.234284 kJ/mol
# Density = 2.096224 g / cm^3
# Si number density = 21.010064 Si / 1000 Ang^3
#
#
#
# Elastic Constant Matrix: (Units=GPa)
#
#
# Indices 1 2 3 4 5 6 
#
# 1 62.2825 5.8633 38.5840 0.0000 0.0000 0.0000
# 2 5.8633 67.2581 17.5031 0.0000 0.0000 0.0000
# 3 38.5840 17.5031 114.6894 0.0000 0.0000 0.0000
# 4 0.0000 0.0000 0.0000 26.9603 0.0000 0.0000
# 5 0.0000 0.0000 0.0000 0.0000 22.6838 0.0000
# 6 0.0000 0.0000 0.0000 0.0000 0.0000 23.3352
#
#
#
# Elastic Compliance Matrix: (Units=1/GPa)
#
#
# Indices 1 2 3 4 5 6 
#
# 1 0.020283 0.000008 -0.006825 0.000000 0.000000 0.000000
# 2 0.000008 0.015483 -0.002366 0.000000 0.000000 0.000000
# 3 -0.006825 -0.002366 0.011376 0.000000 0.000000 0.000000
# 4 0.000000 0.000000 0.000000 0.037092 0.000000 0.000000
# 5 0.000000 0.000000 0.000000 0.000000 0.044084 0.000000
# 6 0.000000 0.000000 0.000000 0.000000 0.000000 0.042854
#
#
# Mechanical properties :
#
#
# Convention : Reuss Voigt Hill
#
# Bulk Modulus (GPa) = 34.74962 40.90342 37.82652
# Shear Modulus (GPa) = 25.10927 26.74783 25.92855
#
# Velocity S-wave (km/s) = 3.46078 3.57192 3.51679
# Velocity P-wave (km/s) = 5.70480 6.04336 5.87652
#
# Compressibility (1/GPa) = 0.02877729
#
# Stress axis : x y z
#
# Youngs Moduli (GPa) = 49.30204 64.58690 87.90241
#
# Poissons Ratio (x) = -0.00051 0.59992
# Poissons Ratio (y) = -0.00039 0.20794
# Poissons Ratio (z) = 0.33648 0.15278
#
# Static dielectric constant tensor:
#      x y z
#    x 1.751680 0.000000 0.000000 
#    y 0.000000 1.770590 0.000000 
#    z 0.000000 0.000000 1.825330 
# 
# From -- ./inp_files/73737.got.cif
#   From: 2010.05.17/outbox.cif.g08.bks.cpg/sg63_37_cif.got.tgz:73737.got - 2010.06.03 15:47:04.
