data_PCOD9475280
_publ_section_title
;
Structure prediction by ZEFSAII (Michael W. Deem and Ramdas Pophale) SiO2 
 PCOD9475280
Probable space group: C M C M
;
_chemical_formula_sum "Si O2"
_cell_formula_units_Z 64
_cell_length_a 17.073753
_cell_length_b 10.214979
_cell_length_c 16.945470
_cell_angle_alpha 90.000000
_cell_angle_beta 90.000000
_cell_angle_gamma 90.000000
_cell_volume 2955.426012
_symmetry_space_group_name_H-M "C M C M"
_symmetry_group_IT_number 63
_symmetry_cell_setting 'orthorhombic'
loop_
_space_group_symop_operation_xyz
x,y,z
-x,-y,1/2+z
x,-y,-z
-x,y,1/2-z
-x,-y,-z
x,y,1/2-z
-x,y,z
x,-y,1/2+z
1/2+x,1/2+y,z
1/2-x,1/2-y,1/2+z
1/2+x,1/2-y,-z
1/2-x,1/2+y,1/2-z
1/2-x,1/2-y,-z
1/2+x,1/2+y,1/2-z
1/2-x,1/2+y,z
1/2+x,1/2-y,1/2+z
loop_
_atom_site_type_symbol
_atom_site_label
_atom_site_fract_x
_atom_site_fract_y
_atom_site_fract_z
Si Si1 0.910286 0.049742 0.154461
Si Si2 0.084056 0.520810 0.907113
Si Si3 0.790057 0.255657 0.412232
Si Si4 0.875096 0.240327 0.659603
O O1 0.894028 0.056104 0.250000
O O2 0.903732 0.898646 0.126626
O O3 0.000000 0.093278 0.142738
O O4 0.847865 0.135303 0.106402
O O5 0.157199 0.616395 0.895454
O O6 0.094018 0.375423 0.874420
O O7 0.000000 0.575472 0.878786
O O8 0.080515 0.500000 0.000000
O O9 0.750000 0.250000 0.500000
O O10 0.717838 0.255466 0.352649
O O11 0.898090 0.237976 0.750000
#
# Coordination Sequence:
#
# PCOD9475280 Si02
#       4
#    16  16  16  16
#     4  10  23  44  68  97 134 178 229 280 335 401
#     4  11  24  44  67  97 136 177 225 277 337 403
#     4  12  24  42  66 100 136 179 221 278 337 404
#     4  11  24  43  70 101 135 177 225 278 337 403
#
# _framework density 21.655083000000001
#
# number of rings (size 3 to 8) (size 9 to 14) (size 15 to 20)
#    0.000    1.000    2.500    3.750    0.000    5.500 
#    0.000    1.250    0.000    0.000    0.000    0.000 
#    0.000    0.000    0.000    0.000    0.000    0.000 
#
# Total GULP energy -178791.091225 kJ/mol
# GULP energy per Si atom -5587.221601 kJ/mol
# Density = 2.160580 g / cm^3
# Si number density = 21.655083 Si / 1000 Ang^3
#
#
#
# Elastic Constant Matrix: (Units=GPa)
#
#
# Indices 1 2 3 4 5 6 
#
# 1 151.7194 61.3496 22.7336 0.0000 0.0000 0.0000
# 2 61.3496 155.6843 44.0230 0.0000 0.0000 0.0000
# 3 22.7336 44.0230 46.6455 0.0000 0.0000 0.0000
# 4 0.0000 0.0000 0.0000 35.6547 0.0000 0.0000
# 5 0.0000 0.0000 0.0000 0.0000 8.0010 0.0000
# 6 0.0000 0.0000 0.0000 0.0000 0.0000 46.4259
#
#
#
# Elastic Compliance Matrix: (Units=1/GPa)
#
#
# Indices 1 2 3 4 5 6 
#
# 1 0.007893 -0.002759 -0.001243 0.000000 0.000000 0.000000
# 2 -0.002759 0.009726 -0.007834 0.000000 0.000000 0.000000
# 3 -0.001243 -0.007834 0.029438 0.000000 0.000000 0.000000
# 4 0.000000 0.000000 0.000000 0.028047 0.000000 0.000000
# 5 0.000000 0.000000 0.000000 0.000000 0.124984 0.000000
# 6 0.000000 0.000000 0.000000 0.000000 0.000000 0.021540
#
#
# Mechanical properties :
#
#
# Convention : Reuss Voigt Hill
#
# Bulk Modulus (GPa) = 42.76389 67.80685 55.28537
# Shear Modulus (GPa) = 19.75548 33.07918 26.41733
#
# Velocity S-wave (km/s) = 3.02367 3.91263 3.49652
# Velocity P-wave (km/s) = 5.65515 7.19665 6.47196
#
# Compressibility (1/GPa) = 0.02338421
#
# Stress axis : x y z
#
# Youngs Moduli (GPa) = 126.69548 102.81985 33.96960
#
# Poissons Ratio (x) = 0.28366 0.04223
# Poissons Ratio (y) = 0.34953 0.26613
# Poissons Ratio (z) = 0.15749 0.80553
#
# Static dielectric constant tensor:
#      x y z
#    x 1.783210 0.000000 0.000000 
#    y 0.000000 1.757420 0.000000 
#    z 0.000000 0.000000 1.782920 
# 
# From -- ./inp_files/54996.got.cif
#   From: 2010.05.17/outbox.cif.g08.bks.cpg/sg63_28_cif.got.tgz:54996.got - 2010.06.03 15:47:04.
