data_PCOD9475446
_publ_section_title
;
Structure prediction by ZEFSAII (Michael W. Deem and Ramdas Pophale) SiO2 
 PCOD9475446
Probable space group: C M C M
;
_chemical_formula_sum "Si O2"
_cell_formula_units_Z 116
_cell_length_a 7.325160
_cell_length_b 30.097925
_cell_length_c 24.732649
_cell_angle_alpha 90.000000
_cell_angle_beta 90.000000
_cell_angle_gamma 90.000000
_cell_volume 5452.859467
_symmetry_space_group_name_H-M "C M C M"
_symmetry_group_IT_number 63
_symmetry_cell_setting 'orthorhombic'
loop_
_space_group_symop_operation_xyz
x,y,z
-x,-y,1/2+z
x,-y,-z
-x,y,1/2-z
-x,-y,-z
x,y,1/2-z
-x,y,z
x,-y,1/2+z
1/2+x,1/2+y,z
1/2-x,1/2-y,1/2+z
1/2+x,1/2-y,-z
1/2-x,1/2+y,1/2-z
1/2-x,1/2-y,-z
1/2+x,1/2+y,1/2-z
1/2-x,1/2+y,z
1/2+x,1/2-y,1/2+z
loop_
_atom_site_type_symbol
_atom_site_label
_atom_site_fract_x
_atom_site_fract_y
_atom_site_fract_z
Si Si1 0.291816 0.574134 0.847618
Si Si2 0.778314 0.088972 0.102368
Si Si3 0.500000 0.936164 0.250000
Si Si4 0.778111 0.994528 0.061998
Si Si5 0.777623 0.157571 0.188928
Si Si6 0.707809 0.831988 0.108131
Si Si7 0.220886 0.836576 0.983521
Si Si8 0.777517 0.232574 0.104316
O O1 0.500000 0.559497 0.836033
O O2 0.228105 0.548048 0.902092
O O3 0.295053 0.626425 0.862053
O O4 0.159047 0.565159 0.797918
O O5 0.719429 0.038935 0.093390
O O6 0.720124 0.113407 0.157024
O O7 0.724977 0.121383 0.053118
O O8 0.000000 0.088699 0.102287
O O9 0.000000 0.993684 0.059186
O O10 0.715619 0.000000 0.000000
O O11 0.714103 0.159730 0.250000
O O12 0.724334 0.199606 0.152581
O O13 0.000000 0.157600 0.189472
O O14 0.500000 0.830480 0.128285
O O15 0.787563 0.782465 0.113526
O O16 0.709129 0.839866 0.043816
O O17 0.278461 0.792118 0.951136
O O18 0.000000 0.836404 0.986123
O O19 0.000000 0.234107 0.102597
#
# Coordination Sequence:
#
# PCOD9475446 Si02
#       8
#    16  16   4  16  16  16  16  16
#     4  11  24  44  69  92 123 166 210 261 318 368
#     4   8  14  26  47  78 110 141 184 236 289 351
#     4  12  26  52  66  86 124 164 218 274 308 358
#     4   9  17  32  58  93 125 156 197 247 309 381
#     4   8  13  24  41  67 101 138 184 240 293 348
#     4  11  20  33  51  82 118 153 199 250 302 363
#     4   9  16  29  52  79 117 156 193 240 301 370
#     4   8  16  28  44  74 113 152 196 246 304 364
#
# _framework density 21.273242
#
# number of rings (size 3 to 8) (size 9 to 14) (size 15 to 20)
#    0.000    2.759    0.690    3.517    0.000    2.207 
#    2.483    1.034    1.517    0.000    0.000    0.000 
#    0.000    2.483    0.000    0.552    0.000    0.552 
#
# Total GULP energy -323289.507715 kJ/mol
# GULP energy per Si atom -5573.957030 kJ/mol
# Density = 2.122482 g / cm^3
# Si number density = 21.273242 Si / 1000 Ang^3
#
#
#
# Elastic Constant Matrix: (Units=GPa)
#
#
# Indices 1 2 3 4 5 6 
#
# 1 103.8274 8.1678 20.9562 0.0000 0.0000 0.0000
# 2 8.1678 82.6664 10.5330 0.0000 0.0000 0.0000
# 3 20.9562 10.5330 117.3221 0.0000 0.0000 0.0000
# 4 0.0000 0.0000 0.0000 7.1329 0.0000 0.0000
# 5 0.0000 0.0000 0.0000 0.0000 -7.1296 0.0000
# 6 0.0000 0.0000 0.0000 0.0000 0.0000 4.4478
#
#
#
# Elastic Compliance Matrix: (Units=1/GPa)
#
#
# Indices 1 2 3 4 5 6 
#
# 1 0.010040 -0.000772 -0.001724 0.000000 0.000000 0.000000
# 2 -0.000772 0.012296 -0.000966 0.000000 0.000000 0.000000
# 3 -0.001724 -0.000966 0.008918 0.000000 0.000000 0.000000
# 4 0.000000 0.000000 0.000000 0.140196 0.000000 0.000000
# 5 0.000000 0.000000 0.000000 0.000000 -0.140260 0.000000
# 6 0.000000 0.000000 0.000000 0.000000 0.000000 0.224832
#
#
# Mechanical properties :
#
#
# Convention : Reuss Voigt Hill
#
# Bulk Modulus (GPa) = 41.10182 42.56999 41.83591
# Shear Modulus (GPa) = 18.44631 18.50081 18.47356
#
# Velocity S-wave (km/s) = 2.94787 2.95222 2.95005
# Velocity P-wave (km/s) = 5.56322 5.62808 5.59575
#
# Compressibility (1/GPa) = 0.02432982
#
# Stress axis : x y z
#
# Youngs Moduli (GPa) = 99.60063 81.32595 112.13007
#
# Poissons Ratio (x) = 0.06281 0.19332
# Poissons Ratio (y) = 0.07693 0.10831
# Poissons Ratio (z) = 0.17171 0.07856
#
# Static dielectric constant tensor:
#      x y z
#    x 1.858550 0.000000 0.000000 
#    y 0.000000 1.757170 0.000000 
#    z 0.000000 0.000000 1.717320 
# 
# From -- ./inp_files/60449.got.cif
#   From: 2010.05.17/outbox.cif.g08.bks.cpg/sg63_31_cif.got.tgz:60449.got - 2010.06.03 15:47:04.
