data_PCOD9475641
_publ_section_title
;
Structure prediction by ZEFSAII (Michael W. Deem and Ramdas Pophale) SiO2 
 PCOD9475641
Probable space group: C M C M
;
_chemical_formula_sum "Si O2"
_cell_formula_units_Z 56
_cell_length_a 18.780249
_cell_length_b 14.306039
_cell_length_c 11.264640
_cell_angle_alpha 90.000000
_cell_angle_beta 90.000000
_cell_angle_gamma 90.000000
_cell_volume 3026.481808
_symmetry_space_group_name_H-M "C M C M"
_symmetry_group_IT_number 63
_symmetry_cell_setting 'orthorhombic'
loop_
_space_group_symop_operation_xyz
x,y,z
-x,-y,1/2+z
x,-y,-z
-x,y,1/2-z
-x,-y,-z
x,y,1/2-z
-x,y,z
x,-y,1/2+z
1/2+x,1/2+y,z
1/2-x,1/2-y,1/2+z
1/2+x,1/2-y,-z
1/2-x,1/2+y,1/2-z
1/2-x,1/2-y,-z
1/2+x,1/2+y,1/2-z
1/2-x,1/2+y,z
1/2+x,1/2-y,1/2+z
loop_
_atom_site_type_symbol
_atom_site_label
_atom_site_fract_x
_atom_site_fract_y
_atom_site_fract_z
Si Si1 0.500000 0.700213 0.250000
Si Si2 0.726560 0.403378 0.957583
Si Si3 0.846713 0.256777 0.611581
Si Si4 0.500000 0.751399 0.526326
Si Si5 0.379610 0.452744 0.750000
Si Si6 0.500000 0.391865 0.250000
O O1 0.500000 0.743805 0.382681
O O2 0.569273 0.636103 0.250000
O O3 0.785942 0.334717 0.904904
O O4 0.669938 0.442147 0.863589
O O5 0.761879 0.500000 0.000000
O O6 0.682731 0.337659 0.049227
O O7 0.857601 0.239173 0.750000
O O8 0.921828 0.291323 0.557304
O O9 0.500000 0.664608 0.623908
O O10 0.430756 0.541760 0.750000
#
# Coordination Sequence:
#
# PCOD9475641 Si02
#       6
#     4  16  16   8   8   4
#     4  11  24  36  56  90 131 162 204 261 324 378
#     4  11  24  40  63  94 128 166 212 267 320 383
#     4  11  23  41  65  91 125 173 214 265 322 378
#     4  12  22  41  61  92 128 166 218 261 318 387
#     4  11  22  37  59  92 132 157 207 251 326 394
#     4  11  24  34  66  96 125 176 200 257 338 388
#
# _framework density 18.503332
#
# number of rings (size 3 to 8) (size 9 to 14) (size 15 to 20)
#    0.000    0.857    5.714    1.714    2.000    1.143 
#    0.000    0.714    0.000    0.000    0.000    0.000 
#    0.000    0.000    0.000    0.000    0.000    0.000 
#
# Total GULP energy -155985.286051 kJ/mol
# GULP energy per Si atom -5570.903073 kJ/mol
# Density = 1.846122 g / cm^3
# Si number density = 18.503332 Si / 1000 Ang^3
#
#
#
# Elastic Constant Matrix: (Units=GPa)
#
#
# Indices 1 2 3 4 5 6 
#
# 1 114.3174 22.8348 34.5665 0.0000 0.0000 0.0000
# 2 22.8348 73.5438 20.5345 0.0000 0.0000 0.0000
# 3 34.5665 20.5345 127.4849 0.0000 0.0000 0.0000
# 4 0.0000 0.0000 0.0000 18.4612 0.0000 0.0000
# 5 0.0000 0.0000 0.0000 0.0000 43.4846 0.0000
# 6 0.0000 0.0000 0.0000 0.0000 0.0000 27.0110
#
#
#
# Elastic Compliance Matrix: (Units=1/GPa)
#
#
# Indices 1 2 3 4 5 6 
#
# 1 0.009930 -0.002441 -0.002299 0.000000 0.000000 0.000000
# 2 -0.002441 0.014838 -0.001728 0.000000 0.000000 0.000000
# 3 -0.002299 -0.001728 0.008746 0.000000 0.000000 0.000000
# 4 0.000000 0.000000 0.000000 0.054168 0.000000 0.000000
# 5 0.000000 0.000000 0.000000 0.000000 0.022997 0.000000
# 6 0.000000 0.000000 0.000000 0.000000 0.000000 0.037022
#
#
# Mechanical properties :
#
#
# Convention : Reuss Voigt Hill
#
# Bulk Modulus (GPa) = 48.59851 52.35752 50.47801
# Shear Modulus (GPa) = 29.85132 33.61872 31.73502
#
# Velocity S-wave (km/s) = 4.02094 4.26714 4.14587
# Velocity P-wave (km/s) = 6.91947 7.25504 7.08924
#
# Compressibility (1/GPa) = 0.02057676
#
# Stress axis : x y z
#
# Youngs Moduli (GPa) = 100.70002 67.39524 114.33990
#
# Poissons Ratio (x) = 0.16453 0.26291
# Poissons Ratio (y) = 0.24584 0.19758
# Poissons Ratio (z) = 0.23154 0.11646
#
# Static dielectric constant tensor:
#      x y z
#    x 1.770130 0.000000 0.000000 
#    y 0.000000 1.621150 0.000000 
#    z 0.000000 0.000000 2.011460 
# 
# From -- ./inp_files/7365.got.cif
#   From: 2010.05.17/outbox.cif.g08.bks.cpg/sg63_4_cif.got.tgz:7365.got - 2010.06.03 15:47:04.
