data_PCOD9475851
_publ_section_title
;
Structure prediction by ZEFSAII (Michael W. Deem and Ramdas Pophale) SiO2 
 PCOD9475851
Probable space group: C M C M
;
_chemical_formula_sum "Si O2"
_cell_formula_units_Z 64
_cell_length_a 23.117474
_cell_length_b 8.029027
_cell_length_c 14.896951
_cell_angle_alpha 90.000000
_cell_angle_beta 90.000000
_cell_angle_gamma 90.000000
_cell_volume 2765.035334
_symmetry_space_group_name_H-M "C M C M"
_symmetry_group_IT_number 63
_symmetry_cell_setting 'orthorhombic'
loop_
_space_group_symop_operation_xyz
x,y,z
-x,-y,1/2+z
x,-y,-z
-x,y,1/2-z
-x,-y,-z
x,y,1/2-z
-x,y,z
x,-y,1/2+z
1/2+x,1/2+y,z
1/2-x,1/2-y,1/2+z
1/2+x,1/2-y,-z
1/2-x,1/2+y,1/2-z
1/2-x,1/2-y,-z
1/2+x,1/2+y,1/2-z
1/2-x,1/2+y,z
1/2+x,1/2-y,1/2+z
loop_
_atom_site_type_symbol
_atom_site_label
_atom_site_fract_x
_atom_site_fract_y
_atom_site_fract_z
Si Si1 0.154617 0.662479 0.592041
Si Si2 0.734894 0.151628 0.357574
Si Si3 0.865609 0.148146 0.930251
Si Si4 0.933523 0.193839 0.750000
Si Si5 0.932253 0.402949 0.250000
O O1 0.200607 0.814431 0.607048
O O2 0.196901 0.504565 0.608640
O O3 0.125293 0.692092 0.495734
O O4 0.104335 0.659271 0.665079
O O5 0.736477 0.144624 0.250000
O O6 0.697713 0.311059 0.390409
O O7 0.904345 0.134230 0.842010
O O8 0.874726 0.000000 0.000000
O O9 0.928480 0.395382 0.750000
O O10 0.000000 0.145852 0.750000
O O11 0.000000 0.356809 0.250000
#
# Coordination Sequence:
#
# PCOD9475851 Si02
#       5
#    16  16  16   8   8
#     4  12  24  43  74 112 149 193 247 294 367 447
#     4  12  22  44  71 106 156 195 233 302 372 442
#     4  12  26  45  73 107 150 190 243 303 372 441
#     4  11  26  52  76  99 144 203 250 306 373 426
#     4  11  24  46  76 109 146 193 250 310 359 432
#
# _framework density 23.146177999999999
#
# number of rings (size 3 to 8) (size 9 to 14) (size 15 to 20)
#    0.000    0.250    6.250    3.000    0.000    2.500 
#    0.000    3.750    0.000    0.000    0.000    0.000 
#    0.000    0.000    0.000    0.000    0.000    0.000 
#
# Total GULP energy -178911.801245 kJ/mol
# GULP energy per Si atom -5590.993789 kJ/mol
# Density = 2.309350 g / cm^3
# Si number density = 23.146178 Si / 1000 Ang^3
#
#
#
# Elastic Constant Matrix: (Units=GPa)
#
#
# Indices 1 2 3 4 5 6 
#
# 1 186.2958 43.4256 90.1370 0.0000 0.0000 0.0000
# 2 43.4256 90.9170 46.8677 0.0000 0.0000 0.0000
# 3 90.1370 46.8677 218.8943 0.0000 0.0000 0.0000
# 4 0.0000 0.0000 0.0000 30.7923 0.0000 0.0000
# 5 0.0000 0.0000 0.0000 0.0000 -23.4596 0.0000
# 6 0.0000 0.0000 0.0000 0.0000 0.0000 21.4157
#
#
#
# Elastic Compliance Matrix: (Units=1/GPa)
#
#
# Indices 1 2 3 4 5 6 
#
# 1 0.007043 -0.002101 -0.002450 0.000000 0.000000 0.000000
# 2 -0.002101 0.012990 -0.001916 0.000000 0.000000 0.000000
# 3 -0.002450 -0.001916 0.005988 0.000000 0.000000 0.000000
# 4 0.000000 0.000000 0.000000 0.032476 0.000000 0.000000
# 5 0.000000 0.000000 0.000000 0.000000 -0.042626 0.000000
# 6 0.000000 0.000000 0.000000 0.000000 0.000000 0.046695
#
#
# Mechanical properties :
#
#
# Convention : Reuss Voigt Hill
#
# Bulk Modulus (GPa) = 76.41711 95.21863 85.81787
# Shear Modulus (GPa) = 62.60778 26.79481 44.70130
#
# Velocity S-wave (km/s) = 5.20649 3.40609 4.39938
# Velocity P-wave (km/s) = 8.32046 7.52967 7.93492
#
# Compressibility (1/GPa) = 0.01308608
#
# Stress axis : x y z
#
# Youngs Moduli (GPa) = 141.98237 76.98026 167.00764
#
# Poissons Ratio (x) = 0.16173 0.40924
# Poissons Ratio (y) = 0.29829 0.32003
# Poissons Ratio (z) = 0.34792 0.14751
#
# Static dielectric constant tensor:
#      x y z
#    x 1.824500 0.000000 0.000000 
#    y 0.000000 2.078330 0.000000 
#    z 0.000000 0.000000 1.850070 
# 
# From -- ./inp_files/36228.got.cif
#   From: 2010.05.17/outbox.cif.g08.bks.cpg/sg63_19_cif.got.tgz:36228.got - 2010.06.03 15:47:04.
