data_PCOD9475691
_publ_section_title
;
Structure prediction by ZEFSAII (Michael W. Deem and Ramdas Pophale) SiO2 
 PCOD9475691
Probable space group: C M C M
;
_chemical_formula_sum "Si O2"
_cell_formula_units_Z 68
_cell_length_a 21.423382
_cell_length_b 11.543593
_cell_length_c 14.214544
_cell_angle_alpha 90.000000
_cell_angle_beta 90.000000
_cell_angle_gamma 90.000000
_cell_volume 3515.296567
_symmetry_space_group_name_H-M "C M C M"
_symmetry_group_IT_number 63
_symmetry_cell_setting 'orthorhombic'
loop_
_space_group_symop_operation_xyz
x,y,z
-x,-y,1/2+z
x,-y,-z
-x,y,1/2-z
-x,-y,-z
x,y,1/2-z
-x,y,z
x,-y,1/2+z
1/2+x,1/2+y,z
1/2-x,1/2-y,1/2+z
1/2+x,1/2-y,-z
1/2-x,1/2+y,1/2-z
1/2-x,1/2-y,-z
1/2+x,1/2+y,1/2-z
1/2-x,1/2+y,z
1/2+x,1/2-y,1/2+z
loop_
_atom_site_type_symbol
_atom_site_label
_atom_site_fract_x
_atom_site_fract_y
_atom_site_fract_z
Si Si1 0.926077 0.251081 0.854047
Si Si2 0.500000 0.082662 0.750000
Si Si3 0.786252 0.692408 0.639623
Si Si4 0.833611 0.136195 0.984385
Si Si5 0.391914 0.991770 0.110455
O O1 0.916636 0.198625 0.750000
O O2 0.898241 0.174642 0.936843
O O3 0.892235 0.375399 0.856162
O O4 0.000000 0.273635 0.864620
O O5 0.554704 0.073297 0.668450
O O6 0.780800 0.718405 0.750000
O O7 0.820269 0.793196 0.579931
O O8 0.719850 0.672953 0.590044
O O9 0.827649 0.576501 0.626081
O O10 0.830776 0.000000 0.000000
O O11 0.405527 0.000000 0.000000
#
# Coordination Sequence:
#
# PCOD9475691 Si02
#       5
#    16   4  16  16  16
#     4  11  22  41  68  97 131 171 215 264 324 384
#     4  12  22  36  64 102 142 156 212 276 336 384
#     4  11  24  43  66  95 131 169 214 270 325 380
#     4  11  26  44  64  94 128 175 219 261 315 385
#     4  12  21  38  65 102 131 165 211 268 330 383
#
# _framework density 19.34403
#
# number of rings (size 3 to 8) (size 9 to 14) (size 15 to 20)
#    0.000    0.706    5.882    1.765    3.294    2.353 
#    0.000    0.000    0.000    0.000    0.000    0.000 
#    0.000    0.000    0.000    0.000    0.000    0.000 
#
# Total GULP energy -189487.996402 kJ/mol
# GULP energy per Si atom -5573.176365 kJ/mol
# Density = 1.930000 g / cm^3
# Si number density = 19.344030 Si / 1000 Ang^3
#
#
#
# Elastic Constant Matrix: (Units=GPa)
#
#
# Indices 1 2 3 4 5 6 
#
# 1 49.2086 14.0881 28.9668 0.0000 0.0000 0.0000
# 2 14.0881 91.6878 40.3528 0.0000 0.0000 0.0000
# 3 28.9668 40.3528 185.5782 0.0000 0.0000 0.0000
# 4 0.0000 0.0000 0.0000 3.9254 0.0000 0.0000
# 5 0.0000 0.0000 0.0000 0.0000 36.1884 0.0000
# 6 0.0000 0.0000 0.0000 0.0000 0.0000 -38.4269
#
#
#
# Elastic Compliance Matrix: (Units=1/GPa)
#
#
# Indices 1 2 3 4 5 6 
#
# 1 0.022750 -0.002137 -0.003086 0.000000 0.000000 0.000000
# 2 -0.002137 0.012262 -0.002333 0.000000 0.000000 0.000000
# 3 -0.003086 -0.002333 0.006378 0.000000 0.000000 0.000000
# 4 0.000000 0.000000 0.000000 0.254752 0.000000 0.000000
# 5 0.000000 0.000000 0.000000 0.000000 0.027633 0.000000
# 6 0.000000 0.000000 0.000000 0.000000 0.000000 -0.026023
#
#
# Mechanical properties :
#
#
# Convention : Reuss Voigt Hill
#
# Bulk Modulus (GPa) = 38.05617 54.80999 46.43308
# Shear Modulus (GPa) = 15.54615 16.54184 16.04399
#
# Velocity S-wave (km/s) = 2.83798 2.92745 2.88306
# Velocity P-wave (km/s) = 5.51859 6.31050 5.92779
#
# Compressibility (1/GPa) = 0.02627695
#
# Stress axis : x y z
#
# Youngs Moduli (GPa) = 43.95537 81.55556 156.80084
#
# Poissons Ratio (x) = 0.17431 0.48394
# Poissons Ratio (y) = 0.09395 0.36575
# Poissons Ratio (z) = 0.13566 0.19024
#
# Static dielectric constant tensor:
#      x y z
#    x 1.673200 0.000000 0.000000 
#    y 0.000000 1.653980 0.000000 
#    z 0.000000 0.000000 1.666520 
# 
# From -- ./inp_files/34973.got.cif
#   From: 2010.05.17/outbox.cif.g08.bks.cpg/sg63_18_cif.got.tgz:34973.got - 2010.06.03 15:47:04.
