data_PCOD9475925
_publ_section_title
;
Structure prediction by ZEFSAII (Michael W. Deem and Ramdas Pophale) SiO2 
 PCOD9475925
Probable space group: C M C M
;
_chemical_formula_sum "Si O2"
_cell_formula_units_Z 56
_cell_length_a 21.441080
_cell_length_b 9.196455
_cell_length_c 13.784493
_cell_angle_alpha 90.000000
_cell_angle_beta 90.000000
_cell_angle_gamma 90.000000
_cell_volume 2718.052898
_symmetry_space_group_name_H-M "C M C M"
_symmetry_group_IT_number 63
_symmetry_cell_setting 'orthorhombic'
loop_
_space_group_symop_operation_xyz
x,y,z
-x,-y,1/2+z
x,-y,-z
-x,y,1/2-z
-x,-y,-z
x,y,1/2-z
-x,y,z
x,-y,1/2+z
1/2+x,1/2+y,z
1/2-x,1/2-y,1/2+z
1/2+x,1/2-y,-z
1/2-x,1/2+y,1/2-z
1/2-x,1/2-y,-z
1/2+x,1/2+y,1/2-z
1/2-x,1/2+y,z
1/2+x,1/2-y,1/2+z
loop_
_atom_site_type_symbol
_atom_site_label
_atom_site_fract_x
_atom_site_fract_y
_atom_site_fract_z
Si Si1 0.660472 0.698832 0.750000
Si Si2 0.188629 0.831145 0.464956
Si Si3 0.428650 0.208274 0.921389
Si Si4 0.426310 0.020985 0.250000
Si Si5 0.433667 0.559146 0.250000
O O1 0.695954 0.684963 0.650061
O O2 0.618168 0.557685 0.750000
O O3 0.618230 0.842001 0.750000
O O4 0.250000 0.750000 0.500000
O O5 0.125553 0.748426 0.502569
O O6 0.185676 0.000000 0.500000
O O7 0.500000 0.192395 0.961137
O O8 0.415298 0.073100 0.848742
O O9 0.430188 0.341036 0.844746
O O10 0.500000 0.056540 0.250000
O O11 0.500000 0.481913 0.250000
#
# Coordination Sequence:
#
# PCOD9475925 Si02
#       5
#     8  16  16   8   8
#     4  12  25  42  70 101 135 181 233 290 330 428
#     4  12  29  48  70 102 138 184 234 287 353 413
#     4   9  20  43  71  99 141 184 222 281 347 404
#     4   9  21  40  70 109 145 182 225 281 350 414
#     4   9  17  36  68 102 133 171 224 281 334 398
#
# _framework density 20.602983999999999
#
# number of rings (size 3 to 8) (size 9 to 14) (size 15 to 20)
#    0.000    1.714    2.857    2.143    4.000    6.286 
#    0.000    2.857    0.000    0.000    0.000    0.000 
#    0.000    0.000    0.000    0.000    0.000    0.000 
#
# Total GULP energy -156295.775040 kJ/mol
# GULP energy per Si atom -5581.991966 kJ/mol
# Density = 2.055609 g / cm^3
# Si number density = 20.602984 Si / 1000 Ang^3
#
#
#
# Elastic Constant Matrix: (Units=GPa)
#
#
# Indices 1 2 3 4 5 6 
#
# 1 93.9648 38.9815 65.0323 0.0000 0.0000 0.0000
# 2 38.9815 107.5782 35.3543 0.0000 0.0000 0.0000
# 3 65.0323 35.3543 152.2271 0.0000 0.0000 0.0000
# 4 0.0000 0.0000 0.0000 11.4724 0.0000 0.0000
# 5 0.0000 0.0000 0.0000 0.0000 38.7105 0.0000
# 6 0.0000 0.0000 0.0000 0.0000 0.0000 31.7987
#
#
#
# Elastic Compliance Matrix: (Units=1/GPa)
#
#
# Indices 1 2 3 4 5 6 
#
# 1 0.016544 -0.003976 -0.006144 0.000000 0.000000 0.000000
# 2 -0.003976 0.011019 -0.000861 0.000000 0.000000 0.000000
# 3 -0.006144 -0.000861 0.009394 0.000000 0.000000 0.000000
# 4 0.000000 0.000000 0.000000 0.087166 0.000000 0.000000
# 5 0.000000 0.000000 0.000000 0.000000 0.025833 0.000000
# 6 0.000000 0.000000 0.000000 0.000000 0.000000 0.031448
#
#
# Mechanical properties :
#
#
# Convention : Reuss Voigt Hill
#
# Bulk Modulus (GPa) = 66.68619 70.27849 68.48234
# Shear Modulus (GPa) = 23.99657 30.68979 27.34318
#
# Velocity S-wave (km/s) = 3.41649 3.86369 3.64695
# Velocity P-wave (km/s) = 6.92826 7.35453 7.14457
#
# Compressibility (1/GPa) = 0.01499561
#
# Stress axis : x y z
#
# Youngs Moduli (GPa) = 60.44475 90.75233 106.45133
#
# Poissons Ratio (x) = 0.36079 0.65408
# Poissons Ratio (y) = 0.24030 0.09163
# Poissons Ratio (z) = 0.37140 0.07812
#
# Static dielectric constant tensor:
#      x y z
#    x 1.708070 0.000000 0.000000 
#    y 0.000000 1.723300 0.000000 
#    z 0.000000 0.000000 1.691550 
# 
# From -- ./inp_files/34797.got.cif
#   From: 2010.05.17/outbox.cif.g08.bks.cpg/sg63_18_cif.got.tgz:34797.got - 2010.06.03 15:47:04.
