data_PCOD9475660
_publ_section_title
;
Structure prediction by ZEFSAII (Michael W. Deem and Ramdas Pophale) SiO2 
 PCOD9475660
Probable space group: C M C M
;
_chemical_formula_sum "Si O2"
_cell_formula_units_Z 88
_cell_length_a 11.897746
_cell_length_b 24.191584
_cell_length_c 15.286708
_cell_angle_alpha 90.000000
_cell_angle_beta 90.000000
_cell_angle_gamma 90.000000
_cell_volume 4399.901649
_symmetry_space_group_name_H-M "C M C M"
_symmetry_group_IT_number 63
_symmetry_cell_setting 'orthorhombic'
loop_
_space_group_symop_operation_xyz
x,y,z
-x,-y,1/2+z
x,-y,-z
-x,y,1/2-z
-x,-y,-z
x,y,1/2-z
-x,y,z
x,-y,1/2+z
1/2+x,1/2+y,z
1/2-x,1/2-y,1/2+z
1/2+x,1/2-y,-z
1/2-x,1/2+y,1/2-z
1/2-x,1/2-y,-z
1/2+x,1/2+y,1/2-z
1/2-x,1/2+y,z
1/2+x,1/2-y,1/2+z
loop_
_atom_site_type_symbol
_atom_site_label
_atom_site_fract_x
_atom_site_fract_y
_atom_site_fract_z
Si Si1 0.500000 0.851601 0.145265
Si Si2 0.371502 0.266261 0.148100
Si Si3 0.253074 0.876532 0.403392
Si Si4 0.232770 0.165003 0.095711
Si Si5 0.365112 0.510094 0.603881
Si Si6 0.000000 0.776860 0.855961
Si Si7 0.224348 0.922184 0.750000
O O1 0.500000 0.851690 0.250000
O O2 0.614363 0.879774 0.114128
O O3 0.500000 0.787183 0.117013
O O4 0.369301 0.249665 0.250000
O O5 0.500000 0.278160 0.122299
O O6 0.296308 0.320830 0.139265
O O7 0.319669 0.215958 0.093813
O O8 0.233565 0.867614 0.505822
O O9 0.187850 0.930606 0.372827
O O10 0.110649 0.192043 0.111684
O O11 0.257258 0.123720 0.174292
O O12 0.339502 0.500000 0.500000
O O13 0.500000 0.510663 0.612017
O O14 0.317372 0.465212 0.671682
O O15 0.000000 0.779378 0.750000
#
# Coordination Sequence:
#
# PCOD9475660 Si02
#       7
#     8  16  16  16  16   8   8
#     4  11  26  46  71 100 139 192 235 287 355 429
#     4  11  24  42  67 102 143 182 221 284 363 422
#     4  12  26  45  70 102 141 177 237 296 349 423
#     4  12  25  41  71 104 140 183 230 289 353 418
#     4  11  26  46  71 104 138 182 237 295 353 413
#     4  11  22  38  68 104 143 184 231 275 346 427
#     4  12  25  46  71  98 140 185 230 287 346 414
#
# _framework density 20.000447999999999
#
# number of rings (size 3 to 8) (size 9 to 14) (size 15 to 20)
#    0.000    0.545    5.455    1.909    8.909    0.000 
#    0.000    0.455    4.000    0.000    0.000    0.000 
#    0.000    0.000    0.000    0.000    0.000    0.000 
#
# Total GULP energy -245075.087376 kJ/mol
# GULP energy per Si atom -5569.888349 kJ/mol
# Density = 1.995493 g / cm^3
# Si number density = 20.000448 Si / 1000 Ang^3
#
#
#
# Elastic Constant Matrix: (Units=GPa)
#
#
# Indices 1 2 3 4 5 6 
#
# 1 37.4265 20.4725 -5.0953 0.0000 0.0000 0.0000
# 2 20.4725 99.1280 4.7779 0.0000 0.0000 0.0000
# 3 -5.0953 4.7779 79.1188 0.0000 0.0000 0.0000
# 4 0.0000 0.0000 0.0000 40.0574 0.0000 0.0000
# 5 0.0000 0.0000 0.0000 0.0000 -12.4975 0.0000
# 6 0.0000 0.0000 0.0000 0.0000 0.0000 4049.6531
#
#
#
# Elastic Compliance Matrix: (Units=1/GPa)
#
#
# Indices 1 2 3 4 5 6 
#
# 1 0.030553 -0.006424 0.002356 0.000000 0.000000 0.000000
# 2 -0.006424 0.011468 -0.001106 0.000000 0.000000 0.000000
# 3 0.002356 -0.001106 0.012858 0.000000 0.000000 0.000000
# 4 0.000000 0.000000 0.000000 0.024964 0.000000 0.000000
# 5 0.000000 0.000000 0.000000 0.000000 -0.080016 0.000000
# 6 0.000000 0.000000 0.000000 0.000000 0.000000 0.000247
#
#
# Mechanical properties :
#
#
# Convention : Reuss Voigt Hill
#
# Bulk Modulus (GPa) = 22.45648 28.44262 25.44955
# Shear Modulus (GPa) = 197.89437 828.47715 513.18576
#
# Velocity S-wave (km/s) = 9.95790 20.37470 16.03572
# Velocity P-wave (km/s) = 11.97770 23.82764 18.85765
#
# Compressibility (1/GPa) = 0.04453058
#
# Stress axis : x y z
#
# Youngs Moduli (GPa) = 32.72951 87.19970 77.77430
#
# Poissons Ratio (x) = 0.56014 -0.18320
# Poissons Ratio (y) = 0.21024 0.08604
# Poissons Ratio (z) = -0.07710 0.09646
#
# Static dielectric constant tensor:
#      x y z
#    x 1.691430 0.000000 0.000000 
#    y 0.000000 1.674810 0.000000 
#    z 0.000000 0.000000 1.718340 
# 
# From -- ./inp_files/29909.got.cif
#   From: 2010.05.17/outbox.cif.g08.bks.cpg/sg63_15_cif.got.tgz:29909.got - 2010.06.03 15:47:04.
