data_PCOD9475000
_publ_section_title
;
Structure prediction by ZEFSAII (Michael W. Deem and Ramdas Pophale) SiO2 
 PCOD9475000
Probable space group: C M C M
;
_chemical_formula_sum "Si O2"
_cell_formula_units_Z 80
_cell_length_a 14.065381
_cell_length_b 8.492246
_cell_length_c 30.413688
_cell_angle_alpha 90.000000
_cell_angle_beta 90.000000
_cell_angle_gamma 90.000000
_cell_volume 3632.813922
_symmetry_space_group_name_H-M "C M C M"
_symmetry_group_IT_number 63
_symmetry_cell_setting 'orthorhombic'
loop_
_space_group_symop_operation_xyz
x,y,z
-x,-y,1/2+z
x,-y,-z
-x,y,1/2-z
-x,-y,-z
x,y,1/2-z
-x,y,z
x,-y,1/2+z
1/2+x,1/2+y,z
1/2-x,1/2-y,1/2+z
1/2+x,1/2-y,-z
1/2-x,1/2+y,1/2-z
1/2-x,1/2-y,-z
1/2+x,1/2+y,1/2-z
1/2-x,1/2+y,z
1/2+x,1/2-y,1/2+z
loop_
_atom_site_type_symbol
_atom_site_label
_atom_site_fract_x
_atom_site_fract_y
_atom_site_fract_z
Si Si1 0.293097 0.141319 0.699719
Si Si2 0.395231 0.719610 0.119860
Si Si3 0.886715 0.696604 0.174206
Si Si4 0.398288 0.932304 0.581955
Si Si5 0.787621 0.884321 0.532488
O O1 0.313590 0.183223 0.750000
O O2 0.337875 0.265742 0.665094
O O3 0.179711 0.162684 0.691752
O O4 0.338916 0.968131 0.691151
O O5 0.500000 0.649598 0.126137
O O6 0.343780 0.649222 0.077207
O O7 0.405711 0.902628 0.106827
O O8 0.879612 0.692711 0.120823
O O9 0.000000 0.701001 0.184960
O O10 0.500000 0.897220 0.560407
O O11 0.311633 0.952839 0.549815
O O12 0.750000 0.750000 0.500000
O O13 0.843171 0.000000 0.500000
#
# Coordination Sequence:
#
# PCOD9475000 Si02
#       5
#    16  16  16  16  16
#     4  11  22  39  69  99 128 169 216 267 324 387
#     4  10  22  41  62  88 126 165 208 261 318 380
#     4  10  22  42  68  96 131 173 215 265 324 386
#     4   9  19  39  64  86 118 164 206 248 311 384
#     4  12  23  37  62  91 120 157 206 260 310 379
#
# _framework density 22.021498000000001
#
# number of rings (size 3 to 8) (size 9 to 14) (size 15 to 20)
#    0.000    1.600    4.000    2.400    0.000    4.400 
#    0.000    2.000    0.000    4.800    0.000    0.000 
#    0.000    0.000    0.000    0.000    0.000    0.000 
#
# Total GULP energy -222956.355142 kJ/mol
# GULP energy per Si atom -5573.908879 kJ/mol
# Density = 2.197138 g / cm^3
# Si number density = 22.021498 Si / 1000 Ang^3
#
#
#
# Elastic Constant Matrix: (Units=GPa)
#
#
# Indices 1 2 3 4 5 6 
#
# 1 149.3319 22.0869 49.1582 0.0000 0.0000 0.0000
# 2 22.0869 29.2914 6.5780 0.0000 0.0000 0.0000
# 3 49.1582 6.5780 95.7631 0.0000 0.0000 0.0000
# 4 0.0000 0.0000 0.0000 19.9587 0.0000 0.0000
# 5 0.0000 0.0000 0.0000 0.0000 0.4901 0.0000
# 6 0.0000 0.0000 0.0000 0.0000 0.0000 25.0702
#
#
#
# Elastic Compliance Matrix: (Units=1/GPa)
#
#
# Indices 1 2 3 4 5 6 
#
# 1 0.008932 -0.005795 -0.004187 0.000000 0.000000 0.000000
# 2 -0.005795 0.038434 0.000335 0.000000 0.000000 0.000000
# 3 -0.004187 0.000335 0.012569 0.000000 0.000000 0.000000
# 4 0.000000 0.000000 0.000000 0.050103 0.000000 0.000000
# 5 0.000000 0.000000 0.000000 0.000000 2.040362 0.000000
# 6 0.000000 0.000000 0.000000 0.000000 0.000000 0.039888
#
#
# Mechanical properties :
#
#
# Convention : Reuss Voigt Hill
#
# Bulk Modulus (GPa) = 24.60607 47.78141 36.19374
# Shear Modulus (GPa) = 2.24908 22.20802 12.22855
#
# Velocity S-wave (km/s) = 1.01170 3.17909 2.35904
# Velocity P-wave (km/s) = 3.54438 5.93466 4.88788
#
# Compressibility (1/GPa) = 0.04064038
#
# Stress axis : x y z
#
# Youngs Moduli (GPa) = 111.95887 26.01864 79.56241
#
# Poissons Ratio (x) = 0.15077 0.33312
# Poissons Ratio (y) = 0.64877 -0.02662
# Poissons Ratio (z) = 0.46877 -0.00870
#
# Static dielectric constant tensor:
#      x y z
#    x 1.821850 0.000000 0.000000 
#    y 0.000000 1.888620 0.000000 
#    z 0.000000 0.000000 1.833420 
# 
# From -- ./inp_files/72500.got.cif
#   From: 2010.05.17/outbox.cif.g08.bks.cpg/sg63_37_cif.got.tgz:72500.got - 2010.06.03 15:47:04.
