data_PCOD9475973
_publ_section_title
;
Structure prediction by ZEFSAII (Michael W. Deem and Ramdas Pophale) SiO2 
 PCOD9475973
Probable space group: C M C M
;
_chemical_formula_sum "Si O2"
_cell_formula_units_Z 96
_cell_length_a 24.635726
_cell_length_b 24.244405
_cell_length_c 7.628140
_cell_angle_alpha 90.000000
_cell_angle_beta 90.000000
_cell_angle_gamma 90.000000
_cell_volume 4556.124159
_symmetry_space_group_name_H-M "C M C M"
_symmetry_group_IT_number 63
_symmetry_cell_setting 'orthorhombic'
loop_
_space_group_symop_operation_xyz
x,y,z
-x,-y,1/2+z
x,-y,-z
-x,y,1/2-z
-x,-y,-z
x,y,1/2-z
-x,y,z
x,-y,1/2+z
1/2+x,1/2+y,z
1/2-x,1/2-y,1/2+z
1/2+x,1/2-y,-z
1/2-x,1/2+y,1/2-z
1/2-x,1/2-y,-z
1/2+x,1/2+y,1/2-z
1/2-x,1/2+y,z
1/2+x,1/2-y,1/2+z
loop_
_atom_site_type_symbol
_atom_site_label
_atom_site_fract_x
_atom_site_fract_y
_atom_site_fract_z
Si Si1 0.062018 0.059494 0.542015
Si Si2 0.335337 0.742556 0.035900
Si Si3 0.242715 0.338995 0.954218
Si Si4 0.561451 0.319283 0.542540
Si Si5 0.176214 0.435646 0.961410
Si Si6 0.442052 0.934473 0.960448
O O1 0.059224 0.062986 0.750000
O O2 0.084180 0.118271 0.479634
O O3 0.000000 0.057503 0.468465
O O4 0.087811 0.000000 0.500000
O O5 0.334292 0.744485 0.250000
O O6 0.293187 0.695246 0.972926
O O7 0.395093 0.724874 0.975740
O O8 0.309726 0.799221 0.969505
O O9 0.255837 0.347357 0.750000
O O10 0.224168 0.397168 0.030907
O O11 0.557220 0.310105 0.750000
O O12 0.500000 0.317032 0.468565
O O13 0.175217 0.430051 0.750000
O O14 0.116729 0.415875 0.027391
O O15 0.182874 0.500000 0.000000
O O16 0.442108 0.927608 0.750000
O O17 0.500000 0.911884 0.027448
O O18 0.442562 0.000000 0.000000
#
# Coordination Sequence:
#
# PCOD9475973 Si02
#       6
#    16  16  16  16  16  16
#     4   9  16  26  42  65  93 125 159 192 230 281
#     4   9  18  33  52  70  90 121 159 195 231 275
#     4   9  18  33  51  70  93 121 155 193 230 272
#     4   9  17  30  48  69  94 123 155 195 241 284
#     4   9  17  29  46  68  93 119 146 182 226 268
#     4   8  13  22  37  57  82 112 143 171 204 252
#
# _framework density 21.070540999999999
#
# number of rings (size 3 to 8) (size 9 to 14) (size 15 to 20)
#    0.000    3.167    0.000    0.500    0.000    3.333 
#    0.000    1.667    0.000    3.000    0.000    4.667 
#    0.000    0.000    0.000    0.000    0.000    0.000 
#
# Total GULP energy -267234.591980 kJ/mol
# GULP energy per Si atom -5567.387333 kJ/mol
# Density = 2.102258 g / cm^3
# Si number density = 21.070541 Si / 1000 Ang^3
#
#
#
# Elastic Constant Matrix: (Units=GPa)
#
#
# Indices 1 2 3 4 5 6 
#
# 1 44.9720 24.7606 -1.1357 0.0000 0.0000 0.0000
# 2 24.7606 39.3931 -11.9932 0.0000 0.0000 0.0000
# 3 -1.1357 -11.9932 46.2944 0.0000 0.0000 0.0000
# 4 0.0000 0.0000 0.0000 16.1248 0.0000 0.0000
# 5 0.0000 0.0000 0.0000 0.0000 8.1173 0.0000
# 6 0.0000 0.0000 0.0000 0.0000 0.0000 21.8752
#
#
#
# Elastic Compliance Matrix: (Units=1/GPa)
#
#
# Indices 1 2 3 4 5 6 
#
# 1 0.035153 -0.023702 -0.005278 0.000000 0.000000 0.000000
# 2 -0.023702 0.043540 0.010698 0.000000 0.000000 0.000000
# 3 -0.005278 0.010698 0.024243 0.000000 0.000000 0.000000
# 4 0.000000 0.000000 0.000000 0.062016 0.000000 0.000000
# 5 0.000000 0.000000 0.000000 0.000000 0.123194 0.000000
# 6 0.000000 0.000000 0.000000 0.000000 0.000000 0.045714
#
#
# Mechanical properties :
#
#
# Convention : Reuss Voigt Hill
#
# Bulk Modulus (GPa) = 15.06660 17.10256 16.08458
# Shear Modulus (GPa) = 12.73730 17.15863 14.94797
#
# Velocity S-wave (km/s) = 2.46134 2.85676 2.66639
# Velocity P-wave (km/s) = 3.90432 4.36072 4.13882
#
# Compressibility (1/GPa) = 0.06637196
#
# Stress axis : x y z
#
# Youngs Moduli (GPa) = 28.44730 22.96723 41.24910
#
# Poissons Ratio (x) = 0.54437 0.21771
# Poissons Ratio (y) = 0.67426 -0.44129
# Poissons Ratio (z) = 0.15015 -0.24571
#
# Static dielectric constant tensor:
#      x y z
#    x 1.824210 0.000000 0.000000 
#    y 0.000000 1.926090 0.000000 
#    z 0.000000 0.000000 1.764810 
# 
# From -- ./inp_files/12752.got.cif
#   From: 2010.05.17/outbox.cif.g08.bks.cpg/sg63_7_cif.got.tgz:12752.got - 2010.06.03 15:47:04.
