data_PCOD9475329
_publ_section_title
;
Structure prediction by ZEFSAII (Michael W. Deem and Ramdas Pophale) SiO2 
 PCOD9475329
Probable space group: C M C M
;
_chemical_formula_sum "Si O2"
_cell_formula_units_Z 68
_cell_length_a 7.741545
_cell_length_b 19.238426
_cell_length_c 18.794436
_cell_angle_alpha 90.000000
_cell_angle_beta 90.000000
_cell_angle_gamma 90.000000
_cell_volume 2799.151968
_symmetry_space_group_name_H-M "C M C M"
_symmetry_group_IT_number 63
_symmetry_cell_setting 'orthorhombic'
loop_
_space_group_symop_operation_xyz
x,y,z
-x,-y,1/2+z
x,-y,-z
-x,y,1/2-z
-x,-y,-z
x,y,1/2-z
-x,y,z
x,-y,1/2+z
1/2+x,1/2+y,z
1/2-x,1/2-y,1/2+z
1/2+x,1/2-y,-z
1/2-x,1/2+y,1/2-z
1/2-x,1/2-y,-z
1/2+x,1/2+y,1/2-z
1/2-x,1/2+y,z
1/2+x,1/2-y,1/2+z
loop_
_atom_site_type_symbol
_atom_site_label
_atom_site_fract_x
_atom_site_fract_y
_atom_site_fract_z
Si Si1 0.299264 0.613875 0.623783
Si Si2 0.307924 0.268360 0.855912
Si Si3 0.208759 0.627666 0.461888
Si Si4 0.500000 0.193484 0.250000
Si Si5 0.204269 0.536825 0.327907
O O1 0.500000 0.620327 0.642813
O O2 0.209425 0.685348 0.646170
O O3 0.278384 0.607272 0.538759
O O4 0.225860 0.545093 0.659872
O O5 0.500000 0.288110 0.832980
O O6 0.277286 0.298253 0.934910
O O7 0.152564 0.300204 0.810869
O O8 0.268277 0.575673 0.398515
O O9 0.000000 0.626858 0.466463
O O10 0.278331 0.555012 0.250000
O O11 0.000000 0.553175 0.323530
#
# Coordination Sequence:
#
# PCOD9475329 Si02
#       5
#    16  16  16   4  16
#     4  12  25  44  67 100 141 183 236 292 346 420
#     4  12  26  45  74 105 142 183 231 288 349 415
#     4  11  23  44  72 101 139 182 235 292 348 418
#     4  12  26  48  68 110 144 184 228 286 360 410
#     4  10  24  43  68  98 136 182 232 292 355 413
#
# _framework density 24.293071000000001
#
# number of rings (size 3 to 8) (size 9 to 14) (size 15 to 20)
#    0.000    0.706    2.353    4.588    3.294    5.176 
#    0.000    0.000    0.000    0.000    0.000    0.000 
#    0.000    0.000    0.000    0.000    0.000    0.000 
#
# Total GULP energy -190008.567666 kJ/mol
# GULP energy per Si atom -5588.487284 kJ/mol
# Density = 2.423778 g / cm^3
# Si number density = 24.293071 Si / 1000 Ang^3
#
#
#
# Elastic Constant Matrix: (Units=GPa)
#
#
# Indices 1 2 3 4 5 6 
#
# 1 137.5684 16.0472 27.1898 0.0000 0.0000 0.0000
# 2 16.0472 111.1230 5.7748 0.0000 0.0000 0.0000
# 3 27.1898 5.7748 106.6709 0.0000 0.0000 0.0000
# 4 0.0000 0.0000 0.0000 -368.4246 0.0000 0.0000
# 5 0.0000 0.0000 0.0000 0.0000 7.9075 0.0000
# 6 0.0000 0.0000 0.0000 0.0000 0.0000 27.7827
#
#
#
# Elastic Compliance Matrix: (Units=1/GPa)
#
#
# Indices 1 2 3 4 5 6 
#
# 1 0.007769 -0.001022 -0.001925 0.000000 0.000000 0.000000
# 2 -0.001022 0.009159 -0.000235 0.000000 0.000000 0.000000
# 3 -0.001925 -0.000235 0.009878 0.000000 0.000000 0.000000
# 4 0.000000 0.000000 0.000000 -0.002714 0.000000 0.000000
# 5 0.000000 0.000000 0.000000 0.000000 0.126462 0.000000
# 6 0.000000 0.000000 0.000000 0.000000 0.000000 0.035994
#
#
# Mechanical properties :
#
#
# Convention : Reuss Voigt Hill
#
# Bulk Modulus (GPa) = 48.92035 50.37622 49.64829
# Shear Modulus (GPa) = 25.03442 -46.12351 -10.54455
#
# Velocity S-wave (km/s) = 3.21365 -4.36205 -2.08566
# Velocity P-wave (km/s) = 5.82678 2.14199 3.83166
#
# Compressibility (1/GPa) = 0.02044139
#
# Stress axis : x y z
#
# Youngs Moduli (GPa) = 128.72072 109.18417 101.23493
#
# Poissons Ratio (x) = 0.11157 0.19487
# Poissons Ratio (y) = 0.13153 0.02383
# Poissons Ratio (z) = 0.24777 0.02570
#
# Static dielectric constant tensor:
#      x y z
#    x 1.865890 0.000000 0.000000 
#    y 0.000000 1.981870 0.000000 
#    z 0.000000 0.000000 1.886240 
# 
# From -- ./inp_files/39948.got.cif
#   From: 2010.05.17/outbox.cif.g08.bks.cpg/sg63_20_cif.got.tgz:39948.got - 2010.06.03 15:47:04.
