data_PCOD9475293
_publ_section_title
;
Structure prediction by ZEFSAII (Michael W. Deem and Ramdas Pophale) SiO2 
 PCOD9475293
Probable space group: C M C M
;
_chemical_formula_sum "Si O2"
_cell_formula_units_Z 96
_cell_length_a 8.255832
_cell_length_b 21.140608
_cell_length_c 25.384325
_cell_angle_alpha 90.000000
_cell_angle_beta 90.000000
_cell_angle_gamma 90.000000
_cell_volume 4430.410214
_symmetry_space_group_name_H-M "C M C M"
_symmetry_group_IT_number 63
_symmetry_cell_setting 'orthorhombic'
loop_
_space_group_symop_operation_xyz
x,y,z
-x,-y,1/2+z
x,-y,-z
-x,y,1/2-z
-x,-y,-z
x,y,1/2-z
-x,y,z
x,-y,1/2+z
1/2+x,1/2+y,z
1/2-x,1/2-y,1/2+z
1/2+x,1/2-y,-z
1/2-x,1/2+y,1/2-z
1/2-x,1/2-y,-z
1/2+x,1/2+y,1/2-z
1/2-x,1/2+y,z
1/2+x,1/2-y,1/2+z
loop_
_atom_site_type_symbol
_atom_site_label
_atom_site_fract_x
_atom_site_fract_y
_atom_site_fract_z
Si Si1 0.814339 0.220827 0.446785
Si Si2 0.310361 0.462160 0.606340
Si Si3 0.184168 0.225502 0.843613
Si Si4 0.807454 0.404652 0.386289
Si Si5 0.695901 0.140496 0.191417
Si Si6 0.308961 0.096950 0.009528
O O1 0.750000 0.250000 0.500000
O O2 0.696267 0.244984 0.401939
O O3 0.796639 0.147273 0.457915
O O4 0.000000 0.238638 0.434675
O O5 0.500000 0.459540 0.595312
O O6 0.269362 0.529765 0.632478
O O7 0.260748 0.406067 0.646361
O O8 0.215020 0.461368 0.549961
O O9 0.263209 0.156828 0.851678
O O10 0.255196 0.286208 0.812601
O O11 0.000000 0.215848 0.826042
O O12 0.756643 0.398523 0.448429
O O13 0.000000 0.411077 0.386462
O O14 0.734595 0.116727 0.250000
O O15 0.500000 0.142949 0.185593
O O16 0.500000 0.113011 0.010276
#
# Coordination Sequence:
#
# PCOD9475293 Si02
#       6
#    16  16  16  16  16  16
#     4  12  22  33  54  86 125 167 208 250 299 358
#     4  12  25  40  62  92 128 167 211 259 310 371
#     4  11  22  38  63  91 123 159 204 258 312 367
#     4  11  24  40  61  89 129 172 211 252 304 368
#     4  10  23  45  71  94 119 156 204 259 319 377
#     4  11  22  37  58  87 125 170 215 255 299 363
#
# _framework density 21.668420999999999
#
# number of rings (size 3 to 8) (size 9 to 14) (size 15 to 20)
#    0.000    0.833    3.333    5.000    0.000    5.000 
#    0.000    0.833    0.000    3.000    0.000    0.000 
#    0.000    0.000    0.000    0.000    0.000    0.000 
#
# Total GULP energy -267848.568775 kJ/mol
# GULP energy per Si atom -5580.178516 kJ/mol
# Density = 2.161910 g / cm^3
# Si number density = 21.668421 Si / 1000 Ang^3
#
#
#
# Elastic Constant Matrix: (Units=GPa)
#
#
# Indices 1 2 3 4 5 6 
#
# 1 69.1426 24.2323 14.1029 0.0000 0.0000 0.0000
# 2 24.2323 122.1171 23.1628 0.0000 0.0000 0.0000
# 3 14.1029 23.1628 90.1198 0.0000 0.0000 0.0000
# 4 0.0000 0.0000 0.0000 23.1024 0.0000 0.0000
# 5 0.0000 0.0000 0.0000 0.0000 12.2704 0.0000
# 6 0.0000 0.0000 0.0000 0.0000 0.0000 31.4730
#
#
#
# Elastic Compliance Matrix: (Units=1/GPa)
#
#
# Indices 1 2 3 4 5 6 
#
# 1 0.015803 -0.002803 -0.001752 0.000000 0.000000 0.000000
# 2 -0.002803 0.009106 -0.001902 0.000000 0.000000 0.000000
# 3 -0.001752 -0.001902 0.011859 0.000000 0.000000 0.000000
# 4 0.000000 0.000000 0.000000 0.043286 0.000000 0.000000
# 5 0.000000 0.000000 0.000000 0.000000 0.081497 0.000000
# 6 0.000000 0.000000 0.000000 0.000000 0.000000 0.031773
#
#
# Mechanical properties :
#
#
# Convention : Reuss Voigt Hill
#
# Bulk Modulus (GPa) = 41.92364 44.93062 43.42713
# Shear Modulus (GPa) = 23.34373 28.02790 25.68582
#
# Velocity S-wave (km/s) = 3.28581 3.60042 3.44670
# Velocity P-wave (km/s) = 5.81250 6.16965 5.99374
#
# Compressibility (1/GPa) = 0.02385289
#
# Stress axis : x y z
#
# Youngs Moduli (GPa) = 63.27979 109.81929 84.32157
#
# Poissons Ratio (x) = 0.30787 0.14777
# Poissons Ratio (y) = 0.17740 0.16035
# Poissons Ratio (z) = 0.11089 0.20884
#
# Static dielectric constant tensor:
#      x y z
#    x 1.740520 0.000000 0.000000 
#    y 0.000000 1.672460 0.000000 
#    z 0.000000 0.000000 1.766250 
# 
# From -- ./inp_files/66995.got.cif
#   From: 2010.05.17/outbox.cif.g08.bks.cpg/sg63_34_cif.got.tgz:66995.got - 2010.06.03 15:47:04.
