data_PCOD9475676
_publ_section_title
;
Structure prediction by ZEFSAII (Michael W. Deem and Ramdas Pophale) SiO2 
 PCOD9475676
Probable space group: C M C M
;
_chemical_formula_sum "Si O2"
_cell_formula_units_Z 64
_cell_length_a 14.260282
_cell_length_b 30.876511
_cell_length_c 7.462593
_cell_angle_alpha 90.000000
_cell_angle_beta 90.000000
_cell_angle_gamma 90.000000
_cell_volume 3285.837563
_symmetry_space_group_name_H-M "C M C M"
_symmetry_group_IT_number 63
_symmetry_cell_setting 'orthorhombic'
loop_
_space_group_symop_operation_xyz
x,y,z
-x,-y,1/2+z
x,-y,-z
-x,y,1/2-z
-x,-y,-z
x,y,1/2-z
-x,y,z
x,-y,1/2+z
1/2+x,1/2+y,z
1/2-x,1/2-y,1/2+z
1/2+x,1/2-y,-z
1/2-x,1/2+y,1/2-z
1/2-x,1/2-y,-z
1/2+x,1/2+y,1/2-z
1/2-x,1/2+y,z
1/2+x,1/2-y,1/2+z
loop_
_atom_site_type_symbol
_atom_site_label
_atom_site_fract_x
_atom_site_fract_y
_atom_site_fract_z
Si Si1 0.735966 0.953063 0.962259
Si Si2 0.606871 0.871857 0.967340
Si Si3 0.393118 0.560174 0.750000
Si Si4 0.105101 0.163816 0.750000
Si Si5 0.744672 0.699114 0.038657
O O1 0.754043 0.948691 0.750000
O O2 0.669451 0.913343 0.020750
O O3 0.831130 0.952458 0.077680
O O4 0.690830 0.000000 0.000000
O O5 0.603147 0.873095 0.750000
O O6 0.500000 0.873243 0.032509
O O7 0.662653 0.828089 0.015565
O O8 0.500000 0.543384 0.750000
O O9 0.397413 0.612136 0.750000
O O10 0.160686 0.179794 0.576756
O O11 0.000000 0.181204 0.750000
O O12 0.730691 0.692348 0.250000
O O13 0.750000 0.750000 0.000000
#
# Coordination Sequence:
#
# PCOD9475676 Si02
#       5
#    16  16   8   8  16
#     4  11  22  40  64  90 127 163 202 257 314 372
#     4   9  20  39  63  91 123 162 207 254 309 369
#     4  11  24  42  64  89 120 164 216 258 309 368
#     4  11  24  42  64  91 126 164 212 264 311 368
#     4  11  22  40  66  91 129 167 206 259 314 371
#
# _framework density 19.477530999999999
#
# number of rings (size 3 to 8) (size 9 to 14) (size 15 to 20)
#    0.000    1.500    5.000    0.000    0.000    3.000 
#    0.000    5.000    0.000    0.000    0.000    0.000 
#    0.000    0.000    0.000    0.000    0.000    0.000 
#
# Total GULP energy -178714.697420 kJ/mol
# GULP energy per Si atom -5584.834294 kJ/mol
# Density = 1.943320 g / cm^3
# Si number density = 19.477531 Si / 1000 Ang^3
#
#
#
# Elastic Constant Matrix: (Units=GPa)
#
#
# Indices 1 2 3 4 5 6 
#
# 1 169.1553 64.4366 54.0450 0.0000 0.0000 0.0000
# 2 64.4366 142.0589 18.4961 0.0000 0.0000 0.0000
# 3 54.0450 18.4961 116.5657 0.0000 0.0000 0.0000
# 4 0.0000 0.0000 0.0000 21.0531 0.0000 0.0000
# 5 0.0000 0.0000 0.0000 0.0000 27.0371 0.0000
# 6 0.0000 0.0000 0.0000 0.0000 0.0000 9.0773
#
#
#
# Elastic Compliance Matrix: (Units=1/GPa)
#
#
# Indices 1 2 3 4 5 6 
#
# 1 0.008219 -0.003300 -0.003287 0.000000 0.000000 0.000000
# 2 -0.003300 0.008513 0.000179 0.000000 0.000000 0.000000
# 3 -0.003287 0.000179 0.010074 0.000000 0.000000 0.000000
# 4 0.000000 0.000000 0.000000 0.047499 0.000000 0.000000
# 5 0.000000 0.000000 0.000000 0.000000 0.036986 0.000000
# 6 0.000000 0.000000 0.000000 0.000000 0.000000 0.110165
#
#
# Mechanical properties :
#
#
# Convention : Reuss Voigt Hill
#
# Bulk Modulus (GPa) = 71.47656 77.97059 74.72358
# Shear Modulus (GPa) = 20.92610 30.82032 25.87321
#
# Velocity S-wave (km/s) = 3.28132 3.98220 3.64862
# Velocity P-wave (km/s) = 7.15071 7.82699 7.49648
#
# Compressibility (1/GPa) = 0.01399060
#
# Stress axis : x y z
#
# Youngs Moduli (GPa) = 121.66842 117.46886 99.26121
#
# Poissons Ratio (x) = 0.38766 0.32628
# Poissons Ratio (y) = 0.40152 -0.01780
# Poissons Ratio (z) = 0.39993 -0.02106
#
# Static dielectric constant tensor:
#      x y z
#    x 1.667310 0.000000 0.000000 
#    y 0.000000 1.689220 0.000000 
#    z 0.000000 0.000000 1.698690 
# 
# From -- ./inp_files/3129.got.cif
#   From: 2010.05.17/outbox.cif.g08.bks.cpg/sg63_2_cif.got.tgz:3129.got - 2010.06.03 15:47:04.
