data_PCOD9475134
_publ_section_title
;
Structure prediction by ZEFSAII (Michael W. Deem and Ramdas Pophale) SiO2 
 PCOD9475134
Probable space group: C M C M
;
_chemical_formula_sum "Si O2"
_cell_formula_units_Z 88
_cell_length_a 13.965774
_cell_length_b 13.684804
_cell_length_c 26.465593
_cell_angle_alpha 90.000000
_cell_angle_beta 90.000000
_cell_angle_gamma 90.000000
_cell_volume 5058.074490
_symmetry_space_group_name_H-M "C M C M"
_symmetry_group_IT_number 63
_symmetry_cell_setting 'orthorhombic'
loop_
_space_group_symop_operation_xyz
x,y,z
-x,-y,1/2+z
x,-y,-z
-x,y,1/2-z
-x,-y,-z
x,y,1/2-z
-x,y,z
x,-y,1/2+z
1/2+x,1/2+y,z
1/2-x,1/2-y,1/2+z
1/2+x,1/2-y,-z
1/2-x,1/2+y,1/2-z
1/2-x,1/2-y,-z
1/2+x,1/2+y,1/2-z
1/2-x,1/2+y,z
1/2+x,1/2-y,1/2+z
loop_
_atom_site_type_symbol
_atom_site_label
_atom_site_fract_x
_atom_site_fract_y
_atom_site_fract_z
Si Si1 0.820070 0.555228 0.385147
Si Si2 0.000000 0.538093 0.942556
Si Si3 0.216593 0.781146 0.555556
Si Si4 0.500000 0.269077 0.959846
Si Si5 0.114092 0.279678 0.692633
Si Si6 0.000000 0.916726 0.044727
Si Si7 0.820803 0.885032 0.118109
O O1 0.773302 0.623025 0.428093
O O2 0.849354 0.629722 0.340908
O O3 0.741885 0.477729 0.366789
O O4 0.908850 0.500090 0.411077
O O5 0.000000 0.654029 0.950326
O O6 0.000000 0.500000 0.000000
O O7 0.250000 0.750000 0.500000
O O8 0.103479 0.802546 0.560441
O O9 0.250267 0.690766 0.589740
O O10 0.500000 0.310917 0.016906
O O11 0.151279 0.281583 0.750000
O O12 0.138634 0.178692 0.664205
O O13 0.000000 0.287780 0.693994
O O14 0.905875 0.918123 0.080028
O O15 0.000000 0.000000 0.000000
#
# Coordination Sequence:
#
# PCOD9475134 Si02
#       7
#    16   8  16   8  16   8  16
#     4  11  24  39  59  91 121 161 205 249 309 372
#     4  12  24  34  58  88 127 166 198 246 291 356
#     4  11  22  35  56  83 124 166 204 243 289 359
#     4  12  22  38  56  82 124 170 205 238 283 346
#     4  10  22  43  68  88 114 155 209 269 317 360
#     4  12  24  36  58  86 131 178 201 240 292 366
#     4  11  23  38  59  91 121 157 211 250 305 369
#
# _framework density 17.397924
#
# number of rings (size 3 to 8) (size 9 to 14) (size 15 to 20)
#    0.000    0.909    5.455    2.182    2.545    0.727 
#    0.000    0.000    0.000    0.000    0.000    3.818 
#    0.000    0.000    0.000    0.000    0.000    0.000 
#
# Total GULP energy -245566.150110 kJ/mol
# GULP energy per Si atom -5581.048866 kJ/mol
# Density = 1.735833 g / cm^3
# Si number density = 17.397924 Si / 1000 Ang^3
#
#
#
# Elastic Constant Matrix: (Units=GPa)
#
#
# Indices 1 2 3 4 5 6 
#
# 1 125.3203 47.7037 43.5491 0.0000 0.0000 0.0000
# 2 47.7037 124.7797 53.4766 0.0000 0.0000 0.0000
# 3 43.5491 53.4766 106.1168 0.0000 0.0000 0.0000
# 4 0.0000 0.0000 0.0000 18.1055 0.0000 0.0000
# 5 0.0000 0.0000 0.0000 0.0000 17.8036 0.0000
# 6 0.0000 0.0000 0.0000 0.0000 0.0000 29.8225
#
#
#
# Elastic Compliance Matrix: (Units=1/GPa)
#
#
# Indices 1 2 3 4 5 6 
#
# 1 0.009934 -0.002615 -0.002759 0.000000 0.000000 0.000000
# 2 -0.002615 0.010910 -0.004425 0.000000 0.000000 0.000000
# 3 -0.002759 -0.004425 0.012786 0.000000 0.000000 0.000000
# 4 0.000000 0.000000 0.000000 0.055232 0.000000 0.000000
# 5 0.000000 0.000000 0.000000 0.000000 0.056168 0.000000
# 6 0.000000 0.000000 0.000000 0.000000 0.000000 0.033532
#
#
# Mechanical properties :
#
#
# Convention : Reuss Voigt Hill
#
# Bulk Modulus (GPa) = 71.26670 71.74174 71.50422
# Shear Modulus (GPa) = 24.65036 27.24548 25.94792
#
# Velocity S-wave (km/s) = 3.76820 3.96159 3.86610
# Velocity P-wave (km/s) = 7.74494 7.88992 7.81777
#
# Compressibility (1/GPa) = 0.01403180
#
# Stress axis : x y z
#
# Youngs Moduli (GPa) = 100.66661 91.65612 78.21321
#
# Poissons Ratio (x) = 0.23972 0.21577
# Poissons Ratio (y) = 0.26329 0.34608
# Poissons Ratio (z) = 0.27771 0.40556
#
# Static dielectric constant tensor:
#      x y z
#    x 1.618550 0.000000 0.000000 
#    y 0.000000 1.593510 0.000000 
#    z 0.000000 0.000000 1.568340 
# 
# From -- ./inp_files/62715.got.cif
#   From: 2010.05.17/outbox.cif.g08.bks.cpg/sg63_32_cif.got.tgz:62715.got - 2010.06.03 15:47:04.
