data_PCOD9475576
_publ_section_title
;
Structure prediction by ZEFSAII (Michael W. Deem and Ramdas Pophale) SiO2 
 PCOD9475576
Probable space group: C M C M
;
_chemical_formula_sum "Si O2"
_cell_formula_units_Z 64
_cell_length_a 12.282811
_cell_length_b 18.679514
_cell_length_c 14.738190
_cell_angle_alpha 90.000000
_cell_angle_beta 90.000000
_cell_angle_gamma 90.000000
_cell_volume 3381.485215
_symmetry_space_group_name_H-M "C M C M"
_symmetry_group_IT_number 63
_symmetry_cell_setting 'orthorhombic'
loop_
_space_group_symop_operation_xyz
x,y,z
-x,-y,1/2+z
x,-y,-z
-x,y,1/2-z
-x,-y,-z
x,y,1/2-z
-x,y,z
x,-y,1/2+z
1/2+x,1/2+y,z
1/2-x,1/2-y,1/2+z
1/2+x,1/2-y,-z
1/2-x,1/2+y,1/2-z
1/2-x,1/2-y,-z
1/2+x,1/2+y,1/2-z
1/2-x,1/2+y,z
1/2+x,1/2-y,1/2+z
loop_
_atom_site_type_symbol
_atom_site_label
_atom_site_fract_x
_atom_site_fract_y
_atom_site_fract_z
Si Si1 0.124799 0.956105 0.404640
Si Si2 0.500000 0.161761 0.854620
Si Si3 0.777446 0.330008 0.469217
Si Si4 0.721295 0.079196 0.153874
Si Si5 0.000000 0.502460 0.110504
O O1 0.192070 0.881483 0.414175
O O2 0.000000 0.943389 0.375958
O O3 0.120554 0.000000 0.500000
O O4 0.191344 0.014863 0.348258
O O5 0.500000 0.189846 0.750000
O O6 0.609852 0.177130 0.912585
O O7 0.500000 0.076535 0.851965
O O8 0.750000 0.250000 0.500000
O O9 0.778713 0.372148 0.564945
O O10 0.732765 0.118638 0.250000
O O11 0.605596 0.041546 0.145629
O O12 0.000000 0.500000 0.000000
#
# Coordination Sequence:
#
# PCOD9475576 Si02
#       5
#    16   8  16  16   8
#     4   9  19  37  58  83 117 162 210 256 306 361
#     4  12  24  41  66  95 123 160 211 262 314 373
#     4  11  24  40  62  90 130 168 206 253 319 380
#     4  11  21  37  62  90 121 159 208 261 307 368
#     4  12  18  37  65  94 119 149 200 258 313 356
#
# _framework density 18.926596
#
# number of rings (size 3 to 8) (size 9 to 14) (size 15 to 20)
#    0.000    1.250    5.000    1.875    1.750    1.500 
#    0.000    0.000    0.000    0.000    0.000    0.000 
#    0.000    0.000    0.000    0.000    0.000    0.000 
#
# Total GULP energy -178152.016035 kJ/mol
# GULP energy per Si atom -5567.250501 kJ/mol
# Density = 1.888352 g / cm^3
# Si number density = 18.926596 Si / 1000 Ang^3
#
#
#
# Elastic Constant Matrix: (Units=GPa)
#
#
# Indices 1 2 3 4 5 6 
#
# 1 169.4016 63.8083 58.4703 0.0000 0.0000 0.0000
# 2 63.8083 120.3143 27.5073 0.0000 0.0000 0.0000
# 3 58.4703 27.5073 140.7853 0.0000 0.0000 0.0000
# 4 0.0000 0.0000 0.0000 -1.2599 0.0000 0.0000
# 5 0.0000 0.0000 0.0000 0.0000 9.3068 0.0000
# 6 0.0000 0.0000 0.0000 0.0000 0.0000 48.9883
#
#
#
# Elastic Compliance Matrix: (Units=1/GPa)
#
#
# Indices 1 2 3 4 5 6 
#
# 1 0.008248 -0.003759 -0.002691 0.000000 0.000000 0.000000
# 2 -0.003759 0.010413 -0.000473 0.000000 0.000000 0.000000
# 3 -0.002691 -0.000473 0.008313 0.000000 0.000000 0.000000
# 4 0.000000 0.000000 0.000000 -0.793744 0.000000 0.000000
# 5 0.000000 0.000000 0.000000 0.000000 0.107449 0.000000
# 6 0.000000 0.000000 0.000000 0.000000 0.000000 0.020413
#
#
# Mechanical properties :
#
#
# Convention : Reuss Voigt Hill
#
# Bulk Modulus (GPa) = 76.17609 81.11920 78.64764
# Shear Modulus (GPa) = -8.05561 30.12139 11.03289
#
# Velocity S-wave (km/s) = -2.06530 3.99367 2.41702
# Velocity P-wave (km/s) = 5.88628 8.01366 7.03090
#
# Compressibility (1/GPa) = 0.01312748
#
# Stress axis : x y z
#
# Youngs Moduli (GPa) = 121.24375 96.03036 120.29153
#
# Poissons Ratio (x) = 0.36098 0.32371
# Poissons Ratio (y) = 0.45575 0.05695
# Poissons Ratio (z) = 0.32627 0.04547
#
# Static dielectric constant tensor:
#      x y z
#    x 1.663640 0.000000 0.000000 
#    y 0.000000 1.619010 0.000000 
#    z 0.000000 0.000000 1.814880 
# 
# From -- ./inp_files/29170.got.cif
#   From: 2010.05.17/outbox.cif.g08.bks.cpg/sg63_15_cif.got.tgz:29170.got - 2010.06.03 15:47:04.
