data_PCOD9475996
_publ_section_title
;
Structure prediction by ZEFSAII (Michael W. Deem and Ramdas Pophale) SiO2 
 PCOD9475996
Probable space group: C M C M
;
_chemical_formula_sum "Si O2"
_cell_formula_units_Z 96
_cell_length_a 9.470450
_cell_length_b 32.148555
_cell_length_c 19.092364
_cell_angle_alpha 90.000000
_cell_angle_beta 90.000000
_cell_angle_gamma 90.000000
_cell_volume 5812.885633
_symmetry_space_group_name_H-M "C M C M"
_symmetry_group_IT_number 63
_symmetry_cell_setting 'orthorhombic'
loop_
_space_group_symop_operation_xyz
x,y,z
-x,-y,1/2+z
x,-y,-z
-x,y,1/2-z
-x,-y,-z
x,y,1/2-z
-x,y,z
x,-y,1/2+z
1/2+x,1/2+y,z
1/2-x,1/2-y,1/2+z
1/2+x,1/2-y,-z
1/2-x,1/2+y,1/2-z
1/2-x,1/2-y,-z
1/2+x,1/2+y,1/2-z
1/2-x,1/2+y,z
1/2+x,1/2-y,1/2+z
loop_
_atom_site_type_symbol
_atom_site_label
_atom_site_fract_x
_atom_site_fract_y
_atom_site_fract_z
Si Si1 0.662826 0.211908 0.664697
Si Si2 0.329681 0.547542 0.917116
Si Si3 0.337801 0.791820 0.835428
Si Si4 0.170662 0.045601 0.081645
Si Si5 0.167731 0.126066 0.333643
Si Si6 0.668931 0.118260 0.666851
O O1 0.663527 0.211905 0.750000
O O2 0.500000 0.218787 0.643558
O O3 0.761118 0.249573 0.640975
O O4 0.707463 0.165344 0.643794
O O5 0.500000 0.550676 0.909581
O O6 0.284317 0.500693 0.895560
O O7 0.252826 0.583137 0.874078
O O8 0.295894 0.551373 0.999750
O O9 0.336271 0.791225 0.750000
O O10 0.500000 0.793525 0.858044
O O11 0.251727 0.832880 0.856363
O O12 0.219036 0.084497 0.127476
O O13 0.000000 0.045037 0.086274
O O14 0.184640 0.121100 0.250000
O O15 0.000000 0.131669 0.347057
O O16 0.696836 0.114867 0.750000
O O17 0.500000 0.114025 0.657112
#
# Coordination Sequence:
#
# PCOD9475996 Si02
#       6
#    16  16  16  16  16  16
#     4   8  14  26  43  61  85 119 151 176 212 266
#     4   9  17  31  50  68  89 119 154 190 226 266
#     4   9  16  25  39  63  93 117 141 181 226 262
#     4   8  16  31  48  67  91 119 152 189 226 265
#     4   9  16  27  45  66  88 118 153 183 217 267
#     4   9  18  31  46  68  97 122 147 185 228 267
#
# _framework density 16.515034
#
# number of rings (size 3 to 8) (size 9 to 14) (size 15 to 20)
#    0.000    3.333    0.000    2.500    0.000    3.667 
#    0.000    6.667    0.000    3.000    0.000    0.000 
#    0.000    0.000    0.000    0.000    0.000    0.000 
#
# Total GULP energy -267215.738955 kJ/mol
# GULP energy per Si atom -5566.994562 kJ/mol
# Density = 1.647744 g / cm^3
# Si number density = 16.515034 Si / 1000 Ang^3
#
#
#
# Elastic Constant Matrix: (Units=GPa)
#
#
# Indices 1 2 3 4 5 6 
#
# 1 58.6435 86.7263 30.2604 0.0000 0.0000 0.0000
# 2 86.7263 212.2266 58.9900 0.0000 0.0000 0.0000
# 3 30.2604 58.9900 21.6970 0.0000 0.0000 0.0000
# 4 0.0000 0.0000 0.0000 -14.3160 0.0000 0.0000
# 5 0.0000 0.0000 0.0000 0.0000 14.7477 0.0000
# 6 0.0000 0.0000 0.0000 0.0000 0.0000 25.9280
#
#
#
# Elastic Compliance Matrix: (Units=1/GPa)
#
#
# Indices 1 2 3 4 5 6 
#
# 1 0.062277 -0.005350 -0.072311 0.000000 0.000000 0.000000
# 2 -0.005350 0.019748 -0.046231 0.000000 0.000000 0.000000
# 3 -0.072311 -0.046231 0.272632 0.000000 0.000000 0.000000
# 4 0.000000 0.000000 0.000000 -0.069852 0.000000 0.000000
# 5 0.000000 0.000000 0.000000 0.000000 0.067807 0.000000
# 6 0.000000 0.000000 0.000000 0.000000 0.000000 0.038568
#
#
# Mechanical properties :
#
#
# Convention : Reuss Voigt Hill
#
# Bulk Modulus (GPa) = 9.35672 71.61338 40.48505
# Shear Modulus (GPa) = 7.41191 13.04463 10.22827
#
# Velocity S-wave (km/s) = 2.12078 2.81350 2.49134
# Velocity P-wave (km/s) = 3.41685 7.34922 5.73088
#
# Compressibility (1/GPa) = 0.10687501
#
# Stress axis : x y z
#
# Youngs Moduli (GPa) = 16.05722 50.63688 3.66794
#
# Poissons Ratio (x) = 0.27092 0.26523
# Poissons Ratio (y) = 0.08591 0.16957
# Poissons Ratio (z) = 1.16111 2.34097
#
# Static dielectric constant tensor:
#      x y z
#    x 1.546920 0.000000 0.000000 
#    y 0.000000 1.563060 0.000000 
#    z 0.000000 0.000000 1.539950 
# 
# From -- ./inp_files/60235.got.cif
#   From: 2010.05.17/outbox.cif.g08.bks.cpg/sg63_31_cif.got.tgz:60235.got - 2010.06.03 15:47:04.
