data_PCOD9475199
_publ_section_title
;
Structure prediction by ZEFSAII (Michael W. Deem and Ramdas Pophale) SiO2 
 PCOD9475199
Probable space group: C M C M
;
_chemical_formula_sum "Si O2"
_cell_formula_units_Z 116
_cell_length_a 24.764575
_cell_length_b 12.262211
_cell_length_c 18.052231
_cell_angle_alpha 90.000000
_cell_angle_beta 90.000000
_cell_angle_gamma 90.000000
_cell_volume 5481.892898
_symmetry_space_group_name_H-M "C M C M"
_symmetry_group_IT_number 63
_symmetry_cell_setting 'orthorhombic'
loop_
_space_group_symop_operation_xyz
x,y,z
-x,-y,1/2+z
x,-y,-z
-x,y,1/2-z
-x,-y,-z
x,y,1/2-z
-x,y,z
x,-y,1/2+z
1/2+x,1/2+y,z
1/2-x,1/2-y,1/2+z
1/2+x,1/2-y,-z
1/2-x,1/2+y,1/2-z
1/2-x,1/2-y,-z
1/2+x,1/2+y,1/2-z
1/2-x,1/2+y,z
1/2+x,1/2-y,1/2+z
loop_
_atom_site_type_symbol
_atom_site_label
_atom_site_fract_x
_atom_site_fract_y
_atom_site_fract_z
Si Si1 0.559961 0.191569 0.517733
Si Si2 0.332465 0.876401 0.833772
Si Si3 0.334032 0.074517 0.937747
Si Si4 0.643939 0.481079 0.584605
Si Si5 0.907837 0.813473 0.128327
Si Si6 0.000000 0.134611 0.750000
Si Si7 0.230030 0.788114 0.919800
Si Si8 0.439339 0.670078 0.334112
O O1 0.500000 0.143450 0.505106
O O2 0.612850 0.116522 0.518935
O O3 0.569181 0.281805 0.453420
O O4 0.560284 0.240649 0.600905
O O5 0.317646 0.897302 0.750000
O O6 0.383835 0.798209 0.840151
O O7 0.282146 0.815318 0.871809
O O8 0.345216 0.989360 0.873642
O O9 0.305932 0.181090 0.902128
O O10 0.302952 0.000000 0.000000
O O11 0.625812 0.500000 0.500000
O O12 0.642289 0.602441 0.617962
O O13 0.694424 0.398738 0.580428
O O14 0.601883 0.418310 0.636354
O O15 0.952601 0.857979 0.184369
O O16 0.250000 0.750000 0.000000
O O17 0.426771 0.706970 0.250000
O O18 0.500000 0.623026 0.331412
#
# Coordination Sequence:
#
# PCOD9475199 Si02
#       8
#    16  16  16  16  16   4  16  16
#     4  11  22  45  74 105 141 193 254 297 362 453
#     4  12  29  49  73 108 149 188 249 313 373 449
#     4  12  24  46  75 106 141 189 248 309 366 440
#     4  12  25  42  73 107 144 191 253 307 366 456
#     4  12  25  47  74 113 148 197 252 301 381 450
#     4  12  28  48  78 110 172 200 230 328 382 456
#     4  12  26  48  76 105 142 196 251 310 377 440
#     4  10  23  40  64  99 145 188 235 304 369 436
#
# _framework density 21.160574
#
# number of rings (size 3 to 8) (size 9 to 14) (size 15 to 20)
#    0.000    0.414    6.897    0.828    5.793    2.207 
#    1.241    0.000    0.000    0.000    0.000    0.000 
#    0.000    0.000    0.000    0.000    0.000    0.000 
#
# Total GULP energy -323089.012094 kJ/mol
# GULP energy per Si atom -5570.500209 kJ/mol
# Density = 2.111241 g / cm^3
# Si number density = 21.160574 Si / 1000 Ang^3
#
#
#
# Elastic Constant Matrix: (Units=GPa)
#
#
# Indices 1 2 3 4 5 6 
#
# 1 83.5246 29.5278 16.6394 0.0000 0.0000 0.0000
# 2 29.5278 88.6789 11.6710 0.0000 0.0000 0.0000
# 3 16.6394 11.6710 131.1520 0.0000 0.0000 0.0000
# 4 0.0000 0.0000 0.0000 16.0728 0.0000 0.0000
# 5 0.0000 0.0000 0.0000 0.0000 30.0681 0.0000
# 6 0.0000 0.0000 0.0000 0.0000 0.0000 10.0002
#
#
#
# Elastic Compliance Matrix: (Units=1/GPa)
#
#
# Indices 1 2 3 4 5 6 
#
# 1 0.013805 -0.004418 -0.001358 0.000000 0.000000 0.000000
# 2 -0.004418 0.012824 -0.000581 0.000000 0.000000 0.000000
# 3 -0.001358 -0.000581 0.007849 0.000000 0.000000 0.000000
# 4 0.000000 0.000000 0.000000 0.062217 0.000000 0.000000
# 5 0.000000 0.000000 0.000000 0.000000 0.033258 0.000000
# 6 0.000000 0.000000 0.000000 0.000000 0.000000 0.099998
#
#
# Mechanical properties :
#
#
# Convention : Reuss Voigt Hill
#
# Bulk Modulus (GPa) = 45.94751 46.55911 46.25331
# Shear Modulus (GPa) = 20.00652 27.59606 23.80129
#
# Velocity S-wave (km/s) = 3.07817 3.61519 3.35743
# Velocity P-wave (km/s) = 5.86467 6.28304 6.07746
#
# Compressibility (1/GPa) = 0.02176397
#
# Stress axis : x y z
#
# Youngs Moduli (GPa) = 72.43781 77.97807 127.40894
#
# Poissons Ratio (x) = 0.34450 0.17306
# Poissons Ratio (y) = 0.32002 0.07399
# Poissons Ratio (z) = 0.09839 0.04528
#
# Static dielectric constant tensor:
#      x y z
#    x 1.825770 0.000000 0.000000 
#    y 0.000000 1.752300 0.000000 
#    z 0.000000 0.000000 1.755510 
# 
# From -- ./inp_files/49097.got.cif
#   From: 2010.05.17/outbox.cif.g08.bks.cpg/sg63_25_cif.got.tgz:49097.got - 2010.06.03 15:47:04.
