data_PCOD9475231
_publ_section_title
;
Structure prediction by ZEFSAII (Michael W. Deem and Ramdas Pophale) SiO2 
 PCOD9475231
Probable space group: C M C M
;
_chemical_formula_sum "Si O2"
_cell_formula_units_Z 116
_cell_length_a 15.463603
_cell_length_b 12.457753
_cell_length_c 27.789432
_cell_angle_alpha 90.000000
_cell_angle_beta 90.000000
_cell_angle_gamma 90.000000
_cell_volume 5353.404719
_symmetry_space_group_name_H-M "C M C M"
_symmetry_group_IT_number 63
_symmetry_cell_setting 'orthorhombic'
loop_
_space_group_symop_operation_xyz
x,y,z
-x,-y,1/2+z
x,-y,-z
-x,y,1/2-z
-x,-y,-z
x,y,1/2-z
-x,y,z
x,-y,1/2+z
1/2+x,1/2+y,z
1/2-x,1/2-y,1/2+z
1/2+x,1/2-y,-z
1/2-x,1/2+y,1/2-z
1/2-x,1/2-y,-z
1/2+x,1/2+y,1/2-z
1/2-x,1/2+y,z
1/2+x,1/2-y,1/2+z
loop_
_atom_site_type_symbol
_atom_site_label
_atom_site_fract_x
_atom_site_fract_y
_atom_site_fract_z
Si Si1 0.355253 0.819665 0.019773
Si Si2 0.000000 0.500000 0.500000
Si Si3 0.901163 0.716735 0.876595
Si Si4 0.661607 0.394707 0.471409
Si Si5 0.844071 0.687112 0.195026
Si Si6 0.604522 0.394727 0.137337
Si Si7 0.399204 0.048871 0.696855
Si Si8 0.146994 0.895908 0.805320
O O1 0.352915 0.770207 0.073559
O O2 0.260810 0.871599 0.012812
O O3 0.424801 0.912458 0.014959
O O4 0.379664 0.720168 0.985386
O O5 0.860079 0.621099 0.844844
O O6 0.901889 0.819264 0.842397
O O7 0.000000 0.688542 0.888950
O O8 0.630025 0.500000 0.500000
O O9 0.646594 0.413163 0.414915
O O10 0.862875 0.722418 0.250000
O O11 0.868284 0.779169 0.158127
O O12 0.894980 0.576530 0.186060
O O13 0.744830 0.648734 0.192959
O O14 0.500000 0.401353 0.133932
O O15 0.637975 0.484498 0.174669
O O16 0.359622 0.066903 0.750000
O O17 0.500000 0.080702 0.699782
O O18 0.117077 0.888019 0.750000
#
# Coordination Sequence:
#
# PCOD9475231 Si02
#       8
#    16   4  16  16  16  16  16  16
#     4  11  25  46  72 106 139 178 235 294 363 420
#     4  12  24  48  78 108 136 176 228 298 356 432
#     4  11  22  39  65  97 128 171 220 275 333 407
#     4  11  26  48  71  99 142 187 228 296 360 422
#     4  10  23  42  66  95 134 178 223 278 338 406
#     4  12  27  45  70 103 135 185 239 287 348 416
#     4   9  19  36  60  93 129 165 207 263 329 397
#     4  11  25  42  65  98 139 182 226 282 344 411
#
# _framework density 21.668454000000001
#
# number of rings (size 3 to 8) (size 9 to 14) (size 15 to 20)
#    0.000    1.241    1.379    3.310    4.828    5.517 
#    0.000    0.000    0.000    0.000    0.000    0.000 
#    0.000    0.000    0.000    0.000    0.000    0.000 
#
# Total GULP energy -323658.298442 kJ/mol
# GULP energy per Si atom -5580.315490 kJ/mol
# Density = 2.161914 g / cm^3
# Si number density = 21.668454 Si / 1000 Ang^3
#
#
#
# Elastic Constant Matrix: (Units=GPa)
#
#
# Indices 1 2 3 4 5 6 
#
# 1 47.4420 0.5414 -12.3786 0.0000 0.0000 0.0000
# 2 0.5414 59.8886 30.2565 0.0000 0.0000 0.0000
# 3 -12.3786 30.2565 62.7290 0.0000 0.0000 0.0000
# 4 0.0000 0.0000 0.0000 -55.2104 0.0000 0.0000
# 5 0.0000 0.0000 0.0000 0.0000 -316.5566 0.0000
# 6 0.0000 0.0000 0.0000 0.0000 0.0000 -37.9797
#
#
#
# Elastic Compliance Matrix: (Units=1/GPa)
#
#
# Indices 1 2 3 4 5 6 
#
# 1 0.022695 -0.003263 0.006052 0.000000 0.000000 0.000000
# 2 -0.003263 0.022547 -0.011519 0.000000 0.000000 0.000000
# 3 0.006052 -0.011519 0.022692 0.000000 0.000000 0.000000
# 4 0.000000 0.000000 0.000000 -0.018113 0.000000 0.000000
# 5 0.000000 0.000000 0.000000 0.000000 -0.003159 0.000000
# 6 0.000000 0.000000 0.000000 0.000000 0.000000 -0.026330
#
#
# Mechanical properties :
#
#
# Convention : Reuss Voigt Hill
#
# Bulk Modulus (GPa) = 19.81205 22.98867 21.40036
# Shear Modulus (GPa) = 91.54812 -71.84000 9.85406
#
# Velocity S-wave (km/s) = 6.50701 -5.76421 2.13484
# Velocity P-wave (km/s) = 8.10050 5.80252 3.99680
#
# Compressibility (1/GPa) = 0.05047433
#
# Stress axis : x y z
#
# Youngs Moduli (GPa) = 44.06299 44.35232 44.06845
#
# Poissons Ratio (x) = 0.14472 -0.26671
# Poissons Ratio (y) = 0.14377 0.50762
# Poissons Ratio (z) = -0.26668 0.51089
#
# Static dielectric constant tensor:
#      x y z
#    x 2.234680 0.000000 0.000000 
#    y 0.000000 1.801140 0.000000 
#    z 0.000000 0.000000 1.750790 
# 
# From -- ./inp_files/70041.got.cif
#   From: 2010.05.17/outbox.cif.g08.bks.cpg/sg63_36_cif.got.tgz:70041.got - 2010.06.03 15:47:04.
