data_PCOD9475670
_publ_section_title
;
Structure prediction by ZEFSAII (Michael W. Deem and Ramdas Pophale) SiO2 
 PCOD9475670
Probable space group: C M C M
;
_chemical_formula_sum "Si O2"
_cell_formula_units_Z 104
_cell_length_a 14.959707
_cell_length_b 14.722487
_cell_length_c 22.901196
_cell_angle_alpha 90.000000
_cell_angle_beta 90.000000
_cell_angle_gamma 90.000000
_cell_volume 5043.853115
_symmetry_space_group_name_H-M "C M C M"
_symmetry_group_IT_number 63
_symmetry_cell_setting 'orthorhombic'
loop_
_space_group_symop_operation_xyz
x,y,z
-x,-y,1/2+z
x,-y,-z
-x,y,1/2-z
-x,-y,-z
x,y,1/2-z
-x,y,z
x,-y,1/2+z
1/2+x,1/2+y,z
1/2-x,1/2-y,1/2+z
1/2+x,1/2-y,-z
1/2-x,1/2+y,1/2-z
1/2-x,1/2-y,-z
1/2+x,1/2+y,1/2-z
1/2-x,1/2+y,z
1/2+x,1/2-y,1/2+z
loop_
_atom_site_type_symbol
_atom_site_label
_atom_site_fract_x
_atom_site_fract_y
_atom_site_fract_z
Si Si1 0.098271 0.595802 0.398385
Si Si2 0.901612 0.609607 0.877482
Si Si3 0.821520 0.000000 0.000000
Si Si4 0.605989 0.541137 0.375567
Si Si5 0.279669 0.379185 0.181922
Si Si6 0.250616 0.169353 0.179954
Si Si7 0.689570 0.164637 0.513743
O O1 0.093811 0.488272 0.408727
O O2 0.169789 0.611485 0.347910
O O3 0.130055 0.642812 0.457495
O O4 0.000000 0.628031 0.380918
O O5 0.824503 0.599528 0.829918
O O6 0.000000 0.632306 0.854725
O O7 0.869081 0.676497 0.928385
O O8 0.756898 0.080162 0.977586
O O9 0.877342 0.037033 0.054746
O O10 0.500000 0.542794 0.362713
O O11 0.655306 0.449936 0.350642
O O12 0.660613 0.626622 0.348189
O O13 0.300775 0.385986 0.250000
O O14 0.279744 0.272665 0.164508
O O15 0.244026 0.162943 0.250000
O O16 0.750000 0.250000 0.500000
#
# Coordination Sequence:
#
# PCOD9475670 Si02
#       7
#    16  16   8  16  16  16  16
#     4  11  22  39  65  95 127 166 213 270 332 395
#     4  11  22  39  65  95 127 166 213 270 332 395
#     4  12  23  44  65  94 132 166 219 274 325 396
#     4  12  26  46  71  99 135 179 227 279 341 406
#     4  11  24  44  68  95 132 177 223 276 333 395
#     4  11  24  44  68  95 132 177 223 276 333 395
#     4  12  21  39  66  89 129 177 212 265 335 392
#
# _framework density 20.619157000000001
#
# number of rings (size 3 to 8) (size 9 to 14) (size 15 to 20)
#    0.000    0.615    6.154    2.077    0.000    4.308 
#    0.000    6.154    0.000    0.000    0.000    0.000 
#    0.000    0.000    0.000    0.000    0.000    0.000 
#
# Total GULP energy -290432.478444 kJ/mol
# GULP energy per Si atom -5585.239970 kJ/mol
# Density = 2.057223 g / cm^3
# Si number density = 20.619157 Si / 1000 Ang^3
#
#
#
# Elastic Constant Matrix: (Units=GPa)
#
#
# Indices 1 2 3 4 5 6 
#
# 1 135.6171 12.8959 1.0689 0.0000 0.0000 0.0000
# 2 12.8959 57.6067 -1.2881 0.0000 0.0000 0.0000
# 3 1.0689 -1.2881 47.4032 0.0000 0.0000 0.0000
# 4 0.0000 0.0000 0.0000 22.2941 0.0000 0.0000
# 5 0.0000 0.0000 0.0000 0.0000 1.9831 0.0000
# 6 0.0000 0.0000 0.0000 0.0000 0.0000 21.1367
#
#
#
# Elastic Compliance Matrix: (Units=1/GPa)
#
#
# Indices 1 2 3 4 5 6 
#
# 1 0.007536 -0.001692 -0.000216 0.000000 0.000000 0.000000
# 2 -0.001692 0.017749 0.000520 0.000000 0.000000 0.000000
# 3 -0.000216 0.000520 0.021115 0.000000 0.000000 0.000000
# 4 0.000000 0.000000 0.000000 0.044855 0.000000 0.000000
# 5 0.000000 0.000000 0.000000 0.000000 0.504272 0.000000
# 6 0.000000 0.000000 0.000000 0.000000 0.000000 0.047311
#
#
# Mechanical properties :
#
#
# Convention : Reuss Voigt Hill
#
# Bulk Modulus (GPa) = 22.92227 29.55337 26.23782
# Shear Modulus (GPa) = 7.57398 24.27947 15.92672
#
# Velocity S-wave (km/s) = 1.91866 3.43522 2.78227
# Velocity P-wave (km/s) = 4.00618 5.48620 4.80353
#
# Compressibility (1/GPa) = 0.04362569
#
# Stress axis : x y z
#
# Youngs Moduli (GPa) = 132.69136 56.33967 47.36057
#
# Poissons Ratio (x) = 0.09532 0.01023
# Poissons Ratio (y) = 0.22450 -0.02465
# Poissons Ratio (z) = 0.02865 -0.02932
#
# Static dielectric constant tensor:
#      x y z
#    x 1.735860 0.000000 0.000000 
#    y 0.000000 1.786110 0.000000 
#    z 0.000000 0.000000 1.706970 
# 
# From -- ./inp_files/62958.got.cif
#   From: 2010.05.17/outbox.cif.g08.bks.cpg/sg63_32_cif.got.tgz:62958.got - 2010.06.03 15:47:04.
