data_PCOD9475948
_publ_section_title
;
Structure prediction by ZEFSAII (Michael W. Deem and Ramdas Pophale) SiO2 
 PCOD9475948
Probable space group: C M C M
;
_chemical_formula_sum "Si O2"
_cell_formula_units_Z 80
_cell_length_a 7.331266
_cell_length_b 38.353482
_cell_length_c 14.140233
_cell_angle_alpha 90.000000
_cell_angle_beta 90.000000
_cell_angle_gamma 90.000000
_cell_volume 3975.944756
_symmetry_space_group_name_H-M "C M C M"
_symmetry_group_IT_number 63
_symmetry_cell_setting 'orthorhombic'
loop_
_space_group_symop_operation_xyz
x,y,z
-x,-y,1/2+z
x,-y,-z
-x,y,1/2-z
-x,-y,-z
x,y,1/2-z
-x,y,z
x,-y,1/2+z
1/2+x,1/2+y,z
1/2-x,1/2-y,1/2+z
1/2+x,1/2-y,-z
1/2-x,1/2+y,1/2-z
1/2-x,1/2-y,-z
1/2+x,1/2+y,1/2-z
1/2-x,1/2+y,z
1/2+x,1/2-y,1/2+z
loop_
_atom_site_type_symbol
_atom_site_label
_atom_site_fract_x
_atom_site_fract_y
_atom_site_fract_z
Si Si1 0.719741 0.802468 0.951351
Si Si2 0.284445 0.770439 0.145356
Si Si3 0.722016 0.053599 0.453768
Si Si4 0.277899 0.981800 0.356003
Si Si5 0.277159 0.874583 0.640554
O O1 0.500000 0.803956 0.956044
O O2 0.763866 0.770094 0.883040
O O3 0.783274 0.839224 0.910729
O O4 0.788294 0.792301 0.056086
O O5 0.209051 0.777000 0.250000
O O6 0.500000 0.777669 0.149387
O O7 0.500000 0.053941 0.453469
O O8 0.779277 0.044322 0.560587
O O9 0.782423 0.090429 0.412852
O O10 0.775735 0.020748 0.388640
O O11 0.216538 0.973930 0.250000
O O12 0.500000 0.981435 0.355357
O O13 0.221619 0.875010 0.750000
O O14 0.500000 0.874552 0.639789
#
# Coordination Sequence:
#
# PCOD9475948 Si02
#       5
#    16  16  16  16  16
#     4   9  17  28  42  60  79 100 130 162 190 228
#     4   9  17  29  43  58  78 103 128 157 195 233
#     4   8  13  19  27  41  60  83 114 148 178 210
#     4   8  12  18  27  38  56  85 117 144 172 212
#     4   9  15  22  33  49  68  89 116 153 190 218
#
# _framework density 20.121003999999999
#
# number of rings (size 3 to 8) (size 9 to 14) (size 15 to 20)
#    0.000    3.400    0.000    2.400    0.000    3.600 
#    0.000    1.000    0.000    6.000    0.000    0.000 
#    0.000    0.000    0.000    3.600    0.000   10.400 
#
# Total GULP energy -223146.166975 kJ/mol
# GULP energy per Si atom -5578.654174 kJ/mol
# Density = 2.007521 g / cm^3
# Si number density = 20.121004 Si / 1000 Ang^3
#
#
#
# Elastic Constant Matrix: (Units=GPa)
#
#
# Indices 1 2 3 4 5 6 
#
# 1 78.4015 -2.2893 4.3778 0.0000 0.0000 0.0000
# 2 -2.2893 151.4865 100.9257 0.0000 0.0000 0.0000
# 3 4.3778 100.9257 203.1438 0.0000 0.0000 0.0000
# 4 0.0000 0.0000 0.0000 16.4738 0.0000 0.0000
# 5 0.0000 0.0000 0.0000 0.0000 -7.4266 0.0000
# 6 0.0000 0.0000 0.0000 0.0000 0.0000 0.1653
#
#
#
# Elastic Compliance Matrix: (Units=1/GPa)
#
#
# Indices 1 2 3 4 5 6 
#
# 1 0.012802 0.000564 -0.000556 0.000000 0.000000 0.000000
# 2 0.000564 0.009892 -0.004927 0.000000 0.000000 0.000000
# 3 -0.000556 -0.004927 0.007382 0.000000 0.000000 0.000000
# 4 0.000000 0.000000 0.000000 0.060702 0.000000 0.000000
# 5 0.000000 0.000000 0.000000 0.000000 -0.134652 0.000000
# 6 0.000000 0.000000 0.000000 0.000000 0.000000 6.047821
#
#
# Mechanical properties :
#
#
# Convention : Reuss Voigt Hill
#
# Bulk Modulus (GPa) = 49.40939 71.00668 60.20804
# Shear Modulus (GPa) = 0.83049 23.84369 12.33709
#
# Velocity S-wave (km/s) = 0.64315 3.44614 2.47886
# Velocity P-wave (km/s) = 5.01607 7.15548 6.17907
#
# Compressibility (1/GPa) = 0.02023907
#
# Stress axis : x y z
#
# Youngs Moduli (GPa) = 78.11050 101.09026 135.45889
#
# Poissons Ratio (x) = -0.05701 0.07532
# Poissons Ratio (y) = -0.04405 0.66737
# Poissons Ratio (z) = 0.04344 0.49805
#
# Static dielectric constant tensor:
#      x y z
#    x 1.921910 0.000000 0.000000 
#    y 0.000000 1.658210 0.000000 
#    z 0.000000 0.000000 1.706680 
# 
# From -- ./inp_files/30226.got.cif
#   From: 2010.05.17/outbox.cif.g08.bks.cpg/sg63_16_cif.got.tgz:30226.got - 2010.06.03 15:47:04.
