data_PCOD9475865
_publ_section_title
;
Structure prediction by ZEFSAII (Michael W. Deem and Ramdas Pophale) SiO2 
 PCOD9475865
Probable space group: C M C M
;
_chemical_formula_sum "Si O2"
_cell_formula_units_Z 52
_cell_length_a 10.217740
_cell_length_b 14.663623
_cell_length_c 16.529105
_cell_angle_alpha 90.000000
_cell_angle_beta 90.000000
_cell_angle_gamma 90.000000
_cell_volume 2476.540716
_symmetry_space_group_name_H-M "C M C M"
_symmetry_group_IT_number 63
_symmetry_cell_setting 'orthorhombic'
loop_
_space_group_symop_operation_xyz
x,y,z
-x,-y,1/2+z
x,-y,-z
-x,y,1/2-z
-x,-y,-z
x,y,1/2-z
-x,y,z
x,-y,1/2+z
1/2+x,1/2+y,z
1/2-x,1/2-y,1/2+z
1/2+x,1/2-y,-z
1/2-x,1/2+y,1/2-z
1/2-x,1/2-y,-z
1/2+x,1/2+y,1/2-z
1/2-x,1/2+y,z
1/2+x,1/2-y,1/2+z
loop_
_atom_site_type_symbol
_atom_site_label
_atom_site_fract_x
_atom_site_fract_y
_atom_site_fract_z
Si Si1 0.500000 0.788837 0.250000
Si Si2 0.348868 0.512755 0.156815
Si Si3 0.352115 0.863030 0.937863
Si Si4 0.268370 0.819863 0.380011
O O1 0.384958 0.793209 0.320280
O O2 0.333463 0.544309 0.250000
O O3 0.500000 0.526839 0.133732
O O4 0.252227 0.567402 0.099000
O O5 0.310627 0.406901 0.152267
O O6 0.500000 0.894800 0.923664
O O7 0.325058 0.766246 0.895180
O O8 0.326882 0.848056 0.032720
#
# Coordination Sequence:
#
# PCOD9475865 Si02
#       4
#     4  16  16  16
#     4  12  24  44  76 104 128 190 222 292 324 422
#     4  11  26  44  68 100 140 184 228 278 339 403
#     4  11  26  44  70 103 135 177 227 282 341 407
#     4  11  25  45  72  96 140 175 228 281 346 398
#
# _framework density 20.997031
#
# number of rings (size 3 to 8) (size 9 to 14) (size 15 to 20)
#    0.000    0.923    3.077    1.846    6.462    5.538 
#    0.000    0.000    0.000    0.000    0.000    0.000 
#    0.000    0.000    0.000    0.000    0.000    0.000 
#
# Total GULP energy -145020.575573 kJ/mol
# GULP energy per Si atom -5577.714445 kJ/mol
# Density = 2.094924 g / cm^3
# Si number density = 20.997031 Si / 1000 Ang^3
#
#
#
# Elastic Constant Matrix: (Units=GPa)
#
#
# Indices 1 2 3 4 5 6 
#
# 1 151.2359 6.5093 61.7953 0.0000 0.0000 0.0000
# 2 6.5093 44.6276 17.0450 0.0000 0.0000 0.0000
# 3 61.7953 17.0450 119.5027 0.0000 0.0000 0.0000
# 4 0.0000 0.0000 0.0000 80.1543 0.0000 0.0000
# 5 0.0000 0.0000 0.0000 0.0000 25.1148 0.0000
# 6 0.0000 0.0000 0.0000 0.0000 0.0000 6.9777
#
#
#
# Elastic Compliance Matrix: (Units=1/GPa)
#
#
# Indices 1 2 3 4 5 6 
#
# 1 0.008392 0.000458 -0.004405 0.000000 0.000000 0.000000
# 2 0.000458 0.023724 -0.003621 0.000000 0.000000 0.000000
# 3 -0.004405 -0.003621 0.011162 0.000000 0.000000 0.000000
# 4 0.000000 0.000000 0.000000 0.012476 0.000000 0.000000
# 5 0.000000 0.000000 0.000000 0.000000 0.039817 0.000000
# 6 0.000000 0.000000 0.000000 0.000000 0.000000 0.143313
#
#
# Mechanical properties :
#
#
# Convention : Reuss Voigt Hill
#
# Bulk Modulus (GPa) = 35.53233 54.00728 44.76980
# Shear Modulus (GPa) = 18.98249 37.78381 28.38315
#
# Velocity S-wave (km/s) = 3.01001 4.24663 3.68063
# Velocity P-wave (km/s) = 5.38883 7.05850 6.27941
#
# Compressibility (1/GPa) = 0.02814339
#
# Stress axis : x y z
#
# Youngs Moduli (GPa) = 119.15545 42.15191 89.58677
#
# Poissons Ratio (x) = -0.01932 0.39464
# Poissons Ratio (y) = -0.05462 0.32438
# Poissons Ratio (z) = 0.52489 0.15262
#
# Static dielectric constant tensor:
#      x y z
#    x 1.691940 0.000000 0.000000 
#    y 0.000000 1.773470 0.000000 
#    z 0.000000 0.000000 1.742950 
# 
# From -- ./inp_files/39500.got.cif
#   From: 2010.05.17/outbox.cif.g08.bks.cpg/sg63_20_cif.got.tgz:39500.got - 2010.06.03 15:47:04.
