data_PCOD9475398
_publ_section_title
;
Structure prediction by ZEFSAII (Michael W. Deem and Ramdas Pophale) SiO2 
 PCOD9475398
Probable space group: C M C M
;
_chemical_formula_sum "Si O2"
_cell_formula_units_Z 68
_cell_length_a 23.905879
_cell_length_b 6.977697
_cell_length_c 14.586837
_cell_angle_alpha 90.000000
_cell_angle_beta 90.000000
_cell_angle_gamma 90.000000
_cell_volume 2433.200817
_symmetry_space_group_name_H-M "C M C M"
_symmetry_group_IT_number 63
_symmetry_cell_setting 'orthorhombic'
loop_
_space_group_symop_operation_xyz
x,y,z
-x,-y,1/2+z
x,-y,-z
-x,y,1/2-z
-x,-y,-z
x,y,1/2-z
-x,y,z
x,-y,1/2+z
1/2+x,1/2+y,z
1/2-x,1/2-y,1/2+z
1/2+x,1/2-y,-z
1/2-x,1/2+y,1/2-z
1/2-x,1/2-y,-z
1/2+x,1/2+y,1/2-z
1/2-x,1/2+y,z
1/2+x,1/2-y,1/2+z
loop_
_atom_site_type_symbol
_atom_site_label
_atom_site_fract_x
_atom_site_fract_y
_atom_site_fract_z
Si Si1 0.296531 0.225636 0.644616
Si Si2 0.500000 0.991094 0.250000
Si Si3 0.675696 0.327027 0.354295
Si Si4 0.062518 0.052096 0.862751
Si Si5 0.584329 0.112549 0.589688
O O1 0.288347 0.158752 0.750000
O O2 0.234267 0.235380 0.602427
O O3 0.347773 0.107021 0.603205
O O4 0.317040 0.442994 0.648938
O O5 0.450783 0.975725 0.172152
O O6 0.672972 0.252699 0.250000
O O7 0.613963 0.316870 0.395992
O O8 0.066783 0.035255 0.750000
O O9 0.068321 0.839378 0.904148
O O10 0.000000 0.122625 0.880612
O O11 0.568252 0.000000 0.500000
#
# Coordination Sequence:
#
# PCOD9475398 Si02
#       5
#    16   4  16  16  16
#     4   9  16  31  45  70  99 133 171 209 250 300
#     4  12  18  32  44  70 108 130 160 212 260 300
#     4   8  15  25  47  68  93 132 167 206 258 297
#     4   9  14  26  42  65  92 121 160 213 250 283
#     4  11  19  28  47  73 100 131 164 206 260 306
#
# _framework density 27.946726000000002
#
# number of rings (size 3 to 8) (size 9 to 14) (size 15 to 20)
#    0.000    2.588    3.529    1.765    0.000    0.000 
#    0.000    4.706    0.000    0.000    3.059    0.000 
#    0.000    2.824    0.000    0.941    0.000    0.941 
#
# Total GULP energy -190034.213727 kJ/mol
# GULP energy per Si atom -5589.241580 kJ/mol
# Density = 2.788312 g / cm^3
# Si number density = 27.946726 Si / 1000 Ang^3
#
#
#
# Elastic Constant Matrix: (Units=GPa)
#
#
# Indices 1 2 3 4 5 6 
#
# 1 301.8772 43.5654 41.2109 0.0000 0.0000 0.0000
# 2 43.5654 92.9960 23.8989 0.0000 0.0000 0.0000
# 3 41.2109 23.8989 120.1684 0.0000 0.0000 0.0000
# 4 0.0000 0.0000 0.0000 28.3184 0.0000 0.0000
# 5 0.0000 0.0000 0.0000 0.0000 -42.6259 0.0000
# 6 0.0000 0.0000 0.0000 0.0000 0.0000 43.8327
#
#
#
# Elastic Compliance Matrix: (Units=1/GPa)
#
#
# Indices 1 2 3 4 5 6 
#
# 1 0.003655 -0.001465 -0.000962 0.000000 0.000000 0.000000
# 2 -0.001465 0.011920 -0.001868 0.000000 0.000000 0.000000
# 3 -0.000962 -0.001868 0.009023 0.000000 0.000000 0.000000
# 4 0.000000 0.000000 0.000000 0.035313 0.000000 0.000000
# 5 0.000000 0.000000 0.000000 0.000000 -0.023460 0.000000
# 6 0.000000 0.000000 0.000000 0.000000 0.000000 0.022814
#
#
# Mechanical properties :
#
#
# Convention : Reuss Voigt Hill
#
# Bulk Modulus (GPa) = 62.47163 81.37689 71.92426
# Shear Modulus (GPa) = 68.31377 32.99613 50.65495
#
# Velocity S-wave (km/s) = 4.94948 3.43983 4.26203
# Velocity P-wave (km/s) = 7.42061 6.70510 7.07191
#
# Compressibility (1/GPa) = 0.01600727
#
# Stress axis : x y z
#
# Youngs Moduli (GPa) = 273.56757 83.89547 110.82596
#
# Poissons Ratio (x) = 0.12292 0.10664
# Poissons Ratio (y) = 0.40082 0.20703
# Poissons Ratio (z) = 0.26323 0.15672
#
# Static dielectric constant tensor:
#      x y z
#    x 2.221000 0.000000 0.000000 
#    y 0.000000 2.212830 0.000000 
#    z 0.000000 0.000000 2.063580 
# 
# From -- ./inp_files/34950.got.cif
#   From: 2010.05.17/outbox.cif.g08.bks.cpg/sg63_18_cif.got.tgz:34950.got - 2010.06.03 15:47:04.
