data_PCOD9475347
_publ_section_title
;
Structure prediction by ZEFSAII (Michael W. Deem and Ramdas Pophale) SiO2 
 PCOD9475347
Probable space group: C M C M
;
_chemical_formula_sum "Si O2"
_cell_formula_units_Z 68
_cell_length_a 18.231058
_cell_length_b 9.527766
_cell_length_c 15.560471
_cell_angle_alpha 90.000000
_cell_angle_beta 90.000000
_cell_angle_gamma 90.000000
_cell_volume 2702.873334
_symmetry_space_group_name_H-M "C M C M"
_symmetry_group_IT_number 63
_symmetry_cell_setting 'orthorhombic'
loop_
_space_group_symop_operation_xyz
x,y,z
-x,-y,1/2+z
x,-y,-z
-x,y,1/2-z
-x,-y,-z
x,y,1/2-z
-x,y,z
x,-y,1/2+z
1/2+x,1/2+y,z
1/2-x,1/2-y,1/2+z
1/2+x,1/2-y,-z
1/2-x,1/2+y,1/2-z
1/2-x,1/2-y,-z
1/2+x,1/2+y,1/2-z
1/2-x,1/2+y,z
1/2+x,1/2-y,1/2+z
loop_
_atom_site_type_symbol
_atom_site_label
_atom_site_fract_x
_atom_site_fract_y
_atom_site_fract_z
Si Si1 0.500000 0.675384 0.250000
Si Si2 0.895676 0.240080 0.091682
Si Si3 0.279687 0.463469 0.900842
Si Si4 0.117441 0.470107 0.845577
Si Si5 0.080893 0.844410 0.399251
O O1 0.437419 0.685024 0.174110
O O2 0.907241 0.406592 0.090836
O O3 0.810919 0.195006 0.101594
O O4 0.918971 0.167578 0.002958
O O5 0.205566 0.473508 0.848677
O O6 0.348391 0.562741 0.874628
O O7 0.262270 0.500000 0.000000
O O8 0.091052 0.507369 0.750000
O O9 0.091933 0.314489 0.867515
O O10 0.000000 0.893293 0.369330
#
# Coordination Sequence:
#
# PCOD9475347 Si02
#       5
#     4  16  16  16  16
#     4  12  24  40  64 106 130 176 222 282 322 414
#     4  11  24  43  70  93 134 177 226 269 337 408
#     4  10  24  45  69  96 130 175 225 274 338 409
#     4  12  26  43  65  99 137 177 225 277 338 402
#     4  11  25  44  71 101 134 174 226 285 339 391
#
# _framework density 25.158411999999998
#
# number of rings (size 3 to 8) (size 9 to 14) (size 15 to 20)
#    0.000    0.941    2.353    3.529    4.941    9.412 
#    0.000    0.000    0.000    0.000    0.000    0.000 
#    0.000    0.000    0.000    0.000    0.000    0.000 
#
# Total GULP energy -189962.875118 kJ/mol
# GULP energy per Si atom -5587.143386 kJ/mol
# Density = 2.510115 g / cm^3
# Si number density = 25.158412 Si / 1000 Ang^3
#
#
#
# Elastic Constant Matrix: (Units=GPa)
#
#
# Indices 1 2 3 4 5 6 
#
# 1 131.8314 18.0379 16.7680 0.0000 0.0000 0.0000
# 2 18.0379 132.0522 8.3016 0.0000 0.0000 0.0000
# 3 16.7680 8.3016 74.5977 0.0000 0.0000 0.0000
# 4 0.0000 0.0000 0.0000 -9.5224 0.0000 0.0000
# 5 0.0000 0.0000 0.0000 0.0000 32.3154 0.0000
# 6 0.0000 0.0000 0.0000 0.0000 0.0000 12.4110
#
#
#
# Elastic Compliance Matrix: (Units=1/GPa)
#
#
# Indices 1 2 3 4 5 6 
#
# 1 0.007932 -0.000978 -0.001674 0.000000 0.000000 0.000000
# 2 -0.000978 0.007747 -0.000642 0.000000 0.000000 0.000000
# 3 -0.001674 -0.000642 0.013853 0.000000 0.000000 0.000000
# 4 0.000000 0.000000 0.000000 -0.105016 0.000000 0.000000
# 5 0.000000 0.000000 0.000000 0.000000 0.030945 0.000000
# 6 0.000000 0.000000 0.000000 0.000000 0.000000 0.080574
#
#
# Mechanical properties :
#
#
# Convention : Reuss Voigt Hill
#
# Bulk Modulus (GPa) = 43.58663 47.18845 45.38754
# Shear Modulus (GPa) = 99.45983 26.73240 63.09612
#
# Velocity S-wave (km/s) = 6.29438 3.26323 5.01338
# Velocity P-wave (km/s) = 8.37784 5.74417 7.18275
#
# Compressibility (1/GPa) = 0.02294281
#
# Stress axis : x y z
#
# Youngs Moduli (GPa) = 126.06787 129.08616 72.18642
#
# Poissons Ratio (x) = 0.12628 0.12085
# Poissons Ratio (y) = 0.12333 0.04636
# Poissons Ratio (z) = 0.21105 0.08290
#
# Static dielectric constant tensor:
#      x y z
#    x 1.976160 0.000000 0.000000 
#    y 0.000000 2.048790 0.000000 
#    z 0.000000 0.000000 1.902640 
# 
# From -- ./inp_files/46640.got.cif
#   From: 2010.05.17/outbox.cif.g08.bks.cpg/sg63_24_cif.got.tgz:46640.got - 2010.06.03 15:47:04.
