data_PCOD9475024
_publ_section_title
;
Structure prediction by ZEFSAII (Michael W. Deem and Ramdas Pophale) SiO2 
 PCOD9475024
Probable space group: C M C M
;
_chemical_formula_sum "Si O2"
_cell_formula_units_Z 72
_cell_length_a 27.399707
_cell_length_b 14.982722
_cell_length_c 8.714268
_cell_angle_alpha 90.000000
_cell_angle_beta 90.000000
_cell_angle_gamma 90.000000
_cell_volume 3577.400409
_symmetry_space_group_name_H-M "C M C M"
_symmetry_group_IT_number 63
_symmetry_cell_setting 'orthorhombic'
loop_
_space_group_symop_operation_xyz
x,y,z
-x,-y,1/2+z
x,-y,-z
-x,y,1/2-z
-x,-y,-z
x,y,1/2-z
-x,y,z
x,-y,1/2+z
1/2+x,1/2+y,z
1/2-x,1/2-y,1/2+z
1/2+x,1/2-y,-z
1/2-x,1/2+y,1/2-z
1/2-x,1/2-y,-z
1/2+x,1/2+y,1/2-z
1/2-x,1/2+y,z
1/2+x,1/2-y,1/2+z
loop_
_atom_site_type_symbol
_atom_site_label
_atom_site_fract_x
_atom_site_fract_y
_atom_site_fract_z
Si Si1 0.767936 0.843967 0.931905
Si Si2 0.371953 0.403730 0.432419
Si Si3 0.910475 0.272178 0.067109
Si Si4 0.000000 0.600385 0.564458
Si Si5 0.172205 0.413329 0.432384
O O1 0.774552 0.836910 0.750000
O O2 0.750000 0.750000 0.000000
O O3 0.817957 0.878598 0.005122
O O4 0.722495 0.905982 0.975723
O O5 0.385858 0.500000 0.500000
O O6 0.370179 0.408838 0.250000
O O7 0.406867 0.322800 0.484974
O O8 0.915317 0.257104 0.250000
O O9 0.860112 0.325657 0.041096
O O10 0.953242 0.339774 0.019016
O O11 0.000000 0.500000 0.500000
O O12 0.000000 0.593339 0.750000
O O13 0.145347 0.500000 0.500000
O O14 0.180130 0.421349 0.250000
#
# Coordination Sequence:
#
# PCOD9475024 Si02
#       5
#    16  16  16   8  16
#     4  12  23  38  59  87 124 165 211 256 308 365
#     4  12  25  42  65  91 124 167 213 260 314 371
#     4  10  22  41  64  91 126 163 207 259 312 371
#     4  10  22  42  69 100 131 166 203 252 314 376
#     4  11  22  36  57  86 123 164 207 254 305 363
#
# _framework density 20.126346000000002
#
# number of rings (size 3 to 8) (size 9 to 14) (size 15 to 20)
#    0.000    0.889    2.222    6.000    0.000    1.778 
#    0.000    0.556    0.000    0.000    0.000    0.000 
#    0.000    0.000    0.000    0.000    0.000    0.000 
#
# Total GULP energy -201309.824682 kJ/mol
# GULP energy per Si atom -5591.939574 kJ/mol
# Density = 2.008054 g / cm^3
# Si number density = 20.126346 Si / 1000 Ang^3
#
#
#
# Elastic Constant Matrix: (Units=GPa)
#
#
# Indices 1 2 3 4 5 6 
#
# 1 86.0380 47.3050 35.5529 0.0000 0.0000 0.0000
# 2 47.3050 193.2278 79.5027 0.0000 0.0000 0.0000
# 3 35.5529 79.5027 120.2535 0.0000 0.0000 0.0000
# 4 0.0000 0.0000 0.0000 41.1417 0.0000 0.0000
# 5 0.0000 0.0000 0.0000 0.0000 18.8344 0.0000
# 6 0.0000 0.0000 0.0000 0.0000 0.0000 28.8420
#
#
#
# Elastic Compliance Matrix: (Units=1/GPa)
#
#
# Indices 1 2 3 4 5 6 
#
# 1 0.013986 -0.002366 -0.002570 0.000000 0.000000 0.000000
# 2 -0.002366 0.007509 -0.004265 0.000000 0.000000 0.000000
# 3 -0.002570 -0.004265 0.011895 0.000000 0.000000 0.000000
# 4 0.000000 0.000000 0.000000 0.024306 0.000000 0.000000
# 5 0.000000 0.000000 0.000000 0.000000 0.053094 0.000000
# 6 0.000000 0.000000 0.000000 0.000000 0.000000 0.034672
#
#
# Mechanical properties :
#
#
# Convention : Reuss Voigt Hill
#
# Bulk Modulus (GPa) = 66.72417 80.47117 73.59767
# Shear Modulus (GPa) = 29.60985 33.57419 31.59202
#
# Velocity S-wave (km/s) = 3.83978 4.08876 3.96622
# Velocity P-wave (km/s) = 7.27208 7.89686 7.59090
#
# Compressibility (1/GPa) = 0.01498707
#
# Stress axis : x y z
#
# Youngs Moduli (GPa) = 71.50001 133.16664 84.06567
#
# Poissons Ratio (x) = 0.31512 0.21609
# Poissons Ratio (y) = 0.16919 0.35854
# Poissons Ratio (z) = 0.18379 0.56796
#
# Static dielectric constant tensor:
#      x y z
#    x 1.744990 0.000000 0.000000 
#    y 0.000000 1.758980 0.000000 
#    z 0.000000 0.000000 1.667870 
# 
# From -- ./inp_files/11681.got.cif
#   From: 2010.05.17/outbox.cif.g08.bks.cpg/sg63_6_cif.got.tgz:11681.got - 2010.06.03 15:47:04.
