data_PCOD9475537
_publ_section_title
;
Structure prediction by ZEFSAII (Michael W. Deem and Ramdas Pophale) SiO2 
 PCOD9475537
Probable space group: C M C M
;
_chemical_formula_sum "Si O2"
_cell_formula_units_Z 64
_cell_length_a 17.567719
_cell_length_b 9.988514
_cell_length_c 19.429829
_cell_angle_alpha 90.000000
_cell_angle_beta 90.000000
_cell_angle_gamma 90.000000
_cell_volume 3409.457155
_symmetry_space_group_name_H-M "C M C M"
_symmetry_group_IT_number 63
_symmetry_cell_setting 'orthorhombic'
loop_
_space_group_symop_operation_xyz
x,y,z
-x,-y,1/2+z
x,-y,-z
-x,y,1/2-z
-x,-y,-z
x,y,1/2-z
-x,y,z
x,-y,1/2+z
1/2+x,1/2+y,z
1/2-x,1/2-y,1/2+z
1/2+x,1/2-y,-z
1/2-x,1/2+y,1/2-z
1/2-x,1/2-y,-z
1/2+x,1/2+y,1/2-z
1/2-x,1/2+y,z
1/2+x,1/2-y,1/2+z
loop_
_atom_site_type_symbol
_atom_site_label
_atom_site_fract_x
_atom_site_fract_y
_atom_site_fract_z
Si Si1 0.412373 0.851368 0.830820
Si Si2 0.588382 0.691529 0.445396
Si Si3 0.364484 0.591543 0.597640
Si Si4 0.812549 0.550804 0.578856
O O1 0.403130 0.877737 0.750000
O O2 0.500000 0.880877 0.850385
O O3 0.395703 0.696326 0.847522
O O4 0.355144 0.940835 0.875319
O O5 0.500000 0.729995 0.446838
O O6 0.599605 0.556063 0.401762
O O7 0.614712 0.653521 0.522742
O O8 0.640294 0.811776 0.419221
O O9 0.273774 0.575640 0.601911
O O10 0.810317 0.500000 0.500000
#
# Coordination Sequence:
#
# PCOD9475537 Si02
#       4
#    16  16  16  16
#     4  11  25  43  61  85 122 164 202 243 301 368
#     4  11  21  34  59  93 120 149 194 249 296 347
#     4  11  21  38  60  88 120 155 193 247 299 354
#     4  12  22  38  63  92 122 155 200 253 303 351
#
# _framework density 18.771315999999999
#
# number of rings (size 3 to 8) (size 9 to 14) (size 15 to 20)
#    0.000    0.750    5.000    6.000    0.000    2.000 
#    0.000    1.250    0.000    4.500    0.000    0.000 
#    0.000    0.000    0.000    0.000    0.000    0.000 
#
# Total GULP energy -178957.842726 kJ/mol
# GULP energy per Si atom -5592.432585 kJ/mol
# Density = 1.872859 g / cm^3
# Si number density = 18.771316 Si / 1000 Ang^3
#
#
#
# Elastic Constant Matrix: (Units=GPa)
#
#
# Indices 1 2 3 4 5 6 
#
# 1 115.6493 -16.7631 13.3165 0.0000 0.0000 0.0000
# 2 -16.7631 42.3005 -8.7361 0.0000 0.0000 0.0000
# 3 13.3165 -8.7361 33.8970 0.0000 0.0000 0.0000
# 4 0.0000 0.0000 0.0000 18.9444 0.0000 0.0000
# 5 0.0000 0.0000 0.0000 0.0000 9.6975 0.0000
# 6 0.0000 0.0000 0.0000 0.0000 0.0000 53.9331
#
#
#
# Elastic Compliance Matrix: (Units=1/GPa)
#
#
# Indices 1 2 3 4 5 6 
#
# 1 0.009436 0.003141 -0.002897 0.000000 0.000000 0.000000
# 2 0.003141 0.026015 0.005471 0.000000 0.000000 0.000000
# 3 -0.002897 0.005471 0.032049 0.000000 0.000000 0.000000
# 4 0.000000 0.000000 0.000000 0.052786 0.000000 0.000000
# 5 0.000000 0.000000 0.000000 0.000000 0.103119 0.000000
# 6 0.000000 0.000000 0.000000 0.000000 0.000000 0.018541
#
#
# Mechanical properties :
#
#
# Convention : Reuss Voigt Hill
#
# Bulk Modulus (GPa) = 12.66969 18.60905 15.63937
# Shear Modulus (GPa) = 19.46831 30.11698 24.79264
#
# Velocity S-wave (km/s) = 3.22395 4.00986 3.63819
# Velocity P-wave (km/s) = 4.54121 5.60122 5.09884
#
# Compressibility (1/GPa) = 0.07892855
#
# Stress axis : x y z
#
# Youngs Moduli (GPa) = 105.98044 38.43952 31.20193
#
# Poissons Ratio (x) = -0.12073 0.09040
# Poissons Ratio (y) = -0.33287 -0.17070
# Poissons Ratio (z) = 0.30706 -0.21030
#
# Static dielectric constant tensor:
#      x y z
#    x 1.631140 0.000000 0.000000 
#    y 0.000000 1.647900 0.000000 
#    z 0.000000 0.000000 1.639800 
# 
# From -- ./inp_files/55008.got.cif
#   From: 2010.05.17/outbox.cif.g08.bks.cpg/sg63_28_cif.got.tgz:55008.got - 2010.06.03 15:47:04.
