data_PCOD9475037
_publ_section_title
;
Structure prediction by ZEFSAII (Michael W. Deem and Ramdas Pophale) SiO2 
 PCOD9475037
Probable space group: C M C M
;
_chemical_formula_sum "Si O2"
_cell_formula_units_Z 48
_cell_length_a 15.509984
_cell_length_b 10.073482
_cell_length_c 12.314837
_cell_angle_alpha 90.000000
_cell_angle_beta 90.000000
_cell_angle_gamma 90.000000
_cell_volume 1924.064525
_symmetry_space_group_name_H-M "C M C M"
_symmetry_group_IT_number 63
_symmetry_cell_setting 'orthorhombic'
loop_
_space_group_symop_operation_xyz
x,y,z
-x,-y,1/2+z
x,-y,-z
-x,y,1/2-z
-x,-y,-z
x,y,1/2-z
-x,y,z
x,-y,1/2+z
1/2+x,1/2+y,z
1/2-x,1/2-y,1/2+z
1/2+x,1/2-y,-z
1/2-x,1/2+y,1/2-z
1/2-x,1/2-y,-z
1/2+x,1/2+y,1/2-z
1/2-x,1/2+y,z
1/2+x,1/2-y,1/2+z
loop_
_atom_site_type_symbol
_atom_site_label
_atom_site_fract_x
_atom_site_fract_y
_atom_site_fract_z
Si Si1 0.162948 0.703117 0.942770
Si Si2 0.596598 0.939763 0.634156
Si Si3 0.897483 0.027760 0.371533
O O1 0.163645 0.558757 0.886104
O O2 0.125528 0.816460 0.868312
O O3 0.250000 0.750000 0.000000
O O4 0.101353 0.671282 0.044028
O O5 0.613117 0.878245 0.750000
O O6 0.500000 0.998263 0.632751
O O7 0.867403 0.974105 0.250000
O O8 0.000000 0.003652 0.373223
O O9 0.867996 0.000000 0.500000
#
# Coordination Sequence:
#
# PCOD9475037 Si02
#       3
#    16  16  16
#     4  11  23  38  60  94 127 165 211 267 333 388
#     4  10  22  42  67  91 121 168 223 274 326 394
#     4  10  22  41  65  93 129 174 220 264 320 394
#
# _framework density 24.947188000000001
#
# number of rings (size 3 to 8) (size 9 to 14) (size 15 to 20)
#    0.000    1.667    0.000    5.000    4.667    6.667 
#    0.000    3.333    0.000    0.000    0.000    0.000 
#    0.000    0.000    0.000    0.000    0.000    0.000 
#
# Total GULP energy -133666.717529 kJ/mol
# GULP energy per Si atom -5569.446564 kJ/mol
# Density = 2.489041 g / cm^3
# Si number density = 24.947188 Si / 1000 Ang^3
#
#
#
# Elastic Constant Matrix: (Units=GPa)
#
#
# Indices 1 2 3 4 5 6 
#
# 1 72.3189 21.9158 11.8817 0.0000 0.0000 0.0000
# 2 21.9158 56.3541 30.0596 0.0000 0.0000 0.0000
# 3 11.8817 30.0596 239.7753 0.0000 0.0000 0.0000
# 4 0.0000 0.0000 0.0000 10.1481 0.0000 0.0000
# 5 0.0000 0.0000 0.0000 0.0000 12.4964 0.0000
# 6 0.0000 0.0000 0.0000 0.0000 0.0000 30.2785
#
#
#
# Elastic Compliance Matrix: (Units=1/GPa)
#
#
# Indices 1 2 3 4 5 6 
#
# 1 0.015675 -0.006089 -0.000013 0.000000 0.000000 0.000000
# 2 -0.006089 0.021382 -0.002379 0.000000 0.000000 0.000000
# 3 -0.000013 -0.002379 0.004469 0.000000 0.000000 0.000000
# 4 0.000000 0.000000 0.000000 0.098541 0.000000 0.000000
# 5 0.000000 0.000000 0.000000 0.000000 0.080023 0.000000
# 6 0.000000 0.000000 0.000000 0.000000 0.000000 0.033027
#
#
# Mechanical properties :
#
#
# Convention : Reuss Voigt Hill
#
# Bulk Modulus (GPa) = 40.70973 55.12917 47.91945
# Shear Modulus (GPa) = 17.96836 30.89067 24.42951
#
# Velocity S-wave (km/s) = 2.68667 3.52268 3.13269
# Velocity P-wave (km/s) = 5.09687 6.22029 5.68639
#
# Compressibility (1/GPa) = 0.02456415
#
# Stress axis : x y z
#
# Youngs Moduli (GPa) = 63.79584 46.76896 223.74076
#
# Poissons Ratio (x) = 0.28477 0.00301
# Poissons Ratio (y) = 0.38844 0.53224
# Poissons Ratio (z) = 0.00086 0.11125
#
# Static dielectric constant tensor:
#      x y z
#    x 1.905450 0.000000 0.000000 
#    y 0.000000 1.983570 0.000000 
#    z 0.000000 0.000000 2.085430 
# 
# From -- ./inp_files/20296.got.cif
#   From: 2010.05.17/outbox.cif.g08.bks.cpg/sg63_11_cif.got.tgz:20296.got - 2010.06.03 15:47:04.
