data_PCOD9475459
_publ_section_title
;
Structure prediction by ZEFSAII (Michael W. Deem and Ramdas Pophale) SiO2 
 PCOD9475459
Probable space group: C M C M
;
_chemical_formula_sum "Si O2"
_cell_formula_units_Z 88
_cell_length_a 21.092612
_cell_length_b 8.628486
_cell_length_c 26.492969
_cell_angle_alpha 90.000000
_cell_angle_beta 90.000000
_cell_angle_gamma 90.000000
_cell_volume 4821.649022
_symmetry_space_group_name_H-M "C M C M"
_symmetry_group_IT_number 63
_symmetry_cell_setting 'orthorhombic'
loop_
_space_group_symop_operation_xyz
x,y,z
-x,-y,1/2+z
x,-y,-z
-x,y,1/2-z
-x,-y,-z
x,y,1/2-z
-x,y,z
x,-y,1/2+z
1/2+x,1/2+y,z
1/2-x,1/2-y,1/2+z
1/2+x,1/2-y,-z
1/2-x,1/2+y,1/2-z
1/2-x,1/2-y,-z
1/2+x,1/2+y,1/2-z
1/2-x,1/2+y,z
1/2+x,1/2-y,1/2+z
loop_
_atom_site_type_symbol
_atom_site_label
_atom_site_fract_x
_atom_site_fract_y
_atom_site_fract_z
Si Si1 0.607728 0.500000 0.000000
Si Si2 0.769504 0.616463 0.192675
Si Si3 0.572537 0.308327 0.403088
Si Si4 0.822871 0.451413 0.902427
Si Si5 0.207903 0.774049 0.950717
Si Si6 0.347649 0.431299 0.191356
O O1 0.573401 0.595786 0.955704
O O2 0.652273 0.386612 0.967378
O O3 0.778592 0.566923 0.250000
O O4 0.814942 0.517448 0.156576
O O5 0.695320 0.583414 0.182485
O O6 0.796488 0.790427 0.188219
O O7 0.500000 0.268167 0.391107
O O8 0.617342 0.158403 0.412097
O O9 0.603759 0.398360 0.354681
O O10 0.818515 0.609990 0.932553
O O11 0.758653 0.353128 0.913636
O O12 0.250000 0.750000 0.000000
O O13 0.372000 0.431770 0.250000
#
# Coordination Sequence:
#
# PCOD9475459 Si02
#       6
#     8  16  16  16  16  16
#     4  12  23  38  58  80 113 142 188 242 284 332
#     4   9  17  30  52  84 111 133 166 220 286 329
#     4  11  24  39  53  76 113 157 196 225 266 329
#     4  11  20  35  57  83 113 142 177 230 280 337
#     4  12  20  34  59  86 106 132 177 233 291 333
#     4   9  18  34  57  83 111 140 178 230 283 333
#
# _framework density 18.251017000000001
#
# number of rings (size 3 to 8) (size 9 to 14) (size 15 to 20)
#    0.000    1.455    3.636    3.545    0.000    0.364 
#    0.000    2.727    0.000    0.000    0.000    0.000 
#    0.000   16.000    0.000    0.000    0.000    0.000 
#
# Total GULP energy -245184.129593 kJ/mol
# GULP energy per Si atom -5572.366582 kJ/mol
# Density = 1.820948 g / cm^3
# Si number density = 18.251017 Si / 1000 Ang^3
#
#
#
# Elastic Constant Matrix: (Units=GPa)
#
#
# Indices 1 2 3 4 5 6 
#
# 1 104.7238 45.0315 56.8023 0.0000 0.0000 0.0000
# 2 45.0315 65.4838 40.9809 0.0000 0.0000 0.0000
# 3 56.8023 40.9809 83.6507 0.0000 0.0000 0.0000
# 4 0.0000 0.0000 0.0000 29.9388 0.0000 0.0000
# 5 0.0000 0.0000 0.0000 0.0000 18.3360 0.0000
# 6 0.0000 0.0000 0.0000 0.0000 0.0000 -4.9468
#
#
#
# Elastic Compliance Matrix: (Units=1/GPa)
#
#
# Indices 1 2 3 4 5 6 
#
# 1 0.016769 -0.006353 -0.008274 0.000000 0.000000 0.000000
# 2 -0.006353 0.024430 -0.007654 0.000000 0.000000 0.000000
# 3 -0.008274 -0.007654 0.021323 0.000000 0.000000 0.000000
# 4 0.000000 0.000000 0.000000 0.033402 0.000000 0.000000
# 5 0.000000 0.000000 0.000000 0.000000 0.054538 0.000000
# 6 0.000000 0.000000 0.000000 0.000000 0.000000 -0.202150
#
#
# Mechanical properties :
#
#
# Convention : Reuss Voigt Hill
#
# Bulk Modulus (GPa) = 55.68483 59.94309 57.81396
# Shear Modulus (GPa) = -4386.77637 16.06849 -2185.35394
#
# Velocity S-wave (km/s) = -49.07950 2.97040 -34.64083
# Velocity P-wave (km/s) = 56.40171 6.68426 39.60097
#
# Compressibility (1/GPa) = 0.01795821
#
# Stress axis : x y z
#
# Youngs Moduli (GPa) = 59.63449 40.93301 46.89807
#
# Poissons Ratio (x) = 0.26006 0.38804
# Poissons Ratio (y) = 0.37888 0.35897
# Poissons Ratio (z) = 0.49343 0.31331
#
# Static dielectric constant tensor:
#      x y z
#    x 1.623880 0.000000 0.000000 
#    y 0.000000 1.636410 0.000000 
#    z 0.000000 0.000000 1.794670 
# 
# From -- ./inp_files/74027.got.cif
#   From: 2010.05.17/outbox.cif.g08.bks.cpg/sg63_38_cif.got.tgz:74027.got - 2010.06.03 15:47:04.
