data_PCOD9475680
_publ_section_title
;
Structure prediction by ZEFSAII (Michael W. Deem and Ramdas Pophale) SiO2 
 PCOD9475680
Probable space group: C M C M
;
_chemical_formula_sum "Si O2"
_cell_formula_units_Z 96
_cell_length_a 11.083376
_cell_length_b 15.179119
_cell_length_c 27.588808
_cell_angle_alpha 90.000000
_cell_angle_beta 90.000000
_cell_angle_gamma 90.000000
_cell_volume 4641.427481
_symmetry_space_group_name_H-M "C M C M"
_symmetry_group_IT_number 63
_symmetry_cell_setting 'orthorhombic'
loop_
_space_group_symop_operation_xyz
x,y,z
-x,-y,1/2+z
x,-y,-z
-x,y,1/2-z
-x,-y,-z
x,y,1/2-z
-x,y,z
x,-y,1/2+z
1/2+x,1/2+y,z
1/2-x,1/2-y,1/2+z
1/2+x,1/2-y,-z
1/2-x,1/2+y,1/2-z
1/2-x,1/2-y,-z
1/2+x,1/2+y,1/2-z
1/2-x,1/2+y,z
1/2+x,1/2-y,1/2+z
loop_
_atom_site_type_symbol
_atom_site_label
_atom_site_fract_x
_atom_site_fract_y
_atom_site_fract_z
Si Si1 0.645168 0.261517 0.541094
Si Si2 0.000000 0.522715 0.807884
Si Si3 0.141003 0.970500 0.550849
Si Si4 0.500000 0.219451 0.807171
Si Si5 0.739548 0.775261 0.355160
Si Si6 0.643250 0.459092 0.153654
Si Si7 0.286571 0.108462 0.193068
O O1 0.500000 0.239398 0.531169
O O2 0.750000 0.250000 0.500000
O O3 0.644426 0.365450 0.553550
O O4 0.697912 0.215224 0.589358
O O5 0.884752 0.466092 0.819309
O O6 0.000000 0.535360 0.750000
O O7 0.000000 0.620152 0.828484
O O8 0.000000 0.997874 0.549240
O O9 0.198091 0.000000 0.500000
O O10 0.187518 0.014537 0.599558
O O11 0.500000 0.221061 0.750000
O O12 0.378317 0.258686 0.826613
O O13 0.791400 0.866503 0.334217
O O14 0.819069 0.690314 0.342031
O O15 0.500000 0.442436 0.153401
O O16 0.669058 0.546819 0.184767
O O17 0.296168 0.133963 0.250000
#
# Coordination Sequence:
#
# PCOD9475680 Si02
#       7
#    16   8  16   8  16  16  16
#     4  11  23  41  66  98 133 171 221 277 335 403
#     4   9  20  42  64  86 126 173 216 264 330 397
#     4   9  18  37  62  87 122 167 210 259 324 391
#     4  11  22  40  66  90 121 177 229 266 320 395
#     4  12  24  41  67  97 132 171 221 274 333 395
#     4  11  24  41  64  97 132 170 220 273 329 396
#     4  11  24  42  65  94 131 176 221 273 332 394
#
# _framework density 20.683292000000002
#
# number of rings (size 3 to 8) (size 9 to 14) (size 15 to 20)
#    0.000    1.333    4.167    1.500    2.333    3.000 
#    0.000    0.000    1.833    1.500    0.000    0.000 
#    0.000    0.000    0.000    0.000    0.000    0.000 
#
# Total GULP energy -267264.789342 kJ/mol
# GULP energy per Si atom -5568.016445 kJ/mol
# Density = 2.063622 g / cm^3
# Si number density = 20.683292 Si / 1000 Ang^3
#
#
#
# Elastic Constant Matrix: (Units=GPa)
#
#
# Indices 1 2 3 4 5 6 
#
# 1 55.7374 6.1592 15.1592 0.0000 0.0000 0.0000
# 2 6.1592 86.1791 -2.1212 0.0000 0.0000 0.0000
# 3 15.1592 -2.1212 74.9377 0.0000 0.0000 0.0000
# 4 0.0000 0.0000 0.0000 30.3268 0.0000 0.0000
# 5 0.0000 0.0000 0.0000 0.0000 21.2075 0.0000
# 6 0.0000 0.0000 0.0000 0.0000 0.0000 97.0320
#
#
#
# Elastic Compliance Matrix: (Units=1/GPa)
#
#
# Indices 1 2 3 4 5 6 
#
# 1 0.019169 -0.001467 -0.003919 0.000000 0.000000 0.000000
# 2 -0.001467 0.011724 0.000629 0.000000 0.000000 0.000000
# 3 -0.003919 0.000629 0.014155 0.000000 0.000000 0.000000
# 4 0.000000 0.000000 0.000000 0.032974 0.000000 0.000000
# 5 0.000000 0.000000 0.000000 0.000000 0.047153 0.000000
# 6 0.000000 0.000000 0.000000 0.000000 0.000000 0.010306
#
#
# Mechanical properties :
#
#
# Convention : Reuss Voigt Hill
#
# Bulk Modulus (GPa) = 28.14219 28.36095 28.25157
# Shear Modulus (GPa) = 31.87951 42.89040 37.38496
#
# Velocity S-wave (km/s) = 3.93022 4.55870 4.25608
# Velocity P-wave (km/s) = 5.85075 6.43823 6.15151
#
# Compressibility (1/GPa) = 0.03553384
#
# Stress axis : x y z
#
# Youngs Moduli (GPa) = 52.16681 85.29491 70.64627
#
# Poissons Ratio (x) = 0.12509 0.27688
# Poissons Ratio (y) = 0.07650 -0.04440
# Poissons Ratio (z) = 0.20446 -0.05361
#
# Static dielectric constant tensor:
#      x y z
#    x 1.831450 0.000000 0.000000 
#    y 0.000000 1.731960 0.000000 
#    z 0.000000 0.000000 1.784890 
# 
# From -- ./inp_files/72806.got.cif
#   From: 2010.05.17/outbox.cif.g08.bks.cpg/sg63_37_cif.got.tgz:72806.got - 2010.06.03 15:47:04.
