data_PCOD9475014
_publ_section_title
;
Structure prediction by ZEFSAII (Michael W. Deem and Ramdas Pophale) SiO2 
 PCOD9475014
Probable space group: C M C M
;
_chemical_formula_sum "Si O2"
_cell_formula_units_Z 64
_cell_length_a 8.354793
_cell_length_b 20.187460
_cell_length_c 17.422198
_cell_angle_alpha 90.000000
_cell_angle_beta 90.000000
_cell_angle_gamma 90.000000
_cell_volume 2938.463621
_symmetry_space_group_name_H-M "C M C M"
_symmetry_group_IT_number 63
_symmetry_cell_setting 'orthorhombic'
loop_
_space_group_symop_operation_xyz
x,y,z
-x,-y,1/2+z
x,-y,-z
-x,y,1/2-z
-x,-y,-z
x,y,1/2-z
-x,y,z
x,-y,1/2+z
1/2+x,1/2+y,z
1/2-x,1/2-y,1/2+z
1/2+x,1/2-y,-z
1/2-x,1/2+y,1/2-z
1/2-x,1/2-y,-z
1/2+x,1/2+y,1/2-z
1/2-x,1/2+y,z
1/2+x,1/2-y,1/2+z
loop_
_atom_site_type_symbol
_atom_site_label
_atom_site_fract_x
_atom_site_fract_y
_atom_site_fract_z
Si Si1 0.815478 0.127346 0.453408
Si Si2 0.693061 0.019173 0.336636
Si Si3 0.187818 0.269020 0.663852
Si Si4 0.686356 0.870524 0.378998
O O1 0.773585 0.064825 0.400162
O O2 0.781949 0.191385 0.401080
O O3 0.708676 0.128281 0.529323
O O4 0.000000 0.125612 0.477392
O O5 0.734062 0.040190 0.250000
O O6 0.500000 0.024364 0.345234
O O7 0.736155 0.942286 0.347941
O O8 0.238404 0.288134 0.750000
O O9 0.215407 0.191036 0.653318
O O10 0.000000 0.284931 0.655747
O O11 0.500000 0.860587 0.359092
#
# Coordination Sequence:
#
# PCOD9475014 Si02
#       4
#    16  16  16  16
#     4  12  25  40  61  90 124 161 203 250 299 354
#     4  10  22  41  64  90 121 158 200 247 301 360
#     4  11  24  42  64  90 122 159 200 249 303 359
#     4  11  23  41  65  91 122 160 202 248 300 359
#
# _framework density 21.780089
#
# number of rings (size 3 to 8) (size 9 to 14) (size 15 to 20)
#    0.000    1.000    0.000    6.750    0.000   11.500 
#    0.000    0.000    0.000    0.000    0.000    0.000 
#    0.000    0.000    0.000    0.000    0.000    0.000 
#
# Total GULP energy -179230.116518 kJ/mol
# GULP energy per Si atom -5600.941141 kJ/mol
# Density = 2.173052 g / cm^3
# Si number density = 21.780089 Si / 1000 Ang^3
#
#
#
# Elastic Constant Matrix: (Units=GPa)
#
#
# Indices 1 2 3 4 5 6 
#
# 1 27.5791 1.1003 -8.7027 0.0000 0.0000 0.0000
# 2 1.1003 79.9247 -0.2848 0.0000 0.0000 0.0000
# 3 -8.7027 -0.2848 77.4244 0.0000 0.0000 0.0000
# 4 0.0000 0.0000 0.0000 39.7764 0.0000 0.0000
# 5 0.0000 0.0000 0.0000 0.0000 19.9161 0.0000
# 6 0.0000 0.0000 0.0000 0.0000 0.0000 37.8904
#
#
#
# Elastic Compliance Matrix: (Units=1/GPa)
#
#
# Indices 1 2 3 4 5 6 
#
# 1 0.037613 -0.000503 0.004226 0.000000 0.000000 0.000000
# 2 -0.000503 0.012519 -0.000010 0.000000 0.000000 0.000000
# 3 0.004226 -0.000010 0.013391 0.000000 0.000000 0.000000
# 4 0.000000 0.000000 0.000000 0.025141 0.000000 0.000000
# 5 0.000000 0.000000 0.000000 0.000000 0.050211 0.000000
# 6 0.000000 0.000000 0.000000 0.000000 0.000000 0.026392
#
#
# Mechanical properties :
#
#
# Convention : Reuss Voigt Hill
#
# Bulk Modulus (GPa) = 14.09490 18.79489 16.44490
# Shear Modulus (GPa) = 27.54985 32.37095 29.96040
#
# Velocity S-wave (km/s) = 3.56042 3.85939 3.71291
# Velocity P-wave (km/s) = 4.83607 5.33929 5.09390
#
# Compressibility (1/GPa) = 0.07094763
#
# Stress axis : x y z
#
# Youngs Moduli (GPa) = 26.58667 79.88072 74.67820
#
# Poissons Ratio (x) = 0.04016 -0.31558
# Poissons Ratio (y) = 0.01337 0.00078
# Poissons Ratio (z) = -0.11235 0.00084
#
# Static dielectric constant tensor:
#      x y z
#    x 1.744410 0.000000 0.000000 
#    y 0.000000 1.775600 0.000000 
#    z 0.000000 0.000000 1.754550 
# 
# From -- ./inp_files/39826.got.cif
#   From: 2010.05.17/outbox.cif.g08.bks.cpg/sg63_20_cif.got.tgz:39826.got - 2010.06.03 15:47:04.
