data_PCOD9475918
_publ_section_title
;
Structure prediction by ZEFSAII (Michael W. Deem and Ramdas Pophale) SiO2 
 PCOD9475918
Probable space group: C M C M
;
_chemical_formula_sum "Si O2"
_cell_formula_units_Z 60
_cell_length_a 23.601370
_cell_length_b 9.256021
_cell_length_c 12.647700
_cell_angle_alpha 90.000000
_cell_angle_beta 90.000000
_cell_angle_gamma 90.000000
_cell_volume 2762.950475
_symmetry_space_group_name_H-M "C M C M"
_symmetry_group_IT_number 63
_symmetry_cell_setting 'orthorhombic'
loop_
_space_group_symop_operation_xyz
x,y,z
-x,-y,1/2+z
x,-y,-z
-x,y,1/2-z
-x,-y,-z
x,y,1/2-z
-x,y,z
x,-y,1/2+z
1/2+x,1/2+y,z
1/2-x,1/2-y,1/2+z
1/2+x,1/2-y,-z
1/2-x,1/2+y,1/2-z
1/2-x,1/2-y,-z
1/2+x,1/2+y,1/2-z
1/2-x,1/2+y,z
1/2+x,1/2-y,1/2+z
loop_
_atom_site_type_symbol
_atom_site_label
_atom_site_fract_x
_atom_site_fract_y
_atom_site_fract_z
Si Si1 0.562964 0.980829 0.250000
Si Si2 0.500000 0.332087 0.471337
Si Si3 0.500000 0.521849 0.750000
Si Si4 0.878973 0.824963 0.750000
Si Si5 0.398361 0.148094 0.049224
Si Si6 0.692997 0.336748 0.973043
O O1 0.500000 0.923171 0.250000
O O2 0.572973 0.084445 0.348247
O O3 0.602944 0.842648 0.250000
O O4 0.500000 0.500000 0.500000
O O5 0.500000 0.365060 0.346883
O O6 0.552658 0.237128 0.510550
O O7 0.439011 0.425284 0.750000
O O8 0.839200 0.838075 0.642926
O O9 0.350491 0.266228 0.056706
O O10 0.374664 0.000000 0.000000
O O11 0.704535 0.500000 0.000000
O O12 0.750000 0.250000 0.000000
#
# Coordination Sequence:
#
# PCOD9475918 Si02
#       6
#     8   8   4   8  16  16
#     4  12  25  43  75 115 151 196 250 296 380 450
#     4  12  25  38  67 105 153 199 239 301 365 439
#     4  12  24  44  68 112 150 192 236 300 380 434
#     4  12  26  48  80 112 154 194 247 314 372 455
#     4  12  24  44  71 105 149 196 251 303 370 441
#     4  12  29  52  77 111 146 198 254 309 375 441
#
# _framework density 21.715916
#
# number of rings (size 3 to 8) (size 9 to 14) (size 15 to 20)
#    0.000    0.000    4.667    6.000    0.000    3.200 
#    0.000    0.000    0.000    0.000    0.000    0.000 
#    0.000    0.000    0.000    0.000    0.000    0.000 
#
# Total GULP energy -167054.222567 kJ/mol
# GULP energy per Si atom -5568.474086 kJ/mol
# Density = 2.166649 g / cm^3
# Si number density = 21.715916 Si / 1000 Ang^3
#
#
#
# Elastic Constant Matrix: (Units=GPa)
#
#
# Indices 1 2 3 4 5 6 
#
# 1 156.0985 67.4812 10.2649 0.0000 0.0000 0.0000
# 2 67.4812 201.2181 21.0346 0.0000 0.0000 0.0000
# 3 10.2649 21.0346 79.8278 0.0000 0.0000 0.0000
# 4 0.0000 0.0000 0.0000 106.4022 0.0000 0.0000
# 5 0.0000 0.0000 0.0000 0.0000 23.1543 0.0000
# 6 0.0000 0.0000 0.0000 0.0000 0.0000 53.5463
#
#
#
# Elastic Compliance Matrix: (Units=1/GPa)
#
#
# Indices 1 2 3 4 5 6 
#
# 1 0.007500 -0.002483 -0.000310 0.000000 0.000000 0.000000
# 2 -0.002483 0.005932 -0.001244 0.000000 0.000000 0.000000
# 3 -0.000310 -0.001244 0.012895 0.000000 0.000000 0.000000
# 4 0.000000 0.000000 0.000000 0.009398 0.000000 0.000000
# 5 0.000000 0.000000 0.000000 0.000000 0.043189 0.000000
# 6 0.000000 0.000000 0.000000 0.000000 0.000000 0.018675
#
#
# Mechanical properties :
#
#
# Convention : Reuss Voigt Hill
#
# Bulk Modulus (GPa) = 54.78505 70.52286 62.65396
# Shear Modulus (GPa) = 44.74376 59.17814 51.96095
#
# Velocity S-wave (km/s) = 4.54410 5.22592 4.89689
# Velocity P-wave (km/s) = 7.26737 8.30417 7.80301
#
# Compressibility (1/GPa) = 0.01825315
#
# Stress axis : x y z
#
# Youngs Moduli (GPa) = 133.33499 168.56593 77.55171
#
# Poissons Ratio (x) = 0.41851 0.02406
# Poissons Ratio (y) = 0.33104 0.09647
# Poissons Ratio (z) = 0.04136 0.20968
#
# Static dielectric constant tensor:
#      x y z
#    x 2.057120 0.000000 0.000000 
#    y 0.000000 1.734900 0.000000 
#    z 0.000000 0.000000 1.761150 
# 
# From -- ./inp_files/36151.got.cif
#   From: 2010.05.17/outbox.cif.g08.bks.cpg/sg63_19_cif.got.tgz:36151.got - 2010.06.03 15:47:04.
