data_PCOD9475504
_publ_section_title
;
Structure prediction by ZEFSAII (Michael W. Deem and Ramdas Pophale) SiO2 
 PCOD9475504
Probable space group: C M C M
;
_chemical_formula_sum "Si O2"
_cell_formula_units_Z 80
_cell_length_a 19.186558
_cell_length_b 13.851950
_cell_length_c 17.561757
_cell_angle_alpha 90.000000
_cell_angle_beta 90.000000
_cell_angle_gamma 90.000000
_cell_volume 4667.409971
_symmetry_space_group_name_H-M "C M C M"
_symmetry_group_IT_number 63
_symmetry_cell_setting 'orthorhombic'
loop_
_space_group_symop_operation_xyz
x,y,z
-x,-y,1/2+z
x,-y,-z
-x,y,1/2-z
-x,-y,-z
x,y,1/2-z
-x,y,z
x,-y,1/2+z
1/2+x,1/2+y,z
1/2-x,1/2-y,1/2+z
1/2+x,1/2-y,-z
1/2-x,1/2+y,1/2-z
1/2-x,1/2-y,-z
1/2+x,1/2+y,1/2-z
1/2-x,1/2+y,z
1/2+x,1/2-y,1/2+z
loop_
_atom_site_type_symbol
_atom_site_label
_atom_site_fract_x
_atom_site_fract_y
_atom_site_fract_z
Si Si1 0.715508 0.493228 0.409694
Si Si2 0.144230 0.177030 0.341811
Si Si3 0.214142 0.786712 0.158795
Si Si4 0.000000 0.274439 0.342820
Si Si5 0.146797 0.585624 0.341945
Si Si6 0.500000 0.997480 0.342848
O O1 0.716714 0.500000 0.500000
O O2 0.663224 0.573773 0.376701
O O3 0.697585 0.385875 0.382588
O O4 0.791596 0.521435 0.376873
O O5 0.144185 0.167657 0.250000
O O6 0.207917 0.249420 0.360763
O O7 0.070439 0.220283 0.366600
O O8 0.211694 0.801902 0.250000
O O9 0.163783 0.697023 0.139553
O O10 0.000000 0.275284 0.250000
O O11 0.000000 0.385931 0.367329
O O12 0.151610 0.576535 0.250000
O O13 0.070890 0.550325 0.366814
O O14 0.500000 0.998124 0.250000
#
# Coordination Sequence:
#
# PCOD9475504 Si02
#       6
#    16  16  16   8  16   8
#     4  11  21  32  49  72 101 136 169 203 242 286
#     4   9  18  32  51  75  98 124 165 208 245 292
#     4   9  17  32  53  72  95 128 162 201 246 289
#     4   9  16  28  50  75  97 122 155 205 256 291
#     4   9  18  32  52  77 101 126 162 205 246 296
#     4   9  16  30  54  81 102 120 153 203 256 299
#
# _framework density 17.140127
#
# number of rings (size 3 to 8) (size 9 to 14) (size 15 to 20)
#    0.000    2.600    0.000    4.200    0.000    6.400 
#    0.000    2.000    0.000    6.000    0.000    0.000 
#    0.000    0.000    0.000    0.000    0.000    0.000 
#
# Total GULP energy -223119.772752 kJ/mol
# GULP energy per Si atom -5577.994319 kJ/mol
# Density = 1.710112 g / cm^3
# Si number density = 17.140127 Si / 1000 Ang^3
#
#
#
# Elastic Constant Matrix: (Units=GPa)
#
#
# Indices 1 2 3 4 5 6 
#
# 1 153.2915 90.7260 27.4783 0.0000 0.0000 0.0000
# 2 90.7260 146.6272 39.3867 0.0000 0.0000 0.0000
# 3 27.4783 39.3867 22.7791 0.0000 0.0000 0.0000
# 4 0.0000 0.0000 0.0000 -6.6400 0.0000 0.0000
# 5 0.0000 0.0000 0.0000 0.0000 4.0005 0.0000
# 6 0.0000 0.0000 0.0000 0.0000 0.0000 13.9320
#
#
#
# Elastic Compliance Matrix: (Units=1/GPa)
#
#
# Indices 1 2 3 4 5 6 
#
# 1 0.010377 -0.005711 -0.002644 0.000000 0.000000 0.000000
# 2 -0.005711 0.015878 -0.020565 0.000000 0.000000 0.000000
# 3 -0.002644 -0.020565 0.082646 0.000000 0.000000 0.000000
# 4 0.000000 0.000000 0.000000 -0.150602 0.000000 0.000000
# 5 0.000000 0.000000 0.000000 0.000000 0.249969 0.000000
# 6 0.000000 0.000000 0.000000 0.000000 0.000000 0.071777
#
#
# Mechanical properties :
#
#
# Convention : Reuss Voigt Hill
#
# Bulk Modulus (GPa) = 19.58353 70.87553 45.22953
# Shear Modulus (GPa) = 14.08825 13.26561 13.67693
#
# Velocity S-wave (km/s) = 2.87007 2.78501 2.82786
# Velocity P-wave (km/s) = 4.73639 7.19598 6.09162
#
# Compressibility (1/GPa) = 0.05106333
#
# Stress axis : x y z
#
# Youngs Moduli (GPa) = 96.36291 62.98132 12.09973
#
# Poissons Ratio (x) = 0.35968 0.03199
# Poissons Ratio (y) = 0.55033 0.24883
# Poissons Ratio (z) = 0.25474 1.29519
#
# Static dielectric constant tensor:
#      x y z
#    x 1.571780 0.000000 0.000000 
#    y 0.000000 1.566270 0.000000 
#    z 0.000000 0.000000 1.561610 
# 
# From -- ./inp_files/46826.got.cif
#   From: 2010.05.17/outbox.cif.g08.bks.cpg/sg63_24_cif.got.tgz:46826.got - 2010.06.03 15:47:04.
