data_PCOD9475452
_publ_section_title
;
Structure prediction by ZEFSAII (Michael W. Deem and Ramdas Pophale) SiO2 
 PCOD9475452
Probable space group: C M C M
;
_chemical_formula_sum "Si O2"
_cell_formula_units_Z 96
_cell_length_a 12.121833
_cell_length_b 25.420654
_cell_length_c 19.277979
_cell_angle_alpha 90.000000
_cell_angle_beta 90.000000
_cell_angle_gamma 90.000000
_cell_volume 5940.411346
_symmetry_space_group_name_H-M "C M C M"
_symmetry_group_IT_number 63
_symmetry_cell_setting 'orthorhombic'
loop_
_space_group_symop_operation_xyz
x,y,z
-x,-y,1/2+z
x,-y,-z
-x,y,1/2-z
-x,-y,-z
x,y,1/2-z
-x,y,z
x,-y,1/2+z
1/2+x,1/2+y,z
1/2-x,1/2-y,1/2+z
1/2+x,1/2-y,-z
1/2-x,1/2+y,1/2-z
1/2-x,1/2-y,-z
1/2+x,1/2+y,1/2-z
1/2-x,1/2+y,z
1/2+x,1/2-y,1/2+z
loop_
_atom_site_type_symbol
_atom_site_label
_atom_site_fract_x
_atom_site_fract_y
_atom_site_fract_z
Si Si1 0.000000 0.224849 0.329359
Si Si2 0.869535 0.222075 0.579508
Si Si3 0.756639 0.366575 0.167540
Si Si4 0.698934 0.687852 0.424462
Si Si5 0.500000 0.148852 0.669929
Si Si6 0.870668 0.959178 0.102031
Si Si7 0.130784 0.925333 0.558822
O O1 0.891727 0.205758 0.368975
O O2 0.000000 0.288029 0.330495
O O3 0.000000 0.206957 0.250000
O O4 0.810538 0.179635 0.629264
O O5 0.809269 0.278370 0.586907
O O6 0.847225 0.203041 0.500707
O O7 0.000000 0.224054 0.592087
O O8 0.759186 0.356079 0.250000
O O9 0.699287 0.421845 0.151067
O O10 0.882510 0.367978 0.139587
O O11 0.703512 0.624858 0.422283
O O12 0.500000 0.130379 0.750000
O O13 0.000000 0.954682 0.119557
O O14 0.842361 0.020938 0.099298
O O15 0.858361 0.938045 0.023022
O O16 0.000000 0.913181 0.570361
#
# Coordination Sequence:
#
# PCOD9475452 Si02
#       7
#     8  16  16  16   8  16  16
#     4  11  20  34  54  77 103 139 183 221 261 310
#     4  11  22  33  51  83 112 142 173 213 276 327
#     4  11  21  35  55  79 109 142 179 223 266 320
#     4  11  20  34  55  77 109 143 178 220 261 325
#     4   9  20  36  52  75 106 143 179 217 270 317
#     4   9  18  31  51  78 104 135 172 214 268 320
#     4   9  16  31  54  75 102 139 173 213 267 312
#
# _framework density 16.160495999999998
#
# number of rings (size 3 to 8) (size 9 to 14) (size 15 to 20)
#    0.000    1.833    5.000    1.500    0.000    1.333 
#    0.000    0.833    1.833    1.000    0.000    0.000 
#    0.000    0.000    0.000    0.000    0.000    0.000 
#
# Total GULP energy -267654.273621 kJ/mol
# GULP energy per Si atom -5576.130700 kJ/mol
# Density = 1.612371 g / cm^3
# Si number density = 16.160496 Si / 1000 Ang^3
#
#
#
# Elastic Constant Matrix: (Units=GPa)
#
#
# Indices 1 2 3 4 5 6 
#
# 1 127.8962 62.3666 35.4650 0.0000 0.0000 0.0000
# 2 62.3666 117.8466 22.5213 0.0000 0.0000 0.0000
# 3 35.4650 22.5213 65.3230 0.0000 0.0000 0.0000
# 4 0.0000 0.0000 0.0000 23.6434 0.0000 0.0000
# 5 0.0000 0.0000 0.0000 0.0000 19.1872 0.0000
# 6 0.0000 0.0000 0.0000 0.0000 0.0000 24.9871
#
#
#
# Elastic Compliance Matrix: (Units=1/GPa)
#
#
# Indices 1 2 3 4 5 6 
#
# 1 0.011654 -0.005308 -0.004497 0.000000 0.000000 0.000000
# 2 -0.005308 0.011502 -0.001084 0.000000 0.000000 0.000000
# 3 -0.004497 -0.001084 0.018124 0.000000 0.000000 0.000000
# 4 0.000000 0.000000 0.000000 0.042295 0.000000 0.000000
# 5 0.000000 0.000000 0.000000 0.000000 0.052118 0.000000
# 6 0.000000 0.000000 0.000000 0.000000 0.000000 0.040021
#
#
# Mechanical properties :
#
#
# Convention : Reuss Voigt Hill
#
# Bulk Modulus (GPa) = 51.27696 61.30796 56.29246
# Shear Modulus (GPa) = 24.51070 26.27775 25.39422
#
# Velocity S-wave (km/s) = 3.89871 4.03680 3.96836
# Velocity P-wave (km/s) = 7.21563 7.72962 7.47704
#
# Compressibility (1/GPa) = 0.01950193
#
# Stress axis : x y z
#
# Youngs Moduli (GPa) = 85.80445 86.94201 55.17620
#
# Poissons Ratio (x) = 0.46151 0.24814
# Poissons Ratio (y) = 0.45547 0.05979
# Poissons Ratio (z) = 0.38588 0.09421
#
# Static dielectric constant tensor:
#      x y z
#    x 1.538020 0.000000 0.000000 
#    y 0.000000 1.547920 0.000000 
#    z 0.000000 0.000000 1.541470 
# 
# From -- ./inp_files/42550.got.cif
#   From: 2010.05.17/outbox.cif.g08.bks.cpg/sg63_22_cif.got.tgz:42550.got - 2010.06.03 15:47:04.
