data_PCOD9475654
_publ_section_title
;
Structure prediction by ZEFSAII (Michael W. Deem and Ramdas Pophale) SiO2 
 PCOD9475654
Probable space group: C M C M
;
_chemical_formula_sum "Si O2"
_cell_formula_units_Z 80
_cell_length_a 8.412037
_cell_length_b 26.037699
_cell_length_c 18.054903
_cell_angle_alpha 90.000000
_cell_angle_beta 90.000000
_cell_angle_gamma 90.000000
_cell_volume 3954.566982
_symmetry_space_group_name_H-M "C M C M"
_symmetry_group_IT_number 63
_symmetry_cell_setting 'orthorhombic'
loop_
_space_group_symop_operation_xyz
x,y,z
-x,-y,1/2+z
x,-y,-z
-x,y,1/2-z
-x,-y,-z
x,y,1/2-z
-x,y,z
x,-y,1/2+z
1/2+x,1/2+y,z
1/2-x,1/2-y,1/2+z
1/2+x,1/2-y,-z
1/2-x,1/2+y,1/2-z
1/2-x,1/2-y,-z
1/2+x,1/2+y,1/2-z
1/2-x,1/2+y,z
1/2+x,1/2-y,1/2+z
loop_
_atom_site_type_symbol
_atom_site_label
_atom_site_fract_x
_atom_site_fract_y
_atom_site_fract_z
Si Si1 0.809308 0.424601 0.161754
Si Si2 0.315935 0.666090 0.561171
Si Si3 0.193309 0.460243 0.664423
Si Si4 0.312708 0.146238 0.098612
Si Si5 0.811907 0.247288 0.166271
O O1 0.783331 0.418514 0.250000
O O2 0.722539 0.381416 0.115029
O O3 0.757213 0.482526 0.140939
O O4 0.000000 0.419912 0.149499
O O5 0.500000 0.666830 0.540032
O O6 0.215332 0.660060 0.486682
O O7 0.273444 0.717284 0.606237
O O8 0.241335 0.452326 0.750000
O O9 0.243351 0.411664 0.616114
O O10 0.000000 0.461689 0.663640
O O11 0.500000 0.149098 0.116027
O O12 0.223870 0.188254 0.147975
O O13 0.759297 0.259621 0.250000
O O14 0.000000 0.257105 0.161556
#
# Coordination Sequence:
#
# PCOD9475654 Si02
#       5
#    16  16  16  16  16
#     4   9  18  36  61  86 113 147 190 237 282 332
#     4  12  25  39  56  82 118 154 191 235 284 337
#     4   8  16  33  59  88 114 145 188 234 279 333
#     4  11  22  38  61  87 117 151 190 234 281 336
#     4  11  24  42  63  86 113 146 186 233 286 342
#
# _framework density 20.229775
#
# number of rings (size 3 to 8) (size 9 to 14) (size 15 to 20)
#    0.000    1.800    0.000    6.000    0.000    6.000 
#    0.000    6.000    0.000    2.400    0.000    0.000 
#    0.000    0.000    0.000    0.000    0.000    0.000 
#
# Total GULP energy -223565.573785 kJ/mol
# GULP energy per Si atom -5589.139345 kJ/mol
# Density = 2.018373 g / cm^3
# Si number density = 20.229775 Si / 1000 Ang^3
#
#
#
# Elastic Constant Matrix: (Units=GPa)
#
#
# Indices 1 2 3 4 5 6 
#
# 1 13.1673 -1.7991 -5.5782 0.0000 0.0000 0.0000
# 2 -1.7991 71.9330 -1.1937 0.0000 0.0000 0.0000
# 3 -5.5782 -1.1937 25.4625 0.0000 0.0000 0.0000
# 4 0.0000 0.0000 0.0000 32.8692 0.0000 0.0000
# 5 0.0000 0.0000 0.0000 0.0000 18.2174 0.0000
# 6 0.0000 0.0000 0.0000 0.0000 0.0000 26.2253
#
#
#
# Elastic Compliance Matrix: (Units=1/GPa)
#
#
# Indices 1 2 3 4 5 6 
#
# 1 0.084132 0.002412 0.018544 0.000000 0.000000 0.000000
# 2 0.002412 0.013982 0.001184 0.000000 0.000000 0.000000
# 3 0.018544 0.001184 0.043391 0.000000 0.000000 0.000000
# 4 0.000000 0.000000 0.000000 0.030424 0.000000 0.000000
# 5 0.000000 0.000000 0.000000 0.000000 0.054893 0.000000
# 6 0.000000 0.000000 0.000000 0.000000 0.000000 0.038131
#
#
# Mechanical properties :
#
#
# Convention : Reuss Voigt Hill
#
# Bulk Modulus (GPa) = 5.38257 10.38009 7.88133
# Shear Modulus (GPa) = 17.69283 23.40464 20.54873
#
# Velocity S-wave (km/s) = 2.96056 3.40507 3.19057
# Velocity P-wave (km/s) = 3.78854 4.53890 4.18059
#
# Compressibility (1/GPa) = 0.18578485
#
# Stress axis : x y z
#
# Youngs Moduli (GPa) = 11.88614 71.52157 23.04602
#
# Poissons Ratio (x) = -0.17251 -0.42737
# Poissons Ratio (y) = -0.02867 -0.02728
# Poissons Ratio (z) = -0.22042 -0.08467
#
# Static dielectric constant tensor:
#      x y z
#    x 1.696360 0.000000 0.000000 
#    y 0.000000 1.713310 0.000000 
#    z 0.000000 0.000000 1.688870 
# 
# From -- ./inp_files/40483.got.cif
#   From: 2010.05.17/outbox.cif.g08.bks.cpg/sg63_21_cif.got.tgz:40483.got - 2010.06.03 15:47:04.
