data_PCOD9475794
_publ_section_title
;
Structure prediction by ZEFSAII (Michael W. Deem and Ramdas Pophale) SiO2 
 PCOD9475794
Probable space group: C M C M
;
_chemical_formula_sum "Si O2"
_cell_formula_units_Z 64
_cell_length_a 20.047793
_cell_length_b 9.600445
_cell_length_c 17.354718
_cell_angle_alpha 90.000000
_cell_angle_beta 90.000000
_cell_angle_gamma 90.000000
_cell_volume 3340.223249
_symmetry_space_group_name_H-M "C M C M"
_symmetry_group_IT_number 63
_symmetry_cell_setting 'orthorhombic'
loop_
_space_group_symop_operation_xyz
x,y,z
-x,-y,1/2+z
x,-y,-z
-x,y,1/2-z
-x,-y,-z
x,y,1/2-z
-x,y,z
x,-y,1/2+z
1/2+x,1/2+y,z
1/2-x,1/2-y,1/2+z
1/2+x,1/2-y,-z
1/2-x,1/2+y,1/2-z
1/2-x,1/2-y,-z
1/2+x,1/2+y,1/2-z
1/2-x,1/2+y,z
1/2+x,1/2-y,1/2+z
loop_
_atom_site_type_symbol
_atom_site_label
_atom_site_fract_x
_atom_site_fract_y
_atom_site_fract_z
Si Si1 0.887182 0.019015 0.589676
Si Si2 0.500000 0.286030 0.158342
Si Si3 0.881666 0.288549 0.341972
Si Si4 0.000000 0.476172 0.408625
Si Si5 0.739025 0.880130 0.056348
O O1 0.935354 0.132586 0.626778
O O2 0.810083 0.067811 0.588515
O O3 0.905970 0.000000 0.500000
O O4 0.893395 0.871033 0.632118
O O5 0.500000 0.290695 0.250000
O O6 0.500000 0.127571 0.130167
O O7 0.884501 0.299675 0.250000
O O8 0.936651 0.387129 0.380849
O O9 0.811008 0.337233 0.376595
O O10 0.000000 0.500000 0.500000
O O11 0.750000 0.750000 0.000000
O O12 0.710893 0.000000 0.000000
#
# Coordination Sequence:
#
# PCOD9475794 Si02
#       5
#    16   8  16   8  16
#     4  11  23  44  70  94 133 179 226 261 331 405
#     4  12  26  42  64 100 134 168 218 278 334 384
#     4  12  25  43  68 102 136 174 221 283 340 390
#     4  12  27  46  71  94 134 176 228 272 335 404
#     4  11  23  45  69  97 131 177 229 268 325 408
#
# _framework density 19.160395999999999
#
# number of rings (size 3 to 8) (size 9 to 14) (size 15 to 20)
#    0.000    0.500    5.000    5.250    3.500    2.000 
#    0.000    0.000    0.000    0.000    0.000    0.000 
#    0.000    0.000    0.000    0.000    0.000    0.000 
#
# Total GULP energy -179068.589275 kJ/mol
# GULP energy per Si atom -5595.893415 kJ/mol
# Density = 1.911679 g / cm^3
# Si number density = 19.160396 Si / 1000 Ang^3
#
#
#
# Elastic Constant Matrix: (Units=GPa)
#
#
# Indices 1 2 3 4 5 6 
#
# 1 115.1485 71.0205 78.3931 0.0000 0.0000 0.0000
# 2 71.0205 172.1227 68.9562 0.0000 0.0000 0.0000
# 3 78.3931 68.9562 187.1750 0.0000 0.0000 0.0000
# 4 0.0000 0.0000 0.0000 37.1757 0.0000 0.0000
# 5 0.0000 0.0000 0.0000 0.0000 -3.5375 0.0000
# 6 0.0000 0.0000 0.0000 0.0000 0.0000 37.1930
#
#
#
# Elastic Compliance Matrix: (Units=1/GPa)
#
#
# Indices 1 2 3 4 5 6 
#
# 1 0.014242 -0.004091 -0.004458 0.000000 0.000000 0.000000
# 2 -0.004091 0.007991 -0.001231 0.000000 0.000000 0.000000
# 3 -0.004458 -0.001231 0.007663 0.000000 0.000000 0.000000
# 4 0.000000 0.000000 0.000000 0.026899 0.000000 0.000000
# 5 0.000000 0.000000 0.000000 0.000000 -0.282689 0.000000
# 6 0.000000 0.000000 0.000000 0.000000 0.000000 0.026887
#
#
# Mechanical properties :
#
#
# Convention : Reuss Voigt Hill
#
# Bulk Modulus (GPa) = 96.73336 101.24288 98.98812
# Shear Modulus (GPa) = -28.40880 31.23801 1.41461
#
# Velocity S-wave (km/s) = -3.85474 4.04213 0.86017
# Velocity P-wave (km/s) = 5.54830 8.64520 7.26372
#
# Compressibility (1/GPa) = 0.01033770
#
# Stress axis : x y z
#
# Youngs Moduli (GPa) = 70.21241 125.14609 130.49615
#
# Poissons Ratio (x) = 0.51193 0.58176
# Poissons Ratio (y) = 0.28722 0.16058
# Poissons Ratio (z) = 0.31301 0.15400
#
# Static dielectric constant tensor:
#      x y z
#    x 1.668050 0.000000 0.000000 
#    y 0.000000 2.810490 0.000000 
#    z 0.000000 0.000000 1.627170 
# 
# From -- ./inp_files/46554.got.cif
#   From: 2010.05.17/outbox.cif.g08.bks.cpg/sg63_24_cif.got.tgz:46554.got - 2010.06.03 15:47:04.
