data_PCOD9475682
_publ_section_title
;
Structure prediction by ZEFSAII (Michael W. Deem and Ramdas Pophale) SiO2 
 PCOD9475682
Probable space group: C M C M
;
_chemical_formula_sum "Si O2"
_cell_formula_units_Z 60
_cell_length_a 10.915085
_cell_length_b 18.558142
_cell_length_c 14.602879
_cell_angle_alpha 90.000000
_cell_angle_beta 90.000000
_cell_angle_gamma 90.000000
_cell_volume 2958.013163
_symmetry_space_group_name_H-M "C M C M"
_symmetry_group_IT_number 63
_symmetry_cell_setting 'orthorhombic'
loop_
_space_group_symop_operation_xyz
x,y,z
-x,-y,1/2+z
x,-y,-z
-x,y,1/2-z
-x,-y,-z
x,y,1/2-z
-x,y,z
x,-y,1/2+z
1/2+x,1/2+y,z
1/2-x,1/2-y,1/2+z
1/2+x,1/2-y,-z
1/2-x,1/2+y,1/2-z
1/2-x,1/2-y,-z
1/2+x,1/2+y,1/2-z
1/2-x,1/2+y,z
1/2+x,1/2-y,1/2+z
loop_
_atom_site_type_symbol
_atom_site_label
_atom_site_fract_x
_atom_site_fract_y
_atom_site_fract_z
Si Si1 0.350915 0.637982 0.250000
Si Si2 0.362704 0.561107 0.937598
Si Si3 0.000000 0.418515 0.546830
Si Si4 0.749993 0.826409 0.949536
Si Si5 0.262940 0.529525 0.750000
Si Si6 0.500000 0.972875 0.750000
O O1 0.500000 0.647755 0.250000
O O2 0.286283 0.670155 0.158196
O O3 0.321651 0.551409 0.250000
O O4 0.500000 0.536503 0.917150
O O5 0.300324 0.569933 0.841169
O O6 0.301192 0.500000 0.000000
O O7 0.357202 0.630371 0.999340
O O8 0.000000 0.500000 0.500000
O O9 0.123487 0.371054 0.529363
O O10 0.000000 0.428948 0.656426
O O11 0.750000 0.750000 0.000000
O O12 0.119638 0.520261 0.750000
#
# Coordination Sequence:
#
# PCOD9475682 Si02
#       6
#     8  16   8  16   8   4
#     4  12  24  45  73  98 139 182 237 293 366 434
#     4  11  22  40  67  99 133 172 229 288 341 418
#     4  12  24  46  72 102 143 189 238 287 350 432
#     4  12  27  44  71 105 143 186 234 291 366 427
#     4  12  22  39  67 107 127 183 233 290 348 414
#     4  12  20  40  68  94 140 172 236 286 330 422
#
# _framework density 20.283885000000001
#
# number of rings (size 3 to 8) (size 9 to 14) (size 15 to 20)
#    0.000    0.267    5.333    4.400    3.733    1.067 
#    0.000    1.333    2.933    0.000    0.000    0.000 
#    0.000    0.000    0.000    0.000    0.000    0.000 
#
# Total GULP energy -167391.226685 kJ/mol
# GULP energy per Si atom -5579.707556 kJ/mol
# Density = 2.023772 g / cm^3
# Si number density = 20.283885 Si / 1000 Ang^3
#
#
#
# Elastic Constant Matrix: (Units=GPa)
#
#
# Indices 1 2 3 4 5 6 
#
# 1 138.2863 21.9157 30.9934 0.0000 0.0000 0.0000
# 2 21.9157 109.0435 55.1822 0.0000 0.0000 0.0000
# 3 30.9934 55.1822 170.6957 0.0000 0.0000 0.0000
# 4 0.0000 0.0000 0.0000 18.4646 0.0000 0.0000
# 5 0.0000 0.0000 0.0000 0.0000 24.8102 0.0000
# 6 0.0000 0.0000 0.0000 0.0000 0.0000 16.9078
#
#
#
# Elastic Compliance Matrix: (Units=1/GPa)
#
#
# Indices 1 2 3 4 5 6 
#
# 1 0.007627 -0.000995 -0.001063 0.000000 0.000000 0.000000
# 2 -0.000995 0.011094 -0.003406 0.000000 0.000000 0.000000
# 3 -0.001063 -0.003406 0.007152 0.000000 0.000000 0.000000
# 4 0.000000 0.000000 0.000000 0.054158 0.000000 0.000000
# 5 0.000000 0.000000 0.000000 0.000000 0.040306 0.000000
# 6 0.000000 0.000000 0.000000 0.000000 0.000000 0.059144
#
#
# Mechanical properties :
#
#
# Convention : Reuss Voigt Hill
#
# Bulk Modulus (GPa) = 66.90771 70.46755 68.68763
# Shear Modulus (GPa) = 25.58958 32.69880 29.14419
#
# Velocity S-wave (km/s) = 3.55571 4.01940 3.79465
# Velocity P-wave (km/s) = 7.06504 7.50712 7.28943
#
# Compressibility (1/GPa) = 0.01494596
#
# Stress axis : x y z
#
# Youngs Moduli (GPa) = 131.10709 90.13753 139.81165
#
# Poissons Ratio (x) = 0.08968 0.14866
# Poissons Ratio (y) = 0.13043 0.47618
# Poissons Ratio (z) = 0.13940 0.30700
#
# Static dielectric constant tensor:
#      x y z
#    x 1.452510 0.000000 0.000000 
#    y 0.000000 1.660380 0.000000 
#    z 0.000000 0.000000 1.878100 
# 
# From -- ./inp_files/17196.got.cif
#   From: 2010.05.17/outbox.cif.g08.bks.cpg/sg63_9_cif.got.tgz:17196.got - 2010.06.03 15:47:04.
