data_PCOD9475099
_publ_section_title
;
Structure prediction by ZEFSAII (Michael W. Deem and Ramdas Pophale) SiO2 
 PCOD9475099
Probable space group: C M C M
;
_chemical_formula_sum "Si O2"
_cell_formula_units_Z 72
_cell_length_a 25.898149
_cell_length_b 8.896423
_cell_length_c 14.821318
_cell_angle_alpha 90.000000
_cell_angle_beta 90.000000
_cell_angle_gamma 90.000000
_cell_volume 3414.844835
_symmetry_space_group_name_H-M "C M C M"
_symmetry_group_IT_number 63
_symmetry_cell_setting 'orthorhombic'
loop_
_space_group_symop_operation_xyz
x,y,z
-x,-y,1/2+z
x,-y,-z
-x,y,1/2-z
-x,-y,-z
x,y,1/2-z
-x,y,z
x,-y,1/2+z
1/2+x,1/2+y,z
1/2-x,1/2-y,1/2+z
1/2+x,1/2-y,-z
1/2-x,1/2+y,1/2-z
1/2-x,1/2-y,-z
1/2+x,1/2+y,1/2-z
1/2-x,1/2+y,z
1/2+x,1/2-y,1/2+z
loop_
_atom_site_type_symbol
_atom_site_label
_atom_site_fract_x
_atom_site_fract_y
_atom_site_fract_z
Si Si1 0.942386 0.428799 0.099389
Si Si2 0.862096 0.087770 0.750000
Si Si3 0.288164 0.652286 0.056948
Si Si4 0.746609 0.549915 0.250000
Si Si5 0.132327 0.445153 0.750000
Si Si6 0.401010 0.610644 0.081345
O O1 0.897929 0.490238 0.164182
O O2 0.939481 0.246979 0.098915
O O3 0.000000 0.473568 0.130905
O O4 0.935833 0.500000 0.000000
O O5 0.799502 0.073519 0.750000
O O6 0.872780 0.264239 0.750000
O O7 0.885301 0.997926 0.835582
O O8 0.266121 0.636374 0.157446
O O9 0.347629 0.699385 0.059215
O O10 0.290140 0.500000 0.000000
O O11 0.250000 0.750000 0.000000
O O12 0.807044 0.509165 0.250000
O O13 0.416158 0.500000 0.000000
#
# Coordination Sequence:
#
# PCOD9475099 Si02
#       6
#    16   8  16   8   8  16
#     4  11  26  46  68  97 130 171 231 289 347 404
#     4  10  23  44  61 103 136 175 222 265 335 411
#     4  10  24  38  60  94 137 174 219 269 326 409
#     4  10  26  37  63  98 137 177 222 266 338 412
#     4  12  26  41  74  93 137 180 221 287 335 405
#     4  10  22  42  67  94 136 174 221 275 331 408
#
# _framework density 21.084413000000001
#
# number of rings (size 3 to 8) (size 9 to 14) (size 15 to 20)
#    0.000    1.556    0.000    2.333   15.556    2.222 
#    0.000    2.222    0.000    0.000    0.000    0.000 
#    0.000    0.000    0.000    0.000    0.000    0.000 
#
# Total GULP energy -201119.102991 kJ/mol
# GULP energy per Si atom -5586.641750 kJ/mol
# Density = 2.103642 g / cm^3
# Si number density = 21.084413 Si / 1000 Ang^3
#
#
#
# Elastic Constant Matrix: (Units=GPa)
#
#
# Indices 1 2 3 4 5 6 
#
# 1 91.3968 35.7496 16.9449 0.0000 0.0000 0.0000
# 2 35.7496 105.8022 31.6202 0.0000 0.0000 0.0000
# 3 16.9449 31.6202 99.7979 0.0000 0.0000 0.0000
# 4 0.0000 0.0000 0.0000 30.3389 0.0000 0.0000
# 5 0.0000 0.0000 0.0000 0.0000 18.2825 0.0000
# 6 0.0000 0.0000 0.0000 0.0000 0.0000 29.2478
#
#
#
# Elastic Compliance Matrix: (Units=1/GPa)
#
#
# Indices 1 2 3 4 5 6 
#
# 1 0.012677 -0.004021 -0.000878 0.000000 0.000000 0.000000
# 2 -0.004021 0.011716 -0.003029 0.000000 0.000000 0.000000
# 3 -0.000878 -0.003029 0.011129 0.000000 0.000000 0.000000
# 4 0.000000 0.000000 0.000000 0.032961 0.000000 0.000000
# 5 0.000000 0.000000 0.000000 0.000000 0.054697 0.000000
# 6 0.000000 0.000000 0.000000 0.000000 0.000000 0.034191
#
#
# Mechanical properties :
#
#
# Convention : Reuss Voigt Hill
#
# Bulk Modulus (GPa) = 50.85315 51.73627 51.29471
# Shear Modulus (GPa) = 27.81142 29.75267 28.78205
#
# Velocity S-wave (km/s) = 3.63581 3.76057 3.69872
# Velocity P-wave (km/s) = 6.46504 6.59142 6.52853
#
# Compressibility (1/GPa) = 0.01966446
#
# Stress axis : x y z
#
# Youngs Moduli (GPa) = 78.88347 85.35665 89.85368
#
# Poissons Ratio (x) = 0.34321 0.07893
# Poissons Ratio (y) = 0.31718 0.27219
# Poissons Ratio (z) = 0.06930 0.25857
#
# Static dielectric constant tensor:
#      x y z
#    x -1.031640 0.000000 0.000000 
#    y 0.000000 1.757890 0.000000 
#    z 0.000000 0.000000 1.752910 
# 
# From -- ./inp_files/37600.got.cif
#   From: 2010.05.17/outbox.cif.g08.bks.cpg/sg63_19_cif.got.tgz:37600.got - 2010.06.03 15:47:04.
