data_PCOD9475075
_publ_section_title
;
Structure prediction by ZEFSAII (Michael W. Deem and Ramdas Pophale) SiO2 
 PCOD9475075
Probable space group: C M C M
;
_chemical_formula_sum "Si O2"
_cell_formula_units_Z 56
_cell_length_a 17.650404
_cell_length_b 7.668340
_cell_length_c 16.530096
_cell_angle_alpha 90.000000
_cell_angle_beta 90.000000
_cell_angle_gamma 90.000000
_cell_volume 2237.336906
_symmetry_space_group_name_H-M "C M C M"
_symmetry_group_IT_number 63
_symmetry_cell_setting 'orthorhombic'
loop_
_space_group_symop_operation_xyz
x,y,z
-x,-y,1/2+z
x,-y,-z
-x,y,1/2-z
-x,-y,-z
x,y,1/2-z
-x,y,z
x,-y,1/2+z
1/2+x,1/2+y,z
1/2-x,1/2-y,1/2+z
1/2+x,1/2-y,-z
1/2-x,1/2+y,1/2-z
1/2-x,1/2-y,-z
1/2+x,1/2+y,1/2-z
1/2-x,1/2+y,z
1/2+x,1/2-y,1/2+z
loop_
_atom_site_type_symbol
_atom_site_label
_atom_site_fract_x
_atom_site_fract_y
_atom_site_fract_z
Si Si1 0.625140 0.260425 0.250000
Si Si2 0.663092 0.806288 0.096230
Si Si3 0.000000 0.159106 0.882588
Si Si4 0.221663 0.000000 0.000000
Si Si5 0.774768 0.103481 0.250000
Si Si6 0.000000 0.252193 0.430002
O O1 0.572242 0.283092 0.328694
O O2 0.682994 0.098302 0.250000
O O3 0.684971 0.417819 0.250000
O O4 0.721357 0.956261 0.072778
O O5 0.692395 0.705782 0.173386
O O6 0.575297 0.849276 0.099599
O O7 0.671564 0.665146 0.022711
O O8 0.000000 0.946674 0.893840
O O9 0.000000 0.236298 0.972712
#
# Coordination Sequence:
#
# PCOD9475075 Si02
#       6
#     8  16   8   8   8   8
#     4  11  24  42  68  95 134 166 224 265 332 378
#     4  11  24  41  66  96 134 169 222 266 326 384
#     4  10  22  42  64  96 126 175 216 270 315 400
#     4  10  24  42  64  96 128 174 220 272 316 386
#     4  12  24  40  66 102 128 176 208 280 316 392
#     4  11  22  39  68  94 128 172 218 266 325 387
#
# _framework density 25.029757
#
# number of rings (size 3 to 8) (size 9 to 14) (size 15 to 20)
#    0.000    1.143    2.857    3.429    8.000    1.143 
#    0.000    0.000    0.000    3.429    0.000    0.000 
#    0.000    0.000    0.000    0.000    0.000    0.000 
#
# Total GULP energy -157044.290260 kJ/mol
# GULP energy per Si atom -5608.724652 kJ/mol
# Density = 2.497279 g / cm^3
# Si number density = 25.029757 Si / 1000 Ang^3
#
#
#
# Elastic Constant Matrix: (Units=GPa)
#
#
# Indices 1 2 3 4 5 6 
#
# 1 213.1099 26.6064 47.1240 0.0000 0.0000 0.0000
# 2 26.6064 62.0007 7.6112 0.0000 0.0000 0.0000
# 3 47.1240 7.6112 102.9473 0.0000 0.0000 0.0000
# 4 0.0000 0.0000 0.0000 31.2787 0.0000 0.0000
# 5 0.0000 0.0000 0.0000 0.0000 6.6406 0.0000
# 6 0.0000 0.0000 0.0000 0.0000 0.0000 35.5072
#
#
#
# Elastic Compliance Matrix: (Units=1/GPa)
#
#
# Indices 1 2 3 4 5 6 
#
# 1 0.005469 -0.002058 -0.002351 0.000000 0.000000 0.000000
# 2 -0.002058 0.017051 -0.000318 0.000000 0.000000 0.000000
# 3 -0.002351 -0.000318 0.010814 0.000000 0.000000 0.000000
# 4 0.000000 0.000000 0.000000 0.031971 0.000000 0.000000
# 5 0.000000 0.000000 0.000000 0.000000 0.150589 0.000000
# 6 0.000000 0.000000 0.000000 0.000000 0.000000 0.028163
#
#
# Mechanical properties :
#
#
# Convention : Reuss Voigt Hill
#
# Bulk Modulus (GPa) = 41.87996 60.08233 50.98115
# Shear Modulus (GPa) = 19.12247 34.46638 26.79443
#
# Velocity S-wave (km/s) = 2.76703 3.71484 3.27540
# Velocity P-wave (km/s) = 5.19394 6.51587 5.89210
#
# Compressibility (1/GPa) = 0.02387777
#
# Stress axis : x y z
#
# Youngs Moduli (GPa) = 182.83675 58.64662 92.47609
#
# Poissons Ratio (x) = 0.12072 0.21745
# Poissons Ratio (y) = 0.37635 0.02945
# Poissons Ratio (z) = 0.42992 0.01867
#
# Static dielectric constant tensor:
#      x y z
#    x 1.937430 0.000000 0.000000 
#    y 0.000000 1.993280 0.000000 
#    z 0.000000 0.000000 1.988590 
# 
# From -- ./inp_files/45050.got.cif
#   From: 2010.05.17/outbox.cif.g08.bks.cpg/sg63_23_cif.got.tgz:45050.got - 2010.06.03 15:47:04.
