data_PCOD9475144
_publ_section_title
;
Structure prediction by ZEFSAII (Michael W. Deem and Ramdas Pophale) SiO2 
 PCOD9475144
Probable space group: C M C M
;
_chemical_formula_sum "Si O2"
_cell_formula_units_Z 64
_cell_length_a 32.933185
_cell_length_b 5.032569
_cell_length_c 16.166021
_cell_angle_alpha 90.000000
_cell_angle_beta 90.000000
_cell_angle_gamma 90.000000
_cell_volume 2679.332490
_symmetry_space_group_name_H-M "C M C M"
_symmetry_group_IT_number 63
_symmetry_cell_setting 'orthorhombic'
loop_
_space_group_symop_operation_xyz
x,y,z
-x,-y,1/2+z
x,-y,-z
-x,y,1/2-z
-x,-y,-z
x,y,1/2-z
-x,y,z
x,-y,1/2+z
1/2+x,1/2+y,z
1/2-x,1/2-y,1/2+z
1/2+x,1/2-y,-z
1/2-x,1/2+y,1/2-z
1/2-x,1/2-y,-z
1/2+x,1/2+y,1/2-z
1/2-x,1/2+y,z
1/2+x,1/2-y,1/2+z
loop_
_atom_site_type_symbol
_atom_site_label
_atom_site_fract_x
_atom_site_fract_y
_atom_site_fract_z
Si Si1 0.149218 0.000000 0.000000
Si Si2 0.220757 0.243832 0.085527
Si Si3 0.000000 0.248217 0.439539
Si Si4 0.124210 0.539966 0.250000
Si Si5 0.588541 0.151932 0.911024
Si Si6 0.675350 0.553111 0.250000
O O1 0.117821 0.905614 0.928501
O O2 0.184263 0.779114 0.981530
O O3 0.256379 0.022350 0.082975
O O4 0.199480 0.156817 0.170663
O O5 0.000000 0.500000 0.500000
O O6 0.957318 0.256827 0.392367
O O7 0.000000 0.000000 0.500000
O O8 0.102185 0.548887 0.161432
O O9 0.162139 0.744866 0.250000
O O10 0.135173 0.228100 0.250000
O O11 0.590030 0.000000 0.000000
#
# Coordination Sequence:
#
# PCOD9475144 Si02
#       6
#     8  16   8   8  16   8
#     4  12  24  41  70  96 136 184 238 293 358 426
#     4  12  26  43  64  96 136 180 237 296 358 421
#     4  10  22  43  72 107 143 185 232 287 356 429
#     4  12  26  44  74 108 140 185 245 292 346 438
#     4  11  25  45  75 106 146 191 237 296 363 430
#     4  12  24  47  68  97 136 185 239 293 360 415
#
# _framework density 23.886547
#
# number of rings (size 3 to 8) (size 9 to 14) (size 15 to 20)
#    0.000    0.500    3.750    4.500    3.500    0.500 
#    0.000    0.000    0.000    3.000    0.000    0.000 
#    0.000    0.000    0.000    0.000    0.000    0.000 
#
# Total GULP energy -178201.499830 kJ/mol
# GULP energy per Si atom -5568.796870 kJ/mol
# Density = 2.383218 g / cm^3
# Si number density = 23.886547 Si / 1000 Ang^3
#
#
#
# Elastic Constant Matrix: (Units=GPa)
#
#
# Indices 1 2 3 4 5 6 
#
# 1 162.9594 28.4597 34.0850 0.0000 0.0000 0.0000
# 2 28.4597 99.9423 22.6694 0.0000 0.0000 0.0000
# 3 34.0850 22.6694 120.9312 0.0000 0.0000 0.0000
# 4 0.0000 0.0000 0.0000 30.5845 0.0000 0.0000
# 5 0.0000 0.0000 0.0000 0.0000 23.3278 0.0000
# 6 0.0000 0.0000 0.0000 0.0000 0.0000 46.6863
#
#
#
# Elastic Compliance Matrix: (Units=1/GPa)
#
#
# Indices 1 2 3 4 5 6 
#
# 1 0.006745 -0.001556 -0.001609 0.000000 0.000000 0.000000
# 2 -0.001556 0.010809 -0.001588 0.000000 0.000000 0.000000
# 3 -0.001609 -0.001588 0.009020 0.000000 0.000000 0.000000
# 4 0.000000 0.000000 0.000000 0.032696 0.000000 0.000000
# 5 0.000000 0.000000 0.000000 0.000000 0.042867 0.000000
# 6 0.000000 0.000000 0.000000 0.000000 0.000000 0.021420
#
#
# Mechanical properties :
#
#
# Convention : Reuss Voigt Hill
#
# Bulk Modulus (GPa) = 58.58735 61.58458 60.08596
# Shear Modulus (GPa) = 36.03544 40.02764 38.03154
#
# Velocity S-wave (km/s) = 3.88829 4.09802 3.99453
# Velocity P-wave (km/s) = 6.68872 6.94477 6.81795
#
# Compressibility (1/GPa) = 0.01706853
#
# Stress axis : x y z
#
# Youngs Moduli (GPa) = 148.26218 92.51647 110.85941
#
# Poissons Ratio (x) = 0.14392 0.17842
# Poissons Ratio (y) = 0.23064 0.17602
# Poissons Ratio (z) = 0.23862 0.14689
#
# Static dielectric constant tensor:
#      x y z
#    x 1.939710 0.000000 0.000000 
#    y 0.000000 1.935000 0.000000 
#    z 0.000000 0.000000 2.107810 
# 
# From -- ./inp_files/49358.got.cif
#   From: 2010.05.17/outbox.cif.g08.bks.cpg/sg63_25_cif.got.tgz:49358.got - 2010.06.03 15:47:04.
