data_PCOD9475294
_publ_section_title
;
Structure prediction by ZEFSAII (Michael W. Deem and Ramdas Pophale) SiO2 
 PCOD9475294
Probable space group: C M C M
;
_chemical_formula_sum "Si O2"
_cell_formula_units_Z 112
_cell_length_a 14.787774
_cell_length_b 12.415188
_cell_length_c 30.790449
_cell_angle_alpha 90.000000
_cell_angle_beta 90.000000
_cell_angle_gamma 90.000000
_cell_volume 5652.910728
_symmetry_space_group_name_H-M "C M C M"
_symmetry_group_IT_number 63
_symmetry_cell_setting 'orthorhombic'
loop_
_space_group_symop_operation_xyz
x,y,z
-x,-y,1/2+z
x,-y,-z
-x,y,1/2-z
-x,-y,-z
x,y,1/2-z
-x,y,z
x,-y,1/2+z
1/2+x,1/2+y,z
1/2-x,1/2-y,1/2+z
1/2+x,1/2-y,-z
1/2-x,1/2+y,1/2-z
1/2-x,1/2-y,-z
1/2+x,1/2+y,1/2-z
1/2-x,1/2+y,z
1/2+x,1/2-y,1/2+z
loop_
_atom_site_type_symbol
_atom_site_label
_atom_site_fract_x
_atom_site_fract_y
_atom_site_fract_z
Si Si1 0.399003 0.902789 0.860765
Si Si2 0.100321 0.186433 0.080609
Si Si3 0.103783 0.613784 0.698748
Si Si4 0.899094 0.772839 0.479378
Si Si5 0.748781 0.783300 0.141392
Si Si6 0.657269 0.052429 0.043674
Si Si7 0.835601 0.954180 0.083324
O O1 0.500000 0.856764 0.854408
O O2 0.320835 0.813638 0.854520
O O3 0.393293 0.947404 0.910183
O O4 0.387085 0.002814 0.828278
O O5 0.178525 0.253489 0.103189
O O6 0.000000 0.227180 0.091592
O O7 0.111442 0.062412 0.094491
O O8 0.109361 0.190939 0.028734
O O9 0.112953 0.594644 0.750000
O O10 0.183044 0.691820 0.681669
O O11 0.000000 0.653182 0.691103
O O12 0.830622 0.678054 0.467647
O O13 0.889135 0.871166 0.446676
O O14 0.000000 0.725514 0.473955
O O15 0.801118 0.889599 0.125247
O O16 0.750173 0.992567 0.054629
O O17 0.616804 0.000000 0.000000
#
# Coordination Sequence:
#
# PCOD9475294 Si02
#       7
#    16  16  16  16  16  16  16
#     4  11  24  42  64  93 129 169 211 253 308 373
#     4  11  23  37  56  85 121 166 215 261 305 359
#     4  10  23  45  71  97 124 155 195 249 313 381
#     4  11  24  38  54  81 120 171 220 258 305 360
#     4  12  22  41  63  94 121 160 200 260 310 369
#     4  12  23  37  58  86 124 169 216 263 305 354
#     4  12  22  37  57  83 121 166 214 255 305 358
#
# _framework density 19.812802000000001
#
# number of rings (size 3 to 8) (size 9 to 14) (size 15 to 20)
#    0.000    0.714    4.286    3.429    0.000    5.143 
#    0.000    0.000    0.000    0.000    0.000    0.000 
#    0.000    0.000    0.000    0.000    0.000    0.000 
#
# Total GULP energy -313049.767367 kJ/mol
# GULP energy per Si atom -5590.174417 kJ/mol
# Density = 1.976771 g / cm^3
# Si number density = 19.812802 Si / 1000 Ang^3
#
#
#
# Elastic Constant Matrix: (Units=GPa)
#
#
# Indices 1 2 3 4 5 6 
#
# 1 120.5200 22.1320 40.4962 0.0000 0.0000 0.0000
# 2 22.1320 40.8936 19.5562 0.0000 0.0000 0.0000
# 3 40.4962 19.5562 104.6927 0.0000 0.0000 0.0000
# 4 0.0000 0.0000 0.0000 21.9453 0.0000 0.0000
# 5 0.0000 0.0000 0.0000 0.0000 -153.0339 0.0000
# 6 0.0000 0.0000 0.0000 0.0000 0.0000 20.9180
#
#
#
# Elastic Compliance Matrix: (Units=1/GPa)
#
#
# Indices 1 2 3 4 5 6 
#
# 1 0.010085 -0.003945 -0.003164 0.000000 0.000000 0.000000
# 2 -0.003945 0.028396 -0.003778 0.000000 0.000000 0.000000
# 3 -0.003164 -0.003778 0.011481 0.000000 0.000000 0.000000
# 4 0.000000 0.000000 0.000000 0.045568 0.000000 0.000000
# 5 0.000000 0.000000 0.000000 0.000000 -0.006534 0.000000
# 6 0.000000 0.000000 0.000000 0.000000 0.000000 0.047806
#
#
# Mechanical properties :
#
#
# Convention : Reuss Voigt Hill
#
# Bulk Modulus (GPa) = 35.47677 47.83056 41.65367
# Shear Modulus (GPa) = 29.76697 -9.77266 9.99715
#
# Velocity S-wave (km/s) = 3.88030 -2.22333 2.24872
# Velocity P-wave (km/s) = 6.16608 4.19556 5.27367
#
# Compressibility (1/GPa) = 0.02818746
#
# Stress axis : x y z
#
# Youngs Moduli (GPa) = 99.15732 35.21673 87.09721
#
# Poissons Ratio (x) = 0.13893 0.27558
# Poissons Ratio (y) = 0.39117 0.32907
# Poissons Ratio (z) = 0.31374 0.13306
#
# Static dielectric constant tensor:
#      x y z
#    x 1.781090 0.000000 0.000000 
#    y 0.000000 1.698600 0.000000 
#    z 0.000000 0.000000 1.674830 
# 
# From -- ./inp_files/73407.got.cif
#   From: 2010.05.17/outbox.cif.g08.bks.cpg/sg63_37_cif.got.tgz:73407.got - 2010.06.03 15:47:04.
