data_PCOD9475135
_publ_section_title
;
Structure prediction by ZEFSAII (Michael W. Deem and Ramdas Pophale) SiO2 
 PCOD9475135
Probable space group: C M C M
;
_chemical_formula_sum "Si O2"
_cell_formula_units_Z 112
_cell_length_a 27.470521
_cell_length_b 14.609663
_cell_length_c 13.695681
_cell_angle_alpha 90.000000
_cell_angle_beta 90.000000
_cell_angle_gamma 90.000000
_cell_volume 5496.556877
_symmetry_space_group_name_H-M "C M C M"
_symmetry_group_IT_number 63
_symmetry_cell_setting 'orthorhombic'
loop_
_space_group_symop_operation_xyz
x,y,z
-x,-y,1/2+z
x,-y,-z
-x,y,1/2-z
-x,-y,-z
x,y,1/2-z
-x,y,z
x,-y,1/2+z
1/2+x,1/2+y,z
1/2-x,1/2-y,1/2+z
1/2+x,1/2-y,-z
1/2-x,1/2+y,1/2-z
1/2-x,1/2-y,-z
1/2+x,1/2+y,1/2-z
1/2-x,1/2+y,z
1/2+x,1/2-y,1/2+z
loop_
_atom_site_type_symbol
_atom_site_label
_atom_site_fract_x
_atom_site_fract_y
_atom_site_fract_z
Si Si1 0.388095 0.095227 0.474630
Si Si2 0.211973 0.400801 0.865313
Si Si3 0.443208 0.259239 0.367807
Si Si4 0.276118 0.318712 0.365465
Si Si5 0.372458 0.580574 0.869258
Si Si6 0.330889 0.806854 0.366650
Si Si7 0.679500 0.593696 0.131655
O O1 0.337513 0.071111 0.418266
O O2 0.417181 0.170425 0.412908
O O3 0.372344 0.142902 0.575073
O O4 0.413967 0.000000 0.500000
O O5 0.207299 0.423260 0.750000
O O6 0.215274 0.289881 0.874102
O O7 0.265487 0.433969 0.899121
O O8 0.438742 0.253567 0.250000
O O9 0.500000 0.261644 0.393127
O O10 0.416079 0.353008 0.400077
O O11 0.274605 0.338684 0.250000
O O12 0.322428 0.371657 0.404198
O O13 0.222319 0.341707 0.401763
O O14 0.373773 0.582538 0.750000
O O15 0.363623 0.475092 0.896829
O O16 0.334191 0.817670 0.250000
O O17 0.330765 0.699135 0.390398
O O18 0.682508 0.590378 0.250000
#
# Coordination Sequence:
#
# PCOD9475135 Si02
#       7
#    16  16  16  16  16  16  16
#     4  12  25  36  55  85 115 152 198 247 283 341
#     4   9  17  33  52  76 115 155 191 234 285 337
#     4  10  22  43  68  89 111 141 186 250 309 340
#     4   8  14  27  50  76 110 152 189 224 270 334
#     4   9  15  29  57  88 112 146 188 233 288 341
#     4   9  20  37  52  77 122 168 194 223 278 346
#     4   8  16  30  53  82 118 160 195 226 274 349
#
# _framework density 20.376393
#
# number of rings (size 3 to 8) (size 9 to 14) (size 15 to 20)
#    0.000    2.714    1.429    2.143    2.000    3.714 
#    0.000    0.714    0.000    2.143    0.000    2.000 
#    0.000    0.000    0.000    0.000    0.000    0.000 
#
# Total GULP energy -312767.290295 kJ/mol
# GULP energy per Si atom -5585.130184 kJ/mol
# Density = 2.033002 g / cm^3
# Si number density = 20.376393 Si / 1000 Ang^3
#
#
#
# Elastic Constant Matrix: (Units=GPa)
#
#
# Indices 1 2 3 4 5 6 
#
# 1 96.1502 61.0331 20.0341 0.0000 0.0000 0.0000
# 2 61.0331 102.5731 13.0914 0.0000 0.0000 0.0000
# 3 20.0341 13.0914 71.9804 0.0000 0.0000 0.0000
# 4 0.0000 0.0000 0.0000 22.2624 0.0000 0.0000
# 5 0.0000 0.0000 0.0000 0.0000 15.2986 0.0000
# 6 0.0000 0.0000 0.0000 0.0000 0.0000 12.1540
#
#
#
# Elastic Compliance Matrix: (Units=1/GPa)
#
#
# Indices 1 2 3 4 5 6 
#
# 1 0.017330 -0.009927 -0.003018 0.000000 0.000000 0.000000
# 2 -0.009927 0.015667 -0.000087 0.000000 0.000000 0.000000
# 3 -0.003018 -0.000087 0.014748 0.000000 0.000000 0.000000
# 4 0.000000 0.000000 0.000000 0.044919 0.000000 0.000000
# 5 0.000000 0.000000 0.000000 0.000000 0.065366 0.000000
# 6 0.000000 0.000000 0.000000 0.000000 0.000000 0.082278
#
#
# Mechanical properties :
#
#
# Convention : Reuss Voigt Hill
#
# Bulk Modulus (GPa) = 46.11924 51.00231 48.56077
# Shear Modulus (GPa) = 18.27499 21.71267 19.99383
#
# Velocity S-wave (km/s) = 2.99803 3.26786 3.13585
# Velocity P-wave (km/s) = 5.88787 6.27081 6.08235
#
# Compressibility (1/GPa) = 0.02168293
#
# Stress axis : x y z
#
# Youngs Moduli (GPa) = 57.70189 63.82913 67.80387
#
# Poissons Ratio (x) = 0.63362 0.20464
# Poissons Ratio (y) = 0.57279 0.00587
# Poissons Ratio (z) = 0.17415 0.00552
#
# Static dielectric constant tensor:
#      x y z
#    x 1.684850 0.000000 0.000000 
#    y 0.000000 1.763020 0.000000 
#    z 0.000000 0.000000 1.785840 
# 
# From -- ./inp_files/37983.got.cif
#   From: 2010.05.17/outbox.cif.g08.bks.cpg/sg63_19_cif.got.tgz:37983.got - 2010.06.03 15:47:04.
