data_PCOD9475172
_publ_section_title
;
Structure prediction by ZEFSAII (Michael W. Deem and Ramdas Pophale) SiO2 
 PCOD9475172
Probable space group: C M C M
;
_chemical_formula_sum "Si O2"
_cell_formula_units_Z 88
_cell_length_a 27.399996
_cell_length_b 11.072497
_cell_length_c 15.253975
_cell_angle_alpha 90.000000
_cell_angle_beta 90.000000
_cell_angle_gamma 90.000000
_cell_volume 4627.848157
_symmetry_space_group_name_H-M "C M C M"
_symmetry_group_IT_number 63
_symmetry_cell_setting 'orthorhombic'
loop_
_space_group_symop_operation_xyz
x,y,z
-x,-y,1/2+z
x,-y,-z
-x,y,1/2-z
-x,-y,-z
x,y,1/2-z
-x,y,z
x,-y,1/2+z
1/2+x,1/2+y,z
1/2-x,1/2-y,1/2+z
1/2+x,1/2-y,-z
1/2-x,1/2+y,1/2-z
1/2-x,1/2-y,-z
1/2+x,1/2+y,1/2-z
1/2-x,1/2+y,z
1/2+x,1/2-y,1/2+z
loop_
_atom_site_type_symbol
_atom_site_label
_atom_site_fract_x
_atom_site_fract_y
_atom_site_fract_z
Si Si1 0.112062 0.752109 0.073095
Si Si2 0.691757 0.369462 0.645876
Si Si3 0.693439 0.886915 0.854741
Si Si4 0.554912 0.193840 0.250000
Si Si5 0.443957 0.903963 0.250000
Si Si6 0.366632 0.127938 0.901005
Si Si7 0.369244 0.500000 0.500000
O O1 0.167961 0.731029 0.104333
O O2 0.081231 0.731258 0.160259
O O3 0.108980 0.654394 0.995131
O O4 0.102169 0.881688 0.030985
O O5 0.683965 0.389511 0.750000
O O6 0.749214 0.384090 0.627607
O O7 0.670671 0.237375 0.621151
O O8 0.662964 0.460217 0.583141
O O9 0.686274 0.886530 0.750000
O O10 0.664787 0.005319 0.889847
O O11 0.500000 0.241071 0.250000
O O12 0.554053 0.048982 0.250000
O O13 0.500000 0.859014 0.250000
O O14 0.411058 0.868368 0.167245
#
# Coordination Sequence:
#
# PCOD9475172 Si02
#       7
#    16  16  16   8   8  16   8
#     4  11  23  41  63  90 125 168 202 258 306 373
#     4  10  23  37  58  89 130 169 212 256 297 369
#     4  11  21  36  62  91 125 175 207 247 310 366
#     4  11  24  44  68  96 122 153 210 267 324 377
#     4  11  22  40  66  98 126 157 206 263 326 379
#     4  11  21  40  61  92 134 163 207 258 316 373
#     4  10  26  38  59  90 122 168 217 240 302 378
#
# _framework density 19.015315999999999
#
# number of rings (size 3 to 8) (size 9 to 14) (size 15 to 20)
#    0.000    1.273    4.545    0.545    6.364    2.182 
#    0.000    2.273    0.000    5.455    0.000    0.000 
#    0.000    0.000    0.000    0.000    0.000    0.000 
#
# Total GULP energy -245519.877329 kJ/mol
# GULP energy per Si atom -5579.997212 kJ/mol
# Density = 1.897204 g / cm^3
# Si number density = 19.015316 Si / 1000 Ang^3
#
#
#
# Elastic Constant Matrix: (Units=GPa)
#
#
# Indices 1 2 3 4 5 6 
#
# 1 101.4945 22.2765 57.3745 0.0000 0.0000 0.0000
# 2 22.2765 79.3764 25.1119 0.0000 0.0000 0.0000
# 3 57.3745 25.1119 143.9665 0.0000 0.0000 0.0000
# 4 0.0000 0.0000 0.0000 20.3204 0.0000 0.0000
# 5 0.0000 0.0000 0.0000 0.0000 -3.2340 0.0000
# 6 0.0000 0.0000 0.0000 0.0000 0.0000 11.5760
#
#
#
# Elastic Compliance Matrix: (Units=1/GPa)
#
#
# Indices 1 2 3 4 5 6 
#
# 1 0.013051 -0.002135 -0.004829 0.000000 0.000000 0.000000
# 2 -0.002135 0.013683 -0.001536 0.000000 0.000000 0.000000
# 3 -0.004829 -0.001536 0.009138 0.000000 0.000000 0.000000
# 4 0.000000 0.000000 0.000000 0.049212 0.000000 0.000000
# 5 0.000000 0.000000 0.000000 0.000000 -0.309219 0.000000
# 6 0.000000 0.000000 0.000000 0.000000 0.000000 0.086386
#
#
# Mechanical properties :
#
#
# Convention : Reuss Voigt Hill
#
# Bulk Modulus (GPa) = 52.98494 59.37368 56.17931
# Shear Modulus (GPa) = -43.68394 20.40412 -11.63991
#
# Velocity S-wave (km/s) = -4.79822 3.27928 -2.47682
# Velocity P-wave (km/s) = 1.66504 6.75501 4.62913
#
# Compressibility (1/GPa) = 0.01887329
#
# Stress axis : x y z
#
# Youngs Moduli (GPa) = 76.62221 73.08185 109.42885
#
# Poissons Ratio (x) = 0.15603 0.52841
# Poissons Ratio (y) = 0.16359 0.16807
# Poissons Ratio (z) = 0.36999 0.11225
#
# Static dielectric constant tensor:
#      x y z
#    x 1.644870 0.000000 0.000000 
#    y 0.000000 1.680430 0.000000 
#    z 0.000000 0.000000 1.692070 
# 
# From -- ./inp_files/37806.got.cif
#   From: 2010.05.17/outbox.cif.g08.bks.cpg/sg63_19_cif.got.tgz:37806.got - 2010.06.03 15:47:04.
