data_PCOD9475180
_publ_section_title
;
Structure prediction by ZEFSAII (Michael W. Deem and Ramdas Pophale) SiO2 
 PCOD9475180
Probable space group: C M C M
;
_chemical_formula_sum "Si O2"
_cell_formula_units_Z 108
_cell_length_a 16.056892
_cell_length_b 16.024799
_cell_length_c 21.474919
_cell_angle_alpha 90.000000
_cell_angle_beta 90.000000
_cell_angle_gamma 90.000000
_cell_volume 5525.678484
_symmetry_space_group_name_H-M "C M C M"
_symmetry_group_IT_number 63
_symmetry_cell_setting 'orthorhombic'
loop_
_space_group_symop_operation_xyz
x,y,z
-x,-y,1/2+z
x,-y,-z
-x,y,1/2-z
-x,-y,-z
x,y,1/2-z
-x,y,z
x,-y,1/2+z
1/2+x,1/2+y,z
1/2-x,1/2-y,1/2+z
1/2+x,1/2-y,-z
1/2-x,1/2+y,1/2-z
1/2-x,1/2-y,-z
1/2+x,1/2+y,1/2-z
1/2-x,1/2+y,z
1/2+x,1/2-y,1/2+z
loop_
_atom_site_type_symbol
_atom_site_label
_atom_site_fract_x
_atom_site_fract_y
_atom_site_fract_z
Si Si1 0.801580 0.500000 0.500000
Si Si2 0.903103 0.170913 0.820356
Si Si3 0.136270 0.866601 0.641011
Si Si4 0.827494 0.644286 0.181130
Si Si5 0.500000 0.663367 0.250000
Si Si6 0.598674 0.318270 0.991845
Si Si7 0.347328 0.460197 0.416058
Si Si8 0.401447 0.145122 0.448493
O O1 0.741636 0.509381 0.559525
O O2 0.856238 0.582290 0.494734
O O3 0.908084 0.138468 0.750000
O O4 0.857287 0.259263 0.818081
O O5 0.852017 0.107629 0.861963
O O6 0.000000 0.180141 0.843212
O O7 0.229566 0.866646 0.668445
O O8 0.137493 0.813295 0.576916
O O9 0.072701 0.839466 0.694449
O O10 0.110581 0.958096 0.613867
O O11 0.847975 0.609686 0.250000
O O12 0.876633 0.614143 0.120377
O O13 0.500000 0.312711 0.983807
O O14 0.616993 0.406645 0.025614
O O15 0.625412 0.240224 0.035168
O O16 0.500000 0.141584 0.455149
#
# Coordination Sequence:
#
# PCOD9475180 Si02
#       8
#     8  16  16  16   4  16  16  16
#     4  12  25  42  61 100 130 170 216 279 332 401
#     4  10  23  39  62  92 126 167 217 275 330 385
#     4  12  25  41  62  94 136 182 214 259 327 401
#     4  11  22  41  64  94 127 168 223 270 330 389
#     4  12  28  44  62  92 146 190 216 258 316 412
#     4  11  23  40  65  95 125 168 218 273 325 385
#     4  12  23  38  60  95 132 167 214 270 327 390
#     4  11  24  44  69  95 127 170 223 281 337 387
#
# _framework density 19.545110999999999
#
# number of rings (size 3 to 8) (size 9 to 14) (size 15 to 20)
#    0.000    0.741    5.926    1.111    5.185    2.667 
#    0.000    0.000    0.000    0.000    1.926    0.000 
#    0.000    0.000    0.000    0.000    0.000    0.000 
#
# Total GULP energy -300715.731824 kJ/mol
# GULP energy per Si atom -5568.809849 kJ/mol
# Density = 1.950063 g / cm^3
# Si number density = 19.545111 Si / 1000 Ang^3
#
#
#
# Elastic Constant Matrix: (Units=GPa)
#
#
# Indices 1 2 3 4 5 6 
#
# 1 67.6636 17.9025 13.8144 0.0000 0.0000 0.0000
# 2 17.9025 51.5605 5.3323 0.0000 0.0000 0.0000
# 3 13.8144 5.3323 110.0232 0.0000 0.0000 0.0000
# 4 0.0000 0.0000 0.0000 22.7268 0.0000 0.0000
# 5 0.0000 0.0000 0.0000 0.0000 36.2661 0.0000
# 6 0.0000 0.0000 0.0000 0.0000 0.0000 19.5814
#
#
#
# Elastic Compliance Matrix: (Units=1/GPa)
#
#
# Indices 1 2 3 4 5 6 
#
# 1 0.016628 -0.005585 -0.001817 0.000000 0.000000 0.000000
# 2 -0.005585 0.021369 -0.000334 0.000000 0.000000 0.000000
# 3 -0.001817 -0.000334 0.009333 0.000000 0.000000 0.000000
# 4 0.000000 0.000000 0.000000 0.044001 0.000000 0.000000
# 5 0.000000 0.000000 0.000000 0.000000 0.027574 0.000000
# 6 0.000000 0.000000 0.000000 0.000000 0.000000 0.051069
#
#
# Mechanical properties :
#
#
# Convention : Reuss Voigt Hill
#
# Bulk Modulus (GPa) = 31.39126 33.70509 32.54818
# Shear Modulus (GPa) = 25.50162 28.52806 27.01484
#
# Velocity S-wave (km/s) = 3.61606 3.82462 3.72180
# Velocity P-wave (km/s) = 5.79054 6.06513 5.92942
#
# Compressibility (1/GPa) = 0.03185600
#
# Stress axis : x y z
#
# Youngs Moduli (GPa) = 60.14028 46.79756 107.14271
#
# Poissons Ratio (x) = 0.26139 0.19469
# Poissons Ratio (y) = 0.33591 0.03582
# Poissons Ratio (z) = 0.10928 0.01565
#
# Static dielectric constant tensor:
#      x y z
#    x 1.672280 0.000000 0.000000 
#    y 0.000000 1.695800 0.000000 
#    z 0.000000 0.000000 1.740340 
# 
# From -- ./inp_files/63028.got.cif
#   From: 2010.05.17/outbox.cif.g08.bks.cpg/sg63_32_cif.got.tgz:63028.got - 2010.06.03 15:47:04.
