data_PCOD9475272
_publ_section_title
;
Structure prediction by ZEFSAII (Michael W. Deem and Ramdas Pophale) SiO2 
 PCOD9475272
Probable space group: C M C M
;
_chemical_formula_sum "Si O2"
_cell_formula_units_Z 52
_cell_length_a 7.479580
_cell_length_b 19.560198
_cell_length_c 13.644333
_cell_angle_alpha 90.000000
_cell_angle_beta 90.000000
_cell_angle_gamma 90.000000
_cell_volume 1996.194104
_symmetry_space_group_name_H-M "C M C M"
_symmetry_group_IT_number 63
_symmetry_cell_setting 'orthorhombic'
loop_
_space_group_symop_operation_xyz
x,y,z
-x,-y,1/2+z
x,-y,-z
-x,y,1/2-z
-x,-y,-z
x,y,1/2-z
-x,y,z
x,-y,1/2+z
1/2+x,1/2+y,z
1/2-x,1/2-y,1/2+z
1/2+x,1/2-y,-z
1/2-x,1/2+y,1/2-z
1/2-x,1/2-y,-z
1/2+x,1/2+y,1/2-z
1/2-x,1/2+y,z
1/2+x,1/2-y,1/2+z
loop_
_atom_site_type_symbol
_atom_site_label
_atom_site_fract_x
_atom_site_fract_y
_atom_site_fract_z
Si Si1 0.500000 0.451367 0.750000
Si Si2 0.710535 0.843699 0.419607
Si Si3 0.207693 0.491140 0.115465
Si Si4 0.717404 0.693083 0.139719
O O1 0.656846 0.458630 0.666692
O O2 0.500000 0.843917 0.399146
O O3 0.777004 0.913144 0.370237
O O4 0.778944 0.771702 0.379002
O O5 0.729673 0.843316 0.538029
O O6 0.000000 0.498156 0.145307
O O7 0.209807 0.500000 0.000000
O O8 0.777090 0.673494 0.250000
O O9 0.500000 0.690761 0.143061
#
# Coordination Sequence:
#
# PCOD9475272 Si02
#       4
#     4  16  16  16
#     4  12  24  40  68 100 116 164 216 260 302 382
#     4   9  19  36  56  81 117 155 195 245 301 359
#     4  10  23  44  65  91 129 164 204 260 317 370
#     4   9  18  33  54  82 115 154 197 245 298 357
#
# _framework density 26.049572000000001
#
# number of rings (size 3 to 8) (size 9 to 14) (size 15 to 20)
#    0.000    2.462    0.000    0.923    4.308    0.615 
#    2.769    0.000    0.000    0.000    0.000    0.000 
#    0.000    0.000    0.000    0.000    0.000    0.000 
#
# Total GULP energy -144986.872943 kJ/mol
# GULP energy per Si atom -5576.418190 kJ/mol
# Density = 2.599028 g / cm^3
# Si number density = 26.049572 Si / 1000 Ang^3
#
#
#
# Elastic Constant Matrix: (Units=GPa)
#
#
# Indices 1 2 3 4 5 6 
#
# 1 117.7171 7.0129 14.2630 0.0000 0.0000 0.0000
# 2 7.0129 107.7626 22.4615 0.0000 0.0000 0.0000
# 3 14.2630 22.4615 166.6706 0.0000 0.0000 0.0000
# 4 0.0000 0.0000 0.0000 -4.7120 0.0000 0.0000
# 5 0.0000 0.0000 0.0000 0.0000 66.6400 0.0000
# 6 0.0000 0.0000 0.0000 0.0000 0.0000 4.0022
#
#
#
# Elastic Compliance Matrix: (Units=1/GPa)
#
#
# Indices 1 2 3 4 5 6 
#
# 1 0.008602 -0.000418 -0.000680 0.000000 0.000000 0.000000
# 2 -0.000418 0.009568 -0.001254 0.000000 0.000000 0.000000
# 3 -0.000680 -0.001254 0.006227 0.000000 0.000000 0.000000
# 4 0.000000 0.000000 0.000000 -0.212223 0.000000 0.000000
# 5 0.000000 0.000000 0.000000 0.000000 0.015006 0.000000
# 6 0.000000 0.000000 0.000000 0.000000 0.000000 0.249863
#
#
# Mechanical properties :
#
#
# Convention : Reuss Voigt Hill
#
# Bulk Modulus (GPa) = 50.77636 53.29166 52.03401
# Shear Modulus (GPa) = 56.61844 36.41357 46.51601
#
# Velocity S-wave (km/s) = 4.66713 3.74285 4.23031
# Velocity P-wave (km/s) = 6.96974 6.25945 6.62412
#
# Compressibility (1/GPa) = 0.01969420
#
# Stress axis : x y z
#
# Youngs Moduli (GPa) = 116.24910 104.51306 160.59137
#
# Poissons Ratio (x) = 0.04370 0.10917
# Poissons Ratio (y) = 0.04861 0.20133
# Poissons Ratio (z) = 0.07903 0.13103
#
# Static dielectric constant tensor:
#      x y z
#    x 1.961340 0.000000 0.000000 
#    y 0.000000 2.227960 0.000000 
#    z 0.000000 0.000000 2.022770 
# 
# From -- ./inp_files/27092.got.cif
#   From: 2010.05.17/outbox.cif.g08.bks.cpg/sg63_14_cif.got.tgz:27092.got - 2010.06.03 15:47:04.
