data_PCOD9475397
_publ_section_title
;
Structure prediction by ZEFSAII (Michael W. Deem and Ramdas Pophale) SiO2 
 PCOD9475397
Probable space group: C M C M
;
_chemical_formula_sum "Si O2"
_cell_formula_units_Z 96
_cell_length_a 13.685478
_cell_length_b 31.920520
_cell_length_c 14.546114
_cell_angle_alpha 90.000000
_cell_angle_beta 90.000000
_cell_angle_gamma 90.000000
_cell_volume 6354.434615
_symmetry_space_group_name_H-M "C M C M"
_symmetry_group_IT_number 63
_symmetry_cell_setting 'orthorhombic'
loop_
_space_group_symop_operation_xyz
x,y,z
-x,-y,1/2+z
x,-y,-z
-x,y,1/2-z
-x,-y,-z
x,y,1/2-z
-x,y,z
x,-y,1/2+z
1/2+x,1/2+y,z
1/2-x,1/2-y,1/2+z
1/2+x,1/2-y,-z
1/2-x,1/2+y,1/2-z
1/2-x,1/2-y,-z
1/2+x,1/2+y,1/2-z
1/2-x,1/2+y,z
1/2+x,1/2-y,1/2+z
loop_
_atom_site_type_symbol
_atom_site_label
_atom_site_fract_x
_atom_site_fract_y
_atom_site_fract_z
Si Si1 0.747889 0.846892 0.499999
Si Si2 0.115600 0.808637 0.857552
Si Si3 0.118097 0.500000 0.853630
Si Si4 0.615600 0.308636 0.142448
Si Si5 0.881911 0.570382 1.000000
Si Si6 0.886531 0.734841 0.500001
O O1 0.817897 0.841939 0.588723
O O2 0.817898 0.841939 0.411276
O O3 0.680539 0.887568 0.499999
O O4 0.679294 0.805846 0.499999
O O5 0.138635 0.805400 0.750000
O O6 0.130643 0.764818 0.911892
O O7 0.000000 0.818392 0.867476
O O8 0.156257 0.500000 0.750000
O O9 0.143015 0.458739 0.912189
O O10 0.000000 0.500000 0.849904
O O11 0.143015 0.541261 0.912188
O O12 0.638635 0.305399 0.250000
O O13 0.500000 0.318392 0.132525
O O14 0.630642 0.264817 0.088107
O O15 0.000000 0.577931 1.000000
O O16 0.000000 0.722684 0.500001
#
# Coordination Sequence:
#
# PCOD9475397 Si02
#       6
#    16  16  16  16  16  16
#     4  11  19  27  45  70  92 113 144 188 228 259
#     4   9  18  32  46  60  84 121 160 190 217 254
#     4   8  15  31  50  63  85 122 150 168 204 264
#     4   9  18  32  46  60  84 121 160 190 217 254
#     4   9  18  30  45  69  96 118 142 174 214 262
#     4   9  18  30  43  62  90 122 151 181 220 262
#
# _framework density 15.107559
#
# number of rings (size 3 to 8) (size 9 to 14) (size 15 to 20)
#    0.000    2.833    0.000    5.000    0.000    4.000 
#    0.000    0.000    0.000   10.000    0.000    9.333 
#    0.000   16.000    0.000    0.000    0.000    0.000 
#
# Total GULP energy -267359.964820 kJ/mol
# GULP energy per Si atom -5569.999267 kJ/mol
# Density = 1.507317 g / cm^3
# Si number density = 15.107559 Si / 1000 Ang^3
#
#
#
# Elastic Constant Matrix: (Units=GPa)
#
#
# Indices 1 2 3 4 5 6 
#
# 1 78.4710 61.3647 54.7448 0.0000 0.0000 0.0000
# 2 61.3647 107.0903 66.6371 0.0000 0.0000 0.0000
# 3 54.7448 66.6371 158.2048 0.0000 0.0000 0.0000
# 4 0.0000 0.0000 0.0000 1.9264 0.0000 0.0000
# 5 0.0000 0.0000 0.0000 0.0000 16.3634 0.0000
# 6 0.0000 0.0000 0.0000 0.0000 0.0000 29.1458
#
#
#
# Elastic Compliance Matrix: (Units=1/GPa)
#
#
# Indices 1 2 3 4 5 6 
#
# 1 0.024415 -0.011835 -0.003463 0.000000 0.000000 0.000000
# 2 -0.011835 0.018392 -0.003651 0.000000 0.000000 0.000000
# 3 -0.003463 -0.003651 0.009057 0.000000 0.000000 0.000000
# 4 0.000000 0.000000 0.000000 0.519107 0.000000 0.000000
# 5 0.000000 0.000000 0.000000 0.000000 0.061112 0.000000
# 6 0.000000 0.000000 0.000000 0.000000 0.000000 0.034310
#
#
# Mechanical properties :
#
#
# Convention : Reuss Voigt Hill
#
# Bulk Modulus (GPa) = 71.61145 78.80661 75.20903
# Shear Modulus (GPa) = 7.05271 20.22174 13.63723
#
# Velocity S-wave (km/s) = 2.16298 3.66255 3.00772
# Velocity P-wave (km/s) = 7.33089 8.37631 7.87098
#
# Compressibility (1/GPa) = 0.01396425
#
# Stress axis : x y z
#
# Youngs Moduli (GPa) = 40.95866 54.37248 110.40719
#
# Poissons Ratio (x) = 0.64350 0.38239
# Poissons Ratio (y) = 0.48475 0.40313
# Poissons Ratio (z) = 0.14186 0.19853
#
# Static dielectric constant tensor:
#      x y z
#    x 1.511090 0.000000 0.000000 
#    y 0.000000 1.469340 0.000000 
#    z 0.000000 0.000000 1.518680 
# 
# From -- ./inp_files/32649.got.cif
#   From: 2010.05.17/outbox.cif.g08.bks.cpg/sg63_17_cif.got.tgz:32649.got - 2010.06.03 15:47:04.
