data_PCOD9475062
_publ_section_title
;
Structure prediction by ZEFSAII (Michael W. Deem and Ramdas Pophale) SiO2 
 PCOD9475062
Probable space group: C M C M
;
_chemical_formula_sum "Si O2"
_cell_formula_units_Z 40
_cell_length_a 22.693676
_cell_length_b 5.101118
_cell_length_c 14.934319
_cell_angle_alpha 90.000000
_cell_angle_beta 90.000000
_cell_angle_gamma 90.000000
_cell_volume 1728.843350
_symmetry_space_group_name_H-M "C M C M"
_symmetry_group_IT_number 63
_symmetry_cell_setting 'orthorhombic'
loop_
_space_group_symop_operation_xyz
x,y,z
-x,-y,1/2+z
x,-y,-z
-x,y,1/2-z
-x,-y,-z
x,y,1/2-z
-x,y,z
x,-y,1/2+z
1/2+x,1/2+y,z
1/2-x,1/2-y,1/2+z
1/2+x,1/2-y,-z
1/2-x,1/2+y,1/2-z
1/2-x,1/2-y,-z
1/2+x,1/2+y,1/2-z
1/2-x,1/2+y,z
1/2+x,1/2-y,1/2+z
loop_
_atom_site_type_symbol
_atom_site_label
_atom_site_fract_x
_atom_site_fract_y
_atom_site_fract_z
Si Si1 0.292005 0.936768 0.750000
Si Si2 0.500000 0.247832 0.934435
Si Si3 0.707631 0.500000 0.000000
Si Si4 0.628258 0.154104 0.904459
O O1 0.241693 0.162097 0.750000
O O2 0.334235 0.988716 0.665471
O O3 0.561106 0.224694 0.880783
O O4 0.500000 0.500000 0.000000
O O5 0.500000 0.000000 0.000000
O O6 0.663529 0.575044 0.079839
O O7 0.750000 0.750000 0.000000
O O8 0.627566 0.000000 0.000000
#
# Coordination Sequence:
#
# PCOD9475062 Si02
#       4
#     8   8   8  16
#     4  12  30  43  66 105 142 180 238 284 346 424
#     4  10  22  41  72 101 127 179 234 277 340 415
#     4  12  22  35  66  91 126 176 216 268 342 396
#     4  11  25  46  71 100 140 182 232 289 346 411
#
# _framework density 23.136856000000002
#
# number of rings (size 3 to 8) (size 9 to 14) (size 15 to 20)
#    0.000    0.800    4.000    2.400    5.600    0.800 
#    0.000    0.000    0.000    4.800    0.000    0.000 
#    0.000    0.000    0.000    0.000    0.000    0.000 
#
# Total GULP energy -111843.969494 kJ/mol
# GULP energy per Si atom -5592.198475 kJ/mol
# Density = 2.308420 g / cm^3
# Si number density = 23.136856 Si / 1000 Ang^3
#
#
#
# Elastic Constant Matrix: (Units=GPa)
#
#
# Indices 1 2 3 4 5 6 
#
# 1 237.7296 44.8311 41.6183 0.0000 0.0000 0.0000
# 2 44.8311 154.2618 14.3183 0.0000 0.0000 0.0000
# 3 41.6183 14.3183 95.8361 0.0000 0.0000 0.0000
# 4 0.0000 0.0000 0.0000 22.8683 0.0000 0.0000
# 5 0.0000 0.0000 0.0000 0.0000 35.9549 0.0000
# 6 0.0000 0.0000 0.0000 0.0000 0.0000 28.4499
#
#
#
# Elastic Compliance Matrix: (Units=1/GPa)
#
#
# Indices 1 2 3 4 5 6 
#
# 1 0.004765 -0.001210 -0.001889 0.000000 0.000000 0.000000
# 2 -0.001210 0.006881 -0.000503 0.000000 0.000000 0.000000
# 3 -0.001889 -0.000503 0.011330 0.000000 0.000000 0.000000
# 4 0.000000 0.000000 0.000000 0.043729 0.000000 0.000000
# 5 0.000000 0.000000 0.000000 0.000000 0.027813 0.000000
# 6 0.000000 0.000000 0.000000 0.000000 0.000000 0.035149
#
#
# Mechanical properties :
#
#
# Convention : Reuss Voigt Hill
#
# Bulk Modulus (GPa) = 63.39637 76.59588 69.99612
# Shear Modulus (GPa) = 35.18000 43.25860 39.21930
#
# Velocity S-wave (km/s) = 3.90361 4.32867 4.12163
# Velocity P-wave (km/s) = 6.91214 7.62631 7.27799
#
# Compressibility (1/GPa) = 0.01577377
#
# Stress axis : x y z
#
# Youngs Moduli (GPa) = 209.85504 145.33476 88.26302
#
# Poissons Ratio (x) = 0.17579 0.16670
# Poissons Ratio (y) = 0.25383 0.04437
# Poissons Ratio (z) = 0.39634 0.07306
#
# Static dielectric constant tensor:
#      x y z
#    x 1.934300 0.000000 0.000000 
#    y 0.000000 1.893520 0.000000 
#    z 0.000000 0.000000 1.954490 
# 
# From -- ./inp_files/48513.got.cif
#   From: 2010.05.17/outbox.cif.g08.bks.cpg/sg63_25_cif.got.tgz:48513.got - 2010.06.03 15:47:04.
