data_PCOD9475828
_publ_section_title
;
Structure prediction by ZEFSAII (Michael W. Deem and Ramdas Pophale) SiO2 
 PCOD9475828
Probable space group: C M C M
;
_chemical_formula_sum "Si O2"
_cell_formula_units_Z 68
_cell_length_a 21.180552
_cell_length_b 9.114610
_cell_length_c 15.754520
_cell_angle_alpha 90.000000
_cell_angle_beta 90.000000
_cell_angle_gamma 90.000000
_cell_volume 3041.449016
_symmetry_space_group_name_H-M "C M C M"
_symmetry_group_IT_number 63
_symmetry_cell_setting 'orthorhombic'
loop_
_space_group_symop_operation_xyz
x,y,z
-x,-y,1/2+z
x,-y,-z
-x,y,1/2-z
-x,-y,-z
x,y,1/2-z
-x,y,z
x,-y,1/2+z
1/2+x,1/2+y,z
1/2-x,1/2-y,1/2+z
1/2+x,1/2-y,-z
1/2-x,1/2+y,1/2-z
1/2-x,1/2-y,-z
1/2+x,1/2+y,1/2-z
1/2-x,1/2+y,z
1/2+x,1/2-y,1/2+z
loop_
_atom_site_type_symbol
_atom_site_label
_atom_site_fract_x
_atom_site_fract_y
_atom_site_fract_z
Si Si1 0.093995 0.889435 0.149506
Si Si2 0.198494 0.699516 0.567601
Si Si3 0.000000 0.000000 0.000000
Si Si4 0.431185 0.172580 0.018470
Si Si5 0.768155 0.023440 0.156229
O O1 0.077612 0.907753 0.250000
O O2 0.081343 0.723580 0.114953
O O3 0.167876 0.930296 0.141689
O O4 0.055497 0.979489 0.077792
O O5 0.250000 0.750000 0.500000
O O6 0.128477 0.722935 0.534750
O O7 0.212260 0.809316 0.644355
O O8 0.214291 0.534368 0.593862
O O9 0.500000 0.244582 0.994575
O O10 0.435918 0.000000 0.000000
O O11 0.744664 0.999068 0.250000
#
# Coordination Sequence:
#
# PCOD9475828 Si02
#       5
#    16  16   4  16  16
#     4  11  24  42  70 105 142 186 239 298 362 435
#     4  12  23  42  70 100 133 187 237 293 361 435
#     4  12  22  40  70  98 142 184 226 290 352 442
#     4  11  24  43  68 101 139 187 243 295 361 443
#     4  11  25  43  66 101 140 178 236 299 359 428
#
# _framework density 22.357764
#
# number of rings (size 3 to 8) (size 9 to 14) (size 15 to 20)
#    0.000    0.706    3.529    4.588    0.000    0.000 
#    0.000    1.176    0.000    7.765    0.000    0.000 
#    0.000    0.000    0.000    0.000    0.000    0.000 
#
# Total GULP energy -189424.299825 kJ/mol
# GULP energy per Si atom -5571.302936 kJ/mol
# Density = 2.230688 g / cm^3
# Si number density = 22.357764 Si / 1000 Ang^3
#
#
#
# Elastic Constant Matrix: (Units=GPa)
#
#
# Indices 1 2 3 4 5 6 
#
# 1 128.3964 15.6334 49.7369 0.0000 0.0000 0.0000
# 2 15.6334 64.4287 38.1447 0.0000 0.0000 0.0000
# 3 49.7369 38.1447 169.1346 0.0000 0.0000 0.0000
# 4 0.0000 0.0000 0.0000 33.6248 0.0000 0.0000
# 5 0.0000 0.0000 0.0000 0.0000 25.3845 0.0000
# 6 0.0000 0.0000 0.0000 0.0000 0.0000 37.5562
#
#
#
# Elastic Compliance Matrix: (Units=1/GPa)
#
#
# Indices 1 2 3 4 5 6 
#
# 1 0.008817 -0.000697 -0.002435 0.000000 0.000000 0.000000
# 2 -0.000697 0.017968 -0.003847 0.000000 0.000000 0.000000
# 3 -0.002435 -0.003847 0.007496 0.000000 0.000000 0.000000
# 4 0.000000 0.000000 0.000000 0.029740 0.000000 0.000000
# 5 0.000000 0.000000 0.000000 0.000000 0.039394 0.000000
# 6 0.000000 0.000000 0.000000 0.000000 0.000000 0.026627
#
#
# Mechanical properties :
#
#
# Convention : Reuss Voigt Hill
#
# Bulk Modulus (GPa) = 49.21062 63.22109 56.21585
# Shear Modulus (GPa) = 33.16188 36.54275 34.85232
#
# Velocity S-wave (km/s) = 3.85546 4.04722 3.95251
# Velocity P-wave (km/s) = 6.47130 7.08367 6.78440
#
# Compressibility (1/GPa) = 0.02032082
#
# Stress axis : x y z
#
# Youngs Moduli (GPa) = 113.42107 55.65457 133.39968
#
# Poissons Ratio (x) = 0.03882 0.32488
# Poissons Ratio (y) = 0.07911 0.51321
# Poissons Ratio (z) = 0.27623 0.21411
#
# Static dielectric constant tensor:
#      x y z
#    x 1.824970 0.000000 0.000000 
#    y 0.000000 1.856760 0.000000 
#    z 0.000000 0.000000 1.769150 
# 
# From -- ./inp_files/34988.got.cif
#   From: 2010.05.17/outbox.cif.g08.bks.cpg/sg63_18_cif.got.tgz:34988.got - 2010.06.03 15:47:04.
