data_PCOD9475589
_publ_section_title
;
Structure prediction by ZEFSAII (Michael W. Deem and Ramdas Pophale) SiO2 
 PCOD9475589
Probable space group: C M C M
;
_chemical_formula_sum "Si O2"
_cell_formula_units_Z 80
_cell_length_a 11.911181
_cell_length_b 23.799804
_cell_length_c 14.866705
_cell_angle_alpha 90.000000
_cell_angle_beta 90.000000
_cell_angle_gamma 90.000000
_cell_volume 4214.469629
_symmetry_space_group_name_H-M "C M C M"
_symmetry_group_IT_number 63
_symmetry_cell_setting 'orthorhombic'
loop_
_space_group_symop_operation_xyz
x,y,z
-x,-y,1/2+z
x,-y,-z
-x,y,1/2-z
-x,-y,-z
x,y,1/2-z
-x,y,z
x,-y,1/2+z
1/2+x,1/2+y,z
1/2-x,1/2-y,1/2+z
1/2+x,1/2-y,-z
1/2-x,1/2+y,1/2-z
1/2-x,1/2-y,-z
1/2+x,1/2+y,1/2-z
1/2-x,1/2+y,z
1/2+x,1/2-y,1/2+z
loop_
_atom_site_type_symbol
_atom_site_label
_atom_site_fract_x
_atom_site_fract_y
_atom_site_fract_z
Si Si1 0.744055 0.253408 0.893359
Si Si2 0.000000 0.585365 0.640303
Si Si3 0.867186 0.138271 0.648516
Si Si4 0.000000 0.285560 0.354271
Si Si5 0.866346 0.630861 0.351253
Si Si6 0.285078 0.937849 0.475018
O O1 0.807502 0.198842 0.855661
O O2 0.612470 0.248090 0.873624
O O3 0.802012 0.309875 0.859456
O O4 0.750000 0.250000 0.000000
O O5 0.000000 0.651075 0.606930
O O6 0.889831 0.559088 0.594633
O O7 0.000000 0.581024 0.750000
O O8 0.849870 0.115700 0.750000
O O9 0.808482 0.099187 0.574977
O O10 0.000000 0.144292 0.633022
O O11 0.000000 0.297571 0.250000
O O12 0.846650 0.607870 0.250000
O O13 0.825197 0.592374 0.433294
O O14 0.000000 0.640049 0.360709
O O15 0.246092 0.000000 0.500000
#
# Coordination Sequence:
#
# PCOD9475589 Si02
#       6
#    16   8  16   8  16  16
#     4  12  23  37  65  95 130 164 206 258 320 381
#     4  11  21  39  66  96 129 164 208 263 317 372
#     4  11  24  43  68  95 124 164 213 263 321 385
#     4  11  22  37  61  94 129 162 204 253 306 374
#     4  11  24  42  63  92 132 171 209 259 318 382
#     4  12  25  43  65  93 128 166 220 265 316 372
#
# _framework density 18.982223000000001
#
# number of rings (size 3 to 8) (size 9 to 14) (size 15 to 20)
#    0.000    0.600    5.000    3.300    2.800    3.600 
#    0.000    0.000    0.000    0.000    0.000    0.000 
#    0.000    0.000    0.000    0.000    0.000    0.000 
#
# Total GULP energy -223566.550439 kJ/mol
# GULP energy per Si atom -5589.163761 kJ/mol
# Density = 1.893902 g / cm^3
# Si number density = 18.982223 Si / 1000 Ang^3
#
#
#
# Elastic Constant Matrix: (Units=GPa)
#
#
# Indices 1 2 3 4 5 6 
#
# 1 117.8789 33.1146 50.4096 0.0000 0.0000 0.0000
# 2 33.1146 93.8204 33.4335 0.0000 0.0000 0.0000
# 3 50.4096 33.4335 139.0916 0.0000 0.0000 0.0000
# 4 0.0000 0.0000 0.0000 6.1167 0.0000 0.0000
# 5 0.0000 0.0000 0.0000 0.0000 30.5972 0.0000
# 6 0.0000 0.0000 0.0000 0.0000 0.0000 5.6510
#
#
#
# Elastic Compliance Matrix: (Units=1/GPa)
#
#
# Indices 1 2 3 4 5 6 
#
# 1 0.010585 -0.002591 -0.003214 0.000000 0.000000 0.000000
# 2 -0.002591 0.012291 -0.002015 0.000000 0.000000 0.000000
# 3 -0.003214 -0.002015 0.008839 0.000000 0.000000 0.000000
# 4 0.000000 0.000000 0.000000 0.163487 0.000000 0.000000
# 5 0.000000 0.000000 0.000000 0.000000 0.032683 0.000000
# 6 0.000000 0.000000 0.000000 0.000000 0.000000 0.176960
#
#
# Mechanical properties :
#
#
# Convention : Reuss Voigt Hill
#
# Bulk Modulus (GPa) = 62.20702 64.96737 63.58719
# Shear Modulus (GPa) = 11.74138 24.06184 17.90161
#
# Velocity S-wave (km/s) = 2.48976 3.56420 3.07428
# Velocity P-wave (km/s) = 6.41151 7.15805 6.79504
#
# Compressibility (1/GPa) = 0.01607536
#
# Stress axis : x y z
#
# Youngs Moduli (GPa) = 94.46974 81.35767 113.13980
#
# Poissons Ratio (x) = 0.21080 0.36358
# Poissons Ratio (y) = 0.24477 0.22803
# Poissons Ratio (z) = 0.30358 0.16397
#
# Static dielectric constant tensor:
#      x y z
#    x 1.626500 0.000000 0.000000 
#    y 0.000000 1.735700 0.000000 
#    z 0.000000 0.000000 1.670590 
# 
# From -- ./inp_files/29753.got.cif
#   From: 2010.05.17/outbox.cif.g08.bks.cpg/sg63_15_cif.got.tgz:29753.got - 2010.06.03 15:47:04.
