data_PCOD9475076
_publ_section_title
;
Structure prediction by ZEFSAII (Michael W. Deem and Ramdas Pophale) SiO2 
 PCOD9475076
Probable space group: C M C M
;
_chemical_formula_sum "Si O2"
_cell_formula_units_Z 72
_cell_length_a 28.898452
_cell_length_b 14.921329
_cell_length_c 7.562904
_cell_angle_alpha 90.000000
_cell_angle_beta 90.000000
_cell_angle_gamma 90.000000
_cell_volume 3261.149237
_symmetry_space_group_name_H-M "C M C M"
_symmetry_group_IT_number 63
_symmetry_cell_setting 'orthorhombic'
loop_
_space_group_symop_operation_xyz
x,y,z
-x,-y,1/2+z
x,-y,-z
-x,y,1/2-z
-x,-y,-z
x,y,1/2-z
-x,y,z
x,-y,1/2+z
1/2+x,1/2+y,z
1/2-x,1/2-y,1/2+z
1/2+x,1/2-y,-z
1/2-x,1/2+y,1/2-z
1/2-x,1/2-y,-z
1/2+x,1/2+y,1/2-z
1/2-x,1/2+y,z
1/2+x,1/2-y,1/2+z
loop_
_atom_site_type_symbol
_atom_site_label
_atom_site_fract_x
_atom_site_fract_y
_atom_site_fract_z
Si Si1 0.886847 0.595268 0.462514
Si Si2 0.787109 0.620859 0.450517
Si Si3 0.693711 0.323806 0.961268
Si Si4 0.091160 0.205410 0.537090
Si Si5 0.500000 0.604965 0.537553
O O1 0.910657 0.500000 0.500000
O O2 0.883519 0.603050 0.250000
O O3 0.834472 0.589057 0.539062
O O4 0.907223 0.690424 0.524847
O O5 0.785870 0.585943 0.250000
O O6 0.735301 0.611645 0.525263
O O7 0.796508 0.727958 0.449168
O O8 0.700061 0.313645 0.750000
O O9 0.639878 0.342384 0.992409
O O10 0.088870 0.207886 0.750000
O O11 0.046482 0.152919 0.470207
O O12 0.500000 0.500000 0.500000
O O13 0.500000 0.615471 0.750000
#
# Coordination Sequence:
#
# PCOD9475076 Si02
#       5
#    16  16  16  16   8
#     4   9  17  30  48  72 105 142 176 206 240 292
#     4   8  15  27  42  65 101 141 175 207 247 293
#     4   9  15  25  46  73  99 131 173 215 249 289
#     4   9  19  36  55  75 103 137 169 208 266 323
#     4  10  22  42  65  82  98 126 165 214 273 328
#
# _framework density 22.078106999999999
#
# number of rings (size 3 to 8) (size 9 to 14) (size 15 to 20)
#    0.000    3.111    0.000    2.000    0.000    5.333 
#    0.000    1.667    0.000    5.333    0.000    0.000 
#    0.000    0.000    0.000    0.000    0.000    0.000 
#
# Total GULP energy -200469.796697 kJ/mol
# GULP energy per Si atom -5568.605464 kJ/mol
# Density = 2.202786 g / cm^3
# Si number density = 22.078107 Si / 1000 Ang^3
#
#
#
# Elastic Constant Matrix: (Units=GPa)
#
#
# Indices 1 2 3 4 5 6 
#
# 1 176.0389 73.9666 8.8702 0.0000 0.0000 0.0000
# 2 73.9666 115.9735 6.6749 0.0000 0.0000 0.0000
# 3 8.8702 6.6749 70.5725 0.0000 0.0000 0.0000
# 4 0.0000 0.0000 0.0000 15.7768 0.0000 0.0000
# 5 0.0000 0.0000 0.0000 0.0000 16.6868 0.0000
# 6 0.0000 0.0000 0.0000 0.0000 0.0000 11.7059
#
#
#
# Elastic Compliance Matrix: (Units=1/GPa)
#
#
# Indices 1 2 3 4 5 6 
#
# 1 0.007778 -0.004932 -0.000511 0.000000 0.000000 0.000000
# 2 -0.004932 0.011796 -0.000496 0.000000 0.000000 0.000000
# 3 -0.000511 -0.000496 0.014281 0.000000 0.000000 0.000000
# 4 0.000000 0.000000 0.000000 0.063384 0.000000 0.000000
# 5 0.000000 0.000000 0.000000 0.000000 0.059927 0.000000
# 6 0.000000 0.000000 0.000000 0.000000 0.000000 0.085427
#
#
# Mechanical properties :
#
#
# Convention : Reuss Voigt Hill
#
# Bulk Modulus (GPa) = 45.49895 60.17870 52.83882
# Shear Modulus (GPa) = 19.09866 27.03878 23.06872
#
# Velocity S-wave (km/s) = 2.94436 3.50335 3.23595
# Velocity P-wave (km/s) = 5.67556 6.60916 6.16007
#
# Compressibility (1/GPa) = 0.02197853
#
# Stress axis : x y z
#
# Youngs Moduli (GPa) = 128.56066 84.77091 70.02322
#
# Poissons Ratio (x) = 0.41805 0.03580
# Poissons Ratio (y) = 0.63401 0.03472
# Poissons Ratio (z) = 0.06572 0.04204
#
# Static dielectric constant tensor:
#      x y z
#    x 1.854460 0.000000 0.000000 
#    y 0.000000 1.827460 0.000000 
#    z 0.000000 0.000000 1.853750 
# 
# From -- ./inp_files/11761.got.cif
#   From: 2010.05.17/outbox.cif.g08.bks.cpg/sg63_6_cif.got.tgz:11761.got - 2010.06.03 15:47:04.
