data_PCOD9475353
_publ_section_title
;
Structure prediction by ZEFSAII (Michael W. Deem and Ramdas Pophale) SiO2 
 PCOD9475353
Probable space group: C M C M
;
_chemical_formula_sum "Si O2"
_cell_formula_units_Z 60
_cell_length_a 20.156099
_cell_length_b 15.450677
_cell_length_c 9.986541
_cell_angle_alpha 90.000000
_cell_angle_beta 90.000000
_cell_angle_gamma 90.000000
_cell_volume 3110.062278
_symmetry_space_group_name_H-M "C M C M"
_symmetry_group_IT_number 63
_symmetry_cell_setting 'orthorhombic'
loop_
_space_group_symop_operation_xyz
x,y,z
-x,-y,1/2+z
x,-y,-z
-x,y,1/2-z
-x,-y,-z
x,y,1/2-z
-x,y,z
x,-y,1/2+z
1/2+x,1/2+y,z
1/2-x,1/2-y,1/2+z
1/2+x,1/2-y,-z
1/2-x,1/2+y,1/2-z
1/2-x,1/2-y,-z
1/2+x,1/2+y,1/2-z
1/2-x,1/2+y,z
1/2+x,1/2-y,1/2+z
loop_
_atom_site_type_symbol
_atom_site_label
_atom_site_fract_x
_atom_site_fract_y
_atom_site_fract_z
Si Si1 0.156665 0.332810 0.017683
Si Si2 0.921702 0.641287 0.250000
Si Si3 0.579176 0.932673 0.250000
Si Si4 0.701154 0.358904 0.593492
Si Si5 0.000000 0.982900 0.250000
Si Si6 0.100298 0.000000 0.500000
O O1 0.113613 0.323115 0.882751
O O2 0.227603 0.371880 0.975740
O O3 0.115166 0.390806 0.121370
O O4 0.176043 0.239905 0.078891
O O5 0.914072 0.536610 0.250000
O O6 0.000000 0.661155 0.250000
O O7 0.500000 0.913064 0.250000
O O8 0.707728 0.379636 0.750000
O O9 0.646959 0.418213 0.525008
O O10 0.943192 0.985702 0.368377
#
# Coordination Sequence:
#
# PCOD9475353 Si02
#       6
#    16   8   8  16   4   8
#     4  11  24  43  69  99 131 174 214 280 320 394
#     4  11  24  43  64 101 135 171 220 261 320 401
#     4  11  24  43  68  99 137 175 214 259 336 403
#     4  11  24  45  68  99 133 167 229 269 337 384
#     4  10  24  46  64 102 136 166 228 272 326 386
#     4  11  24  46  72  98 133 182 216 280 327 400
#
# _framework density 19.292217000000001
#
# number of rings (size 3 to 8) (size 9 to 14) (size 15 to 20)
#    0.000    1.067    4.000    1.600    3.733    4.267 
#   14.400    0.000    0.000    0.000    0.000    0.000 
#    0.000    0.000    0.000    0.000    0.000    0.000 
#
# Total GULP energy -167181.803436 kJ/mol
# GULP energy per Si atom -5572.726781 kJ/mol
# Density = 1.924831 g / cm^3
# Si number density = 19.292217 Si / 1000 Ang^3
#
#
#
# Elastic Constant Matrix: (Units=GPa)
#
#
# Indices 1 2 3 4 5 6 
#
# 1 173.2962 34.0896 69.7908 0.0000 0.0000 0.0000
# 2 34.0896 16.3099 6.4511 0.0000 0.0000 0.0000
# 3 69.7908 6.4511 159.2299 0.0000 0.0000 0.0000
# 4 0.0000 0.0000 0.0000 12.6518 0.0000 0.0000
# 5 0.0000 0.0000 0.0000 0.0000 -54.3072 0.0000
# 6 0.0000 0.0000 0.0000 0.0000 0.0000 -2.3501
#
#
#
# Elastic Compliance Matrix: (Units=1/GPa)
#
#
# Indices 1 2 3 4 5 6 
#
# 1 0.012224 -0.023811 -0.004393 0.000000 0.000000 0.000000
# 2 -0.023811 0.108694 0.006033 0.000000 0.000000 0.000000
# 3 -0.004393 0.006033 0.007961 0.000000 0.000000 0.000000
# 4 0.000000 0.000000 0.000000 0.079040 0.000000 0.000000
# 5 0.000000 0.000000 0.000000 0.000000 -0.018414 0.000000
# 6 0.000000 0.000000 0.000000 0.000000 0.000000 -0.425510
#
#
# Mechanical properties :
#
#
# Convention : Reuss Voigt Hill
#
# Bulk Modulus (GPa) = 11.82920 63.27768 37.55344
# Shear Modulus (GPa) = -30.58414 7.09920 -11.74247
#
# Velocity S-wave (km/s) = -3.98591 1.92037 -2.46979
# Velocity P-wave (km/s) = 3.87794 6.14718 3.37264
#
# Compressibility (1/GPa) = 0.08453659
#
# Stress axis : x y z
#
# Youngs Moduli (GPa) = 81.80925 9.20012 125.60860
#
# Poissons Ratio (x) = 0.21906 0.55179
# Poissons Ratio (y) = 1.94797 -0.75777
# Poissons Ratio (z) = 0.35938 -0.05550
#
# Static dielectric constant tensor:
#      x y z
#    x 1.639720 0.000000 0.000000 
#    y 0.000000 1.669600 0.000000 
#    z 0.000000 0.000000 1.647440 
# 
# From -- ./inp_files/5598.got.cif
#   From: 2010.05.17/outbox.cif.g08.bks.cpg/sg63_3_cif.got.tgz:5598.got - 2010.06.03 15:47:04.
