data_PCOD9475897
_publ_section_title
;
Structure prediction by ZEFSAII (Michael W. Deem and Ramdas Pophale) SiO2 
 PCOD9475897
Probable space group: C M C M
;
_chemical_formula_sum "Si O2"
_cell_formula_units_Z 48
_cell_length_a 5.232386
_cell_length_b 14.947838
_cell_length_c 29.391775
_cell_angle_alpha 90.000000
_cell_angle_beta 90.000000
_cell_angle_gamma 90.000000
_cell_volume 2298.814733
_symmetry_space_group_name_H-M "C M C M"
_symmetry_group_IT_number 63
_symmetry_cell_setting 'orthorhombic'
loop_
_space_group_symop_operation_xyz
x,y,z
-x,-y,1/2+z
x,-y,-z
-x,y,1/2-z
-x,-y,-z
x,y,1/2-z
-x,y,z
x,-y,1/2+z
1/2+x,1/2+y,z
1/2-x,1/2-y,1/2+z
1/2+x,1/2-y,-z
1/2-x,1/2+y,1/2-z
1/2-x,1/2-y,-z
1/2+x,1/2+y,1/2-z
1/2-x,1/2+y,z
1/2+x,1/2-y,1/2+z
loop_
_atom_site_type_symbol
_atom_site_label
_atom_site_fract_x
_atom_site_fract_y
_atom_site_fract_z
Si Si1 0.500000 0.895000 0.990483
Si Si2 0.000000 0.060771 0.335871
Si Si3 0.500000 0.367616 0.930353
Si Si4 0.000000 0.329933 0.695738
Si Si5 0.000000 0.669051 0.906709
Si Si6 0.000000 0.866380 0.149413
O O1 0.249797 0.871563 0.961536
O O2 0.500000 0.849116 0.039546
O O3 0.500000 0.000000 0.000000
O O4 0.000000 0.058233 0.391146
O O5 0.749118 0.114416 0.320098
O O6 0.000000 0.956947 0.320759
O O7 0.500000 0.275683 0.902648
O O8 0.000000 0.323558 0.750000
O O9 0.000000 0.229176 0.675351
O O10 0.249506 0.632256 0.882121
#
# Coordination Sequence:
#
# PCOD9475897 Si02
#       6
#     8   8   8   8   8   8
#     4  12  24  38  59  98 136 182 234 281 324 394
#     4  12  25  46  73 101 136 181 222 276 344 409
#     4  12  22  41  64  93 138 182 228 278 334 394
#     4  12  26  47  71 101 134 168 220 284 343 414
#     4  12  23  42  66  98 138 181 235 274 336 397
#     4  12  24  46  71 101 135 182 222 279 339 412
#
# _framework density 20.880324999999999
#
# number of rings (size 3 to 8) (size 9 to 14) (size 15 to 20)
#    0.000    0.000    3.333    8.000    0.000    1.333 
#    0.000    0.000    0.000    0.000    0.000    0.000 
#    0.000    0.000    0.000    0.000    0.000    0.000 
#
# Total GULP energy -134373.391772 kJ/mol
# GULP energy per Si atom -5598.891324 kJ/mol
# Density = 2.083280 g / cm^3
# Si number density = 20.880325 Si / 1000 Ang^3
#
#
#
# Elastic Constant Matrix: (Units=GPa)
#
#
# Indices 1 2 3 4 5 6 
#
# 1 224.6309 55.7719 81.4544 0.0000 0.0000 0.0000
# 2 55.7719 159.8390 27.5425 0.0000 0.0000 0.0000
# 3 81.4544 27.5425 127.1215 0.0000 0.0000 0.0000
# 4 0.0000 0.0000 0.0000 7.9212 0.0000 0.0000
# 5 0.0000 0.0000 0.0000 0.0000 -17.9520 0.0000
# 6 0.0000 0.0000 0.0000 0.0000 0.0000 65.6330
#
#
#
# Elastic Compliance Matrix: (Units=1/GPa)
#
#
# Indices 1 2 3 4 5 6 
#
# 1 0.006135 -0.001520 -0.003602 0.000000 0.000000 0.000000
# 2 -0.001520 0.006876 -0.000516 0.000000 0.000000 0.000000
# 3 -0.003602 -0.000516 0.010286 0.000000 0.000000 0.000000
# 4 0.000000 0.000000 0.000000 0.126243 0.000000 0.000000
# 5 0.000000 0.000000 0.000000 0.000000 -0.055704 0.000000
# 6 0.000000 0.000000 0.000000 0.000000 0.000000 0.015236
#
#
# Mechanical properties :
#
#
# Convention : Reuss Voigt Hill
#
# Bulk Modulus (GPa) = 83.18295 93.45877 88.32086
# Shear Modulus (GPa) = 40.20770 34.24197 37.22484
#
# Velocity S-wave (km/s) = 4.39296 4.05398 4.22687
# Velocity P-wave (km/s) = 8.10279 8.17126 8.13709
#
# Compressibility (1/GPa) = 0.01202169
#
# Stress axis : x y z
#
# Youngs Moduli (GPa) = 162.99253 145.44295 97.21809
#
# Poissons Ratio (x) = 0.22109 0.35017
# Poissons Ratio (y) = 0.24776 0.05013
# Poissons Ratio (z) = 0.58708 0.07500
#
# Static dielectric constant tensor:
#      x y z
#    x 2.412350 0.000000 0.000000 
#    y 0.000000 1.851870 0.000000 
#    z 0.000000 0.000000 1.822420 
# 
# From -- ./inp_files/65910.got.cif
#   From: 2010.05.17/outbox.cif.g08.bks.cpg/sg63_33_cif.got.tgz:65910.got - 2010.06.03 15:47:04.
