data_PCOD9475126
_publ_section_title
;
Structure prediction by ZEFSAII (Michael W. Deem and Ramdas Pophale) SiO2 
 PCOD9475126
Probable space group: C M C M
;
_chemical_formula_sum "Si O2"
_cell_formula_units_Z 56
_cell_length_a 26.753688
_cell_length_b 10.690092
_cell_length_c 8.083831
_cell_angle_alpha 90.000000
_cell_angle_beta 90.000000
_cell_angle_gamma 90.000000
_cell_volume 2311.970703
_symmetry_space_group_name_H-M "C M C M"
_symmetry_group_IT_number 63
_symmetry_cell_setting 'orthorhombic'
loop_
_space_group_symop_operation_xyz
x,y,z
-x,-y,1/2+z
x,-y,-z
-x,y,1/2-z
-x,-y,-z
x,y,1/2-z
-x,y,z
x,-y,1/2+z
1/2+x,1/2+y,z
1/2-x,1/2-y,1/2+z
1/2+x,1/2-y,-z
1/2-x,1/2+y,1/2-z
1/2-x,1/2-y,-z
1/2+x,1/2+y,1/2-z
1/2-x,1/2+y,z
1/2+x,1/2-y,1/2+z
loop_
_atom_site_type_symbol
_atom_site_label
_atom_site_fract_x
_atom_site_fract_y
_atom_site_fract_z
Si Si1 0.943324 0.270115 0.947719
Si Si2 0.785008 0.739236 0.750000
Si Si3 0.614753 0.000000 0.500000
Si Si4 0.197506 0.556236 0.250000
Si Si5 0.342872 0.360166 0.447039
O O1 0.942796 0.304393 0.750000
O O2 0.902030 0.163660 0.970029
O O3 0.000000 0.237903 0.991238
O O4 0.922409 0.388863 0.049242
O O5 0.780108 0.586643 0.750000
O O6 0.814225 0.775662 0.582109
O O7 0.739322 0.838480 0.750000
O O8 0.655914 0.068413 0.390535
O O9 0.329323 0.500000 0.500000
O O10 0.332867 0.345130 0.250000
#
# Coordination Sequence:
#
# PCOD9475126 Si02
#       5
#    16   8   8   8  16
#     4  10  22  42  72 108 148 191 243 308 380 451
#     4  12  28  54  72 113 148 204 261 322 382 451
#     4  12  23  46  70 108 144 194 249 310 376 460
#     4  12  30  46  78 103 152 200 261 316 386 455
#     4  11  24  45  78 105 150 197 249 314 379 459
#
# _framework density 24.221761000000001
#
# number of rings (size 3 to 8) (size 9 to 14) (size 15 to 20)
#    0.000    0.857    5.714    0.429    2.000    4.000 
#    0.000    2.143    0.000    0.000    0.000    0.000 
#    0.000    0.000    0.000    0.000    0.000    0.000 
#
# Total GULP energy -156261.814652 kJ/mol
# GULP energy per Si atom -5580.779095 kJ/mol
# Density = 2.416663 g / cm^3
# Si number density = 24.221761 Si / 1000 Ang^3
#
#
#
# Elastic Constant Matrix: (Units=GPa)
#
#
# Indices 1 2 3 4 5 6 
#
# 1 188.7527 52.3189 57.1072 0.0000 0.0000 0.0000
# 2 52.3189 143.7662 31.7445 0.0000 0.0000 0.0000
# 3 57.1072 31.7445 120.7638 0.0000 0.0000 0.0000
# 4 0.0000 0.0000 0.0000 49.2068 0.0000 0.0000
# 5 0.0000 0.0000 0.0000 0.0000 -7.5425 0.0000
# 6 0.0000 0.0000 0.0000 0.0000 0.0000 48.2155
#
#
#
# Elastic Compliance Matrix: (Units=1/GPa)
#
#
# Indices 1 2 3 4 5 6 
#
# 1 0.006602 -0.001819 -0.002644 0.000000 0.000000 0.000000
# 2 -0.001819 0.007885 -0.001213 0.000000 0.000000 0.000000
# 3 -0.002644 -0.001213 0.009850 0.000000 0.000000 0.000000
# 4 0.000000 0.000000 0.000000 0.020322 0.000000 0.000000
# 5 0.000000 0.000000 0.000000 0.000000 -0.132583 0.000000
# 6 0.000000 0.000000 0.000000 0.000000 0.000000 0.020740
#
#
# Mechanical properties :
#
#
# Convention : Reuss Voigt Hill
#
# Bulk Modulus (GPa) = 77.00436 81.73601 79.37018
# Shear Modulus (GPa) = -97.08068 38.78344 -29.14862
#
# Velocity S-wave (km/s) = -6.33774 4.00582 -3.47278
# Velocity P-wave (km/s) = 4.65785 7.43058 4.09378
#
# Compressibility (1/GPa) = 0.01298628
#
# Stress axis : x y z
#
# Youngs Moduli (GPa) = 151.46974 126.81660 101.52647
#
# Poissons Ratio (x) = 0.23065 0.26842
# Poissons Ratio (y) = 0.27549 0.12312
# Poissons Ratio (z) = 0.40047 0.15379
#
# Static dielectric constant tensor:
#      x y z
#    x 1.894300 0.000000 0.000000 
#    y 0.000000 1.953880 0.000000 
#    z 0.000000 0.000000 1.966340 
# 
# From -- ./inp_files/11472.got.cif
#   From: 2010.05.17/outbox.cif.g08.bks.cpg/sg63_6_cif.got.tgz:11472.got - 2010.06.03 15:47:04.
