data_PCOD9475365
_publ_section_title
;
Structure prediction by ZEFSAII (Michael W. Deem and Ramdas Pophale) SiO2 
 PCOD9475365
Probable space group: C M C M
;
_chemical_formula_sum "Si O2"
_cell_formula_units_Z 44
_cell_length_a 28.655609
_cell_length_b 5.029407
_cell_length_c 14.355718
_cell_angle_alpha 90.000000
_cell_angle_beta 90.000000
_cell_angle_gamma 90.000000
_cell_volume 2068.956421
_symmetry_space_group_name_H-M "C M C M"
_symmetry_group_IT_number 63
_symmetry_cell_setting 'orthorhombic'
loop_
_space_group_symop_operation_xyz
x,y,z
-x,-y,1/2+z
x,-y,-z
-x,y,1/2-z
-x,-y,-z
x,y,1/2-z
-x,y,z
x,-y,1/2+z
1/2+x,1/2+y,z
1/2-x,1/2-y,1/2+z
1/2+x,1/2-y,-z
1/2-x,1/2+y,1/2-z
1/2-x,1/2-y,-z
1/2+x,1/2+y,1/2-z
1/2-x,1/2+y,z
1/2+x,1/2-y,1/2+z
loop_
_atom_site_type_symbol
_atom_site_label
_atom_site_fract_x
_atom_site_fract_y
_atom_site_fract_z
Si Si1 0.571636 0.196173 0.750000
Si Si2 0.284906 0.500000 0.000000
Si Si3 0.000000 0.195837 0.750000
Si Si4 0.282505 0.112400 0.250000
Si Si5 0.348809 0.862736 0.099972
O O1 0.540474 0.460044 0.750000
O O2 0.605137 0.189543 0.659479
O O3 0.540330 0.931923 0.750000
O O4 0.320612 0.591359 0.080442
O O5 0.250000 0.250000 0.000000
O O6 0.240354 0.899916 0.250000
O O7 0.314523 0.044622 0.161562
O O8 0.357723 0.000000 0.000000
#
# Coordination Sequence:
#
# PCOD9475365 Si02
#       5
#     8   8   4   8  16
#     4  10  26  49  76 101 140 175 228 289 376 418
#     4  12  24  38  62  95 142 187 228 274 316 382
#     4  10  24  52  78 102 134 176 218 306 364 448
#     4  11  26  40  60  93 140 189 238 276 322 387
#     4  11  26  43  70 101 140 187 233 289 341 411
#
# _framework density 21.266760999999999
#
# number of rings (size 3 to 8) (size 9 to 14) (size 15 to 20)
#    0.000    1.091    1.818    2.182   10.182    2.909 
#    0.000    5.455    0.000    0.000    0.000    0.000 
#    0.000    0.000    0.000    0.000    0.000    0.000 
#
# Total GULP energy -122532.311046 kJ/mol
# GULP energy per Si atom -5569.650502 kJ/mol
# Density = 2.121836 g / cm^3
# Si number density = 21.266761 Si / 1000 Ang^3
#
#
#
# Elastic Constant Matrix: (Units=GPa)
#
#
# Indices 1 2 3 4 5 6 
#
# 1 201.1380 97.9707 90.6941 0.0000 0.0000 0.0000
# 2 97.9707 221.7910 60.4382 0.0000 0.0000 0.0000
# 3 90.6941 60.4382 156.1414 0.0000 0.0000 0.0000
# 4 0.0000 0.0000 0.0000 22.0481 0.0000 0.0000
# 5 0.0000 0.0000 0.0000 0.0000 -5.9969 0.0000
# 6 0.0000 0.0000 0.0000 0.0000 0.0000 30.0334
#
#
#
# Elastic Compliance Matrix: (Units=1/GPa)
#
#
# Indices 1 2 3 4 5 6 
#
# 1 0.007780 -0.002465 -0.003565 0.000000 0.000000 0.000000
# 2 -0.002465 0.005822 -0.000821 0.000000 0.000000 0.000000
# 3 -0.003565 -0.000821 0.008793 0.000000 0.000000 0.000000
# 4 0.000000 0.000000 0.000000 0.045355 0.000000 0.000000
# 5 0.000000 0.000000 0.000000 0.000000 -0.166754 0.000000
# 6 0.000000 0.000000 0.000000 0.000000 0.000000 0.033296
#
#
# Mechanical properties :
#
#
# Convention : Reuss Voigt Hill
#
# Bulk Modulus (GPa) = 115.05286 119.69737 117.37511
# Shear Modulus (GPa) = -101.81644 31.21476 -35.30084
#
# Velocity S-wave (km/s) = -6.92674 3.83531 -4.07862
# Velocity P-wave (km/s) = 3.12342 8.71887 5.75600
#
# Compressibility (1/GPa) = 0.00869166
#
# Stress axis : x y z
#
# Youngs Moduli (GPa) = 128.53881 171.77640 113.72764
#
# Poissons Ratio (x) = 0.42345 0.40540
# Poissons Ratio (y) = 0.31687 0.09343
# Poissons Ratio (z) = 0.45820 0.14111
#
# Static dielectric constant tensor:
#      x y z
#    x 1.730660 0.000000 0.000000 
#    y 0.000000 1.796600 0.000000 
#    z 0.000000 0.000000 1.876000 
# 
# From -- ./inp_files/37328.got.cif
#   From: 2010.05.17/outbox.cif.g08.bks.cpg/sg63_19_cif.got.tgz:37328.got - 2010.06.03 15:47:04.
