data_PCOD9475549
_publ_section_title
;
Structure prediction by ZEFSAII (Michael W. Deem and Ramdas Pophale) SiO2 
 PCOD9475549
Probable space group: C M C M
;
_chemical_formula_sum "Si O2"
_cell_formula_units_Z 116
_cell_length_a 7.648680
_cell_length_b 28.453969
_cell_length_c 26.839974
_cell_angle_alpha 90.000000
_cell_angle_beta 90.000000
_cell_angle_gamma 90.000000
_cell_volume 5841.325890
_symmetry_space_group_name_H-M "C M C M"
_symmetry_group_IT_number 63
_symmetry_cell_setting 'orthorhombic'
loop_
_space_group_symop_operation_xyz
x,y,z
-x,-y,1/2+z
x,-y,-z
-x,y,1/2-z
-x,-y,-z
x,y,1/2-z
-x,y,z
x,-y,1/2+z
1/2+x,1/2+y,z
1/2-x,1/2-y,1/2+z
1/2+x,1/2-y,-z
1/2-x,1/2+y,1/2-z
1/2-x,1/2-y,-z
1/2+x,1/2+y,1/2-z
1/2-x,1/2+y,z
1/2+x,1/2-y,1/2+z
loop_
_atom_site_type_symbol
_atom_site_label
_atom_site_fract_x
_atom_site_fract_y
_atom_site_fract_z
Si Si1 0.291007 0.111236 0.806250
Si Si2 0.708839 0.769687 0.945218
Si Si3 0.210506 0.822436 0.107799
Si Si4 0.292795 0.403728 0.467135
Si Si5 0.500000 0.579134 0.250000
Si Si6 0.790281 0.530897 0.881415
Si Si7 0.798777 0.568913 0.335060
Si Si8 0.702135 0.623785 0.427114
O O1 0.221769 0.111601 0.750000
O O2 0.500000 0.105337 0.803155
O O3 0.257034 0.158112 0.837960
O O4 0.222378 0.068281 0.840200
O O5 0.500000 0.774675 0.940605
O O6 0.770991 0.729368 0.906979
O O7 0.789088 0.820640 0.937111
O O8 0.750000 0.750000 0.000000
O O9 0.277046 0.861014 0.067514
O O10 0.000000 0.822349 0.104222
O O11 0.500000 0.395479 0.471973
O O12 0.268087 0.450892 0.435383
O O13 0.222863 0.401091 0.523095
O O14 0.655509 0.578127 0.293212
O O15 0.745548 0.478903 0.864245
O O16 0.000000 0.534013 0.881782
O O17 0.796781 0.609278 0.376806
O O18 0.000000 0.562781 0.316697
O O19 0.500000 0.609720 0.420814
#
# Coordination Sequence:
#
# PCOD9475549 Si02
#       8
#    16  16  16  16   4  16  16  16
#     4   9  18  33  54  80 113 150 194 245 303 362
#     4  11  21  35  59  88 119 157 202 252 311 374
#     4   9  18  34  51  80 116 152 194 245 304 364
#     4   9  18  33  56  84 128 165 194 246 304 377
#     4  12  26  48  72  92 120 164 218 272 326 366
#     4   9  20  36  56  88 124 160 203 251 309 371
#     4  11  25  45  68  95 125 162 214 270 318 372
#     4  11  22  40  61  92 127 163 210 258 314 381
#
# _framework density 19.858504
#
# number of rings (size 3 to 8) (size 9 to 14) (size 15 to 20)
#    0.000    2.069    2.069    1.034    1.931    3.034 
#    0.000    2.759    1.517    0.000    0.000    0.000 
#    0.000    0.000    0.000    0.000    0.000    0.000 
#
# Total GULP energy -323213.549616 kJ/mol
# GULP energy per Si atom -5572.647407 kJ/mol
# Density = 1.981330 g / cm^3
# Si number density = 19.858504 Si / 1000 Ang^3
#
#
#
# Elastic Constant Matrix: (Units=GPa)
#
#
# Indices 1 2 3 4 5 6 
#
# 1 76.0294 5.2056 33.2026 0.0000 0.0000 0.0000
# 2 5.2056 71.6914 59.3027 0.0000 0.0000 0.0000
# 3 33.2026 59.3027 77.4568 0.0000 0.0000 0.0000
# 4 0.0000 0.0000 0.0000 -15.6276 0.0000 0.0000
# 5 0.0000 0.0000 0.0000 0.0000 14.3069 0.0000
# 6 0.0000 0.0000 0.0000 0.0000 0.0000 21.4753
#
#
#
# Elastic Compliance Matrix: (Units=1/GPa)
#
#
# Indices 1 2 3 4 5 6 
#
# 1 0.021621 0.016626 -0.021997 0.000000 0.000000 0.000000
# 2 0.016626 0.050826 -0.046040 0.000000 0.000000 0.000000
# 3 -0.021997 -0.046040 0.057589 0.000000 0.000000 0.000000
# 4 0.000000 0.000000 0.000000 -0.063989 0.000000 0.000000
# 5 0.000000 0.000000 0.000000 0.000000 0.069896 0.000000
# 6 0.000000 0.000000 0.000000 0.000000 0.000000 0.046565
#
#
# Mechanical properties :
#
#
# Convention : Reuss Voigt Hill
#
# Bulk Modulus (GPa) = 36.74726 46.73327 41.74027
# Shear Modulus (GPa) = 16.98361 12.52871 14.75616
#
# Velocity S-wave (km/s) = 2.92761 2.51449 2.72888
# Velocity P-wave (km/s) = 5.47472 5.65813 5.56718
#
# Compressibility (1/GPa) = 0.02721291
#
# Stress axis : x y z
#
# Youngs Moduli (GPa) = 46.25157 19.67515 17.36437
#
# Poissons Ratio (x) = -0.32712 0.38197
# Poissons Ratio (y) = -0.76899 0.79946
# Poissons Ratio (z) = 1.01741 0.90585
#
# Static dielectric constant tensor:
#      x y z
#    x 1.765150 0.000000 0.000000 
#    y 0.000000 1.710240 0.000000 
#    z 0.000000 0.000000 1.699590 
# 
# From -- ./inp_files/60463.got.cif
#   From: 2010.05.17/outbox.cif.g08.bks.cpg/sg63_31_cif.got.tgz:60463.got - 2010.06.03 15:47:04.
