data_PCOD9475312
_publ_section_title
;
Structure prediction by ZEFSAII (Michael W. Deem and Ramdas Pophale) SiO2 
 PCOD9475312
Probable space group: C M C M
;
_chemical_formula_sum "Si O2"
_cell_formula_units_Z 48
_cell_length_a 22.391768
_cell_length_b 7.768158
_cell_length_c 11.302082
_cell_angle_alpha 90.000000
_cell_angle_beta 90.000000
_cell_angle_gamma 90.000000
_cell_volume 1965.915695
_symmetry_space_group_name_H-M "C M C M"
_symmetry_group_IT_number 63
_symmetry_cell_setting 'orthorhombic'
loop_
_space_group_symop_operation_xyz
x,y,z
-x,-y,1/2+z
x,-y,-z
-x,y,1/2-z
-x,-y,-z
x,y,1/2-z
-x,y,z
x,-y,1/2+z
1/2+x,1/2+y,z
1/2-x,1/2-y,1/2+z
1/2+x,1/2-y,-z
1/2-x,1/2+y,1/2-z
1/2-x,1/2-y,-z
1/2+x,1/2+y,1/2-z
1/2-x,1/2+y,z
1/2+x,1/2-y,1/2+z
loop_
_atom_site_type_symbol
_atom_site_label
_atom_site_fract_x
_atom_site_fract_y
_atom_site_fract_z
Si Si1 0.119576 0.796996 0.503500
Si Si2 0.500000 0.362553 0.888926
Si Si3 0.235831 0.894111 0.750000
Si Si4 0.851622 0.844956 0.250000
Si Si5 0.788600 0.500000 0.000000
O O1 0.112710 0.775007 0.362239
O O2 0.171258 0.664387 0.534731
O O3 0.061380 0.765143 0.582098
O O4 0.134278 0.000000 0.500000
O O5 0.500000 0.419855 0.750000
O O6 0.500000 0.500000 0.000000
O O7 0.283925 0.733524 0.750000
O O8 0.164546 0.948996 0.750000
O O9 0.253313 0.959166 0.618639
#
# Coordination Sequence:
#
# PCOD9475312 Si02
#       5
#    16   8   8   8   8
#     4  10  24  40  69  92 131 170 218 261 334 373
#     4  10  24  43  68 102 129 169 220 271 323 394
#     4  10  24  40  62  93 137 165 224 262 322 375
#     4  10  24  41  62 101 127 178 208 276 316 385
#     4  10  24  43  62  98 132 169 216 278 302 400
#
# _framework density 24.416103
#
# number of rings (size 3 to 8) (size 9 to 14) (size 15 to 20)
#    0.000    2.000    0.000    0.000   18.667    3.333 
#    0.000    0.000    0.000    0.000    0.000    0.000 
#    0.000    0.000    0.000    0.000    0.000    0.000 
#
# Total GULP energy -133610.000351 kJ/mol
# GULP energy per Si atom -5567.083348 kJ/mol
# Density = 2.436053 g / cm^3
# Si number density = 24.416103 Si / 1000 Ang^3
#
#
#
# Elastic Constant Matrix: (Units=GPa)
#
#
# Indices 1 2 3 4 5 6 
#
# 1 125.1202 36.2853 63.3911 0.0000 0.0000 0.0000
# 2 36.2853 64.3643 15.5058 0.0000 0.0000 0.0000
# 3 63.3911 15.5058 140.3142 0.0000 0.0000 0.0000
# 4 0.0000 0.0000 0.0000 29.1562 0.0000 0.0000
# 5 0.0000 0.0000 0.0000 0.0000 27.8492 0.0000
# 6 0.0000 0.0000 0.0000 0.0000 0.0000 -78.1974
#
#
#
# Elastic Compliance Matrix: (Units=1/GPa)
#
#
# Indices 1 2 3 4 5 6 
#
# 1 0.012078 -0.005645 -0.004833 0.000000 0.000000 0.000000
# 2 -0.005645 0.018600 0.000495 0.000000 0.000000 0.000000
# 3 -0.004833 0.000495 0.009256 0.000000 0.000000 0.000000
# 4 0.000000 0.000000 0.000000 0.034298 0.000000 0.000000
# 5 0.000000 0.000000 0.000000 0.000000 0.035908 0.000000
# 6 0.000000 0.000000 0.000000 0.000000 0.000000 -0.012788
#
#
# Mechanical properties :
#
#
# Convention : Reuss Voigt Hill
#
# Bulk Modulus (GPa) = 50.08110 62.24036 56.16073
# Shear Modulus (GPa) = 40.33192 10.06935 25.20064
#
# Velocity S-wave (km/s) = 4.06871 2.03298 3.21617
# Velocity P-wave (km/s) = 6.52906 5.57293 6.06985
#
# Compressibility (1/GPa) = 0.01996761
#
# Stress axis : x y z
#
# Youngs Moduli (GPa) = 82.79721 53.76487 108.04382
#
# Poissons Ratio (x) = 0.30348 0.52214
# Poissons Ratio (y) = 0.46735 -0.05345
# Poissons Ratio (z) = 0.40013 -0.02660
#
# Static dielectric constant tensor:
#      x y z
#    x 1.998670 0.000000 0.000000 
#    y 0.000000 2.135110 0.000000 
#    z 0.000000 0.000000 2.033490 
# 
# From -- ./inp_files/23383.got.cif
#   From: 2010.05.17/outbox.cif.g08.bks.cpg/sg63_12_cif.got.tgz:23383.got - 2010.06.03 15:47:04.
