data_PCOD9475152
_publ_section_title
;
Structure prediction by ZEFSAII (Michael W. Deem and Ramdas Pophale) SiO2 
 PCOD9475152
Probable space group: C M C M
;
_chemical_formula_sum "Si O2"
_cell_formula_units_Z 48
_cell_length_a 24.315187
_cell_length_b 10.541114
_cell_length_c 8.122459
_cell_angle_alpha 90.000000
_cell_angle_beta 90.000000
_cell_angle_gamma 90.000000
_cell_volume 2081.860628
_symmetry_space_group_name_H-M "C M C M"
_symmetry_group_IT_number 63
_symmetry_cell_setting 'orthorhombic'
loop_
_space_group_symop_operation_xyz
x,y,z
-x,-y,1/2+z
x,-y,-z
-x,y,1/2-z
-x,-y,-z
x,y,1/2-z
-x,y,z
x,-y,1/2+z
1/2+x,1/2+y,z
1/2-x,1/2-y,1/2+z
1/2+x,1/2-y,-z
1/2-x,1/2+y,1/2-z
1/2-x,1/2-y,-z
1/2+x,1/2+y,1/2-z
1/2-x,1/2+y,z
1/2+x,1/2-y,1/2+z
loop_
_atom_site_type_symbol
_atom_site_label
_atom_site_fract_x
_atom_site_fract_y
_atom_site_fract_z
Si Si1 0.165651 0.500000 0.500000
Si Si2 0.500000 0.353599 0.052774
Si Si3 0.118066 0.763386 0.937021
Si Si4 0.809861 0.860934 0.250000
Si Si5 0.748347 0.118945 0.250000
O O1 0.127902 0.612246 0.567011
O O2 0.208497 0.582090 0.397560
O O3 0.500000 0.343627 0.250000
O O4 0.500000 0.500000 0.000000
O O5 0.555465 0.292867 0.982677
O O6 0.129437 0.808432 0.750000
O O7 0.155376 0.826775 0.083603
O O8 0.753579 0.773044 0.250000
O O9 0.793091 0.007428 0.250000
#
# Coordination Sequence:
#
# PCOD9475152 Si02
#       5
#     8   8  16   8   8
#     4  10  22  45  66 100 142 181 236 294 348 424
#     4  12  26  49  72 106 145 181 235 297 358 441
#     4  11  23  46  74 101 142 188 235 295 363 421
#     4  10  24  47  68 107 143 196 241 302 356 435
#     4  10  22  44  68  97 149 185 243 300 350 423
#
# _framework density 23.056298000000002
#
# number of rings (size 3 to 8) (size 9 to 14) (size 15 to 20)
#    0.000    1.333    3.333    1.500    0.000    6.000 
#   12.000    0.000    0.000    0.000    0.000    0.000 
#    0.000    0.000    0.000    0.000    0.000    0.000 
#
# Total GULP energy -133923.754976 kJ/mol
# GULP energy per Si atom -5580.156457 kJ/mol
# Density = 2.300382 g / cm^3
# Si number density = 23.056298 Si / 1000 Ang^3
#
#
#
# Elastic Constant Matrix: (Units=GPa)
#
#
# Indices 1 2 3 4 5 6 
#
# 1 130.8486 119.8267 54.2391 0.0000 0.0000 0.0000
# 2 119.8267 162.0594 63.3054 0.0000 0.0000 0.0000
# 3 54.2391 63.3054 177.6610 0.0000 0.0000 0.0000
# 4 0.0000 0.0000 0.0000 26.2229 0.0000 0.0000
# 5 0.0000 0.0000 0.0000 0.0000 27.7262 0.0000
# 6 0.0000 0.0000 0.0000 0.0000 0.0000 35.9993
#
#
#
# Elastic Compliance Matrix: (Units=1/GPa)
#
#
# Indices 1 2 3 4 5 6 
#
# 1 0.023873 -0.017199 -0.001160 0.000000 0.000000 0.000000
# 2 -0.017199 0.019559 -0.001719 0.000000 0.000000 0.000000
# 3 -0.001160 -0.001719 0.006595 0.000000 0.000000 0.000000
# 4 0.000000 0.000000 0.000000 0.038135 0.000000 0.000000
# 5 0.000000 0.000000 0.000000 0.000000 0.036067 0.000000
# 6 0.000000 0.000000 0.000000 0.000000 0.000000 0.027778
#
#
# Mechanical properties :
#
#
# Convention : Reuss Voigt Hill
#
# Bulk Modulus (GPa) = 101.29191 105.03460 103.16325
# Shear Modulus (GPa) = 25.58161 33.53620 29.55890
#
# Velocity S-wave (km/s) = 3.33457 3.81797 3.58443
# Velocity P-wave (km/s) = 7.67161 8.06787 7.87223
#
# Compressibility (1/GPa) = 0.00987246
#
# Stress axis : x y z
#
# Youngs Moduli (GPa) = 41.88768 51.12811 151.62495
#
# Poissons Ratio (x) = 0.87934 0.17589
# Poissons Ratio (y) = 0.72042 0.26058
# Poissons Ratio (z) = 0.04859 0.08787
#
# Static dielectric constant tensor:
#      x y z
#    x 1.886630 0.000000 0.000000 
#    y 0.000000 1.859600 0.000000 
#    z 0.000000 0.000000 1.954700 
# 
# From -- ./inp_files/9439.got.cif
#   From: 2010.05.17/outbox.cif.g08.bks.cpg/sg63_5_cif.got.tgz:9439.got - 2010.06.03 15:47:04.
