data_PCOD9475278
_publ_section_title
;
Structure prediction by ZEFSAII (Michael W. Deem and Ramdas Pophale) SiO2 
 PCOD9475278
Probable space group: C M C M
;
_chemical_formula_sum "Si O2"
_cell_formula_units_Z 52
_cell_length_a 18.315971
_cell_length_b 7.313589
_cell_length_c 16.949801
_cell_angle_alpha 90.000000
_cell_angle_beta 90.000000
_cell_angle_gamma 90.000000
_cell_volume 2270.518797
_symmetry_space_group_name_H-M "C M C M"
_symmetry_group_IT_number 63
_symmetry_cell_setting 'orthorhombic'
loop_
_space_group_symop_operation_xyz
x,y,z
-x,-y,1/2+z
x,-y,-z
-x,y,1/2-z
-x,-y,-z
x,y,1/2-z
-x,y,z
x,-y,1/2+z
1/2+x,1/2+y,z
1/2-x,1/2-y,1/2+z
1/2+x,1/2-y,-z
1/2-x,1/2+y,1/2-z
1/2-x,1/2-y,-z
1/2+x,1/2+y,1/2-z
1/2-x,1/2+y,z
1/2+x,1/2-y,1/2+z
loop_
_atom_site_type_symbol
_atom_site_label
_atom_site_fract_x
_atom_site_fract_y
_atom_site_fract_z
Si Si1 0.000000 0.734827 0.750000
Si Si2 0.078279 0.362526 0.093987
Si Si3 0.802794 0.922045 0.582443
Si Si4 0.845568 0.289910 0.656477
O O1 0.062201 0.719934 0.819389
O O2 0.143998 0.244450 0.060884
O O3 0.101562 0.570856 0.110413
O O4 0.000000 0.344364 0.052158
O O5 0.736749 0.857928 0.637649
O O6 0.773224 0.000000 0.500000
O O7 0.847512 0.083846 0.624735
O O8 0.860817 0.297626 0.750000
#
# Coordination Sequence:
#
# PCOD9475278 Si02
#       4
#     4  16  16  16
#     4   8  20  44  64  98 138 164 212 298 324 364
#     4  10  23  44  67  95 138 165 221 279 331 380
#     4  12  27  42  67  99 139 175 218 275 341 395
#     4  12  24  40  71  99 126 176 229 274 329 393
#
# _framework density 22.902253999999999
#
# number of rings (size 3 to 8) (size 9 to 14) (size 15 to 20)
#    0.923    0.000    4.615    1.846    4.308    1.846 
#    0.000    3.077    0.000    0.000    0.000    0.000 
#    0.000    0.000    0.000    0.000    0.000    0.000 
#
# Total GULP energy -144826.402344 kJ/mol
# GULP energy per Si atom -5570.246244 kJ/mol
# Density = 2.285013 g / cm^3
# Si number density = 22.902254 Si / 1000 Ang^3
#
#
#
# Elastic Constant Matrix: (Units=GPa)
#
#
# Indices 1 2 3 4 5 6 
#
# 1 94.2004 32.1290 -3.3355 0.0000 0.0000 0.0000
# 2 32.1290 118.7147 24.9793 0.0000 0.0000 0.0000
# 3 -3.3355 24.9793 58.4330 0.0000 0.0000 0.0000
# 4 0.0000 0.0000 0.0000 20.1741 0.0000 0.0000
# 5 0.0000 0.0000 0.0000 0.0000 11.2620 0.0000
# 6 0.0000 0.0000 0.0000 0.0000 0.0000 3.4536
#
#
#
# Elastic Compliance Matrix: (Units=1/GPa)
#
#
# Indices 1 2 3 4 5 6 
#
# 1 0.011963 -0.003716 0.002271 0.000000 0.000000 0.000000
# 2 -0.003716 0.010410 -0.004662 0.000000 0.000000 0.000000
# 3 0.002271 -0.004662 0.019236 0.000000 0.000000 0.000000
# 4 0.000000 0.000000 0.000000 0.049569 0.000000 0.000000
# 5 0.000000 0.000000 0.000000 0.000000 0.088794 0.000000
# 6 0.000000 0.000000 0.000000 0.000000 0.000000 0.289554
#
#
# Mechanical properties :
#
#
# Convention : Reuss Voigt Hill
#
# Bulk Modulus (GPa) = 34.01760 42.09929 38.05844
# Shear Modulus (GPa) = 10.17214 21.48296 15.82755
#
# Velocity S-wave (km/s) = 2.10978 3.06605 2.63171
# Velocity P-wave (km/s) = 4.56295 5.56383 5.08806
#
# Compressibility (1/GPa) = 0.02939654
#
# Stress axis : x y z
#
# Youngs Moduli (GPa) = 83.58826 96.05971 51.98492
#
# Poissons Ratio (x) = 0.35693 -0.11807
# Poissons Ratio (y) = 0.31059 0.24237
# Poissons Ratio (z) = -0.18985 0.44786
#
# Static dielectric constant tensor:
#      x y z
#    x 1.871010 0.000000 0.000000 
#    y 0.000000 1.866630 0.000000 
#    z 0.000000 0.000000 1.834260 
# 
# From -- ./inp_files/44897.got.cif
#   From: 2010.05.17/outbox.cif.g08.bks.cpg/sg63_23_cif.got.tgz:44897.got - 2010.06.03 15:47:04.
