data_PCOD9475824
_publ_section_title
;
Structure prediction by ZEFSAII (Michael W. Deem and Ramdas Pophale) SiO2 
 PCOD9475824
Probable space group: C M C M
;
_chemical_formula_sum "Si O2"
_cell_formula_units_Z 72
_cell_length_a 27.385621
_cell_length_b 15.032221
_cell_length_c 8.612882
_cell_angle_alpha 90.000000
_cell_angle_beta 90.000000
_cell_angle_gamma 90.000000
_cell_volume 3545.636772
_symmetry_space_group_name_H-M "C M C M"
_symmetry_group_IT_number 63
_symmetry_cell_setting 'orthorhombic'
loop_
_space_group_symop_operation_xyz
x,y,z
-x,-y,1/2+z
x,-y,-z
-x,y,1/2-z
-x,-y,-z
x,y,1/2-z
-x,y,z
x,-y,1/2+z
1/2+x,1/2+y,z
1/2-x,1/2-y,1/2+z
1/2+x,1/2-y,-z
1/2-x,1/2+y,1/2-z
1/2-x,1/2-y,-z
1/2+x,1/2+y,1/2-z
1/2-x,1/2+y,z
1/2+x,1/2-y,1/2+z
loop_
_atom_site_type_symbol
_atom_site_label
_atom_site_fract_x
_atom_site_fract_y
_atom_site_fract_z
Si Si1 0.169975 0.089164 0.935297
Si Si2 0.409801 0.284185 0.563195
Si Si3 0.500000 0.398893 0.435875
Si Si4 0.872883 0.596458 0.935650
Si Si5 0.232340 0.655109 0.065029
O O1 0.172898 0.088304 0.750000
O O2 0.139301 0.172894 0.994358
O O3 0.223068 0.093595 0.012101
O O4 0.144815 0.000000 0.000000
O O5 0.409654 0.292043 0.750000
O O6 0.453594 0.342274 0.494649
O O7 0.408250 0.179300 0.523019
O O8 0.500000 0.500000 0.500000
O O9 0.500000 0.403325 0.250000
O O10 0.870466 0.591607 0.750000
O O11 0.887056 0.500000 0.000000
O O12 0.818902 0.622088 0.996968
O O13 0.228588 0.659017 0.250000
O O14 0.250000 0.750000 0.000000
#
# Coordination Sequence:
#
# PCOD9475824 Si02
#       5
#    16  16   8  16  16
#     4  12  24  39  61  90 127 169 214 263 318 381
#     4  11  24  44  68  95 129 166 212 265 322 384
#     4  12  26  46  73 102 133 166 207 258 324 392
#     4  11  24  42  66  94 130 173 219 268 321 380
#     4  12  23  38  60  89 128 171 219 267 319 378
#
# _framework density 20.306649
#
# number of rings (size 3 to 8) (size 9 to 14) (size 15 to 20)
#    0.000    0.444    2.222    7.667    0.000    2.667 
#    0.000    0.556    0.000    0.000    0.000    0.000 
#    0.000    0.000    0.000    0.000    0.000    0.000 
#
# Total GULP energy -201409.788269 kJ/mol
# GULP energy per Si atom -5594.716341 kJ/mol
# Density = 2.026043 g / cm^3
# Si number density = 20.306649 Si / 1000 Ang^3
#
#
#
# Elastic Constant Matrix: (Units=GPa)
#
#
# Indices 1 2 3 4 5 6 
#
# 1 83.4479 44.0465 28.7663 0.0000 0.0000 0.0000
# 2 44.0465 195.3370 66.7103 0.0000 0.0000 0.0000
# 3 28.7663 66.7103 136.7452 0.0000 0.0000 0.0000
# 4 0.0000 0.0000 0.0000 38.1816 0.0000 0.0000
# 5 0.0000 0.0000 0.0000 0.0000 30.6306 0.0000
# 6 0.0000 0.0000 0.0000 0.0000 0.0000 29.1565
#
#
#
# Elastic Compliance Matrix: (Units=1/GPa)
#
#
# Indices 1 2 3 4 5 6 
#
# 1 0.013915 -0.002565 -0.001676 0.000000 0.000000 0.000000
# 2 -0.002565 0.006616 -0.002688 0.000000 0.000000 0.000000
# 3 -0.001676 -0.002688 0.008977 0.000000 0.000000 0.000000
# 4 0.000000 0.000000 0.000000 0.026191 0.000000 0.000000
# 5 0.000000 0.000000 0.000000 0.000000 0.032647 0.000000
# 6 0.000000 0.000000 0.000000 0.000000 0.000000 0.034298
#
#
# Mechanical properties :
#
#
# Convention : Reuss Voigt Hill
#
# Bulk Modulus (GPa) = 63.89891 77.17513 70.53702
# Shear Modulus (GPa) = 35.28142 37.99420 36.63781
#
# Velocity S-wave (km/s) = 4.17277 4.33022 4.25223
# Velocity P-wave (km/s) = 7.39942 7.94283 7.67593
#
# Compressibility (1/GPa) = 0.01564972
#
# Stress axis : x y z
#
# Youngs Moduli (GPa) = 71.86314 151.15428 111.40072
#
# Poissons Ratio (x) = 0.38778 0.18668
# Poissons Ratio (y) = 0.18436 0.29942
# Poissons Ratio (z) = 0.12042 0.40627
#
# Static dielectric constant tensor:
#      x y z
#    x 1.676300 0.000000 0.000000 
#    y 0.000000 1.858750 0.000000 
#    z 0.000000 0.000000 1.668200 
# 
# From -- ./inp_files/11729.got.cif
#   From: 2010.05.17/outbox.cif.g08.bks.cpg/sg63_6_cif.got.tgz:11729.got - 2010.06.03 15:47:04.
