data_PCOD9475332
_publ_section_title
;
Structure prediction by ZEFSAII (Michael W. Deem and Ramdas Pophale) SiO2 
 PCOD9475332
Probable space group: C M C M
;
_chemical_formula_sum "Si O2"
_cell_formula_units_Z 84
_cell_length_a 26.203826
_cell_length_b 10.320587
_cell_length_c 13.719225
_cell_angle_alpha 90.000000
_cell_angle_beta 90.000000
_cell_angle_gamma 90.000000
_cell_volume 3710.211651
_symmetry_space_group_name_H-M "C M C M"
_symmetry_group_IT_number 63
_symmetry_cell_setting 'orthorhombic'
loop_
_space_group_symop_operation_xyz
x,y,z
-x,-y,1/2+z
x,-y,-z
-x,y,1/2-z
-x,-y,-z
x,y,1/2-z
-x,y,z
x,-y,1/2+z
1/2+x,1/2+y,z
1/2-x,1/2-y,1/2+z
1/2+x,1/2-y,-z
1/2-x,1/2+y,1/2-z
1/2-x,1/2-y,-z
1/2+x,1/2+y,1/2-z
1/2-x,1/2+y,z
1/2+x,1/2-y,1/2+z
loop_
_atom_site_type_symbol
_atom_site_label
_atom_site_fract_x
_atom_site_fract_y
_atom_site_fract_z
Si Si1 0.347002 0.314057 0.002674
Si Si2 0.319935 0.075646 0.360466
Si Si3 0.057521 0.181849 0.138686
Si Si4 0.500000 0.893655 0.750000
Si Si5 0.794374 0.972855 0.863965
Si Si6 0.074577 0.523503 0.887250
O O1 0.337731 0.181302 0.060143
O O2 0.329535 0.422053 0.081711
O O3 0.401722 0.337476 0.949382
O O4 0.308315 0.335712 0.912918
O O5 0.315707 0.131937 0.250000
O O6 0.265787 0.010550 0.382093
O O7 0.366081 0.975458 0.361025
O O8 0.072659 0.138657 0.250000
O O9 0.053670 0.337698 0.143049
O O10 0.000000 0.130730 0.119306
O O11 0.544685 0.910396 0.832892
O O12 0.803775 0.975092 0.750000
O O13 0.067737 0.500000 0.000000
#
# Coordination Sequence:
#
# PCOD9475332 Si02
#       6
#    16  16  16   4  16  16
#     4  11  23  40  68  94 121 164 216 262 315 377
#     4  11  23  40  62  95 129 170 209 254 312 380
#     4  11  22  40  63  95 130 169 213 261 318 386
#     4  12  22  40  56  94 136 178 202 248 318 386
#     4  10  24  44  64  90 130 166 208 267 319 370
#     4  12  22  36  62  92 133 173 202 249 314 378
#
# _framework density 22.640218999999998
#
# number of rings (size 3 to 8) (size 9 to 14) (size 15 to 20)
#    0.000    0.952    4.762    2.000    2.667    1.524 
#    0.000    3.810    0.000    5.143    0.000    0.000 
#    0.000    0.000    0.000    0.000    0.000    0.000 
#
# Total GULP energy -233951.070683 kJ/mol
# GULP energy per Si atom -5570.263588 kJ/mol
# Density = 2.258869 g / cm^3
# Si number density = 22.640219 Si / 1000 Ang^3
#
#
#
# Elastic Constant Matrix: (Units=GPa)
#
#
# Indices 1 2 3 4 5 6 
#
# 1 175.6327 24.0749 65.0275 0.0000 0.0000 0.0000
# 2 24.0749 37.9230 23.2871 0.0000 0.0000 0.0000
# 3 65.0275 23.2871 219.6099 0.0000 0.0000 0.0000
# 4 0.0000 0.0000 0.0000 14.9381 0.0000 0.0000
# 5 0.0000 0.0000 0.0000 0.0000 53.7660 0.0000
# 6 0.0000 0.0000 0.0000 0.0000 0.0000 -41.6077
#
#
#
# Elastic Compliance Matrix: (Units=1/GPa)
#
#
# Indices 1 2 3 4 5 6 
#
# 1 0.006754 -0.003273 -0.001653 0.000000 0.000000 0.000000
# 2 -0.003273 0.029792 -0.002190 0.000000 0.000000 0.000000
# 3 -0.001653 -0.002190 0.005275 0.000000 0.000000 0.000000
# 4 0.000000 0.000000 0.000000 0.066943 0.000000 0.000000
# 5 0.000000 0.000000 0.000000 0.000000 0.018599 0.000000
# 6 0.000000 0.000000 0.000000 0.000000 0.000000 -0.024034
#
#
# Mechanical properties :
#
#
# Convention : Reuss Voigt Hill
#
# Bulk Modulus (GPa) = 36.24542 73.10496 54.67519
# Shear Modulus (GPa) = 39.44542 26.80436 33.12489
#
# Velocity S-wave (km/s) = 4.17858 3.44456 3.82920
# Velocity P-wave (km/s) = 6.27095 6.94118 6.61456
#
# Compressibility (1/GPa) = 0.02758969
#
# Stress axis : x y z
#
# Youngs Moduli (GPa) = 148.05325 33.56637 189.56662
#
# Poissons Ratio (x) = 0.10986 0.31334
# Poissons Ratio (y) = 0.48456 0.41514
# Poissons Ratio (z) = 0.24472 0.07351
#
# Static dielectric constant tensor:
#      x y z
#    x 1.869760 0.000000 0.000000 
#    y 0.000000 1.901070 0.000000 
#    z 0.000000 0.000000 1.866000 
# 
# From -- ./inp_files/36585.got.cif
#   From: 2010.05.17/outbox.cif.g08.bks.cpg/sg63_19_cif.got.tgz:36585.got - 2010.06.03 15:47:04.
