data_PCOD9475666
_publ_section_title
;
Structure prediction by ZEFSAII (Michael W. Deem and Ramdas Pophale) SiO2 
 PCOD9475666
Probable space group: C M C M
;
_chemical_formula_sum "Si O2"
_cell_formula_units_Z 96
_cell_length_a 17.162534
_cell_length_b 16.628569
_cell_length_c 14.887303
_cell_angle_alpha 90.000000
_cell_angle_beta 90.000000
_cell_angle_gamma 90.000000
_cell_volume 4248.663298
_symmetry_space_group_name_H-M "C M C M"
_symmetry_group_IT_number 63
_symmetry_cell_setting 'orthorhombic'
loop_
_space_group_symop_operation_xyz
x,y,z
-x,-y,1/2+z
x,-y,-z
-x,y,1/2-z
-x,-y,-z
x,y,1/2-z
-x,y,z
x,-y,1/2+z
1/2+x,1/2+y,z
1/2-x,1/2-y,1/2+z
1/2+x,1/2-y,-z
1/2-x,1/2+y,1/2-z
1/2-x,1/2-y,-z
1/2+x,1/2+y,1/2-z
1/2-x,1/2+y,z
1/2+x,1/2-y,1/2+z
loop_
_atom_site_type_symbol
_atom_site_label
_atom_site_fract_x
_atom_site_fract_y
_atom_site_fract_z
Si Si1 0.692043 0.804340 0.855347
Si Si2 0.911732 0.844463 0.387531
Si Si3 0.643209 0.220551 0.851556
Si Si4 0.414470 0.387881 0.902031
Si Si5 0.290834 0.477782 0.348651
Si Si6 0.844640 0.417647 0.018247
O O1 0.696596 0.826654 0.750000
O O2 0.619908 0.744695 0.871275
O O3 0.769942 0.752553 0.876474
O O4 0.683069 0.876762 0.925399
O O5 0.909278 0.867865 0.492698
O O6 0.852110 0.905288 0.343326
O O7 0.000000 0.852955 0.356837
O O8 0.645594 0.188783 0.750000
O O9 0.593290 0.301679 0.855084
O O10 0.618060 0.153046 0.922070
O O11 0.500000 0.424336 0.883501
O O12 0.344173 0.445905 0.874768
O O13 0.255598 0.490631 0.250000
O O14 0.227879 0.449146 0.421171
O O15 0.891083 0.500000 0.000000
#
# Coordination Sequence:
#
# PCOD9475666 Si02
#       6
#    16  16  16  16  16  16
#     4  11  23  41  65  93 126 170 225 277 333 394
#     4  11  22  39  63  92 131 179 223 269 331 397
#     4  11  22  39  64  92 127 173 222 270 320 389
#     4  11  24  42  66  98 138 182 220 264 325 397
#     4  12  24  38  60  98 141 179 219 261 320 400
#     4  12  24  40  64  90 128 171 216 278 330 383
#
# _framework density 22.595343
#
# number of rings (size 3 to 8) (size 9 to 14) (size 15 to 20)
#    0.000    0.667    3.333    6.000    0.000    7.333 
#    0.000    0.000    0.000    2.000    0.000    2.333 
#    0.000    0.000    0.000    0.000    0.000    0.000 
#
# Total GULP energy -268690.444201 kJ/mol
# GULP energy per Si atom -5597.717588 kJ/mol
# Density = 2.254391 g / cm^3
# Si number density = 22.595343 Si / 1000 Ang^3
#
#
#
# Elastic Constant Matrix: (Units=GPa)
#
#
# Indices 1 2 3 4 5 6 
#
# 1 33.7415 2.6065 -9.1621 0.0000 0.0000 0.0000
# 2 2.6065 140.3423 41.4678 0.0000 0.0000 0.0000
# 3 -9.1621 41.4678 130.7847 0.0000 0.0000 0.0000
# 4 0.0000 0.0000 0.0000 -12.1791 0.0000 0.0000
# 5 0.0000 0.0000 0.0000 0.0000 2.2253 0.0000
# 6 0.0000 0.0000 0.0000 0.0000 0.0000 22.4596
#
#
#
# Elastic Compliance Matrix: (Units=1/GPa)
#
#
# Indices 1 2 3 4 5 6 
#
# 1 0.030431 -0.001319 0.002550 0.000000 0.000000 0.000000
# 2 -0.001319 0.007919 -0.002603 0.000000 0.000000 0.000000
# 3 0.002550 -0.002603 0.008650 0.000000 0.000000 0.000000
# 4 0.000000 0.000000 0.000000 -0.082108 0.000000 0.000000
# 5 0.000000 0.000000 0.000000 0.000000 0.449387 0.000000
# 6 0.000000 0.000000 0.000000 0.000000 0.000000 0.044524
#
#
# Mechanical properties :
#
#
# Convention : Reuss Voigt Hill
#
# Bulk Modulus (GPa) = 22.59540 41.63255 32.11398
# Shear Modulus (GPa) = 10.49758 20.49825 15.49791
#
# Velocity S-wave (km/s) = 2.15777 3.01523 2.62179
# Velocity P-wave (km/s) = 4.02861 5.53059 4.83824
#
# Compressibility (1/GPa) = 0.04425680
#
# Stress axis : x y z
#
# Youngs Moduli (GPa) = 32.86081 126.27642 115.60401
#
# Poissons Ratio (x) = 0.16651 -0.29479
# Poissons Ratio (y) = 0.04333 0.30095
# Poissons Ratio (z) = -0.08379 0.32873
#
# Static dielectric constant tensor:
#      x y z
#    x 1.817610 0.000000 0.000000 
#    y 0.000000 1.862240 0.000000 
#    z 0.000000 0.000000 1.858400 
# 
# From -- ./inp_files/35304.got.cif
#   From: 2010.05.17/outbox.cif.g08.bks.cpg/sg63_18_cif.got.tgz:35304.got - 2010.06.03 15:47:04.
