data_PCOD9475802
_publ_section_title
;
Structure prediction by ZEFSAII (Michael W. Deem and Ramdas Pophale) SiO2 
 PCOD9475802
Probable space group: C M C M
;
_chemical_formula_sum "Si O2"
_cell_formula_units_Z 100
_cell_length_a 7.912689
_cell_length_b 29.973340
_cell_length_c 19.238209
_cell_angle_alpha 90.000000
_cell_angle_beta 90.000000
_cell_angle_gamma 90.000000
_cell_volume 4562.720598
_symmetry_space_group_name_H-M "C M C M"
_symmetry_group_IT_number 63
_symmetry_cell_setting 'orthorhombic'
loop_
_space_group_symop_operation_xyz
x,y,z
-x,-y,1/2+z
x,-y,-z
-x,y,1/2-z
-x,-y,-z
x,y,1/2-z
-x,y,z
x,-y,1/2+z
1/2+x,1/2+y,z
1/2-x,1/2-y,1/2+z
1/2+x,1/2-y,-z
1/2-x,1/2+y,1/2-z
1/2-x,1/2-y,-z
1/2+x,1/2+y,1/2-z
1/2-x,1/2+y,z
1/2+x,1/2-y,1/2+z
loop_
_atom_site_type_symbol
_atom_site_label
_atom_site_fract_x
_atom_site_fract_y
_atom_site_fract_z
Si Si1 0.686441 0.757735 0.148496
Si Si2 0.000000 0.738942 0.250000
Si Si3 0.692214 0.346216 0.400492
Si Si4 0.699423 0.626830 0.171704
Si Si5 0.203819 0.557494 0.566674
Si Si6 0.704693 0.041672 0.092760
Si Si7 0.803115 0.309745 0.952765
O O1 0.500000 0.744826 0.173614
O O2 0.697837 0.811108 0.142449
O O3 0.712082 0.734892 0.073420
O O4 0.848392 0.741540 0.190998
O O5 0.500000 0.338312 0.379603
O O6 0.733912 0.398245 0.395780
O O7 0.718538 0.332580 0.480861
O O8 0.764319 0.635265 0.250000
O O9 0.500000 0.636602 0.170459
O O10 0.725684 0.575564 0.149381
O O11 0.786255 0.656256 0.112461
O O12 0.256548 0.556876 0.485270
O O13 0.256110 0.510071 0.599018
O O14 0.000000 0.558525 0.566198
O O15 0.500000 0.043551 0.095196
O O16 0.000000 0.302705 0.967715
#
# Coordination Sequence:
#
# PCOD9475802 Si02
#       7
#    16   4  16  16  16  16  16
#     4  12  26  46  71  97 133 174 222 277 325 394
#     4  12  26  52  68 102 128 178 226 264 336 402
#     4  12  23  40  64 100 134 168 218 274 335 391
#     4  11  24  38  56  87 127 169 215 263 330 402
#     4   9  18  34  60  91 121 158 207 261 329 386
#     4   9  18  35  58  87 120 158 206 263 318 392
#     4  12  24  41  63  96 132 170 218 271 331 398
#
# _framework density 21.91675
#
# number of rings (size 3 to 8) (size 9 to 14) (size 15 to 20)
#    0.000    1.120    3.200    5.040    1.120    1.920 
#    0.000    1.600    1.760    0.000    0.000    0.000 
#    0.000    0.000    0.000    0.000    0.000    0.000 
#
# Total GULP energy -279164.622107 kJ/mol
# GULP energy per Si atom -5583.292442 kJ/mol
# Density = 2.186687 g / cm^3
# Si number density = 21.916750 Si / 1000 Ang^3
#
#
#
# Elastic Constant Matrix: (Units=GPa)
#
#
# Indices 1 2 3 4 5 6 
#
# 1 118.4093 11.2608 5.8229 0.0000 0.0000 0.0000
# 2 11.2608 123.1637 0.1058 0.0000 0.0000 0.0000
# 3 5.8229 0.1058 42.8763 0.0000 0.0000 0.0000
# 4 0.0000 0.0000 0.0000 -6.0440 0.0000 0.0000
# 5 0.0000 0.0000 0.0000 0.0000 -1.1765 0.0000
# 6 0.0000 0.0000 0.0000 0.0000 0.0000 22.7742
#
#
#
# Elastic Compliance Matrix: (Units=1/GPa)
#
#
# Indices 1 2 3 4 5 6 
#
# 1 0.008577 -0.000783 -0.001163 0.000000 0.000000 0.000000
# 2 -0.000783 0.008191 0.000086 0.000000 0.000000 0.000000
# 3 -0.001163 0.000086 0.023481 0.000000 0.000000 0.000000
# 4 0.000000 0.000000 0.000000 -0.165454 0.000000 0.000000
# 5 0.000000 0.000000 0.000000 0.000000 -0.850011 0.000000
# 6 0.000000 0.000000 0.000000 0.000000 0.000000 0.043909
#
#
# Mechanical properties :
#
#
# Convention : Reuss Voigt Hill
#
# Bulk Modulus (GPa) = 27.37583 35.42535 31.40059
# Shear Modulus (GPa) = -5.46202 20.92806 7.73302
#
# Velocity S-wave (km/s) = -1.58037 3.09348 1.88043
# Velocity P-wave (km/s) = 3.03114 5.38128 4.36727
#
# Compressibility (1/GPa) = 0.03652857
#
# Stress axis : x y z
#
# Youngs Moduli (GPa) = 116.59154 122.08807 42.58829
#
# Poissons Ratio (x) = 0.09562 0.04952
# Poissons Ratio (y) = 0.09131 -0.00367
# Poissons Ratio (z) = 0.13558 -0.01052
#
# Static dielectric constant tensor:
#      x y z
#    x 1.784020 0.000000 0.000000 
#    y 0.000000 1.842280 0.000000 
#    z 0.000000 0.000000 1.752440 
# 
# From -- ./inp_files/51700.got.cif
#   From: 2010.05.17/outbox.cif.g08.bks.cpg/sg63_26_cif.got.tgz:51700.got - 2010.06.03 15:47:04.
