data_PCOD9475567
_publ_section_title
;
Structure prediction by ZEFSAII (Michael W. Deem and Ramdas Pophale) SiO2 
 PCOD9475567
Probable space group: C M C M
;
_chemical_formula_sum "Si O2"
_cell_formula_units_Z 96
_cell_length_a 10.054412
_cell_length_b 23.080284
_cell_length_c 21.992351
_cell_angle_alpha 90.000000
_cell_angle_beta 90.000000
_cell_angle_gamma 90.000000
_cell_volume 5103.516040
_symmetry_space_group_name_H-M "C M C M"
_symmetry_group_IT_number 63
_symmetry_cell_setting 'orthorhombic'
loop_
_space_group_symop_operation_xyz
x,y,z
-x,-y,1/2+z
x,-y,-z
-x,y,1/2-z
-x,-y,-z
x,y,1/2-z
-x,y,z
x,-y,1/2+z
1/2+x,1/2+y,z
1/2-x,1/2-y,1/2+z
1/2+x,1/2-y,-z
1/2-x,1/2+y,1/2-z
1/2-x,1/2-y,-z
1/2+x,1/2+y,1/2-z
1/2-x,1/2+y,z
1/2+x,1/2-y,1/2+z
loop_
_atom_site_type_symbol
_atom_site_label
_atom_site_fract_x
_atom_site_fract_y
_atom_site_fract_z
Si Si1 0.652209 0.250550 0.320170
Si Si2 0.746862 0.370131 0.132790
Si Si3 0.500000 0.072299 0.322847
Si Si4 0.663896 0.809952 0.492741
Si Si5 0.500000 0.558089 0.676817
Si Si6 0.000000 0.918678 0.677035
Si Si7 0.743863 0.140198 0.119408
Si Si8 0.000000 0.560353 0.822389
O O1 0.648130 0.233530 0.250000
O O2 0.500000 0.248247 0.344451
O O3 0.706639 0.314811 0.326938
O O4 0.743365 0.205594 0.355250
O O5 0.784428 0.342520 0.067694
O O6 0.625358 0.414393 0.142007
O O7 0.873110 0.404666 0.156032
O O8 0.500000 0.073212 0.250000
O O9 0.373747 0.106120 0.347518
O O10 0.500000 0.005900 0.344510
O O11 0.500000 0.801351 0.491871
O O12 0.750000 0.750000 0.500000
O O13 0.705690 0.851028 0.549179
O O14 0.500000 0.573477 0.750000
O O15 0.500000 0.488500 0.674015
O O16 0.124985 0.892384 0.641074
O O17 0.000000 0.903559 0.750000
O O18 0.000000 0.557702 0.750000
#
# Coordination Sequence:
#
# PCOD9475567 Si02
#       8
#    16  16   8  16   8   8  16   8
#     4  11  21  36  63  98 131 165 218 281 340 407
#     4  12  24  42  67 101 136 177 231 280 339 404
#     4  11  22  42  71  96 130 182 228 273 338 411
#     4  12  27  47  69  99 140 187 229 281 340 411
#     4  11  24  46  73 100 138 186 228 275 342 417
#     4  11  26  46  69 104 142 176 224 287 346 401
#     4  12  24  43  68 100 135 176 228 278 339 405
#     4  11  24  42  65  98 138 178 222 283 348 397
#
# _framework density 18.810561
#
# number of rings (size 3 to 8) (size 9 to 14) (size 15 to 20)
#    0.000    0.500    5.000    4.000    2.333    3.333 
#    0.000    6.667    0.000    0.000    0.000    0.000 
#    0.000    0.000    0.000    0.000    0.000    0.000 
#
# Total GULP energy -268028.426385 kJ/mol
# GULP energy per Si atom -5583.925550 kJ/mol
# Density = 1.876775 g / cm^3
# Si number density = 18.810561 Si / 1000 Ang^3
#
#
#
# Elastic Constant Matrix: (Units=GPa)
#
#
# Indices 1 2 3 4 5 6 
#
# 1 175.0458 51.8103 41.8785 0.0000 0.0000 0.0000
# 2 51.8103 108.3938 26.7446 0.0000 0.0000 0.0000
# 3 41.8785 26.7446 103.3644 0.0000 0.0000 0.0000
# 4 0.0000 0.0000 0.0000 -36.5337 0.0000 0.0000
# 5 0.0000 0.0000 0.0000 0.0000 14.9244 0.0000
# 6 0.0000 0.0000 0.0000 0.0000 0.0000 38.6624
#
#
#
# Elastic Compliance Matrix: (Units=1/GPa)
#
#
# Indices 1 2 3 4 5 6 
#
# 1 0.007065 -0.002853 -0.002124 0.000000 0.000000 0.000000
# 2 -0.002853 0.011007 -0.001692 0.000000 0.000000 0.000000
# 3 -0.002124 -0.001692 0.010973 0.000000 0.000000 0.000000
# 4 0.000000 0.000000 0.000000 -0.027372 0.000000 0.000000
# 5 0.000000 0.000000 0.000000 0.000000 0.067004 0.000000
# 6 0.000000 0.000000 0.000000 0.000000 0.000000 0.025865
#
#
# Mechanical properties :
#
#
# Convention : Reuss Voigt Hill
#
# Bulk Modulus (GPa) = 63.66816 69.74118 66.70467
# Shear Modulus (GPa) = 44.20208 21.16865 32.68537
#
# Velocity S-wave (km/s) = 4.85279 3.35828 4.17298
# Velocity P-wave (km/s) = 8.08207 7.22450 7.66529
#
# Compressibility (1/GPa) = 0.01570644
#
# Stress axis : x y z
#
# Youngs Moduli (GPa) = 141.53322 90.85308 91.13261
#
# Poissons Ratio (x) = 0.25920 0.19360
# Poissons Ratio (y) = 0.40379 0.15420
# Poissons Ratio (z) = 0.30068 0.15372
#
# Static dielectric constant tensor:
#      x y z
#    x 2.089450 0.000000 0.000000 
#    y 0.000000 1.633640 0.000000 
#    z 0.000000 0.000000 1.651020 
# 
# From -- ./inp_files/60131.got.cif
#   From: 2010.05.17/outbox.cif.g08.bks.cpg/sg63_31_cif.got.tgz:60131.got - 2010.06.03 15:47:04.
