data_PCOD9475124
_publ_section_title
;
Structure prediction by ZEFSAII (Michael W. Deem and Ramdas Pophale) SiO2 
 PCOD9475124
Probable space group: C M C M
;
_chemical_formula_sum "Si O2"
_cell_formula_units_Z 64
_cell_length_a 26.205975
_cell_length_b 5.278924
_cell_length_c 20.316460
_cell_angle_alpha 90.000000
_cell_angle_beta 90.000000
_cell_angle_gamma 90.000000
_cell_volume 2810.565878
_symmetry_space_group_name_H-M "C M C M"
_symmetry_group_IT_number 63
_symmetry_cell_setting 'orthorhombic'
loop_
_space_group_symop_operation_xyz
x,y,z
-x,-y,1/2+z
x,-y,-z
-x,y,1/2-z
-x,-y,-z
x,y,1/2-z
-x,y,z
x,-y,1/2+z
1/2+x,1/2+y,z
1/2-x,1/2-y,1/2+z
1/2+x,1/2-y,-z
1/2-x,1/2+y,1/2-z
1/2-x,1/2-y,-z
1/2+x,1/2+y,1/2-z
1/2-x,1/2+y,z
1/2+x,1/2-y,1/2+z
loop_
_atom_site_type_symbol
_atom_site_label
_atom_site_fract_x
_atom_site_fract_y
_atom_site_fract_z
Si Si1 0.557319 0.084378 0.923521
Si Si2 0.218855 0.609630 0.840308
Si Si3 0.874853 0.297157 0.675560
Si Si4 0.159027 0.104534 0.072007
O O1 0.500000 0.167804 0.906653
O O2 0.601739 0.290102 0.923293
O O3 0.577295 0.878656 0.870004
O O4 0.556489 0.000000 0.000000
O O5 0.251969 0.365987 0.821593
O O6 0.162039 0.541583 0.816210
O O7 0.202174 0.682722 0.914807
O O8 0.886487 0.205678 0.750000
O O9 0.841718 0.107389 0.629579
O O10 0.166838 0.000000 0.000000
#
# Coordination Sequence:
#
# PCOD9475124 Si02
#       4
#    16  16  16  16
#     4  10  22  42  71 103 139 187 238 292 358 434
#     4  11  24  46  69 103 141 190 240 291 353 425
#     4  11  25  45  68 100 144 186 236 301 361 425
#     4  11  23  42  71 106 142 186 240 300 360 429
#
# _framework density 22.771212999999999
#
# number of rings (size 3 to 8) (size 9 to 14) (size 15 to 20)
#    0.000    1.250    5.000    0.000    0.000    8.000 
#    0.000    0.000    0.000    0.000    0.000    0.000 
#    0.000    0.000    0.000    0.000    0.000    0.000 
#
# Total GULP energy -178143.545037 kJ/mol
# GULP energy per Si atom -5566.985782 kJ/mol
# Density = 2.271939 g / cm^3
# Si number density = 22.771213 Si / 1000 Ang^3
#
#
#
# Elastic Constant Matrix: (Units=GPa)
#
#
# Indices 1 2 3 4 5 6 
#
# 1 101.0763 33.3673 38.6519 0.0000 0.0000 0.0000
# 2 33.3673 102.9483 43.6598 0.0000 0.0000 0.0000
# 3 38.6519 43.6598 164.3563 0.0000 0.0000 0.0000
# 4 0.0000 0.0000 0.0000 2.5326 0.0000 0.0000
# 5 0.0000 0.0000 0.0000 0.0000 -90.8434 0.0000
# 6 0.0000 0.0000 0.0000 0.0000 0.0000 33.9890
#
#
#
# Elastic Compliance Matrix: (Units=1/GPa)
#
#
# Indices 1 2 3 4 5 6 
#
# 1 0.011608 -0.002935 -0.001950 0.000000 0.000000 0.000000
# 2 -0.002935 0.011689 -0.002415 0.000000 0.000000 0.000000
# 3 -0.001950 -0.002415 0.007184 0.000000 0.000000 0.000000
# 4 0.000000 0.000000 0.000000 0.394851 0.000000 0.000000
# 5 0.000000 0.000000 0.000000 0.000000 -0.011008 0.000000
# 6 0.000000 0.000000 0.000000 0.000000 0.000000 0.029421
#
#
# Mechanical properties :
#
#
# Convention : Reuss Voigt Hill
#
# Bulk Modulus (GPa) = 62.96779 66.63766 64.80273
# Shear Modulus (GPa) = 10.78422 5.98245 8.38333
#
# Velocity S-wave (km/s) = 2.17857 1.62262 1.92082
# Velocity P-wave (km/s) = 5.83444 5.73045 5.78268
#
# Compressibility (1/GPa) = 0.01588114
#
# Stress axis : x y z
#
# Youngs Moduli (GPa) = 86.14529 85.54959 139.18970
#
# Poissons Ratio (x) = 0.25112 0.27144
# Poissons Ratio (y) = 0.25287 0.33611
# Poissons Ratio (z) = 0.16800 0.20658
#
# Static dielectric constant tensor:
#      x y z
#    x 1.851880 0.000000 0.000000 
#    y 0.000000 1.979860 0.000000 
#    z 0.000000 0.000000 1.921250 
# 
# From -- ./inp_files/57858.got.cif
#   From: 2010.05.17/outbox.cif.g08.bks.cpg/sg63_29_cif.got.tgz:57858.got - 2010.06.03 15:47:04.
