data_PCOD9475351
_publ_section_title
;
Structure prediction by ZEFSAII (Michael W. Deem and Ramdas Pophale) SiO2 
 PCOD9475351
Probable space group: C M C M
;
_chemical_formula_sum "Si O2"
_cell_formula_units_Z 104
_cell_length_a 20.339154
_cell_length_b 9.968776
_cell_length_c 26.836316
_cell_angle_alpha 90.000000
_cell_angle_beta 90.000000
_cell_angle_gamma 90.000000
_cell_volume 5441.236707
_symmetry_space_group_name_H-M "C M C M"
_symmetry_group_IT_number 63
_symmetry_cell_setting 'orthorhombic'
loop_
_space_group_symop_operation_xyz
x,y,z
-x,-y,1/2+z
x,-y,-z
-x,y,1/2-z
-x,-y,-z
x,y,1/2-z
-x,y,z
x,-y,1/2+z
1/2+x,1/2+y,z
1/2-x,1/2-y,1/2+z
1/2+x,1/2-y,-z
1/2-x,1/2+y,1/2-z
1/2-x,1/2-y,-z
1/2+x,1/2+y,1/2-z
1/2-x,1/2+y,z
1/2+x,1/2-y,1/2+z
loop_
_atom_site_type_symbol
_atom_site_label
_atom_site_fract_x
_atom_site_fract_y
_atom_site_fract_z
Si Si1 0.422482 0.484305 0.057686
Si Si2 0.577745 0.017517 0.557300
Si Si3 0.384933 0.272196 0.880846
Si Si4 0.614793 0.232427 0.118677
Si Si5 0.750151 0.780574 0.327346
Si Si6 0.500000 0.360639 0.690743
Si Si7 0.751770 0.030169 0.250000
Si Si8 0.000000 0.814750 0.190945
O O1 0.500000 0.518277 0.064324
O O2 0.381114 0.585630 0.091352
O O3 0.410523 0.334976 0.076666
O O4 0.406557 0.500000 0.000000
O O5 0.500000 0.985846 0.558440
O O6 0.588164 0.165582 0.579142
O O7 0.599900 0.000000 0.500000
O O8 0.612114 0.914146 0.594854
O O9 0.316678 0.222290 0.858946
O O10 0.436655 0.296708 0.835935
O O11 0.686189 0.272107 0.137659
O O12 0.563701 0.252007 0.164363
O O13 0.753599 0.912234 0.293286
O O14 0.749772 0.648468 0.292982
O O15 0.500000 0.336964 0.750000
O O16 0.500000 0.522989 0.683369
O O17 0.000000 0.790500 0.250000
#
# Coordination Sequence:
#
# PCOD9475351 Si02
#       8
#    16  16  16  16  16   8   8   8
#     4  11  21  39  70  96 120 163 219 268 313 370
#     4  11  23  41  66  92 130 173 207 254 321 386
#     4  12  22  44  61  98 126 166 210 265 312 378
#     4  12  22  44  61  98 126 166 210 265 312 378
#     4  11  26  40  69  88 132 166 215 258 315 374
#     4  11  24  39  66  95 127 163 213 271 318 357
#     4  10  24  46  60  92 118 186 212 244 300 398
#     4  11  24  39  66  95 127 163 213 271 318 357
#
# _framework density 19.113301
#
# number of rings (size 3 to 8) (size 9 to 14) (size 15 to 20)
#    0.000    0.769    4.615    2.769    4.308    2.462 
#    0.000    5.385    0.000    0.000    0.000    0.000 
#    0.000    0.000    0.000    0.000    0.000    0.000 
#
# Total GULP energy -289628.569655 kJ/mol
# GULP energy per Si atom -5569.780186 kJ/mol
# Density = 1.906980 g / cm^3
# Si number density = 19.113301 Si / 1000 Ang^3
#
#
#
# Elastic Constant Matrix: (Units=GPa)
#
#
# Indices 1 2 3 4 5 6 
#
# 1 73.9797 5.0829 56.5569 0.0000 0.0000 0.0000
# 2 5.0829 85.9705 -13.9120 0.0000 0.0000 0.0000
# 3 56.5569 -13.9120 77.3308 0.0000 0.0000 0.0000
# 4 0.0000 0.0000 0.0000 23.4897 0.0000 0.0000
# 5 0.0000 0.0000 0.0000 0.0000 -20.2028 0.0000
# 6 0.0000 0.0000 0.0000 0.0000 0.0000 3.5132
#
#
#
# Elastic Compliance Matrix: (Units=1/GPa)
#
#
# Indices 1 2 3 4 5 6 
#
# 1 0.033527 -0.006129 -0.025623 0.000000 0.000000 0.000000
# 2 -0.006129 0.013101 0.006839 0.000000 0.000000 0.000000
# 3 -0.025623 0.006839 0.032901 0.000000 0.000000 0.000000
# 4 0.000000 0.000000 0.000000 0.042572 0.000000 0.000000
# 5 0.000000 0.000000 0.000000 0.000000 -0.049498 0.000000
# 6 0.000000 0.000000 0.000000 0.000000 0.000000 0.284642
#
#
# Mechanical properties :
#
#
# Convention : Reuss Voigt Hill
#
# Bulk Modulus (GPa) = 33.66481 36.97074 35.31777
# Shear Modulus (GPa) = 11.99125 13.99690 12.99408
#
# Velocity S-wave (km/s) = 2.50747 2.70906 2.61021
# Velocity P-wave (km/s) = 5.10242 5.40095 5.25381
#
# Compressibility (1/GPa) = 0.02970461
#
# Stress axis : x y z
#
# Youngs Moduli (GPa) = 29.82705 76.33029 30.39395
#
# Poissons Ratio (x) = 0.46779 0.77877
# Poissons Ratio (y) = 0.18280 -0.20787
# Poissons Ratio (z) = 0.76425 -0.52203
#
# Static dielectric constant tensor:
#      x y z
#    x 1.634990 0.000000 0.000000 
#    y 0.000000 1.625310 0.000000 
#    z 0.000000 0.000000 1.648250 
# 
# From -- ./inp_files/70415.got.cif
#   From: 2010.05.17/outbox.cif.g08.bks.cpg/sg63_36_cif.got.tgz:70415.got - 2010.06.03 15:47:04.
