data_PCOD9475627
_publ_section_title
;
Structure prediction by ZEFSAII (Michael W. Deem and Ramdas Pophale) SiO2 
 PCOD9475627
Probable space group: C M C M
;
_chemical_formula_sum "Si O2"
_cell_formula_units_Z 64
_cell_length_a 22.254976
_cell_length_b 7.393490
_cell_length_c 16.018726
_cell_angle_alpha 90.000000
_cell_angle_beta 90.000000
_cell_angle_gamma 90.000000
_cell_volume 2635.752293
_symmetry_space_group_name_H-M "C M C M"
_symmetry_group_IT_number 63
_symmetry_cell_setting 'orthorhombic'
loop_
_space_group_symop_operation_xyz
x,y,z
-x,-y,1/2+z
x,-y,-z
-x,y,1/2-z
-x,-y,-z
x,y,1/2-z
-x,y,z
x,-y,1/2+z
1/2+x,1/2+y,z
1/2-x,1/2-y,1/2+z
1/2+x,1/2-y,-z
1/2-x,1/2+y,1/2-z
1/2-x,1/2-y,-z
1/2+x,1/2+y,1/2-z
1/2-x,1/2+y,z
1/2+x,1/2-y,1/2+z
loop_
_atom_site_type_symbol
_atom_site_label
_atom_site_fract_x
_atom_site_fract_y
_atom_site_fract_z
Si Si1 0.064474 0.584908 0.651398
Si Si2 0.564969 0.492567 0.100313
Si Si3 0.313739 0.530337 0.344516
Si Si4 0.692139 0.091453 0.913032
O O1 0.065709 0.553002 0.750000
O O2 0.064189 0.801901 0.635394
O O3 0.126951 0.517677 0.613753
O O4 0.000000 0.518105 0.617010
O O5 0.500000 0.410977 0.124217
O O6 0.627009 0.412515 0.135761
O O7 0.567501 0.500000 0.000000
O O8 0.320391 0.601269 0.250000
O O9 0.314552 0.692423 0.411596
O O10 0.249061 0.440197 0.353317
O O11 0.706820 0.000000 0.000000
#
# Coordination Sequence:
#
# PCOD9475627 Si02
#       4
#    16  16  16  16
#     4   9  18  35  57  80 108 144 185 225 269 325
#     4   9  17  30  51  79 108 137 174 221 268 315
#     4  11  22  38  58  80 109 146 187 226 272 328
#     4  11  22  36  56  83 113 144 181 227 276 326
#
# _framework density 24.281493999999999
#
# number of rings (size 3 to 8) (size 9 to 14) (size 15 to 20)
#    0.000    2.000    0.000    6.000    0.000    4.000 
#    0.000    0.000    0.000    1.500    0.000    0.000 
#    0.000    0.000    0.000    0.000    0.000    0.000 
#
# Total GULP energy -178675.713317 kJ/mol
# GULP energy per Si atom -5583.616041 kJ/mol
# Density = 2.422623 g / cm^3
# Si number density = 24.281494 Si / 1000 Ang^3
#
#
#
# Elastic Constant Matrix: (Units=GPa)
#
#
# Indices 1 2 3 4 5 6 
#
# 1 272.9274 17.1658 45.9316 0.0000 0.0000 0.0000
# 2 17.1658 54.9552 -8.3349 0.0000 0.0000 0.0000
# 3 45.9316 -8.3349 80.1151 0.0000 0.0000 0.0000
# 4 0.0000 0.0000 0.0000 -3.3338 0.0000 0.0000
# 5 0.0000 0.0000 0.0000 0.0000 36.7351 0.0000
# 6 0.0000 0.0000 0.0000 0.0000 0.0000 12.6216
#
#
#
# Elastic Compliance Matrix: (Units=1/GPa)
#
#
# Indices 1 2 3 4 5 6 
#
# 1 0.004207 -0.001707 -0.002590 0.000000 0.000000 0.000000
# 2 -0.001707 0.019181 0.002974 0.000000 0.000000 0.000000
# 3 -0.002590 0.002974 0.014276 0.000000 0.000000 0.000000
# 4 0.000000 0.000000 0.000000 -0.299957 0.000000 0.000000
# 5 0.000000 0.000000 0.000000 0.000000 0.027222 0.000000
# 6 0.000000 0.000000 0.000000 0.000000 0.000000 0.079229
#
#
# Mechanical properties :
#
#
# Convention : Reuss Voigt Hill
#
# Bulk Modulus (GPa) = 28.55560 57.50250 43.02905
# Shear Modulus (GPa) = -35.32977 32.75360 -1.28808
#
# Velocity S-wave (km/s) = -3.81860 3.67674 -0.72913
# Velocity P-wave (km/s) = 2.76703 6.46201 4.12923
#
# Compressibility (1/GPa) = 0.03501940
#
# Stress axis : x y z
#
# Youngs Moduli (GPa) = 237.69075 52.13518 70.04694
#
# Poissons Ratio (x) = 0.08899 0.18140
# Poissons Ratio (y) = 0.40572 -0.20833
# Poissons Ratio (z) = 0.61553 -0.15506
#
# Static dielectric constant tensor:
#      x y z
#    x 2.083280 0.000000 0.000000 
#    y 0.000000 1.986390 0.000000 
#    z 0.000000 0.000000 1.926860 
# 
# From -- ./inp_files/36174.got.cif
#   From: 2010.05.17/outbox.cif.g08.bks.cpg/sg63_19_cif.got.tgz:36174.got - 2010.06.03 15:47:04.
