data_PCOD9475074
_publ_section_title
;
Structure prediction by ZEFSAII (Michael W. Deem and Ramdas Pophale) SiO2 
 PCOD9475074
Probable space group: C M C M
;
_chemical_formula_sum "Si O2"
_cell_formula_units_Z 64
_cell_length_a 7.866500
_cell_length_b 19.355515
_cell_length_c 19.048420
_cell_angle_alpha 90.000000
_cell_angle_beta 90.000000
_cell_angle_gamma 90.000000
_cell_volume 2900.315453
_symmetry_space_group_name_H-M "C M C M"
_symmetry_group_IT_number 63
_symmetry_cell_setting 'orthorhombic'
loop_
_space_group_symop_operation_xyz
x,y,z
-x,-y,1/2+z
x,-y,-z
-x,y,1/2-z
-x,-y,-z
x,y,1/2-z
-x,y,z
x,-y,1/2+z
1/2+x,1/2+y,z
1/2-x,1/2-y,1/2+z
1/2+x,1/2-y,-z
1/2-x,1/2+y,1/2-z
1/2-x,1/2-y,-z
1/2+x,1/2+y,1/2-z
1/2-x,1/2+y,z
1/2+x,1/2-y,1/2+z
loop_
_atom_site_type_symbol
_atom_site_label
_atom_site_fract_x
_atom_site_fract_y
_atom_site_fract_z
Si Si1 0.797793 0.746903 0.670248
Si Si2 0.500000 0.998121 0.666108
Si Si3 0.800796 0.176481 0.033137
Si Si4 0.500000 0.923388 0.969377
Si Si5 0.815349 0.903867 0.164842
O O1 0.742225 0.761617 0.750000
O O2 0.773980 0.808797 0.616278
O O3 0.713347 0.675779 0.644155
O O4 0.000000 0.732089 0.671870
O O5 0.500000 0.984247 0.750000
O O6 0.500000 0.933334 0.614917
O O7 0.336281 0.044856 0.647629
O O8 0.668142 0.118790 0.009414
O O9 0.000000 0.161595 0.020738
O O10 0.750000 0.250000 0.000000
O O11 0.500000 0.000000 0.000000
O O12 0.815589 0.901458 0.250000
O O13 0.000000 0.927993 0.140228
#
# Coordination Sequence:
#
# PCOD9475074 Si02
#       5
#    16   8  16   8  16
#     4   9  18  35  63  99 135 168 221 286 339 394
#     4  10  22  42  64  92 140 178 216 275 344 405
#     4  11  25  46  72  99 135 182 230 284 345 405
#     4  12  30  48  68 102 139 184 227 281 350 414
#     4   9  17  30  56  95 131 171 214 263 329 402
#
# _framework density 22.066565000000001
#
# number of rings (size 3 to 8) (size 9 to 14) (size 15 to 20)
#    0.000    2.000    2.500    0.000    5.250    2.500 
#    0.000    0.000    0.000    0.000    0.000    0.000 
#    0.000    0.000    0.000    0.000    0.000    0.000 
#
# Total GULP energy -178888.817913 kJ/mol
# GULP energy per Si atom -5590.275560 kJ/mol
# Density = 2.201634 g / cm^3
# Si number density = 22.066565 Si / 1000 Ang^3
#
#
#
# Elastic Constant Matrix: (Units=GPa)
#
#
# Indices 1 2 3 4 5 6 
#
# 1 177.1747 81.5240 27.1325 0.0000 0.0000 0.0000
# 2 81.5240 101.3360 26.4865 0.0000 0.0000 0.0000
# 3 27.1325 26.4865 86.0497 0.0000 0.0000 0.0000
# 4 0.0000 0.0000 0.0000 38.9826 0.0000 0.0000
# 5 0.0000 0.0000 0.0000 0.0000 13.7183 0.0000
# 6 0.0000 0.0000 0.0000 0.0000 0.0000 18.2119
#
#
#
# Elastic Compliance Matrix: (Units=1/GPa)
#
#
# Indices 1 2 3 4 5 6 
#
# 1 0.008996 -0.007064 -0.000662 0.000000 0.000000 0.000000
# 2 -0.007064 0.016279 -0.002783 0.000000 0.000000 0.000000
# 3 -0.000662 -0.002783 0.012687 0.000000 0.000000 0.000000
# 4 0.000000 0.000000 0.000000 0.025652 0.000000 0.000000
# 5 0.000000 0.000000 0.000000 0.000000 0.072896 0.000000
# 6 0.000000 0.000000 0.000000 0.000000 0.000000 0.054909
#
#
# Mechanical properties :
#
#
# Convention : Reuss Voigt Hill
#
# Bulk Modulus (GPa) = 59.02409 70.53849 64.78129
# Shear Modulus (GPa) = 22.92685 29.47705 26.20195
#
# Velocity S-wave (km/s) = 3.22683 3.65886 3.44961
# Velocity P-wave (km/s) = 6.37883 7.06295 6.72959
#
# Compressibility (1/GPa) = 0.01694223
#
# Stress axis : x y z
#
# Youngs Moduli (GPa) = 111.16067 61.43015 78.82288
#
# Poissons Ratio (x) = 0.43395 0.05219
# Poissons Ratio (y) = 0.78525 0.21938
# Poissons Ratio (z) = 0.07361 0.17098
#
# Static dielectric constant tensor:
#      x y z
#    x 2.053690 0.000000 0.000000 
#    y 0.000000 1.742260 0.000000 
#    z 0.000000 0.000000 1.898390 
# 
# From -- ./inp_files/50335.got.cif
#   From: 2010.05.17/outbox.cif.g08.bks.cpg/sg63_26_cif.got.tgz:50335.got - 2010.06.03 15:47:04.
