data_PCOD9475723
_publ_section_title
;
Structure prediction by ZEFSAII (Michael W. Deem and Ramdas Pophale) SiO2 
 PCOD9475723
Probable space group: C M C M
;
_chemical_formula_sum "Si O2"
_cell_formula_units_Z 84
_cell_length_a 18.906792
_cell_length_b 22.050621
_cell_length_c 11.897477
_cell_angle_alpha 90.000000
_cell_angle_beta 90.000000
_cell_angle_gamma 90.000000
_cell_volume 4960.135551
_symmetry_space_group_name_H-M "C M C M"
_symmetry_group_IT_number 63
_symmetry_cell_setting 'orthorhombic'
loop_
_space_group_symop_operation_xyz
x,y,z
-x,-y,1/2+z
x,-y,-z
-x,y,1/2-z
-x,-y,-z
x,y,1/2-z
-x,y,z
x,-y,1/2+z
1/2+x,1/2+y,z
1/2-x,1/2-y,1/2+z
1/2+x,1/2-y,-z
1/2-x,1/2+y,1/2-z
1/2-x,1/2-y,-z
1/2+x,1/2+y,1/2-z
1/2-x,1/2+y,z
1/2+x,1/2-y,1/2+z
loop_
_atom_site_type_symbol
_atom_site_label
_atom_site_fract_x
_atom_site_fract_y
_atom_site_fract_z
Si Si1 0.266778 0.832434 0.884986
Si Si2 0.359829 0.731939 0.015410
Si Si3 0.372435 0.083272 0.750000
Si Si4 0.500000 0.743657 0.882926
Si Si5 0.850104 0.571478 0.513537
Si Si6 0.500000 0.013385 0.250000
Si Si7 0.000000 0.386381 0.944961
Si Si8 0.081139 0.282457 0.250000
O O1 0.261603 0.826764 0.750000
O O2 0.192409 0.822196 0.948356
O O3 0.316663 0.779942 0.938457
O O4 0.303387 0.895337 0.920611
O O5 0.381735 0.760733 0.135467
O O6 0.430582 0.718725 0.945667
O O7 0.324442 0.082256 0.639608
O O8 0.415304 0.145403 0.750000
O O9 0.429654 0.028251 0.750000
O O10 0.500000 0.731778 0.750000
O O11 0.500000 0.817562 0.899840
O O12 0.856565 0.500000 0.500000
O O13 0.927947 0.601642 0.510779
O O14 0.500000 0.059924 0.353401
O O15 0.000000 0.261560 0.250000
#
# Coordination Sequence:
#
# PCOD9475723 Si02
#       8
#    16  16   8   8  16   4   8   8
#     4  11  24  40  57  80 117 155 195 241 293 350
#     4  11  23  38  58  84 110 151 194 240 296 345
#     4  12  22  34  47  79 112 153 201 238 279 325
#     4  12  22  37  61  89 116 151 194 241 291 340
#     4  12  25  37  54  80 113 159 203 241 284 336
#     4  12  22  32  52  72 128 160 204 244 270 312
#     4  12  22  36  51  84 115 158 209 236 272 330
#     4  12  20  36  56  79 116 143 193 247 287 343
#
# _framework density 16.935020999999999
#
# number of rings (size 3 to 8) (size 9 to 14) (size 15 to 20)
#    0.000    0.381    8.571    1.429    2.667    0.000 
#    1.714    0.000    0.000    0.000    0.000    0.667 
#    0.000    0.000    0.000    0.000    0.000    0.000 
#
# Total GULP energy -234481.661346 kJ/mol
# GULP energy per Si atom -5582.896699 kJ/mol
# Density = 1.689648 g / cm^3
# Si number density = 16.935021 Si / 1000 Ang^3
#
#
#
# Elastic Constant Matrix: (Units=GPa)
#
#
# Indices 1 2 3 4 5 6 
#
# 1 99.0121 29.0045 43.4409 0.0000 0.0000 0.0000
# 2 29.0045 41.0909 18.8250 0.0000 0.0000 0.0000
# 3 43.4409 18.8250 139.4172 0.0000 0.0000 0.0000
# 4 0.0000 0.0000 0.0000 24.1119 0.0000 0.0000
# 5 0.0000 0.0000 0.0000 0.0000 24.6225 0.0000
# 6 0.0000 0.0000 0.0000 0.0000 0.0000 4.0968
#
#
#
# Elastic Compliance Matrix: (Units=1/GPa)
#
#
# Indices 1 2 3 4 5 6 
#
# 1 0.013969 -0.008385 -0.003220 0.000000 0.000000 0.000000
# 2 -0.008385 0.030974 -0.001570 0.000000 0.000000 0.000000
# 3 -0.003220 -0.001570 0.008388 0.000000 0.000000 0.000000
# 4 0.000000 0.000000 0.000000 0.041473 0.000000 0.000000
# 5 0.000000 0.000000 0.000000 0.000000 0.040613 0.000000
# 6 0.000000 0.000000 0.000000 0.000000 0.000000 0.244094
#
#
# Mechanical properties :
#
#
# Convention : Reuss Voigt Hill
#
# Bulk Modulus (GPa) = 37.06283 51.34011 44.20147
# Shear Modulus (GPa) = 12.05241 23.11621 17.58431
#
# Velocity S-wave (km/s) = 2.67064 3.69859 3.22582
# Velocity P-wave (km/s) = 5.60737 6.97289 6.32708
#
# Compressibility (1/GPa) = 0.02698121
#
# Stress axis : x y z
#
# Youngs Moduli (GPa) = 71.58742 32.28524 119.21644
#
# Poissons Ratio (x) = 0.27070 0.38392
# Poissons Ratio (y) = 0.60024 0.18713
# Poissons Ratio (z) = 0.23054 0.05068
#
# Static dielectric constant tensor:
#      x y z
#    x 1.614140 0.000000 0.000000 
#    y 0.000000 1.560940 0.000000 
#    z 0.000000 0.000000 1.634490 
# 
# From -- ./inp_files/21100.got.cif
#   From: 2010.05.17/outbox.cif.g08.bks.cpg/sg63_11_cif.got.tgz:21100.got - 2010.06.03 15:47:04.
