data_PCOD9475109
_publ_section_title
;
Structure prediction by ZEFSAII (Michael W. Deem and Ramdas Pophale) SiO2 
 PCOD9475109
Probable space group: C M C M
;
_chemical_formula_sum "Si O2"
_cell_formula_units_Z 64
_cell_length_a 19.034629
_cell_length_b 10.423165
_cell_length_c 15.612288
_cell_angle_alpha 90.000000
_cell_angle_beta 90.000000
_cell_angle_gamma 90.000000
_cell_volume 3097.494781
_symmetry_space_group_name_H-M "C M C M"
_symmetry_group_IT_number 63
_symmetry_cell_setting 'orthorhombic'
loop_
_space_group_symop_operation_xyz
x,y,z
-x,-y,1/2+z
x,-y,-z
-x,y,1/2-z
-x,-y,-z
x,y,1/2-z
-x,y,z
x,-y,1/2+z
1/2+x,1/2+y,z
1/2-x,1/2-y,1/2+z
1/2+x,1/2-y,-z
1/2-x,1/2+y,1/2-z
1/2-x,1/2-y,-z
1/2+x,1/2+y,1/2-z
1/2-x,1/2+y,z
1/2+x,1/2-y,1/2+z
loop_
_atom_site_type_symbol
_atom_site_label
_atom_site_fract_x
_atom_site_fract_y
_atom_site_fract_z
Si Si1 0.711783 0.499839 0.897614
Si Si2 0.184412 0.725092 0.153857
Si Si3 0.583573 0.850371 0.995909
Si Si4 0.917407 0.162424 0.151097
O O1 0.763556 0.393995 0.859251
O O2 0.724503 0.641449 0.862054
O O3 0.633400 0.454784 0.872108
O O4 0.718352 0.500000 0.000000
O O5 0.155662 0.723390 0.250000
O O6 0.125522 0.714557 0.081030
O O7 0.500000 0.843743 0.981211
O O8 0.598696 0.776352 0.084343
O O9 0.603633 0.000000 0.000000
O O10 0.905573 0.199862 0.250000
O O11 0.000000 0.130066 0.141557
#
# Coordination Sequence:
#
# PCOD9475109 Si02
#       4
#    16  16  16  16
#     4  12  25  45  68  95 133 172 220 271 329 389
#     4  12  26  43  66  99 134 175 220 270 329 390
#     4  10  23  43  66  97 134 174 220 270 329 391
#     4  10  22  42  68  96 129 171 219 272 329 390
#
# _framework density 20.661859
#
# number of rings (size 3 to 8) (size 9 to 14) (size 15 to 20)
#    0.000    1.000    2.500    3.750    3.500    3.000 
#    0.000    2.500    0.000    0.000    0.000    0.000 
#    0.000    0.000    0.000    0.000    0.000    0.000 
#
# Total GULP energy -179100.131160 kJ/mol
# GULP energy per Si atom -5596.879099 kJ/mol
# Density = 2.061483 g / cm^3
# Si number density = 20.661859 Si / 1000 Ang^3
#
#
#
# Elastic Constant Matrix: (Units=GPa)
#
#
# Indices 1 2 3 4 5 6 
#
# 1 58.6238 31.0294 38.2988 0.0000 0.0000 0.0000
# 2 31.0294 129.3301 35.1183 0.0000 0.0000 0.0000
# 3 38.2988 35.1183 151.2574 0.0000 0.0000 0.0000
# 4 0.0000 0.0000 0.0000 23.4981 0.0000 0.0000
# 5 0.0000 0.0000 0.0000 0.0000 26.9064 0.0000
# 6 0.0000 0.0000 0.0000 0.0000 0.0000 27.9135
#
#
#
# Elastic Compliance Matrix: (Units=1/GPa)
#
#
# Indices 1 2 3 4 5 6 
#
# 1 0.022281 -0.004070 -0.004696 0.000000 0.000000 0.000000
# 2 -0.004070 0.008996 -0.001058 0.000000 0.000000 0.000000
# 3 -0.004696 -0.001058 0.008046 0.000000 0.000000 0.000000
# 4 0.000000 0.000000 0.000000 0.042557 0.000000 0.000000
# 5 0.000000 0.000000 0.000000 0.000000 0.037166 0.000000
# 6 0.000000 0.000000 0.000000 0.000000 0.000000 0.035825
#
#
# Mechanical properties :
#
#
# Convention : Reuss Voigt Hill
#
# Bulk Modulus (GPa) = 50.83129 60.90047 55.86588
# Shear Modulus (GPa) = 27.61251 31.31459 29.46355
#
# Velocity S-wave (km/s) = 3.65965 3.89726 3.78032
# Velocity P-wave (km/s) = 6.52014 7.05623 6.79348
#
# Compressibility (1/GPa) = 0.01967292
#
# Stress axis : x y z
#
# Youngs Moduli (GPa) = 44.88226 111.16022 124.28463
#
# Poissons Ratio (x) = 0.45246 0.58370
# Poissons Ratio (y) = 0.18269 0.13150
# Poissons Ratio (z) = 0.21079 0.11761
#
# Static dielectric constant tensor:
#      x y z
#    x 1.736030 0.000000 0.000000 
#    y 0.000000 1.724980 0.000000 
#    z 0.000000 0.000000 1.709690 
# 
# From -- ./inp_files/36205.got.cif
#   From: 2010.05.17/outbox.cif.g08.bks.cpg/sg63_19_cif.got.tgz:36205.got - 2010.06.03 15:47:04.
