data_PCOD9475732
_publ_section_title
;
Structure prediction by ZEFSAII (Michael W. Deem and Ramdas Pophale) SiO2 
 PCOD9475732
Probable space group: C M C M
;
_chemical_formula_sum "Si O2"
_cell_formula_units_Z 64
_cell_length_a 13.679028
_cell_length_b 29.135712
_cell_length_c 8.142319
_cell_angle_alpha 90.000000
_cell_angle_beta 90.000000
_cell_angle_gamma 90.000000
_cell_volume 3245.106746
_symmetry_space_group_name_H-M "C M C M"
_symmetry_group_IT_number 63
_symmetry_cell_setting 'orthorhombic'
loop_
_space_group_symop_operation_xyz
x,y,z
-x,-y,1/2+z
x,-y,-z
-x,y,1/2-z
-x,-y,-z
x,y,1/2-z
-x,y,z
x,-y,1/2+z
1/2+x,1/2+y,z
1/2-x,1/2-y,1/2+z
1/2+x,1/2-y,-z
1/2-x,1/2+y,1/2-z
1/2-x,1/2-y,-z
1/2+x,1/2+y,1/2-z
1/2-x,1/2+y,z
1/2+x,1/2-y,1/2+z
loop_
_atom_site_type_symbol
_atom_site_label
_atom_site_fract_x
_atom_site_fract_y
_atom_site_fract_z
Si Si1 0.500000 0.353084 0.555833
Si Si2 0.800859 0.296071 0.942338
Si Si3 0.291478 0.612415 0.561013
Si Si4 0.390845 0.946909 0.448838
Si Si5 0.500000 0.245317 0.550835
O O1 0.500000 0.348630 0.750000
O O2 0.400673 0.380002 0.508691
O O3 0.500000 0.299374 0.494390
O O4 0.783055 0.304920 0.750000
O O5 0.750000 0.250000 0.000000
O O6 0.758800 0.338082 0.043937
O O7 0.910682 0.283672 0.982190
O O8 0.304744 0.599101 0.750000
O O9 0.207019 0.578880 0.488609
O O10 0.390061 0.943361 0.250000
O O11 0.500000 0.929741 0.502729
O O12 0.385556 0.000000 0.500000
O O13 0.500000 0.245530 0.750000
#
# Coordination Sequence:
#
# PCOD9475732 Si02
#       5
#     8  16  16  16   8
#     4  11  23  39  60  84 118 161 206 251 298 349
#     4  12  24  38  57  85 118 158 204 246 295 352
#     4  11  23  39  62  89 121 159 201 246 300 359
#     4   9  20  40  65  93 121 153 189 238 299 358
#     4  11  23  39  57  80 116 159 202 253 300 344
#
# _framework density 19.722003000000001
#
# number of rings (size 3 to 8) (size 9 to 14) (size 15 to 20)
#    0.000    1.250    2.500    3.750    1.750    3.000 
#    0.000    0.625    0.000    0.000    0.000    0.000 
#    0.000    0.000    0.000    0.000    0.000    0.000 
#
# Total GULP energy -178436.963817 kJ/mol
# GULP energy per Si atom -5576.155119 kJ/mol
# Density = 1.967711 g / cm^3
# Si number density = 19.722003 Si / 1000 Ang^3
#
#
#
# Elastic Constant Matrix: (Units=GPa)
#
#
# Indices 1 2 3 4 5 6 
#
# 1 202.8453 52.4824 0.1343 0.0000 0.0000 0.0000
# 2 52.4824 63.6885 -13.9613 0.0000 0.0000 0.0000
# 3 0.1343 -13.9613 29.2693 0.0000 0.0000 0.0000
# 4 0.0000 0.0000 0.0000 22.2592 0.0000 0.0000
# 5 0.0000 0.0000 0.0000 0.0000 22.1980 0.0000
# 6 0.0000 0.0000 0.0000 0.0000 0.0000 38.5745
#
#
#
# Elastic Compliance Matrix: (Units=1/GPa)
#
#
# Indices 1 2 3 4 5 6 
#
# 1 0.006475 -0.005966 -0.002876 0.000000 0.000000 0.000000
# 2 -0.005966 0.023032 0.011014 0.000000 0.000000 0.000000
# 3 -0.002876 0.011014 0.039432 0.000000 0.000000 0.000000
# 4 0.000000 0.000000 0.000000 0.044925 0.000000 0.000000
# 5 0.000000 0.000000 0.000000 0.000000 0.045049 0.000000
# 6 0.000000 0.000000 0.000000 0.000000 0.000000 0.025924
#
#
# Mechanical properties :
#
#
# Convention : Reuss Voigt Hill
#
# Bulk Modulus (GPa) = 13.64572 41.45711 27.55142
# Shear Modulus (GPa) = 24.39941 33.74950 29.07446
#
# Velocity S-wave (km/s) = 3.52115 4.14123 3.84372
# Velocity P-wave (km/s) = 4.84411 6.62818 5.80509
#
# Compressibility (1/GPa) = 0.07328304
#
# Stress axis : x y z
#
# Youngs Moduli (GPa) = 154.42848 43.41706 25.36003
#
# Poissons Ratio (x) = 0.25905 0.07293
# Poissons Ratio (y) = 0.92140 -0.27931
# Poissons Ratio (z) = 0.44409 -0.47818
#
# Static dielectric constant tensor:
#      x y z
#    x 2.019360 0.000000 0.000000 
#    y 0.000000 1.654190 0.000000 
#    z 0.000000 0.000000 1.718520 
# 
# From -- ./inp_files/3141.got.cif
#   From: 2010.05.17/outbox.cif.g08.bks.cpg/sg63_2_cif.got.tgz:3141.got - 2010.06.03 15:47:04.
