data_PCOD9475547
_publ_section_title
;
Structure prediction by ZEFSAII (Michael W. Deem and Ramdas Pophale) SiO2 
 PCOD9475547
Probable space group: C M C M
;
_chemical_formula_sum "Si O2"
_cell_formula_units_Z 96
_cell_length_a 8.681896
_cell_length_b 26.010061
_cell_length_c 23.959821
_cell_angle_alpha 90.000000
_cell_angle_beta 90.000000
_cell_angle_gamma 90.000000
_cell_volume 5410.526382
_symmetry_space_group_name_H-M "C M C M"
_symmetry_group_IT_number 63
_symmetry_cell_setting 'orthorhombic'
loop_
_space_group_symop_operation_xyz
x,y,z
-x,-y,1/2+z
x,-y,-z
-x,y,1/2-z
-x,-y,-z
x,y,1/2-z
-x,y,z
x,-y,1/2+z
1/2+x,1/2+y,z
1/2-x,1/2-y,1/2+z
1/2+x,1/2-y,-z
1/2-x,1/2+y,1/2-z
1/2-x,1/2-y,-z
1/2+x,1/2+y,1/2-z
1/2-x,1/2+y,z
1/2+x,1/2-y,1/2+z
loop_
_atom_site_type_symbol
_atom_site_label
_atom_site_fract_x
_atom_site_fract_y
_atom_site_fract_z
Si Si1 0.315895 0.245598 0.685459
Si Si2 0.316115 0.155338 0.372479
Si Si3 0.187538 0.939244 0.186315
Si Si4 0.185103 0.056492 0.184431
Si Si5 0.315229 0.345258 0.109719
Si Si6 0.184363 0.307661 0.995858
O O1 0.273523 0.236655 0.750000
O O2 0.500000 0.241331 0.680084
O O3 0.263592 0.302000 0.666321
O O4 0.236782 0.204009 0.645593
O O5 0.500000 0.160701 0.367558
O O6 0.264751 0.099183 0.353014
O O7 0.272250 0.167940 0.436346
O O8 0.237520 0.927662 0.250000
O O9 0.238058 0.896062 0.142894
O O10 0.000000 0.938671 0.186983
O O11 0.232785 0.997667 0.172137
O O12 0.218728 0.065969 0.250000
O O13 0.000000 0.059938 0.177802
O O14 0.500000 0.345692 0.106316
O O15 0.247021 0.339554 0.048168
O O16 0.000000 0.304898 0.998801
O O17 0.250000 0.250000 0.000000
#
# Coordination Sequence:
#
# PCOD9475547 Si02
#       6
#    16  16  16  16  16  16
#     4  11  23  36  53  80 113 146 180 224 278 335
#     4  11  23  37  55  80 109 144 186 230 280 332
#     4   8  16  33  57  84 113 145 182 224 273 331
#     4   9  18  35  59  84 111 145 183 225 275 330
#     4  11  21  35  58  85 111 144 185 231 280 329
#     4  11  23  39  57  78 108 149 191 231 279 333
#
# _framework density 17.743189999999998
#
# number of rings (size 3 to 8) (size 9 to 14) (size 15 to 20)
#    0.000    1.833    1.667    4.000    0.000    6.333 
#    0.000    2.500    0.000    7.000    0.000    0.000 
#    0.000    0.000    0.000    0.000    0.000    0.000 
#
# Total GULP energy -268091.687527 kJ/mol
# GULP energy per Si atom -5585.243490 kJ/mol
# Density = 1.770281 g / cm^3
# Si number density = 17.743190 Si / 1000 Ang^3
#
#
#
# Elastic Constant Matrix: (Units=GPa)
#
#
# Indices 1 2 3 4 5 6 
#
# 1 28.6239 11.7381 24.6744 0.0000 0.0000 0.0000
# 2 11.7381 91.3094 31.8486 0.0000 0.0000 0.0000
# 3 24.6744 31.8486 73.0317 0.0000 0.0000 0.0000
# 4 0.0000 0.0000 0.0000 20.9807 0.0000 0.0000
# 5 0.0000 0.0000 0.0000 0.0000 30.1138 0.0000
# 6 0.0000 0.0000 0.0000 0.0000 0.0000 24.6482
#
#
#
# Elastic Compliance Matrix: (Units=1/GPa)
#
#
# Indices 1 2 3 4 5 6 
#
# 1 0.049322 -0.000623 -0.016392 0.000000 0.000000 0.000000
# 2 -0.000623 0.012924 -0.005426 0.000000 0.000000 0.000000
# 3 -0.016392 -0.005426 0.021597 0.000000 0.000000 0.000000
# 4 0.000000 0.000000 0.000000 0.047663 0.000000 0.000000
# 5 0.000000 0.000000 0.000000 0.000000 0.033207 0.000000
# 6 0.000000 0.000000 0.000000 0.000000 0.000000 0.040571
#
#
# Mechanical properties :
#
#
# Convention : Reuss Voigt Hill
#
# Bulk Modulus (GPa) = 25.66636 36.60968 31.13802
# Shear Modulus (GPa) = 19.00039 23.46215 21.23127
#
# Velocity S-wave (km/s) = 3.27594 3.64031 3.46292
# Velocity P-wave (km/s) = 5.36712 6.19250 5.79452
#
# Compressibility (1/GPa) = 0.03896150
#
# Stress axis : x y z
#
# Youngs Moduli (GPa) = 20.27512 77.37328 46.30272
#
# Poissons Ratio (x) = 0.04819 0.75900
# Poissons Ratio (y) = 0.01263 0.25123
# Poissons Ratio (z) = 0.33235 0.41981
#
# Static dielectric constant tensor:
#      x y z
#    x 1.601520 0.000000 0.000000 
#    y 0.000000 1.585600 0.000000 
#    z 0.000000 0.000000 1.592540 
# 
# From -- ./inp_files/59887.got.cif
#   From: 2010.05.17/outbox.cif.g08.bks.cpg/sg63_30_cif.got.tgz:59887.got - 2010.06.03 15:47:04.
