data_PCOD9475246
_publ_section_title
;
Structure prediction by ZEFSAII (Michael W. Deem and Ramdas Pophale) SiO2 
 PCOD9475246
Probable space group: C M C M
;
_chemical_formula_sum "Si O2"
_cell_formula_units_Z 104
_cell_length_a 21.692265
_cell_length_b 8.468188
_cell_length_c 22.533064
_cell_angle_alpha 90.000000
_cell_angle_beta 90.000000
_cell_angle_gamma 90.000000
_cell_volume 4139.192673
_symmetry_space_group_name_H-M "C M C M"
_symmetry_group_IT_number 63
_symmetry_cell_setting 'orthorhombic'
loop_
_space_group_symop_operation_xyz
x,y,z
-x,-y,1/2+z
x,-y,-z
-x,y,1/2-z
-x,-y,-z
x,y,1/2-z
-x,y,z
x,-y,1/2+z
1/2+x,1/2+y,z
1/2-x,1/2-y,1/2+z
1/2+x,1/2-y,-z
1/2-x,1/2+y,1/2-z
1/2-x,1/2-y,-z
1/2+x,1/2+y,1/2-z
1/2-x,1/2+y,z
1/2+x,1/2-y,1/2+z
loop_
_atom_site_type_symbol
_atom_site_label
_atom_site_fract_x
_atom_site_fract_y
_atom_site_fract_z
Si Si1 0.500000 0.277312 0.678986
Si Si2 0.000000 0.343976 0.043995
Si Si3 0.915137 0.344564 0.750000
Si Si4 0.588405 0.431361 0.344296
Si Si5 0.709783 0.092686 0.443367
Si Si6 0.394474 0.334085 0.474260
Si Si7 0.209731 0.888911 0.661918
Si Si8 0.665638 0.951495 0.169744
O O1 0.500000 0.220263 0.750000
O O2 0.500000 0.166007 0.617920
O O3 0.556273 0.402241 0.670970
O O4 0.000000 0.500000 0.000000
O O5 0.059821 0.249958 0.020289
O O6 0.893852 0.474532 0.699102
O O7 0.927852 0.210174 0.800879
O O8 0.574778 0.374292 0.410694
O O9 0.661448 0.468738 0.336690
O O10 0.665169 0.232332 0.460572
O O11 0.731869 0.355640 0.594944
O O12 0.668312 0.980782 0.400508
O O13 0.729705 0.000000 0.500000
O O14 0.376130 0.500000 0.500000
O O15 0.274873 0.942977 0.689063
O O16 0.180487 0.728077 0.684579
#
# Coordination Sequence:
#
# PCOD9475246 Si02
#       8
#     8   8   8  16  16  16  16  16
#     4  12  27  55  84 120 152 201 281 327 415 486
#     4  12  28  52  85 117 157 214 268 340 409 490
#     4  12  24  47  74 106 154 197 262 324 396 470
#     4  12  25  48  81 114 152 212 264 343 403 486
#     4  10  24  44  67 105 157 203 262 319 397 468
#     4  12  24  45  78 115 157 203 275 327 400 480
#     4  10  24  45  67 110 155 204 264 319 397 472
#     4  10  23  43  65 105 150 201 257 302 392 465
#
# _framework density 25.125671000000001
#
# number of rings (size 3 to 8) (size 9 to 14) (size 15 to 20)
#    0.923    0.000    3.846    3.000    2.154    5.538 
#    0.000    0.000    0.000    0.923    0.000    0.000 
#    0.000    0.000    0.000    0.000    0.000    0.000 
#
# Total GULP energy -289793.217362 kJ/mol
# GULP energy per Si atom -5572.946488 kJ/mol
# Density = 2.506848 g / cm^3
# Si number density = 25.125671 Si / 1000 Ang^3
#
#
#
# Elastic Constant Matrix: (Units=GPa)
#
#
# Indices 1 2 3 4 5 6 
#
# 1 66.7432 40.3957 35.5838 0.0000 0.0000 0.0000
# 2 40.3957 121.0950 49.7919 0.0000 0.0000 0.0000
# 3 35.5838 49.7919 215.1328 0.0000 0.0000 0.0000
# 4 0.0000 0.0000 0.0000 62.7720 0.0000 0.0000
# 5 0.0000 0.0000 0.0000 0.0000 67.2205 0.0000
# 6 0.0000 0.0000 0.0000 0.0000 0.0000 22.4396
#
#
#
# Elastic Compliance Matrix: (Units=1/GPa)
#
#
# Indices 1 2 3 4 5 6 
#
# 1 0.019448 -0.005708 -0.001896 0.000000 0.000000 0.000000
# 2 -0.005708 0.010802 -0.001556 0.000000 0.000000 0.000000
# 3 -0.001896 -0.001556 0.005322 0.000000 0.000000 0.000000
# 4 0.000000 0.000000 0.000000 0.015931 0.000000 0.000000
# 5 0.000000 0.000000 0.000000 0.000000 0.014876 0.000000
# 6 0.000000 0.000000 0.000000 0.000000 0.000000 0.044564
#
#
# Mechanical properties :
#
#
# Convention : Reuss Voigt Hill
#
# Bulk Modulus (GPa) = 57.96240 72.72374 65.34307
# Shear Modulus (GPa) = 37.03326 48.96641 42.99984
#
# Velocity S-wave (km/s) = 3.84333 4.41938 4.14138
# Velocity P-wave (km/s) = 6.54324 7.41944 6.99507
#
# Compressibility (1/GPa) = 0.01725256
#
# Stress axis : x y z
#
# Youngs Moduli (GPa) = 51.41835 92.57607 187.90092
#
# Poissons Ratio (x) = 0.52845 0.35620
# Poissons Ratio (y) = 0.29351 0.29236
# Poissons Ratio (z) = 0.09747 0.14404
#
# Static dielectric constant tensor:
#      x y z
#    x 2.052310 0.000000 0.000000 
#    y 0.000000 1.927150 0.000000 
#    z 0.000000 0.000000 2.432140 
# 
# From -- ./inp_files/58568.got.cif
#   From: 2010.05.17/outbox.cif.g08.bks.cpg/sg63_30_cif.got.tgz:58568.got - 2010.06.03 15:47:04.
