data_PCOD9475847
_publ_section_title
;
Structure prediction by ZEFSAII (Michael W. Deem and Ramdas Pophale) SiO2 
 PCOD9475847
Probable space group: C M C M
;
_chemical_formula_sum "Si O2"
_cell_formula_units_Z 48
_cell_length_a 10.193340
_cell_length_b 10.178726
_cell_length_c 23.575389
_cell_angle_alpha 90.000000
_cell_angle_beta 90.000000
_cell_angle_gamma 90.000000
_cell_volume 2446.069552
_symmetry_space_group_name_H-M "C M C M"
_symmetry_group_IT_number 63
_symmetry_cell_setting 'orthorhombic'
loop_
_space_group_symop_operation_xyz
x,y,z
-x,-y,1/2+z
x,-y,-z
-x,y,1/2-z
-x,-y,-z
x,y,1/2-z
-x,y,z
x,-y,1/2+z
1/2+x,1/2+y,z
1/2-x,1/2-y,1/2+z
1/2+x,1/2-y,-z
1/2-x,1/2+y,1/2-z
1/2-x,1/2-y,-z
1/2+x,1/2+y,1/2-z
1/2-x,1/2+y,z
1/2+x,1/2-y,1/2+z
loop_
_atom_site_type_symbol
_atom_site_label
_atom_site_fract_x
_atom_site_fract_y
_atom_site_fract_z
Si Si1 0.500000 0.644572 0.473104
Si Si2 0.500000 0.895894 0.949312
Si Si3 0.732839 0.366104 0.884269
Si Si4 0.154371 0.875611 0.183109
O O1 0.500000 0.500000 0.500000
O O2 0.500000 0.751561 0.522623
O O3 0.372599 0.660461 0.433543
O O4 0.369354 0.910257 0.912483
O O5 0.500000 0.000000 0.000000
O O6 0.761813 0.235624 0.848312
O O7 0.680971 0.483590 0.844997
O O8 0.183286 0.878795 0.250000
O O9 0.000000 0.843710 0.175870
#
# Coordination Sequence:
#
# PCOD9475847 Si02
#       4
#     8   8  16  16
#     4  12  24  42  67  98 135 178 218 268 330 394
#     4  12  24  40  63 100 133 170 222 272 316 392
#     4  12  23  45  68  99 134 174 222 269 333 389
#     4  11  24  45  69  99 134 173 219 277 334 389
#
# _framework density 19.623318000000001
#
# number of rings (size 3 to 8) (size 9 to 14) (size 15 to 20)
#    0.000    0.333    3.333    7.000    0.000    0.000 
#    0.000    1.667    0.000    0.000    0.000    0.000 
#    0.000    0.000    0.000    0.000    0.000    0.000 
#
# Total GULP energy -134416.993836 kJ/mol
# GULP energy per Si atom -5600.708076 kJ/mol
# Density = 1.957865 g / cm^3
# Si number density = 19.623318 Si / 1000 Ang^3
#
#
#
# Elastic Constant Matrix: (Units=GPa)
#
#
# Indices 1 2 3 4 5 6 
#
# 1 99.7307 -21.8045 28.6550 0.0000 0.0000 0.0000
# 2 -21.8045 83.7905 11.9696 0.0000 0.0000 0.0000
# 3 28.6550 11.9696 87.9349 0.0000 0.0000 0.0000
# 4 0.0000 0.0000 0.0000 32.1710 0.0000 0.0000
# 5 0.0000 0.0000 0.0000 0.0000 49.4963 0.0000
# 6 0.0000 0.0000 0.0000 0.0000 0.0000 37.6621
#
#
#
# Elastic Compliance Matrix: (Units=1/GPa)
#
#
# Indices 1 2 3 4 5 6 
#
# 1 0.012143 0.003799 -0.004474 0.000000 0.000000 0.000000
# 2 0.003799 0.013360 -0.003057 0.000000 0.000000 0.000000
# 3 -0.004474 -0.003057 0.013246 0.000000 0.000000 0.000000
# 4 0.000000 0.000000 0.000000 0.031084 0.000000 0.000000
# 5 0.000000 0.000000 0.000000 0.000000 0.020204 0.000000
# 6 0.000000 0.000000 0.000000 0.000000 0.000000 0.026552
#
#
# Mechanical properties :
#
#
# Convention : Reuss Voigt Hill
#
# Bulk Modulus (GPa) = 31.96331 34.34402 33.15367
# Shear Modulus (GPa) = 37.18022 40.70829 38.94425
#
# Velocity S-wave (km/s) = 4.35753 4.55959 4.45971
# Velocity P-wave (km/s) = 6.45300 6.72752 6.59169
#
# Compressibility (1/GPa) = 0.03128587
#
# Stress axis : x y z
#
# Youngs Moduli (GPa) = 82.35093 74.85150 75.49405
#
# Poissons Ratio (x) = -0.28437 0.33777
# Poissons Ratio (y) = -0.31286 0.23075
# Poissons Ratio (z) = 0.36845 0.22878
#
# Static dielectric constant tensor:
#      x y z
#    x 1.667300 0.000000 0.000000 
#    y 0.000000 1.624050 0.000000 
#    z 0.000000 0.000000 1.655910 
# 
# From -- ./inp_files/58886.got.cif
#   From: 2010.05.17/outbox.cif.g08.bks.cpg/sg63_30_cif.got.tgz:58886.got - 2010.06.03 15:47:04.
