data_PCOD9475306
_publ_section_title
;
Structure prediction by ZEFSAII (Michael W. Deem and Ramdas Pophale) SiO2 
 PCOD9475306
Probable space group: C M C M
;
_chemical_formula_sum "Si O2"
_cell_formula_units_Z 52
_cell_length_a 17.159453
_cell_length_b 9.799728
_cell_length_c 16.590578
_cell_angle_alpha 90.000000
_cell_angle_beta 90.000000
_cell_angle_gamma 90.000000
_cell_volume 2789.837951
_symmetry_space_group_name_H-M "C M C M"
_symmetry_group_IT_number 63
_symmetry_cell_setting 'orthorhombic'
loop_
_space_group_symop_operation_xyz
x,y,z
-x,-y,1/2+z
x,-y,-z
-x,y,1/2-z
-x,-y,-z
x,y,1/2-z
-x,y,z
x,-y,1/2+z
1/2+x,1/2+y,z
1/2-x,1/2-y,1/2+z
1/2+x,1/2-y,-z
1/2-x,1/2+y,1/2-z
1/2-x,1/2-y,-z
1/2+x,1/2+y,1/2-z
1/2-x,1/2+y,z
1/2+x,1/2-y,1/2+z
loop_
_atom_site_type_symbol
_atom_site_label
_atom_site_fract_x
_atom_site_fract_y
_atom_site_fract_z
Si Si1 0.500000 0.502198 0.250000
Si Si2 0.835046 0.673766 0.918420
Si Si3 0.088605 0.263733 0.750000
Si Si4 0.500000 0.231061 0.658722
Si Si5 0.695687 0.136124 0.394555
O O1 0.426945 0.399439 0.250000
O O2 0.500000 0.605313 0.174620
O O3 0.779409 0.792516 0.885047
O O4 0.800945 0.527371 0.892039
O O5 0.922245 0.687829 0.886524
O O6 0.832952 0.676147 0.015597
O O7 0.136081 0.310465 0.672137
O O8 0.000000 0.320691 0.750000
O O9 0.500000 0.173427 0.750000
#
# Coordination Sequence:
#
# PCOD9475306 Si02
#       5
#     4  16   8   8  16
#     4   8  24  40  56 102 126 160 214 252 314 376
#     4  10  24  43  65  94 128 166 211 260 316 376
#     4  10  24  38  64  92 128 164 212 256 312 374
#     4  10  24  39  65  91 127 161 214 258 310 368
#     4  10  24  41  66  93 130 165 211 258 320 373
#
# _framework density 18.639077
#
# number of rings (size 3 to 8) (size 9 to 14) (size 15 to 20)
#    0.923    1.231    0.000    0.000   12.923    1.231 
#    0.000    1.538    0.000    0.000    0.000    0.000 
#    0.000    0.000    0.000    0.000    0.000    0.000 
#
# Total GULP energy -145038.779774 kJ/mol
# GULP energy per Si atom -5578.414607 kJ/mol
# Density = 1.859665 g / cm^3
# Si number density = 18.639077 Si / 1000 Ang^3
#
#
#
# Elastic Constant Matrix: (Units=GPa)
#
#
# Indices 1 2 3 4 5 6 
#
# 1 173.0225 62.4947 59.7170 0.0000 0.0000 0.0000
# 2 62.4947 119.0987 43.5315 0.0000 0.0000 0.0000
# 3 59.7170 43.5315 48.3400 0.0000 0.0000 0.0000
# 4 0.0000 0.0000 0.0000 19.1510 0.0000 0.0000
# 5 0.0000 0.0000 0.0000 0.0000 31.7446 0.0000
# 6 0.0000 0.0000 0.0000 0.0000 0.0000 33.3711
#
#
#
# Elastic Compliance Matrix: (Units=1/GPa)
#
#
# Indices 1 2 3 4 5 6 
#
# 1 0.010173 -0.001110 -0.011568 0.000000 0.000000 0.000000
# 2 -0.001110 0.012637 -0.010009 0.000000 0.000000 0.000000
# 3 -0.011568 -0.010009 0.043990 0.000000 0.000000 0.000000
# 4 0.000000 0.000000 0.000000 0.052217 0.000000 0.000000
# 5 0.000000 0.000000 0.000000 0.000000 0.031501 0.000000
# 6 0.000000 0.000000 0.000000 0.000000 0.000000 0.029966
#
#
# Mechanical properties :
#
#
# Convention : Reuss Voigt Hill
#
# Bulk Modulus (GPa) = 46.66946 74.66086 60.66516
# Shear Modulus (GPa) = 21.45927 28.50123 24.98025
#
# Velocity S-wave (km/s) = 3.39677 3.91463 3.66486
# Velocity P-wave (km/s) = 6.36215 7.78302 7.10818
#
# Compressibility (1/GPa) = 0.02142729
#
# Stress axis : x y z
#
# Youngs Moduli (GPa) = 98.29984 79.13164 22.73240
#
# Poissons Ratio (x) = 0.08784 0.26296
# Poissons Ratio (y) = 0.10911 0.22753
# Poissons Ratio (z) = 1.13709 0.79202
#
# Static dielectric constant tensor:
#      x y z
#    x 1.601580 0.000000 0.000000 
#    y 0.000000 1.660400 0.000000 
#    z 0.000000 0.000000 1.637400 
# 
# From -- ./inp_files/44935.got.cif
#   From: 2010.05.17/outbox.cif.g08.bks.cpg/sg63_23_cif.got.tgz:44935.got - 2010.06.03 15:47:04.
