data_PCOD9475933
_publ_section_title
;
Structure prediction by ZEFSAII (Michael W. Deem and Ramdas Pophale) SiO2 
 PCOD9475933
Probable space group: C M C M
;
_chemical_formula_sum "Si O2"
_cell_formula_units_Z 72
_cell_length_a 27.798129
_cell_length_b 14.436139
_cell_length_c 9.409332
_cell_angle_alpha 90.000000
_cell_angle_beta 90.000000
_cell_angle_gamma 90.000000
_cell_volume 3775.942859
_symmetry_space_group_name_H-M "C M C M"
_symmetry_group_IT_number 63
_symmetry_cell_setting 'orthorhombic'
loop_
_space_group_symop_operation_xyz
x,y,z
-x,-y,1/2+z
x,-y,-z
-x,y,1/2-z
-x,-y,-z
x,y,1/2-z
-x,y,z
x,-y,1/2+z
1/2+x,1/2+y,z
1/2-x,1/2-y,1/2+z
1/2+x,1/2-y,-z
1/2-x,1/2+y,1/2-z
1/2-x,1/2-y,-z
1/2+x,1/2+y,1/2-z
1/2-x,1/2+y,z
1/2+x,1/2-y,1/2+z
loop_
_atom_site_type_symbol
_atom_site_label
_atom_site_fract_x
_atom_site_fract_y
_atom_site_fract_z
Si Si1 0.890184 0.587861 0.420395
Si Si2 0.783291 0.627229 0.409838
Si Si3 0.694482 0.347182 0.090932
Si Si4 0.086384 0.199269 0.578823
Si Si5 0.500000 0.598911 0.421716
O O1 0.912605 0.500000 0.500000
O O2 0.890403 0.573893 0.250000
O O3 0.834448 0.595260 0.470242
O O4 0.912064 0.689693 0.445589
O O5 0.778843 0.591285 0.250000
O O6 0.735119 0.607288 0.495144
O O7 0.790326 0.738641 0.401392
O O8 0.696029 0.385570 0.250000
O O9 0.638968 0.343658 0.043944
O O10 0.078553 0.185695 0.750000
O O11 0.046320 0.152968 0.482194
O O12 0.500000 0.500000 0.500000
O O13 0.500000 0.591409 0.250000
#
# Coordination Sequence:
#
# PCOD9475933 Si02
#       5
#    16  16  16  16   8
#     4   9  18  32  52  80 116 156 192 226 267 319
#     4   8  14  25  42  69 106 145 183 221 261 305
#     4   8  14  26  47  73 101 138 181 222 266 314
#     4   9  19  38  60  82 112 147 183 229 283 331
#     4  12  26  44  67  90 107 130 171 224 284 344
#
# _framework density 19.068083999999999
#
# number of rings (size 3 to 8) (size 9 to 14) (size 15 to 20)
#    0.000    3.111    0.000    3.667    0.000    2.667 
#    0.000    6.111    0.000    2.667    0.000    0.000 
#    0.000    0.000    0.000    0.000    0.000    0.000 
#
# Total GULP energy -200542.859710 kJ/mol
# GULP energy per Si atom -5570.634992 kJ/mol
# Density = 1.902468 g / cm^3
# Si number density = 19.068084 Si / 1000 Ang^3
#
#
#
# Elastic Constant Matrix: (Units=GPa)
#
#
# Indices 1 2 3 4 5 6 
#
# 1 123.0801 43.0163 75.5873 0.0000 0.0000 0.0000
# 2 43.0163 94.1212 51.6851 0.0000 0.0000 0.0000
# 3 75.5873 51.6851 75.7671 0.0000 0.0000 0.0000
# 4 0.0000 0.0000 0.0000 23.2030 0.0000 0.0000
# 5 0.0000 0.0000 0.0000 0.0000 33.8478 0.0000
# 6 0.0000 0.0000 0.0000 0.0000 0.0000 1.7392
#
#
#
# Elastic Compliance Matrix: (Units=1/GPa)
#
#
# Indices 1 2 3 4 5 6 
#
# 1 0.021537 0.003127 -0.023619 0.000000 0.000000 0.000000
# 2 0.003127 0.017442 -0.015018 0.000000 0.000000 0.000000
# 3 -0.023619 -0.015018 0.047006 0.000000 0.000000 0.000000
# 4 0.000000 0.000000 0.000000 0.043098 0.000000 0.000000
# 5 0.000000 0.000000 0.000000 0.000000 0.029544 0.000000
# 6 0.000000 0.000000 0.000000 0.000000 0.000000 0.574963
#
#
# Mechanical properties :
#
#
# Convention : Reuss Voigt Hill
#
# Bulk Modulus (GPa) = 66.82136 70.39398 68.60767
# Shear Modulus (GPa) = 6.17590 19.93665 13.05627
#
# Velocity S-wave (km/s) = 1.80164 3.23701 2.61955
# Velocity P-wave (km/s) = 6.28073 7.13921 6.72368
#
# Compressibility (1/GPa) = 0.01496527
#
# Stress axis : x y z
#
# Youngs Moduli (GPa) = 46.43132 57.33183 21.27393
#
# Poissons Ratio (x) = -0.17927 0.50247
# Poissons Ratio (y) = -0.14518 0.31949
# Poissons Ratio (z) = 1.09667 0.86100
#
# Static dielectric constant tensor:
#      x y z
#    x 1.668170 0.000000 0.000000 
#    y 0.000000 1.696700 0.000000 
#    z 0.000000 0.000000 1.661110 
# 
# From -- ./inp_files/11726.got.cif
#   From: 2010.05.17/outbox.cif.g08.bks.cpg/sg63_6_cif.got.tgz:11726.got - 2010.06.03 15:47:04.
