data_PCOD9475467
_publ_section_title
;
Structure prediction by ZEFSAII (Michael W. Deem and Ramdas Pophale) SiO2 
 PCOD9475467
Probable space group: C M C M
;
_chemical_formula_sum "Si O2"
_cell_formula_units_Z 64
_cell_length_a 19.036661
_cell_length_b 19.358495
_cell_length_c 10.157638
_cell_angle_alpha 90.000000
_cell_angle_beta 90.000000
_cell_angle_gamma 90.000000
_cell_volume 3743.303998
_symmetry_space_group_name_H-M "C M C M"
_symmetry_group_IT_number 63
_symmetry_cell_setting 'orthorhombic'
loop_
_space_group_symop_operation_xyz
x,y,z
-x,-y,1/2+z
x,-y,-z
-x,y,1/2-z
-x,-y,-z
x,y,1/2-z
-x,y,z
x,-y,1/2+z
1/2+x,1/2+y,z
1/2-x,1/2-y,1/2+z
1/2+x,1/2-y,-z
1/2-x,1/2+y,1/2-z
1/2-x,1/2-y,-z
1/2+x,1/2+y,1/2-z
1/2-x,1/2+y,z
1/2+x,1/2-y,1/2+z
loop_
_atom_site_type_symbol
_atom_site_label
_atom_site_fract_x
_atom_site_fract_y
_atom_site_fract_z
Si Si1 0.000000 0.746120 0.969963
Si Si2 0.650062 0.441210 0.750000
Si Si3 0.646355 0.394046 0.250000
Si Si4 0.000000 0.135124 0.250000
Si Si5 0.500000 0.682488 0.750000
Si Si6 0.215177 0.147818 0.024510
Si Si7 0.153188 0.297386 0.097269
O O1 0.000000 0.771234 0.119574
O O2 0.071375 0.705408 0.938561
O O3 0.000000 0.813957 0.875892
O O4 0.647782 0.523362 0.750000
O O5 0.571003 0.409874 0.750000
O O6 0.690880 0.411647 0.876856
O O7 0.567838 0.365597 0.250000
O O8 0.682817 0.365507 0.381148
O O9 0.183296 0.219309 0.080990
O O10 0.298070 0.157692 0.999379
O O11 0.161313 0.317796 0.250000
#
# Coordination Sequence:
#
# PCOD9475467 Si02
#       7
#     8   8   8   4   4  16  16
#     4  12  20  34  59  82 117 149 182 233 293 345
#     4  12  23  38  57  78 116 162 196 233 271 340
#     4  12  23  38  53  80 120 158 194 227 277 330
#     4  12  19  38  52  80 112 160 199 208 272 360
#     4  12  23  34  48  92 120 152 193 228 262 344
#     4  11  22  36  56  83 107 151 195 239 283 334
#     4  11  20  36  60  80 113 147 189 242 296 343
#
# _framework density 17.097196
#
# number of rings (size 3 to 8) (size 9 to 14) (size 15 to 20)
#    0.000    0.500    8.750    1.125    0.000    1.000 
#    0.000    3.750    0.000    0.000    0.000    5.250 
#    0.000    0.000    0.000    0.000    0.000    0.000 
#
# Total GULP energy -178802.378814 kJ/mol
# GULP energy per Si atom -5587.574338 kJ/mol
# Density = 1.705828 g / cm^3
# Si number density = 17.097196 Si / 1000 Ang^3
#
#
#
# Elastic Constant Matrix: (Units=GPa)
#
#
# Indices 1 2 3 4 5 6 
#
# 1 145.9365 21.4817 16.2916 0.0000 0.0000 0.0000
# 2 21.4817 24.2946 3.4430 0.0000 0.0000 0.0000
# 3 16.2916 3.4430 97.1552 0.0000 0.0000 0.0000
# 4 0.0000 0.0000 0.0000 39.7059 0.0000 0.0000
# 5 0.0000 0.0000 0.0000 0.0000 -138.5219 0.0000
# 6 0.0000 0.0000 0.0000 0.0000 0.0000 -4.8902
#
#
#
# Elastic Compliance Matrix: (Units=1/GPa)
#
#
# Indices 1 2 3 4 5 6 
#
# 1 0.007992 -0.006911 -0.001095 0.000000 0.000000 0.000000
# 2 -0.006911 0.047346 -0.000519 0.000000 0.000000 0.000000
# 3 -0.001095 -0.000519 0.010495 0.000000 0.000000 0.000000
# 4 0.000000 0.000000 0.000000 0.025185 0.000000 0.000000
# 5 0.000000 0.000000 0.000000 0.000000 -0.007219 0.000000
# 6 0.000000 0.000000 0.000000 0.000000 0.000000 -0.204492
#
#
# Mechanical properties :
#
#
# Convention : Reuss Voigt Hill
#
# Bulk Modulus (GPa) = 20.49939 38.86877 29.68408
# Shear Modulus (GPa) = -57.22041 -5.66324 -31.44183
#
# Velocity S-wave (km/s) = -5.79140 -1.82197 -4.29301
# Velocity P-wave (km/s) = 5.71879 4.28454 2.67837
#
# Compressibility (1/GPa) = 0.04878194
#
# Stress axis : x y z
#
# Youngs Moduli (GPa) = 125.12656 21.12102 95.28485
#
# Poissons Ratio (x) = 0.14598 0.10436
# Poissons Ratio (y) = 0.86480 0.04944
# Poissons Ratio (z) = 0.13704 0.01096
#
# Static dielectric constant tensor:
#      x y z
#    x 1.592770 0.000000 0.000000 
#    y 0.000000 1.542700 0.000000 
#    z 0.000000 0.000000 1.576070 
# 
# From -- ./inp_files/5812.got.cif
#   From: 2010.05.17/outbox.cif.g08.bks.cpg/sg63_3_cif.got.tgz:5812.got - 2010.06.03 15:47:04.
