data_PCOD9475837
_publ_section_title
;
Structure prediction by ZEFSAII (Michael W. Deem and Ramdas Pophale) SiO2 
 PCOD9475837
Probable space group: C M C M
;
_chemical_formula_sum "Si O2"
_cell_formula_units_Z 64
_cell_length_a 17.752157
_cell_length_b 7.527217
_cell_length_c 19.557349
_cell_angle_alpha 90.000000
_cell_angle_beta 90.000000
_cell_angle_gamma 90.000000
_cell_volume 2613.337812
_symmetry_space_group_name_H-M "C M C M"
_symmetry_group_IT_number 63
_symmetry_cell_setting 'orthorhombic'
loop_
_space_group_symop_operation_xyz
x,y,z
-x,-y,1/2+z
x,-y,-z
-x,y,1/2-z
-x,-y,-z
x,y,1/2-z
-x,y,z
x,-y,1/2+z
1/2+x,1/2+y,z
1/2-x,1/2-y,1/2+z
1/2+x,1/2-y,-z
1/2-x,1/2+y,1/2-z
1/2-x,1/2-y,-z
1/2+x,1/2+y,1/2-z
1/2-x,1/2+y,z
1/2+x,1/2-y,1/2+z
loop_
_atom_site_type_symbol
_atom_site_label
_atom_site_fract_x
_atom_site_fract_y
_atom_site_fract_z
Si Si1 0.585957 0.828208 0.138868
Si Si2 0.702665 0.129199 0.328762
Si Si3 0.919102 0.911896 0.170228
Si Si4 0.313584 0.338365 0.545004
O O1 0.500000 0.892363 0.143938
O O2 0.646412 0.960654 0.171588
O O3 0.586692 0.625236 0.166482
O O4 0.619424 0.795443 0.063440
O O5 0.729851 0.155837 0.250000
O O6 0.650328 0.292941 0.353316
O O7 0.768328 0.112043 0.384833
O O8 0.922361 0.865144 0.250000
O O9 0.000000 0.864996 0.137773
O O10 0.343948 0.500000 0.500000
O O11 0.250000 0.250000 0.500000
#
# Coordination Sequence:
#
# PCOD9475837 Si02
#       4
#    16  16  16  16
#     4  11  24  44  72 104 140 186 239 296 361 431
#     4  11  24  43  72 106 142 188 241 297 362 427
#     4   9  19  37  63 100 142 178 222 287 355 420
#     4  12  25  48  69  98 147 190 236 298 355 429
#
# _framework density 24.489754000000001
#
# number of rings (size 3 to 8) (size 9 to 14) (size 15 to 20)
#    0.000    1.250    2.500    3.000    0.000    5.000 
#    0.000    3.750    0.000    0.000    0.000    0.000 
#    0.000    0.000    0.000    0.000    0.000    0.000 
#
# Total GULP energy -178827.482088 kJ/mol
# GULP energy per Si atom -5588.358815 kJ/mol
# Density = 2.443401 g / cm^3
# Si number density = 24.489754 Si / 1000 Ang^3
#
#
#
# Elastic Constant Matrix: (Units=GPa)
#
#
# Indices 1 2 3 4 5 6 
#
# 1 114.5701 25.7026 43.8222 0.0000 0.0000 0.0000
# 2 25.7026 100.3873 13.5029 0.0000 0.0000 0.0000
# 3 43.8222 13.5029 98.3469 0.0000 0.0000 0.0000
# 4 0.0000 0.0000 0.0000 40.6359 0.0000 0.0000
# 5 0.0000 0.0000 0.0000 0.0000 3.2528 0.0000
# 6 0.0000 0.0000 0.0000 0.0000 0.0000 2.3706
#
#
#
# Elastic Compliance Matrix: (Units=1/GPa)
#
#
# Indices 1 2 3 4 5 6 
#
# 1 0.010976 -0.002193 -0.004590 0.000000 0.000000 0.000000
# 2 -0.002193 0.010587 -0.000476 0.000000 0.000000 0.000000
# 3 -0.004590 -0.000476 0.012279 0.000000 0.000000 0.000000
# 4 0.000000 0.000000 0.000000 0.024609 0.000000 0.000000
# 5 0.000000 0.000000 0.000000 0.000000 0.307425 0.000000
# 6 0.000000 0.000000 0.000000 0.000000 0.000000 0.421835
#
#
# Mechanical properties :
#
#
# Convention : Reuss Voigt Hill
#
# Bulk Modulus (GPa) = 51.75054 53.26220 52.50637
# Shear Modulus (GPa) = 6.18300 24.60364 15.39332
#
# Velocity S-wave (km/s) = 1.59066 3.17306 2.50983
# Velocity P-wave (km/s) = 4.95490 5.93468 5.46678
#
# Compressibility (1/GPa) = 0.01932347
#
# Stress axis : x y z
#
# Youngs Moduli (GPa) = 91.11039 94.45592 81.44271
#
# Poissons Ratio (x) = 0.20712 0.37379
# Poissons Ratio (y) = 0.19979 0.03881
# Poissons Ratio (z) = 0.41816 0.04501
#
# Static dielectric constant tensor:
#      x y z
#    x 1.988860 0.000000 0.000000 
#    y 0.000000 1.647910 0.000000 
#    z 0.000000 0.000000 1.965890 
# 
# From -- ./inp_files/55004.got.cif
#   From: 2010.05.17/outbox.cif.g08.bks.cpg/sg63_28_cif.got.tgz:55004.got - 2010.06.03 15:47:04.
