data_PCOD9475036
_publ_section_title
;
Structure prediction by ZEFSAII (Michael W. Deem and Ramdas Pophale) SiO2 
 PCOD9475036
Probable space group: C M C M
;
_chemical_formula_sum "Si O2"
_cell_formula_units_Z 48
_cell_length_a 10.750295
_cell_length_b 14.396003
_cell_length_c 14.015803
_cell_angle_alpha 90.000000
_cell_angle_beta 90.000000
_cell_angle_gamma 90.000000
_cell_volume 2169.103599
_symmetry_space_group_name_H-M "C M C M"
_symmetry_group_IT_number 63
_symmetry_cell_setting 'orthorhombic'
loop_
_space_group_symop_operation_xyz
x,y,z
-x,-y,1/2+z
x,-y,-z
-x,y,1/2-z
-x,-y,-z
x,y,1/2-z
-x,y,z
x,-y,1/2+z
1/2+x,1/2+y,z
1/2-x,1/2-y,1/2+z
1/2+x,1/2-y,-z
1/2-x,1/2+y,1/2-z
1/2-x,1/2-y,-z
1/2+x,1/2+y,1/2-z
1/2-x,1/2+y,z
1/2+x,1/2-y,1/2+z
loop_
_atom_site_type_symbol
_atom_site_label
_atom_site_fract_x
_atom_site_fract_y
_atom_site_fract_z
Si Si1 0.229214 0.327139 0.140578
Si Si2 0.862211 0.465438 0.861518
Si Si3 0.364033 0.643971 0.046507
O O1 0.267904 0.313372 0.250000
O O2 0.154338 0.423612 0.135105
O O3 0.149649 0.240308 0.103710
O O4 0.341113 0.335625 0.064962
O O5 0.852698 0.438289 0.750000
O O6 0.749698 0.418996 0.917864
O O7 0.000000 0.438953 0.896530
O O8 0.500000 0.602791 0.063447
#
# Coordination Sequence:
#
# PCOD9475036 Si02
#       3
#    16  16  16
#     4  10  23  42  63  88 123 167 209 249 302 370
#     4  10  22  41  65  92 124 165 209 250 299 366
#     4  11  24  41  64  95 127 159 202 259 314 361
#
# _framework density 22.128957
#
# number of rings (size 3 to 8) (size 9 to 14) (size 15 to 20)
#    0.000    1.667    0.000    3.000    0.000   15.333 
#    0.000    3.333    0.000    0.000    0.000    0.000 
#    0.000    0.000    0.000    0.000    0.000    0.000 
#
# Total GULP energy -134251.787701 kJ/mol
# GULP energy per Si atom -5593.824488 kJ/mol
# Density = 2.207859 g / cm^3
# Si number density = 22.128957 Si / 1000 Ang^3
#
#
#
# Elastic Constant Matrix: (Units=GPa)
#
#
# Indices 1 2 3 4 5 6 
#
# 1 172.7692 61.9920 70.6521 0.0000 0.0000 0.0000
# 2 61.9920 86.9649 41.3171 0.0000 0.0000 0.0000
# 3 70.6521 41.3171 173.4980 0.0000 0.0000 0.0000
# 4 0.0000 0.0000 0.0000 35.1413 0.0000 0.0000
# 5 0.0000 0.0000 0.0000 0.0000 7.0585 0.0000
# 6 0.0000 0.0000 0.0000 0.0000 0.0000 -27.2172
#
#
#
# Elastic Compliance Matrix: (Units=1/GPa)
#
#
# Indices 1 2 3 4 5 6 
#
# 1 0.008507 -0.004982 -0.002278 0.000000 0.000000 0.000000
# 2 -0.004982 0.015883 -0.001754 0.000000 0.000000 0.000000
# 3 -0.002278 -0.001754 0.007109 0.000000 0.000000 0.000000
# 4 0.000000 0.000000 0.000000 0.028457 0.000000 0.000000
# 5 0.000000 0.000000 0.000000 0.000000 0.141673 0.000000
# 6 0.000000 0.000000 0.000000 0.000000 0.000000 -0.036741
#
#
# Mechanical properties :
#
#
# Convention : Reuss Voigt Hill
#
# Bulk Modulus (GPa) = 74.22594 86.79495 80.51045
# Shear Modulus (GPa) = 26.68000 20.28125 23.48063
#
# Velocity S-wave (km/s) = 3.47603 3.03066 3.26096
# Velocity P-wave (km/s) = 7.05164 7.18012 7.11617
#
# Compressibility (1/GPa) = 0.01347238
#
# Stress axis : x y z
#
# Youngs Moduli (GPa) = 117.54721 62.95844 140.66694
#
# Poissons Ratio (x) = 0.31366 0.32042
# Poissons Ratio (y) = 0.58563 0.24669
# Poissons Ratio (z) = 0.26776 0.11041
#
# Static dielectric constant tensor:
#      x y z
#    x 1.789990 0.000000 0.000000 
#    y 0.000000 1.814940 0.000000 
#    z 0.000000 0.000000 1.831120 
# 
# From -- ./inp_files/26933.got.cif
#   From: 2010.05.17/outbox.cif.g08.bks.cpg/sg63_14_cif.got.tgz:26933.got - 2010.06.03 15:47:04.
