data_PCOD9475455
_publ_section_title
;
Structure prediction by ZEFSAII (Michael W. Deem and Ramdas Pophale) SiO2 
 PCOD9475455
Probable space group: C M C M
;
_chemical_formula_sum "Si O2"
_cell_formula_units_Z 48
_cell_length_a 12.959560
_cell_length_b 7.057738
_cell_length_c 22.054080
_cell_angle_alpha 90.000000
_cell_angle_beta 90.000000
_cell_angle_gamma 90.000000
_cell_volume 2017.180377
_symmetry_space_group_name_H-M "C M C M"
_symmetry_group_IT_number 63
_symmetry_cell_setting 'orthorhombic'
loop_
_space_group_symop_operation_xyz
x,y,z
-x,-y,1/2+z
x,-y,-z
-x,y,1/2-z
-x,-y,-z
x,y,1/2-z
-x,y,z
x,-y,1/2+z
1/2+x,1/2+y,z
1/2-x,1/2-y,1/2+z
1/2+x,1/2-y,-z
1/2-x,1/2+y,1/2-z
1/2-x,1/2-y,-z
1/2+x,1/2+y,1/2-z
1/2-x,1/2+y,z
1/2+x,1/2-y,1/2+z
loop_
_atom_site_type_symbol
_atom_site_label
_atom_site_fract_x
_atom_site_fract_y
_atom_site_fract_z
Si Si1 0.000000 0.658431 0.412599
Si Si2 0.888573 0.122873 0.345840
Si Si3 0.000000 0.778604 0.956271
Si Si4 0.341656 0.947575 0.817295
O O1 0.000000 0.444335 0.438713
O O2 0.000000 0.790783 0.471672
O O3 0.100190 0.670112 0.369485
O O4 0.883494 0.338756 0.321897
O O5 0.000000 0.042988 0.325409
O O6 0.902457 0.139541 0.418880
O O7 0.780732 0.036331 0.327281
O O8 0.361629 0.871667 0.750000
#
# Coordination Sequence:
#
# PCOD9475455 Si02
#       4
#     8  16   8  16
#     4   9  17  32  57  82 106 142 189 218 269 332
#     4   9  21  39  57  81 110 144 184 225 272 319
#     4   7  16  36  55  78 105 145 183 224 271 311
#     4  11  20  34  58  82 112 148 177 224 278 323
#
# _framework density 23.795591999999999
#
# number of rings (size 3 to 8) (size 9 to 14) (size 15 to 20)
#    1.000    1.667    1.667    1.500    0.000    3.333 
#    3.000    0.000    0.000    2.000    0.000    0.000 
#    0.000    0.000    0.000    0.000    0.000    0.000 
#
# Total GULP energy -133994.379888 kJ/mol
# GULP energy per Si atom -5583.099162 kJ/mol
# Density = 2.374143 g / cm^3
# Si number density = 23.795592 Si / 1000 Ang^3
#
#
#
# Elastic Constant Matrix: (Units=GPa)
#
#
# Indices 1 2 3 4 5 6 
#
# 1 183.6686 19.2351 66.9000 0.0000 0.0000 0.0000
# 2 19.2351 41.5543 23.4763 0.0000 0.0000 0.0000
# 3 66.9000 23.4763 219.6130 0.0000 0.0000 0.0000
# 4 0.0000 0.0000 0.0000 22.8926 0.0000 0.0000
# 5 0.0000 0.0000 0.0000 0.0000 18.6593 0.0000
# 6 0.0000 0.0000 0.0000 0.0000 0.0000 36.4015
#
#
#
# Elastic Compliance Matrix: (Units=1/GPa)
#
#
# Indices 1 2 3 4 5 6 
#
# 1 0.006268 -0.001940 -0.001702 0.000000 0.000000 0.000000
# 2 -0.001940 0.026212 -0.002211 0.000000 0.000000 0.000000
# 3 -0.001702 -0.002211 0.005308 0.000000 0.000000 0.000000
# 4 0.000000 0.000000 0.000000 0.043682 0.000000 0.000000
# 5 0.000000 0.000000 0.000000 0.000000 0.053593 0.000000
# 6 0.000000 0.000000 0.000000 0.000000 0.000000 0.027471
#
#
# Mechanical properties :
#
#
# Convention : Reuss Voigt Hill
#
# Bulk Modulus (GPa) = 38.34015 73.78431 56.06223
# Shear Modulus (GPa) = 27.33227 37.93896 32.63562
#
# Velocity S-wave (km/s) = 3.39282 3.99729 3.70739
# Velocity P-wave (km/s) = 5.61209 7.23735 6.47591
#
# Compressibility (1/GPa) = 0.02608232
#
# Stress axis : x y z
#
# Youngs Moduli (GPa) = 159.54948 38.15051 188.38466
#
# Poissons Ratio (x) = 0.07400 0.32062
# Poissons Ratio (y) = 0.30948 0.41654
# Poissons Ratio (z) = 0.27154 0.08436
#
# Static dielectric constant tensor:
#      x y z
#    x 1.845130 0.000000 0.000000 
#    y 0.000000 2.010650 0.000000 
#    z 0.000000 0.000000 1.912990 
# 
# From -- ./inp_files/53567.got.cif
#   From: 2010.05.17/outbox.cif.g08.bks.cpg/sg63_27_cif.got.tgz:53567.got - 2010.06.03 15:47:04.
