data_PCOD9475188
_publ_section_title
;
Structure prediction by ZEFSAII (Michael W. Deem and Ramdas Pophale) SiO2 
 PCOD9475188
Probable space group: C M C M
;
_chemical_formula_sum "Si O2"
_cell_formula_units_Z 64
_cell_length_a 20.256946
_cell_length_b 12.051310
_cell_length_c 13.724077
_cell_angle_alpha 90.000000
_cell_angle_beta 90.000000
_cell_angle_gamma 90.000000
_cell_volume 3350.359225
_symmetry_space_group_name_H-M "C M C M"
_symmetry_group_IT_number 63
_symmetry_cell_setting 'orthorhombic'
loop_
_space_group_symop_operation_xyz
x,y,z
-x,-y,1/2+z
x,-y,-z
-x,y,1/2-z
-x,-y,-z
x,y,1/2-z
-x,y,z
x,-y,1/2+z
1/2+x,1/2+y,z
1/2-x,1/2-y,1/2+z
1/2+x,1/2-y,-z
1/2-x,1/2+y,1/2-z
1/2-x,1/2-y,-z
1/2+x,1/2+y,1/2-z
1/2-x,1/2+y,z
1/2+x,1/2-y,1/2+z
loop_
_atom_site_type_symbol
_atom_site_label
_atom_site_fract_x
_atom_site_fract_y
_atom_site_fract_z
Si Si1 0.302027 0.193709 0.634047
Si Si2 0.078474 0.286483 0.634780
Si Si3 0.925935 0.460053 0.367789
Si Si4 0.824689 0.125265 0.520263
O O1 0.295428 0.204760 0.750000
O O2 0.368787 0.126493 0.610775
O O3 0.240119 0.129141 0.588312
O O4 0.305922 0.311330 0.579441
O O5 0.095468 0.278197 0.750000
O O6 0.090831 0.413977 0.602177
O O7 0.120205 0.198898 0.574031
O O8 0.000000 0.268037 0.625916
O O9 0.929487 0.465157 0.250000
O O10 0.000000 0.430020 0.401901
O O11 0.845498 0.000000 0.500000
#
# Coordination Sequence:
#
# PCOD9475188 Si02
#       4
#    16  16  16  16
#     4  10  23  40  60  85 119 157 197 249 303 354
#     4   9  19  38  64  91 120 155 197 248 300 350
#     4   8  16  34  62  91 114 144 192 246 299 345
#     4  11  25  39  57  86 121 159 204 240 293 361
#
# _framework density 19.102429999999998
#
# number of rings (size 3 to 8) (size 9 to 14) (size 15 to 20)
#    0.000    2.500    0.000    2.250    7.000    3.500 
#    0.000    2.500    0.000    3.000    0.000    0.000 
#    0.000    0.000    0.000    0.000    0.000    0.000 
#
# Total GULP energy -178777.256638 kJ/mol
# GULP energy per Si atom -5586.789270 kJ/mol
# Density = 1.905895 g / cm^3
# Si number density = 19.102430 Si / 1000 Ang^3
#
#
#
# Elastic Constant Matrix: (Units=GPa)
#
#
# Indices 1 2 3 4 5 6 
#
# 1 69.1404 46.7005 40.7037 0.0000 0.0000 0.0000
# 2 46.7005 100.3335 31.3884 0.0000 0.0000 0.0000
# 3 40.7037 31.3884 122.3421 0.0000 0.0000 0.0000
# 4 0.0000 0.0000 0.0000 21.1300 0.0000 0.0000
# 5 0.0000 0.0000 0.0000 0.0000 19.8422 0.0000
# 6 0.0000 0.0000 0.0000 0.0000 0.0000 -14.7627
#
#
#
# Elastic Compliance Matrix: (Units=1/GPa)
#
#
# Indices 1 2 3 4 5 6 
#
# 1 0.024182 -0.009501 -0.005608 0.000000 0.000000 0.000000
# 2 -0.009501 0.014570 -0.000577 0.000000 0.000000 0.000000
# 3 -0.005608 -0.000577 0.010188 0.000000 0.000000 0.000000
# 4 0.000000 0.000000 0.000000 0.047326 0.000000 0.000000
# 5 0.000000 0.000000 0.000000 0.000000 0.050398 0.000000
# 6 0.000000 0.000000 0.000000 0.000000 0.000000 -0.067738
#
#
# Mechanical properties :
#
#
# Convention : Reuss Voigt Hill
#
# Bulk Modulus (GPa) = 56.92379 58.82236 57.87308
# Shear Modulus (GPa) = 43.04670 16.77680 29.91175
#
# Velocity S-wave (km/s) = 4.75222 2.96675 3.96139
# Velocity P-wave (km/s) = 7.74438 6.52652 7.16138
#
# Compressibility (1/GPa) = 0.01756735
#
# Stress axis : x y z
#
# Youngs Moduli (GPa) = 41.35245 68.63569 98.15887
#
# Poissons Ratio (x) = 0.65213 0.55046
# Poissons Ratio (y) = 0.39290 0.05663
# Poissons Ratio (z) = 0.23190 0.03960
#
# Static dielectric constant tensor:
#      x y z
#    x 1.648530 0.000000 0.000000 
#    y 0.000000 1.622520 0.000000 
#    z 0.000000 0.000000 1.706530 
# 
# From -- ./inp_files/33346.got.cif
#   From: 2010.05.17/outbox.cif.g08.bks.cpg/sg63_17_cif.got.tgz:33346.got - 2010.06.03 15:47:04.
