data_PCOD9475980
_publ_section_title
;
Structure prediction by ZEFSAII (Michael W. Deem and Ramdas Pophale) SiO2 
 PCOD9475980
Probable space group: C M C M
;
_chemical_formula_sum "Si O2"
_cell_formula_units_Z 96
_cell_length_a 22.219218
_cell_length_b 21.873420
_cell_length_c 9.574296
_cell_angle_alpha 90.000000
_cell_angle_beta 90.000000
_cell_angle_gamma 90.000000
_cell_volume 4653.206350
_symmetry_space_group_name_H-M "C M C M"
_symmetry_group_IT_number 63
_symmetry_cell_setting 'orthorhombic'
loop_
_space_group_symop_operation_xyz
x,y,z
-x,-y,1/2+z
x,-y,-z
-x,y,1/2-z
-x,-y,-z
x,y,1/2-z
-x,y,z
x,-y,1/2+z
1/2+x,1/2+y,z
1/2-x,1/2-y,1/2+z
1/2+x,1/2-y,-z
1/2-x,1/2+y,1/2-z
1/2-x,1/2-y,-z
1/2+x,1/2+y,1/2-z
1/2-x,1/2+y,z
1/2+x,1/2-y,1/2+z
loop_
_atom_site_type_symbol
_atom_site_label
_atom_site_fract_x
_atom_site_fract_y
_atom_site_fract_z
Si Si1 0.573542 0.940471 0.410682
Si Si2 0.763351 0.191377 0.591290
Si Si3 0.761437 0.942443 0.412799
Si Si4 0.091967 0.058125 0.586409
Si Si5 0.571308 0.174250 0.409615
Si Si6 0.592433 0.308957 0.409898
O O1 0.593975 0.943110 0.250000
O O2 0.500000 0.939619 0.406987
O O3 0.594347 0.879343 0.490679
O O4 0.590626 0.000000 0.500000
O O5 0.740970 0.199063 0.750000
O O6 0.750000 0.250000 0.500000
O O7 0.742309 0.125075 0.536940
O O8 0.835592 0.187644 0.597213
O O9 0.745528 0.947952 0.250000
O O10 0.834755 0.943434 0.419070
O O11 0.739046 0.000000 0.500000
O O12 0.075710 0.053812 0.750000
O O13 0.072638 0.125288 0.531616
O O14 0.070287 0.000000 0.500000
O O15 0.596641 0.172546 0.250000
O O16 0.500000 0.163663 0.396659
O O17 0.578184 0.242607 0.471323
O O18 0.569490 0.306356 0.250000
#
# Coordination Sequence:
#
# PCOD9475980 Si02
#       6
#    16  16  16  16  16  16
#     4   9  16  26  41  62  87 112 139 175 216 253
#     4   9  17  29  44  63  87 113 140 172 211 253
#     4   8  14  24  39  59  81 104 133 170 207 241
#     4   8  13  23  39  58  80 106 136 170 206 241
#     4   9  16  27  45  66  85 110 145 178 209 252
#     4   8  15  28  44  62  87 115 139 170 214 255
#
# _framework density 20.630935000000001
#
# number of rings (size 3 to 8) (size 9 to 14) (size 15 to 20)
#    0.000    3.500    0.000    2.500    0.000    2.667 
#    0.000    4.167    0.000    1.500    0.000    2.333 
#    0.000    0.000    0.000    0.000    0.000    0.000 
#
# Total GULP energy -267393.642134 kJ/mol
# GULP energy per Si atom -5570.700878 kJ/mol
# Density = 2.058398 g / cm^3
# Si number density = 20.630935 Si / 1000 Ang^3
#
#
#
# Elastic Constant Matrix: (Units=GPa)
#
#
# Indices 1 2 3 4 5 6 
#
# 1 50.2668 6.3303 2.4461 0.0000 0.0000 0.0000
# 2 6.3303 271.6422 111.9843 0.0000 0.0000 0.0000
# 3 2.4461 111.9843 87.7077 0.0000 0.0000 0.0000
# 4 0.0000 0.0000 0.0000 36.8499 0.0000 0.0000
# 5 0.0000 0.0000 0.0000 0.0000 348.3923 0.0000
# 6 0.0000 0.0000 0.0000 0.0000 0.0000 17.1289
#
#
#
# Elastic Compliance Matrix: (Units=1/GPa)
#
#
# Indices 1 2 3 4 5 6 
#
# 1 0.019953 -0.000497 0.000079 0.000000 0.000000 0.000000
# 2 -0.000497 0.007785 -0.009926 0.000000 0.000000 0.000000
# 3 0.000079 -0.009926 0.024072 0.000000 0.000000 0.000000
# 4 0.000000 0.000000 0.000000 0.027137 0.000000 0.000000
# 5 0.000000 0.000000 0.000000 0.000000 0.002870 0.000000
# 6 0.000000 0.000000 0.000000 0.000000 0.000000 0.058381
#
#
# Mechanical properties :
#
#
# Convention : Reuss Voigt Hill
#
# Bulk Modulus (GPa) = 32.13285 72.34868 52.24076
# Shear Modulus (GPa) = 29.19531 99.73128 64.46330
#
# Velocity S-wave (km/s) = 3.76589 6.96029 5.59587
# Velocity P-wave (km/s) = 5.87522 9.98691 8.19318
#
# Compressibility (1/GPa) = 0.03112080
#
# Stress axis : x y z
#
# Youngs Moduli (GPa) = 50.11865 128.45674 41.54167
#
# Poissons Ratio (x) = 0.06389 -0.00326
# Poissons Ratio (y) = 0.02493 0.41233
# Poissons Ratio (z) = -0.00394 1.27501
#
# Static dielectric constant tensor:
#      x y z
#    x 1.807890 0.000000 0.000000 
#    y 0.000000 1.770520 0.000000 
#    z 0.000000 0.000000 1.710200 
# 
# From -- ./inp_files/12416.got.cif
#   From: 2010.05.17/outbox.cif.g08.bks.cpg/sg63_7_cif.got.tgz:12416.got - 2010.06.03 15:47:04.
