data_PCOD9475176
_publ_section_title
;
Structure prediction by ZEFSAII (Michael W. Deem and Ramdas Pophale) SiO2 
 PCOD9475176
Probable space group: C M C M
;
_chemical_formula_sum "Si O2"
_cell_formula_units_Z 96
_cell_length_a 14.512730
_cell_length_b 11.732540
_cell_length_c 28.795214
_cell_angle_alpha 90.000000
_cell_angle_beta 90.000000
_cell_angle_gamma 90.000000
_cell_volume 4902.995217
_symmetry_space_group_name_H-M "C M C M"
_symmetry_group_IT_number 63
_symmetry_cell_setting 'orthorhombic'
loop_
_space_group_symop_operation_xyz
x,y,z
-x,-y,1/2+z
x,-y,-z
-x,y,1/2-z
-x,-y,-z
x,y,1/2-z
-x,y,z
x,-y,1/2+z
1/2+x,1/2+y,z
1/2-x,1/2-y,1/2+z
1/2+x,1/2-y,-z
1/2-x,1/2+y,1/2-z
1/2-x,1/2-y,-z
1/2+x,1/2+y,1/2-z
1/2-x,1/2+y,z
1/2+x,1/2-y,1/2+z
loop_
_atom_site_type_symbol
_atom_site_label
_atom_site_fract_x
_atom_site_fract_y
_atom_site_fract_z
Si Si1 0.297977 0.625743 0.450918
Si Si2 0.606400 0.384204 0.043177
Si Si3 0.141969 0.777085 0.142258
Si Si4 0.000000 0.192427 0.193566
Si Si5 0.151045 0.303848 0.128784
Si Si6 0.893620 0.442062 0.595138
Si Si7 0.500000 0.426675 0.304636
O O1 0.324168 0.659393 0.503507
O O2 0.358683 0.510913 0.445016
O O3 0.335389 0.718911 0.415021
O O4 0.191765 0.591217 0.439384
O O5 0.500000 0.382707 0.027490
O O6 0.614391 0.314121 0.090081
O O7 0.247211 0.807493 0.149516
O O8 0.121461 0.642333 0.139431
O O9 0.084687 0.854274 0.176428
O O10 0.914504 0.251817 0.167844
O O11 0.000000 0.203207 0.250000
O O12 0.000000 0.058325 0.180251
O O13 0.119490 0.427119 0.110526
O O14 0.000000 0.426890 0.578251
O O15 0.500000 0.428600 0.250000
#
# Coordination Sequence:
#
# PCOD9475176 Si02
#       7
#    16  16  16   8  16  16   8
#     4  10  23  38  63  95 127 174 228 267 315 390
#     4  11  21  39  65  95 132 175 228 276 321 384
#     4  11  23  43  67  94 135 173 213 268 327 392
#     4  11  26  45  70 102 127 161 221 276 331 398
#     4  11  24  41  69  91 135 176 213 267 337 388
#     4  11  22  41  62  94 130 179 216 260 324 394
#     4  11  24  45  76 104 123 159 225 280 319 386
#
# _framework density 19.579868000000001
#
# number of rings (size 3 to 8) (size 9 to 14) (size 15 to 20)
#    0.000    1.167    4.167    2.000    4.667    3.333 
#    0.000    3.333    1.833    0.000    0.000    0.000 
#    0.000    0.000    0.000    0.000    0.000    0.000 
#
# Total GULP energy -267981.818334 kJ/mol
# GULP energy per Si atom -5582.954549 kJ/mol
# Density = 1.953530 g / cm^3
# Si number density = 19.579868 Si / 1000 Ang^3
#
#
#
# Elastic Constant Matrix: (Units=GPa)
#
#
# Indices 1 2 3 4 5 6 
#
# 1 184.7179 48.5566 43.3705 0.0000 0.0000 0.0000
# 2 48.5566 115.0511 42.2311 0.0000 0.0000 0.0000
# 3 43.3705 42.2311 68.4063 0.0000 0.0000 0.0000
# 4 0.0000 0.0000 0.0000 16.3481 0.0000 0.0000
# 5 0.0000 0.0000 0.0000 0.0000 3.7158 0.0000
# 6 0.0000 0.0000 0.0000 0.0000 0.0000 31.6964
#
#
#
# Elastic Compliance Matrix: (Units=1/GPa)
#
#
# Indices 1 2 3 4 5 6 
#
# 1 0.006584 -0.001612 -0.003179 0.000000 0.000000 0.000000
# 2 -0.001612 0.011633 -0.006160 0.000000 0.000000 0.000000
# 3 -0.003179 -0.006160 0.020437 0.000000 0.000000 0.000000
# 4 0.000000 0.000000 0.000000 0.061169 0.000000 0.000000
# 5 0.000000 0.000000 0.000000 0.000000 0.269118 0.000000
# 6 0.000000 0.000000 0.000000 0.000000 0.000000 0.031549
#
#
# Mechanical properties :
#
#
# Convention : Reuss Voigt Hill
#
# Bulk Modulus (GPa) = 59.69340 70.72129 65.20735
# Shear Modulus (GPa) = 11.68288 25.95320 18.81804
#
# Velocity S-wave (km/s) = 2.44535 3.64470 3.10351
# Velocity P-wave (km/s) = 6.20696 7.34231 6.79838
#
# Compressibility (1/GPa) = 0.01675227
#
# Stress axis : x y z
#
# Youngs Moduli (GPa) = 151.88843 85.96189 48.93069
#
# Poissons Ratio (x) = 0.13854 0.15556
# Poissons Ratio (y) = 0.24479 0.30141
# Poissons Ratio (z) = 0.48289 0.52952
#
# Static dielectric constant tensor:
#      x y z
#    x 1.736450 0.000000 0.000000 
#    y 0.000000 1.742120 0.000000 
#    z 0.000000 0.000000 1.665880 
# 
# From -- ./inp_files/73361.got.cif
#   From: 2010.05.17/outbox.cif.g08.bks.cpg/sg63_37_cif.got.tgz:73361.got - 2010.06.03 15:47:04.
