data_PCOD9475302
_publ_section_title
;
Structure prediction by ZEFSAII (Michael W. Deem and Ramdas Pophale) SiO2 
 PCOD9475302
Probable space group: C M C M
;
_chemical_formula_sum "Si O2"
_cell_formula_units_Z 88
_cell_length_a 15.485782
_cell_length_b 12.153482
_cell_length_c 22.342126
_cell_angle_alpha 90.000000
_cell_angle_beta 90.000000
_cell_angle_gamma 90.000000
_cell_volume 4204.926027
_symmetry_space_group_name_H-M "C M C M"
_symmetry_group_IT_number 63
_symmetry_cell_setting 'orthorhombic'
loop_
_space_group_symop_operation_xyz
x,y,z
-x,-y,1/2+z
x,-y,-z
-x,y,1/2-z
-x,-y,-z
x,y,1/2-z
-x,y,z
x,-y,1/2+z
1/2+x,1/2+y,z
1/2-x,1/2-y,1/2+z
1/2+x,1/2-y,-z
1/2-x,1/2+y,1/2-z
1/2-x,1/2-y,-z
1/2+x,1/2+y,1/2-z
1/2-x,1/2+y,z
1/2+x,1/2-y,1/2+z
loop_
_atom_site_type_symbol
_atom_site_label
_atom_site_fract_x
_atom_site_fract_y
_atom_site_fract_z
Si Si1 0.643575 0.637934 0.628508
Si Si2 0.000000 0.307585 0.850385
Si Si3 0.652557 0.292486 0.994105
Si Si4 0.500000 0.130170 0.009689
Si Si5 0.830608 0.674152 0.680130
Si Si6 0.601671 0.608476 0.371453
Si Si7 0.000000 0.554064 0.817967
O O1 0.583792 0.731168 0.658604
O O2 0.629094 0.650084 0.557022
O O3 0.743338 0.654916 0.643892
O O4 0.617019 0.516195 0.647786
O O5 0.000000 0.346264 0.919454
O O6 0.000000 0.422814 0.816689
O O7 0.585120 0.192132 0.985408
O O8 0.750000 0.250000 0.000000
O O9 0.642471 0.370675 0.936992
O O10 0.500000 0.000000 0.000000
O O11 0.815575 0.647955 0.750000
O O12 0.857739 0.800686 0.671840
O O13 0.910926 0.601238 0.655917
O O14 0.500000 0.628920 0.375871
O O15 0.000000 0.598322 0.750000
#
# Coordination Sequence:
#
# PCOD9475302 Si02
#       7
#    16   8  16   8  16  16   8
#     4  11  25  44  66 101 138 176 218 277 341 403
#     4  10  24  42  63  95 131 169 218 263 333 399
#     4  11  23  41  64 103 136 173 224 269 333 409
#     4  10  24  37  62  93 135 173 210 265 322 394
#     4  11  26  46  69  98 130 177 233 280 332 394
#     4  12  24  44  74  98 138 180 225 279 336 400
#     4  10  24  45  69  94 129 175 229 283 329 394
#
# _framework density 20.927835000000002
#
# number of rings (size 3 to 8) (size 9 to 14) (size 15 to 20)
#    0.000    1.091    4.545    0.545    5.091    3.636 
#    0.000    0.000    0.000    0.000    0.000    0.000 
#    0.000    0.000    0.000    0.000    0.000    0.000 
#
# Total GULP energy -246023.124197 kJ/mol
# GULP energy per Si atom -5591.434641 kJ/mol
# Density = 2.088020 g / cm^3
# Si number density = 20.927835 Si / 1000 Ang^3
#
#
#
# Elastic Constant Matrix: (Units=GPa)
#
#
# Indices 1 2 3 4 5 6 
#
# 1 151.6303 46.6282 11.9125 0.0000 0.0000 0.0000
# 2 46.6282 136.1162 6.3101 0.0000 0.0000 0.0000
# 3 11.9125 6.3101 47.4733 0.0000 0.0000 0.0000
# 4 0.0000 0.0000 0.0000 23.1835 0.0000 0.0000
# 5 0.0000 0.0000 0.0000 0.0000 11.5130 0.0000
# 6 0.0000 0.0000 0.0000 0.0000 0.0000 22.0148
#
#
#
# Elastic Compliance Matrix: (Units=1/GPa)
#
#
# Indices 1 2 3 4 5 6 
#
# 1 0.007483 -0.002492 -0.001546 0.000000 0.000000 0.000000
# 2 -0.002492 0.008222 -0.000468 0.000000 0.000000 0.000000
# 3 -0.001546 -0.000468 0.021515 0.000000 0.000000 0.000000
# 4 0.000000 0.000000 0.000000 0.043134 0.000000 0.000000
# 5 0.000000 0.000000 0.000000 0.000000 0.086859 0.000000
# 6 0.000000 0.000000 0.000000 0.000000 0.000000 0.045424
#
#
# Mechanical properties :
#
#
# Convention : Reuss Voigt Hill
#
# Bulk Modulus (GPa) = 35.45106 51.65791 43.55449
# Shear Modulus (GPa) = 21.64035 29.36685 25.50360
#
# Velocity S-wave (km/s) = 3.21915 3.75005 3.49470
# Velocity P-wave (km/s) = 5.54920 6.59454 6.09433
#
# Compressibility (1/GPa) = 0.02820790
#
# Stress axis : x y z
#
# Youngs Moduli (GPa) = 133.64203 121.62691 46.47987
#
# Poissons Ratio (x) = 0.30304 0.07188
# Poissons Ratio (y) = 0.33298 0.02174
# Poissons Ratio (z) = 0.20667 0.05688
#
# Static dielectric constant tensor:
#      x y z
#    x 1.740530 0.000000 0.000000 
#    y 0.000000 1.731500 0.000000 
#    z 0.000000 0.000000 1.762980 
# 
# From -- ./inp_files/62708.got.cif
#   From: 2010.05.17/outbox.cif.g08.bks.cpg/sg63_32_cif.got.tgz:62708.got - 2010.06.03 15:47:04.
