data_PCOD9475842
_publ_section_title
;
Structure prediction by ZEFSAII (Michael W. Deem and Ramdas Pophale) SiO2 
 PCOD9475842
Probable space group: C M C M
;
_chemical_formula_sum "Si O2"
_cell_formula_units_Z 44
_cell_length_a 9.668524
_cell_length_b 8.118268
_cell_length_c 22.285883
_cell_angle_alpha 90.000000
_cell_angle_beta 90.000000
_cell_angle_gamma 90.000000
_cell_volume 1749.256152
_symmetry_space_group_name_H-M "C M C M"
_symmetry_group_IT_number 63
_symmetry_cell_setting 'orthorhombic'
loop_
_space_group_symop_operation_xyz
x,y,z
-x,-y,1/2+z
x,-y,-z
-x,y,1/2-z
-x,-y,-z
x,y,1/2-z
-x,y,z
x,-y,1/2+z
1/2+x,1/2+y,z
1/2-x,1/2-y,1/2+z
1/2+x,1/2-y,-z
1/2-x,1/2+y,1/2-z
1/2-x,1/2-y,-z
1/2+x,1/2+y,1/2-z
1/2-x,1/2+y,z
1/2+x,1/2-y,1/2+z
loop_
_atom_site_type_symbol
_atom_site_label
_atom_site_fract_x
_atom_site_fract_y
_atom_site_fract_z
Si Si1 0.796285 0.099469 0.750000
Si Si2 0.847058 0.782011 0.443872
Si Si3 0.145495 0.098649 0.370105
Si Si4 0.500000 0.070496 0.250000
O O1 0.844889 0.001701 0.809255
O O2 0.876217 0.277929 0.750000
O O3 0.627413 0.073319 0.750000
O O4 0.750000 0.750000 0.500000
O O5 0.856860 0.971606 0.425720
O O6 0.778823 0.704000 0.384646
O O7 0.000000 0.715065 0.454584
O O8 0.000000 0.194609 0.371864
#
# Coordination Sequence:
#
# PCOD9475842 Si02
#       4
#     8  16  16   4
#     4  12  26  50  80 114 164 208 266 328 406 484
#     4  11  25  44  69 102 143 193 254 319 392 466
#     4  11  24  44  71 101 146 192 251 315 390 472
#     4  12  28  52  76 120 164 216 268 324 396 482
#
# _framework density 25.153549000000002
#
# number of rings (size 3 to 8) (size 9 to 14) (size 15 to 20)
#    0.000    0.727    1.818    4.364    7.636    8.000 
#    6.545    0.000    0.000    0.000    0.000    0.000 
#    0.000    0.000    0.000    0.000    0.000    0.000 
#
# Total GULP energy -122472.671105 kJ/mol
# GULP energy per Si atom -5566.939596 kJ/mol
# Density = 2.509630 g / cm^3
# Si number density = 25.153549 Si / 1000 Ang^3
#
#
#
# Elastic Constant Matrix: (Units=GPa)
#
#
# Indices 1 2 3 4 5 6 
#
# 1 266.5667 46.0077 49.9313 0.0000 0.0000 0.0000
# 2 46.0077 63.7669 15.8430 0.0000 0.0000 0.0000
# 3 49.9313 15.8430 133.3736 0.0000 0.0000 0.0000
# 4 0.0000 0.0000 0.0000 37.8890 0.0000 0.0000
# 5 0.0000 0.0000 0.0000 0.0000 6.6572 0.0000
# 6 0.0000 0.0000 0.0000 0.0000 0.0000 42.2875
#
#
#
# Elastic Compliance Matrix: (Units=1/GPa)
#
#
# Indices 1 2 3 4 5 6 
#
# 1 0.004506 -0.002918 -0.001340 0.000000 0.000000 0.000000
# 2 -0.002918 0.018049 -0.001051 0.000000 0.000000 0.000000
# 3 -0.001340 -0.001051 0.008124 0.000000 0.000000 0.000000
# 4 0.000000 0.000000 0.000000 0.026393 0.000000 0.000000
# 5 0.000000 0.000000 0.000000 0.000000 0.150212 0.000000
# 6 0.000000 0.000000 0.000000 0.000000 0.000000 0.023648
#
#
# Mechanical properties :
#
#
# Convention : Reuss Voigt Hill
#
# Bulk Modulus (GPa) = 49.85191 76.36348 63.10770
# Shear Modulus (GPa) = 20.14192 40.82843 30.48517
#
# Velocity S-wave (km/s) = 2.83284 4.03323 3.48510
# Velocity P-wave (km/s) = 5.52829 7.21901 6.42947
#
# Compressibility (1/GPa) = 0.02005941
#
# Stress axis : x y z
#
# Youngs Moduli (GPa) = 221.92047 55.40535 123.08574
#
# Poissons Ratio (x) = 0.16168 0.16498
# Poissons Ratio (y) = 0.64760 0.12942
# Poissons Ratio (z) = 0.29745 0.05826
#
# Static dielectric constant tensor:
#      x y z
#    x 2.143410 0.000000 0.000000 
#    y 0.000000 2.049160 0.000000 
#    z 0.000000 0.000000 1.985710 
# 
# From -- ./inp_files/71248.got.cif
#   From: 2010.05.17/outbox.cif.g08.bks.cpg/sg63_36_cif.got.tgz:71248.got - 2010.06.03 15:47:04.
