data_PCOD9475848
_publ_section_title
;
Structure prediction by ZEFSAII (Michael W. Deem and Ramdas Pophale) SiO2 
 PCOD9475848
Probable space group: C M C M
;
_chemical_formula_sum "Si O2"
_cell_formula_units_Z 64
_cell_length_a 22.856853
_cell_length_b 14.954148
_cell_length_c 9.986018
_cell_angle_alpha 90.000000
_cell_angle_beta 90.000000
_cell_angle_gamma 90.000000
_cell_volume 3413.268512
_symmetry_space_group_name_H-M "C M C M"
_symmetry_group_IT_number 63
_symmetry_cell_setting 'orthorhombic'
loop_
_space_group_symop_operation_xyz
x,y,z
-x,-y,1/2+z
x,-y,-z
-x,y,1/2-z
-x,-y,-z
x,y,1/2-z
-x,y,z
x,-y,1/2+z
1/2+x,1/2+y,z
1/2-x,1/2-y,1/2+z
1/2+x,1/2-y,-z
1/2-x,1/2+y,1/2-z
1/2-x,1/2-y,-z
1/2+x,1/2+y,1/2-z
1/2-x,1/2+y,z
1/2+x,1/2-y,1/2+z
loop_
_atom_site_type_symbol
_atom_site_label
_atom_site_fract_x
_atom_site_fract_y
_atom_site_fract_z
Si Si1 0.500000 0.644307 0.750000
Si Si2 0.000000 0.159626 0.250000
Si Si3 0.316566 0.500000 0.500000
Si Si4 0.402186 0.495582 0.750000
Si Si5 0.000000 0.716986 0.010780
Si Si6 0.262919 0.164217 0.091089
Si Si7 0.894187 0.588756 0.408777
O O1 0.444909 0.579636 0.750000
O O2 0.500000 0.708016 0.623889
O O3 0.943314 0.093238 0.250000
O O4 0.000000 0.226303 0.375387
O O5 0.359890 0.503628 0.624536
O O6 0.275334 0.415505 0.528335
O O7 0.056411 0.654582 0.033485
O O8 0.248717 0.176958 0.250000
O O9 0.330871 0.135806 0.083730
O O10 0.250000 0.250000 0.000000
O O11 0.893641 0.500000 0.500000
O O12 0.905862 0.569969 0.250000
#
# Coordination Sequence:
#
# PCOD9475848 Si02
#       7
#     4   4   8   8   8  16  16
#     4  11  24  46  67  98 132 176 225 296 328 407
#     4  11  28  46  63 108 136 176 231 286 336 411
#     4  12  24  45  70 103 136 182 228 282 348 420
#     4  11  26  44  72  94 140 179 224 280 354 401
#     4  12  25  43  71  98 133 177 235 278 340 399
#     4  11  27  44  68 103 139 181 230 284 347 409
#     4  11  25  45  68  98 136 178 227 283 341 402
#
# _framework density 18.750356
#
# number of rings (size 3 to 8) (size 9 to 14) (size 15 to 20)
#    0.000    0.750    3.750    1.875   10.500    3.000 
#    0.000    0.000    0.000    0.000    0.000    0.000 
#    0.000    0.000    0.000    0.000    0.000    0.000 
#
# Total GULP energy -178849.635824 kJ/mol
# GULP energy per Si atom -5589.051119 kJ/mol
# Density = 1.870768 g / cm^3
# Si number density = 18.750356 Si / 1000 Ang^3
#
#
#
# Elastic Constant Matrix: (Units=GPa)
#
#
# Indices 1 2 3 4 5 6 
#
# 1 153.3946 89.9239 85.0621 0.0000 0.0000 0.0000
# 2 89.9239 190.6651 118.7153 0.0000 0.0000 0.0000
# 3 85.0621 118.7153 213.4900 0.0000 0.0000 0.0000
# 4 0.0000 0.0000 0.0000 42.2502 0.0000 0.0000
# 5 0.0000 0.0000 0.0000 0.0000 33.6340 0.0000
# 6 0.0000 0.0000 0.0000 0.0000 0.0000 29.5342
#
#
#
# Elastic Compliance Matrix: (Units=1/GPa)
#
#
# Indices 1 2 3 4 5 6 
#
# 1 0.009530 -0.003259 -0.001985 0.000000 0.000000 0.000000
# 2 -0.003259 0.009137 -0.003782 0.000000 0.000000 0.000000
# 3 -0.001985 -0.003782 0.007578 0.000000 0.000000 0.000000
# 4 0.000000 0.000000 0.000000 0.023669 0.000000 0.000000
# 5 0.000000 0.000000 0.000000 0.000000 0.029732 0.000000
# 6 0.000000 0.000000 0.000000 0.000000 0.000000 0.033859
#
#
# Mechanical properties :
#
#
# Convention : Reuss Voigt Hill
#
# Bulk Modulus (GPa) = 122.05617 127.21693 124.63655
# Shear Modulus (GPa) = 37.23344 38.67357 37.95351
#
# Velocity S-wave (km/s) = 4.46101 4.54646 4.50393
# Velocity P-wave (km/s) = 9.57971 9.77525 9.67797
#
# Compressibility (1/GPa) = 0.00819295
#
# Stress axis : x y z
#
# Youngs Moduli (GPa) = 104.92803 109.44838 131.95789
#
# Poissons Ratio (x) = 0.35667 0.26195
# Poissons Ratio (y) = 0.34194 0.49909
# Poissons Ratio (z) = 0.20829 0.41396
#
# Static dielectric constant tensor:
#      x y z
#    x 1.852110 0.000000 0.000000 
#    y 0.000000 1.615260 0.000000 
#    z 0.000000 0.000000 1.551310 
# 
# From -- ./inp_files/9720.got.cif
#   From: 2010.05.17/outbox.cif.g08.bks.cpg/sg63_5_cif.got.tgz:9720.got - 2010.06.03 15:47:04.
