data_PCOD9475147
_publ_section_title
;
Structure prediction by ZEFSAII (Michael W. Deem and Ramdas Pophale) SiO2 
 PCOD9475147
Probable space group: C M C M
;
_chemical_formula_sum "Si O2"
_cell_formula_units_Z 68
_cell_length_a 19.369564
_cell_length_b 16.215834
_cell_length_c 9.657393
_cell_angle_alpha 90.000000
_cell_angle_beta 90.000000
_cell_angle_gamma 90.000000
_cell_volume 3033.325667
_symmetry_space_group_name_H-M "C M C M"
_symmetry_group_IT_number 63
_symmetry_cell_setting 'orthorhombic'
loop_
_space_group_symop_operation_xyz
x,y,z
-x,-y,1/2+z
x,-y,-z
-x,y,1/2-z
-x,-y,-z
x,y,1/2-z
-x,y,z
x,-y,1/2+z
1/2+x,1/2+y,z
1/2-x,1/2-y,1/2+z
1/2+x,1/2-y,-z
1/2-x,1/2+y,1/2-z
1/2-x,1/2-y,-z
1/2+x,1/2+y,1/2-z
1/2-x,1/2+y,z
1/2+x,1/2-y,1/2+z
loop_
_atom_site_type_symbol
_atom_site_label
_atom_site_fract_x
_atom_site_fract_y
_atom_site_fract_z
Si Si1 0.174738 0.434516 0.250000
Si Si2 0.500000 0.106501 0.250000
Si Si3 0.115702 0.354140 0.982162
Si Si4 0.281214 0.873984 0.750000
Si Si5 0.923126 0.172437 0.991574
Si Si6 0.829650 0.890197 0.250000
Si Si7 0.626543 0.418544 0.750000
O O1 0.133000 0.412178 0.388467
O O2 0.197806 0.529274 0.250000
O O3 0.247203 0.384979 0.250000
O O4 0.439833 0.111800 0.372274
O O5 0.184208 0.339397 0.889082
O O6 0.088550 0.266495 0.037549
O O7 0.199079 0.868959 0.750000
O O8 0.864764 0.150938 0.881733
O O9 0.000000 0.167343 0.929301
O O10 0.915206 0.108880 0.116008
O O11 0.853133 0.985912 0.250000
#
# Coordination Sequence:
#
# PCOD9475147 Si02
#       7
#     8   4  16   8  16   8   8
#     4  11  24  43  67 103 131 166 221 284 323 386
#     4  10  22  44  64  92 132 180 202 270 326 396
#     4  11  23  42  70  94 134 172 222 264 337 391
#     4  10  23  44  68  93 137 173 210 274 338 391
#     4  12  25  41  67  93 133 179 218 274 324 390
#     4  11  25  43  67  95 136 175 216 270 338 394
#     4  11  25  43  63 101 132 167 224 276 325 388
#
# _framework density 22.417638
#
# number of rings (size 3 to 8) (size 9 to 14) (size 15 to 20)
#    0.000    0.941    1.176    5.647    0.000   12.706 
#    0.000    9.412    0.000    0.000    0.000    0.000 
#    0.000    0.000    0.000    0.000    0.000    0.000 
#
# Total GULP energy -189778.776338 kJ/mol
# GULP energy per Si atom -5581.728716 kJ/mol
# Density = 2.236661 g / cm^3
# Si number density = 22.417638 Si / 1000 Ang^3
#
#
#
# Elastic Constant Matrix: (Units=GPa)
#
#
# Indices 1 2 3 4 5 6 
#
# 1 126.2067 24.5880 18.3692 0.0000 0.0000 0.0000
# 2 24.5880 60.8832 28.3513 0.0000 0.0000 0.0000
# 3 18.3692 28.3513 118.7263 0.0000 0.0000 0.0000
# 4 0.0000 0.0000 0.0000 33.3919 0.0000 0.0000
# 5 0.0000 0.0000 0.0000 0.0000 34.3370 0.0000
# 6 0.0000 0.0000 0.0000 0.0000 0.0000 12.4579
#
#
#
# Elastic Compliance Matrix: (Units=1/GPa)
#
#
# Indices 1 2 3 4 5 6 
#
# 1 0.008634 -0.003223 -0.000566 0.000000 0.000000 0.000000
# 2 -0.003223 0.019683 -0.004202 0.000000 0.000000 0.000000
# 3 -0.000566 -0.004202 0.009514 0.000000 0.000000 0.000000
# 4 0.000000 0.000000 0.000000 0.029947 0.000000 0.000000
# 5 0.000000 0.000000 0.000000 0.000000 0.029123 0.000000
# 6 0.000000 0.000000 0.000000 0.000000 0.000000 0.080270
#
#
# Mechanical properties :
#
#
# Convention : Reuss Voigt Hill
#
# Bulk Modulus (GPa) = 45.76903 49.82594 47.79748
# Shear Modulus (GPa) = 24.94561 31.67120 28.30841
#
# Velocity S-wave (km/s) = 3.33944 3.76278 3.55741
# Velocity P-wave (km/s) = 5.94390 6.41502 6.18395
#
# Compressibility (1/GPa) = 0.02184884
#
# Stress axis : x y z
#
# Youngs Moduli (GPa) = 115.82300 50.80497 105.11232
#
# Poissons Ratio (x) = 0.16375 0.05951
# Poissons Ratio (y) = 0.37332 0.44163
# Poissons Ratio (z) = 0.06557 0.21346
#
# Static dielectric constant tensor:
#      x y z
#    x 1.796460 0.000000 0.000000 
#    y 0.000000 1.840240 0.000000 
#    z 0.000000 0.000000 1.755370 
# 
# From -- ./inp_files/7674.got.cif
#   From: 2010.05.17/outbox.cif.g08.bks.cpg/sg63_4_cif.got.tgz:7674.got - 2010.06.03 15:47:04.
