data_PCOD9475208
_publ_section_title
;
Structure prediction by ZEFSAII (Michael W. Deem and Ramdas Pophale) SiO2 
 PCOD9475208
Probable space group: C M C M
;
_chemical_formula_sum "Si O2"
_cell_formula_units_Z 60
_cell_length_a 19.741457
_cell_length_b 16.600122
_cell_length_c 7.576929
_cell_angle_alpha 90.000000
_cell_angle_beta 90.000000
_cell_angle_gamma 90.000000
_cell_volume 2483.039908
_symmetry_space_group_name_H-M "C M C M"
_symmetry_group_IT_number 63
_symmetry_cell_setting 'orthorhombic'
loop_
_space_group_symop_operation_xyz
x,y,z
-x,-y,1/2+z
x,-y,-z
-x,y,1/2-z
-x,-y,-z
x,y,1/2-z
-x,y,z
x,-y,1/2+z
1/2+x,1/2+y,z
1/2-x,1/2-y,1/2+z
1/2+x,1/2-y,-z
1/2-x,1/2+y,1/2-z
1/2-x,1/2-y,-z
1/2+x,1/2+y,1/2-z
1/2-x,1/2+y,z
1/2+x,1/2-y,1/2+z
loop_
_atom_site_type_symbol
_atom_site_label
_atom_site_fract_x
_atom_site_fract_y
_atom_site_fract_z
Si Si1 0.256153 0.911669 0.538843
Si Si2 0.500000 0.094171 0.958883
Si Si3 0.127590 0.700967 0.044988
Si Si4 0.603522 0.381057 0.454516
Si Si5 0.500000 0.434842 0.750000
O O1 0.249968 0.903552 0.750000
O O2 0.305615 0.841576 0.469269
O O3 0.181703 0.907063 0.458452
O O4 0.286057 0.000000 0.500000
O O5 0.500000 0.105606 0.750000
O O6 0.566415 0.138227 0.031449
O O7 0.500000 0.000000 0.000000
O O8 0.142630 0.716412 0.250000
O O9 0.104154 0.787771 0.978973
O O10 0.578926 0.386415 0.250000
O O11 0.558659 0.427188 0.595058
#
# Coordination Sequence:
#
# PCOD9475208 Si02
#       5
#    16   8  16  16   4
#     4  11  23  43  68  98 138 179 228 283 339 408
#     4  12  25  38  60  92 137 179 226 272 332 402
#     4  10  23  41  66  99 136 178 225 275 334 404
#     4  11  24  44  71 102 138 176 227 288 340 405
#     4  12  24  44  70  98 136 168 232 270 354 396
#
# _framework density 24.163930000000001
#
# number of rings (size 3 to 8) (size 9 to 14) (size 15 to 20)
#    0.000    1.067    1.333    4.800    3.733    6.400 
#    0.000    0.667    0.000    0.000    0.000    0.000 
#    0.000    0.000    0.000    0.000    0.000    0.000 
#
# Total GULP energy -167567.964448 kJ/mol
# GULP energy per Si atom -5585.598815 kJ/mol
# Density = 2.410893 g / cm^3
# Si number density = 24.163930 Si / 1000 Ang^3
#
#
#
# Elastic Constant Matrix: (Units=GPa)
#
#
# Indices 1 2 3 4 5 6 
#
# 1 133.6817 21.4655 35.1824 0.0000 0.0000 0.0000
# 2 21.4655 137.8837 23.3883 0.0000 0.0000 0.0000
# 3 35.1824 23.3883 146.0755 0.0000 0.0000 0.0000
# 4 0.0000 0.0000 0.0000 18.8776 0.0000 0.0000
# 5 0.0000 0.0000 0.0000 0.0000 92.8446 0.0000
# 6 0.0000 0.0000 0.0000 0.0000 0.0000 -70.2918
#
#
#
# Elastic Compliance Matrix: (Units=1/GPa)
#
#
# Indices 1 2 3 4 5 6 
#
# 1 0.008108 -0.000957 -0.001800 0.000000 0.000000 0.000000
# 2 -0.000957 0.007568 -0.000981 0.000000 0.000000 0.000000
# 3 -0.001800 -0.000981 0.007436 0.000000 0.000000 0.000000
# 4 0.000000 0.000000 0.000000 0.052973 0.000000 0.000000
# 5 0.000000 0.000000 0.000000 0.000000 0.010771 0.000000
# 6 0.000000 0.000000 0.000000 0.000000 0.000000 -0.014226
#
#
# Mechanical properties :
#
#
# Convention : Reuss Voigt Hill
#
# Bulk Modulus (GPa) = 63.95289 64.19035 64.07162
# Shear Modulus (GPa) = 58.60521 30.79305 44.69913
#
# Velocity S-wave (km/s) = 4.93009 3.57366 4.30563
# Velocity P-wave (km/s) = 7.67669 6.60684 7.16177
#
# Compressibility (1/GPa) = 0.01563651
#
# Stress axis : x y z
#
# Youngs Moduli (GPa) = 123.33927 132.13696 134.47548
#
# Poissons Ratio (x) = 0.12645 0.24199
# Poissons Ratio (y) = 0.11803 0.13195
# Poissons Ratio (z) = 0.22195 0.12966
#
# Static dielectric constant tensor:
#      x y z
#    x 1.867120 0.000000 0.000000 
#    y 0.000000 1.965550 0.000000 
#    z 0.000000 0.000000 1.943880 
# 
# From -- ./inp_files/5584.got.cif
#   From: 2010.05.17/outbox.cif.g08.bks.cpg/sg63_3_cif.got.tgz:5584.got - 2010.06.03 15:47:04.
