data_PCOD9475970
_publ_section_title
;
Structure prediction by ZEFSAII (Michael W. Deem and Ramdas Pophale) SiO2 
 PCOD9475970
Probable space group: C M C M
;
_chemical_formula_sum "Si O2"
_cell_formula_units_Z 80
_cell_length_a 13.491074
_cell_length_b 18.124551
_cell_length_c 13.244899
_cell_angle_alpha 90.000000
_cell_angle_beta 90.000000
_cell_angle_gamma 90.000000
_cell_volume 3238.638184
_symmetry_space_group_name_H-M "C M C M"
_symmetry_group_IT_number 63
_symmetry_cell_setting 'orthorhombic'
loop_
_space_group_symop_operation_xyz
x,y,z
-x,-y,1/2+z
x,-y,-z
-x,y,1/2-z
-x,-y,-z
x,y,1/2-z
-x,y,z
x,-y,1/2+z
1/2+x,1/2+y,z
1/2-x,1/2-y,1/2+z
1/2+x,1/2-y,-z
1/2-x,1/2+y,1/2-z
1/2-x,1/2-y,-z
1/2+x,1/2+y,1/2-z
1/2-x,1/2+y,z
1/2+x,1/2-y,1/2+z
loop_
_atom_site_type_symbol
_atom_site_label
_atom_site_fract_x
_atom_site_fract_y
_atom_site_fract_z
Si Si1 0.663174 0.223018 0.870560
Si Si2 0.104827 0.793999 0.127606
Si Si3 0.671001 0.615445 0.128286
Si Si4 0.359054 0.542750 0.631212
Si Si5 0.339964 0.078334 0.523974
O O1 0.653774 0.211362 0.750000
O O2 0.781822 0.228039 0.895968
O O3 0.624706 0.304933 0.895299
O O4 0.617392 0.153047 0.928019
O O5 0.104645 0.791037 0.250000
O O6 0.099821 0.879658 0.094981
O O7 0.000000 0.757330 0.096630
O O8 0.683570 0.614341 0.250000
O O9 0.614909 0.539970 0.097744
O O10 0.776913 0.605849 0.073064
O O11 0.377447 0.542985 0.750000
O O12 0.243049 0.552713 0.605676
O O13 0.392025 0.000000 0.500000
#
# Coordination Sequence:
#
# PCOD9475970 Si02
#       5
#    16  16  16  16  16
#     4   9  16  25  37  54  75  98 124 156 193 227
#     4   8  13  22  37  55  75 101 128 151 180 221
#     4   9  16  24  35  52  74 100 127 156 190 224
#     4   8  14  24  37  54  76 100 126 155 187 224
#     4   9  15  23  36  51  70  95 123 152 185 223
#
# _framework density 24.701739
#
# number of rings (size 3 to 8) (size 9 to 14) (size 15 to 20)
#    0.000    3.400    0.000    2.400    0.000    0.800 
#    0.000    0.000    0.000   38.400    0.000    0.000 
#    0.000    7.200    0.000   11.600    0.000  420.600 
#
# Total GULP energy -222793.358550 kJ/mol
# GULP energy per Si atom -5569.833964 kJ/mol
# Density = 2.464552 g / cm^3
# Si number density = 24.701739 Si / 1000 Ang^3
#
#
#
# Elastic Constant Matrix: (Units=GPa)
#
#
# Indices 1 2 3 4 5 6 
#
# 1 90.3326 19.5028 11.4516 0.0000 0.0000 0.0000
# 2 19.5028 225.4465 58.7263 0.0000 0.0000 0.0000
# 3 11.4516 58.7263 113.5809 0.0000 0.0000 0.0000
# 4 0.0000 0.0000 0.0000 52.2812 0.0000 0.0000
# 5 0.0000 0.0000 0.0000 0.0000 -3.7216 0.0000
# 6 0.0000 0.0000 0.0000 0.0000 0.0000 -12.8092
#
#
#
# Elastic Compliance Matrix: (Units=1/GPa)
#
#
# Indices 1 2 3 4 5 6 
#
# 1 0.011334 -0.000789 -0.000735 0.000000 0.000000 0.000000
# 2 -0.000789 0.005181 -0.002599 0.000000 0.000000 0.000000
# 3 -0.000735 -0.002599 0.010222 0.000000 0.000000 0.000000
# 4 0.000000 0.000000 0.000000 0.019127 0.000000 0.000000
# 5 0.000000 0.000000 0.000000 0.000000 -0.268701 0.000000
# 6 0.000000 0.000000 0.000000 0.000000 0.000000 -0.078069
#
#
# Mechanical properties :
#
#
# Convention : Reuss Voigt Hill
#
# Bulk Modulus (GPa) = 54.08056 67.63570 60.85813
# Shear Modulus (GPa) = -17.45228 29.79535 6.17154
#
# Velocity S-wave (km/s) = -2.66093 3.47681 1.58235
# Velocity P-wave (km/s) = 3.53557 6.59985 5.29425
#
# Compressibility (1/GPa) = 0.01849093
#
# Stress axis : x y z
#
# Youngs Moduli (GPa) = 88.23247 193.01399 97.82542
#
# Poissons Ratio (x) = 0.15230 0.07187
# Poissons Ratio (y) = 0.06962 0.25427
# Poissons Ratio (z) = 0.06483 0.50169
#
# Static dielectric constant tensor:
#      x y z
#    x 1.944850 0.000000 0.000000 
#    y 0.000000 2.018280 0.000000 
#    z 0.000000 0.000000 2.031680 
# 
# From -- ./inp_files/33881.got.cif
#   From: 2010.05.17/outbox.cif.g08.bks.cpg/sg63_17_cif.got.tgz:33881.got - 2010.06.03 15:47:04.
