data_PCOD9475233
_publ_section_title
;
Structure prediction by ZEFSAII (Michael W. Deem and Ramdas Pophale) SiO2 
 PCOD9475233
Probable space group: C M C M
;
_chemical_formula_sum "Si O2"
_cell_formula_units_Z 88
_cell_length_a 9.452241
_cell_length_b 20.004248
_cell_length_c 23.112834
_cell_angle_alpha 90.000000
_cell_angle_beta 90.000000
_cell_angle_gamma 90.000000
_cell_volume 4370.289596
_symmetry_space_group_name_H-M "C M C M"
_symmetry_group_IT_number 63
_symmetry_cell_setting 'orthorhombic'
loop_
_space_group_symop_operation_xyz
x,y,z
-x,-y,1/2+z
x,-y,-z
-x,y,1/2-z
-x,-y,-z
x,y,1/2-z
-x,y,z
x,-y,1/2+z
1/2+x,1/2+y,z
1/2-x,1/2-y,1/2+z
1/2+x,1/2-y,-z
1/2-x,1/2+y,1/2-z
1/2-x,1/2-y,-z
1/2+x,1/2+y,1/2-z
1/2-x,1/2+y,z
1/2+x,1/2-y,1/2+z
loop_
_atom_site_type_symbol
_atom_site_label
_atom_site_fract_x
_atom_site_fract_y
_atom_site_fract_z
Si Si1 0.500000 0.747258 0.470892
Si Si2 0.837539 0.585648 0.380603
Si Si3 0.762054 0.351669 0.001503
Si Si4 0.166965 0.049283 0.598619
Si Si5 0.658868 0.697117 0.180432
Si Si6 0.662359 0.325310 0.181013
O O1 0.375704 0.691256 0.485341
O O2 0.624797 0.805307 0.466168
O O3 0.831462 0.622388 0.442390
O O4 0.758931 0.515276 0.387055
O O5 0.749111 0.633865 0.338580
O O6 0.000000 0.578230 0.362013
O O7 0.715948 0.414684 0.040061
O O8 0.186528 0.106096 0.647699
O O9 0.000000 0.032360 0.595847
O O10 0.649807 0.698068 0.250000
O O11 0.500000 0.695634 0.154784
O O12 0.736148 0.765227 0.162379
O O13 0.677246 0.334641 0.250000
O O14 0.500000 0.304248 0.169155
#
# Coordination Sequence:
#
# PCOD9475233 Si02
#       6
#     8  16  16  16  16  16
#     4  10  24  40  64  96 122 168 208 264 310 368
#     4  12  27  42  62  90 128 170 210 257 312 374
#     4  11  24  41  64  95 129 163 209 260 315 374
#     4  11  25  41  62  91 129 170 209 255 314 376
#     4  10  23  42  67  96 124 159 207 260 312 370
#     4   9  20  40  66  94 125 160 203 257 311 368
#
# _framework density 20.135964000000001
#
# number of rings (size 3 to 8) (size 9 to 14) (size 15 to 20)
#    0.000    1.455    1.818    1.636    8.909    4.000 
#    0.000    1.818    0.000    0.000    0.000    0.000 
#    0.000    0.000    0.000    0.000    0.000    0.000 
#
# Total GULP energy -245066.274111 kJ/mol
# GULP energy per Si atom -5569.688048 kJ/mol
# Density = 2.009013 g / cm^3
# Si number density = 20.135964 Si / 1000 Ang^3
#
#
#
# Elastic Constant Matrix: (Units=GPa)
#
#
# Indices 1 2 3 4 5 6 
#
# 1 149.4750 44.4303 16.7712 0.0000 0.0000 0.0000
# 2 44.4303 44.3344 11.0213 0.0000 0.0000 0.0000
# 3 16.7712 11.0213 30.8828 0.0000 0.0000 0.0000
# 4 0.0000 0.0000 0.0000 21.4095 0.0000 0.0000
# 5 0.0000 0.0000 0.0000 0.0000 15.8995 0.0000
# 6 0.0000 0.0000 0.0000 0.0000 0.0000 32.8620
#
#
#
# Elastic Compliance Matrix: (Units=1/GPa)
#
#
# Indices 1 2 3 4 5 6 
#
# 1 0.009635 -0.009169 -0.001960 0.000000 0.000000 0.000000
# 2 -0.009169 0.033477 -0.006968 0.000000 0.000000 0.000000
# 3 -0.001960 -0.006968 0.035932 0.000000 0.000000 0.000000
# 4 0.000000 0.000000 0.000000 0.046708 0.000000 0.000000
# 5 0.000000 0.000000 0.000000 0.000000 0.062895 0.000000
# 6 0.000000 0.000000 0.000000 0.000000 0.000000 0.030430
#
#
# Mechanical properties :
#
#
# Convention : Reuss Voigt Hill
#
# Bulk Modulus (GPa) = 23.33744 41.01531 32.17638
# Shear Modulus (GPa) = 18.54909 24.19882 21.37396
#
# Velocity S-wave (km/s) = 3.03841 3.47042 3.26157
# Velocity P-wave (km/s) = 4.89125 6.03919 5.49528
#
# Compressibility (1/GPa) = 0.04284960
#
# Stress axis : x y z
#
# Youngs Moduli (GPa) = 103.78361 29.87147 27.83057
#
# Poissons Ratio (x) = 0.27389 0.05456
# Poissons Ratio (y) = 0.95158 0.19392
# Poissons Ratio (z) = 0.20346 0.20814
#
# Static dielectric constant tensor:
#      x y z
#    x 1.706970 0.000000 0.000000 
#    y 0.000000 1.661490 0.000000 
#    z 0.000000 0.000000 1.792440 
# 
# From -- ./inp_files/59622.got.cif
#   From: 2010.05.17/outbox.cif.g08.bks.cpg/sg63_30_cif.got.tgz:59622.got - 2010.06.03 15:47:04.
