data_PCOD9475217
_publ_section_title
;
Structure prediction by ZEFSAII (Michael W. Deem and Ramdas Pophale) SiO2 
 PCOD9475217
Probable space group: C M C M
;
_chemical_formula_sum "Si O2"
_cell_formula_units_Z 96
_cell_length_a 8.648440
_cell_length_b 31.105592
_cell_length_c 17.579687
_cell_angle_alpha 90.000000
_cell_angle_beta 90.000000
_cell_angle_gamma 90.000000
_cell_volume 4729.196792
_symmetry_space_group_name_H-M "C M C M"
_symmetry_group_IT_number 63
_symmetry_cell_setting 'orthorhombic'
loop_
_space_group_symop_operation_xyz
x,y,z
-x,-y,1/2+z
x,-y,-z
-x,y,1/2-z
-x,-y,-z
x,y,1/2-z
-x,y,z
x,-y,1/2+z
1/2+x,1/2+y,z
1/2-x,1/2-y,1/2+z
1/2+x,1/2-y,-z
1/2-x,1/2+y,1/2-z
1/2-x,1/2-y,-z
1/2+x,1/2+y,1/2-z
1/2-x,1/2+y,z
1/2+x,1/2-y,1/2+z
loop_
_atom_site_type_symbol
_atom_site_label
_atom_site_fract_x
_atom_site_fract_y
_atom_site_fract_z
Si Si1 0.183109 0.457343 0.920039
Si Si2 0.322873 0.282320 0.436730
Si Si3 0.686971 0.638849 0.837684
Si Si4 0.312449 0.051045 0.595644
Si Si5 0.176637 0.782450 0.659734
Si Si6 0.319857 0.377142 0.659267
O O1 0.236880 0.502284 0.882526
O O2 0.222565 0.415650 0.872970
O O3 0.000000 0.462641 0.926643
O O4 0.236043 0.448819 0.006549
O O5 0.500000 0.289601 0.458055
O O6 0.250000 0.250000 0.500000
O O7 0.257547 0.327743 0.404129
O O8 0.300756 0.252308 0.363294
O O9 0.737155 0.648998 0.750000
O O10 0.500000 0.641151 0.838308
O O11 0.739737 0.590798 0.859710
O O12 0.500000 0.055035 0.601400
O O13 0.170787 0.786032 0.750000
O O14 0.218091 0.829653 0.628339
O O15 0.000000 0.771142 0.635549
O O16 0.303462 0.376303 0.750000
O O17 0.500000 0.384548 0.641550
#
# Coordination Sequence:
#
# PCOD9475217 Si02
#       6
#    16  16  16  16  16  16
#     4   9  19  36  56  81 115 150 188 236 282 333
#     4  11  24  40  59  85 116 150 191 239 290 344
#     4  10  23  42  61  84 116 152 192 239 288 343
#     4   9  20  38  58  82 113 149 189 234 285 335
#     4   9  19  37  58  81 113 150 187 230 281 336
#     4   9  19  34  53  80 113 147 183 227 278 332
#
# _framework density 20.299430000000001
#
# number of rings (size 3 to 8) (size 9 to 14) (size 15 to 20)
#    0.000    2.500    0.000    3.000    2.333    5.667 
#    0.000    6.667    0.000    0.000    0.000    0.000 
#    0.000    0.000    0.000    0.000    0.000    0.000 
#
# Total GULP energy -267270.666769 kJ/mol
# GULP energy per Si atom -5568.138891 kJ/mol
# Density = 2.025323 g / cm^3
# Si number density = 20.299430 Si / 1000 Ang^3
#
#
#
# Elastic Constant Matrix: (Units=GPa)
#
#
# Indices 1 2 3 4 5 6 
#
# 1 23.8693 15.0209 18.9089 0.0000 0.0000 0.0000
# 2 15.0209 78.0100 20.2314 0.0000 0.0000 0.0000
# 3 18.9089 20.2314 46.3941 0.0000 0.0000 0.0000
# 4 0.0000 0.0000 0.0000 35.9388 0.0000 0.0000
# 5 0.0000 0.0000 0.0000 0.0000 29.2086 0.0000
# 6 0.0000 0.0000 0.0000 0.0000 0.0000 31.8198
#
#
#
# Elastic Compliance Matrix: (Units=1/GPa)
#
#
# Indices 1 2 3 4 5 6 
#
# 1 0.064520 -0.006318 -0.023541 0.000000 0.000000 0.000000
# 2 -0.006318 0.015072 -0.003998 0.000000 0.000000 0.000000
# 3 -0.023541 -0.003998 0.032892 0.000000 0.000000 0.000000
# 4 0.000000 0.000000 0.000000 0.027825 0.000000 0.000000
# 5 0.000000 0.000000 0.000000 0.000000 0.034236 0.000000
# 6 0.000000 0.000000 0.000000 0.000000 0.000000 0.031427
#
#
# Mechanical properties :
#
#
# Convention : Reuss Voigt Hill
#
# Bulk Modulus (GPa) = 22.33608 28.51065 25.42337
# Shear Modulus (GPa) = 17.32442 25.66759 21.49600
#
# Velocity S-wave (km/s) = 2.92454 3.55977 3.25768
# Velocity P-wave (km/s) = 4.73615 5.56520 5.16733
#
# Compressibility (1/GPa) = 0.04477061
#
# Stress axis : x y z
#
# Youngs Moduli (GPa) = 15.49914 66.34744 30.40215
#
# Poissons Ratio (x) = 0.41919 0.71570
# Poissons Ratio (y) = 0.09793 0.12153
# Poissons Ratio (z) = 0.36487 0.26523
#
# Static dielectric constant tensor:
#      x y z
#    x 1.725980 0.000000 0.000000 
#    y 0.000000 1.743060 0.000000 
#    z 0.000000 0.000000 1.779570 
# 
# From -- ./inp_files/51295.got.cif
#   From: 2010.05.17/outbox.cif.g08.bks.cpg/sg63_26_cif.got.tgz:51295.got - 2010.06.03 15:47:04.
