data_PCOD9475323
_publ_section_title
;
Structure prediction by ZEFSAII (Michael W. Deem and Ramdas Pophale) SiO2 
 PCOD9475323
Probable space group: C M C M
;
_chemical_formula_sum "Si O2"
_cell_formula_units_Z 72
_cell_length_a 14.984796
_cell_length_b 15.291464
_cell_length_c 16.053944
_cell_angle_alpha 90.000000
_cell_angle_beta 90.000000
_cell_angle_gamma 90.000000
_cell_volume 3678.592197
_symmetry_space_group_name_H-M "C M C M"
_symmetry_group_IT_number 63
_symmetry_cell_setting 'orthorhombic'
loop_
_space_group_symop_operation_xyz
x,y,z
-x,-y,1/2+z
x,-y,-z
-x,y,1/2-z
-x,-y,-z
x,y,1/2-z
-x,y,z
x,-y,1/2+z
1/2+x,1/2+y,z
1/2-x,1/2-y,1/2+z
1/2+x,1/2-y,-z
1/2-x,1/2+y,1/2-z
1/2-x,1/2-y,-z
1/2+x,1/2+y,1/2-z
1/2-x,1/2+y,z
1/2+x,1/2-y,1/2+z
loop_
_atom_site_type_symbol
_atom_site_label
_atom_site_fract_x
_atom_site_fract_y
_atom_site_fract_z
Si Si1 0.178549 0.244788 0.074990
Si Si2 0.000000 0.463887 0.624293
Si Si3 0.231848 0.224552 0.750000
Si Si4 0.654680 0.079259 0.250000
Si Si5 0.104758 0.947498 0.918278
Si Si6 0.000000 0.354586 0.454816
Si Si7 0.834810 0.034891 0.750000
O O1 0.213549 0.280538 0.163549
O O2 0.156338 0.143155 0.088578
O O3 0.088355 0.295979 0.051590
O O4 0.250000 0.250000 0.000000
O O5 0.089670 0.437690 0.672429
O O6 0.000000 0.409586 0.539602
O O7 0.000000 0.568430 0.613558
O O8 0.186748 0.320288 0.750000
O O9 0.169618 0.139460 0.750000
O O10 0.737321 0.012009 0.250000
O O11 0.000000 0.928543 0.929271
O O12 0.118532 0.001691 0.834045
O O13 0.135803 0.000000 0.000000
#
# Coordination Sequence:
#
# PCOD9475323 Si02
#       7
#    16   8   8   8  16   8   8
#     4  12  24  44  69 100 135 177 228 280 337 409
#     4  10  24  42  64  95 132 174 215 285 331 404
#     4  12  25  42  69 102 129 183 225 277 341 397
#     4  11  22  45  64  94 135 168 224 272 339 408
#     4  11  24  44  66  96 134 177 224 283 339 400
#     4  11  24  42  67  97 132 176 230 270 349 399
#     4  12  24  44  68  98 134 175 228 279 342 402
#
# _framework density 19.572706
#
# number of rings (size 3 to 8) (size 9 to 14) (size 15 to 20)
#    0.000    0.667    3.333    4.333    0.000    1.333 
#    4.000    0.000    0.000    0.000    0.000    0.000 
#    0.000    0.000    0.000    0.000    0.000    0.000 
#
# Total GULP energy -201270.879367 kJ/mol
# GULP energy per Si atom -5590.857760 kJ/mol
# Density = 1.952816 g / cm^3
# Si number density = 19.572706 Si / 1000 Ang^3
#
#
#
# Elastic Constant Matrix: (Units=GPa)
#
#
# Indices 1 2 3 4 5 6 
#
# 1 77.9652 18.1784 25.5813 0.0000 0.0000 0.0000
# 2 18.1784 97.3551 25.1033 0.0000 0.0000 0.0000
# 3 25.5813 25.1033 129.3834 0.0000 0.0000 0.0000
# 4 0.0000 0.0000 0.0000 36.1200 0.0000 0.0000
# 5 0.0000 0.0000 0.0000 0.0000 93.1009 0.0000
# 6 0.0000 0.0000 0.0000 0.0000 0.0000 34.3518
#
#
#
# Elastic Compliance Matrix: (Units=1/GPa)
#
#
# Indices 1 2 3 4 5 6 
#
# 1 0.014081 -0.002012 -0.002394 0.000000 0.000000 0.000000
# 2 -0.002012 0.011100 -0.001756 0.000000 0.000000 0.000000
# 3 -0.002394 -0.001756 0.008543 0.000000 0.000000 0.000000
# 4 0.000000 0.000000 0.000000 0.027685 0.000000 0.000000
# 5 0.000000 0.000000 0.000000 0.000000 0.010741 0.000000
# 6 0.000000 0.000000 0.000000 0.000000 0.000000 0.029111
#
#
# Mechanical properties :
#
#
# Convention : Reuss Voigt Hill
#
# Bulk Modulus (GPa) = 46.72726 49.15885 47.94306
# Shear Modulus (GPa) = 41.41906 48.43726 44.92816
#
# Velocity S-wave (km/s) = 4.60517 4.98007 4.79628
# Velocity P-wave (km/s) = 7.22511 7.63143 7.43105
#
# Compressibility (1/GPa) = 0.02140078
#
# Stress axis : x y z
#
# Youngs Moduli (GPa) = 71.01901 90.08920 117.05620
#
# Poissons Ratio (x) = 0.18126 0.28019
# Poissons Ratio (y) = 0.14289 0.20553
# Poissons Ratio (z) = 0.16999 0.15818
#
# Static dielectric constant tensor:
#      x y z
#    x 1.658000 0.000000 0.000000 
#    y 0.000000 1.660640 0.000000 
#    z 0.000000 0.000000 1.719980 
# 
# From -- ./inp_files/43830.got.cif
#   From: 2010.05.17/outbox.cif.g08.bks.cpg/sg63_22_cif.got.tgz:43830.got - 2010.06.03 15:47:04.
