data_PCOD9475136
_publ_section_title
;
Structure prediction by ZEFSAII (Michael W. Deem and Ramdas Pophale) SiO2 
 PCOD9475136
Probable space group: C M C M
;
_chemical_formula_sum "Si O2"
_cell_formula_units_Z 84
_cell_length_a 20.502409
_cell_length_b 12.737758
_cell_length_c 15.483825
_cell_angle_alpha 90.000000
_cell_angle_beta 90.000000
_cell_angle_gamma 90.000000
_cell_volume 4043.674048
_symmetry_space_group_name_H-M "C M C M"
_symmetry_group_IT_number 63
_symmetry_cell_setting 'orthorhombic'
loop_
_space_group_symop_operation_xyz
x,y,z
-x,-y,1/2+z
x,-y,-z
-x,y,1/2-z
-x,-y,-z
x,y,1/2-z
-x,y,z
x,-y,1/2+z
1/2+x,1/2+y,z
1/2-x,1/2-y,1/2+z
1/2+x,1/2-y,-z
1/2-x,1/2+y,1/2-z
1/2-x,1/2-y,-z
1/2+x,1/2+y,1/2-z
1/2-x,1/2+y,z
1/2+x,1/2-y,1/2+z
loop_
_atom_site_type_symbol
_atom_site_label
_atom_site_fract_x
_atom_site_fract_y
_atom_site_fract_z
Si Si1 0.573611 0.071667 0.145695
Si Si2 0.682823 0.091023 0.852757
Si Si3 0.500000 0.254717 0.750000
Si Si4 0.574785 0.308645 0.087927
Si Si5 0.386301 0.293789 0.610001
Si Si6 0.673883 0.512663 0.896156
O O1 0.573254 0.067678 0.250000
O O2 0.500000 0.044747 0.116330
O O3 0.588512 0.190363 0.118327
O O4 0.627496 0.989787 0.115280
O O5 0.674885 0.104813 0.750000
O O6 0.668293 0.203149 0.895190
O O7 0.753848 0.044027 0.868623
O O8 0.442581 0.257880 0.674950
O O9 0.500000 0.333856 0.110888
O O10 0.624144 0.393717 0.126079
O O11 0.583399 0.311258 0.984608
O O12 0.353133 0.402666 0.639105
O O13 0.674746 0.500000 0.000000
#
# Coordination Sequence:
#
# PCOD9475136 Si02
#       6
#    16  16   4  16  16  16
#     4   9  21  40  63  92 127 170 215 268 324 377
#     4  11  25  41  63  92 133 168 213 271 313 385
#     4  12  24  44  66 102 132 164 214 270 318 386
#     4  10  22  43  68  95 128 166 215 269 319 381
#     4  11  25  42  68  95 127 171 213 267 322 377
#     4  10  26  43  64  92 129 171 212 261 326 382
#
# _framework density 20.773187
#
# number of rings (size 3 to 8) (size 9 to 14) (size 15 to 20)
#    0.000    1.714    1.905    0.000    9.333    3.429 
#    0.000    1.905    0.000    0.000    0.000    0.000 
#    0.000    0.000    0.000    0.000    0.000    0.000 
#
# Total GULP energy -234281.402227 kJ/mol
# GULP energy per Si atom -5578.128624 kJ/mol
# Density = 2.072591 g / cm^3
# Si number density = 20.773187 Si / 1000 Ang^3
#
#
#
# Elastic Constant Matrix: (Units=GPa)
#
#
# Indices 1 2 3 4 5 6 
#
# 1 89.9553 57.3659 -2.0432 0.0000 0.0000 0.0000
# 2 57.3659 83.7658 -2.6873 0.0000 0.0000 0.0000
# 3 -2.0432 -2.6873 18.2748 0.0000 0.0000 0.0000
# 4 0.0000 0.0000 0.0000 21.2005 0.0000 0.0000
# 5 0.0000 0.0000 0.0000 0.0000 31.5971 0.0000
# 6 0.0000 0.0000 0.0000 0.0000 0.0000 17.5956
#
#
#
# Elastic Compliance Matrix: (Units=1/GPa)
#
#
# Indices 1 2 3 4 5 6 
#
# 1 0.019737 -0.013509 0.000220 0.000000 0.000000 0.000000
# 2 -0.013509 0.021242 0.001613 0.000000 0.000000 0.000000
# 3 0.000220 0.001613 0.054982 0.000000 0.000000 0.000000
# 4 0.000000 0.000000 0.000000 0.047169 0.000000 0.000000
# 5 0.000000 0.000000 0.000000 0.000000 0.031648 0.000000
# 6 0.000000 0.000000 0.000000 0.000000 0.000000 0.056832
#
#
# Mechanical properties :
#
#
# Convention : Reuss Voigt Hill
#
# Bulk Modulus (GPa) = 13.77258 33.02963 23.40110
# Shear Modulus (GPa) = 17.91056 23.36934 20.63995
#
# Velocity S-wave (km/s) = 2.93950 3.35771 3.15554
# Velocity P-wave (km/s) = 4.26207 5.56479 4.95642
#
# Compressibility (1/GPa) = 0.07260803
#
# Stress axis : x y z
#
# Youngs Moduli (GPa) = 50.66671 47.07748 18.18777
#
# Poissons Ratio (x) = 0.63599 -0.00400
# Poissons Ratio (y) = 0.68448 -0.02934
# Poissons Ratio (z) = -0.01115 -0.07594
#
# Static dielectric constant tensor:
#      x y z
#    x 1.713030 0.000000 0.000000 
#    y 0.000000 1.738160 0.000000 
#    z 0.000000 0.000000 1.754360 
# 
# From -- ./inp_files/46843.got.cif
#   From: 2010.05.17/outbox.cif.g08.bks.cpg/sg63_24_cif.got.tgz:46843.got - 2010.06.03 15:47:04.
