data_PCOD9475617
_publ_section_title
;
Structure prediction by ZEFSAII (Michael W. Deem and Ramdas Pophale) SiO2 
 PCOD9475617
Probable space group: C M C M
;
_chemical_formula_sum "Si O2"
_cell_formula_units_Z 88
_cell_length_a 18.745504
_cell_length_b 30.432823
_cell_length_c 8.723144
_cell_angle_alpha 90.000000
_cell_angle_beta 90.000000
_cell_angle_gamma 90.000000
_cell_volume 4976.367023
_symmetry_space_group_name_H-M "C M C M"
_symmetry_group_IT_number 63
_symmetry_cell_setting 'orthorhombic'
loop_
_space_group_symop_operation_xyz
x,y,z
-x,-y,1/2+z
x,-y,-z
-x,y,1/2-z
-x,-y,-z
x,y,1/2-z
-x,y,z
x,-y,1/2+z
1/2+x,1/2+y,z
1/2-x,1/2-y,1/2+z
1/2+x,1/2-y,-z
1/2-x,1/2+y,1/2-z
1/2-x,1/2-y,-z
1/2+x,1/2+y,1/2-z
1/2-x,1/2+y,z
1/2+x,1/2-y,1/2+z
loop_
_atom_site_type_symbol
_atom_site_label
_atom_site_fract_x
_atom_site_fract_y
_atom_site_fract_z
Si Si1 0.500000 0.549458 0.065169
Si Si2 0.581294 0.852473 0.065261
Si Si3 0.584023 0.250066 0.570878
Si Si4 0.156712 0.049225 0.435467
Si Si5 0.711294 0.707422 0.569798
Si Si6 0.225009 0.618586 0.433500
O O1 0.500000 0.548162 0.250000
O O2 0.422131 0.567925 0.019288
O O3 0.500000 0.500000 0.000000
O O4 0.583261 0.854689 0.250000
O O5 0.500000 0.863117 0.016687
O O6 0.595418 0.801065 0.025447
O O7 0.644510 0.881540 0.997281
O O8 0.605447 0.254521 0.750000
O O9 0.500000 0.258122 0.561460
O O10 0.629139 0.282975 0.468872
O O11 0.158170 0.047234 0.250000
O O12 0.222405 0.079580 0.485859
O O13 0.162768 0.000000 0.500000
O O14 0.724591 0.704639 0.750000
O O15 0.750000 0.750000 0.500000
O O16 0.739830 0.663854 0.490038
O O17 0.222263 0.618166 0.250000
#
# Coordination Sequence:
#
# PCOD9475617 Si02
#       6
#     8  16  16  16  16  16
#     4   8  14  30  54  78 104 136 172 210 252 302
#     4   9  18  33  54  78 103 136 179 221 267 320
#     4   9  18  34  54  74 100 137 179 221 267 315
#     4   9  19  35  57  82 108 137 176 217 261 314
#     4  12  23  35  52  75 107 143 180 222 264 312
#     4  11  22  35  53  81 110 140 179 219 266 322
#
# _framework density 17.683582000000001
#
# number of rings (size 3 to 8) (size 9 to 14) (size 15 to 20)
#    0.000    2.182    1.818    3.273    0.000    2.182 
#    1.636    1.818    0.000    0.545    0.000    0.000 
#    0.000    0.000    0.000    0.000    0.000    0.000 
#
# Total GULP energy -245348.155378 kJ/mol
# GULP energy per Si atom -5576.094440 kJ/mol
# Density = 1.764333 g / cm^3
# Si number density = 17.683582 Si / 1000 Ang^3
#
#
#
# Elastic Constant Matrix: (Units=GPa)
#
#
# Indices 1 2 3 4 5 6 
#
# 1 156.2322 58.4557 30.8137 0.0000 0.0000 0.0000
# 2 58.4557 64.0997 12.4147 0.0000 0.0000 0.0000
# 3 30.8137 12.4147 21.2243 0.0000 0.0000 0.0000
# 4 0.0000 0.0000 0.0000 20.8282 0.0000 0.0000
# 5 0.0000 0.0000 0.0000 0.0000 31.3216 0.0000
# 6 0.0000 0.0000 0.0000 0.0000 0.0000 30.5525
#
#
#
# Elastic Compliance Matrix: (Units=1/GPa)
#
#
# Indices 1 2 3 4 5 6 
#
# 1 0.012087 -0.008598 -0.012519 0.000000 0.000000 0.000000
# 2 -0.008598 0.023710 -0.001386 0.000000 0.000000 0.000000
# 3 -0.012519 -0.001386 0.066101 0.000000 0.000000 0.000000
# 4 0.000000 0.000000 0.000000 0.048012 0.000000 0.000000
# 5 0.000000 0.000000 0.000000 0.000000 0.031927 0.000000
# 6 0.000000 0.000000 0.000000 0.000000 0.000000 0.032730
#
#
# Mechanical properties :
#
#
# Convention : Reuss Voigt Hill
#
# Bulk Modulus (GPa) = 17.57689 49.43605 33.50647
# Shear Modulus (GPa) = 17.95095 25.86526 21.90811
#
# Velocity S-wave (km/s) = 3.18955 3.82864 3.52361
# Velocity P-wave (km/s) = 4.85031 6.89646 5.96183
#
# Compressibility (1/GPa) = 0.05689290
#
# Stress axis : x y z
#
# Youngs Moduli (GPa) = 82.73508 42.17621 15.12832
#
# Poissons Ratio (x) = 0.36263 0.18938
# Poissons Ratio (y) = 0.71135 0.02097
# Poissons Ratio (z) = 1.03572 0.05846
#
# Static dielectric constant tensor:
#      x y z
#    x 1.679530 0.000000 0.000000 
#    y 0.000000 1.551330 0.000000 
#    z 0.000000 0.000000 1.603900 
# 
# From -- ./inp_files/6871.got.cif
#   From: 2010.05.17/outbox.cif.g08.bks.cpg/sg63_4_cif.got.tgz:6871.got - 2010.06.03 15:47:04.
