data_PCOD9475392
_publ_section_title
;
Structure prediction by ZEFSAII (Michael W. Deem and Ramdas Pophale) SiO2 
 PCOD9475392
Probable space group: C M C M
;
_chemical_formula_sum "Si O2"
_cell_formula_units_Z 80
_cell_length_a 19.079230
_cell_length_b 23.364906
_cell_length_c 11.347107
_cell_angle_alpha 90.000000
_cell_angle_beta 90.000000
_cell_angle_gamma 90.000000
_cell_volume 5058.363462
_symmetry_space_group_name_H-M "C M C M"
_symmetry_group_IT_number 63
_symmetry_cell_setting 'orthorhombic'
loop_
_space_group_symop_operation_xyz
x,y,z
-x,-y,1/2+z
x,-y,-z
-x,y,1/2-z
-x,-y,-z
x,y,1/2-z
-x,y,z
x,-y,1/2+z
1/2+x,1/2+y,z
1/2-x,1/2-y,1/2+z
1/2+x,1/2-y,-z
1/2-x,1/2+y,1/2-z
1/2-x,1/2-y,-z
1/2+x,1/2+y,1/2-z
1/2-x,1/2+y,z
1/2+x,1/2-y,1/2+z
loop_
_atom_site_type_symbol
_atom_site_label
_atom_site_fract_x
_atom_site_fract_y
_atom_site_fract_z
Si Si1 0.357244 0.268348 0.995250
Si Si2 0.766560 0.666157 0.392698
Si Si3 0.078954 0.729326 0.750000
Si Si4 0.920415 0.594087 0.750000
Si Si5 0.500000 0.885423 0.890195
Si Si6 0.000000 0.748737 0.390633
Si Si7 0.858657 0.566411 0.499988
O O1 0.304650 0.319815 0.964182
O O2 0.379342 0.245490 0.866892
O O3 0.317086 0.219318 0.070114
O O4 0.430023 0.278656 0.061991
O O5 0.758505 0.664745 0.250000
O O6 0.802168 0.608557 0.441420
O O7 0.071546 0.661770 0.750000
O O8 0.000000 0.754614 0.750000
O O9 0.877110 0.579288 0.634772
O O10 0.000000 0.568845 0.750000
O O11 0.500000 0.882906 0.750000
O O12 0.500000 0.818628 0.933359
O O13 0.568628 0.918540 0.933352
O O14 0.000000 0.747500 0.250000
O O15 0.839482 0.500000 0.500000
#
# Coordination Sequence:
#
# PCOD9475392 Si02
#       7
#    16  16   8   8   8   8  16
#     4  11  21  35  56  81 106 143 180 220 277 331
#     4  11  23  38  53  77 112 147 184 227 275 329
#     4  11  18  34  55  76 110 136 173 229 270 323
#     4  11  22  36  49  74 110 142 189 235 266 313
#     4  11  21  36  54  78 112 150 192 228 264 318
#     4  11  20  36  58  84 115 144 177 224 274 331
#     4  12  25  37  53  75 106 152 196 232 269 316
#
# _framework density 15.815391999999999
#
# number of rings (size 3 to 8) (size 9 to 14) (size 15 to 20)
#    0.000    0.800    7.000    1.500    2.800    0.000 
#    1.800    0.000    0.000    0.000    0.000    0.700 
#    0.000    0.000    0.000    0.000    0.000    0.000 
#
# Total GULP energy -223202.026139 kJ/mol
# GULP energy per Si atom -5580.050653 kJ/mol
# Density = 1.577940 g / cm^3
# Si number density = 15.815392 Si / 1000 Ang^3
#
#
#
# Elastic Constant Matrix: (Units=GPa)
#
#
# Indices 1 2 3 4 5 6 
#
# 1 106.3884 58.5131 36.7033 0.0000 0.0000 0.0000
# 2 58.5131 93.6979 36.0279 0.0000 0.0000 0.0000
# 3 36.7033 36.0279 104.4177 0.0000 0.0000 0.0000
# 4 0.0000 0.0000 0.0000 14.8288 0.0000 0.0000
# 5 0.0000 0.0000 0.0000 0.0000 26.4695 0.0000
# 6 0.0000 0.0000 0.0000 0.0000 0.0000 14.4034
#
#
#
# Elastic Compliance Matrix: (Units=1/GPa)
#
#
# Indices 1 2 3 4 5 6 
#
# 1 0.014789 -0.008343 -0.002319 0.000000 0.000000 0.000000
# 2 -0.008343 0.017012 -0.002937 0.000000 0.000000 0.000000
# 3 -0.002319 -0.002937 0.011406 0.000000 0.000000 0.000000
# 4 0.000000 0.000000 0.000000 0.067436 0.000000 0.000000
# 5 0.000000 0.000000 0.000000 0.000000 0.037779 0.000000
# 6 0.000000 0.000000 0.000000 0.000000 0.000000 0.069428
#
#
# Mechanical properties :
#
#
# Convention : Reuss Voigt Hill
#
# Bulk Modulus (GPa) = 62.47453 62.99916 62.73684
# Shear Modulus (GPa) = 19.96923 22.69101 21.33012
#
# Velocity S-wave (km/s) = 3.55723 3.79191 3.67644
# Velocity P-wave (km/s) = 7.51398 7.68713 7.60105
#
# Compressibility (1/GPa) = 0.01600652
#
# Stress axis : x y z
#
# Youngs Moduli (GPa) = 67.61993 58.78104 87.67597
#
# Poissons Ratio (x) = 0.49043 0.20336
# Poissons Ratio (y) = 0.56418 0.25751
# Poissons Ratio (z) = 0.15684 0.17265
#
# Static dielectric constant tensor:
#      x y z
#    x 1.564690 0.000000 0.000000 
#    y 0.000000 1.515260 0.000000 
#    z 0.000000 0.000000 1.562440 
# 
# From -- ./inp_files/21079.got.cif
#   From: 2010.05.17/outbox.cif.g08.bks.cpg/sg63_11_cif.got.tgz:21079.got - 2010.06.03 15:47:04.
