data_PCOD9475105
_publ_section_title
;
Structure prediction by ZEFSAII (Michael W. Deem and Ramdas Pophale) SiO2 
 PCOD9475105
Probable space group: C M C M
;
_chemical_formula_sum "Si O2"
_cell_formula_units_Z 96
_cell_length_a 17.223605
_cell_length_b 15.279656
_cell_length_c 18.846280
_cell_angle_alpha 90.000000
_cell_angle_beta 90.000000
_cell_angle_gamma 90.000000
_cell_volume 4959.789821
_symmetry_space_group_name_H-M "C M C M"
_symmetry_group_IT_number 63
_symmetry_cell_setting 'orthorhombic'
loop_
_space_group_symop_operation_xyz
x,y,z
-x,-y,1/2+z
x,-y,-z
-x,y,1/2-z
-x,-y,-z
x,y,1/2-z
-x,y,z
x,-y,1/2+z
1/2+x,1/2+y,z
1/2-x,1/2-y,1/2+z
1/2+x,1/2-y,-z
1/2-x,1/2+y,1/2-z
1/2-x,1/2-y,-z
1/2+x,1/2+y,1/2-z
1/2-x,1/2+y,z
1/2+x,1/2-y,1/2+z
loop_
_atom_site_type_symbol
_atom_site_label
_atom_site_fract_x
_atom_site_fract_y
_atom_site_fract_z
Si Si1 0.335317 0.548749 0.394305
Si Si2 0.361414 0.879447 0.422259
Si Si3 0.591345 0.184169 0.428666
Si Si4 0.810952 0.857911 0.457159
Si Si5 0.000000 0.303187 0.330199
Si Si6 0.326096 0.051902 0.331312
Si Si7 0.500000 0.594974 0.170187
O O1 0.333919 0.446866 0.416508
O O2 0.312764 0.610051 0.461226
O O3 0.266717 0.563368 0.338072
O O4 0.421288 0.568772 0.368749
O O5 0.394964 0.876828 0.501874
O O6 0.276367 0.836208 0.431592
O O7 0.423494 0.831466 0.372857
O O8 0.347559 0.972905 0.385065
O O9 0.500000 0.195972 0.418335
O O10 0.632721 0.276730 0.444223
O O11 0.630610 0.136550 0.362018
O O12 0.000000 0.339473 0.250000
O O13 0.000000 0.199344 0.326269
O O14 0.347306 0.032770 0.250000
O O15 0.500000 0.558556 0.250000
#
# Coordination Sequence:
#
# PCOD9475105 Si02
#       7
#    16  16  16  16   8  16   8
#     4  10  22  42  68  94 126 167 217 266 326 384
#     4  11  22  43  66  93 128 167 213 269 322 379
#     4  12  25  40  67  98 128 166 217 268 321 380
#     4  10  23  41  69  97 124 165 215 272 321 380
#     4  11  24  38  64 101 132 166 215 271 325 381
#     4  11  25  44  65  91 130 175 216 262 322 389
#     4  11  24  39  61  93 133 171 209 264 325 385
#
# _framework density 19.355658999999999
#
# number of rings (size 3 to 8) (size 9 to 14) (size 15 to 20)
#    0.000    1.167    2.500    3.000    5.833    1.667 
#    0.000    4.167    0.000    0.000    0.000    0.000 
#    0.000    0.000    0.000    0.000    0.000    0.000 
#
# Total GULP energy -268167.565353 kJ/mol
# GULP energy per Si atom -5586.824278 kJ/mol
# Density = 1.931160 g / cm^3
# Si number density = 19.355659 Si / 1000 Ang^3
#
#
#
# Elastic Constant Matrix: (Units=GPa)
#
#
# Indices 1 2 3 4 5 6 
#
# 1 166.4892 54.4152 58.8569 0.0000 0.0000 0.0000
# 2 54.4152 86.6295 35.6467 0.0000 0.0000 0.0000
# 3 58.8569 35.6467 105.9011 0.0000 0.0000 0.0000
# 4 0.0000 0.0000 0.0000 12.0929 0.0000 0.0000
# 5 0.0000 0.0000 0.0000 0.0000 -2.8240 0.0000
# 6 0.0000 0.0000 0.0000 0.0000 0.0000 37.9102
#
#
#
# Elastic Compliance Matrix: (Units=1/GPa)
#
#
# Indices 1 2 3 4 5 6 
#
# 1 0.008494 -0.003938 -0.003395 0.000000 0.000000 0.000000
# 2 -0.003938 0.015225 -0.002936 0.000000 0.000000 0.000000
# 3 -0.003395 -0.002936 0.012318 0.000000 0.000000 0.000000
# 4 0.000000 0.000000 0.000000 0.082693 0.000000 0.000000
# 5 0.000000 0.000000 0.000000 0.000000 -0.354110 0.000000
# 6 0.000000 0.000000 0.000000 0.000000 0.000000 0.026378
#
#
# Mechanical properties :
#
#
# Convention : Reuss Voigt Hill
#
# Bulk Modulus (GPa) = 64.52319 72.98417 68.75368
# Shear Modulus (GPa) = -27.27812 23.44255 -1.91778
#
# Velocity S-wave (km/s) = -3.75815 3.48393 -0.99648
# Velocity P-wave (km/s) = 3.81790 7.34659 5.85443
#
# Compressibility (1/GPa) = 0.01549830
#
# Stress axis : x y z
#
# Youngs Moduli (GPa) = 117.73354 65.67991 81.18261
#
# Poissons Ratio (x) = 0.25867 0.27561
# Poissons Ratio (y) = 0.46367 0.23836
# Poissons Ratio (z) = 0.39970 0.19284
#
# Static dielectric constant tensor:
#      x y z
#    x 1.671580 0.000000 0.000000 
#    y 0.000000 1.666870 0.000000 
#    z 0.000000 0.000000 1.671770 
# 
# From -- ./inp_files/54274.got.cif
#   From: 2010.05.17/outbox.cif.g08.bks.cpg/sg63_28_cif.got.tgz:54274.got - 2010.06.03 15:47:04.
