data_PCOD9475214
_publ_section_title
;
Structure prediction by ZEFSAII (Michael W. Deem and Ramdas Pophale) SiO2 
 PCOD9475214
Probable space group: C M C M
;
_chemical_formula_sum "Si O2"
_cell_formula_units_Z 96
_cell_length_a 8.351604
_cell_length_b 26.527234
_cell_length_c 23.791704
_cell_angle_alpha 90.000000
_cell_angle_beta 90.000000
_cell_angle_gamma 90.000000
_cell_volume 5270.931958
_symmetry_space_group_name_H-M "C M C M"
_symmetry_group_IT_number 63
_symmetry_cell_setting 'orthorhombic'
loop_
_space_group_symop_operation_xyz
x,y,z
-x,-y,1/2+z
x,-y,-z
-x,y,1/2-z
-x,-y,-z
x,y,1/2-z
-x,y,z
x,-y,1/2+z
1/2+x,1/2+y,z
1/2-x,1/2-y,1/2+z
1/2+x,1/2-y,-z
1/2-x,1/2+y,1/2-z
1/2-x,1/2-y,-z
1/2+x,1/2+y,1/2-z
1/2-x,1/2+y,z
1/2+x,1/2-y,1/2+z
loop_
_atom_site_type_symbol
_atom_site_label
_atom_site_fract_x
_atom_site_fract_y
_atom_site_fract_z
Si Si1 0.683067 0.348190 0.378122
Si Si2 0.185373 0.305176 0.489454
Si Si3 0.190851 0.157884 0.395476
Si Si4 0.307928 0.056338 0.565542
Si Si5 0.194107 0.440441 0.934740
Si Si6 0.807507 0.249950 0.313780
O O1 0.500000 0.352116 0.361270
O O2 0.705342 0.327909 0.441359
O O3 0.753676 0.404136 0.387009
O O4 0.760496 0.303703 0.340917
O O5 0.250000 0.250000 0.500000
O O6 0.207395 0.331275 0.548813
O O7 0.000000 0.306368 0.471132
O O8 0.227865 0.098448 0.390583
O O9 0.240215 0.200441 0.350131
O O10 0.000000 0.164517 0.405121
O O11 0.500000 0.058984 0.563152
O O12 0.255583 0.068164 0.500691
O O13 0.262533 0.998592 0.577421
O O14 0.000000 0.436276 0.932559
O O15 0.746609 0.246532 0.250000
O O16 0.000000 0.248668 0.312557
#
# Coordination Sequence:
#
# PCOD9475214 Si02
#       6
#    16  16  16  16  16  16
#     4  12  23  34  54  83 113 145 180 227 277 325
#     4  12  22  33  50  77 112 146 179 217 269 333
#     4  11  21  33  54  82 111 142 180 226 274 329
#     4   9  18  33  52  77 112 152 186 219 263 322
#     4   9  18  32  52  78 112 151 185 219 264 319
#     4  10  23  42  60  77 104 146 188 228 278 332
#
# _framework density 18.213097999999999
#
# number of rings (size 3 to 8) (size 9 to 14) (size 15 to 20)
#    0.000    1.500    3.333    4.500    0.000    1.667 
#    0.000    1.667    0.000    1.000    0.000    4.667 
#    0.000    0.000    0.000    0.000    0.000    0.000 
#
# Total GULP energy -267424.406891 kJ/mol
# GULP energy per Si atom -5571.341810 kJ/mol
# Density = 1.817164 g / cm^3
# Si number density = 18.213098 Si / 1000 Ang^3
#
#
#
# Elastic Constant Matrix: (Units=GPa)
#
#
# Indices 1 2 3 4 5 6 
#
# 1 25.2220 13.9222 0.8636 0.0000 0.0000 0.0000
# 2 13.9222 152.4691 46.9468 0.0000 0.0000 0.0000
# 3 0.8636 46.9468 71.4406 0.0000 0.0000 0.0000
# 4 0.0000 0.0000 0.0000 9.8399 0.0000 0.0000
# 5 0.0000 0.0000 0.0000 0.0000 13.4721 0.0000
# 6 0.0000 0.0000 0.0000 0.0000 0.0000 25.8914
#
#
#
# Elastic Compliance Matrix: (Units=1/GPa)
#
#
# Indices 1 2 3 4 5 6 
#
# 1 0.042114 -0.004624 0.002530 0.000000 0.000000 0.000000
# 2 -0.004624 0.008730 -0.005681 0.000000 0.000000 0.000000
# 3 0.002530 -0.005681 0.017700 0.000000 0.000000 0.000000
# 4 0.000000 0.000000 0.000000 0.101627 0.000000 0.000000
# 5 0.000000 0.000000 0.000000 0.000000 0.074227 0.000000
# 6 0.000000 0.000000 0.000000 0.000000 0.000000 0.038623
#
#
# Mechanical properties :
#
#
# Convention : Reuss Voigt Hill
#
# Bulk Modulus (GPa) = 18.87040 41.39965 30.13502
# Shear Modulus (GPa) = 15.81091 22.33397 19.07244
#
# Velocity S-wave (km/s) = 2.94956 3.50560 3.23953
# Velocity P-wave (km/s) = 4.68863 6.25825 5.52942
#
# Compressibility (1/GPa) = 0.05299305
#
# Stress axis : x y z
#
# Youngs Moduli (GPa) = 23.74515 114.54432 56.49600
#
# Poissons Ratio (x) = 0.52971 -0.14293
# Poissons Ratio (y) = 0.10981 0.32096
# Poissons Ratio (z) = -0.06007 0.65074
#
# Static dielectric constant tensor:
#      x y z
#    x 1.627440 0.000000 0.000000 
#    y 0.000000 1.734270 0.000000 
#    z 0.000000 0.000000 1.619860 
# 
# From -- ./inp_files/51392.got.cif
#   From: 2010.05.17/outbox.cif.g08.bks.cpg/sg63_26_cif.got.tgz:51392.got - 2010.06.03 15:47:04.
