data_PCOD9475919
_publ_section_title
;
Structure prediction by ZEFSAII (Michael W. Deem and Ramdas Pophale) SiO2 
 PCOD9475919
Probable space group: C M C M
;
_chemical_formula_sum "Si O2"
_cell_formula_units_Z 68
_cell_length_a 16.858954
_cell_length_b 7.536107
_cell_length_c 23.349698
_cell_angle_alpha 90.000000
_cell_angle_beta 90.000000
_cell_angle_gamma 90.000000
_cell_volume 2966.599708
_symmetry_space_group_name_H-M "C M C M"
_symmetry_group_IT_number 63
_symmetry_cell_setting 'orthorhombic'
loop_
_space_group_symop_operation_xyz
x,y,z
-x,-y,1/2+z
x,-y,-z
-x,y,1/2-z
-x,-y,-z
x,y,1/2-z
-x,y,z
x,-y,1/2+z
1/2+x,1/2+y,z
1/2-x,1/2-y,1/2+z
1/2+x,1/2-y,-z
1/2-x,1/2+y,1/2-z
1/2-x,1/2-y,-z
1/2+x,1/2+y,1/2-z
1/2-x,1/2+y,z
1/2+x,1/2-y,1/2+z
loop_
_atom_site_type_symbol
_atom_site_label
_atom_site_fract_x
_atom_site_fract_y
_atom_site_fract_z
Si Si1 0.680211 0.228158 0.188433
Si Si2 0.356874 0.825875 0.167255
Si Si3 0.591862 0.659733 0.576625
Si Si4 0.500000 0.276375 0.750000
Si Si5 0.591645 0.756449 0.044473
O O1 0.659162 0.311475 0.250000
O O2 0.774713 0.229839 0.181601
O O3 0.641735 0.318860 0.133646
O O4 0.649525 0.027458 0.188400
O O5 0.430354 0.735918 0.199419
O O6 0.365603 0.840149 0.098564
O O7 0.500000 0.711002 0.587054
O O8 0.621751 0.769102 0.520875
O O9 0.592072 0.453529 0.559215
O O10 0.500000 0.815462 0.044261
#
# Coordination Sequence:
#
# PCOD9475919 Si02
#       5
#    16  16  16   4  16
#     4  12  25  42  62  96 135 168 215 269 325 381
#     4  12  25  43  69  94 133 172 216 267 325 385
#     4   9  21  40  66  96 133 170 218 269 325 382
#     4  12  24  44  68  98 126 178 210 264 324 394
#     4   9  19  41  66  95 128 173 220 268 318 387
#
# _framework density 22.921865
#
# number of rings (size 3 to 8) (size 9 to 14) (size 15 to 20)
#    0.000    1.412    3.529    2.824    1.647    2.353 
#    2.118    2.353    0.000    1.412    0.000    0.000 
#    0.000    0.000    0.000    0.000    0.000    0.000 
#
# Total GULP energy -189652.715460 kJ/mol
# GULP energy per Si atom -5578.021043 kJ/mol
# Density = 2.286969 g / cm^3
# Si number density = 22.921865 Si / 1000 Ang^3
#
#
#
# Elastic Constant Matrix: (Units=GPa)
#
#
# Indices 1 2 3 4 5 6 
#
# 1 85.0819 3.7883 85.5519 0.0000 0.0000 0.0000
# 2 3.7883 25.0188 21.4893 0.0000 0.0000 0.0000
# 3 85.5519 21.4893 250.1006 0.0000 0.0000 0.0000
# 4 0.0000 0.0000 0.0000 26.0310 0.0000 0.0000
# 5 0.0000 0.0000 0.0000 0.0000 24.1039 0.0000
# 6 0.0000 0.0000 0.0000 0.0000 0.0000 5.5170
#
#
#
# Elastic Compliance Matrix: (Units=1/GPa)
#
#
# Indices 1 2 3 4 5 6 
#
# 1 0.018093 0.002782 -0.006428 0.000000 0.000000 0.000000
# 2 0.002782 0.043582 -0.004696 0.000000 0.000000 0.000000
# 3 -0.006428 -0.004696 0.006601 0.000000 0.000000 0.000000
# 4 0.000000 0.000000 0.000000 0.038416 0.000000 0.000000
# 5 0.000000 0.000000 0.000000 0.000000 0.041487 0.000000
# 6 0.000000 0.000000 0.000000 0.000000 0.000000 0.181258
#
#
# Mechanical properties :
#
#
# Convention : Reuss Voigt Hill
#
# Bulk Modulus (GPa) = 19.38323 64.65116 42.01720
# Shear Modulus (GPa) = 13.76199 27.75516 20.75857
#
# Velocity S-wave (km/s) = 2.45294 3.48352 3.01262
# Velocity P-wave (km/s) = 4.06166 6.66679 5.52011
#
# Compressibility (1/GPa) = 0.05159098
#
# Stress axis : x y z
#
# Youngs Moduli (GPa) = 55.26940 22.94499 151.49714
#
# Poissons Ratio (x) = -0.06382 0.97385
# Poissons Ratio (y) = -0.15374 0.71147
# Poissons Ratio (z) = 0.35528 0.10776
#
# Static dielectric constant tensor:
#      x y z
#    x 1.798210 0.000000 0.000000 
#    y 0.000000 1.901380 0.000000 
#    z 0.000000 0.000000 1.926020 
# 
# From -- ./inp_files/55106.got.cif
#   From: 2010.05.17/outbox.cif.g08.bks.cpg/sg63_28_cif.got.tgz:55106.got - 2010.06.03 15:47:04.
