data_PCOD9475829
_publ_section_title
;
Structure prediction by ZEFSAII (Michael W. Deem and Ramdas Pophale) SiO2 
 PCOD9475829
Probable space group: C M C M
;
_chemical_formula_sum "Si O2"
_cell_formula_units_Z 96
_cell_length_a 18.967056
_cell_length_b 9.423568
_cell_length_c 28.420534
_cell_angle_alpha 90.000000
_cell_angle_beta 90.000000
_cell_angle_gamma 90.000000
_cell_volume 5079.810705
_symmetry_space_group_name_H-M "C M C M"
_symmetry_group_IT_number 63
_symmetry_cell_setting 'orthorhombic'
loop_
_space_group_symop_operation_xyz
x,y,z
-x,-y,1/2+z
x,-y,-z
-x,y,1/2-z
-x,-y,-z
x,y,1/2-z
-x,y,z
x,-y,1/2+z
1/2+x,1/2+y,z
1/2-x,1/2-y,1/2+z
1/2+x,1/2-y,-z
1/2-x,1/2+y,1/2-z
1/2-x,1/2-y,-z
1/2+x,1/2+y,1/2-z
1/2-x,1/2+y,z
1/2+x,1/2-y,1/2+z
loop_
_atom_site_type_symbol
_atom_site_label
_atom_site_fract_x
_atom_site_fract_y
_atom_site_fract_z
Si Si1 0.676329 0.969655 0.128990
Si Si2 0.419714 0.794469 0.306191
Si Si3 0.322295 0.697714 0.620774
Si Si4 0.415280 0.531996 0.694979
Si Si5 0.082075 0.619999 0.959626
Si Si6 0.177450 0.834654 0.011241
O O1 0.632950 0.907317 0.172493
O O2 0.749787 0.888156 0.125455
O O3 0.628526 0.932942 0.083819
O O4 0.688225 0.136853 0.131320
O O5 0.420367 0.802375 0.250000
O O6 0.500000 0.818291 0.322926
O O7 0.399098 0.632165 0.317930
O O8 0.377261 0.632749 0.657872
O O9 0.342924 0.683233 0.565929
O O10 0.394686 0.555630 0.750000
O O11 0.500000 0.547498 0.692840
O O12 0.000000 0.639283 0.947388
O O13 0.086728 0.500000 0.000000
O O14 0.117234 0.762893 0.979547
O O15 0.250000 0.750000 0.000000
O O16 0.187837 0.000000 0.000000
#
# Coordination Sequence:
#
# PCOD9475829 Si02
#       6
#    16  16  16  16  16  16
#     4  12  24  40  62  93 124 165 209 261 309 374
#     4   9  20  41  67  92 124 166 206 253 318 383
#     4  12  25  39  65  94 124 169 216 258 322 378
#     4   9  21  43  67  94 129 164 205 264 325 381
#     4  11  24  43  64  91 128 165 205 257 316 371
#     4  12  24  42  66  91 129 171 214 262 315 377
#
# _framework density 18.898340999999999
#
# number of rings (size 3 to 8) (size 9 to 14) (size 15 to 20)
#    0.000    1.167    3.333    4.000    2.333    3.667 
#    0.000    1.667    0.000    0.000    0.000    0.000 
#    0.000    0.000    0.000    0.000    0.000    0.000 
#
# Total GULP energy -268322.359399 kJ/mol
# GULP energy per Si atom -5590.049154 kJ/mol
# Density = 1.885533 g / cm^3
# Si number density = 18.898341 Si / 1000 Ang^3
#
#
#
# Elastic Constant Matrix: (Units=GPa)
#
#
# Indices 1 2 3 4 5 6 
#
# 1 71.8838 57.9029 24.7610 0.0000 0.0000 0.0000
# 2 57.9029 169.2555 50.2469 0.0000 0.0000 0.0000
# 3 24.7610 50.2469 64.1991 0.0000 0.0000 0.0000
# 4 0.0000 0.0000 0.0000 29.8424 0.0000 0.0000
# 5 0.0000 0.0000 0.0000 0.0000 36.0622 0.0000
# 6 0.0000 0.0000 0.0000 0.0000 0.0000 1132.7010
#
#
#
# Elastic Compliance Matrix: (Units=1/GPa)
#
#
# Indices 1 2 3 4 5 6 
#
# 1 0.019642 -0.005824 -0.003018 0.000000 0.000000 0.000000
# 2 -0.005824 0.009423 -0.005129 0.000000 0.000000 0.000000
# 3 -0.003018 -0.005129 0.020755 0.000000 0.000000 0.000000
# 4 0.000000 0.000000 0.000000 0.033509 0.000000 0.000000
# 5 0.000000 0.000000 0.000000 0.000000 0.027730 0.000000
# 6 0.000000 0.000000 0.000000 0.000000 0.000000 0.000883
#
#
# Mechanical properties :
#
#
# Convention : Reuss Voigt Hill
#
# Bulk Modulus (GPa) = 45.70600 63.46222 54.58411
# Shear Modulus (GPa) = 33.97293 251.21628 142.59461
#
# Velocity S-wave (km/s) = 4.24449 11.54205 8.69582
# Velocity P-wave (km/s) = 6.94684 14.53544 11.39161
#
# Compressibility (1/GPa) = 0.02187897
#
# Stress axis : x y z
#
# Youngs Moduli (GPa) = 50.91174 106.12078 48.18145
#
# Poissons Ratio (x) = 0.61802 0.14539
# Poissons Ratio (y) = 0.29649 0.24713
# Poissons Ratio (z) = 0.15363 0.54431
#
# Static dielectric constant tensor:
#      x y z
#    x 1.639280 0.000000 0.000000 
#    y 0.000000 1.631210 0.000000 
#    z 0.000000 0.000000 1.736280 
# 
# From -- ./inp_files/70281.got.cif
#   From: 2010.05.17/outbox.cif.g08.bks.cpg/sg63_36_cif.got.tgz:70281.got - 2010.06.03 15:47:04.
