data_PCOD9475501
_publ_section_title
;
Structure prediction by ZEFSAII (Michael W. Deem and Ramdas Pophale) SiO2 
 PCOD9475501
Probable space group: C M C M
;
_chemical_formula_sum "Si O2"
_cell_formula_units_Z 96
_cell_length_a 26.190780
_cell_length_b 25.916657
_cell_length_c 8.742226
_cell_angle_alpha 90.000000
_cell_angle_beta 90.000000
_cell_angle_gamma 90.000000
_cell_volume 5934.025975
_symmetry_space_group_name_H-M "C M C M"
_symmetry_group_IT_number 63
_symmetry_cell_setting 'orthorhombic'
loop_
_space_group_symop_operation_xyz
x,y,z
-x,-y,1/2+z
x,-y,-z
-x,y,1/2-z
-x,-y,-z
x,y,1/2-z
-x,y,z
x,-y,1/2+z
1/2+x,1/2+y,z
1/2-x,1/2-y,1/2+z
1/2+x,1/2-y,-z
1/2-x,1/2+y,1/2-z
1/2-x,1/2-y,-z
1/2+x,1/2+y,1/2-z
1/2-x,1/2+y,z
1/2+x,1/2-y,1/2+z
loop_
_atom_site_type_symbol
_atom_site_label
_atom_site_fract_x
_atom_site_fract_y
_atom_site_fract_z
Si Si1 0.358904 0.942122 0.932395
Si Si2 0.753888 0.442046 0.433397
Si Si3 0.859429 0.057625 0.934482
Si Si4 0.441369 0.358929 0.433927
Si Si5 0.559862 0.863707 0.435388
Si Si6 0.561949 0.250922 0.926152
O O1 0.357874 0.945305 0.750000
O O2 0.304987 0.919199 0.993283
O O3 0.404891 0.906806 0.990748
O O4 0.364023 0.000000 0.000000
O O5 0.752340 0.500000 0.500000
O O6 0.759589 0.443308 0.250000
O O7 0.697487 0.421117 0.471323
O O8 0.861991 0.053798 0.750000
O O9 0.903391 0.096390 0.988674
O O10 0.865165 0.000000 0.000000
O O11 0.442148 0.360760 0.250000
O O12 0.500000 0.366251 0.488074
O O13 0.423233 0.302063 0.483375
O O14 0.563370 0.865772 0.250000
O O15 0.500000 0.870491 0.474769
O O16 0.577072 0.805882 0.483393
O O17 0.578262 0.256192 0.750000
O O18 0.500000 0.249560 0.927158
#
# Coordination Sequence:
#
# PCOD9475501 Si02
#       6
#    16  16  16  16  16  16
#     4  11  21  32  48  70  95 121 151 186 226 272
#     4   9  16  29  47  64  86 117 155 193 226 265
#     4   9  18  30  45  67  93 123 156 190 229 271
#     4   9  17  29  45  67  96 125 152 186 229 274
#     4   9  18  33  51  70  94 122 151 185 225 269
#     4   8  15  29  48  68  89 117 154 189 221 263
#
# _framework density 16.177886000000001
#
# number of rings (size 3 to 8) (size 9 to 14) (size 15 to 20)
#    0.000    2.833    0.000    4.000    0.000    3.000 
#    0.000    1.667    0.000    1.000    0.000    0.000 
#    0.000    0.000    0.000    0.000    0.000    0.000 
#
# Total GULP energy -267211.953227 kJ/mol
# GULP energy per Si atom -5566.915692 kJ/mol
# Density = 1.614106 g / cm^3
# Si number density = 16.177886 Si / 1000 Ang^3
#
#
#
# Elastic Constant Matrix: (Units=GPa)
#
#
# Indices 1 2 3 4 5 6 
#
# 1 111.4992 71.7873 39.9006 0.0000 0.0000 0.0000
# 2 71.7873 101.8261 31.9859 0.0000 0.0000 0.0000
# 3 39.9006 31.9859 42.6547 0.0000 0.0000 0.0000
# 4 0.0000 0.0000 0.0000 25.5466 0.0000 0.0000
# 5 0.0000 0.0000 0.0000 0.0000 18.3476 0.0000
# 6 0.0000 0.0000 0.0000 0.0000 0.0000 -5.5146
#
#
#
# Elastic Compliance Matrix: (Units=1/GPa)
#
#
# Indices 1 2 3 4 5 6 
#
# 1 0.019358 -0.010412 -0.010301 0.000000 0.000000 0.000000
# 2 -0.010412 0.018447 -0.004093 0.000000 0.000000 0.000000
# 3 -0.010301 -0.004093 0.036149 0.000000 0.000000 0.000000
# 4 0.000000 0.000000 0.000000 0.039144 0.000000 0.000000
# 5 0.000000 0.000000 0.000000 0.000000 0.054503 0.000000
# 6 0.000000 0.000000 0.000000 0.000000 0.000000 -0.181336
#
#
# Mechanical properties :
#
#
# Convention : Reuss Voigt Hill
#
# Bulk Modulus (GPa) = 41.08037 60.36973 50.72505
# Shear Modulus (GPa) = 113.65744 15.16300 64.41022
#
# Velocity S-wave (km/s) = 8.39091 3.06480 6.31666
# Velocity P-wave (km/s) = 10.92357 7.06550 9.19907
#
# Compressibility (1/GPa) = 0.02434253
#
# Stress axis : x y z
#
# Youngs Moduli (GPa) = 51.65693 54.20970 27.66310
#
# Poissons Ratio (x) = 0.56443 0.28495
# Poissons Ratio (y) = 0.53785 0.11323
# Poissons Ratio (z) = 0.53211 0.22189
#
# Static dielectric constant tensor:
#      x y z
#    x 1.567970 0.000000 0.000000 
#    y 0.000000 1.567190 0.000000 
#    z 0.000000 0.000000 1.545510 
# 
# From -- ./inp_files/8612.got.cif
#   From: 2010.05.17/outbox.cif.g08.bks.cpg/sg63_5_cif.got.tgz:8612.got - 2010.06.03 15:47:04.
