data_PCOD9475421
_publ_section_title
;
Structure prediction by ZEFSAII (Michael W. Deem and Ramdas Pophale) SiO2 
 PCOD9475421
Probable space group: C M C M
;
_chemical_formula_sum "Si O2"
_cell_formula_units_Z 80
_cell_length_a 21.689245
_cell_length_b 12.941943
_cell_length_c 17.738903
_cell_angle_alpha 90.000000
_cell_angle_beta 90.000000
_cell_angle_gamma 90.000000
_cell_volume 4979.327323
_symmetry_space_group_name_H-M "C M C M"
_symmetry_group_IT_number 63
_symmetry_cell_setting 'orthorhombic'
loop_
_space_group_symop_operation_xyz
x,y,z
-x,-y,1/2+z
x,-y,-z
-x,y,1/2-z
-x,-y,-z
x,y,1/2-z
-x,y,z
x,-y,1/2+z
1/2+x,1/2+y,z
1/2-x,1/2-y,1/2+z
1/2+x,1/2-y,-z
1/2-x,1/2+y,1/2-z
1/2-x,1/2-y,-z
1/2+x,1/2+y,1/2-z
1/2-x,1/2+y,z
1/2+x,1/2-y,1/2+z
loop_
_atom_site_type_symbol
_atom_site_label
_atom_site_fract_x
_atom_site_fract_y
_atom_site_fract_z
Si Si1 0.167317 0.553677 0.340975
Si Si2 0.837654 0.797447 0.659429
Si Si3 0.570377 0.117504 0.841829
Si Si4 0.201040 0.994941 0.410558
Si Si5 0.300784 0.719707 0.660077
O O1 0.174754 0.545862 0.250000
O O2 0.109963 0.483048 0.363976
O O3 0.230107 0.511598 0.377357
O O4 0.162764 0.675209 0.358989
O O5 0.840003 0.810093 0.750000
O O6 0.891279 0.719170 0.635535
O O7 0.771025 0.745719 0.642570
O O8 0.838176 0.909426 0.621687
O O9 0.569429 0.117875 0.750000
O O10 0.500000 0.116464 0.868194
O O11 0.179436 0.882983 0.382564
O O12 0.202883 0.000000 0.500000
O O13 0.304762 0.702267 0.750000
#
# Coordination Sequence:
#
# PCOD9475421 Si02
#       5
#    16  16  16  16  16
#     4   9  17  30  47  70  96 124 154 189 239 287
#     4   9  17  29  47  70  96 124 156 192 234 281
#     4   9  16  29  51  74  93 116 154 200 235 270
#     4  11  20  28  44  71  99 129 153 193 235 278
#     4   9  16  29  48  67  93 124 150 187 237 283
#
# _framework density 16.066427000000001
#
# number of rings (size 3 to 8) (size 9 to 14) (size 15 to 20)
#    0.000    2.600    2.000    3.000    0.000    3.200 
#    0.000    0.000    0.000    2.400    0.000    5.600 
#    0.000    0.000    0.000    0.000    0.000    0.000 
#
# Total GULP energy -222924.485760 kJ/mol
# GULP energy per Si atom -5573.112144 kJ/mol
# Density = 1.602986 g / cm^3
# Si number density = 16.066427 Si / 1000 Ang^3
#
#
#
# Elastic Constant Matrix: (Units=GPa)
#
#
# Indices 1 2 3 4 5 6 
#
# 1 95.1737 73.0566 19.6001 0.0000 0.0000 0.0000
# 2 73.0566 175.7355 49.1552 0.0000 0.0000 0.0000
# 3 19.6001 49.1552 26.7433 0.0000 0.0000 0.0000
# 4 0.0000 0.0000 0.0000 -3.5073 0.0000 0.0000
# 5 0.0000 0.0000 0.0000 0.0000 3.0697 0.0000
# 6 0.0000 0.0000 0.0000 0.0000 0.0000 18.3388
#
#
#
# Elastic Compliance Matrix: (Units=1/GPa)
#
#
# Indices 1 2 3 4 5 6 
#
# 1 0.015444 -0.006698 0.000992 0.000000 0.000000 0.000000
# 2 -0.006698 0.014616 -0.021956 0.000000 0.000000 0.000000
# 3 0.000992 -0.021956 0.077022 0.000000 0.000000 0.000000
# 4 0.000000 0.000000 0.000000 -0.285121 0.000000 0.000000
# 5 0.000000 0.000000 0.000000 0.000000 0.325762 0.000000
# 6 0.000000 0.000000 0.000000 0.000000 0.000000 0.054529
#
#
# Mechanical properties :
#
#
# Convention : Reuss Voigt Hill
#
# Bulk Modulus (GPa) = 19.32067 64.58627 41.95347
# Shear Modulus (GPa) = 18.19306 13.96962 16.08134
#
# Velocity S-wave (km/s) = 3.36871 2.95191 3.16718
# Velocity P-wave (km/s) = 5.21369 7.20452 6.28839
#
# Compressibility (1/GPa) = 0.05175803
#
# Stress axis : x y z
#
# Youngs Moduli (GPa) = 64.74909 68.41690 12.98329
#
# Poissons Ratio (x) = 0.45825 -0.01288
# Poissons Ratio (y) = 0.43369 0.28507
# Poissons Ratio (z) = -0.06423 1.50219
#
# Static dielectric constant tensor:
#      x y z
#    x 1.516470 0.000000 0.000000 
#    y 0.000000 1.561120 0.000000 
#    z 0.000000 0.000000 1.523110 
# 
# From -- ./inp_files/36444.got.cif
#   From: 2010.05.17/outbox.cif.g08.bks.cpg/sg63_19_cif.got.tgz:36444.got - 2010.06.03 15:47:04.
