data_PCOD9475080
_publ_section_title
;
Structure prediction by ZEFSAII (Michael W. Deem and Ramdas Pophale) SiO2 
 PCOD9475080
Probable space group: C M C M
;
_chemical_formula_sum "Si O2"
_cell_formula_units_Z 72
_cell_length_a 29.036976
_cell_length_b 13.477399
_cell_length_c 9.786408
_cell_angle_alpha 90.000000
_cell_angle_beta 90.000000
_cell_angle_gamma 90.000000
_cell_volume 3829.841398
_symmetry_space_group_name_H-M "C M C M"
_symmetry_group_IT_number 63
_symmetry_cell_setting 'orthorhombic'
loop_
_space_group_symop_operation_xyz
x,y,z
-x,-y,1/2+z
x,-y,-z
-x,y,1/2-z
-x,-y,-z
x,y,1/2-z
-x,y,z
x,-y,1/2+z
1/2+x,1/2+y,z
1/2-x,1/2-y,1/2+z
1/2+x,1/2-y,-z
1/2-x,1/2+y,1/2-z
1/2-x,1/2-y,-z
1/2+x,1/2+y,1/2-z
1/2-x,1/2+y,z
1/2+x,1/2-y,1/2+z
loop_
_atom_site_type_symbol
_atom_site_label
_atom_site_fract_x
_atom_site_fract_y
_atom_site_fract_z
Si Si1 0.230028 0.099952 0.412058
Si Si2 0.418667 0.249212 0.992204
Si Si3 0.943085 0.108102 0.250000
Si Si4 0.000000 0.399575 0.413473
Si Si5 0.054491 0.120316 0.750000
Si Si6 0.819862 0.268094 0.588548
O O1 0.218054 0.088680 0.250000
O O2 0.198458 0.178808 0.493233
O O3 0.281520 0.146071 0.417265
O O4 0.227986 0.000000 0.500000
O O5 0.422264 0.331908 0.875570
O O6 0.455646 0.165682 0.954514
O O7 0.431745 0.313866 0.122758
O O8 0.368965 0.203583 0.025010
O O9 0.000000 0.115376 0.250000
O O10 0.928400 0.993101 0.250000
O O11 0.000000 0.500000 0.500000
O O12 0.000000 0.416581 0.250000
O O13 0.000000 0.109216 0.750000
O O14 0.824362 0.239901 0.750000
#
# Coordination Sequence:
#
# PCOD9475080 Si02
#       6
#    16  16   8   8   8  16
#     4  10  22  42  65  91 124 162 208 265 321 382
#     4  12  22  43  63  93 134 167 214 270 310 379
#     4  11  22  40  60  93 134 172 220 256 321 382
#     4  12  28  46  67  93 128 176 225 267 317 368
#     4  11  22  36  66  93 124 176 208 258 325 384
#     4  10  23  41  64  93 126 167 211 260 317 376
#
# _framework density 18.799734999999998
#
# number of rings (size 3 to 8) (size 9 to 14) (size 15 to 20)
#    0.000    1.111    4.444    1.333    3.111    5.333 
#    0.000    2.222    0.000    0.000    0.000    0.000 
#    0.000    0.000    0.000    0.000    0.000    0.000 
#
# Total GULP energy -200915.687603 kJ/mol
# GULP energy per Si atom -5580.991322 kJ/mol
# Density = 1.875695 g / cm^3
# Si number density = 18.799735 Si / 1000 Ang^3
#
#
#
# Elastic Constant Matrix: (Units=GPa)
#
#
# Indices 1 2 3 4 5 6 
#
# 1 95.0580 12.1546 29.1336 0.0000 0.0000 0.0000
# 2 12.1546 93.7362 47.3620 0.0000 0.0000 0.0000
# 3 29.1336 47.3620 173.5244 0.0000 0.0000 0.0000
# 4 0.0000 0.0000 0.0000 37.3592 0.0000 0.0000
# 5 0.0000 0.0000 0.0000 0.0000 27.8762 0.0000
# 6 0.0000 0.0000 0.0000 0.0000 0.0000 1.8920
#
#
#
# Elastic Compliance Matrix: (Units=1/GPa)
#
#
# Indices 1 2 3 4 5 6 
#
# 1 0.011118 -0.000578 -0.001709 0.000000 0.000000 0.000000
# 2 -0.000578 0.012405 -0.003289 0.000000 0.000000 0.000000
# 3 -0.001709 -0.003289 0.006947 0.000000 0.000000 0.000000
# 4 0.000000 0.000000 0.000000 0.026767 0.000000 0.000000
# 5 0.000000 0.000000 0.000000 0.000000 0.035873 0.000000
# 6 0.000000 0.000000 0.000000 0.000000 0.000000 0.528530
#
#
# Mechanical properties :
#
#
# Convention : Reuss Voigt Hill
#
# Bulk Modulus (GPa) = 51.76401 59.95768 55.86084
# Shear Modulus (GPa) = 7.82191 31.67006 19.74598
#
# Velocity S-wave (km/s) = 2.04198 4.10884 3.24440
# Velocity P-wave (km/s) = 5.75793 7.38053 6.61914
#
# Compressibility (1/GPa) = 0.01931844
#
# Stress axis : x y z
#
# Youngs Moduli (GPa) = 89.94810 80.61329 143.93888
#
# Poissons Ratio (x) = 0.04661 0.24595
# Poissons Ratio (y) = 0.05201 0.47338
# Poissons Ratio (z) = 0.15370 0.26512
#
# Static dielectric constant tensor:
#      x y z
#    x 1.659980 0.000000 0.000000 
#    y 0.000000 1.628070 0.000000 
#    z 0.000000 0.000000 1.577780 
# 
# From -- ./inp_files/11767.got.cif
#   From: 2010.05.17/outbox.cif.g08.bks.cpg/sg63_6_cif.got.tgz:11767.got - 2010.06.03 15:47:04.
