data_PCOD9475328
_publ_section_title
;
Structure prediction by ZEFSAII (Michael W. Deem and Ramdas Pophale) SiO2 
 PCOD9475328
Probable space group: C M C M
;
_chemical_formula_sum "Si O2"
_cell_formula_units_Z 96
_cell_length_a 16.676410
_cell_length_b 15.080471
_cell_length_c 18.998441
_cell_angle_alpha 90.000000
_cell_angle_beta 90.000000
_cell_angle_gamma 90.000000
_cell_volume 4777.882160
_symmetry_space_group_name_H-M "C M C M"
_symmetry_group_IT_number 63
_symmetry_cell_setting 'orthorhombic'
loop_
_space_group_symop_operation_xyz
x,y,z
-x,-y,1/2+z
x,-y,-z
-x,y,1/2-z
-x,-y,-z
x,y,1/2-z
-x,y,z
x,-y,1/2+z
1/2+x,1/2+y,z
1/2-x,1/2-y,1/2+z
1/2+x,1/2-y,-z
1/2-x,1/2+y,1/2-z
1/2-x,1/2-y,-z
1/2+x,1/2+y,1/2-z
1/2-x,1/2+y,z
1/2+x,1/2-y,1/2+z
loop_
_atom_site_type_symbol
_atom_site_label
_atom_site_fract_x
_atom_site_fract_y
_atom_site_fract_z
Si Si1 0.829191 0.529431 0.075795
Si Si2 0.092450 0.783978 0.915234
Si Si3 0.142551 0.982192 0.580031
Si Si4 0.903402 0.385746 0.329784
Si Si5 0.828032 0.263800 0.551575
Si Si6 0.093137 0.145398 0.833358
O O1 0.737124 0.497476 0.079605
O O2 0.875980 0.476704 0.135034
O O3 0.830272 0.635229 0.076938
O O4 0.862422 0.500000 0.000000
O O5 0.133029 0.878596 0.903267
O O6 0.126502 0.700244 0.872570
O O7 0.000000 0.795006 0.895939
O O8 0.101315 0.759073 0.996914
O O9 0.112614 0.000000 0.500000
O O10 0.100222 0.046109 0.635361
O O11 0.875487 0.380355 0.250000
O O12 0.000000 0.382913 0.331325
O O13 0.750000 0.250000 0.500000
O O14 0.844912 0.201613 0.618598
O O15 0.111235 0.148322 0.750000
O O16 0.000000 0.175222 0.842487
#
# Coordination Sequence:
#
# PCOD9475328 Si02
#       6
#    16  16  16  16  16  16
#     4  11  22  39  65  93 125 163 214 270 325 393
#     4  11  22  38  66  95 124 171 221 268 329 395
#     4  11  22  39  66  97 129 169 218 275 332 399
#     4  10  24  43  61  89 130 170 215 274 330 389
#     4  12  22  42  67  96 134 171 220 274 325 398
#     4  11  26  45  66  99 140 177 220 281 348 407
#
# _framework density 20.092583999999999
#
# number of rings (size 3 to 8) (size 9 to 14) (size 15 to 20)
#    0.000    1.000    5.000    2.000    0.000    4.333 
#    0.000    3.333    0.000    0.000    0.000    0.000 
#    0.000    0.000    0.000    0.000    0.000    0.000 
#
# Total GULP energy -268053.236418 kJ/mol
# GULP energy per Si atom -5584.442425 kJ/mol
# Density = 2.004685 g / cm^3
# Si number density = 20.092584 Si / 1000 Ang^3
#
#
#
# Elastic Constant Matrix: (Units=GPa)
#
#
# Indices 1 2 3 4 5 6 
#
# 1 38.8524 17.4457 29.8211 0.0000 0.0000 0.0000
# 2 17.4457 151.2608 71.6203 0.0000 0.0000 0.0000
# 3 29.8211 71.6203 155.4158 0.0000 0.0000 0.0000
# 4 0.0000 0.0000 0.0000 30.8950 0.0000 0.0000
# 5 0.0000 0.0000 0.0000 0.0000 26.9967 0.0000
# 6 0.0000 0.0000 0.0000 0.0000 0.0000 21.8174
#
#
#
# Elastic Compliance Matrix: (Units=1/GPa)
#
#
# Indices 1 2 3 4 5 6 
#
# 1 0.030290 -0.000949 -0.005375 0.000000 0.000000 0.000000
# 2 -0.000949 0.008486 -0.003729 0.000000 0.000000 0.000000
# 3 -0.005375 -0.003729 0.009184 0.000000 0.000000 0.000000
# 4 0.000000 0.000000 0.000000 0.032368 0.000000 0.000000
# 5 0.000000 0.000000 0.000000 0.000000 0.037042 0.000000
# 6 0.000000 0.000000 0.000000 0.000000 0.000000 0.045835
#
#
# Mechanical properties :
#
#
# Convention : Reuss Voigt Hill
#
# Bulk Modulus (GPa) = 35.89931 64.81146 50.35539
# Shear Modulus (GPa) = 25.96149 31.05129 28.50639
#
# Velocity S-wave (km/s) = 3.59847 3.93544 3.77072
# Velocity P-wave (km/s) = 5.93052 7.27851 6.63881
#
# Compressibility (1/GPa) = 0.02785569
#
# Stress axis : x y z
#
# Youngs Moduli (GPa) = 33.01442 117.84211 108.88607
#
# Poissons Ratio (x) = 0.11178 0.58525
# Poissons Ratio (y) = 0.03132 0.40599
# Poissons Ratio (z) = 0.17745 0.43938
#
# Static dielectric constant tensor:
#      x y z
#    x 1.751940 0.000000 0.000000 
#    y 0.000000 1.721140 0.000000 
#    z 0.000000 0.000000 1.688020 
# 
# From -- ./inp_files/54204.got.cif
#   From: 2010.05.17/outbox.cif.g08.bks.cpg/sg63_28_cif.got.tgz:54204.got - 2010.06.03 15:47:04.
