data_PCOD9475385
_publ_section_title
;
Structure prediction by ZEFSAII (Michael W. Deem and Ramdas Pophale) SiO2 
 PCOD9475385
Probable space group: C M C M
;
_chemical_formula_sum "Si O2"
_cell_formula_units_Z 96
_cell_length_a 21.023242
_cell_length_b 17.288811
_cell_length_c 16.910319
_cell_angle_alpha 90.000000
_cell_angle_beta 90.000000
_cell_angle_gamma 90.000000
_cell_volume 6146.340507
_symmetry_space_group_name_H-M "C M C M"
_symmetry_group_IT_number 63
_symmetry_cell_setting 'orthorhombic'
loop_
_space_group_symop_operation_xyz
x,y,z
-x,-y,1/2+z
x,-y,-z
-x,y,1/2-z
-x,-y,-z
x,y,1/2-z
-x,y,z
x,-y,1/2+z
1/2+x,1/2+y,z
1/2-x,1/2-y,1/2+z
1/2+x,1/2-y,-z
1/2-x,1/2+y,1/2-z
1/2-x,1/2-y,-z
1/2+x,1/2+y,1/2-z
1/2-x,1/2+y,z
1/2+x,1/2-y,1/2+z
loop_
_atom_site_type_symbol
_atom_site_label
_atom_site_fract_x
_atom_site_fract_y
_atom_site_fract_z
Si Si1 0.264011 0.052432 0.920436
Si Si2 0.071120 0.195302 0.009050
Si Si3 0.689813 0.806691 0.990157
Si Si4 0.381875 0.447602 0.079525
Si Si5 0.614337 0.400748 0.839859
Si Si6 0.231620 0.401342 0.660460
O O1 0.191085 0.076246 0.904056
O O2 0.285455 0.991479 0.854511
O O3 0.304382 0.127371 0.942294
O O4 0.262329 0.000000 0.000000
O O5 0.083562 0.152608 0.093156
O O6 0.000000 0.226713 0.006857
O O7 0.125619 0.258363 0.996671
O O8 0.079283 0.128204 0.942761
O O9 0.698695 0.849338 0.905982
O O10 0.750000 0.750000 0.000000
O O11 0.403863 0.509433 0.144527
O O12 0.381095 0.500000 0.000000
O O13 0.599596 0.378454 0.750000
O O14 0.691400 0.396879 0.851276
O O15 0.217423 0.378133 0.750000
#
# Coordination Sequence:
#
# PCOD9475385 Si02
#       6
#    16  16  16  16  16  16
#     4   8  14  27  49  70  90 121 155 197 243 285
#     4  11  21  31  46  71 102 136 170 201 238 292
#     4  11  17  31  53  72  98 135 164 199 247 295
#     4   8  14  27  45  66  92 124 162 189 223 284
#     4   9  17  30  48  72 100 130 163 201 246 295
#     4   9  17  31  52  77  98 121 164 214 253 290
#
# _framework density 15.61905
#
# number of rings (size 3 to 8) (size 9 to 14) (size 15 to 20)
#    0.000    2.667    3.333    2.000    0.000    3.333 
#    0.000    2.500    0.000    6.000    0.000    0.000 
#    0.000    0.000    0.000    0.000    0.000    0.000 
#
# Total GULP energy -267249.850428 kJ/mol
# GULP energy per Si atom -5567.705217 kJ/mol
# Density = 1.558350 g / cm^3
# Si number density = 15.619050 Si / 1000 Ang^3
#
#
#
# Elastic Constant Matrix: (Units=GPa)
#
#
# Indices 1 2 3 4 5 6 
#
# 1 88.6372 50.6799 23.8716 0.0000 0.0000 0.0000
# 2 50.6799 77.9078 25.0806 0.0000 0.0000 0.0000
# 3 23.8716 25.0806 69.1248 0.0000 0.0000 0.0000
# 4 0.0000 0.0000 0.0000 17.9850 0.0000 0.0000
# 5 0.0000 0.0000 0.0000 0.0000 7.5653 0.0000
# 6 0.0000 0.0000 0.0000 0.0000 0.0000 15.1820
#
#
#
# Elastic Compliance Matrix: (Units=1/GPa)
#
#
# Indices 1 2 3 4 5 6 
#
# 1 0.018270 -0.011157 -0.002261 0.000000 0.000000 0.000000
# 2 -0.011157 0.021346 -0.003892 0.000000 0.000000 0.000000
# 3 -0.002261 -0.003892 0.016660 0.000000 0.000000 0.000000
# 4 0.000000 0.000000 0.000000 0.055602 0.000000 0.000000
# 5 0.000000 0.000000 0.000000 0.000000 0.132182 0.000000
# 6 0.000000 0.000000 0.000000 0.000000 0.000000 0.065867
#
#
# Mechanical properties :
#
#
# Convention : Reuss Voigt Hill
#
# Bulk Modulus (GPa) = 46.17802 48.32601 47.25202
# Shear Modulus (GPa) = 14.21397 17.21566 15.71481
#
# Velocity S-wave (km/s) = 3.01996 3.32357 3.17540
# Velocity P-wave (km/s) = 6.46449 6.76282 6.61534
#
# Compressibility (1/GPa) = 0.02165532
#
# Stress axis : x y z
#
# Youngs Moduli (GPa) = 54.73405 46.84625 60.02499
#
# Poissons Ratio (x) = 0.52266 0.13574
# Poissons Ratio (y) = 0.61067 0.23363
# Poissons Ratio (z) = 0.12377 0.18233
#
# Static dielectric constant tensor:
#      x y z
#    x 1.514800 0.000000 0.000000 
#    y 0.000000 1.533940 0.000000 
#    z 0.000000 0.000000 1.550120 
# 
# From -- ./inp_files/47236.got.cif
#   From: 2010.05.17/outbox.cif.g08.bks.cpg/sg63_24_cif.got.tgz:47236.got - 2010.06.03 15:47:04.
