data_PCOD9475127
_publ_section_title
;
Structure prediction by ZEFSAII (Michael W. Deem and Ramdas Pophale) SiO2 
 PCOD9475127
Probable space group: C M C M
;
_chemical_formula_sum "Si O2"
_cell_formula_units_Z 112
_cell_length_a 27.687031
_cell_length_b 12.554414
_cell_length_c 15.972982
_cell_angle_alpha 90.000000
_cell_angle_beta 90.000000
_cell_angle_gamma 90.000000
_cell_volume 5552.119887
_symmetry_space_group_name_H-M "C M C M"
_symmetry_group_IT_number 63
_symmetry_cell_setting 'orthorhombic'
loop_
_space_group_symop_operation_xyz
x,y,z
-x,-y,1/2+z
x,-y,-z
-x,y,1/2-z
-x,-y,-z
x,y,1/2-z
-x,y,z
x,-y,1/2+z
1/2+x,1/2+y,z
1/2-x,1/2-y,1/2+z
1/2+x,1/2-y,-z
1/2-x,1/2+y,1/2-z
1/2-x,1/2-y,-z
1/2+x,1/2+y,1/2-z
1/2-x,1/2+y,z
1/2+x,1/2-y,1/2+z
loop_
_atom_site_type_symbol
_atom_site_label
_atom_site_fract_x
_atom_site_fract_y
_atom_site_fract_z
Si Si1 0.397523 0.441481 0.154909
Si Si2 0.799136 0.526163 0.657265
Si Si3 0.875564 0.403442 0.933563
Si Si4 0.558056 0.323342 0.656859
Si Si5 0.698430 0.543991 0.405917
Si Si6 0.942520 0.231477 0.968999
Si Si7 0.697202 0.227873 0.962540
O O1 0.403617 0.399569 0.250000
O O2 0.425703 0.553812 0.149408
O O3 0.341646 0.472196 0.138965
O O4 0.417257 0.363093 0.083483
O O5 0.796848 0.567169 0.750000
O O6 0.846716 0.455524 0.642631
O O7 0.750607 0.460846 0.636747
O O8 0.799386 0.625843 0.596062
O O9 0.925782 0.342322 0.927073
O O10 0.879480 0.500000 0.000000
O O11 0.840072 0.309850 0.967060
O O12 0.575599 0.285051 0.750000
O O13 0.500000 0.318364 0.659498
O O14 0.571726 0.268044 0.568367
O O15 0.703827 0.500000 0.500000
O O16 0.681684 0.665840 0.414254
O O17 0.000000 0.216663 0.964796
O O18 0.750000 0.250000 0.000000
#
# Coordination Sequence:
#
# PCOD9475127 Si02
#       7
#    16  16  16  16  16  16  16
#     4  11  23  35  54  91 130 166 210 260 315 389
#     4  11  24  39  58  90 127 165 211 263 319 382
#     4  10  22  43  62  84 120 162 213 268 315 376
#     4   9  18  35  58  87 123 158 200 260 326 392
#     4  12  21  37  62  88 124 167 212 258 322 386
#     4  11  23  40  65  93 122 168 219 270 334 389
#     4  11  20  39  63  87 118 169 210 253 316 385
#
# _framework density 20.172474000000001
#
# number of rings (size 3 to 8) (size 9 to 14) (size 15 to 20)
#    0.000    1.286    2.857    4.286    0.000    4.000 
#    0.000    4.286    0.000    0.000    0.000    2.000 
#    0.000    0.000    0.000    0.000    0.000    0.000 
#
# Total GULP energy -312626.438275 kJ/mol
# GULP energy per Si atom -5582.614969 kJ/mol
# Density = 2.012656 g / cm^3
# Si number density = 20.172474 Si / 1000 Ang^3
#
#
#
# Elastic Constant Matrix: (Units=GPa)
#
#
# Indices 1 2 3 4 5 6 
#
# 1 60.3524 19.1454 25.6067 0.0000 0.0000 0.0000
# 2 19.1454 68.9568 10.1718 0.0000 0.0000 0.0000
# 3 25.6067 10.1718 88.9389 0.0000 0.0000 0.0000
# 4 0.0000 0.0000 0.0000 8.9400 0.0000 0.0000
# 5 0.0000 0.0000 0.0000 0.0000 16.8669 0.0000
# 6 0.0000 0.0000 0.0000 0.0000 0.0000 31.7046
#
#
#
# Elastic Compliance Matrix: (Units=1/GPa)
#
#
# Indices 1 2 3 4 5 6 
#
# 1 0.020366 -0.004872 -0.005307 0.000000 0.000000 0.000000
# 2 -0.004872 0.015916 -0.000418 0.000000 0.000000 0.000000
# 3 -0.005307 -0.000418 0.012819 0.000000 0.000000 0.000000
# 4 0.000000 0.000000 0.000000 0.111857 0.000000 0.000000
# 5 0.000000 0.000000 0.000000 0.000000 0.059288 0.000000
# 6 0.000000 0.000000 0.000000 0.000000 0.000000 0.031541
#
#
# Mechanical properties :
#
#
# Convention : Reuss Voigt Hill
#
# Bulk Modulus (GPa) = 35.82990 36.45510 36.14250
# Shear Modulus (GPa) = 17.71274 22.39058 20.05166
#
# Velocity S-wave (km/s) = 2.96643 3.33522 3.15621
# Velocity P-wave (km/s) = 5.43445 5.73956 5.58909
#
# Compressibility (1/GPa) = 0.02790965
#
# Stress axis : x y z
#
# Youngs Moduli (GPa) = 49.10071 62.82956 78.00763
#
# Poissons Ratio (x) = 0.30609 0.41395
# Poissons Ratio (y) = 0.23921 0.03258
# Poissons Ratio (z) = 0.26056 0.02624
#
# Static dielectric constant tensor:
#      x y z
#    x 1.756030 0.000000 0.000000 
#    y 0.000000 1.686900 0.000000 
#    z 0.000000 0.000000 1.748850 
# 
# From -- ./inp_files/38563.got.cif
#   From: 2010.05.17/outbox.cif.g08.bks.cpg/sg63_20_cif.got.tgz:38563.got - 2010.06.03 15:47:04.
