data_PCOD9475289
_publ_section_title
;
Structure prediction by ZEFSAII (Michael W. Deem and Ramdas Pophale) SiO2 
 PCOD9475289
Probable space group: C M C M
;
_chemical_formula_sum "Si O2"
_cell_formula_units_Z 116
_cell_length_a 7.669297
_cell_length_b 26.761026
_cell_length_c 24.674171
_cell_angle_alpha 90.000000
_cell_angle_beta 90.000000
_cell_angle_gamma 90.000000
_cell_volume 5064.083835
_symmetry_space_group_name_H-M "C M C M"
_symmetry_group_IT_number 63
_symmetry_cell_setting 'orthorhombic'
loop_
_space_group_symop_operation_xyz
x,y,z
-x,-y,1/2+z
x,-y,-z
-x,y,1/2-z
-x,-y,-z
x,y,1/2-z
-x,y,z
x,-y,1/2+z
1/2+x,1/2+y,z
1/2-x,1/2-y,1/2+z
1/2+x,1/2-y,-z
1/2-x,1/2+y,1/2-z
1/2-x,1/2-y,-z
1/2+x,1/2+y,1/2-z
1/2-x,1/2+y,z
1/2+x,1/2-y,1/2+z
loop_
_atom_site_type_symbol
_atom_site_label
_atom_site_fract_x
_atom_site_fract_y
_atom_site_fract_z
Si Si1 0.209560 0.231409 0.189452
Si Si2 0.203856 0.053210 0.188355
Si Si3 0.285935 0.498216 0.081108
Si Si4 0.500000 0.000000 0.000000
Si Si5 0.210282 0.348575 0.190347
Si Si6 0.302918 0.854858 0.614701
Si Si7 0.801133 0.692326 0.008861
Si Si8 0.802113 0.114854 0.576823
O O1 0.255092 0.214006 0.250000
O O2 0.252023 0.289776 0.185790
O O3 0.299671 0.198046 0.145241
O O4 0.000000 0.226881 0.183312
O O5 0.279023 0.053749 0.250000
O O6 0.218499 0.105767 0.156103
O O7 0.000000 0.042947 0.194708
O O8 0.262940 0.013590 0.142604
O O9 0.500000 0.504239 0.074158
O O10 0.157278 0.525026 0.039193
O O11 0.231867 0.440726 0.070108
O O12 0.263402 0.366151 0.250000
O O13 0.295579 0.375838 0.140654
O O14 0.000000 0.353029 0.186427
O O15 0.500000 0.873324 0.607789
O O16 0.216318 0.841038 0.556915
O O17 0.000000 0.695712 0.026420
O O18 0.750000 0.750000 0.000000
O O19 0.789256 0.659956 0.954336
O O20 0.000000 0.115136 0.557281
#
# Coordination Sequence:
#
# PCOD9475289 Si02
#       8
#    16  16  16   4  16  16  16  16
#     4   9  18  34  55  81 115 159 206 253 308 374
#     4  10  23  45  69  95 132 176 223 282 350 415
#     4  10  26  46  70 103 135 174 225 285 336 408
#     4  12  26  44  78  98 136 176 230 270 352 402
#     4   9  19  36  60  88 120 159 207 256 306 374
#     4  11  24  37  57  90 124 162 212 270 331 398
#     4  11  25  42  62  90 130 173 220 273 331 399
#     4  11  24  41  63  93 128 165 209 262 321 386
#
# _framework density 22.906413000000001
#
# number of rings (size 3 to 8) (size 9 to 14) (size 15 to 20)
#    0.000    1.793    0.000    3.517    4.828    8.000 
#    0.000    2.759    0.000    0.000    0.000    0.000 
#    0.000    0.000    0.000    0.000    0.000    0.000 
#
# Total GULP energy -323134.176353 kJ/mol
# GULP energy per Si atom -5571.278903 kJ/mol
# Density = 2.285428 g / cm^3
# Si number density = 22.906413 Si / 1000 Ang^3
#
#
#
# Elastic Constant Matrix: (Units=GPa)
#
#
# Indices 1 2 3 4 5 6 
#
# 1 46.6889 9.3996 22.6236 0.0000 0.0000 0.0000
# 2 9.3996 71.3081 52.0522 0.0000 0.0000 0.0000
# 3 22.6236 52.0522 166.6619 0.0000 0.0000 0.0000
# 4 0.0000 0.0000 0.0000 24.2820 0.0000 0.0000
# 5 0.0000 0.0000 0.0000 0.0000 24.6374 0.0000
# 6 0.0000 0.0000 0.0000 0.0000 0.0000 3.7297
#
#
#
# Elastic Compliance Matrix: (Units=1/GPa)
#
#
# Indices 1 2 3 4 5 6 
#
# 1 0.022979 -0.000974 -0.002815 0.000000 0.000000 0.000000
# 2 -0.000974 0.018206 -0.005554 0.000000 0.000000 0.000000
# 3 -0.002815 -0.005554 0.008117 0.000000 0.000000 0.000000
# 4 0.000000 0.000000 0.000000 0.041183 0.000000 0.000000
# 5 0.000000 0.000000 0.000000 0.000000 0.040589 0.000000
# 6 0.000000 0.000000 0.000000 0.000000 0.000000 0.268118
#
#
# Mechanical properties :
#
#
# Convention : Reuss Voigt Hill
#
# Bulk Modulus (GPa) = 32.66316 50.31217 41.48766
# Shear Modulus (GPa) = 11.68000 23.90207 17.79104
#
# Velocity S-wave (km/s) = 2.26055 3.23378 2.78993
# Velocity P-wave (km/s) = 4.59389 5.99625 5.34129
#
# Compressibility (1/GPa) = 0.03061554
#
# Stress axis : x y z
#
# Youngs Moduli (GPa) = 43.51890 54.92614 123.19940
#
# Poissons Ratio (x) = 0.05350 0.34680
# Poissons Ratio (y) = 0.04239 0.68425
# Poissons Ratio (z) = 0.12251 0.30506
#
# Static dielectric constant tensor:
#      x y z
#    x 1.943900 0.000000 0.000000 
#    y 0.000000 1.884830 0.000000 
#    z 0.000000 0.000000 1.933640 
# 
# From -- ./inp_files/60445.got.cif
#   From: 2010.05.17/outbox.cif.g08.bks.cpg/sg63_31_cif.got.tgz:60445.got - 2010.06.03 15:47:04.
