data_PCOD9475526
_publ_section_title
;
Structure prediction by ZEFSAII (Michael W. Deem and Ramdas Pophale) SiO2 
 PCOD9475526
Probable space group: C M C M
;
_chemical_formula_sum "Si O2"
_cell_formula_units_Z 64
_cell_length_a 28.079319
_cell_length_b 15.099711
_cell_length_c 8.556766
_cell_angle_alpha 90.000000
_cell_angle_beta 90.000000
_cell_angle_gamma 90.000000
_cell_volume 3627.979811
_symmetry_space_group_name_H-M "C M C M"
_symmetry_group_IT_number 63
_symmetry_cell_setting 'orthorhombic'
loop_
_space_group_symop_operation_xyz
x,y,z
-x,-y,1/2+z
x,-y,-z
-x,y,1/2-z
-x,-y,-z
x,y,1/2-z
-x,y,z
x,-y,1/2+z
1/2+x,1/2+y,z
1/2-x,1/2-y,1/2+z
1/2+x,1/2-y,-z
1/2-x,1/2+y,1/2-z
1/2-x,1/2-y,-z
1/2+x,1/2+y,1/2-z
1/2-x,1/2+y,z
1/2+x,1/2-y,1/2+z
loop_
_atom_site_type_symbol
_atom_site_label
_atom_site_fract_x
_atom_site_fract_y
_atom_site_fract_z
Si Si1 0.862271 0.227697 0.062373
Si Si2 0.282031 0.597471 0.562977
Si Si3 0.445371 0.403567 0.561595
Si Si4 0.824619 0.595494 0.063887
O O1 0.861965 0.235210 0.250000
O O2 0.908849 0.172443 0.012473
O O3 0.816905 0.170316 0.008144
O O4 0.858024 0.324267 0.987832
O O5 0.295669 0.500000 0.500000
O O6 0.284533 0.598749 0.750000
O O7 0.227745 0.612734 0.508957
O O8 0.430355 0.500000 0.500000
O O9 0.444845 0.406702 0.750000
O O10 0.500000 0.388180 0.510380
O O11 0.819915 0.591697 0.250000
O O12 0.840450 0.500000 0.000000
#
# Coordination Sequence:
#
# PCOD9475526 Si02
#       4
#    16  16  16  16
#     4  11  21  34  53  77 105 137 174 213 256 305
#     4  11  21  34  51  75 107 140 175 212 255 304
#     4   9  19  35  55  79 107 137 168 206 253 304
#     4  11  22  37  54  74 102 136 175 215 258 303
#
# _framework density 17.640671000000001
#
# number of rings (size 3 to 8) (size 9 to 14) (size 15 to 20)
#    0.000    1.500    0.000    8.250    0.000    4.000 
#    0.000    0.000    0.000    0.750    0.000    0.000 
#    0.000    0.000    0.000    0.000    0.000    0.000 
#
# Total GULP energy -178867.009778 kJ/mol
# GULP energy per Si atom -5589.594056 kJ/mol
# Density = 1.760052 g / cm^3
# Si number density = 17.640671 Si / 1000 Ang^3
#
#
#
# Elastic Constant Matrix: (Units=GPa)
#
#
# Indices 1 2 3 4 5 6 
#
# 1 60.9695 70.0857 9.1805 0.0000 0.0000 0.0000
# 2 70.0857 140.2749 15.8409 0.0000 0.0000 0.0000
# 3 9.1805 15.8409 61.3928 0.0000 0.0000 0.0000
# 4 0.0000 0.0000 0.0000 32.7305 0.0000 0.0000
# 5 0.0000 0.0000 0.0000 0.0000 12.6632 0.0000
# 6 0.0000 0.0000 0.0000 0.0000 0.0000 29.7601
#
#
#
# Elastic Compliance Matrix: (Units=1/GPa)
#
#
# Indices 1 2 3 4 5 6 
#
# 1 0.038572 -0.019179 -0.000819 0.000000 0.000000 0.000000
# 2 -0.019179 0.016879 -0.001487 0.000000 0.000000 0.000000
# 3 -0.000819 -0.001487 0.016795 0.000000 0.000000 0.000000
# 4 0.000000 0.000000 0.000000 0.030553 0.000000 0.000000
# 5 0.000000 0.000000 0.000000 0.000000 0.078969 0.000000
# 6 0.000000 0.000000 0.000000 0.000000 0.000000 0.033602
#
#
# Mechanical properties :
#
#
# Convention : Reuss Voigt Hill
#
# Bulk Modulus (GPa) = 34.15923 50.31682 42.23803
# Shear Modulus (GPa) = 18.64977 26.19942 22.42460
#
# Velocity S-wave (km/s) = 3.25499 3.85797 3.56924
# Velocity P-wave (km/s) = 5.79073 6.95919 6.40168
#
# Compressibility (1/GPa) = 0.02927466
#
# Stress axis : x y z
#
# Youngs Moduli (GPa) = 25.92555 59.24388 59.54223
#
# Poissons Ratio (x) = 1.13625 0.04878
# Poissons Ratio (y) = 0.49723 0.08856
# Poissons Ratio (z) = 0.02124 0.08811
#
# Static dielectric constant tensor:
#      x y z
#    x 1.597580 0.000000 0.000000 
#    y 0.000000 1.599160 0.000000 
#    z 0.000000 0.000000 1.588580 
# 
# From -- ./inp_files/9609.got.cif
#   From: 2010.05.17/outbox.cif.g08.bks.cpg/sg63_5_cif.got.tgz:9609.got - 2010.06.03 15:47:04.
