data_PCOD9475400
_publ_section_title
;
Structure prediction by ZEFSAII (Michael W. Deem and Ramdas Pophale) SiO2 
 PCOD9475400
Probable space group: C M C M
;
_chemical_formula_sum "Si O2"
_cell_formula_units_Z 80
_cell_length_a 23.428434
_cell_length_b 24.919874
_cell_length_c 10.274367
_cell_angle_alpha 90.000000
_cell_angle_beta 90.000000
_cell_angle_gamma 90.000000
_cell_volume 5998.520913
_symmetry_space_group_name_H-M "C M C M"
_symmetry_group_IT_number 63
_symmetry_cell_setting 'orthorhombic'
loop_
_space_group_symop_operation_xyz
x,y,z
-x,-y,1/2+z
x,-y,-z
-x,y,1/2-z
-x,-y,-z
x,y,1/2-z
-x,y,z
x,-y,1/2+z
1/2+x,1/2+y,z
1/2-x,1/2-y,1/2+z
1/2+x,1/2-y,-z
1/2-x,1/2+y,1/2-z
1/2-x,1/2-y,-z
1/2+x,1/2+y,1/2-z
1/2-x,1/2+y,z
1/2+x,1/2-y,1/2+z
loop_
_atom_site_type_symbol
_atom_site_label
_atom_site_fract_x
_atom_site_fract_y
_atom_site_fract_z
Si Si1 0.885325 0.876391 0.013402
Si Si2 0.067686 0.054481 0.750000
Si Si3 0.931391 0.073288 0.250000
Si Si4 0.731686 0.671893 0.599032
Si Si5 0.678504 0.792513 0.899472
Si Si6 0.064810 0.762763 0.093414
O O1 0.906332 0.916929 0.124307
O O2 0.818760 0.863873 0.038169
O O3 0.917507 0.819462 0.031631
O O4 0.902353 0.900974 0.876078
O O5 0.000000 0.064188 0.750000
O O6 0.077028 0.990844 0.750000
O O7 0.000000 0.083065 0.250000
O O8 0.742908 0.657198 0.750000
O O9 0.706543 0.732767 0.601976
O O10 0.786238 0.673726 0.504601
O O11 0.681887 0.812684 0.750000
O O12 0.612816 0.781413 0.937525
O O13 0.068086 0.770660 0.250000
O O14 0.000000 0.748513 0.059326
#
# Coordination Sequence:
#
# PCOD9475400 Si02
#       6
#    16   8   8  16  16  16
#     4  11  19  31  45  60  76 104 140 174 205 243
#     4  11  20  34  48  55  74 106 137 172 213 253
#     4  11  24  32  40  61  82 100 131 178 223 245
#     4   9  16  28  42  58  76 100 133 165 199 238
#     4   8  15  25  40  60  79 101 128 164 201 229
#     4   9  15  26  44  62  81 108 140 166 194 239
#
# _framework density 13.336620999999999
#
# number of rings (size 3 to 8) (size 9 to 14) (size 15 to 20)
#    0.000    2.400    2.000    3.600    1.400    1.600 
#    5.400    0.000    0.000    0.000    0.000    0.000 
#    0.000    0.000    0.000    0.000    0.000    6.000 
#
# Total GULP energy -222831.364184 kJ/mol
# GULP energy per Si atom -5570.784105 kJ/mol
# Density = 1.330627 g / cm^3
# Si number density = 13.336621 Si / 1000 Ang^3
#
#
#
# Elastic Constant Matrix: (Units=GPa)
#
#
# Indices 1 2 3 4 5 6 
#
# 1 127.3130 46.2241 72.9671 0.0000 0.0000 0.0000
# 2 46.2241 40.0088 44.8011 0.0000 0.0000 0.0000
# 3 72.9671 44.8011 124.0704 0.0000 0.0000 0.0000
# 4 0.0000 0.0000 0.0000 -96.9286 0.0000 0.0000
# 5 0.0000 0.0000 0.0000 0.0000 28.1136 0.0000
# 6 0.0000 0.0000 0.0000 0.0000 0.0000 21.5831
#
#
#
# Elastic Compliance Matrix: (Units=1/GPa)
#
#
# Indices 1 2 3 4 5 6 
#
# 1 0.014744 -0.012297 -0.004231 0.000000 0.000000 0.000000
# 2 -0.012297 0.052218 -0.011623 0.000000 0.000000 0.000000
# 3 -0.004231 -0.011623 0.014745 0.000000 0.000000 0.000000
# 4 0.000000 0.000000 0.000000 -0.010317 0.000000 0.000000
# 5 0.000000 0.000000 0.000000 0.000000 0.035570 0.000000
# 6 0.000000 0.000000 0.000000 0.000000 0.000000 0.046333
#
#
# Mechanical properties :
#
#
# Convention : Reuss Voigt Hill
#
# Bulk Modulus (GPa) = 39.36318 68.81965 54.09142
# Shear Modulus (GPa) = 22.92906 -0.95306 10.98800
#
# Velocity S-wave (km/s) = 4.15089 -0.84627 2.87347
# Velocity P-wave (km/s) = 7.24930 7.12455 7.18719
#
# Compressibility (1/GPa) = 0.02540445
#
# Stress axis : x y z
#
# Youngs Moduli (GPa) = 67.82293 19.15059 67.81839
#
# Poissons Ratio (x) = 0.23550 0.28693
# Poissons Ratio (y) = 0.83403 0.78828
# Poissons Ratio (z) = 0.28695 0.22259
#
# Static dielectric constant tensor:
#      x y z
#    x 1.452760 0.000000 0.000000 
#    y 0.000000 1.402380 0.000000 
#    z 0.000000 0.000000 1.408020 
# 
# From -- ./inp_files/10365.got.cif
#   From: 2010.05.17/outbox.cif.g08.bks.cpg/sg63_6_cif.got.tgz:10365.got - 2010.06.03 15:47:04.
