data_PCOD9475112
_publ_section_title
;
Structure prediction by ZEFSAII (Michael W. Deem and Ramdas Pophale) SiO2 
 PCOD9475112
Probable space group: C M C M
;
_chemical_formula_sum "Si O2"
_cell_formula_units_Z 64
_cell_length_a 14.045251
_cell_length_b 19.795542
_cell_length_c 10.112915
_cell_angle_alpha 90.000000
_cell_angle_beta 90.000000
_cell_angle_gamma 90.000000
_cell_volume 2811.727697
_symmetry_space_group_name_H-M "C M C M"
_symmetry_group_IT_number 63
_symmetry_cell_setting 'orthorhombic'
loop_
_space_group_symop_operation_xyz
x,y,z
-x,-y,1/2+z
x,-y,-z
-x,y,1/2-z
-x,-y,-z
x,y,1/2-z
-x,y,z
x,-y,1/2+z
1/2+x,1/2+y,z
1/2-x,1/2-y,1/2+z
1/2+x,1/2-y,-z
1/2-x,1/2+y,1/2-z
1/2-x,1/2-y,-z
1/2+x,1/2+y,1/2-z
1/2-x,1/2+y,z
1/2+x,1/2-y,1/2+z
loop_
_atom_site_type_symbol
_atom_site_label
_atom_site_fract_x
_atom_site_fract_y
_atom_site_fract_z
Si Si1 0.893499 0.301413 0.491991
Si Si2 0.191651 0.171791 0.893530
Si Si3 0.111540 0.065892 0.407033
Si Si4 0.111768 0.450394 0.892373
O O1 0.873269 0.237780 0.585529
O O2 0.801794 0.304808 0.397717
O O3 0.888602 0.372482 0.568586
O O4 0.000000 0.296329 0.433582
O O5 0.171430 0.140121 0.750000
O O6 0.171595 0.123424 0.017927
O O7 0.132270 0.057137 0.250000
O O8 0.000000 0.086020 0.414196
O O9 0.121246 0.000000 0.500000
O O10 0.155940 0.461310 0.750000
O O11 0.000000 0.469304 0.882641
O O12 0.155579 0.500000 0.000000
#
# Coordination Sequence:
#
# PCOD9475112 Si02
#       4
#    16  16  16  16
#     4  10  23  42  63  89 126 171 216 263 320 387
#     4  11  24  41  65  97 129 166 216 272 328 387
#     4  10  22  42  69 100 134 172 214 264 323 386
#     4   9  18  34  57  84 114 152 199 248 300 362
#
# _framework density 22.761804999999999
#
# number of rings (size 3 to 8) (size 9 to 14) (size 15 to 20)
#    0.000    2.000    0.000    2.250    0.000   11.500 
#    0.000    2.500    0.000    0.000    0.000    0.000 
#    0.000    0.000    0.000    0.000    0.000    0.000 
#
# Total GULP energy -178667.695260 kJ/mol
# GULP energy per Si atom -5583.365477 kJ/mol
# Density = 2.271000 g / cm^3
# Si number density = 22.761805 Si / 1000 Ang^3
#
#
#
# Elastic Constant Matrix: (Units=GPa)
#
#
# Indices 1 2 3 4 5 6 
#
# 1 160.3662 22.3066 19.2959 0.0000 0.0000 0.0000
# 2 22.3066 86.5116 52.3775 0.0000 0.0000 0.0000
# 3 19.2959 52.3775 154.4315 0.0000 0.0000 0.0000
# 4 0.0000 0.0000 0.0000 13.7682 0.0000 0.0000
# 5 0.0000 0.0000 0.0000 0.0000 -3.7617 0.0000
# 6 0.0000 0.0000 0.0000 0.0000 0.0000 -295.2267
#
#
#
# Elastic Compliance Matrix: (Units=1/GPa)
#
#
# Indices 1 2 3 4 5 6 
#
# 1 0.006479 -0.001486 -0.000306 0.000000 0.000000 0.000000
# 2 -0.001486 0.014887 -0.004863 0.000000 0.000000 0.000000
# 3 -0.000306 -0.004863 0.008163 0.000000 0.000000 0.000000
# 4 0.000000 0.000000 0.000000 0.072631 0.000000 0.000000
# 5 0.000000 0.000000 0.000000 0.000000 -0.265840 0.000000
# 6 0.000000 0.000000 0.000000 0.000000 0.000000 -0.003387
#
#
# Mechanical properties :
#
#
# Convention : Reuss Voigt Hill
#
# Bulk Modulus (GPa) = 61.65389 65.47439 63.56414
# Shear Modulus (GPa) = -33.70369 -36.55542 -35.12955
#
# Velocity S-wave (km/s) = -3.85218 -4.01184 -3.93282
# Velocity P-wave (km/s) = 2.71287 2.71435 2.71361
#
# Compressibility (1/GPa) = 0.01621958
#
# Stress axis : x y z
#
# Youngs Moduli (GPa) = 154.34131 67.17414 122.50321
#
# Poissons Ratio (x) = 0.09979 0.03745
# Poissons Ratio (y) = 0.22928 0.59578
# Poissons Ratio (z) = 0.04719 0.32670
#
# Static dielectric constant tensor:
#      x y z
#    x 1.872930 0.000000 0.000000 
#    y 0.000000 1.798100 0.000000 
#    z 0.000000 0.000000 1.870620 
# 
# From -- ./inp_files/6015.got.cif
#   From: 2010.05.17/outbox.cif.g08.bks.cpg/sg63_4_cif.got.tgz:6015.got - 2010.06.03 15:47:04.
