data_PCOD9475402
_publ_section_title
;
Structure prediction by ZEFSAII (Michael W. Deem and Ramdas Pophale) SiO2 
 PCOD9475402
Probable space group: C M C M
;
_chemical_formula_sum "Si O2"
_cell_formula_units_Z 96
_cell_length_a 16.402382
_cell_length_b 19.152566
_cell_length_c 18.594719
_cell_angle_alpha 90.000000
_cell_angle_beta 90.000000
_cell_angle_gamma 90.000000
_cell_volume 5841.488277
_symmetry_space_group_name_H-M "C M C M"
_symmetry_group_IT_number 63
_symmetry_cell_setting 'orthorhombic'
loop_
_space_group_symop_operation_xyz
x,y,z
-x,-y,1/2+z
x,-y,-z
-x,y,1/2-z
-x,-y,-z
x,y,1/2-z
-x,y,z
x,-y,1/2+z
1/2+x,1/2+y,z
1/2-x,1/2-y,1/2+z
1/2+x,1/2-y,-z
1/2-x,1/2+y,1/2-z
1/2-x,1/2-y,-z
1/2+x,1/2+y,1/2-z
1/2-x,1/2+y,z
1/2+x,1/2-y,1/2+z
loop_
_atom_site_type_symbol
_atom_site_label
_atom_site_fract_x
_atom_site_fract_y
_atom_site_fract_z
Si Si1 0.906513 0.497771 0.587622
Si Si2 0.649178 0.485542 0.921603
Si Si3 0.500000 0.313886 0.337114
Si Si4 0.181904 0.234390 0.836500
Si Si5 0.280402 0.889293 0.409612
Si Si6 0.500000 0.526400 0.834826
Si Si7 0.285626 0.873602 0.923315
O O1 0.904472 0.500000 0.500000
O O2 0.861244 0.568145 0.614117
O O3 0.853878 0.428772 0.604323
O O4 0.000000 0.493233 0.610919
O O5 0.714081 0.548339 0.913666
O O6 0.580409 0.489464 0.862738
O O7 0.700135 0.414524 0.917921
O O8 0.611645 0.500000 0.000000
O O9 0.500000 0.313974 0.250000
O O10 0.413031 0.280519 0.357983
O O11 0.500000 0.393889 0.362856
O O12 0.185059 0.241270 0.750000
O O13 0.240441 0.170879 0.861575
O O14 0.209655 0.303859 0.877523
O O15 0.296517 0.861728 0.490831
O O16 0.500000 0.529773 0.750000
#
# Coordination Sequence:
#
# PCOD9475402 Si02
#       7
#    16  16   8  16  16   8  16
#     4   8  15  30  53  79 102 125 161 209 255 296
#     4   9  18  33  52  76 102 132 167 212 253 294
#     4   9  20  33  47  73 100 131 167 203 251 296
#     4  11  21  34  51  72 105 137 166 207 252 302
#     4   9  17  33  54  74 101 133 170 206 242 301
#     4  11  19  31  53  75 101 131 169 211 245 304
#     4   9  19  32  53  78 101 130 164 210 259 298
#
# _framework density 16.434168
#
# number of rings (size 3 to 8) (size 9 to 14) (size 15 to 20)
#    0.000    2.667    1.667    2.750    1.167    0.667 
#    0.000    2.500    1.833    1.500    0.000    0.000 
#    0.000    0.000    0.000    0.000    0.000    0.000 
#
# Total GULP energy -267288.146388 kJ/mol
# GULP energy per Si atom -5568.503050 kJ/mol
# Density = 1.639676 g / cm^3
# Si number density = 16.434168 Si / 1000 Ang^3
#
#
#
# Elastic Constant Matrix: (Units=GPa)
#
#
# Indices 1 2 3 4 5 6 
#
# 1 79.2444 21.9666 26.7893 0.0000 0.0000 0.0000
# 2 21.9666 65.5869 18.2876 0.0000 0.0000 0.0000
# 3 26.7893 18.2876 41.8056 0.0000 0.0000 0.0000
# 4 0.0000 0.0000 0.0000 17.6370 0.0000 0.0000
# 5 0.0000 0.0000 0.0000 0.0000 12.3581 0.0000
# 6 0.0000 0.0000 0.0000 0.0000 0.0000 13.4857
#
#
#
# Elastic Compliance Matrix: (Units=1/GPa)
#
#
# Indices 1 2 3 4 5 6 
#
# 1 0.016596 -0.002953 -0.009343 0.000000 0.000000 0.000000
# 2 -0.002953 0.017891 -0.005934 0.000000 0.000000 0.000000
# 3 -0.009343 -0.005934 0.032503 0.000000 0.000000 0.000000
# 4 0.000000 0.000000 0.000000 0.056699 0.000000 0.000000
# 5 0.000000 0.000000 0.000000 0.000000 0.080919 0.000000
# 6 0.000000 0.000000 0.000000 0.000000 0.000000 0.074153
#
#
# Mechanical properties :
#
#
# Convention : Reuss Voigt Hill
#
# Bulk Modulus (GPa) = 32.75491 35.63598 34.19545
# Shear Modulus (GPa) = 15.36584 16.66905 16.01744
#
# Velocity S-wave (km/s) = 3.06108 3.18825 3.12531
# Velocity P-wave (km/s) = 5.69806 5.94007 5.82032
#
# Compressibility (1/GPa) = 0.03052977
#
# Stress axis : x y z
#
# Youngs Moduli (GPa) = 60.25399 55.89542 30.76633
#
# Poissons Ratio (x) = 0.16508 0.28746
# Poissons Ratio (y) = 0.17795 0.18256
# Poissons Ratio (z) = 0.56296 0.33166
#
# Static dielectric constant tensor:
#      x y z
#    x 1.564110 0.000000 0.000000 
#    y 0.000000 1.540450 0.000000 
#    z 0.000000 0.000000 1.554690 
# 
# From -- ./inp_files/45818.got.cif
#   From: 2010.05.17/outbox.cif.g08.bks.cpg/sg63_23_cif.got.tgz:45818.got - 2010.06.03 15:47:04.
