data_PCOD9475886
_publ_section_title
;
Structure prediction by ZEFSAII (Michael W. Deem and Ramdas Pophale) SiO2 
 PCOD9475886
Probable space group: C M C M
;
_chemical_formula_sum "Si O2"
_cell_formula_units_Z 64
_cell_length_a 11.564541
_cell_length_b 27.487389
_cell_length_c 10.149846
_cell_angle_alpha 90.000000
_cell_angle_beta 90.000000
_cell_angle_gamma 90.000000
_cell_volume 3226.423273
_symmetry_space_group_name_H-M "C M C M"
_symmetry_group_IT_number 63
_symmetry_cell_setting 'orthorhombic'
loop_
_space_group_symop_operation_xyz
x,y,z
-x,-y,1/2+z
x,-y,-z
-x,y,1/2-z
-x,-y,-z
x,y,1/2-z
-x,y,z
x,-y,1/2+z
1/2+x,1/2+y,z
1/2-x,1/2-y,1/2+z
1/2+x,1/2-y,-z
1/2-x,1/2+y,1/2-z
1/2-x,1/2-y,-z
1/2+x,1/2+y,1/2-z
1/2-x,1/2+y,z
1/2+x,1/2-y,1/2+z
loop_
_atom_site_type_symbol
_atom_site_label
_atom_site_fract_x
_atom_site_fract_y
_atom_site_fract_z
Si Si1 0.000000 0.609206 0.750000
Si Si2 0.500000 0.931484 0.750000
Si Si3 0.760411 0.294567 0.599150
Si Si4 0.500000 0.847389 0.962079
Si Si5 0.759241 0.039356 0.250000
Si Si6 0.242061 0.073107 0.750000
Si Si7 0.637460 0.607570 0.023206
O O1 0.000000 0.641039 0.616857
O O2 0.118953 0.578818 0.750000
O O3 0.500000 0.897109 0.878673
O O4 0.379957 0.959763 0.750000
O O5 0.746423 0.278565 0.750000
O O6 0.750000 0.250000 0.500000
O O7 0.671393 0.338236 0.569156
O O8 0.886250 0.318352 0.579237
O O9 0.806195 0.069017 0.375709
O O10 0.795036 0.983291 0.250000
O O11 0.191786 0.098237 0.619783
O O12 0.500000 0.601390 0.021432
#
# Coordination Sequence:
#
# PCOD9475886 Si02
#       7
#     4   4  16   8   8   8  16
#     4  12  23  42  72 104 142 174 236 288 343 404
#     4  12  19  46  72 100 138 186 220 296 351 400
#     4  12  27  47  73 105 136 181 232 285 352 414
#     4  12  22  46  73  96 146 180 221 294 354 405
#     4  12  24  44  75  99 139 183 237 281 351 408
#     4  12  26  44  69 109 135 183 233 291 339 410
#     4  12  26  47  68  99 145 184 229 285 342 416
#
# _framework density 19.836207000000002
#
# number of rings (size 3 to 8) (size 9 to 14) (size 15 to 20)
#    0.000    0.000    7.500    1.875    5.250    3.000 
#    0.000    3.750    0.000    0.000    0.000    0.000 
#    0.000    0.000    0.000    0.000    0.000    0.000 
#
# Total GULP energy -179147.201040 kJ/mol
# GULP energy per Si atom -5598.350032 kJ/mol
# Density = 1.979106 g / cm^3
# Si number density = 19.836207 Si / 1000 Ang^3
#
#
#
# Elastic Constant Matrix: (Units=GPa)
#
#
# Indices 1 2 3 4 5 6 
#
# 1 143.0642 12.7864 29.8533 0.0000 0.0000 0.0000
# 2 12.7864 87.0292 49.2898 0.0000 0.0000 0.0000
# 3 29.8533 49.2898 197.1810 0.0000 0.0000 0.0000
# 4 0.0000 0.0000 0.0000 15.4330 0.0000 0.0000
# 5 0.0000 0.0000 0.0000 0.0000 -342.6677 0.0000
# 6 0.0000 0.0000 0.0000 0.0000 0.0000 147.4722
#
#
#
# Elastic Compliance Matrix: (Units=1/GPa)
#
#
# Indices 1 2 3 4 5 6 
#
# 1 0.007238 -0.000516 -0.000967 0.000000 0.000000 0.000000
# 2 -0.000516 0.013422 -0.003277 0.000000 0.000000 0.000000
# 3 -0.000967 -0.003277 0.006037 0.000000 0.000000 0.000000
# 4 0.000000 0.000000 0.000000 0.064796 0.000000 0.000000
# 5 0.000000 0.000000 0.000000 0.000000 -0.002918 0.000000
# 6 0.000000 0.000000 0.000000 0.000000 0.000000 0.006781
#
#
# Mechanical properties :
#
#
# Convention : Reuss Voigt Hill
#
# Bulk Modulus (GPa) = 58.21569 67.90371 63.05970
# Shear Modulus (GPa) = 45.20757 -13.59615 15.80571
#
# Velocity S-wave (km/s) = 4.77911 -2.62089 2.82585
# Velocity P-wave (km/s) = 7.73726 5.01475 6.51970
#
# Compressibility (1/GPa) = 0.01717750
#
# Stress axis : x y z
#
# Youngs Moduli (GPa) = 138.16500 74.50354 165.64393
#
# Poissons Ratio (x) = 0.03843 0.16016
# Poissons Ratio (y) = 0.07126 0.54283
# Poissons Ratio (z) = 0.13359 0.24415
#
# Static dielectric constant tensor:
#      x y z
#    x 1.682130 0.000000 0.000000 
#    y 0.000000 1.664310 0.000000 
#    z 0.000000 0.000000 1.674530 
# 
# From -- ./inp_files/3246.got.cif
#   From: 2010.05.17/outbox.cif.g08.bks.cpg/sg63_2_cif.got.tgz:3246.got - 2010.06.03 15:47:04.
