data_PCOD9475914
_publ_section_title
;
Structure prediction by ZEFSAII (Michael W. Deem and Ramdas Pophale) SiO2 
 PCOD9475914
Probable space group: C M C M
;
_chemical_formula_sum "Si O2"
_cell_formula_units_Z 72
_cell_length_a 17.696452
_cell_length_b 22.401191
_cell_length_c 8.844465
_cell_angle_alpha 90.000000
_cell_angle_beta 90.000000
_cell_angle_gamma 90.000000
_cell_volume 3506.136978
_symmetry_space_group_name_H-M "C M C M"
_symmetry_group_IT_number 63
_symmetry_cell_setting 'orthorhombic'
loop_
_space_group_symop_operation_xyz
x,y,z
-x,-y,1/2+z
x,-y,-z
-x,y,1/2-z
-x,-y,-z
x,y,1/2-z
-x,y,z
x,-y,1/2+z
1/2+x,1/2+y,z
1/2-x,1/2-y,1/2+z
1/2+x,1/2-y,-z
1/2-x,1/2+y,1/2-z
1/2-x,1/2-y,-z
1/2+x,1/2+y,1/2-z
1/2-x,1/2+y,z
1/2+x,1/2-y,1/2+z
loop_
_atom_site_type_symbol
_atom_site_label
_atom_site_fract_x
_atom_site_fract_y
_atom_site_fract_z
Si Si1 0.235353 0.061704 0.428289
Si Si2 0.859548 0.639411 0.928388
Si Si3 0.000000 0.566714 0.068335
Si Si4 0.587744 0.396225 0.070686
Si Si5 0.090049 0.755315 0.424092
O O1 0.246855 0.061768 0.250000
O O2 0.281486 0.114555 0.506761
O O3 0.147702 0.069065 0.470991
O O4 0.263864 0.000000 0.500000
O O5 0.864411 0.629575 0.750000
O O6 0.869259 0.708929 0.967864
O O7 0.926697 0.602822 0.010265
O O8 0.000000 0.564211 0.250000
O O9 0.000000 0.500000 0.000000
O O10 0.600434 0.407635 0.250000
O O11 0.500000 0.409462 0.037635
O O12 0.600400 0.325334 0.045293
O O13 0.112630 0.743680 0.250000
O O14 0.000000 0.744174 0.434708
#
# Coordination Sequence:
#
# PCOD9475914 Si02
#       5
#    16  16   8  16  16
#     4  12  26  44  64  88 122 163 207 260 312 368
#     4  12  24  39  61  91 125 164 207 254 305 363
#     4  12  24  40  60  86 122 164 211 254 301 362
#     4   9  20  41  68  96 125 160 202 253 310 368
#     4   9  18  36  63  93 127 164 203 251 303 360
#
# _framework density 20.535420999999999
#
# number of rings (size 3 to 8) (size 9 to 14) (size 15 to 20)
#    0.000    1.333    1.111    7.000    0.000    2.667 
#    0.000    2.222    0.000    0.000    0.000    0.000 
#    0.000    0.000    0.000    0.000    0.000    0.000 
#
# Total GULP energy -201411.017640 kJ/mol
# GULP energy per Si atom -5594.750490 kJ/mol
# Density = 2.048868 g / cm^3
# Si number density = 20.535421 Si / 1000 Ang^3
#
#
#
# Elastic Constant Matrix: (Units=GPa)
#
#
# Indices 1 2 3 4 5 6 
#
# 1 51.9795 -1.6871 30.9488 0.0000 0.0000 0.0000
# 2 -1.6871 23.4918 27.4162 0.0000 0.0000 0.0000
# 3 30.9488 27.4162 140.9956 0.0000 0.0000 0.0000
# 4 0.0000 0.0000 0.0000 34.1483 0.0000 0.0000
# 5 0.0000 0.0000 0.0000 0.0000 19.5498 0.0000
# 6 0.0000 0.0000 0.0000 0.0000 0.0000 28.2093
#
#
#
# Elastic Compliance Matrix: (Units=1/GPa)
#
#
# Indices 1 2 3 4 5 6 
#
# 1 0.023857 0.010121 -0.007205 0.000000 0.000000 0.000000
# 2 0.010121 0.059358 -0.013764 0.000000 0.000000 0.000000
# 3 -0.007205 -0.013764 0.011350 0.000000 0.000000 0.000000
# 4 0.000000 0.000000 0.000000 0.029284 0.000000 0.000000
# 5 0.000000 0.000000 0.000000 0.000000 0.051151 0.000000
# 6 0.000000 0.000000 0.000000 0.000000 0.000000 0.035449
#
#
# Mechanical properties :
#
#
# Convention : Reuss Voigt Hill
#
# Bulk Modulus (GPa) = 13.72293 36.64697 25.18495
# Shear Modulus (GPa) = 19.49828 27.03408 23.26618
#
# Velocity S-wave (km/s) = 3.08473 3.63224 3.36963
# Velocity P-wave (km/s) = 4.40278 5.95612 5.23736
#
# Compressibility (1/GPa) = 0.07287075
#
# Stress axis : x y z
#
# Youngs Moduli (GPa) = 41.91725 16.84703 88.10467
#
# Poissons Ratio (x) = -0.17052 0.63476
# Poissons Ratio (y) = -0.42426 1.21264
# Poissons Ratio (z) = 0.30200 0.23188
#
# Static dielectric constant tensor:
#      x y z
#    x 1.741660 0.000000 0.000000 
#    y 0.000000 1.753490 0.000000 
#    z 0.000000 0.000000 1.686240 
# 
# From -- ./inp_files/6107.got.cif
#   From: 2010.05.17/outbox.cif.g08.bks.cpg/sg63_4_cif.got.tgz:6107.got - 2010.06.03 15:47:04.
