data_PCOD9475818
_publ_section_title
;
Structure prediction by ZEFSAII (Michael W. Deem and Ramdas Pophale) SiO2 
 PCOD9475818
Probable space group: C M C M
;
_chemical_formula_sum "Si O2"
_cell_formula_units_Z 56
_cell_length_a 10.897953
_cell_length_b 25.072863
_cell_length_c 9.863149
_cell_angle_alpha 90.000000
_cell_angle_beta 90.000000
_cell_angle_gamma 90.000000
_cell_volume 2695.035264
_symmetry_space_group_name_H-M "C M C M"
_symmetry_group_IT_number 63
_symmetry_cell_setting 'orthorhombic'
loop_
_space_group_symop_operation_xyz
x,y,z
-x,-y,1/2+z
x,-y,-z
-x,y,1/2-z
-x,-y,-z
x,y,1/2-z
-x,y,z
x,-y,1/2+z
1/2+x,1/2+y,z
1/2-x,1/2-y,1/2+z
1/2+x,1/2-y,-z
1/2-x,1/2+y,1/2-z
1/2-x,1/2-y,-z
1/2+x,1/2+y,1/2-z
1/2-x,1/2+y,z
1/2+x,1/2-y,1/2+z
loop_
_atom_site_type_symbol
_atom_site_label
_atom_site_fract_x
_atom_site_fract_y
_atom_site_fract_z
Si Si1 0.645318 0.223492 0.094267
Si Si2 0.851080 0.964028 0.750000
Si Si3 0.234142 0.391159 0.516441
Si Si4 0.356783 0.411034 0.250000
Si Si5 0.000000 0.550047 0.594887
O O1 0.654309 0.242477 0.250000
O O2 0.500000 0.229133 0.052594
O O3 0.684685 0.161305 0.089759
O O4 0.750000 0.250000 0.000000
O O5 0.797504 0.932719 0.619580
O O6 0.000000 0.960972 0.750000
O O7 0.811681 0.026478 0.750000
O O8 0.321101 0.380941 0.387707
O O9 0.118060 0.416575 0.443025
O O10 0.500000 0.417239 0.250000
O O11 0.000000 0.500000 0.500000
O O12 0.000000 0.534025 0.750000
#
# Coordination Sequence:
#
# PCOD9475818 Si02
#       5
#    16   8  16   8   8
#     4  11  27  51  75 103 138 180 233 300 361 424
#     4  11  24  43  68 101 144 190 236 281 341 418
#     4  12  24  44  69  99 141 183 233 284 348 416
#     4  11  24  41  64 101 146 190 232 283 337 412
#     4  12  26  40  68 106 144 188 234 280 343 414
#
# _framework density 20.778949999999998
#
# number of rings (size 3 to 8) (size 9 to 14) (size 15 to 20)
#    0.000    0.571    4.286    3.429    4.000    5.143 
#    0.000    0.000    0.000    0.000    0.000    0.000 
#    0.000    0.000    0.000    0.000    0.000    0.000 
#
# Total GULP energy -156419.941244 kJ/mol
# GULP energy per Si atom -5586.426473 kJ/mol
# Density = 2.073166 g / cm^3
# Si number density = 20.778950 Si / 1000 Ang^3
#
#
#
# Elastic Constant Matrix: (Units=GPa)
#
#
# Indices 1 2 3 4 5 6 
#
# 1 143.9797 32.9064 56.5074 0.0000 0.0000 0.0000
# 2 32.9064 45.8579 20.1088 0.0000 0.0000 0.0000
# 3 56.5074 20.1088 152.0917 0.0000 0.0000 0.0000
# 4 0.0000 0.0000 0.0000 32.3067 0.0000 0.0000
# 5 0.0000 0.0000 0.0000 0.0000 37.9112 0.0000
# 6 0.0000 0.0000 0.0000 0.0000 0.0000 10.5244
#
#
#
# Elastic Compliance Matrix: (Units=1/GPa)
#
#
# Indices 1 2 3 4 5 6 
#
# 1 0.009258 -0.005451 -0.002719 0.000000 0.000000 0.000000
# 2 -0.005451 0.026358 -0.001460 0.000000 0.000000 0.000000
# 3 -0.002719 -0.001460 0.007778 0.000000 0.000000 0.000000
# 4 0.000000 0.000000 0.000000 0.030953 0.000000 0.000000
# 5 0.000000 0.000000 0.000000 0.000000 0.026377 0.000000
# 6 0.000000 0.000000 0.000000 0.000000 0.000000 0.095017
#
#
# Mechanical properties :
#
#
# Convention : Reuss Voigt Hill
#
# Bulk Modulus (GPa) = 41.43376 62.33051 51.88214
# Shear Modulus (GPa) = 22.41672 31.64225 27.02948
#
# Velocity S-wave (km/s) = 3.28810 3.90654 3.61059
# Velocity P-wave (km/s) = 5.86507 7.10001 6.51188
#
# Compressibility (1/GPa) = 0.02413491
#
# Stress axis : x y z
#
# Youngs Moduli (GPa) = 108.00920 37.93875 128.56439
#
# Poissons Ratio (x) = 0.20682 0.34958
# Poissons Ratio (y) = 0.58879 0.18765
# Poissons Ratio (z) = 0.29369 0.05538
#
# Static dielectric constant tensor:
#      x y z
#    x 1.836520 0.000000 0.000000 
#    y 0.000000 1.732990 0.000000 
#    z 0.000000 0.000000 1.722520 
# 
# From -- ./inp_files/2883.got.cif
#   From: 2010.05.17/outbox.cif.g08.bks.cpg/sg63_2_cif.got.tgz:2883.got - 2010.06.03 15:47:04.
