data_PCOD9475266
_publ_section_title
;
Structure prediction by ZEFSAII (Michael W. Deem and Ramdas Pophale) SiO2 
 PCOD9475266
Probable space group: C M C M
;
_chemical_formula_sum "Si O2"
_cell_formula_units_Z 84
_cell_length_a 12.132423
_cell_length_b 19.176233
_cell_length_c 14.679260
_cell_angle_alpha 90.000000
_cell_angle_beta 90.000000
_cell_angle_gamma 90.000000
_cell_volume 3415.191056
_symmetry_space_group_name_H-M "C M C M"
_symmetry_group_IT_number 63
_symmetry_cell_setting 'orthorhombic'
loop_
_space_group_symop_operation_xyz
x,y,z
-x,-y,1/2+z
x,-y,-z
-x,y,1/2-z
-x,-y,-z
x,y,1/2-z
-x,y,z
x,-y,1/2+z
1/2+x,1/2+y,z
1/2-x,1/2-y,1/2+z
1/2+x,1/2-y,-z
1/2-x,1/2+y,1/2-z
1/2-x,1/2-y,-z
1/2+x,1/2+y,1/2-z
1/2-x,1/2+y,z
1/2+x,1/2-y,1/2+z
loop_
_atom_site_type_symbol
_atom_site_label
_atom_site_fract_x
_atom_site_fract_y
_atom_site_fract_z
Si Si1 0.000000 0.423343 0.640073
Si Si2 0.658442 0.315092 0.750000
Si Si3 0.277743 0.990084 0.355986
Si Si4 0.000000 0.667812 0.952148
Si Si5 0.740017 0.168896 0.915258
Si Si6 0.366636 0.256936 0.250000
Si Si7 0.000000 0.316175 0.250000
Si Si8 0.878093 0.102552 0.068758
O O1 0.891949 0.470337 0.626593
O O2 0.000000 0.402297 0.750000
O O3 0.000000 0.370742 0.551628
O O4 0.792162 0.313156 0.750000
O O5 0.604209 0.237411 0.750000
O O6 0.618740 0.356200 0.663111
O O7 0.250822 0.996446 0.250000
O O8 0.285002 0.909256 0.379492
O O9 0.184763 0.031035 0.410880
O O10 0.877765 0.701677 0.945949
O O11 0.000000 0.640915 0.844009
O O12 0.816937 0.205999 0.840406
O O13 0.809185 0.152073 0.003852
O O14 0.500000 0.254078 0.250000
O O15 0.000000 0.091109 0.032202
#
# Coordination Sequence:
#
# PCOD9475266 Si02
#       8
#     8   8  16   8  16   8   4  16
#     4  10  23  43  70 110 164 196 240 317 374 437
#     4  12  26  53  74 100 137 189 256 310 369 447
#     4  11  23  43  70 107 150 192 238 295 378 451
#     4  12  23  44  79 110 146 200 260 301 370 448
#     4  12  25  45  74 110 147 190 241 303 374 449
#     4  12  28  53  74 105 146 189 246 317 374 442
#     4  12  24  50  82 102 134 198 266 312 362 440
#     4  12  26  44  71 102 144 191 241 301 369 450
#
# _framework density 24.595987999999998
#
# number of rings (size 3 to 8) (size 9 to 14) (size 15 to 20)
#    0.000    0.381    6.667    1.714    0.000    3.810 
#    3.429    0.000    0.000    0.000    0.000    0.000 
#    0.000    0.000    0.000    0.000    0.000    0.000 
#
# Total GULP energy -234827.726873 kJ/mol
# GULP energy per Si atom -5591.136354 kJ/mol
# Density = 2.454001 g / cm^3
# Si number density = 24.595988 Si / 1000 Ang^3
#
#
#
# Elastic Constant Matrix: (Units=GPa)
#
#
# Indices 1 2 3 4 5 6 
#
# 1 228.3659 32.8722 26.7414 0.0000 0.0000 0.0000
# 2 32.8722 73.8942 7.3054 0.0000 0.0000 0.0000
# 3 26.7414 7.3054 141.6378 0.0000 0.0000 0.0000
# 4 0.0000 0.0000 0.0000 121.3355 0.0000 0.0000
# 5 0.0000 0.0000 0.0000 0.0000 50.3401 0.0000
# 6 0.0000 0.0000 0.0000 0.0000 0.0000 25.8743
#
#
#
# Elastic Compliance Matrix: (Units=1/GPa)
#
#
# Indices 1 2 3 4 5 6 
#
# 1 0.004766 -0.002042 -0.000794 0.000000 0.000000 0.000000
# 2 -0.002042 0.014477 -0.000361 0.000000 0.000000 0.000000
# 3 -0.000794 -0.000361 0.007229 0.000000 0.000000 0.000000
# 4 0.000000 0.000000 0.000000 0.008242 0.000000 0.000000
# 5 0.000000 0.000000 0.000000 0.000000 0.019865 0.000000
# 6 0.000000 0.000000 0.000000 0.000000 0.000000 0.038648
#
#
# Mechanical properties :
#
#
# Convention : Reuss Voigt Hill
#
# Bulk Modulus (GPa) = 49.80839 64.19286 57.00063
# Shear Modulus (GPa) = 47.03077 64.64188 55.83633
#
# Velocity S-wave (km/s) = 4.37754 5.13211 4.76977
# Velocity P-wave (km/s) = 6.77089 7.82775 7.31842
#
# Compressibility (1/GPa) = 0.02007694
#
# Stress axis : x y z
#
# Youngs Moduli (GPa) = 209.82630 69.07612 138.33370
#
# Poissons Ratio (x) = 0.14102 0.10991
# Poissons Ratio (y) = 0.42837 0.04997
# Poissons Ratio (z) = 0.16671 0.02495
#
# Static dielectric constant tensor:
#      x y z
#    x 1.987420 0.000000 0.000000 
#    y 0.000000 1.980240 0.000000 
#    z 0.000000 0.000000 2.004660 
# 
# From -- ./inp_files/29944.got.cif
#   From: 2010.05.17/outbox.cif.g08.bks.cpg/sg63_15_cif.got.tgz:29944.got - 2010.06.03 15:47:04.
