data_PCOD9475871
_publ_section_title
;
Structure prediction by ZEFSAII (Michael W. Deem and Ramdas Pophale) SiO2 
 PCOD9475871
Probable space group: C M C M
;
_chemical_formula_sum "Si O2"
_cell_formula_units_Z 88
_cell_length_a 14.319040
_cell_length_b 23.176673
_cell_length_c 13.164833
_cell_angle_alpha 90.000000
_cell_angle_beta 90.000000
_cell_angle_gamma 90.000000
_cell_volume 4368.982951
_symmetry_space_group_name_H-M "C M C M"
_symmetry_group_IT_number 63
_symmetry_cell_setting 'orthorhombic'
loop_
_space_group_symop_operation_xyz
x,y,z
-x,-y,1/2+z
x,-y,-z
-x,y,1/2-z
-x,-y,-z
x,y,1/2-z
-x,y,z
x,-y,1/2+z
1/2+x,1/2+y,z
1/2-x,1/2-y,1/2+z
1/2+x,1/2-y,-z
1/2-x,1/2+y,1/2-z
1/2-x,1/2-y,-z
1/2+x,1/2+y,1/2-z
1/2-x,1/2+y,z
1/2+x,1/2-y,1/2+z
loop_
_atom_site_type_symbol
_atom_site_label
_atom_site_fract_x
_atom_site_fract_y
_atom_site_fract_z
Si Si1 0.855236 0.264743 0.032594
Si Si2 0.112490 0.998436 0.250000
Si Si3 0.270779 0.446264 0.568632
Si Si4 0.395964 0.645930 0.547817
Si Si5 0.609070 0.176176 0.750000
Si Si6 0.105563 0.637567 0.134258
Si Si7 0.804904 0.130390 0.750000
O O1 0.871980 0.288318 0.146077
O O2 0.750000 0.250000 0.000000
O O3 0.902355 0.202678 0.020134
O O4 0.887199 0.312513 0.950571
O O5 0.149057 0.932723 0.250000
O O6 0.000000 0.001332 0.250000
O O7 0.159259 0.029340 0.153511
O O8 0.239022 0.500000 0.500000
O O9 0.331156 0.401987 0.502118
O O10 0.183546 0.410678 0.612635
O O11 0.500000 0.623372 0.568239
O O12 0.344746 0.662372 0.651931
O O13 0.500000 0.157512 0.750000
O O14 0.692472 0.128827 0.750000
O O15 0.119562 0.659861 0.250000
O O16 0.000000 0.613890 0.128827
#
# Coordination Sequence:
#
# PCOD9475871 Si02
#       7
#    16   8  16  16   8  16   8
#     4  12  25  45  71 104 142 183 230 288 352 419
#     4  12  26  45  68  97 138 181 231 286 345 410
#     4  12  25  44  69  99 136 181 234 287 344 410
#     4  12  25  42  68 100 136 179 228 281 349 418
#     4  12  26  47  70 102 146 186 234 292 352 421
#     4  11  25  47  72 102 142 186 234 291 353 418
#     4  12  24  42  66  99 136 181 227 286 345 411
#
# _framework density 20.141987
#
# number of rings (size 3 to 8) (size 9 to 14) (size 15 to 20)
#    0.000    0.182    6.364    3.000    2.545    1.818 
#    0.000    2.727    0.000    0.000    0.000    0.000 
#    0.000    0.000    0.000    0.000    0.000    0.000 
#
# Total GULP energy -245861.991522 kJ/mol
# GULP energy per Si atom -5587.772535 kJ/mol
# Density = 2.009614 g / cm^3
# Si number density = 20.141987 Si / 1000 Ang^3
#
#
#
# Elastic Constant Matrix: (Units=GPa)
#
#
# Indices 1 2 3 4 5 6 
#
# 1 172.9763 24.2643 32.2188 0.0000 0.0000 0.0000
# 2 24.2643 86.9046 39.3245 0.0000 0.0000 0.0000
# 3 32.2188 39.3245 143.8251 0.0000 0.0000 0.0000
# 4 0.0000 0.0000 0.0000 7.9170 0.0000 0.0000
# 5 0.0000 0.0000 0.0000 0.0000 25.5188 0.0000
# 6 0.0000 0.0000 0.0000 0.0000 0.0000 -132.0244
#
#
#
# Elastic Compliance Matrix: (Units=1/GPa)
#
#
# Indices 1 2 3 4 5 6 
#
# 1 0.006149 -0.001248 -0.001036 0.000000 0.000000 0.000000
# 2 -0.001248 0.013385 -0.003380 0.000000 0.000000 0.000000
# 3 -0.001036 -0.003380 0.008109 0.000000 0.000000 0.000000
# 4 0.000000 0.000000 0.000000 0.126310 0.000000 0.000000
# 5 0.000000 0.000000 0.000000 0.000000 0.039187 0.000000
# 6 0.000000 0.000000 0.000000 0.000000 0.000000 -0.007574
#
#
# Mechanical properties :
#
#
# Convention : Reuss Voigt Hill
#
# Bulk Modulus (GPa) = 61.29508 66.14680 63.72094
# Shear Modulus (GPa) = 24.71176 0.80883 12.76029
#
# Velocity S-wave (km/s) = 3.50648 0.63438 2.51971
# Velocity P-wave (km/s) = 6.84773 5.78344 6.33796
#
# Compressibility (1/GPa) = 0.01631452
#
# Stress axis : x y z
#
# Youngs Moduli (GPa) = 162.62220 74.71149 123.31649
#
# Poissons Ratio (x) = 0.09324 0.12779
# Poissons Ratio (y) = 0.20295 0.41682
# Poissons Ratio (z) = 0.16852 0.25253
#
# Static dielectric constant tensor:
#      x y z
#    x 1.791470 0.000000 0.000000 
#    y 0.000000 1.703930 0.000000 
#    z 0.000000 0.000000 1.765460 
# 
# From -- ./inp_files/19545.got.cif
#   From: 2010.05.17/outbox.cif.g08.bks.cpg/sg63_10_cif.got.tgz:19545.got - 2010.06.03 15:47:04.
