data_PCOD9475173
_publ_section_title
;
Structure prediction by ZEFSAII (Michael W. Deem and Ramdas Pophale) SiO2 
 PCOD9475173
Probable space group: C M C M
;
_chemical_formula_sum "Si O2"
_cell_formula_units_Z 104
_cell_length_a 15.662846
_cell_length_b 12.899550
_cell_length_c 26.962160
_cell_angle_alpha 90.000000
_cell_angle_beta 90.000000
_cell_angle_gamma 90.000000
_cell_volume 5447.533626
_symmetry_space_group_name_H-M "C M C M"
_symmetry_group_IT_number 63
_symmetry_cell_setting 'orthorhombic'
loop_
_space_group_symop_operation_xyz
x,y,z
-x,-y,1/2+z
x,-y,-z
-x,y,1/2-z
-x,-y,-z
x,y,1/2-z
-x,y,z
x,-y,1/2+z
1/2+x,1/2+y,z
1/2-x,1/2-y,1/2+z
1/2+x,1/2-y,-z
1/2-x,1/2+y,1/2-z
1/2-x,1/2-y,-z
1/2+x,1/2+y,1/2-z
1/2-x,1/2+y,z
1/2+x,1/2-y,1/2+z
loop_
_atom_site_type_symbol
_atom_site_label
_atom_site_fract_x
_atom_site_fract_y
_atom_site_fract_z
Si Si1 0.097269 0.843047 0.142905
Si Si2 0.140652 0.907157 0.034335
Si Si3 0.837981 0.040430 0.308586
Si Si4 0.159426 0.542324 0.947318
Si Si5 0.500000 0.622317 0.369901
Si Si6 0.641278 0.276518 0.941037
Si Si7 0.800008 0.640333 0.120249
O O1 0.096722 0.890544 0.086944
O O2 0.154542 0.919904 0.175449
O O3 0.138220 0.730338 0.138866
O O4 0.000000 0.841632 0.160992
O O5 0.238486 0.937264 0.046467
O O6 0.137950 0.807442 0.998808
O O7 0.105837 0.000000 0.000000
O O8 0.831790 0.051996 0.250000
O O9 0.924462 0.089662 0.330349
O O10 0.758429 0.092884 0.336538
O O11 0.123697 0.654897 0.934203
O O12 0.150790 0.453126 0.906705
O O13 0.127412 0.500000 0.000000
O O14 0.425935 0.657750 0.410025
O O15 0.734247 0.308366 0.919614
#
# Coordination Sequence:
#
# PCOD9475173 Si02
#       7
#    16  16  16  16   8  16  16
#     4  12  25  39  62  96 132 161 202 261 317 366
#     4  11  19  33  57  90 123 171 213 253 297 355
#     4  11  23  43  68  91 116 151 205 265 324 379
#     4  11  19  34  59  83 123 175 214 245 290 361
#     4  10  23  38  60  90 122 158 203 266 313 358
#     4  11  20  36  57  86 127 171 216 255 293 365
#     4  11  21  40  60  90 122 165 207 250 314 376
#
# _framework density 19.091208999999999
#
# number of rings (size 3 to 8) (size 9 to 14) (size 15 to 20)
#    0.000    0.923    6.923    2.538    1.077    0.923 
#    1.385    0.385    0.000    0.923    0.000    0.000 
#    0.000    0.000    0.000    0.000    0.000    0.000 
#
# Total GULP energy -289637.338418 kJ/mol
# GULP energy per Si atom -5569.948816 kJ/mol
# Density = 1.904776 g / cm^3
# Si number density = 19.091209 Si / 1000 Ang^3
#
#
#
# Elastic Constant Matrix: (Units=GPa)
#
#
# Indices 1 2 3 4 5 6 
#
# 1 34.2712 19.4688 11.3873 0.0000 0.0000 0.0000
# 2 19.4688 108.5094 39.1664 0.0000 0.0000 0.0000
# 3 11.3873 39.1664 98.0370 0.0000 0.0000 0.0000
# 4 0.0000 0.0000 0.0000 13.8600 0.0000 0.0000
# 5 0.0000 0.0000 0.0000 0.0000 4.3953 0.0000
# 6 0.0000 0.0000 0.0000 0.0000 0.0000 -7.0659
#
#
#
# Elastic Compliance Matrix: (Units=1/GPa)
#
#
# Indices 1 2 3 4 5 6 
#
# 1 0.032732 -0.005259 -0.001701 0.000000 0.000000 0.000000
# 2 -0.005259 0.011614 -0.004029 0.000000 0.000000 0.000000
# 3 -0.001701 -0.004029 0.012007 0.000000 0.000000 0.000000
# 4 0.000000 0.000000 0.000000 0.072150 0.000000 0.000000
# 5 0.000000 0.000000 0.000000 0.000000 0.227516 0.000000
# 6 0.000000 0.000000 0.000000 0.000000 0.000000 -0.141525
#
#
# Mechanical properties :
#
#
# Convention : Reuss Voigt Hill
#
# Bulk Modulus (GPa) = 29.09062 42.31805 35.70433
# Shear Modulus (GPa) = 20.16697 13.62421 16.89559
#
# Velocity S-wave (km/s) = 3.25368 2.67430 2.97811
# Velocity P-wave (km/s) = 5.42089 5.63473 5.52884
#
# Compressibility (1/GPa) = 0.03437534
#
# Stress axis : x y z
#
# Youngs Moduli (GPa) = 30.55149 86.10646 83.28232
#
# Poissons Ratio (x) = 0.45281 0.14166
# Poissons Ratio (y) = 0.16066 0.33553
# Poissons Ratio (z) = 0.05197 0.34691
#
# Static dielectric constant tensor:
#      x y z
#    x 1.658630 0.000000 0.000000 
#    y 0.000000 1.713140 0.000000 
#    z 0.000000 0.000000 1.637130 
# 
# From -- ./inp_files/69973.got.cif
#   From: 2010.05.17/outbox.cif.g08.bks.cpg/sg63_35_cif.got.tgz:69973.got - 2010.06.03 15:47:04.
