data_PCOD9475916
_publ_section_title
;
Structure prediction by ZEFSAII (Michael W. Deem and Ramdas Pophale) SiO2 
 PCOD9475916
Probable space group: C M C M
;
_chemical_formula_sum "Si O2"
_cell_formula_units_Z 52
_cell_length_a 22.342635
_cell_length_b 7.182452
_cell_length_c 15.669073
_cell_angle_alpha 90.000000
_cell_angle_beta 90.000000
_cell_angle_gamma 90.000000
_cell_volume 2514.492977
_symmetry_space_group_name_H-M "C M C M"
_symmetry_group_IT_number 63
_symmetry_cell_setting 'orthorhombic'
loop_
_space_group_symop_operation_xyz
x,y,z
-x,-y,1/2+z
x,-y,-z
-x,y,1/2-z
-x,-y,-z
x,y,1/2-z
-x,y,z
x,-y,1/2+z
1/2+x,1/2+y,z
1/2-x,1/2-y,1/2+z
1/2+x,1/2-y,-z
1/2-x,1/2+y,1/2-z
1/2-x,1/2-y,-z
1/2+x,1/2+y,1/2-z
1/2-x,1/2+y,z
1/2+x,1/2-y,1/2+z
loop_
_atom_site_type_symbol
_atom_site_label
_atom_site_fract_x
_atom_site_fract_y
_atom_site_fract_z
Si Si1 0.800675 0.215748 0.653494
Si Si2 0.174361 0.600746 0.908850
Si Si3 0.094971 0.046241 0.094252
Si Si4 0.500000 0.506008 0.250000
O O1 0.793993 0.145461 0.750000
O O2 0.825782 0.424828 0.653896
O O3 0.735979 0.210206 0.609123
O O4 0.847140 0.086237 0.604439
O O5 0.119577 0.742495 0.901921
O O6 0.175543 0.500000 0.000000
O O7 0.051766 0.009441 0.173748
O O8 0.069991 0.000000 0.000000
#
# Coordination Sequence:
#
# PCOD9475916 Si02
#       4
#    16  16  16   4
#     4  12  24  39  70 112 152 182 224 285 362 438
#     4  12  24  41  71 112 146 184 225 287 371 429
#     4  12  26  50  73 103 143 186 242 296 350 425
#     4  12  30  52  76  96 132 204 252 290 348 408
#
# _framework density 20.680112999999999
#
# number of rings (size 3 to 8) (size 9 to 14) (size 15 to 20)
#    0.000    0.000    7.692    3.231    4.308    0.000 
#    0.000    3.846    0.000    0.000    0.000    0.000 
#    0.000    0.000    0.000    0.000    0.000    0.000 
#
# Total GULP energy -144864.263447 kJ/mol
# GULP energy per Si atom -5571.702440 kJ/mol
# Density = 2.063304 g / cm^3
# Si number density = 20.680113 Si / 1000 Ang^3
#
#
#
# Elastic Constant Matrix: (Units=GPa)
#
#
# Indices 1 2 3 4 5 6 
#
# 1 83.8177 8.1783 38.3482 0.0000 0.0000 0.0000
# 2 8.1783 89.6477 0.0910 0.0000 0.0000 0.0000
# 3 38.3482 0.0910 166.1315 0.0000 0.0000 0.0000
# 4 0.0000 0.0000 0.0000 23.0849 0.0000 0.0000
# 5 0.0000 0.0000 0.0000 0.0000 18.4275 0.0000
# 6 0.0000 0.0000 0.0000 0.0000 0.0000 -8.5853
#
#
#
# Elastic Compliance Matrix: (Units=1/GPa)
#
#
# Indices 1 2 3 4 5 6 
#
# 1 0.013473 -0.001226 -0.003109 0.000000 0.000000 0.000000
# 2 -0.001226 0.011266 0.000277 0.000000 0.000000 0.000000
# 3 -0.003109 0.000277 0.006737 0.000000 0.000000 0.000000
# 4 0.000000 0.000000 0.000000 0.043318 0.000000 0.000000
# 5 0.000000 0.000000 0.000000 0.000000 0.054267 0.000000
# 6 0.000000 0.000000 0.000000 0.000000 0.000000 -0.116479
#
#
# Mechanical properties :
#
#
# Convention : Reuss Voigt Hill
#
# Bulk Modulus (GPa) = 42.80955 48.09243 45.45099
# Shear Modulus (GPa) = 175.52733 26.11738 100.82236
#
# Velocity S-wave (km/s) = 9.22289 3.55762 6.98993
# Velocity P-wave (km/s) = 11.58280 6.33888 9.33656
#
# Compressibility (1/GPa) = 0.02335927
#
# Stress axis : x y z
#
# Youngs Moduli (GPa) = 74.22348 88.76000 148.43643
#
# Poissons Ratio (x) = 0.10881 0.46153
# Poissons Ratio (y) = 0.09099 -0.04109
# Poissons Ratio (z) = 0.23078 -0.02457
#
# Static dielectric constant tensor:
#      x y z
#    x 1.690120 0.000000 0.000000 
#    y 0.000000 1.761930 0.000000 
#    z 0.000000 0.000000 1.805030 
# 
# From -- ./inp_files/34667.got.cif
#   From: 2010.05.17/outbox.cif.g08.bks.cpg/sg63_18_cif.got.tgz:34667.got - 2010.06.03 15:47:04.
