data_PCOD9475183
_publ_section_title
;
Structure prediction by ZEFSAII (Michael W. Deem and Ramdas Pophale) SiO2 
 PCOD9475183
Probable space group: C M C M
;
_chemical_formula_sum "Si O2"
_cell_formula_units_Z 52
_cell_length_a 29.542085
_cell_length_b 5.183490
_cell_length_c 14.965476
_cell_angle_alpha 90.000000
_cell_angle_beta 90.000000
_cell_angle_gamma 90.000000
_cell_volume 2291.679834
_symmetry_space_group_name_H-M "C M C M"
_symmetry_group_IT_number 63
_symmetry_cell_setting 'orthorhombic'
loop_
_space_group_symop_operation_xyz
x,y,z
-x,-y,1/2+z
x,-y,-z
-x,y,1/2-z
-x,-y,-z
x,y,1/2-z
-x,y,z
x,-y,1/2+z
1/2+x,1/2+y,z
1/2-x,1/2-y,1/2+z
1/2+x,1/2-y,-z
1/2-x,1/2+y,1/2-z
1/2-x,1/2-y,-z
1/2+x,1/2+y,1/2-z
1/2-x,1/2+y,z
1/2+x,1/2-y,1/2+z
loop_
_atom_site_type_symbol
_atom_site_label
_atom_site_fract_x
_atom_site_fract_y
_atom_site_fract_z
Si Si1 0.133348 0.989553 0.143922
Si Si2 0.768462 0.207033 0.600679
Si Si3 0.422825 0.980574 0.100845
Si Si4 0.000000 0.605517 0.750000
O O1 0.138512 0.025805 0.250000
O O2 0.180971 0.897027 0.104427
O O3 0.097981 0.757582 0.127316
O O4 0.115307 0.256434 0.102999
O O5 0.750000 0.250000 0.500000
O O6 0.763027 0.487523 0.643262
O O7 0.460526 0.902559 0.172072
O O8 0.440463 0.000000 0.000000
#
# Coordination Sequence:
#
# PCOD9475183 Si02
#       4
#    16  16  16   4
#     4  12  25  48  73 113 155 202 256 317 389 447
#     4  10  23  39  66 104 146 198 244 312 351 443
#     4  12  28  47  82 111 151 202 249 326 389 476
#     4  12  26  58  76 120 148 190 270 318 400 456
#
# _framework density 22.690778000000002
#
# number of rings (size 3 to 8) (size 9 to 14) (size 15 to 20)
#    0.000    0.615    3.077    3.231   12.923    3.692 
#    0.000    3.077    0.000    0.000    0.000    0.000 
#    0.000    0.000    0.000    0.000    0.000    0.000 
#
# Total GULP energy -144969.680335 kJ/mol
# GULP energy per Si atom -5575.756936 kJ/mol
# Density = 2.263913 g / cm^3
# Si number density = 22.690778 Si / 1000 Ang^3
#
#
#
# Elastic Constant Matrix: (Units=GPa)
#
#
# Indices 1 2 3 4 5 6 
#
# 1 78.2515 -15.9025 58.8182 0.0000 0.0000 0.0000
# 2 -15.9025 123.1344 20.4263 0.0000 0.0000 0.0000
# 3 58.8182 20.4263 165.7220 0.0000 0.0000 0.0000
# 4 0.0000 0.0000 0.0000 7.5346 0.0000 0.0000
# 5 0.0000 0.0000 0.0000 0.0000 43.4242 0.0000
# 6 0.0000 0.0000 0.0000 0.0000 0.0000 -25.9038
#
#
#
# Elastic Compliance Matrix: (Units=1/GPa)
#
#
# Indices 1 2 3 4 5 6 
#
# 1 0.018892 0.003626 -0.007152 0.000000 0.000000 0.000000
# 2 0.003626 0.008987 -0.002395 0.000000 0.000000 0.000000
# 3 -0.007152 -0.002395 0.008868 0.000000 0.000000 0.000000
# 4 0.000000 0.000000 0.000000 0.132721 0.000000 0.000000
# 5 0.000000 0.000000 0.000000 0.000000 0.023029 0.000000
# 6 0.000000 0.000000 0.000000 0.000000 0.000000 -0.038604
#
#
# Mechanical properties :
#
#
# Convention : Reuss Voigt Hill
#
# Bulk Modulus (GPa) = 40.15149 54.86575 47.50862
# Shear Modulus (GPa) = 28.72978 25.26205 26.99592
#
# Velocity S-wave (km/s) = 3.56215 3.34026 3.45299
# Velocity P-wave (km/s) = 5.88660 6.25370 6.07292
#
# Compressibility (1/GPa) = 0.02490568
#
# Stress axis : x y z
#
# Youngs Moduli (GPa) = 52.93163 111.27435 112.76692
#
# Poissons Ratio (x) = -0.40352 0.80654
# Poissons Ratio (y) = -0.19195 0.27005
# Poissons Ratio (z) = 0.37858 0.26647
#
# Static dielectric constant tensor:
#      x y z
#    x 1.808970 0.000000 0.000000 
#    y 0.000000 1.939850 0.000000 
#    z 0.000000 0.000000 1.748540 
# 
# From -- ./inp_files/38210.got.cif
#   From: 2010.05.17/outbox.cif.g08.bks.cpg/sg63_20_cif.got.tgz:38210.got - 2010.06.03 15:47:04.
