data_PCOD9475738
_publ_section_title
;
Structure prediction by ZEFSAII (Michael W. Deem and Ramdas Pophale) SiO2 
 PCOD9475738
Probable space group: C M C M
;
_chemical_formula_sum "Si O2"
_cell_formula_units_Z 96
_cell_length_a 23.160785
_cell_length_b 11.416018
_cell_length_c 19.041930
_cell_angle_alpha 90.000000
_cell_angle_beta 90.000000
_cell_angle_gamma 90.000000
_cell_volume 5034.761288
_symmetry_space_group_name_H-M "C M C M"
_symmetry_group_IT_number 63
_symmetry_cell_setting 'orthorhombic'
loop_
_space_group_symop_operation_xyz
x,y,z
-x,-y,1/2+z
x,-y,-z
-x,y,1/2-z
-x,-y,-z
x,y,1/2-z
-x,y,z
x,-y,1/2+z
1/2+x,1/2+y,z
1/2-x,1/2-y,1/2+z
1/2+x,1/2-y,-z
1/2-x,1/2+y,1/2-z
1/2-x,1/2-y,-z
1/2+x,1/2+y,1/2-z
1/2-x,1/2+y,z
1/2+x,1/2-y,1/2+z
loop_
_atom_site_type_symbol
_atom_site_label
_atom_site_fract_x
_atom_site_fract_y
_atom_site_fract_z
Si Si1 0.758293 0.537196 0.419189
Si Si2 0.936893 0.520674 0.084247
Si Si3 0.850203 0.335009 0.393490
Si Si4 0.567135 0.443466 0.422594
Si Si5 0.649191 0.223458 0.441512
Si Si6 0.646699 0.588740 0.169041
O O1 0.746655 0.500000 0.500000
O O2 0.801515 0.436018 0.391460
O O3 0.788837 0.666744 0.419447
O O4 0.701044 0.538805 0.374004
O O5 0.909865 0.404435 0.116087
O O6 0.893800 0.627438 0.091064
O O7 0.000000 0.547425 0.110720
O O8 0.938993 0.500000 0.000000
O O9 0.849827 0.284911 0.473502
O O10 0.846897 0.228008 0.341125
O O11 0.568291 0.500000 0.500000
O O12 0.500000 0.404721 0.410313
O O13 0.617150 0.343543 0.421665
O O14 0.588714 0.540358 0.367331
O O15 0.648843 0.555390 0.250000
#
# Coordination Sequence:
#
# PCOD9475738 Si02
#       6
#    16  16  16  16  16  16
#     4   9  21  38  64  89 118 154 198 258 306 354
#     4   8  14  27  53  86 115 139 173 228 290 346
#     4   9  19  35  55  87 117 148 189 243 303 347
#     4  11  23  39  62  89 121 161 203 244 295 364
#     4   9  17  35  60  91 117 143 191 247 301 347
#     4  12  26  40  56  82 121 165 204 244 298 363
#
# _framework density 19.067437999999999
#
# number of rings (size 3 to 8) (size 9 to 14) (size 15 to 20)
#    0.000    2.333    1.667    3.000    2.333    3.667 
#    0.000    0.000    0.000    1.000    0.000    0.000 
#    0.000    0.000    0.000    0.000    0.000    0.000 
#
# Total GULP energy -267448.459925 kJ/mol
# GULP energy per Si atom -5571.842915 kJ/mol
# Density = 1.902404 g / cm^3
# Si number density = 19.067438 Si / 1000 Ang^3
#
#
#
# Elastic Constant Matrix: (Units=GPa)
#
#
# Indices 1 2 3 4 5 6 
#
# 1 95.8136 25.9990 44.8125 0.0000 0.0000 0.0000
# 2 25.9990 77.3130 20.6372 0.0000 0.0000 0.0000
# 3 44.8125 20.6372 56.9496 0.0000 0.0000 0.0000
# 4 0.0000 0.0000 0.0000 13.6563 0.0000 0.0000
# 5 0.0000 0.0000 0.0000 0.0000 -1.2222 0.0000
# 6 0.0000 0.0000 0.0000 0.0000 0.0000 10.4875
#
#
#
# Elastic Compliance Matrix: (Units=1/GPa)
#
#
# Indices 1 2 3 4 5 6 
#
# 1 0.016895 -0.002361 -0.012439 0.000000 0.000000 0.000000
# 2 -0.002361 0.014650 -0.003451 0.000000 0.000000 0.000000
# 3 -0.012439 -0.003451 0.028598 0.000000 0.000000 0.000000
# 4 0.000000 0.000000 0.000000 0.073226 0.000000 0.000000
# 5 0.000000 0.000000 0.000000 0.000000 -0.818182 0.000000
# 6 0.000000 0.000000 0.000000 0.000000 0.000000 0.095351
#
#
# Mechanical properties :
#
#
# Convention : Reuss Voigt Hill
#
# Bulk Modulus (GPa) = 42.29938 45.88597 44.09267
# Shear Modulus (GPa) = -9.17296 13.82617 2.32660
#
# Velocity S-wave (km/s) = -2.19573 2.69573 1.10582
# Velocity P-wave (km/s) = 3.97542 5.81434 4.98049
#
# Compressibility (1/GPa) = 0.02364101
#
# Stress axis : x y z
#
# Youngs Moduli (GPa) = 59.18746 68.26145 34.96772
#
# Poissons Ratio (x) = 0.16119 0.43496
# Poissons Ratio (y) = 0.13976 0.12066
# Poissons Ratio (z) = 0.73623 0.23554
#
# Static dielectric constant tensor:
#      x y z
#    x 1.699290 0.000000 0.000000 
#    y 0.000000 1.707120 0.000000 
#    z 0.000000 0.000000 1.620750 
# 
# From -- ./inp_files/47965.got.cif
#   From: 2010.05.17/outbox.cif.g08.bks.cpg/sg63_24_cif.got.tgz:47965.got - 2010.06.03 15:47:04.
