data_PCOD9475740
_publ_section_title
;
Structure prediction by ZEFSAII (Michael W. Deem and Ramdas Pophale) SiO2 
 PCOD9475740
Probable space group: C M C M
;
_chemical_formula_sum "Si O2"
_cell_formula_units_Z 80
_cell_length_a 8.369249
_cell_length_b 26.245114
_cell_length_c 17.577324
_cell_angle_alpha 90.000000
_cell_angle_beta 90.000000
_cell_angle_gamma 90.000000
_cell_volume 3860.892510
_symmetry_space_group_name_H-M "C M C M"
_symmetry_group_IT_number 63
_symmetry_cell_setting 'orthorhombic'
loop_
_space_group_symop_operation_xyz
x,y,z
-x,-y,1/2+z
x,-y,-z
-x,y,1/2-z
-x,-y,-z
x,y,1/2-z
-x,y,z
x,-y,1/2+z
1/2+x,1/2+y,z
1/2-x,1/2-y,1/2+z
1/2+x,1/2-y,-z
1/2-x,1/2+y,1/2-z
1/2-x,1/2-y,-z
1/2+x,1/2+y,1/2-z
1/2-x,1/2+y,z
1/2+x,1/2-y,1/2+z
loop_
_atom_site_type_symbol
_atom_site_label
_atom_site_fract_x
_atom_site_fract_y
_atom_site_fract_z
Si Si1 0.683602 0.552070 0.840883
Si Si2 0.805046 0.839405 0.335981
Si Si3 0.183306 0.465852 0.929542
Si Si4 0.807931 0.736497 0.415782
Si Si5 0.690877 0.631654 0.339069
O O1 0.677464 0.557491 0.750000
O O2 0.500000 0.541105 0.865295
O O3 0.738300 0.606710 0.874064
O O4 0.798209 0.506677 0.862324
O O5 0.746750 0.840248 0.250000
O O6 0.753217 0.786571 0.370501
O O7 0.000000 0.840004 0.335434
O O8 0.258698 0.414414 0.895534
O O9 0.000000 0.454414 0.948885
O O10 0.252296 0.500000 0.000000
O O11 0.750000 0.750000 0.500000
O O12 0.745593 0.684833 0.377089
O O13 0.000000 0.734004 0.414812
O O14 0.748890 0.626580 0.250000
O O15 0.500000 0.631214 0.335523
#
# Coordination Sequence:
#
# PCOD9475740 Si02
#       5
#    16  16  16  16  16
#     4   9  18  35  60  88 116 151 198 247 296 361
#     4   8  16  33  58  86 115 152 198 242 293 362
#     4  11  25  41  59  89 126 162 204 256 315 379
#     4  11  23  39  62  93 129 168 210 258 314 374
#     4  11  25  45  68  94 125 168 221 270 319 382
#
# _framework density 20.720597000000001
#
# number of rings (size 3 to 8) (size 9 to 14) (size 15 to 20)
#    0.000    2.000    0.000    4.200    2.800    6.800 
#    0.000    1.000    0.000    2.400    0.000    0.000 
#    0.000    0.000    0.000    0.000    0.000    0.000 
#
# Total GULP energy -222920.828131 kJ/mol
# GULP energy per Si atom -5573.020703 kJ/mol
# Density = 2.067344 g / cm^3
# Si number density = 20.720597 Si / 1000 Ang^3
#
#
#
# Elastic Constant Matrix: (Units=GPa)
#
#
# Indices 1 2 3 4 5 6 
#
# 1 31.4864 11.7698 10.0096 0.0000 0.0000 0.0000
# 2 11.7698 130.5827 14.7728 0.0000 0.0000 0.0000
# 3 10.0096 14.7728 57.4487 0.0000 0.0000 0.0000
# 4 0.0000 0.0000 0.0000 29.0916 0.0000 0.0000
# 5 0.0000 0.0000 0.0000 0.0000 22.8446 0.0000
# 6 0.0000 0.0000 0.0000 0.0000 0.0000 27.5141
#
#
#
# Elastic Compliance Matrix: (Units=1/GPa)
#
#
# Indices 1 2 3 4 5 6 
#
# 1 0.034393 -0.002495 -0.005351 0.000000 0.000000 0.000000
# 2 -0.002495 0.008068 -0.001640 0.000000 0.000000 0.000000
# 3 -0.005351 -0.001640 0.018761 0.000000 0.000000 0.000000
# 4 0.000000 0.000000 0.000000 0.034374 0.000000 0.000000
# 5 0.000000 0.000000 0.000000 0.000000 0.043774 0.000000
# 6 0.000000 0.000000 0.000000 0.000000 0.000000 0.036345
#
#
# Mechanical properties :
#
#
# Convention : Reuss Voigt Hill
#
# Bulk Modulus (GPa) = 23.66805 32.51359 28.09082
# Shear Modulus (GPa) = 23.94966 28.08776 26.01871
#
# Velocity S-wave (km/s) = 3.40345 3.68577 3.54742
# Velocity P-wave (km/s) = 5.18574 5.81710 5.51047
#
# Compressibility (1/GPa) = 0.04225106
#
# Stress axis : x y z
#
# Youngs Moduli (GPa) = 29.07538 123.94068 53.30221
#
# Poissons Ratio (x) = 0.30918 0.28522
# Poissons Ratio (y) = 0.07253 0.08742
# Poissons Ratio (z) = 0.15558 0.20328
#
# Static dielectric constant tensor:
#      x y z
#    x 1.749710 0.000000 0.000000 
#    y 0.000000 1.773240 0.000000 
#    z 0.000000 0.000000 1.788660 
# 
# From -- ./inp_files/40412.got.cif
#   From: 2010.05.17/outbox.cif.g08.bks.cpg/sg63_21_cif.got.tgz:40412.got - 2010.06.03 15:47:04.
