data_PCOD9475800
_publ_section_title
;
Structure prediction by ZEFSAII (Michael W. Deem and Ramdas Pophale) SiO2 
 PCOD9475800
Probable space group: C M C M
;
_chemical_formula_sum "Si O2"
_cell_formula_units_Z 80
_cell_length_a 28.789274
_cell_length_b 8.091992
_cell_length_c 18.345746
_cell_angle_alpha 90.000000
_cell_angle_beta 90.000000
_cell_angle_gamma 90.000000
_cell_volume 4273.872227
_symmetry_space_group_name_H-M "C M C M"
_symmetry_group_IT_number 63
_symmetry_cell_setting 'orthorhombic'
loop_
_space_group_symop_operation_xyz
x,y,z
-x,-y,1/2+z
x,-y,-z
-x,y,1/2-z
-x,-y,-z
x,y,1/2-z
-x,y,z
x,-y,1/2+z
1/2+x,1/2+y,z
1/2-x,1/2-y,1/2+z
1/2+x,1/2-y,-z
1/2-x,1/2+y,1/2-z
1/2-x,1/2-y,-z
1/2+x,1/2+y,1/2-z
1/2-x,1/2+y,z
1/2+x,1/2-y,1/2+z
loop_
_atom_site_type_symbol
_atom_site_label
_atom_site_fract_x
_atom_site_fract_y
_atom_site_fract_z
Si Si1 0.449198 0.812736 0.967397
Si Si2 0.396753 0.075993 0.166765
Si Si3 0.221325 0.087828 0.076045
Si Si4 0.199568 0.227757 0.834257
Si Si5 0.861943 0.336925 0.049482
O O1 0.500000 0.736403 0.977601
O O2 0.435644 0.838396 0.883276
O O3 0.404142 0.741441 0.008801
O O4 0.451545 0.000000 0.000000
O O5 0.410537 0.049532 0.250000
O O6 0.350953 0.190184 0.164599
O O7 0.381278 0.908281 0.125605
O O8 0.265302 0.164136 0.117270
O O9 0.183331 0.227911 0.059327
O O10 0.199365 0.951363 0.129304
O O11 0.233826 0.000000 0.000000
O O12 0.215418 0.220697 0.750000
O O13 0.852146 0.500000 0.000000
#
# Coordination Sequence:
#
# PCOD9475800 Si02
#       5
#    16  16  16  16  16
#     4   8  15  30  51  76 104 130 163 213 267 310
#     4   9  18  33  52  75 104 137 174 214 258 314
#     4  12  23  36  56  78 104 142 187 225 260 316
#     4  11  24  38  52  76 111 145 177 219 271 319
#     4   9  19  35  53  77 106 135 170 217 266 308
#
# _framework density 18.718388999999998
#
# number of rings (size 3 to 8) (size 9 to 14) (size 15 to 20)
#    0.000    2.600    0.000    4.800    0.000    7.600 
#    0.000    0.000    0.000    5.400    0.000    0.000 
#    0.000    0.000    0.000    0.000    0.000    0.000 
#
# Total GULP energy -223237.767270 kJ/mol
# GULP energy per Si atom -5580.944182 kJ/mol
# Density = 1.867579 g / cm^3
# Si number density = 18.718389 Si / 1000 Ang^3
#
#
#
# Elastic Constant Matrix: (Units=GPa)
#
#
# Indices 1 2 3 4 5 6 
#
# 1 78.2899 17.5769 34.7455 0.0000 0.0000 0.0000
# 2 17.5769 44.9853 31.4769 0.0000 0.0000 0.0000
# 3 34.7455 31.4769 134.8188 0.0000 0.0000 0.0000
# 4 0.0000 0.0000 0.0000 24.3488 0.0000 0.0000
# 5 0.0000 0.0000 0.0000 0.0000 14.6174 0.0000
# 6 0.0000 0.0000 0.0000 0.0000 0.0000 0.7039
#
#
#
# Elastic Compliance Matrix: (Units=1/GPa)
#
#
# Indices 1 2 3 4 5 6 
#
# 1 0.014935 -0.003756 -0.002972 0.000000 0.000000 0.000000
# 2 -0.003756 0.027515 -0.005456 0.000000 0.000000 0.000000
# 3 -0.002972 -0.005456 0.009457 0.000000 0.000000 0.000000
# 4 0.000000 0.000000 0.000000 0.041070 0.000000 0.000000
# 5 0.000000 0.000000 0.000000 0.000000 0.068411 0.000000
# 6 0.000000 0.000000 0.000000 0.000000 0.000000 1.420631
#
#
# Mechanical properties :
#
#
# Convention : Reuss Voigt Hill
#
# Bulk Modulus (GPa) = 36.31225 47.29917 41.80571
# Shear Modulus (GPa) = 3.09489 19.55369 11.32429
#
# Velocity S-wave (km/s) = 1.28724 3.23557 2.46231
# Velocity P-wave (km/s) = 4.65303 6.26756 5.51964
#
# Compressibility (1/GPa) = 0.02753892
#
# Stress axis : x y z
#
# Youngs Moduli (GPa) = 66.95517 36.34426 105.73935
#
# Poissons Ratio (x) = 0.13651 0.31428
# Poissons Ratio (y) = 0.25148 0.57692
# Poissons Ratio (z) = 0.19901 0.19830
#
# Static dielectric constant tensor:
#      x y z
#    x 1.674110 0.000000 0.000000 
#    y 0.000000 1.654720 0.000000 
#    z 0.000000 0.000000 1.669800 
# 
# From -- ./inp_files/49392.got.cif
#   From: 2010.05.17/outbox.cif.g08.bks.cpg/sg63_25_cif.got.tgz:49392.got - 2010.06.03 15:47:04.
