data_PCOD9475034
_publ_section_title
;
Structure prediction by ZEFSAII (Michael W. Deem and Ramdas Pophale) SiO2 
 PCOD9475034
Probable space group: C M C M
;
_chemical_formula_sum "Si O2"
_cell_formula_units_Z 112
_cell_length_a 14.984600
_cell_length_b 26.414576
_cell_length_c 15.026172
_cell_angle_alpha 90.000000
_cell_angle_beta 90.000000
_cell_angle_gamma 90.000000
_cell_volume 5947.537021
_symmetry_space_group_name_H-M "C M C M"
_symmetry_group_IT_number 63
_symmetry_cell_setting 'orthorhombic'
loop_
_space_group_symop_operation_xyz
x,y,z
-x,-y,1/2+z
x,-y,-z
-x,y,1/2-z
-x,-y,-z
x,y,1/2-z
-x,y,z
x,-y,1/2+z
1/2+x,1/2+y,z
1/2-x,1/2-y,1/2+z
1/2+x,1/2-y,-z
1/2-x,1/2+y,1/2-z
1/2-x,1/2-y,-z
1/2+x,1/2+y,1/2-z
1/2-x,1/2+y,z
1/2+x,1/2-y,1/2+z
loop_
_atom_site_type_symbol
_atom_site_label
_atom_site_fract_x
_atom_site_fract_y
_atom_site_fract_z
Si Si1 0.104603 0.521446 0.099174
Si Si2 0.100640 0.331844 0.250000
Si Si3 0.891839 0.443214 0.250000
Si Si4 0.758871 0.389426 0.648087
Si Si5 0.103593 0.154836 0.470496
Si Si6 0.148307 0.729542 0.922407
Si Si7 0.340129 0.299722 0.146856
Si Si8 0.597215 0.807158 0.887034
O O1 0.132725 0.475821 0.164043
O O2 0.173167 0.567171 0.114810
O O3 0.000000 0.535591 0.117767
O O4 0.107933 0.500000 0.000000
O O5 0.148189 0.386608 0.250000
O O6 0.112909 0.297216 0.165043
O O7 0.000000 0.348069 0.250000
O O8 0.000000 0.444154 0.250000
O O9 0.730020 0.399609 0.750000
O O10 0.675750 0.379175 0.582033
O O11 0.820763 0.339264 0.648955
O O12 0.119373 0.212411 0.434142
O O13 0.122027 0.159255 0.577210
O O14 0.000000 0.141176 0.455641
O O15 0.253472 0.722124 0.905587
O O16 0.113313 0.698980 0.007429
O O17 0.322126 0.314667 0.250000
O O18 0.401247 0.249987 0.148941
O O19 0.500000 0.830134 0.869164
#
# Coordination Sequence:
#
# PCOD9475034 Si02
#       8
#    16   8   8  16  16  16  16  16
#     4  10  22  41  65  91 124 159 197 255 321 380
#     4  11  22  32  55  86 121 165 210 248 291 360
#     4   9  20  38  55  84 119 153 200 248 303 370
#     4  12  24  39  62  90 123 164 206 254 311 370
#     4  11  24  41  60  87 128 169 212 259 305 363
#     4  11  20  37  53  83 126 172 209 249 299 359
#     4  11  20  37  58  80 118 166 209 256 304 354
#     4  11  22  35  54  81 117 160 207 249 300 362
#
# _framework density 18.831325
#
# number of rings (size 3 to 8) (size 9 to 14) (size 15 to 20)
#    0.000    1.143    4.286    4.286    3.000    2.857 
#    0.000    0.000    0.000    0.429    0.000    0.000 
#    0.000    0.000    0.000    0.000    0.000    0.000 
#
# Total GULP energy -312342.111772 kJ/mol
# GULP energy per Si atom -5577.537710 kJ/mol
# Density = 1.878846 g / cm^3
# Si number density = 18.831325 Si / 1000 Ang^3
#
#
#
# Elastic Constant Matrix: (Units=GPa)
#
#
# Indices 1 2 3 4 5 6 
#
# 1 112.3945 12.6409 29.9849 0.0000 0.0000 0.0000
# 2 12.6409 56.0009 37.7657 0.0000 0.0000 0.0000
# 3 29.9849 37.7657 153.1598 0.0000 0.0000 0.0000
# 4 0.0000 0.0000 0.0000 14.7763 0.0000 0.0000
# 5 0.0000 0.0000 0.0000 0.0000 14.2224 0.0000
# 6 0.0000 0.0000 0.0000 0.0000 0.0000 26.3152
#
#
#
# Elastic Compliance Matrix: (Units=1/GPa)
#
#
# Indices 1 2 3 4 5 6 
#
# 1 0.009440 -0.001061 -0.001586 0.000000 0.000000 0.000000
# 2 -0.001061 0.021538 -0.005103 0.000000 0.000000 0.000000
# 3 -0.001586 -0.005103 0.008098 0.000000 0.000000 0.000000
# 4 0.000000 0.000000 0.000000 0.067676 0.000000 0.000000
# 5 0.000000 0.000000 0.000000 0.000000 0.070311 0.000000
# 6 0.000000 0.000000 0.000000 0.000000 0.000000 0.038001
#
#
# Mechanical properties :
#
#
# Convention : Reuss Voigt Hill
#
# Bulk Modulus (GPa) = 42.41841 53.59312 48.00576
# Shear Modulus (GPa) = 20.97116 27.14038 24.05577
#
# Velocity S-wave (km/s) = 3.34073 3.80048 3.57800
# Velocity P-wave (km/s) = 6.12005 6.91227 6.52819
#
# Compressibility (1/GPa) = 0.02357467
#
# Stress axis : x y z
#
# Youngs Moduli (GPa) = 105.93450 46.43032 123.48727
#
# Poissons Ratio (x) = 0.04926 0.19591
# Poissons Ratio (y) = 0.11239 0.63015
# Poissons Ratio (z) = 0.16806 0.23693
#
# Static dielectric constant tensor:
#      x y z
#    x 1.766260 0.000000 0.000000 
#    y 0.000000 1.647190 0.000000 
#    z 0.000000 0.000000 1.679580 
# 
# From -- ./inp_files/32598.got.cif
#   From: 2010.05.17/outbox.cif.g08.bks.cpg/sg63_17_cif.got.tgz:32598.got - 2010.06.03 15:47:04.
