data_PCOD9475197
_publ_section_title
;
Structure prediction by ZEFSAII (Michael W. Deem and Ramdas Pophale) SiO2 
 PCOD9475197
Probable space group: C M C M
;
_chemical_formula_sum "Si O2"
_cell_formula_units_Z 88
_cell_length_a 20.296226
_cell_length_b 8.639746
_cell_length_c 26.494223
_cell_angle_alpha 90.000000
_cell_angle_beta 90.000000
_cell_angle_gamma 90.000000
_cell_volume 4645.874270
_symmetry_space_group_name_H-M "C M C M"
_symmetry_group_IT_number 63
_symmetry_cell_setting 'orthorhombic'
loop_
_space_group_symop_operation_xyz
x,y,z
-x,-y,1/2+z
x,-y,-z
-x,y,1/2-z
-x,-y,-z
x,y,1/2-z
-x,y,z
x,-y,1/2+z
1/2+x,1/2+y,z
1/2-x,1/2-y,1/2+z
1/2+x,1/2-y,-z
1/2-x,1/2+y,1/2-z
1/2-x,1/2-y,-z
1/2+x,1/2+y,1/2-z
1/2-x,1/2+y,z
1/2+x,1/2-y,1/2+z
loop_
_atom_site_type_symbol
_atom_site_label
_atom_site_fract_x
_atom_site_fract_y
_atom_site_fract_z
Si Si1 0.924407 0.147279 0.692141
Si Si2 0.321642 0.480918 0.388937
Si Si3 0.321954 0.835386 0.119337
Si Si4 0.927199 0.480054 0.307972
Si Si5 0.115576 0.000000 0.000000
Si Si6 0.426937 0.838514 0.468832
O O1 0.905951 0.100969 0.750000
O O2 0.925502 0.333753 0.691256
O O3 0.000000 0.093770 0.683163
O O4 0.875562 0.094931 0.648069
O O5 0.315114 0.655231 0.369839
O O6 0.250518 0.403148 0.386037
O O7 0.344593 0.484976 0.447419
O O8 0.365907 0.848994 0.068988
O O9 0.366342 0.916607 0.161202
O O10 0.922637 0.429689 0.250000
O O11 0.000000 0.432208 0.327075
O O12 0.079418 0.831224 0.995711
O O13 0.500000 0.836769 0.444790
O O14 0.424492 0.000000 0.500000
#
# Coordination Sequence:
#
# PCOD9475197 Si02
#       6
#    16  16  16  16   8  16
#     4   9  20  40  65  92 121 158 203 250 311 376
#     4  11  25  40  62  89 122 170 204 258 311 368
#     4  11  24  39  59  88 122 158 210 250 306 372
#     4   9  19  38  64  91 121 158 201 254 310 370
#     4  10  25  42  62  90 129 166 214 264 313 376
#     4  10  23  40  63  91 120 162 208 257 311 368
#
# _framework density 18.941537
#
# number of rings (size 3 to 8) (size 9 to 14) (size 15 to 20)
#    0.000    2.000    0.000    3.000    6.364    7.273 
#    0.000    1.818    0.000    0.000    0.000    0.000 
#    0.000    0.000    0.000    0.000    0.000    0.000 
#
# Total GULP energy -245218.717066 kJ/mol
# GULP energy per Si atom -5573.152661 kJ/mol
# Density = 1.889843 g / cm^3
# Si number density = 18.941537 Si / 1000 Ang^3
#
#
#
# Elastic Constant Matrix: (Units=GPa)
#
#
# Indices 1 2 3 4 5 6 
#
# 1 158.8897 51.5076 83.0064 0.0000 0.0000 0.0000
# 2 51.5076 93.6868 45.6349 0.0000 0.0000 0.0000
# 3 83.0064 45.6349 108.6952 0.0000 0.0000 0.0000
# 4 0.0000 0.0000 0.0000 26.2415 0.0000 0.0000
# 5 0.0000 0.0000 0.0000 0.0000 23.2372 0.0000
# 6 0.0000 0.0000 0.0000 0.0000 0.0000 23.1283
#
#
#
# Elastic Compliance Matrix: (Units=1/GPa)
#
#
# Indices 1 2 3 4 5 6 
#
# 1 0.010896 -0.002435 -0.007298 0.000000 0.000000 0.000000
# 2 -0.002435 0.013962 -0.004002 0.000000 0.000000 0.000000
# 3 -0.007298 -0.004002 0.016454 0.000000 0.000000 0.000000
# 4 0.000000 0.000000 0.000000 0.038108 0.000000 0.000000
# 5 0.000000 0.000000 0.000000 0.000000 0.043034 0.000000
# 6 0.000000 0.000000 0.000000 0.000000 0.000000 0.043237
#
#
# Mechanical properties :
#
#
# Convention : Reuss Voigt Hill
#
# Bulk Modulus (GPa) = 72.25313 80.17438 76.21375
# Shear Modulus (GPa) = 25.28114 26.59627 25.93870
#
# Velocity S-wave (km/s) = 3.65731 3.75123 3.70457
# Velocity P-wave (km/s) = 7.48750 7.82186 7.65651
#
# Compressibility (1/GPa) = 0.01384023
#
# Stress axis : x y z
#
# Youngs Moduli (GPa) = 91.77768 71.62177 60.77652
#
# Poissons Ratio (x) = 0.17443 0.44356
# Poissons Ratio (y) = 0.22351 0.24324
# Poissons Ratio (z) = 0.66982 0.28664
#
# Static dielectric constant tensor:
#      x y z
#    x 1.779050 0.000000 0.000000 
#    y 0.000000 1.668680 0.000000 
#    z 0.000000 0.000000 1.574340 
# 
# From -- ./inp_files/64410.got.cif
#   From: 2010.05.17/outbox.cif.g08.bks.cpg/sg63_33_cif.got.tgz:64410.got - 2010.06.03 15:47:04.
