data_PCOD9475785
_publ_section_title
;
Structure prediction by ZEFSAII (Michael W. Deem and Ramdas Pophale) SiO2 
 PCOD9475785
Probable space group: C M C M
;
_chemical_formula_sum "Si O2"
_cell_formula_units_Z 60
_cell_length_a 17.509218
_cell_length_b 16.573966
_cell_length_c 10.022463
_cell_angle_alpha 90.000000
_cell_angle_beta 90.000000
_cell_angle_gamma 90.000000
_cell_volume 2908.490538
_symmetry_space_group_name_H-M "C M C M"
_symmetry_group_IT_number 63
_symmetry_cell_setting 'orthorhombic'
loop_
_space_group_symop_operation_xyz
x,y,z
-x,-y,1/2+z
x,-y,-z
-x,y,1/2-z
-x,-y,-z
x,y,1/2-z
-x,y,z
x,-y,1/2+z
1/2+x,1/2+y,z
1/2-x,1/2-y,1/2+z
1/2+x,1/2-y,-z
1/2-x,1/2+y,1/2-z
1/2-x,1/2-y,-z
1/2+x,1/2+y,1/2-z
1/2-x,1/2+y,z
1/2+x,1/2-y,1/2+z
loop_
_atom_site_type_symbol
_atom_site_label
_atom_site_fract_x
_atom_site_fract_y
_atom_site_fract_z
Si Si1 0.108073 0.167530 0.750000
Si Si2 0.209898 0.683446 0.750000
Si Si3 0.827171 0.131670 0.250000
Si Si4 0.000000 0.904234 0.036121
Si Si5 0.583739 0.145251 0.250000
Si Si6 0.298266 0.093888 0.028922
Si Si7 0.000000 0.880158 0.750000
O O1 0.197821 0.182372 0.750000
O O2 0.073506 0.119418 0.875875
O O3 0.077709 0.258319 0.750000
O O4 0.169864 0.770816 0.750000
O O5 0.192913 0.639529 0.610966
O O6 0.777503 0.111356 0.381974
O O7 0.910387 0.088787 0.250000
O O8 0.000000 0.850197 0.902299
O O9 0.000000 0.000000 0.000000
O O10 0.500000 0.108664 0.250000
O O11 0.632059 0.119112 0.377422
O O12 0.298763 0.000000 0.000000
#
# Coordination Sequence:
#
# PCOD9475785 Si02
#       7
#     8   8   8   8   8  16   4
#     4  11  23  42  71  93 138 199 226 272 348 422
#     4  12  23  41  72 100 135 181 245 280 342 413
#     4  11  25  42  67 100 139 188 230 288 347 425
#     4  11  25  41  63 103 142 184 232 282 347 404
#     4  11  24  46  75  97 136 183 235 279 359 425
#     4  11  25  45  70 103 137 178 232 298 354 404
#     4  12  26  38  66 102 146 170 244 280 338 404
#
# _framework density 20.629256000000002
#
# number of rings (size 3 to 8) (size 9 to 14) (size 15 to 20)
#    0.000    0.800    4.000    4.800    3.733    6.933 
#    0.000    0.000    0.000    0.000    0.000    0.000 
#    0.000    0.000    0.000    0.000    0.000    0.000 
#
# Total GULP energy -167363.391199 kJ/mol
# GULP energy per Si atom -5578.779707 kJ/mol
# Density = 2.058230 g / cm^3
# Si number density = 20.629256 Si / 1000 Ang^3
#
#
#
# Elastic Constant Matrix: (Units=GPa)
#
#
# Indices 1 2 3 4 5 6 
#
# 1 131.9064 8.9882 52.2646 0.0000 0.0000 0.0000
# 2 8.9882 136.3202 48.9117 0.0000 0.0000 0.0000
# 3 52.2646 48.9117 187.1920 0.0000 0.0000 0.0000
# 4 0.0000 0.0000 0.0000 40.6357 0.0000 0.0000
# 5 0.0000 0.0000 0.0000 0.0000 13.5731 0.0000
# 6 0.0000 0.0000 0.0000 0.0000 0.0000 2.6603
#
#
#
# Elastic Compliance Matrix: (Units=1/GPa)
#
#
# Indices 1 2 3 4 5 6 
#
# 1 0.008537 0.000323 -0.002468 0.000000 0.000000 0.000000
# 2 0.000323 0.008107 -0.002208 0.000000 0.000000 0.000000
# 3 -0.002468 -0.002208 0.006608 0.000000 0.000000 0.000000
# 4 0.000000 0.000000 0.000000 0.024609 0.000000 0.000000
# 5 0.000000 0.000000 0.000000 0.000000 0.073675 0.000000
# 6 0.000000 0.000000 0.000000 0.000000 0.000000 0.375898
#
#
# Mechanical properties :
#
#
# Convention : Reuss Voigt Hill
#
# Bulk Modulus (GPa) = 68.75327 75.08306 71.91817
# Shear Modulus (GPa) = 9.78494 34.39075 22.08784
#
# Velocity S-wave (km/s) = 2.18026 4.08743 3.27571
# Velocity P-wave (km/s) = 6.30384 7.66495 7.01748
#
# Compressibility (1/GPa) = 0.01454476
#
# Stress axis : x y z
#
# Youngs Moduli (GPa) = 117.13756 123.35418 151.32838
#
# Poissons Ratio (x) = -0.03979 0.37345
# Poissons Ratio (y) = -0.03779 0.33418
# Poissons Ratio (z) = 0.28908 0.27240
#
# Static dielectric constant tensor:
#      x y z
#    x 1.773940 0.000000 0.000000 
#    y 0.000000 1.717100 0.000000 
#    z 0.000000 0.000000 1.734300 
# 
# From -- ./inp_files/5608.got.cif
#   From: 2010.05.17/outbox.cif.g08.bks.cpg/sg63_3_cif.got.tgz:5608.got - 2010.06.03 15:47:04.
