data_PCOD9475255
_publ_section_title
;
Structure prediction by ZEFSAII (Michael W. Deem and Ramdas Pophale) SiO2 
 PCOD9475255
Probable space group: C M C M
;
_chemical_formula_sum "Si O2"
_cell_formula_units_Z 64
_cell_length_a 8.624466
_cell_length_b 31.335183
_cell_length_c 12.332496
_cell_angle_alpha 90.000000
_cell_angle_beta 90.000000
_cell_angle_gamma 90.000000
_cell_volume 3332.847429
_symmetry_space_group_name_H-M "C M C M"
_symmetry_group_IT_number 63
_symmetry_cell_setting 'orthorhombic'
loop_
_space_group_symop_operation_xyz
x,y,z
-x,-y,1/2+z
x,-y,-z
-x,y,1/2-z
-x,-y,-z
x,y,1/2-z
-x,y,z
x,-y,1/2+z
1/2+x,1/2+y,z
1/2-x,1/2-y,1/2+z
1/2+x,1/2-y,-z
1/2-x,1/2+y,1/2-z
1/2-x,1/2-y,-z
1/2+x,1/2+y,1/2-z
1/2-x,1/2+y,z
1/2+x,1/2-y,1/2+z
loop_
_atom_site_type_symbol
_atom_site_label
_atom_site_fract_x
_atom_site_fract_y
_atom_site_fract_z
Si Si1 0.680825 0.826957 0.250000
Si Si2 0.687753 0.377873 0.622709
Si Si3 0.814830 0.796783 0.022564
Si Si4 0.182221 0.549153 0.533320
Si Si5 0.820605 0.081915 0.750000
O O1 0.500000 0.816291 0.250000
O O2 0.759292 0.809780 0.141610
O O3 0.709628 0.877311 0.250000
O O4 0.729538 0.377508 0.750000
O O5 0.500000 0.381054 0.615253
O O6 0.734959 0.333885 0.562079
O O7 0.760789 0.417668 0.558251
O O8 0.000000 0.795330 0.018473
O O9 0.750000 0.750000 0.000000
O O10 0.198769 0.500000 0.500000
O O11 0.281632 0.556693 0.641229
O O12 0.000000 0.557277 0.555202
O O13 0.000000 0.095753 0.750000
#
# Coordination Sequence:
#
# PCOD9475255 Si02
#       5
#     8  16  16  16   8
#     4  12  24  42  68  95 128 169 216 272 327 380
#     4  10  23  43  65  92 129 171 214 262 318 380
#     4  11  24  42  66  97 131 170 216 266 322 385
#     4  11  25  43  65  95 130 169 213 264 322 382
#     4  12  24  42  68  95 126 167 216 270 325 384
#
# _framework density 19.202798999999999
#
# number of rings (size 3 to 8) (size 9 to 14) (size 15 to 20)
#    0.000    1.000    2.500    3.750    3.500    3.500 
#    0.000    0.000    0.000    0.000    0.000    0.000 
#    0.000    0.000    0.000    0.000    0.000    0.000 
#
# Total GULP energy -178923.986646 kJ/mol
# GULP energy per Si atom -5591.374583 kJ/mol
# Density = 1.915909 g / cm^3
# Si number density = 19.202799 Si / 1000 Ang^3
#
#
#
# Elastic Constant Matrix: (Units=GPa)
#
#
# Indices 1 2 3 4 5 6 
#
# 1 50.8045 39.0872 36.6342 0.0000 0.0000 0.0000
# 2 39.0872 134.6266 67.1838 0.0000 0.0000 0.0000
# 3 36.6342 67.1838 159.6007 0.0000 0.0000 0.0000
# 4 0.0000 0.0000 0.0000 28.1284 0.0000 0.0000
# 5 0.0000 0.0000 0.0000 0.0000 -100.9534 0.0000
# 6 0.0000 0.0000 0.0000 0.0000 0.0000 36.1216
#
#
#
# Elastic Compliance Matrix: (Units=1/GPa)
#
#
# Indices 1 2 3 4 5 6 
#
# 1 0.026933 -0.005994 -0.003659 0.000000 0.000000 0.000000
# 2 -0.005994 0.010737 -0.003144 0.000000 0.000000 0.000000
# 3 -0.003659 -0.003144 0.008429 0.000000 0.000000 0.000000
# 4 0.000000 0.000000 0.000000 0.035551 0.000000 0.000000
# 5 0.000000 0.000000 0.000000 0.000000 -0.009906 0.000000
# 6 0.000000 0.000000 0.000000 0.000000 0.000000 0.027684
#
#
# Mechanical properties :
#
#
# Convention : Reuss Voigt Hill
#
# Bulk Modulus (GPa) = 48.76700 70.09357 59.43029
# Shear Modulus (GPa) = 37.91960 6.13446 22.02703
#
# Velocity S-wave (km/s) = 4.44857 1.78927 3.39052
# Velocity P-wave (km/s) = 7.19981 6.39137 6.80760
#
# Compressibility (1/GPa) = 0.02050567
#
# Stress axis : x y z
#
# Youngs Moduli (GPa) = 37.12900 93.13482 118.63795
#
# Poissons Ratio (x) = 0.55822 0.43411
# Poissons Ratio (y) = 0.22254 0.37300
# Poissons Ratio (z) = 0.13586 0.29282
#
# Static dielectric constant tensor:
#      x y z
#    x 1.648430 0.000000 0.000000 
#    y 0.000000 1.688710 0.000000 
#    z 0.000000 0.000000 1.627000 
# 
# From -- ./inp_files/16210.got.cif
#   From: 2010.05.17/outbox.cif.g08.bks.cpg/sg63_9_cif.got.tgz:16210.got - 2010.06.03 15:47:04.
