data_PCOD9475416
_publ_section_title
;
Structure prediction by ZEFSAII (Michael W. Deem and Ramdas Pophale) SiO2 
 PCOD9475416
Probable space group: C M C M
;
_chemical_formula_sum "Si O2"
_cell_formula_units_Z 80
_cell_length_a 21.041827
_cell_length_b 11.617125
_cell_length_c 16.499502
_cell_angle_alpha 90.000000
_cell_angle_beta 90.000000
_cell_angle_gamma 90.000000
_cell_volume 4033.229585
_symmetry_space_group_name_H-M "C M C M"
_symmetry_group_IT_number 63
_symmetry_cell_setting 'orthorhombic'
loop_
_space_group_symop_operation_xyz
x,y,z
-x,-y,1/2+z
x,-y,-z
-x,y,1/2-z
-x,-y,-z
x,y,1/2-z
-x,y,z
x,-y,1/2+z
1/2+x,1/2+y,z
1/2-x,1/2-y,1/2+z
1/2+x,1/2-y,-z
1/2-x,1/2+y,1/2-z
1/2-x,1/2-y,-z
1/2+x,1/2+y,1/2-z
1/2-x,1/2+y,z
1/2+x,1/2-y,1/2+z
loop_
_atom_site_type_symbol
_atom_site_label
_atom_site_fract_x
_atom_site_fract_y
_atom_site_fract_z
Si Si1 0.000000 0.565118 0.848972
Si Si2 0.572027 0.619292 0.392761
Si Si3 0.865367 0.664269 0.656543
Si Si4 0.101760 0.865435 0.415052
Si Si5 0.754923 0.125495 0.546564
Si Si6 0.500000 0.197643 0.153573
O O1 0.066938 0.618031 0.876308
O O2 0.000000 0.433121 0.874090
O O3 0.000000 0.575235 0.750000
O O4 0.500000 0.654220 0.371498
O O5 0.623916 0.698423 0.349860
O O6 0.578983 0.484768 0.375999
O O7 0.583802 0.632092 0.489296
O O8 0.857914 0.629857 0.750000
O O9 0.806296 0.623364 0.604183
O O10 0.177423 0.862935 0.408885
O O11 0.062573 0.762149 0.377345
O O12 0.750000 0.250000 0.500000
O O13 0.757381 0.000000 0.500000
O O14 0.500000 0.198594 0.250000
#
# Coordination Sequence:
#
# PCOD9475416 Si02
#       6
#     8  16  16  16  16   8
#     4   9  22  42  59  86 128 163 208 267 322 389
#     4  11  19  39  67  96 122 162 211 272 323 382
#     4  11  24  42  67  97 128 168 221 279 332 387
#     4  11  21  40  65  93 129 167 215 267 315 398
#     4  12  25  44  68  97 132 176 221 270 329 400
#     4  11  24  39  61  95 131 168 211 272 337 386
#
# _framework density 19.835222000000002
#
# number of rings (size 3 to 8) (size 9 to 14) (size 15 to 20)
#    0.000    1.000    7.000    0.600    2.800    1.600 
#    0.000    4.500    0.000    0.000    0.000    0.000 
#    0.000    0.000    0.000    0.000    0.000    0.000 
#
# Total GULP energy -223240.287271 kJ/mol
# GULP energy per Si atom -5581.007182 kJ/mol
# Density = 1.979008 g / cm^3
# Si number density = 19.835222 Si / 1000 Ang^3
#
#
#
# Elastic Constant Matrix: (Units=GPa)
#
#
# Indices 1 2 3 4 5 6 
#
# 1 176.5975 40.1495 32.3194 0.0000 0.0000 0.0000
# 2 40.1495 106.9835 22.5223 0.0000 0.0000 0.0000
# 3 32.3194 22.5223 31.8061 0.0000 0.0000 0.0000
# 4 0.0000 0.0000 0.0000 18.4051 0.0000 0.0000
# 5 0.0000 0.0000 0.0000 0.0000 94.3130 0.0000
# 6 0.0000 0.0000 0.0000 0.0000 0.0000 19.4435
#
#
#
# Elastic Compliance Matrix: (Units=1/GPa)
#
#
# Indices 1 2 3 4 5 6 
#
# 1 0.007118 -0.001350 -0.006277 0.000000 0.000000 0.000000
# 2 -0.001350 0.011241 -0.006588 0.000000 0.000000 0.000000
# 3 -0.006277 -0.006588 0.042484 0.000000 0.000000 0.000000
# 4 0.000000 0.000000 0.000000 0.054333 0.000000 0.000000
# 5 0.000000 0.000000 0.000000 0.000000 0.010603 0.000000
# 6 0.000000 0.000000 0.000000 0.000000 0.000000 0.051431
#
#
# Mechanical properties :
#
#
# Convention : Reuss Voigt Hill
#
# Bulk Modulus (GPa) = 30.85202 56.15216 43.50209
# Shear Modulus (GPa) = 23.10056 41.12537 32.11296
#
# Velocity S-wave (km/s) = 3.41636 4.55835 4.02803
# Velocity P-wave (km/s) = 5.58121 7.48836 6.60399
#
# Compressibility (1/GPa) = 0.03241279
#
# Stress axis : x y z
#
# Youngs Moduli (GPa) = 140.48274 88.96195 23.53814
#
# Poissons Ratio (x) = 0.12009 0.14776
# Poissons Ratio (y) = 0.18964 0.15507
# Poissons Ratio (z) = 0.88185 0.58609
#
# Static dielectric constant tensor:
#      x y z
#    x 1.676880 0.000000 0.000000 
#    y 0.000000 1.728710 0.000000 
#    z 0.000000 0.000000 1.713680 
# 
# From -- ./inp_files/46852.got.cif
#   From: 2010.05.17/outbox.cif.g08.bks.cpg/sg63_24_cif.got.tgz:46852.got - 2010.06.03 15:47:04.
