data_PCOD9475268
_publ_section_title
;
Structure prediction by ZEFSAII (Michael W. Deem and Ramdas Pophale) SiO2 
 PCOD9475268
Probable space group: C M C M
;
_chemical_formula_sum "Si O2"
_cell_formula_units_Z 36
_cell_length_a 7.424516
_cell_length_b 19.434793
_cell_length_c 10.830703
_cell_angle_alpha 90.000000
_cell_angle_beta 90.000000
_cell_angle_gamma 90.000000
_cell_volume 1562.804718
_symmetry_space_group_name_H-M "C M C M"
_symmetry_group_IT_number 63
_symmetry_cell_setting 'orthorhombic'
loop_
_space_group_symop_operation_xyz
x,y,z
-x,-y,1/2+z
x,-y,-z
-x,y,1/2-z
-x,-y,-z
x,y,1/2-z
-x,y,z
x,-y,1/2+z
1/2+x,1/2+y,z
1/2-x,1/2-y,1/2+z
1/2+x,1/2-y,-z
1/2-x,1/2+y,1/2-z
1/2-x,1/2-y,-z
1/2+x,1/2+y,1/2-z
1/2-x,1/2+y,z
1/2+x,1/2-y,1/2+z
loop_
_atom_site_type_symbol
_atom_site_label
_atom_site_fract_x
_atom_site_fract_y
_atom_site_fract_z
Si Si1 0.206411 0.327978 0.037945
Si Si2 0.717428 0.545445 0.114058
Si Si3 0.000000 0.856797 0.250000
O O1 0.343656 0.353684 0.141664
O O2 0.000000 0.332120 0.078952
O O3 0.250000 0.250000 0.000000
O O4 0.232309 0.376817 0.919022
O O5 0.781034 0.524757 0.250000
O O6 0.500000 0.539037 0.116058
O O7 0.784687 0.500000 0.000000
#
# Coordination Sequence:
#
# PCOD9475268 Si02
#       3
#    16  16   4
#     4  12  26  46  74 107 143 194 240 302 363 436
#     4  10  23  43  72 106 149 195 242 300 364 430
#     4  12  26  48  72 106 148 184 252 296 370 426
#
# _framework density 23.035506999999999
#
# number of rings (size 3 to 8) (size 9 to 14) (size 15 to 20)
#    0.000    0.889    4.444    0.667    6.222    1.778 
#    0.000    0.000    0.000    0.000    0.000    0.000 
#    0.000    0.000    0.000    0.000    0.000    0.000 
#
# Total GULP energy -100265.635783 kJ/mol
# GULP energy per Si atom -5570.313099 kJ/mol
# Density = 2.298308 g / cm^3
# Si number density = 23.035507 Si / 1000 Ang^3
#
#
#
# Elastic Constant Matrix: (Units=GPa)
#
#
# Indices 1 2 3 4 5 6 
#
# 1 193.5303 -17.9069 61.4412 0.0000 0.0000 0.0000
# 2 -17.9069 105.6016 59.6186 0.0000 0.0000 0.0000
# 3 61.4412 59.6186 186.7082 0.0000 0.0000 0.0000
# 4 0.0000 0.0000 0.0000 11.2278 0.0000 0.0000
# 5 0.0000 0.0000 0.0000 0.0000 150.8042 0.0000
# 6 0.0000 0.0000 0.0000 0.0000 0.0000 16.8212
#
#
#
# Elastic Compliance Matrix: (Units=1/GPa)
#
#
# Indices 1 2 3 4 5 6 
#
# 1 0.006368 0.002760 -0.002977 0.000000 0.000000 0.000000
# 2 0.002760 0.012749 -0.004979 0.000000 0.000000 0.000000
# 3 -0.002977 -0.004979 0.007926 0.000000 0.000000 0.000000
# 4 0.000000 0.000000 0.000000 0.089065 0.000000 0.000000
# 5 0.000000 0.000000 0.000000 0.000000 0.006631 0.000000
# 6 0.000000 0.000000 0.000000 0.000000 0.000000 0.059449
#
#
# Mechanical properties :
#
#
# Convention : Reuss Voigt Hill
#
# Bulk Modulus (GPa) = 60.05845 76.90512 68.48178
# Shear Modulus (GPa) = 25.23618 61.28312 43.25965
#
# Velocity S-wave (km/s) = 3.31348 5.16348 4.33824
# Velocity P-wave (km/s) = 6.38495 8.30702 7.40858
#
# Compressibility (1/GPa) = 0.01665045
#
# Stress axis : x y z
#
# Youngs Moduli (GPa) = 157.04384 78.43932 126.17485
#
# Poissons Ratio (x) = -0.21652 0.37561
# Poissons Ratio (y) = -0.43350 0.62825
# Poissons Ratio (z) = 0.46750 0.39057
#
# Static dielectric constant tensor:
#      x y z
#    x 1.837610 0.000000 0.000000 
#    y 0.000000 1.892530 0.000000 
#    z 0.000000 0.000000 1.832050 
# 
# From -- ./inp_files/15440.got.cif
#   From: 2010.05.17/outbox.cif.g08.bks.cpg/sg63_8_cif.got.tgz:15440.got - 2010.06.03 15:47:04.
