data_PCOD9475252
_publ_section_title
;
Structure prediction by ZEFSAII (Michael W. Deem and Ramdas Pophale) SiO2 
 PCOD9475252
Probable space group: C M C M
;
_chemical_formula_sum "Si O2"
_cell_formula_units_Z 96
_cell_length_a 17.169033
_cell_length_b 11.313067
_cell_length_c 23.737350
_cell_angle_alpha 90.000000
_cell_angle_beta 90.000000
_cell_angle_gamma 90.000000
_cell_volume 4610.610425
_symmetry_space_group_name_H-M "C M C M"
_symmetry_group_IT_number 63
_symmetry_cell_setting 'orthorhombic'
loop_
_space_group_symop_operation_xyz
x,y,z
-x,-y,1/2+z
x,-y,-z
-x,y,1/2-z
-x,-y,-z
x,y,1/2-z
-x,y,z
x,-y,1/2+z
1/2+x,1/2+y,z
1/2-x,1/2-y,1/2+z
1/2+x,1/2-y,-z
1/2-x,1/2+y,1/2-z
1/2-x,1/2-y,-z
1/2+x,1/2+y,1/2-z
1/2-x,1/2+y,z
1/2+x,1/2-y,1/2+z
loop_
_atom_site_type_symbol
_atom_site_label
_atom_site_fract_x
_atom_site_fract_y
_atom_site_fract_z
Si Si1 0.662341 0.552962 0.605601
Si Si2 0.592836 0.846895 0.313935
Si Si3 0.908366 0.808261 0.912970
Si Si4 0.090019 0.770609 0.317005
Si Si5 0.336433 0.225955 0.022070
Si Si6 0.332288 0.943240 0.622461
O O1 0.626194 0.436893 0.578249
O O2 0.616511 0.601642 0.659986
O O3 0.650793 0.661125 0.562370
O O4 0.749941 0.512715 0.621478
O O5 0.624350 0.851526 0.250000
O O6 0.500000 0.831911 0.309446
O O7 0.624949 0.743864 0.354449
O O8 0.608720 0.964575 0.349638
O O9 0.000000 0.817001 0.907392
O O10 0.888526 0.727766 0.966459
O O11 0.090460 0.766942 0.250000
O O12 0.152135 0.674592 0.340262
O O13 0.000000 0.745630 0.335972
O O14 0.343969 0.108286 0.059530
O O15 0.250000 0.250000 0.000000
#
# Coordination Sequence:
#
# PCOD9475252 Si02
#       6
#    16  16  16  16  16  16
#     4  11  24  40  63  95 130 169 213 271 328 392
#     4  10  23  43  65  91 129 172 214 267 325 384
#     4  11  24  41  65  96 128 172 218 258 322 402
#     4  10  23  43  65  93 132 175 222 277 332 389
#     4  11  23  41  63  91 131 167 208 267 329 382
#     4  11  23  39  67  96 126 171 219 268 331 387
#
# _framework density 20.821538
#
# number of rings (size 3 to 8) (size 9 to 14) (size 15 to 20)
#    0.000    1.333    1.667    3.000    2.333   10.000 
#    0.000    3.333    0.000    0.000    0.000    0.000 
#    0.000    0.000    0.000    0.000    0.000    0.000 
#
# Total GULP energy -267768.347191 kJ/mol
# GULP energy per Si atom -5578.507233 kJ/mol
# Density = 2.077415 g / cm^3
# Si number density = 20.821538 Si / 1000 Ang^3
#
#
#
# Elastic Constant Matrix: (Units=GPa)
#
#
# Indices 1 2 3 4 5 6 
#
# 1 40.2172 2.7980 22.7315 0.0000 0.0000 0.0000
# 2 2.7980 54.3837 28.2401 0.0000 0.0000 0.0000
# 3 22.7315 28.2401 110.7343 0.0000 0.0000 0.0000
# 4 0.0000 0.0000 0.0000 25.1260 0.0000 0.0000
# 5 0.0000 0.0000 0.0000 0.0000 26.0198 0.0000
# 6 0.0000 0.0000 0.0000 0.0000 0.0000 26.9685
#
#
#
# Elastic Compliance Matrix: (Units=1/GPa)
#
#
# Indices 1 2 3 4 5 6 
#
# 1 0.028280 0.001798 -0.006264 0.000000 0.000000 0.000000
# 2 0.001798 0.021309 -0.005803 0.000000 0.000000 0.000000
# 3 -0.006264 -0.005803 0.011796 0.000000 0.000000 0.000000
# 4 0.000000 0.000000 0.000000 0.039799 0.000000 0.000000
# 5 0.000000 0.000000 0.000000 0.000000 0.038432 0.000000
# 6 0.000000 0.000000 0.000000 0.000000 0.000000 0.037080
#
#
# Mechanical properties :
#
#
# Convention : Reuss Voigt Hill
#
# Bulk Modulus (GPa) = 24.48180 34.76382 29.62281
# Shear Modulus (GPa) = 23.71328 25.72723 24.72025
#
# Velocity S-wave (km/s) = 3.37839 3.51893 3.44938
# Velocity P-wave (km/s) = 5.19630 5.76566 5.48837
#
# Compressibility (1/GPa) = 0.04084667
#
# Stress axis : x y z
#
# Youngs Moduli (GPa) = 35.36022 46.92873 84.77122
#
# Poissons Ratio (x) = -0.08436 0.53099
# Poissons Ratio (y) = -0.06356 0.49196
# Poissons Ratio (z) = 0.22149 0.27234
#
# Static dielectric constant tensor:
#      x y z
#    x 1.889110 0.000000 0.000000 
#    y 0.000000 1.762780 0.000000 
#    z 0.000000 0.000000 1.814640 
# 
# From -- ./inp_files/63701.got.cif
#   From: 2010.05.17/outbox.cif.g08.bks.cpg/sg63_32_cif.got.tgz:63701.got - 2010.06.03 15:47:04.
