data_PCOD9475528
_publ_section_title
;
Structure prediction by ZEFSAII (Michael W. Deem and Ramdas Pophale) SiO2 
 PCOD9475528
Probable space group: C M C M
;
_chemical_formula_sum "Si O2"
_cell_formula_units_Z 80
_cell_length_a 23.265995
_cell_length_b 17.785888
_cell_length_c 8.504371
_cell_angle_alpha 90.000000
_cell_angle_beta 90.000000
_cell_angle_gamma 90.000000
_cell_volume 3519.162989
_symmetry_space_group_name_H-M "C M C M"
_symmetry_group_IT_number 63
_symmetry_cell_setting 'orthorhombic'
loop_
_space_group_symop_operation_xyz
x,y,z
-x,-y,1/2+z
x,-y,-z
-x,y,1/2-z
-x,-y,-z
x,y,1/2-z
-x,y,z
x,-y,1/2+z
1/2+x,1/2+y,z
1/2-x,1/2-y,1/2+z
1/2+x,1/2-y,-z
1/2-x,1/2+y,1/2-z
1/2-x,1/2-y,-z
1/2+x,1/2+y,1/2-z
1/2-x,1/2+y,z
1/2+x,1/2-y,1/2+z
loop_
_atom_site_type_symbol
_atom_site_label
_atom_site_fract_x
_atom_site_fract_y
_atom_site_fract_z
Si Si1 0.823051 0.846640 0.571263
Si Si2 0.720837 0.922354 0.433329
Si Si3 0.937851 0.888682 0.431942
Si Si4 0.083213 0.262783 0.069650
Si Si5 0.094057 0.580810 0.434165
O O1 0.805930 0.862070 0.750000
O O2 0.769606 0.860780 0.460189
O O3 0.878320 0.899473 0.526085
O O4 0.849405 0.762298 0.562834
O O5 0.705352 0.928642 0.250000
O O6 0.662549 0.913112 0.531942
O O7 0.747042 0.000000 0.500000
O O8 0.931430 0.910092 0.250000
O O9 0.941420 0.797987 0.449774
O O10 0.000000 0.916836 0.492003
O O11 0.066069 0.246624 0.250000
O O12 0.070021 0.347073 0.024286
O O13 0.075419 0.500000 0.500000
O O14 0.082406 0.585517 0.250000
#
# Coordination Sequence:
#
# PCOD9475528 Si02
#       5
#    16  16  16  16  16
#     4   9  19  33  51  75 102 131 168 207 247 292
#     4  11  21  34  52  72 102 136 171 205 246 296
#     4   9  17  31  52  77 102 129 163 203 251 299
#     4   9  19  33  51  75 102 131 168 207 247 292
#     4  11  21  34  52  72 102 136 171 205 246 296
#
# _framework density 22.732679000000001
#
# number of rings (size 3 to 8) (size 9 to 14) (size 15 to 20)
#    1.200    1.000    0.000    6.000    0.000    2.400 
#    0.000    0.000    0.000    1.200    0.000    0.000 
#    0.000    0.000    0.000    0.000    0.000    0.000 
#
# Total GULP energy -222894.418705 kJ/mol
# GULP energy per Si atom -5572.360468 kJ/mol
# Density = 2.268094 g / cm^3
# Si number density = 22.732679 Si / 1000 Ang^3
#
#
#
# Elastic Constant Matrix: (Units=GPa)
#
#
# Indices 1 2 3 4 5 6 
#
# 1 55.0583 1.2322 -10.2183 0.0000 0.0000 0.0000
# 2 1.2322 71.2292 -2.1322 0.0000 0.0000 0.0000
# 3 -10.2183 -2.1322 82.7907 0.0000 0.0000 0.0000
# 4 0.0000 0.0000 0.0000 25.4213 0.0000 0.0000
# 5 0.0000 0.0000 0.0000 0.0000 -161.6814 0.0000
# 6 0.0000 0.0000 0.0000 0.0000 0.0000 -37.2173
#
#
#
# Elastic Compliance Matrix: (Units=1/GPa)
#
#
# Indices 1 2 3 4 5 6 
#
# 1 0.018593 -0.000253 0.002288 0.000000 0.000000 0.000000
# 2 -0.000253 0.014053 0.000331 0.000000 0.000000 0.000000
# 3 0.002288 0.000331 0.012370 0.000000 0.000000 0.000000
# 4 0.000000 0.000000 0.000000 0.039337 0.000000 0.000000
# 5 0.000000 0.000000 0.000000 0.000000 -0.006185 0.000000
# 6 0.000000 0.000000 0.000000 0.000000 0.000000 -0.026869
#
#
# Mechanical properties :
#
#
# Convention : Reuss Voigt Hill
#
# Bulk Modulus (GPa) = 20.10145 20.76016 20.43081
# Shear Modulus (GPa) = 79.17693 -20.01570 29.58062
#
# Velocity S-wave (km/s) = 5.90806 -2.97051 3.61118
# Velocity P-wave (km/s) = 7.44325 1.61651 5.13755
#
# Compressibility (1/GPa) = 0.04974766
#
# Stress axis : x y z
#
# Youngs Moduli (GPa) = 53.78391 71.15680 80.84336
#
# Poissons Ratio (x) = 0.01801 -0.18499
# Poissons Ratio (y) = 0.01362 -0.02673
# Poissons Ratio (z) = -0.12307 -0.02353
#
# Static dielectric constant tensor:
#      x y z
#    x 1.942520 0.000000 0.000000 
#    y 0.000000 1.898730 0.000000 
#    z 0.000000 0.000000 1.747020 
# 
# From -- ./inp_files/12036.got.cif
#   From: 2010.05.17/outbox.cif.g08.bks.cpg/sg63_7_cif.got.tgz:12036.got - 2010.06.03 15:47:04.
