data_PCOD9475516
_publ_section_title
;
Structure prediction by ZEFSAII (Michael W. Deem and Ramdas Pophale) SiO2 
 PCOD9475516
Probable space group: C M C M
;
_chemical_formula_sum "Si O2"
_cell_formula_units_Z 80
_cell_length_a 8.981828
_cell_length_b 19.609433
_cell_length_c 26.230988
_cell_angle_alpha 90.000000
_cell_angle_beta 90.000000
_cell_angle_gamma 90.000000
_cell_volume 4620.025996
_symmetry_space_group_name_H-M "C M C M"
_symmetry_group_IT_number 63
_symmetry_cell_setting 'orthorhombic'
loop_
_space_group_symop_operation_xyz
x,y,z
-x,-y,1/2+z
x,-y,-z
-x,y,1/2-z
-x,-y,-z
x,y,1/2-z
-x,y,z
x,-y,1/2+z
1/2+x,1/2+y,z
1/2-x,1/2-y,1/2+z
1/2+x,1/2-y,-z
1/2-x,1/2+y,1/2-z
1/2-x,1/2-y,-z
1/2+x,1/2+y,1/2-z
1/2-x,1/2+y,z
1/2+x,1/2-y,1/2+z
loop_
_atom_site_type_symbol
_atom_site_label
_atom_site_fract_x
_atom_site_fract_y
_atom_site_fract_z
Si Si1 0.178468 0.620521 0.809455
Si Si2 0.177656 0.611928 0.533485
Si Si3 0.322769 0.485255 0.114780
Si Si4 0.177060 0.265623 0.390519
Si Si5 0.177608 0.376981 0.914017
O O1 0.215270 0.624683 0.750000
O O2 0.261164 0.559574 0.838409
O O3 0.212765 0.689819 0.840371
O O4 0.000000 0.609950 0.814683
O O5 0.263216 0.553424 0.564139
O O6 0.208833 0.683303 0.562219
O O7 0.215089 0.616245 0.474206
O O8 0.000000 0.598916 0.538588
O O9 0.500000 0.486616 0.114936
O O10 0.256133 0.560819 0.114600
O O11 0.266145 0.196101 0.395141
O O12 0.000000 0.251403 0.390815
O O13 0.000000 0.382415 0.909053
#
# Coordination Sequence:
#
# PCOD9475516 Si02
#       5
#    16  16  16  16  16
#     4   9  19  39  63  80  99 132 171 213 264 318
#     4   9  19  35  53  74 105 145 182 214 253 305
#     4  11  22  34  52  79 108 138 175 218 261 307
#     4   9  18  33  53  79 107 134 170 215 262 310
#     4  11  21  33  51  76 109 146 179 213 255 304
#
# _framework density 17.315919000000001
#
# number of rings (size 3 to 8) (size 9 to 14) (size 15 to 20)
#    0.000    2.200    0.000    4.800    0.000    7.600 
#    0.000    1.000    0.000    3.600    0.000    0.000 
#    0.000    0.000    0.000    0.000    0.000    0.000 
#
# Total GULP energy -223367.634410 kJ/mol
# GULP energy per Si atom -5584.190860 kJ/mol
# Density = 1.727651 g / cm^3
# Si number density = 17.315919 Si / 1000 Ang^3
#
#
#
# Elastic Constant Matrix: (Units=GPa)
#
#
# Indices 1 2 3 4 5 6 
#
# 1 58.5322 60.8813 45.6537 0.0000 0.0000 0.0000
# 2 60.8813 119.8601 49.4066 0.0000 0.0000 0.0000
# 3 45.6537 49.4066 104.2507 0.0000 0.0000 0.0000
# 4 0.0000 0.0000 0.0000 4.1995 0.0000 0.0000
# 5 0.0000 0.0000 0.0000 0.0000 14.7278 0.0000
# 6 0.0000 0.0000 0.0000 0.0000 0.0000 32.9163
#
#
#
# Elastic Compliance Matrix: (Units=1/GPa)
#
#
# Indices 1 2 3 4 5 6 
#
# 1 0.044307 -0.018029 -0.010859 0.000000 0.000000 0.000000
# 2 -0.018029 0.017705 -0.000495 0.000000 0.000000 0.000000
# 3 -0.010859 -0.000495 0.014582 0.000000 0.000000 0.000000
# 4 0.000000 0.000000 0.000000 0.238124 0.000000 0.000000
# 5 0.000000 0.000000 0.000000 0.000000 0.067899 0.000000
# 6 0.000000 0.000000 0.000000 0.000000 0.000000 0.030380
#
#
# Mechanical properties :
#
#
# Convention : Reuss Voigt Hill
#
# Bulk Modulus (GPa) = 56.09211 66.05848 61.07529
# Shear Modulus (GPa) = 10.46672 18.81548 14.64110
#
# Velocity S-wave (km/s) = 2.46124 3.29994 2.91095
# Velocity P-wave (km/s) = 6.36715 7.26301 6.82978
#
# Compressibility (1/GPa) = 0.01782782
#
# Stress axis : x y z
#
# Youngs Moduli (GPa) = 22.56997 56.48161 68.57666
#
# Poissons Ratio (x) = 1.01831 0.74464
# Poissons Ratio (y) = 0.40692 0.03397
# Poissons Ratio (z) = 0.24508 0.02798
#
# Static dielectric constant tensor:
#      x y z
#    x 1.574450 0.000000 0.000000 
#    y 0.000000 1.568150 0.000000 
#    z 0.000000 0.000000 1.574560 
# 
# From -- ./inp_files/66553.got.cif
#   From: 2010.05.17/outbox.cif.g08.bks.cpg/sg63_34_cif.got.tgz:66553.got - 2010.06.03 15:47:04.
