data_PCOD9475899
_publ_section_title
;
Structure prediction by ZEFSAII (Michael W. Deem and Ramdas Pophale) SiO2 
 PCOD9475899
Probable space group: C M C M
;
_chemical_formula_sum "Si O2"
_cell_formula_units_Z 104
_cell_length_a 28.505681
_cell_length_b 9.418429
_cell_length_c 21.137536
_cell_angle_alpha 90.000000
_cell_angle_beta 90.000000
_cell_angle_gamma 90.000000
_cell_volume 5674.978875
_symmetry_space_group_name_H-M "C M C M"
_symmetry_group_IT_number 63
_symmetry_cell_setting 'orthorhombic'
loop_
_space_group_symop_operation_xyz
x,y,z
-x,-y,1/2+z
x,-y,-z
-x,y,1/2-z
-x,-y,-z
x,y,1/2-z
-x,y,z
x,-y,1/2+z
1/2+x,1/2+y,z
1/2-x,1/2-y,1/2+z
1/2+x,1/2-y,-z
1/2-x,1/2+y,1/2-z
1/2-x,1/2-y,-z
1/2+x,1/2+y,1/2-z
1/2-x,1/2+y,z
1/2+x,1/2-y,1/2+z
loop_
_atom_site_type_symbol
_atom_site_label
_atom_site_fract_x
_atom_site_fract_y
_atom_site_fract_z
Si Si1 0.705830 0.490095 0.321114
Si Si2 0.944030 0.128236 0.250000
Si Si3 0.799066 0.332216 0.491398
Si Si4 0.054769 0.903330 0.141486
Si Si5 0.301477 0.179901 0.845852
Si Si6 0.446131 0.830514 0.750000
Si Si7 0.643395 0.393957 0.440315
Si Si8 0.879595 0.597542 0.750000
O O1 0.689611 0.448793 0.250000
O O2 0.709184 0.660524 0.322891
O O3 0.755956 0.417258 0.334087
O O4 0.672430 0.443170 0.378475
O O5 0.932993 0.036030 0.312642
O O6 0.915139 0.271120 0.250000
O O7 0.000000 0.151193 0.250000
O O8 0.792665 0.500000 0.500000
O O9 0.750000 0.250000 0.500000
O O10 0.813451 0.309834 0.419273
O O11 0.836125 0.257817 0.537807
O O12 0.000000 0.915460 0.123557
O O13 0.059427 0.768667 0.188325
O O14 0.089859 0.892067 0.083054
O O15 0.345049 0.114174 0.809163
O O16 0.500000 0.884005 0.750000
O O17 0.408668 0.954184 0.750000
O O18 0.650211 0.500000 0.500000
#
# Coordination Sequence:
#
# PCOD9475899 Si02
#       8
#    16   8  16  16  16   8  16   8
#     4  12  24  42  59  92 129 169 211 266 310 366
#     4   9  19  39  65  93 126 163 204 264 325 373
#     4  12  25  44  63  86 126 173 218 255 305 379
#     4   9  21  42  67  94 122 158 209 263 316 379
#     4  12  25  40  60  89 128 167 213 260 309 367
#     4   9  21  41  65  93 124 161 206 256 321 385
#     4  12  25  41  67  92 125 171 212 256 322 380
#     4  12  23  36  62  96 128 160 205 260 314 380
#
# _framework density 18.326059999999998
#
# number of rings (size 3 to 8) (size 9 to 14) (size 15 to 20)
#    0.000    0.923    4.615    3.462    4.308    0.308 
#    0.000    0.000    0.000    0.462    0.000    0.000 
#    0.000    0.000    0.000    0.000    0.000    0.000 
#
# Total GULP energy -290669.003600 kJ/mol
# GULP energy per Si atom -5589.788531 kJ/mol
# Density = 1.828435 g / cm^3
# Si number density = 18.326060 Si / 1000 Ang^3
#
#
#
# Elastic Constant Matrix: (Units=GPa)
#
#
# Indices 1 2 3 4 5 6 
#
# 1 54.2600 25.2620 37.9411 0.0000 0.0000 0.0000
# 2 25.2620 86.7489 21.1073 0.0000 0.0000 0.0000
# 3 37.9411 21.1073 112.1174 0.0000 0.0000 0.0000
# 4 0.0000 0.0000 0.0000 16.3794 0.0000 0.0000
# 5 0.0000 0.0000 0.0000 0.0000 34.3975 0.0000
# 6 0.0000 0.0000 0.0000 0.0000 0.0000 23.7416
#
#
#
# Elastic Compliance Matrix: (Units=1/GPa)
#
#
# Indices 1 2 3 4 5 6 
#
# 1 0.026699 -0.005844 -0.007935 0.000000 0.000000 0.000000
# 2 -0.005844 0.013360 -0.000537 0.000000 0.000000 0.000000
# 3 -0.007935 -0.000537 0.011706 0.000000 0.000000 0.000000
# 4 0.000000 0.000000 0.000000 0.061052 0.000000 0.000000
# 5 0.000000 0.000000 0.000000 0.000000 0.029072 0.000000
# 6 0.000000 0.000000 0.000000 0.000000 0.000000 0.042120
#
#
# Mechanical properties :
#
#
# Convention : Reuss Voigt Hill
#
# Bulk Modulus (GPa) = 43.23080 46.86079 45.04579
# Shear Modulus (GPa) = 22.69085 26.15810 24.42447
#
# Velocity S-wave (km/s) = 3.52259 3.78216 3.65468
# Velocity P-wave (km/s) = 6.33923 6.68573 6.51479
#
# Compressibility (1/GPa) = 0.02313166
#
# Stress axis : x y z
#
# Youngs Moduli (GPa) = 37.45435 74.84913 85.42924
#
# Poissons Ratio (x) = 0.43744 0.67787
# Poissons Ratio (y) = 0.21890 0.04591
# Poissons Ratio (z) = 0.29720 0.04023
#
# Static dielectric constant tensor:
#      x y z
#    x 1.626360 0.000000 0.000000 
#    y 0.000000 1.625530 0.000000 
#    z 0.000000 0.000000 1.635120 
# 
# From -- ./inp_files/58223.got.cif
#   From: 2010.05.17/outbox.cif.g08.bks.cpg/sg63_30_cif.got.tgz:58223.got - 2010.06.03 15:47:04.
