data_PCOD9475821
_publ_section_title
;
Structure prediction by ZEFSAII (Michael W. Deem and Ramdas Pophale) SiO2 
 PCOD9475821
Probable space group: C M C M
;
_chemical_formula_sum "Si O2"
_cell_formula_units_Z 68
_cell_length_a 9.602196
_cell_length_b 20.544205
_cell_length_c 17.985561
_cell_angle_alpha 90.000000
_cell_angle_beta 90.000000
_cell_angle_gamma 90.000000
_cell_volume 3548.002321
_symmetry_space_group_name_H-M "C M C M"
_symmetry_group_IT_number 63
_symmetry_cell_setting 'orthorhombic'
loop_
_space_group_symop_operation_xyz
x,y,z
-x,-y,1/2+z
x,-y,-z
-x,y,1/2-z
-x,-y,-z
x,y,1/2-z
-x,y,z
x,-y,1/2+z
1/2+x,1/2+y,z
1/2-x,1/2-y,1/2+z
1/2+x,1/2-y,-z
1/2-x,1/2+y,1/2-z
1/2-x,1/2-y,-z
1/2+x,1/2+y,1/2-z
1/2-x,1/2+y,z
1/2+x,1/2-y,1/2+z
loop_
_atom_site_type_symbol
_atom_site_label
_atom_site_fract_x
_atom_site_fract_y
_atom_site_fract_z
Si Si1 0.000000 0.074068 0.521684
Si Si2 0.500000 0.647697 0.367580
Si Si3 0.242148 0.138821 0.887262
Si Si4 0.000000 0.761857 0.121627
Si Si5 0.789525 0.088996 0.250000
Si Si6 0.500000 0.783168 0.051113
Si Si7 0.500000 0.158197 0.250000
Si Si8 0.836435 0.551336 0.750000
O O1 0.138655 0.092761 0.566435
O O2 0.000000 0.115951 0.447659
O O3 0.000000 0.000000 0.500000
O O4 0.370367 0.619780 0.320421
O O5 0.500000 0.724716 0.387096
O O6 0.363467 0.173051 0.934755
O O7 0.306909 0.096620 0.821257
O O8 0.137173 0.195665 0.860967
O O9 0.000000 0.701153 0.175668
O O10 0.000000 0.744504 0.033353
O O11 0.635689 0.115284 0.250000
O O12 0.769393 0.010659 0.250000
O O13 0.000000 0.531808 0.750000
#
# Coordination Sequence:
#
# PCOD9475821 Si02
#       8
#     8   8  16   8   8   8   4   8
#     4  11  24  44  67  99 132 178 237 271 330 409
#     4  11  24  44  70  97 135 177 218 286 345 397
#     4  11  24  42  71  97 132 185 218 287 339 397
#     4  11  24  41  67  99 138 173 227 281 335 416
#     4  11  26  43  68  97 135 182 222 278 333 408
#     4  12  23  43  69 103 142 172 227 284 351 403
#     4  12  24  40  66 100 138 178 220 272 350 400
#     4  12  24  47  65  98 140 174 234 279 337 404
#
# _framework density 19.165714999999999
#
# number of rings (size 3 to 8) (size 9 to 14) (size 15 to 20)
#    0.000    0.706    4.118    4.235    3.294    6.118 
#    0.000    0.588    0.000    0.000    0.000    0.000 
#    0.000    0.000    0.000    0.000    0.000    0.000 
#
# Total GULP energy -189939.788423 kJ/mol
# GULP energy per Si atom -5586.464365 kJ/mol
# Density = 1.912209 g / cm^3
# Si number density = 19.165715 Si / 1000 Ang^3
#
#
#
# Elastic Constant Matrix: (Units=GPa)
#
#
# Indices 1 2 3 4 5 6 
#
# 1 138.4117 43.0578 31.7750 0.0000 0.0000 0.0000
# 2 43.0578 117.5837 40.0926 0.0000 0.0000 0.0000
# 3 31.7750 40.0926 106.1378 0.0000 0.0000 0.0000
# 4 0.0000 0.0000 0.0000 22.6392 0.0000 0.0000
# 5 0.0000 0.0000 0.0000 0.0000 35.3806 0.0000
# 6 0.0000 0.0000 0.0000 0.0000 0.0000 826.6652
#
#
#
# Elastic Compliance Matrix: (Units=1/GPa)
#
#
# Indices 1 2 3 4 5 6 
#
# 1 0.008369 -0.002537 -0.001547 0.000000 0.000000 0.000000
# 2 -0.002537 0.010531 -0.003218 0.000000 0.000000 0.000000
# 3 -0.001547 -0.003218 0.011101 0.000000 0.000000 0.000000
# 4 0.000000 0.000000 0.000000 0.044171 0.000000 0.000000
# 5 0.000000 0.000000 0.000000 0.000000 0.028264 0.000000
# 6 0.000000 0.000000 0.000000 0.000000 0.000000 0.001210
#
#
# Mechanical properties :
#
#
# Convention : Reuss Voigt Hill
#
# Bulk Modulus (GPa) = 64.95448 65.77599 65.36524
# Shear Modulus (GPa) = 40.52413 193.41752 116.97083
#
# Velocity S-wave (km/s) = 4.60326 10.05672 7.82073
# Velocity P-wave (km/s) = 7.88783 13.00939 10.75784
#
# Compressibility (1/GPa) = 0.01539540
#
# Stress axis : x y z
#
# Youngs Moduli (GPa) = 119.48450 94.95716 90.08504
#
# Poissons Ratio (x) = 0.24093 0.13938
# Poissons Ratio (y) = 0.30316 0.28993
# Poissons Ratio (z) = 0.18486 0.30561
#
# Static dielectric constant tensor:
#      x y z
#    x 1.671950 0.000000 0.000000 
#    y 0.000000 1.691120 0.000000 
#    z 0.000000 0.000000 1.656690 
# 
# From -- ./inp_files/40055.got.cif
#   From: 2010.05.17/outbox.cif.g08.bks.cpg/sg63_21_cif.got.tgz:40055.got - 2010.06.03 15:47:04.
