data_PCOD9475813
_publ_section_title
;
Structure prediction by ZEFSAII (Michael W. Deem and Ramdas Pophale) SiO2 
 PCOD9475813
Probable space group: C M C M
;
_chemical_formula_sum "Si O2"
_cell_formula_units_Z 56
_cell_length_a 21.798023
_cell_length_b 12.391149
_cell_length_c 9.467336
_cell_angle_alpha 90.000000
_cell_angle_beta 90.000000
_cell_angle_gamma 90.000000
_cell_volume 2557.151604
_symmetry_space_group_name_H-M "C M C M"
_symmetry_group_IT_number 63
_symmetry_cell_setting 'orthorhombic'
loop_
_space_group_symop_operation_xyz
x,y,z
-x,-y,1/2+z
x,-y,-z
-x,y,1/2-z
-x,-y,-z
x,y,1/2-z
-x,y,z
x,-y,1/2+z
1/2+x,1/2+y,z
1/2-x,1/2-y,1/2+z
1/2+x,1/2-y,-z
1/2-x,1/2+y,1/2-z
1/2-x,1/2-y,-z
1/2+x,1/2+y,1/2-z
1/2-x,1/2+y,z
1/2+x,1/2-y,1/2+z
loop_
_atom_site_type_symbol
_atom_site_label
_atom_site_fract_x
_atom_site_fract_y
_atom_site_fract_z
Si Si1 0.429948 0.672904 0.080429
Si Si2 0.266370 0.151766 0.400747
Si Si3 0.408095 0.893979 0.582101
Si Si4 0.334831 0.500000 0.500000
O O1 0.413305 0.676177 0.250000
O O2 0.500000 0.632099 0.073784
O O3 0.383203 0.598759 0.990258
O O4 0.428310 0.789461 0.006584
O O5 0.267895 0.206186 0.250000
O O6 0.250000 0.250000 0.500000
O O7 0.333938 0.106961 0.426253
O O8 0.215536 0.057918 0.400646
O O9 0.424331 0.890990 0.750000
O O10 0.430020 0.000000 0.500000
#
# Coordination Sequence:
#
# PCOD9475813 Si02
#       4
#    16  16  16   8
#     4  11  26  47  70  99 137 184 236 287 338 401
#     4  11  24  40  65  99 137 175 218 276 339 408
#     4  11  24  43  68 101 137 179 228 283 347 411
#     4  12  23  42  70 104 141 178 220 274 350 412
#
# _framework density 21.899366000000001
#
# number of rings (size 3 to 8) (size 9 to 14) (size 15 to 20)
#    0.000    0.857    4.286    2.143    0.000    6.857 
#    0.000    0.000    0.000    0.000    0.000    0.000 
#    0.000    0.000    0.000    0.000    0.000    0.000 
#
# Total GULP energy -155920.449501 kJ/mol
# GULP energy per Si atom -5568.587482 kJ/mol
# Density = 2.184952 g / cm^3
# Si number density = 21.899366 Si / 1000 Ang^3
#
#
#
# Elastic Constant Matrix: (Units=GPa)
#
#
# Indices 1 2 3 4 5 6 
#
# 1 145.8950 23.3466 29.0920 0.0000 0.0000 0.0000
# 2 23.3466 124.1031 56.1169 0.0000 0.0000 0.0000
# 3 29.0920 56.1169 104.8634 0.0000 0.0000 0.0000
# 4 0.0000 0.0000 0.0000 22.9887 0.0000 0.0000
# 5 0.0000 0.0000 0.0000 0.0000 8.2033 0.0000
# 6 0.0000 0.0000 0.0000 0.0000 0.0000 -66.6690
#
#
#
# Elastic Compliance Matrix: (Units=1/GPa)
#
#
# Indices 1 2 3 4 5 6 
#
# 1 0.007290 -0.000603 -0.001700 0.000000 0.000000 0.000000
# 2 -0.000603 0.010680 -0.005548 0.000000 0.000000 0.000000
# 3 -0.001700 -0.005548 0.012977 0.000000 0.000000 0.000000
# 4 0.000000 0.000000 0.000000 0.043500 0.000000 0.000000
# 5 0.000000 0.000000 0.000000 0.000000 0.121902 0.000000
# 6 0.000000 0.000000 0.000000 0.000000 0.000000 -0.014999
#
#
# Mechanical properties :
#
#
# Convention : Reuss Voigt Hill
#
# Bulk Modulus (GPa) = 65.59460 65.77473 65.68467
# Shear Modulus (GPa) = 24.73636 10.65833 17.69734
#
# Velocity S-wave (km/s) = 3.36452 2.20851 2.84583
# Velocity P-wave (km/s) = 6.71648 6.05009 6.39197
#
# Compressibility (1/GPa) = 0.01524516
#
# Stress axis : x y z
#
# Youngs Moduli (GPa) = 137.18097 93.63363 77.06061
#
# Poissons Ratio (x) = 0.05644 0.13099
# Poissons Ratio (y) = 0.08268 0.42754
# Poissons Ratio (z) = 0.23318 0.51949
#
# Static dielectric constant tensor:
#      x y z
#    x 1.800290 0.000000 0.000000 
#    y 0.000000 1.809660 0.000000 
#    z 0.000000 0.000000 1.788500 
# 
# From -- ./inp_files/11447.got.cif
#   From: 2010.05.17/outbox.cif.g08.bks.cpg/sg63_6_cif.got.tgz:11447.got - 2010.06.03 15:47:04.
