data_PCOD9475384
_publ_section_title
;
Structure prediction by ZEFSAII (Michael W. Deem and Ramdas Pophale) SiO2 
 PCOD9475384
Probable space group: C M C M
;
_chemical_formula_sum "Si O2"
_cell_formula_units_Z 96
_cell_length_a 14.855724
_cell_length_b 17.557234
_cell_length_c 19.770989
_cell_angle_alpha 90.000000
_cell_angle_beta 90.000000
_cell_angle_gamma 90.000000
_cell_volume 5156.776559
_symmetry_space_group_name_H-M "C M C M"
_symmetry_group_IT_number 63
_symmetry_cell_setting 'orthorhombic'
loop_
_space_group_symop_operation_xyz
x,y,z
-x,-y,1/2+z
x,-y,-z
-x,y,1/2-z
-x,-y,-z
x,y,1/2-z
-x,y,z
x,-y,1/2+z
1/2+x,1/2+y,z
1/2-x,1/2-y,1/2+z
1/2+x,1/2-y,-z
1/2-x,1/2+y,1/2-z
1/2-x,1/2-y,-z
1/2+x,1/2+y,1/2-z
1/2-x,1/2+y,z
1/2+x,1/2-y,1/2+z
loop_
_atom_site_type_symbol
_atom_site_label
_atom_site_fract_x
_atom_site_fract_y
_atom_site_fract_z
Si Si1 0.705277 0.031309 0.924956
Si Si2 0.352850 0.803139 0.064485
Si Si3 0.711018 0.892036 0.670487
Si Si4 0.850771 0.257540 0.583278
Si Si5 0.402021 0.354924 0.606908
Si Si6 0.098974 0.097124 0.948415
O O1 0.651866 0.109860 0.912991
O O2 0.813125 0.050881 0.925487
O O3 0.683862 0.967207 0.870568
O O4 0.685763 0.000000 0.000000
O O5 0.250511 0.772439 0.069714
O O6 0.403944 0.737236 0.104253
O O7 0.381032 0.798373 0.985953
O O8 0.701322 0.899923 0.750000
O O9 0.656211 0.819198 0.642049
O O10 0.815950 0.878958 0.649924
O O11 0.901944 0.178068 0.590475
O O12 0.500000 0.382879 0.629651
O O13 0.388379 0.381584 0.528317
O O14 0.000000 0.060905 0.940657
#
# Coordination Sequence:
#
# PCOD9475384 Si02
#       6
#    16  16  16  16  16  16
#     4  11  17  29  48  71 101 133 159 197 242 287
#     4   8  14  27  49  69  88 121 163 201 236 272
#     4  11  21  31  46  71  99 129 162 198 244 297
#     4   8  14  29  47  67  90 119 162 204 232 271
#     4   9  17  31  50  73  97 122 157 203 246 288
#     4   9  17  29  51  77  97 121 160 202 241 285
#
# _framework density 18.61628
#
# number of rings (size 3 to 8) (size 9 to 14) (size 15 to 20)
#    0.000    2.667    3.333    2.000    0.000    1.333 
#    0.000    7.500    0.000    3.000    0.000    0.000 
#    0.000    0.000    0.000    0.000    0.000    0.000 
#
# Total GULP energy -267426.042209 kJ/mol
# GULP energy per Si atom -5571.375879 kJ/mol
# Density = 1.857391 g / cm^3
# Si number density = 18.616280 Si / 1000 Ang^3
#
#
#
# Elastic Constant Matrix: (Units=GPa)
#
#
# Indices 1 2 3 4 5 6 
#
# 1 21.8867 -6.9232 -11.7769 0.0000 0.0000 0.0000
# 2 -6.9232 119.8890 47.8469 0.0000 0.0000 0.0000
# 3 -11.7769 47.8469 95.3194 0.0000 0.0000 0.0000
# 4 0.0000 0.0000 0.0000 19.1124 0.0000 0.0000
# 5 0.0000 0.0000 0.0000 0.0000 4.7764 0.0000
# 6 0.0000 0.0000 0.0000 0.0000 0.0000 10.1813
#
#
#
# Elastic Compliance Matrix: (Units=1/GPa)
#
#
# Indices 1 2 3 4 5 6 
#
# 1 0.048969 0.000517 0.005791 0.000000 0.000000 0.000000
# 2 0.000517 0.010436 -0.005175 0.000000 0.000000 0.000000
# 3 0.005791 -0.005175 0.013804 0.000000 0.000000 0.000000
# 4 0.000000 0.000000 0.000000 0.052322 0.000000 0.000000
# 5 0.000000 0.000000 0.000000 0.000000 0.209363 0.000000
# 6 0.000000 0.000000 0.000000 0.000000 0.000000 0.098219
#
#
# Mechanical properties :
#
#
# Convention : Reuss Voigt Hill
#
# Bulk Modulus (GPa) = 13.24938 32.82095 23.03517
# Shear Modulus (GPa) = 10.96476 20.67724 15.82100
#
# Velocity S-wave (km/s) = 2.42954 3.33634 2.91838
# Velocity P-wave (km/s) = 3.87334 5.70176 4.87406
#
# Compressibility (1/GPa) = 0.07547521
#
# Stress axis : x y z
#
# Youngs Moduli (GPa) = 20.42097 95.82147 72.44262
#
# Poissons Ratio (x) = -0.04951 -0.41951
# Poissons Ratio (y) = -0.01055 0.37487
# Poissons Ratio (z) = -0.11826 0.49585
#
# Static dielectric constant tensor:
#      x y z
#    x 1.698150 0.000000 0.000000 
#    y 0.000000 1.689370 0.000000 
#    z 0.000000 0.000000 1.597620 
# 
# From -- ./inp_files/45760.got.cif
#   From: 2010.05.17/outbox.cif.g08.bks.cpg/sg63_23_cif.got.tgz:45760.got - 2010.06.03 15:47:04.
