data_PCOD9475789
_publ_section_title
;
Structure prediction by ZEFSAII (Michael W. Deem and Ramdas Pophale) SiO2 
 PCOD9475789
Probable space group: C M C M
;
_chemical_formula_sum "Si O2"
_cell_formula_units_Z 80
_cell_length_a 9.679355
_cell_length_b 16.228943
_cell_length_c 25.628391
_cell_angle_alpha 90.000000
_cell_angle_beta 90.000000
_cell_angle_gamma 90.000000
_cell_volume 4025.853755
_symmetry_space_group_name_H-M "C M C M"
_symmetry_group_IT_number 63
_symmetry_cell_setting 'orthorhombic'
loop_
_space_group_symop_operation_xyz
x,y,z
-x,-y,1/2+z
x,-y,-z
-x,y,1/2-z
-x,-y,-z
x,y,1/2-z
-x,y,z
x,-y,1/2+z
1/2+x,1/2+y,z
1/2-x,1/2-y,1/2+z
1/2+x,1/2-y,-z
1/2-x,1/2+y,1/2-z
1/2-x,1/2-y,-z
1/2+x,1/2+y,1/2-z
1/2-x,1/2+y,z
1/2+x,1/2-y,1/2+z
loop_
_atom_site_type_symbol
_atom_site_label
_atom_site_fract_x
_atom_site_fract_y
_atom_site_fract_z
Si Si1 0.293613 0.467395 0.941965
Si Si2 0.277996 0.293695 0.340976
Si Si3 0.500000 0.988128 0.891825
Si Si4 0.000000 0.339745 0.690689
Si Si5 0.500000 0.868588 0.193267
Si Si6 0.000000 0.069852 0.631674
Si Si7 0.162305 0.772521 0.551027
O O1 0.381790 0.516156 0.899576
O O2 0.326631 0.370483 0.940281
O O3 0.134667 0.482905 0.927588
O O4 0.324407 0.500000 0.000000
O O5 0.365805 0.217526 0.318780
O O6 0.379091 0.371721 0.341960
O O7 0.232508 0.272503 0.400108
O O8 0.137214 0.313792 0.311373
O O9 0.500000 0.911221 0.852031
O O10 0.500000 0.068453 0.855065
O O11 0.000000 0.370368 0.750000
O O12 0.500000 0.910759 0.250000
O O13 0.250000 0.750000 0.500000
O O14 0.000000 0.750207 0.545832
#
# Coordination Sequence:
#
# PCOD9475789 Si02
#       7
#    16  16   8   8   8   8  16
#     4  12  25  42  67  95 137 182 219 261 334 400
#     4  11  24  44  68 100 134 167 222 278 328 396
#     4  12  25  45  67  99 132 171 226 282 323 392
#     4  11  24  45  70  94 129 177 222 273 336 397
#     4  12  25  45  72  99 129 171 223 286 340 382
#     4  11  23  43  66  94 135 178 210 262 328 394
#     4  12  27  41  67 101 136 175 222 269 328 396
#
# _framework density 19.871559999999999
#
# number of rings (size 3 to 8) (size 9 to 14) (size 15 to 20)
#    0.000    0.400    6.000    2.700    7.000    0.000 
#    0.000    0.000    0.000    0.000    0.000    0.000 
#    0.000    0.000    0.000    0.000    0.000    0.000 
#
# Total GULP energy -222709.448427 kJ/mol
# GULP energy per Si atom -5567.736211 kJ/mol
# Density = 1.982633 g / cm^3
# Si number density = 19.871560 Si / 1000 Ang^3
#
#
#
# Elastic Constant Matrix: (Units=GPa)
#
#
# Indices 1 2 3 4 5 6 
#
# 1 166.4001 6.0790 5.9296 0.0000 0.0000 0.0000
# 2 6.0790 37.9505 -6.9261 0.0000 0.0000 0.0000
# 3 5.9296 -6.9261 61.4809 0.0000 0.0000 0.0000
# 4 0.0000 0.0000 0.0000 13.0906 0.0000 0.0000
# 5 0.0000 0.0000 0.0000 0.0000 -5.8726 0.0000
# 6 0.0000 0.0000 0.0000 0.0000 0.0000 36.1869
#
#
#
# Elastic Compliance Matrix: (Units=1/GPa)
#
#
# Indices 1 2 3 4 5 6 
#
# 1 0.006075 -0.001103 -0.000710 0.000000 0.000000 0.000000
# 2 -0.001103 0.027103 0.003160 0.000000 0.000000 0.000000
# 3 -0.000710 0.003160 0.016690 0.000000 0.000000 0.000000
# 4 0.000000 0.000000 0.000000 0.076391 0.000000 0.000000
# 5 0.000000 0.000000 0.000000 0.000000 -0.170281 0.000000
# 6 0.000000 0.000000 0.000000 0.000000 0.000000 0.027634
#
#
# Mechanical properties :
#
#
# Convention : Reuss Voigt Hill
#
# Bulk Modulus (GPa) = 19.02524 30.66629 24.84576
# Shear Modulus (GPa) = -3204.01168 26.06422 -1588.97373
#
# Velocity S-wave (km/s) = -40.19777 3.62558 -28.30827
# Velocity P-wave (km/s) = 46.31291 5.74388 32.49534
#
# Compressibility (1/GPa) = 0.05256177
#
# Stress axis : x y z
#
# Youngs Moduli (GPa) = 164.60347 36.89570 59.91740
#
# Poissons Ratio (x) = 0.04069 0.04255
# Poissons Ratio (y) = 0.18152 -0.18932
# Poissons Ratio (z) = 0.11689 -0.11658
#
# Static dielectric constant tensor:
#      x y z
#    x 1.739030 0.000000 0.000000 
#    y 0.000000 1.691220 0.000000 
#    z 0.000000 0.000000 1.706380 
# 
# From -- ./inp_files/66743.got.cif
#   From: 2010.05.17/outbox.cif.g08.bks.cpg/sg63_34_cif.got.tgz:66743.got - 2010.06.03 15:47:04.
