data_PCOD9475481
_publ_section_title
;
Structure prediction by ZEFSAII (Michael W. Deem and Ramdas Pophale) SiO2 
 PCOD9475481
Probable space group: C M C M
;
_chemical_formula_sum "Si O2"
_cell_formula_units_Z 48
_cell_length_a 13.524079
_cell_length_b 12.483832
_cell_length_c 13.770167
_cell_angle_alpha 90.000000
_cell_angle_beta 90.000000
_cell_angle_gamma 90.000000
_cell_volume 2324.849382
_symmetry_space_group_name_H-M "C M C M"
_symmetry_group_IT_number 63
_symmetry_cell_setting 'orthorhombic'
loop_
_space_group_symop_operation_xyz
x,y,z
-x,-y,1/2+z
x,-y,-z
-x,y,1/2-z
-x,-y,-z
x,y,1/2-z
-x,y,z
x,-y,1/2+z
1/2+x,1/2+y,z
1/2-x,1/2-y,1/2+z
1/2+x,1/2-y,-z
1/2-x,1/2+y,1/2-z
1/2-x,1/2-y,-z
1/2+x,1/2+y,1/2-z
1/2-x,1/2+y,z
1/2+x,1/2-y,1/2+z
loop_
_atom_site_type_symbol
_atom_site_label
_atom_site_fract_x
_atom_site_fract_y
_atom_site_fract_z
Si Si1 0.140034 0.597545 0.750000
Si Si2 0.667673 0.296455 0.250000
Si Si3 0.500000 0.982687 0.888517
Si Si4 0.355602 0.655022 0.250000
Si Si5 0.000000 0.903768 0.919118
Si Si6 0.500000 0.267089 0.398351
O O1 0.237326 0.312579 0.750000
O O2 0.094517 0.537570 0.659178
O O3 0.106683 0.721241 0.750000
O O4 0.743363 0.394559 0.250000
O O5 0.598041 0.306730 0.343464
O O6 0.500000 0.700582 0.010587
O O7 0.500000 0.000000 0.000000
O O8 0.405092 0.601032 0.345819
O O9 0.000000 0.642582 0.127353
O O10 0.500000 0.500000 0.500000
#
# Coordination Sequence:
#
# PCOD9475481 Si02
#       6
#     8   8   8   8   8   8
#     4   9  19  40  65  93 128 180 204 261 354 398
#     4   9  22  41  66  90 137 172 214 275 333 389
#     4  11  20  38  68 100 127 159 220 282 333 395
#     4   9  21  44  65  89 133 179 222 273 341 401
#     4  11  23  43  66  94 135 186 225 271 337 401
#     4  11  23  44  62 102 137 168 226 290 314 386
#
# _framework density 20.6465
#
# number of rings (size 3 to 8) (size 9 to 14) (size 15 to 20)
#    1.000    1.000    0.000    6.000    0.000    4.000 
#   12.000    0.000    0.000    0.000    0.000    0.000 
#    0.000    0.000    0.000    0.000    0.000    0.000 
#
# Total GULP energy -133720.016690 kJ/mol
# GULP energy per Si atom -5571.667362 kJ/mol
# Density = 2.059951 g / cm^3
# Si number density = 20.646500 Si / 1000 Ang^3
#
#
#
# Elastic Constant Matrix: (Units=GPa)
#
#
# Indices 1 2 3 4 5 6 
#
# 1 161.3943 25.8817 68.6349 0.0000 0.0000 0.0000
# 2 25.8817 91.0959 35.4703 0.0000 0.0000 0.0000
# 3 68.6349 35.4703 176.8760 0.0000 0.0000 0.0000
# 4 0.0000 0.0000 0.0000 40.5432 0.0000 0.0000
# 5 0.0000 0.0000 0.0000 0.0000 18.2739 0.0000
# 6 0.0000 0.0000 0.0000 0.0000 0.0000 -22.2684
#
#
#
# Elastic Compliance Matrix: (Units=1/GPa)
#
#
# Indices 1 2 3 4 5 6 
#
# 1 0.007518 -0.001085 -0.002700 0.000000 0.000000 0.000000
# 2 -0.001085 0.012064 -0.001998 0.000000 0.000000 0.000000
# 3 -0.002700 -0.001998 0.007102 0.000000 0.000000 0.000000
# 4 0.000000 0.000000 0.000000 0.024665 0.000000 0.000000
# 5 0.000000 0.000000 0.000000 0.000000 0.054723 0.000000
# 6 0.000000 0.000000 0.000000 0.000000 0.000000 -0.044907
#
#
# Mechanical properties :
#
#
# Convention : Reuss Voigt Hill
#
# Bulk Modulus (GPa) = 66.14571 76.59333 71.36952
# Shear Modulus (GPa) = 64.29218 27.26838 45.78028
#
# Velocity S-wave (km/s) = 5.58633 3.63812 4.71397
# Velocity P-wave (km/s) = 8.58582 7.40445 8.01693
#
# Compressibility (1/GPa) = 0.01511814
#
# Stress axis : x y z
#
# Youngs Moduli (GPa) = 133.01274 82.89317 140.80480
#
# Poissons Ratio (x) = 0.08992 0.38014
# Poissons Ratio (y) = 0.14429 0.28137
# Poissons Ratio (z) = 0.35910 0.16564
#
# Static dielectric constant tensor:
#      x y z
#    x 1.774780 0.000000 0.000000 
#    y 0.000000 2.341330 0.000000 
#    z 0.000000 0.000000 1.624300 
# 
# From -- ./inp_files/18561.got.cif
#   From: 2010.05.17/outbox.cif.g08.bks.cpg/sg63_10_cif.got.tgz:18561.got - 2010.06.03 15:47:04.
