data_PCOD9475745
_publ_section_title
;
Structure prediction by ZEFSAII (Michael W. Deem and Ramdas Pophale) SiO2 
 PCOD9475745
Probable space group: C M C M
;
_chemical_formula_sum "Si O2"
_cell_formula_units_Z 68
_cell_length_a 10.483530
_cell_length_b 15.056447
_cell_length_c 20.156659
_cell_angle_alpha 90.000000
_cell_angle_beta 90.000000
_cell_angle_gamma 90.000000
_cell_volume 3181.622071
_symmetry_space_group_name_H-M "C M C M"
_symmetry_group_IT_number 63
_symmetry_cell_setting 'orthorhombic'
loop_
_space_group_symop_operation_xyz
x,y,z
-x,-y,1/2+z
x,-y,-z
-x,y,1/2-z
-x,-y,-z
x,y,1/2-z
-x,y,z
x,-y,1/2+z
1/2+x,1/2+y,z
1/2-x,1/2-y,1/2+z
1/2+x,1/2-y,-z
1/2-x,1/2+y,1/2-z
1/2-x,1/2-y,-z
1/2+x,1/2+y,1/2-z
1/2-x,1/2+y,z
1/2+x,1/2-y,1/2+z
loop_
_atom_site_type_symbol
_atom_site_label
_atom_site_fract_x
_atom_site_fract_y
_atom_site_fract_z
Si Si1 0.000000 0.461363 0.250000
Si Si2 0.721407 0.004165 0.354166
Si Si3 0.000000 0.899738 0.972283
Si Si4 0.739077 0.857245 0.458139
Si Si5 0.500000 0.450258 0.676759
Si Si6 0.144071 0.694123 0.094356
O O1 0.887229 0.467038 0.193027
O O2 0.693544 0.108692 0.365581
O O3 0.867157 0.995909 0.328705
O O4 0.714872 0.949716 0.422481
O O5 0.000000 0.895783 0.892578
O O6 0.873635 0.859585 0.003162
O O7 0.000000 0.000000 0.000000
O O8 0.761411 0.778678 0.404724
O O9 0.642986 0.835140 0.516912
O O10 0.500000 0.406109 0.750000
O O11 0.000000 0.716481 0.115781
#
# Coordination Sequence:
#
# PCOD9475745 Si02
#       6
#     4  16   8  16   8  16
#     4  12  28  44  68  98 144 196 238 278 346 444
#     4  12  24  45  69  97 141 185 233 287 350 410
#     4  12  18  37  68 101 129 171 233 284 341 406
#     4  11  23  39  68 104 137 169 229 302 341 412
#     4  12  24  40  69 100 138 188 227 274 351 428
#     4  11  23  39  67 105 136 175 222 297 365 403
#
# _framework density 21.372747
#
# number of rings (size 3 to 8) (size 9 to 14) (size 15 to 20)
#    0.000    0.471    8.235    0.706    1.647    0.941 
#    0.000    1.176    5.176    0.000    0.000    0.000 
#    0.000    0.000    0.000    0.000    0.000    0.000 
#
# Total GULP energy -189286.510476 kJ/mol
# GULP energy per Si atom -5567.250308 kJ/mol
# Density = 2.132410 g / cm^3
# Si number density = 21.372747 Si / 1000 Ang^3
#
#
#
# Elastic Constant Matrix: (Units=GPa)
#
#
# Indices 1 2 3 4 5 6 
#
# 1 142.7701 -9.1583 13.2467 0.0000 0.0000 0.0000
# 2 -9.1583 40.8891 -2.7265 0.0000 0.0000 0.0000
# 3 13.2467 -2.7265 91.8796 0.0000 0.0000 0.0000
# 4 0.0000 0.0000 0.0000 -3.1072 0.0000 0.0000
# 5 0.0000 0.0000 0.0000 0.0000 1.1364 0.0000
# 6 0.0000 0.0000 0.0000 0.0000 0.0000 19.7664
#
#
#
# Elastic Compliance Matrix: (Units=1/GPa)
#
#
# Indices 1 2 3 4 5 6 
#
# 1 0.007195 0.001546 -0.000992 0.000000 0.000000 0.000000
# 2 0.001546 0.024837 0.000514 0.000000 0.000000 0.000000
# 3 -0.000992 0.000514 0.011042 0.000000 0.000000 0.000000
# 4 0.000000 0.000000 0.000000 -0.321834 0.000000 0.000000
# 5 0.000000 0.000000 0.000000 0.000000 0.879938 0.000000
# 6 0.000000 0.000000 0.000000 0.000000 0.000000 0.050591
#
#
# Mechanical properties :
#
#
# Convention : Reuss Voigt Hill
#
# Bulk Modulus (GPa) = 22.11870 30.91807 26.51839
# Shear Modulus (GPa) = 7.52215 21.83759 14.67987
#
# Velocity S-wave (km/s) = 1.87807 3.19995 2.62363
# Velocity P-wave (km/s) = 3.88257 5.30570 4.64891
#
# Compressibility (1/GPa) = 0.04521061
#
# Stress axis : x y z
#
# Youngs Moduli (GPa) = 138.97759 40.26280 90.56315
#
# Poissons Ratio (x) = -0.06223 0.08980
# Poissons Ratio (y) = -0.21479 -0.04657
# Poissons Ratio (z) = 0.13780 -0.02070
#
# Static dielectric constant tensor:
#      x y z
#    x 1.816990 0.000000 0.000000 
#    y 0.000000 1.797610 0.000000 
#    z 0.000000 0.000000 1.768640 
# 
# From -- ./inp_files/52271.got.cif
#   From: 2010.05.17/outbox.cif.g08.bks.cpg/sg63_27_cif.got.tgz:52271.got - 2010.06.03 15:47:04.
