data_PCOD9475030
_publ_section_title
;
Structure prediction by ZEFSAII (Michael W. Deem and Ramdas Pophale) SiO2 
 PCOD9475030
Probable space group: C M C M
;
_chemical_formula_sum "Si O2"
_cell_formula_units_Z 80
_cell_length_a 12.989218
_cell_length_b 13.491979
_cell_length_c 21.755662
_cell_angle_alpha 90.000000
_cell_angle_beta 90.000000
_cell_angle_gamma 90.000000
_cell_volume 3812.685345
_symmetry_space_group_name_H-M "C M C M"
_symmetry_group_IT_number 63
_symmetry_cell_setting 'orthorhombic'
loop_
_space_group_symop_operation_xyz
x,y,z
-x,-y,1/2+z
x,-y,-z
-x,y,1/2-z
-x,-y,-z
x,y,1/2-z
-x,y,z
x,-y,1/2+z
1/2+x,1/2+y,z
1/2-x,1/2-y,1/2+z
1/2+x,1/2-y,-z
1/2-x,1/2+y,1/2-z
1/2-x,1/2-y,-z
1/2+x,1/2+y,1/2-z
1/2-x,1/2+y,z
1/2+x,1/2-y,1/2+z
loop_
_atom_site_type_symbol
_atom_site_label
_atom_site_fract_x
_atom_site_fract_y
_atom_site_fract_z
Si Si1 0.116049 0.591936 0.323207
Si Si2 0.500000 0.423513 0.058074
Si Si3 0.618863 0.897987 0.405553
Si Si4 0.706433 0.640349 0.506473
Si Si5 0.678624 0.674397 0.129473
Si Si6 0.000000 0.047514 0.182010
O O1 0.123714 0.581031 0.250000
O O2 0.129912 0.485007 0.355694
O O3 0.205459 0.663680 0.346816
O O4 0.000000 0.626412 0.338438
O O5 0.395466 0.363179 0.047354
O O6 0.500000 0.472308 0.124951
O O7 0.500000 0.500000 0.000000
O O8 0.500000 0.897650 0.427232
O O9 0.701688 0.915520 0.459153
O O10 0.643780 0.788155 0.379209
O O11 0.750000 0.750000 0.500000
O O12 0.675200 0.617368 0.436456
O O13 0.599678 0.617204 0.173120
O O14 0.000000 0.002335 0.250000
#
# Coordination Sequence:
#
# PCOD9475030 Si02
#       6
#    16   8  16  16  16   8
#     4  10  23  41  61  87 124 169 213 260 324 395
#     4  12  22  42  70  96 134 171 216 278 334 389
#     4  10  22  41  64  94 127 163 220 274 328 392
#     4  10  23  38  65  95 127 166 215 265 335 388
#     4  11  21  41  63  94 129 167 219 270 331 391
#     4  12  24  36  66 104 131 168 226 275 329 391
#
# _framework density 20.982586999999999
#
# number of rings (size 3 to 8) (size 9 to 14) (size 15 to 20)
#    0.000    1.400    3.000    1.800    4.200    2.400 
#    5.400    2.000    0.000    2.400    0.000    0.000 
#    0.000    0.000    0.000    0.000    0.000    0.000 
#
# Total GULP energy -223472.161121 kJ/mol
# GULP energy per Si atom -5586.804028 kJ/mol
# Density = 2.093483 g / cm^3
# Si number density = 20.982587 Si / 1000 Ang^3
#
#
#
# Elastic Constant Matrix: (Units=GPa)
#
#
# Indices 1 2 3 4 5 6 
#
# 1 169.4613 40.7251 44.6347 0.0000 0.0000 0.0000
# 2 40.7251 57.0550 12.5079 0.0000 0.0000 0.0000
# 3 44.6347 12.5079 107.8317 0.0000 0.0000 0.0000
# 4 0.0000 0.0000 0.0000 18.8411 0.0000 0.0000
# 5 0.0000 0.0000 0.0000 0.0000 33.5889 0.0000
# 6 0.0000 0.0000 0.0000 0.0000 0.0000 45.5157
#
#
#
# Elastic Compliance Matrix: (Units=1/GPa)
#
#
# Indices 1 2 3 4 5 6 
#
# 1 0.007797 -0.004984 -0.002649 0.000000 0.000000 0.000000
# 2 -0.004984 0.021171 -0.000393 0.000000 0.000000 0.000000
# 3 -0.002649 -0.000393 0.010416 0.000000 0.000000 0.000000
# 4 0.000000 0.000000 0.000000 0.053075 0.000000 0.000000
# 5 0.000000 0.000000 0.000000 0.000000 0.029772 0.000000
# 6 0.000000 0.000000 0.000000 0.000000 0.000000 0.021970
#
#
# Mechanical properties :
#
#
# Convention : Reuss Voigt Hill
#
# Bulk Modulus (GPa) = 42.86105 58.89817 50.87961
# Shear Modulus (GPa) = 29.75659 35.35449 32.55554
#
# Velocity S-wave (km/s) = 3.76993 4.10926 3.94325
# Velocity P-wave (km/s) = 6.27862 7.11658 6.71069
#
# Compressibility (1/GPa) = 0.02333121
#
# Stress axis : x y z
#
# Youngs Moduli (GPa) = 128.26000 47.23483 96.00813
#
# Poissons Ratio (x) = 0.23544 0.25434
# Poissons Ratio (y) = 0.63930 0.03768
# Poissons Ratio (z) = 0.33977 0.01854
#
# Static dielectric constant tensor:
#      x y z
#    x 1.777500 0.000000 0.000000 
#    y 0.000000 1.755800 0.000000 
#    z 0.000000 0.000000 1.764610 
# 
# From -- ./inp_files/61186.got.cif
#   From: 2010.05.17/outbox.cif.g08.bks.cpg/sg63_31_cif.got.tgz:61186.got - 2010.06.03 15:47:04.
