data_PCOD9475737
_publ_section_title
;
Structure prediction by ZEFSAII (Michael W. Deem and Ramdas Pophale) SiO2 
 PCOD9475737
Probable space group: C M C M
;
_chemical_formula_sum "Si O2"
_cell_formula_units_Z 116
_cell_length_a 17.613713
_cell_length_b 12.268516
_cell_length_c 27.114101
_cell_angle_alpha 90.000000
_cell_angle_beta 90.000000
_cell_angle_gamma 90.000000
_cell_volume 5859.197789
_symmetry_space_group_name_H-M "C M C M"
_symmetry_group_IT_number 63
_symmetry_cell_setting 'orthorhombic'
loop_
_space_group_symop_operation_xyz
x,y,z
-x,-y,1/2+z
x,-y,-z
-x,y,1/2-z
-x,-y,-z
x,y,1/2-z
-x,y,z
x,-y,1/2+z
1/2+x,1/2+y,z
1/2-x,1/2-y,1/2+z
1/2+x,1/2-y,-z
1/2-x,1/2+y,1/2-z
1/2-x,1/2-y,-z
1/2+x,1/2+y,1/2-z
1/2-x,1/2+y,z
1/2+x,1/2-y,1/2+z
loop_
_atom_site_type_symbol
_atom_site_label
_atom_site_fract_x
_atom_site_fract_y
_atom_site_fract_z
Si Si1 0.590390 0.417119 0.457308
Si Si2 0.808207 0.752445 0.193671
Si Si3 0.329280 0.803768 0.984831
Si Si4 0.334546 0.520848 0.646041
Si Si5 0.869247 0.217867 0.329251
Si Si6 0.170202 0.568940 0.383127
Si Si7 0.500000 0.231679 0.750000
Si Si8 0.911302 0.634136 0.582079
O O1 0.616795 0.500000 0.500000
O O2 0.500000 0.424635 0.453750
O O3 0.614993 0.295605 0.471369
O O4 0.626847 0.449787 0.405595
O O5 0.825076 0.724152 0.250000
O O6 0.835612 0.873393 0.180353
O O7 0.716737 0.748403 0.185985
O O8 0.843657 0.665208 0.155918
O O9 0.318773 0.877168 0.936646
O O10 0.250000 0.750000 0.000000
O O11 0.363942 0.866009 0.031594
O O12 0.372314 0.413466 0.669195
O O13 0.247499 0.489459 0.634178
O O14 0.932915 0.263445 0.292965
O O15 0.883762 0.266188 0.383705
O O16 0.106675 0.476669 0.388394
O O17 0.000000 0.644803 0.571582
#
# Coordination Sequence:
#
# PCOD9475737 Si02
#       8
#    16  16  16  16  16  16   4  16
#     4  11  23  39  61  96 134 176 214 266 338 403
#     4  11  23  45  70  98 129 176 228 283 340 397
#     4  12  23  41  67  96 134 176 225 277 333 404
#     4  11  23  42  68  95 133 174 220 284 335 403
#     4  11  24  43  67 101 133 173 225 282 341 411
#     4  11  24  43  65  98 133 173 229 274 335 404
#     4  12  24  44  68 100 138 176 226 286 356 402
#     4  12  25  44  68  99 140 181 225 281 341 412
#
# _framework density 19.797933
#
# number of rings (size 3 to 8) (size 9 to 14) (size 15 to 20)
#    0.000    0.690    4.138    4.966    1.931    3.310 
#    1.241    0.000    0.000    0.828    0.000    0.000 
#    0.000    0.000    0.000    0.000    0.000    0.000 
#
# Total GULP energy -323939.652639 kJ/mol
# GULP energy per Si atom -5585.166425 kJ/mol
# Density = 1.975287 g / cm^3
# Si number density = 19.797933 Si / 1000 Ang^3
#
#
#
# Elastic Constant Matrix: (Units=GPa)
#
#
# Indices 1 2 3 4 5 6 
#
# 1 28.6598 9.8820 15.4193 0.0000 0.0000 0.0000
# 2 9.8820 88.6943 15.1077 0.0000 0.0000 0.0000
# 3 15.4193 15.1077 103.7052 0.0000 0.0000 0.0000
# 4 0.0000 0.0000 0.0000 18.5814 0.0000 0.0000
# 5 0.0000 0.0000 0.0000 0.0000 41.2345 0.0000
# 6 0.0000 0.0000 0.0000 0.0000 0.0000 8.1333
#
#
#
# Elastic Compliance Matrix: (Units=1/GPa)
#
#
# Indices 1 2 3 4 5 6 
#
# 1 0.038921 -0.003436 -0.005286 0.000000 0.000000 0.000000
# 2 -0.003436 0.011865 -0.001218 0.000000 0.000000 0.000000
# 3 -0.005286 -0.001218 0.010606 0.000000 0.000000 0.000000
# 4 0.000000 0.000000 0.000000 0.053817 0.000000 0.000000
# 5 0.000000 0.000000 0.000000 0.000000 0.024252 0.000000
# 6 0.000000 0.000000 0.000000 0.000000 0.000000 0.122951
#
#
# Mechanical properties :
#
#
# Convention : Reuss Voigt Hill
#
# Bulk Modulus (GPa) = 24.08937 33.54192 28.81564
# Shear Modulus (GPa) = 16.88455 25.63321 21.25888
#
# Velocity S-wave (km/s) = 2.92352 3.60216 3.28043
# Velocity P-wave (km/s) = 4.85695 5.85488 5.37911
#
# Compressibility (1/GPa) = 0.04151208
#
# Stress axis : x y z
#
# Youngs Moduli (GPa) = 25.69309 84.28226 94.28533
#
# Poissons Ratio (x) = 0.28959 0.49843
# Poissons Ratio (y) = 0.08828 0.11480
# Poissons Ratio (z) = 0.13582 0.10262
#
# Static dielectric constant tensor:
#      x y z
#    x 1.674160 0.000000 0.000000 
#    y 0.000000 1.704170 0.000000 
#    z 0.000000 0.000000 1.669750 
# 
# From -- ./inp_files/70015.got.cif
#   From: 2010.05.17/outbox.cif.g08.bks.cpg/sg63_36_cif.got.tgz:70015.got - 2010.06.03 15:47:04.
