data_PCOD9475009
_publ_section_title
;
Structure prediction by ZEFSAII (Michael W. Deem and Ramdas Pophale) SiO2 
 PCOD9475009
Probable space group: C M C M
;
_chemical_formula_sum "Si O2"
_cell_formula_units_Z 44
_cell_length_a 7.723612
_cell_length_b 13.755954
_cell_length_c 23.729462
_cell_angle_alpha 90.000000
_cell_angle_beta 90.000000
_cell_angle_gamma 90.000000
_cell_volume 2521.152147
_symmetry_space_group_name_H-M "C M C M"
_symmetry_group_IT_number 63
_symmetry_cell_setting 'orthorhombic'
loop_
_space_group_symop_operation_xyz
x,y,z
-x,-y,1/2+z
x,-y,-z
-x,y,1/2-z
-x,-y,-z
x,y,1/2-z
-x,y,z
x,-y,1/2+z
1/2+x,1/2+y,z
1/2-x,1/2-y,1/2+z
1/2+x,1/2-y,-z
1/2-x,1/2+y,1/2-z
1/2-x,1/2-y,-z
1/2+x,1/2+y,1/2-z
1/2-x,1/2+y,z
1/2+x,1/2-y,1/2+z
loop_
_atom_site_type_symbol
_atom_site_label
_atom_site_fract_x
_atom_site_fract_y
_atom_site_fract_z
Si Si1 0.000000 0.617047 0.750000
Si Si2 0.500000 0.794836 0.373160
Si Si3 0.299138 0.456672 0.750000
Si Si4 0.000000 0.497890 0.566861
Si Si5 0.694154 0.847814 0.635907
O O1 0.000000 0.679382 0.693310
O O2 0.167682 0.547133 0.750000
O O3 0.330573 0.730603 0.384886
O O4 0.500000 0.895155 0.406990
O O5 0.500000 0.485639 0.750000
O O6 0.258757 0.393603 0.694470
O O7 0.000000 0.500000 0.500000
O O8 0.161175 0.436138 0.592229
O O9 0.500000 0.806111 0.644559
#
# Coordination Sequence:
#
# PCOD9475009 Si02
#       5
#     4   8   8   8  16
#     4  12  22  38  62  96 132 168 194 260 324 388
#     4  12  22  40  70  90 127 170 202 253 339 363
#     4  12  19  37  67  93 131 162 200 261 321 379
#     4  10  24  46  65  89 130 166 218 268 296 364
#     4  10  22  41  63  93 129 157 209 262 309 376
#
# _framework density 17.452338999999998
#
# number of rings (size 3 to 8) (size 9 to 14) (size 15 to 20)
#    1.091    0.000    7.273    1.091    0.000    2.909 
#    3.273    0.909    0.000    0.000    0.000    0.000 
#    0.000    0.000    0.000    0.000    0.000    0.000 
#
# Total GULP energy -122695.854333 kJ/mol
# GULP energy per Si atom -5577.084288 kJ/mol
# Density = 1.741262 g / cm^3
# Si number density = 17.452339 Si / 1000 Ang^3
#
#
#
# Elastic Constant Matrix: (Units=GPa)
#
#
# Indices 1 2 3 4 5 6 
#
# 1 163.3237 75.0662 27.8459 0.0000 0.0000 0.0000
# 2 75.0662 142.6421 62.4946 0.0000 0.0000 0.0000
# 3 27.8459 62.4946 138.0602 0.0000 0.0000 0.0000
# 4 0.0000 0.0000 0.0000 -1.2402 0.0000 0.0000
# 5 0.0000 0.0000 0.0000 0.0000 -4.7670 0.0000
# 6 0.0000 0.0000 0.0000 0.0000 0.0000 -59.2451
#
#
#
# Elastic Compliance Matrix: (Units=1/GPa)
#
#
# Indices 1 2 3 4 5 6 
#
# 1 0.008091 -0.004420 0.000369 0.000000 0.000000 0.000000
# 2 -0.004420 0.011159 -0.004160 0.000000 0.000000 0.000000
# 3 0.000369 -0.004160 0.009052 0.000000 0.000000 0.000000
# 4 0.000000 0.000000 0.000000 -0.806316 0.000000 0.000000
# 5 0.000000 0.000000 0.000000 0.000000 -0.209776 0.000000
# 6 0.000000 0.000000 0.000000 0.000000 0.000000 -0.016879
#
#
# Mechanical properties :
#
#
# Convention : Reuss Voigt Hill
#
# Bulk Modulus (GPa) = 84.17170 86.09329 85.13250
# Shear Modulus (GPa) = -5.07982 5.52416 0.22217
#
# Velocity S-wave (km/s) = -1.70792 1.78105 0.35718
# Velocity P-wave (km/s) = 6.66670 7.32579 7.00400
#
# Compressibility (1/GPa) = 0.01188048
#
# Stress axis : x y z
#
# Youngs Moduli (GPa) = 123.58992 89.61471 110.47461
#
# Poissons Ratio (x) = 0.39606 -0.04072
# Poissons Ratio (y) = 0.54622 0.45955
# Poissons Ratio (z) = -0.04556 0.37278
#
# Static dielectric constant tensor:
#      x y z
#    x 1.677780 0.000000 0.000000 
#    y 0.000000 1.587650 0.000000 
#    z 0.000000 0.000000 1.568580 
# 
# From -- ./inp_files/50022.got.cif
#   From: 2010.05.17/outbox.cif.g08.bks.cpg/sg63_26_cif.got.tgz:50022.got - 2010.06.03 15:47:04.
