data_PCOD9475061
_publ_section_title
;
Structure prediction by ZEFSAII (Michael W. Deem and Ramdas Pophale) SiO2 
 PCOD9475061
Probable space group: C M C M
;
_chemical_formula_sum "Si O2"
_cell_formula_units_Z 80
_cell_length_a 14.004907
_cell_length_b 12.368179
_cell_length_c 20.366443
_cell_angle_alpha 90.000000
_cell_angle_beta 90.000000
_cell_angle_gamma 90.000000
_cell_volume 3527.777429
_symmetry_space_group_name_H-M "C M C M"
_symmetry_group_IT_number 63
_symmetry_cell_setting 'orthorhombic'
loop_
_space_group_symop_operation_xyz
x,y,z
-x,-y,1/2+z
x,-y,-z
-x,y,1/2-z
-x,-y,-z
x,y,1/2-z
-x,y,z
x,-y,1/2+z
1/2+x,1/2+y,z
1/2-x,1/2-y,1/2+z
1/2+x,1/2-y,-z
1/2-x,1/2+y,1/2-z
1/2-x,1/2-y,-z
1/2+x,1/2+y,1/2-z
1/2-x,1/2+y,z
1/2+x,1/2-y,1/2+z
loop_
_atom_site_type_symbol
_atom_site_label
_atom_site_fract_x
_atom_site_fract_y
_atom_site_fract_z
Si Si1 0.000000 0.381546 0.966659
Si Si2 0.323104 0.373423 0.361575
Si Si3 0.107263 0.669728 0.823644
Si Si4 0.500000 0.782119 0.676081
Si Si5 0.147243 0.800647 0.998785
Si Si6 0.394610 0.590655 0.360268
O O1 0.000000 0.365499 0.886423
O O2 0.914746 0.307005 0.992671
O O3 0.000000 0.500000 0.000000
O O4 0.209618 0.348992 0.358448
O O5 0.401524 0.290544 0.330317
O O6 0.359358 0.374324 0.436830
O O7 0.329221 0.495019 0.335415
O O8 0.113075 0.624136 0.750000
O O9 0.106132 0.799542 0.820210
O O10 0.000000 0.640236 0.850925
O O11 0.500000 0.828945 0.750000
O O12 0.250000 0.750000 0.000000
O O13 0.126352 0.867395 0.933779
O O14 0.500000 0.542595 0.358510
#
# Coordination Sequence:
#
# PCOD9475061 Si02
#       6
#     8  16  16   8  16  16
#     4  10  24  43  71 103 141 189 233 286 357 431
#     4  11  22  40  70 102 135 180 229 289 354 420
#     4  10  23  43  65  93 134 180 230 287 344 419
#     4  10  22  41  69 109 149 181 232 300 365 429
#     4  11  22  41  66  99 134 174 224 289 342 411
#     4  11  22  41  69 100 133 179 231 287 346 423
#
# _framework density 22.677168999999999
#
# number of rings (size 3 to 8) (size 9 to 14) (size 15 to 20)
#    0.000    1.400    4.000    1.200    0.000    4.000 
#    0.000    0.000    2.200    1.200    0.000    0.000 
#    0.000    0.000    0.000    0.000    0.000    0.000 
#
# Total GULP energy -222896.775763 kJ/mol
# GULP energy per Si atom -5572.419394 kJ/mol
# Density = 2.262555 g / cm^3
# Si number density = 22.677169 Si / 1000 Ang^3
#
#
#
# Elastic Constant Matrix: (Units=GPa)
#
#
# Indices 1 2 3 4 5 6 
#
# 1 179.0142 51.8675 25.0048 0.0000 0.0000 0.0000
# 2 51.8675 105.3070 17.4607 0.0000 0.0000 0.0000
# 3 25.0048 17.4607 121.6992 0.0000 0.0000 0.0000
# 4 0.0000 0.0000 0.0000 -14.6731 0.0000 0.0000
# 5 0.0000 0.0000 0.0000 0.0000 5.9452 0.0000
# 6 0.0000 0.0000 0.0000 0.0000 0.0000 24.7540
#
#
#
# Elastic Compliance Matrix: (Units=1/GPa)
#
#
# Indices 1 2 3 4 5 6 
#
# 1 0.006614 -0.003106 -0.000913 0.000000 0.000000 0.000000
# 2 -0.003106 0.011186 -0.000967 0.000000 0.000000 0.000000
# 3 -0.000913 -0.000967 0.008543 0.000000 0.000000 0.000000
# 4 0.000000 0.000000 0.000000 -0.068152 0.000000 0.000000
# 5 0.000000 0.000000 0.000000 0.000000 0.168203 0.000000
# 6 0.000000 0.000000 0.000000 0.000000 0.000000 0.040397
#
#
# Mechanical properties :
#
#
# Convention : Reuss Voigt Hill
#
# Bulk Modulus (GPa) = 61.08324 66.07628 63.57976
# Shear Modulus (GPa) = 27.43917 23.98437 25.71177
#
# Velocity S-wave (km/s) = 3.48227 3.25567 3.37087
# Velocity P-wave (km/s) = 6.56983 6.58283 6.57633
#
# Compressibility (1/GPa) = 0.01637110
#
# Stress axis : x y z
#
# Youngs Moduli (GPa) = 151.20234 89.39603 117.05048
#
# Poissons Ratio (x) = 0.27767 0.10689
# Poissons Ratio (y) = 0.46964 0.11316
# Poissons Ratio (z) = 0.13808 0.08642
#
# Static dielectric constant tensor:
#      x y z
#    x 1.876910 0.000000 0.000000 
#    y 0.000000 1.802010 0.000000 
#    z 0.000000 0.000000 1.943400 
# 
# From -- ./inp_files/62576.got.cif
#   From: 2010.05.17/outbox.cif.g08.bks.cpg/sg63_32_cif.got.tgz:62576.got - 2010.06.03 15:47:04.
