data_PCOD9475010
_publ_section_title
;
Structure prediction by ZEFSAII (Michael W. Deem and Ramdas Pophale) SiO2 
 PCOD9475010
Probable space group: C M C M
;
_chemical_formula_sum "Si O2"
_cell_formula_units_Z 80
_cell_length_a 31.182219
_cell_length_b 4.908900
_cell_length_c 20.944931
_cell_angle_alpha 90.000000
_cell_angle_beta 90.000000
_cell_angle_gamma 90.000000
_cell_volume 3206.048858
_symmetry_space_group_name_H-M "C M C M"
_symmetry_group_IT_number 63
_symmetry_cell_setting 'orthorhombic'
loop_
_space_group_symop_operation_xyz
x,y,z
-x,-y,1/2+z
x,-y,-z
-x,y,1/2-z
-x,-y,-z
x,y,1/2-z
-x,y,z
x,-y,1/2+z
1/2+x,1/2+y,z
1/2-x,1/2-y,1/2+z
1/2+x,1/2-y,-z
1/2-x,1/2+y,1/2-z
1/2-x,1/2-y,-z
1/2+x,1/2+y,1/2-z
1/2-x,1/2+y,z
1/2+x,1/2-y,1/2+z
loop_
_atom_site_type_symbol
_atom_site_label
_atom_site_fract_x
_atom_site_fract_y
_atom_site_fract_z
Si Si1 0.077487 0.867637 0.564058
Si Si2 0.221479 0.194292 0.173847
Si Si3 0.848161 0.195695 0.621862
Si Si4 0.500000 0.286966 0.857258
Si Si5 0.566249 0.486614 0.750000
Si Si6 0.648544 0.000000 0.000000
Si Si7 0.623922 0.018962 0.250000
O O1 0.116980 0.688802 0.540610
O O2 0.058751 0.000000 0.500000
O O3 0.103267 0.095418 0.605386
O O4 0.039176 0.698983 0.595109
O O5 0.213495 0.178426 0.250000
O O6 0.261518 0.993658 0.159345
O O7 0.181211 0.061534 0.139345
O O8 0.829776 0.327016 0.556289
O O9 0.852216 0.386804 0.685089
O O10 0.537049 0.410923 0.809603
O O11 0.580371 0.799577 0.750000
O O12 0.608451 0.292909 0.750000
#
# Coordination Sequence:
#
# PCOD9475010 Si02
#       7
#    16  16  16   8   8   8   8
#     4  10  22  41  63  93 130 180 234 283 341 414
#     4  10  23  42  68 107 142 176 225 288 350 418
#     4  11  23  43  72  98 139 186 233 289 350 421
#     4  11  21  41  60  93 136 177 231 290 350 404
#     4  11  26  40  62  99 138 169 231 297 344 406
#     4  10  24  43  66  98 138 188 238 286 338 427
#     4  12  24  45  70 101 132 187 233 285 360 405
#
# _framework density 24.952832999999998
#
# number of rings (size 3 to 8) (size 9 to 14) (size 15 to 20)
#    0.000    1.400    3.000    1.500    2.800    2.000 
#    7.200    1.000    0.000    0.000    0.000    0.000 
#    0.000    0.000    0.000    0.000    0.000    0.000 
#
# Total GULP energy -222734.525641 kJ/mol
# GULP energy per Si atom -5568.363141 kJ/mol
# Density = 2.489604 g / cm^3
# Si number density = 24.952833 Si / 1000 Ang^3
#
#
#
# Elastic Constant Matrix: (Units=GPa)
#
#
# Indices 1 2 3 4 5 6 
#
# 1 102.1673 2.2804 47.2371 0.0000 0.0000 0.0000
# 2 2.2804 63.5447 15.0521 0.0000 0.0000 0.0000
# 3 47.2371 15.0521 102.2076 0.0000 0.0000 0.0000
# 4 0.0000 0.0000 0.0000 30.2556 0.0000 0.0000
# 5 0.0000 0.0000 0.0000 0.0000 41.5279 0.0000
# 6 0.0000 0.0000 0.0000 0.0000 0.0000 -1.5672
#
#
#
# Elastic Compliance Matrix: (Units=1/GPa)
#
#
# Indices 1 2 3 4 5 6 
#
# 1 0.012503 0.000953 -0.005919 0.000000 0.000000 0.000000
# 2 0.000953 0.016378 -0.002853 0.000000 0.000000 0.000000
# 3 -0.005919 -0.002853 0.012940 0.000000 0.000000 0.000000
# 4 0.000000 0.000000 0.000000 0.033052 0.000000 0.000000
# 5 0.000000 0.000000 0.000000 0.000000 0.024080 0.000000
# 6 0.000000 0.000000 0.000000 0.000000 0.000000 -0.638088
#
#
# Mechanical properties :
#
#
# Convention : Reuss Voigt Hill
#
# Bulk Modulus (GPa) = 38.19011 44.11762 41.15387
# Shear Modulus (GPa) = -9.71309 27.59992 8.94342
#
# Velocity S-wave (km/s) = -1.97510 3.32939 1.89523
# Velocity P-wave (km/s) = 3.18383 5.70075 4.61711
#
# Compressibility (1/GPa) = 0.02618479
#
# Stress axis : x y z
#
# Youngs Moduli (GPa) = 79.97926 61.05577 77.28162
#
# Poissons Ratio (x) = -0.05821 0.45743
# Poissons Ratio (y) = -0.07625 0.22046
# Poissons Ratio (z) = 0.47340 0.17417
#
# Static dielectric constant tensor:
#      x y z
#    x 1.947660 0.000000 0.000000 
#    y 0.000000 2.092520 0.000000 
#    z 0.000000 0.000000 2.134850 
# 
# From -- ./inp_files/65678.got.cif
#   From: 2010.05.17/outbox.cif.g08.bks.cpg/sg63_33_cif.got.tgz:65678.got - 2010.06.03 15:47:04.
