data_PCOD9475359
_publ_section_title
;
Structure prediction by ZEFSAII (Michael W. Deem and Ramdas Pophale) SiO2 
 PCOD9475359
Probable space group: C M C M
;
_chemical_formula_sum "Si O2"
_cell_formula_units_Z 64
_cell_length_a 14.441224
_cell_length_b 11.786926
_cell_length_c 18.841352
_cell_angle_alpha 90.000000
_cell_angle_beta 90.000000
_cell_angle_gamma 90.000000
_cell_volume 3207.130446
_symmetry_space_group_name_H-M "C M C M"
_symmetry_group_IT_number 63
_symmetry_cell_setting 'orthorhombic'
loop_
_space_group_symop_operation_xyz
x,y,z
-x,-y,1/2+z
x,-y,-z
-x,y,1/2-z
-x,-y,-z
x,y,1/2-z
-x,y,z
x,-y,1/2+z
1/2+x,1/2+y,z
1/2-x,1/2-y,1/2+z
1/2+x,1/2-y,-z
1/2-x,1/2+y,1/2-z
1/2-x,1/2-y,-z
1/2+x,1/2+y,1/2-z
1/2-x,1/2+y,z
1/2+x,1/2-y,1/2+z
loop_
_atom_site_type_symbol
_atom_site_label
_atom_site_fract_x
_atom_site_fract_y
_atom_site_fract_z
Si Si1 0.000000 0.128630 0.164855
Si Si2 0.645368 0.178040 0.834695
Si Si3 0.000000 0.914604 0.434390
Si Si4 0.604489 0.037461 0.423225
Si Si5 0.311347 0.267914 0.071868
O O1 0.911874 0.208301 0.144395
O O2 0.000000 0.119349 0.250000
O O3 0.000000 0.003872 0.131186
O O4 0.644687 0.171007 0.750000
O O5 0.601568 0.066932 0.870065
O O6 0.746372 0.177823 0.868975
O O7 0.906344 0.838642 0.438002
O O8 0.000000 0.000000 0.500000
O O9 0.500000 0.078140 0.436545
O O10 0.642300 0.000000 0.500000
O O11 0.662826 0.143825 0.399106
O O12 0.250000 0.250000 0.000000
#
# Coordination Sequence:
#
# PCOD9475359 Si02
#       5
#     8  16   8  16  16
#     4  10  24  47  69  97 141 181 220 271 337 408
#     4  11  25  44  70 100 135 182 226 275 342 407
#     4  12  28  43  67 100 137 177 219 277 340 406
#     4  11  23  42  71  99 135 176 227 287 332 394
#     4  12  26  44  68 103 134 175 225 282 340 403
#
# _framework density 19.955535000000001
#
# number of rings (size 3 to 8) (size 9 to 14) (size 15 to 20)
#    0.000    0.750    5.000    1.500    7.000    2.000 
#    0.000    0.000    0.000    0.000    0.000    0.000 
#    0.000    0.000    0.000    0.000    0.000    0.000 
#
# Total GULP energy -178646.902599 kJ/mol
# GULP energy per Si atom -5582.715706 kJ/mol
# Density = 1.991012 g / cm^3
# Si number density = 19.955535 Si / 1000 Ang^3
#
#
#
# Elastic Constant Matrix: (Units=GPa)
#
#
# Indices 1 2 3 4 5 6 
#
# 1 131.1780 58.3736 35.3510 0.0000 0.0000 0.0000
# 2 58.3736 115.6182 37.1285 0.0000 0.0000 0.0000
# 3 35.3510 37.1285 86.8290 0.0000 0.0000 0.0000
# 4 0.0000 0.0000 0.0000 35.5997 0.0000 0.0000
# 5 0.0000 0.0000 0.0000 0.0000 15.8074 0.0000
# 6 0.0000 0.0000 0.0000 0.0000 0.0000 34.1332
#
#
#
# Elastic Compliance Matrix: (Units=1/GPa)
#
#
# Indices 1 2 3 4 5 6 
#
# 1 0.010201 -0.004424 -0.002262 0.000000 0.000000 0.000000
# 2 -0.004424 0.011945 -0.003306 0.000000 0.000000 0.000000
# 3 -0.002262 -0.003306 0.013851 0.000000 0.000000 0.000000
# 4 0.000000 0.000000 0.000000 0.028090 0.000000 0.000000
# 5 0.000000 0.000000 0.000000 0.000000 0.063261 0.000000
# 6 0.000000 0.000000 0.000000 0.000000 0.000000 0.029297
#
#
# Mechanical properties :
#
#
# Convention : Reuss Voigt Hill
#
# Bulk Modulus (GPa) = 62.44807 66.14794 64.29800
# Shear Modulus (GPa) = 27.47734 30.62620 29.05177
#
# Velocity S-wave (km/s) = 3.71472 3.92180 3.81967
# Velocity P-wave (km/s) = 7.05411 7.32987 7.19331
#
# Compressibility (1/GPa) = 0.01601331
#
# Stress axis : x y z
#
# Youngs Moduli (GPa) = 98.02494 83.71927 72.19477
#
# Poissons Ratio (x) = 0.37040 0.16327
# Poissons Ratio (y) = 0.43369 0.23870
# Poissons Ratio (z) = 0.22168 0.27680
#
# Static dielectric constant tensor:
#      x y z
#    x 1.755720 0.000000 0.000000 
#    y 0.000000 1.712800 0.000000 
#    z 0.000000 0.000000 1.701940 
# 
# From -- ./inp_files/43491.got.cif
#   From: 2010.05.17/outbox.cif.g08.bks.cpg/sg63_22_cif.got.tgz:43491.got - 2010.06.03 15:47:04.
