data_PCOD9475137
_publ_section_title
;
Structure prediction by ZEFSAII (Michael W. Deem and Ramdas Pophale) SiO2 
 PCOD9475137
Probable space group: C M C M
;
_chemical_formula_sum "Si O2"
_cell_formula_units_Z 52
_cell_length_a 7.598819
_cell_length_b 16.468110
_cell_length_c 17.346969
_cell_angle_alpha 90.000000
_cell_angle_beta 90.000000
_cell_angle_gamma 90.000000
_cell_volume 2170.768253
_symmetry_space_group_name_H-M "C M C M"
_symmetry_group_IT_number 63
_symmetry_cell_setting 'orthorhombic'
loop_
_space_group_symop_operation_xyz
x,y,z
-x,-y,1/2+z
x,-y,-z
-x,y,1/2-z
-x,-y,-z
x,y,1/2-z
-x,y,z
x,-y,1/2+z
1/2+x,1/2+y,z
1/2-x,1/2-y,1/2+z
1/2+x,1/2-y,-z
1/2-x,1/2+y,1/2-z
1/2-x,1/2-y,-z
1/2+x,1/2+y,1/2-z
1/2-x,1/2+y,z
1/2+x,1/2-y,1/2+z
loop_
_atom_site_type_symbol
_atom_site_label
_atom_site_fract_x
_atom_site_fract_y
_atom_site_fract_z
Si Si1 0.300253 0.589546 0.413999
Si Si2 0.791476 0.737191 0.910210
Si Si3 0.298111 0.072136 0.659061
Si Si4 0.000000 0.500000 0.500000
O O1 0.500000 0.599060 0.444252
O O2 0.246497 0.674782 0.374803
O O3 0.297423 0.511577 0.358804
O O4 0.157441 0.566644 0.477621
O O5 0.717467 0.653892 0.876237
O O6 0.000000 0.727299 0.898334
O O7 0.750000 0.750000 0.000000
O O8 0.311409 0.084529 0.750000
O O9 0.500000 0.055785 0.626402
#
# Coordination Sequence:
#
# PCOD9475137 Si02
#       4
#    16  16  16   4
#     4  11  24  41  65  97 132 174 220 271 339 401
#     4  10  23  39  63  98 133 171 217 276 336 398
#     4  10  22  43  68  95 132 180 228 277 338 406
#     4  12  22  40  66  94 132 174 206 282 328 402
#
# _framework density 23.954651999999999
#
# number of rings (size 3 to 8) (size 9 to 14) (size 15 to 20)
#    0.000    1.538    1.538    2.308    6.462    5.538 
#    0.000    3.077    0.000    0.000    0.000    0.000 
#    0.000    0.000    0.000    0.000    0.000    0.000 
#
# Total GULP energy -144906.435292 kJ/mol
# GULP energy per Si atom -5573.324434 kJ/mol
# Density = 2.390013 g / cm^3
# Si number density = 23.954652 Si / 1000 Ang^3
#
#
#
# Elastic Constant Matrix: (Units=GPa)
#
#
# Indices 1 2 3 4 5 6 
#
# 1 108.1668 17.7523 5.2097 0.0000 0.0000 0.0000
# 2 17.7523 265.4026 46.0251 0.0000 0.0000 0.0000
# 3 5.2097 46.0251 61.4564 0.0000 0.0000 0.0000
# 4 0.0000 0.0000 0.0000 22.9415 0.0000 0.0000
# 5 0.0000 0.0000 0.0000 0.0000 18.5550 0.0000
# 6 0.0000 0.0000 0.0000 0.0000 0.0000 15.5742
#
#
#
# Elastic Compliance Matrix: (Units=1/GPa)
#
#
# Indices 1 2 3 4 5 6 
#
# 1 0.009355 -0.000561 -0.000373 0.000000 0.000000 0.000000
# 2 -0.000561 0.004364 -0.003221 0.000000 0.000000 0.000000
# 3 -0.000373 -0.003221 0.018715 0.000000 0.000000 0.000000
# 4 0.000000 0.000000 0.000000 0.043589 0.000000 0.000000
# 5 0.000000 0.000000 0.000000 0.000000 0.053894 0.000000
# 6 0.000000 0.000000 0.000000 0.000000 0.000000 0.064209
#
#
# Mechanical properties :
#
#
# Convention : Reuss Voigt Hill
#
# Bulk Modulus (GPa) = 41.45055 63.66668 52.55861
# Shear Modulus (GPa) = 23.75562 35.81673 29.78618
#
# Velocity S-wave (km/s) = 3.15253 3.87096 3.53007
# Velocity P-wave (km/s) = 5.53106 6.82751 6.21319
#
# Compressibility (1/GPa) = 0.02412513
#
# Stress axis : x y z
#
# Youngs Moduli (GPa) = 106.89447 229.15332 53.43247
#
# Poissons Ratio (x) = 0.12857 0.01992
# Poissons Ratio (y) = 0.05998 0.17208
# Poissons Ratio (z) = 0.03985 0.73801
#
# Static dielectric constant tensor:
#      x y z
#    x 1.934810 0.000000 0.000000 
#    y 0.000000 2.008910 0.000000 
#    z 0.000000 0.000000 1.700580 
# 
# From -- ./inp_files/50043.got.cif
#   From: 2010.05.17/outbox.cif.g08.bks.cpg/sg63_26_cif.got.tgz:50043.got - 2010.06.03 15:47:04.
