data_PCOD9475571
_publ_section_title
;
Structure prediction by ZEFSAII (Michael W. Deem and Ramdas Pophale) SiO2 
 PCOD9475571
Probable space group: C M C M
;
_chemical_formula_sum "Si O2"
_cell_formula_units_Z 96
_cell_length_a 16.240213
_cell_length_b 11.472925
_cell_length_c 25.776301
_cell_angle_alpha 90.000000
_cell_angle_beta 90.000000
_cell_angle_gamma 90.000000
_cell_volume 4802.711177
_symmetry_space_group_name_H-M "C M C M"
_symmetry_group_IT_number 63
_symmetry_cell_setting 'orthorhombic'
loop_
_space_group_symop_operation_xyz
x,y,z
-x,-y,1/2+z
x,-y,-z
-x,y,1/2-z
-x,-y,-z
x,y,1/2-z
-x,y,z
x,-y,1/2+z
1/2+x,1/2+y,z
1/2-x,1/2-y,1/2+z
1/2+x,1/2-y,-z
1/2-x,1/2+y,1/2-z
1/2-x,1/2-y,-z
1/2+x,1/2+y,1/2-z
1/2-x,1/2+y,z
1/2+x,1/2-y,1/2+z
loop_
_atom_site_type_symbol
_atom_site_label
_atom_site_fract_x
_atom_site_fract_y
_atom_site_fract_z
Si Si1 0.317998 0.666903 0.565665
Si Si2 0.000000 0.718668 0.187638
Si Si3 0.910508 0.154573 0.037426
Si Si4 0.364404 0.913269 0.046758
Si Si5 0.000000 0.005245 0.811748
Si Si6 0.667684 0.542344 0.365256
Si Si7 0.346078 0.106591 0.128501
O O1 0.382903 0.633891 0.521440
O O2 0.229807 0.632204 0.542406
O O3 0.325196 0.592263 0.618075
O O4 0.330664 0.799391 0.582603
O O5 0.081166 0.656644 0.163972
O O6 0.000000 0.710405 0.250000
O O7 0.000000 0.856731 0.173348
O O8 0.913134 0.293575 0.045031
O O9 0.847755 0.105607 0.079686
O O10 0.000000 0.103210 0.047880
O O11 0.371126 0.986813 0.099745
O O12 0.385047 0.000000 0.000000
O O13 0.000000 0.000024 0.750000
O O14 0.915624 0.946745 0.832413
O O15 0.756285 0.586130 0.345070
#
# Coordination Sequence:
#
# PCOD9475571 Si02
#       7
#    16   8  16  16   8  16  16
#     4  11  21  37  58  92 126 174 210 248 307 370
#     4  11  26  48  71  97 121 156 216 281 332 382
#     4  12  24  34  56  90 135 174 211 248 304 376
#     4  11  22  37  57  87 133 175 211 249 299 373
#     4  11  24  44  71  96 121 155 216 281 329 379
#     4  11  23  41  63  95 128 169 211 260 320 378
#     4  11  23  40  69  91 130 168 210 264 317 381
#
# _framework density 19.988709
#
# number of rings (size 3 to 8) (size 9 to 14) (size 15 to 20)
#    0.000    0.833    5.833    3.000    3.500    1.667 
#    0.000    0.000    0.000    2.000    0.000    0.000 
#    0.000    0.000    0.000    0.000    0.000    0.000 
#
# Total GULP energy -268091.235872 kJ/mol
# GULP energy per Si atom -5585.234081 kJ/mol
# Density = 1.994321 g / cm^3
# Si number density = 19.988709 Si / 1000 Ang^3
#
#
#
# Elastic Constant Matrix: (Units=GPa)
#
#
# Indices 1 2 3 4 5 6 
#
# 1 142.5953 11.8918 39.2706 0.0000 0.0000 0.0000
# 2 11.8918 71.3471 10.5879 0.0000 0.0000 0.0000
# 3 39.2706 10.5879 52.0585 0.0000 0.0000 0.0000
# 4 0.0000 0.0000 0.0000 22.7991 0.0000 0.0000
# 5 0.0000 0.0000 0.0000 0.0000 14.4922 0.0000
# 6 0.0000 0.0000 0.0000 0.0000 0.0000 27.9876
#
#
#
# Elastic Compliance Matrix: (Units=1/GPa)
#
#
# Indices 1 2 3 4 5 6 
#
# 1 0.008869 -0.000501 -0.006589 0.000000 0.000000 0.000000
# 2 -0.000501 0.014480 -0.002568 0.000000 0.000000 0.000000
# 3 -0.006589 -0.002568 0.024702 0.000000 0.000000 0.000000
# 4 0.000000 0.000000 0.000000 0.043861 0.000000 0.000000
# 5 0.000000 0.000000 0.000000 0.000000 0.069003 0.000000
# 6 0.000000 0.000000 0.000000 0.000000 0.000000 0.035730
#
#
# Mechanical properties :
#
#
# Convention : Reuss Voigt Hill
#
# Bulk Modulus (GPa) = 34.79754 43.27796 39.03775
# Shear Modulus (GPa) = 22.16924 26.67250 24.42087
#
# Velocity S-wave (km/s) = 3.33391 3.65688 3.49912
# Velocity P-wave (km/s) = 5.68035 6.28717 5.99145
#
# Compressibility (1/GPa) = 0.02873766
#
# Stress axis : x y z
#
# Youngs Moduli (GPa) = 112.75100 69.05876 40.48333
#
# Poissons Ratio (x) = 0.03456 0.26673
# Poissons Ratio (y) = 0.05643 0.10394
# Poissons Ratio (z) = 0.74288 0.17731
#
# Static dielectric constant tensor:
#      x y z
#    x 1.758380 0.000000 0.000000 
#    y 0.000000 1.735200 0.000000 
#    z 0.000000 0.000000 1.664000 
# 
# From -- ./inp_files/63734.got.cif
#   From: 2010.05.17/outbox.cif.g08.bks.cpg/sg63_32_cif.got.tgz:63734.got - 2010.06.03 15:47:04.
