data_PCOD9475019
_publ_section_title
;
Structure prediction by ZEFSAII (Michael W. Deem and Ramdas Pophale) SiO2 
 PCOD9475019
Probable space group: C M C M
;
_chemical_formula_sum "Si O2"
_cell_formula_units_Z 72
_cell_length_a 13.913166
_cell_length_b 29.678012
_cell_length_c 7.994131
_cell_angle_alpha 90.000000
_cell_angle_beta 90.000000
_cell_angle_gamma 90.000000
_cell_volume 3300.897461
_symmetry_space_group_name_H-M "C M C M"
_symmetry_group_IT_number 63
_symmetry_cell_setting 'orthorhombic'
loop_
_space_group_symop_operation_xyz
x,y,z
-x,-y,1/2+z
x,-y,-z
-x,y,1/2-z
-x,-y,-z
x,y,1/2-z
-x,y,z
x,-y,1/2+z
1/2+x,1/2+y,z
1/2-x,1/2-y,1/2+z
1/2+x,1/2-y,-z
1/2-x,1/2+y,1/2-z
1/2-x,1/2-y,-z
1/2+x,1/2+y,1/2-z
1/2-x,1/2+y,z
1/2+x,1/2-y,1/2+z
loop_
_atom_site_type_symbol
_atom_site_label
_atom_site_fract_x
_atom_site_fract_y
_atom_site_fract_z
Si Si1 0.790184 0.298666 0.451328
Si Si2 0.705926 0.047614 0.440776
Si Si3 0.000000 0.333228 0.946755
Si Si4 0.168529 0.119058 0.562186
Si Si5 0.000000 0.434828 0.444579
Si Si6 0.000000 0.946802 0.047201
O O1 0.792694 0.303224 0.250000
O O2 0.750000 0.250000 0.500000
O O3 0.711744 0.335568 0.516589
O O4 0.899189 0.307871 0.513670
O O5 0.732893 0.057140 0.250000
O O6 0.739554 0.086785 0.562498
O O7 0.592527 0.047364 0.459869
O O8 0.747048 0.000000 0.500000
O O9 0.000000 0.343673 0.750000
O O10 0.000000 0.380515 0.043539
O O11 0.134909 0.130328 0.750000
O O12 0.089662 0.084448 0.488931
O O13 0.000000 0.448183 0.250000
O O14 0.000000 0.947549 0.250000
O O15 0.000000 0.000000 0.000000
#
# Coordination Sequence:
#
# PCOD9475019 Si02
#       6
#    16  16   8  16   8   8
#     4  11  24  43  69  99 134 175 222 276 336 401
#     4  12  24  38  59  89 126 167 213 260 315 382
#     4  12  24  42  68  98 133 171 215 267 328 390
#     4  10  22  41  64  90 127 171 216 269 332 396
#     4  12  23  39  61  89 126 165 207 253 311 376
#     4  10  22  41  64  93 126 170 222 274 335 400
#
# _framework density 21.812249000000001
#
# number of rings (size 3 to 8) (size 9 to 14) (size 15 to 20)
#    0.000    0.889    2.222    5.667    0.000    4.444 
#    0.000    2.222    0.000    0.000    0.000    0.000 
#    0.000    0.000    0.000    0.000    0.000    0.000 
#
# Total GULP energy -200918.264102 kJ/mol
# GULP energy per Si atom -5581.062892 kJ/mol
# Density = 2.176260 g / cm^3
# Si number density = 21.812249 Si / 1000 Ang^3
#
#
#
# Elastic Constant Matrix: (Units=GPa)
#
#
# Indices 1 2 3 4 5 6 
#
# 1 124.0410 61.9425 8.2200 0.0000 0.0000 0.0000
# 2 61.9425 187.8407 2.2558 0.0000 0.0000 0.0000
# 3 8.2200 2.2558 94.9720 0.0000 0.0000 0.0000
# 4 0.0000 0.0000 0.0000 28.6732 0.0000 0.0000
# 5 0.0000 0.0000 0.0000 0.0000 19.4687 0.0000
# 6 0.0000 0.0000 0.0000 0.0000 0.0000 28.5787
#
#
#
# Elastic Compliance Matrix: (Units=1/GPa)
#
#
# Indices 1 2 3 4 5 6 
#
# 1 0.009706 -0.003192 -0.000764 0.000000 0.000000 0.000000
# 2 -0.003192 0.006375 0.000125 0.000000 0.000000 0.000000
# 3 -0.000764 0.000125 0.010593 0.000000 0.000000 0.000000
# 4 0.000000 0.000000 0.000000 0.034876 0.000000 0.000000
# 5 0.000000 0.000000 0.000000 0.000000 0.051365 0.000000
# 6 0.000000 0.000000 0.000000 0.000000 0.000000 0.034991
#
#
# Mechanical properties :
#
#
# Convention : Reuss Voigt Hill
#
# Bulk Modulus (GPa) = 52.59996 61.29894 56.94945
# Shear Modulus (GPa) = 30.88249 37.63982 34.26115
#
# Velocity S-wave (km/s) = 3.76684 4.15857 3.96754
# Velocity P-wave (km/s) = 6.56399 7.15698 6.86689
#
# Compressibility (1/GPa) = 0.01901142
#
# Stress axis : x y z
#
# Youngs Moduli (GPa) = 103.02613 156.87220 94.40546
#
# Poissons Ratio (x) = 0.50067 0.07215
# Poissons Ratio (y) = 0.32882 -0.01178
# Poissons Ratio (z) = 0.07874 -0.01958
#
# Static dielectric constant tensor:
#      x y z
#    x 1.874890 0.000000 0.000000 
#    y 0.000000 1.780060 0.000000 
#    z 0.000000 0.000000 1.790740 
# 
# From -- ./inp_files/4713.got.cif
#   From: 2010.05.17/outbox.cif.g08.bks.cpg/sg63_3_cif.got.tgz:4713.got - 2010.06.03 15:47:04.
