data_PCOD9475454
_publ_section_title
;
Structure prediction by ZEFSAII (Michael W. Deem and Ramdas Pophale) SiO2 
 PCOD9475454
Probable space group: C M C M
;
_chemical_formula_sum "Si O2"
_cell_formula_units_Z 56
_cell_length_a 13.875232
_cell_length_b 23.803412
_cell_length_c 8.237129
_cell_angle_alpha 90.000000
_cell_angle_beta 90.000000
_cell_angle_gamma 90.000000
_cell_volume 2720.541371
_symmetry_space_group_name_H-M "C M C M"
_symmetry_group_IT_number 63
_symmetry_cell_setting 'orthorhombic'
loop_
_space_group_symop_operation_xyz
x,y,z
-x,-y,1/2+z
x,-y,-z
-x,y,1/2-z
-x,-y,-z
x,y,1/2-z
-x,y,z
x,-y,1/2+z
1/2+x,1/2+y,z
1/2-x,1/2-y,1/2+z
1/2+x,1/2-y,-z
1/2-x,1/2+y,1/2-z
1/2-x,1/2-y,-z
1/2+x,1/2+y,1/2-z
1/2-x,1/2+y,z
1/2+x,1/2-y,1/2+z
loop_
_atom_site_type_symbol
_atom_site_label
_atom_site_fract_x
_atom_site_fract_y
_atom_site_fract_z
Si Si1 0.500000 0.935961 0.057026
Si Si2 0.889943 0.259232 0.555203
Si Si3 0.106022 0.869143 0.445845
Si Si4 0.191937 0.372637 0.943852
O O1 0.500000 0.932859 0.250000
O O2 0.597648 0.906733 0.994500
O O3 0.500000 0.000000 0.000000
O O4 0.875367 0.255554 0.750000
O O5 0.885830 0.195646 0.492615
O O6 0.822666 0.308621 0.489252
O O7 0.000000 0.278744 0.530001
O O8 0.104686 0.868235 0.250000
O O9 0.205642 0.897012 0.499529
O O10 0.000000 0.890540 0.498562
O O11 0.193328 0.369530 0.750000
#
# Coordination Sequence:
#
# PCOD9475454 Si02
#       4
#     8  16  16  16
#     4  12  26  44  64  86 110 140 186 238 293 348
#     4   8  14  27  48  75 112 153 190 228 273 326
#     4   9  18  32  51  78 116 159 197 230 269 325
#     4  11  20  34  57  82 113 148 187 236 288 336
#
# _framework density 20.584137999999999
#
# number of rings (size 3 to 8) (size 9 to 14) (size 15 to 20)
#    0.000    2.286    1.429    4.714    0.000    0.571 
#    0.000    1.429    0.000    0.857    0.000    0.000 
#    0.000    0.000    0.000    0.000    0.000    0.000 
#
# Total GULP energy -156105.972932 kJ/mol
# GULP energy per Si atom -5575.213319 kJ/mol
# Density = 2.053729 g / cm^3
# Si number density = 20.584138 Si / 1000 Ang^3
#
#
#
# Elastic Constant Matrix: (Units=GPa)
#
#
# Indices 1 2 3 4 5 6 
#
# 1 200.3051 28.9371 31.1018 0.0000 0.0000 0.0000
# 2 28.9371 22.7722 2.3982 0.0000 0.0000 0.0000
# 3 31.1018 2.3982 41.8813 0.0000 0.0000 0.0000
# 4 0.0000 0.0000 0.0000 14.5912 0.0000 0.0000
# 5 0.0000 0.0000 0.0000 0.0000 30.9313 0.0000
# 6 0.0000 0.0000 0.0000 0.0000 0.0000 8.9190
#
#
#
# Elastic Compliance Matrix: (Units=1/GPa)
#
#
# Indices 1 2 3 4 5 6 
#
# 1 0.006914 -0.008295 -0.004660 0.000000 0.000000 0.000000
# 2 -0.008295 0.054132 0.003061 0.000000 0.000000 0.000000
# 3 -0.004660 0.003061 0.027162 0.000000 0.000000 0.000000
# 4 0.000000 0.000000 0.000000 0.068534 0.000000 0.000000
# 5 0.000000 0.000000 0.000000 0.000000 0.032330 0.000000
# 6 0.000000 0.000000 0.000000 0.000000 0.000000 0.112121
#
#
# Mechanical properties :
#
#
# Convention : Reuss Voigt Hill
#
# Bulk Modulus (GPa) = 14.61575 43.31477 28.96526
# Shear Modulus (GPa) = 14.54383 24.38972 19.46677
#
# Velocity S-wave (km/s) = 2.66099 3.44594 3.07859
# Velocity P-wave (km/s) = 4.06904 6.07628 5.17099
#
# Compressibility (1/GPa) = 0.06841933
#
# Stress axis : x y z
#
# Youngs Moduli (GPa) = 144.62786 18.47337 36.81604
#
# Poissons Ratio (x) = 0.15324 0.17155
# Poissons Ratio (y) = 1.19975 -0.11268
# Poissons Ratio (z) = 0.67392 -0.05654
#
# Static dielectric constant tensor:
#      x y z
#    x 1.810420 0.000000 0.000000 
#    y 0.000000 1.739820 0.000000 
#    z 0.000000 0.000000 1.711920 
# 
# From -- ./inp_files/3008.got.cif
#   From: 2010.05.17/outbox.cif.g08.bks.cpg/sg63_2_cif.got.tgz:3008.got - 2010.06.03 15:47:04.
