data_PCOD9475683
_publ_section_title
;
Structure prediction by ZEFSAII (Michael W. Deem and Ramdas Pophale) SiO2 
 PCOD9475683
Probable space group: C M C M
;
_chemical_formula_sum "Si O2"
_cell_formula_units_Z 64
_cell_length_a 19.543830
_cell_length_b 8.117375
_cell_length_c 17.799339
_cell_angle_alpha 90.000000
_cell_angle_beta 90.000000
_cell_angle_gamma 90.000000
_cell_volume 2823.768963
_symmetry_space_group_name_H-M "C M C M"
_symmetry_group_IT_number 63
_symmetry_cell_setting 'orthorhombic'
loop_
_space_group_symop_operation_xyz
x,y,z
-x,-y,1/2+z
x,-y,-z
-x,y,1/2-z
-x,-y,-z
x,y,1/2-z
-x,y,z
x,-y,1/2+z
1/2+x,1/2+y,z
1/2-x,1/2-y,1/2+z
1/2+x,1/2-y,-z
1/2-x,1/2+y,1/2-z
1/2-x,1/2-y,-z
1/2+x,1/2+y,1/2-z
1/2-x,1/2+y,z
1/2+x,1/2-y,1/2+z
loop_
_atom_site_type_symbol
_atom_site_label
_atom_site_fract_x
_atom_site_fract_y
_atom_site_fract_z
Si Si1 0.724285 0.643933 0.166644
Si Si2 0.649659 0.693408 0.871909
Si Si3 0.350718 0.172811 0.534077
Si Si4 0.500000 0.615891 0.616510
Si Si5 0.500000 0.255048 0.944584
O O1 0.706706 0.704262 0.250000
O O2 0.690314 0.466698 0.155586
O O3 0.806376 0.653280 0.158047
O O4 0.694545 0.755548 0.100142
O O5 0.570829 0.677798 0.848460
O O6 0.650141 0.703901 0.962757
O O7 0.429007 0.157868 0.563215
O O8 0.326942 0.000000 0.500000
O O9 0.500000 0.682274 0.530772
O O10 0.500000 0.417116 0.608021
#
# Coordination Sequence:
#
# PCOD9475683 Si02
#       5
#    16  16  16   8   8
#     4  12  25  42  63  97 139 178 223 281 343 403
#     4  11  23  43  69  96 134 179 228 280 337 405
#     4  11  22  40  69 103 134 177 229 282 340 404
#     4   9  18  38  68  97 131 172 225 280 330 398
#     4   9  17  36  66 101 135 166 224 286 335 388
#
# _framework density 22.664746000000001
#
# number of rings (size 3 to 8) (size 9 to 14) (size 15 to 20)
#    0.000    1.250    2.500    4.125    0.000    0.000 
#    0.000    5.625    0.000    0.000    0.000   17.500 
#    0.000    0.000    0.000    0.000    0.000    0.000 
#
# Total GULP energy -178969.399687 kJ/mol
# GULP energy per Si atom -5592.793740 kJ/mol
# Density = 2.261316 g / cm^3
# Si number density = 22.664746 Si / 1000 Ang^3
#
#
#
# Elastic Constant Matrix: (Units=GPa)
#
#
# Indices 1 2 3 4 5 6 
#
# 1 173.4389 35.8787 35.9222 0.0000 0.0000 0.0000
# 2 35.8787 58.4993 15.4402 0.0000 0.0000 0.0000
# 3 35.9222 15.4402 110.8317 0.0000 0.0000 0.0000
# 4 0.0000 0.0000 0.0000 15.6768 0.0000 0.0000
# 5 0.0000 0.0000 0.0000 0.0000 -9.6386 0.0000
# 6 0.0000 0.0000 0.0000 0.0000 0.0000 38.3835
#
#
#
# Elastic Compliance Matrix: (Units=1/GPa)
#
#
# Indices 1 2 3 4 5 6 
#
# 1 0.006902 -0.003782 -0.001710 0.000000 0.000000 0.000000
# 2 -0.003782 0.019819 -0.001535 0.000000 0.000000 0.000000
# 3 -0.001710 -0.001535 0.009791 0.000000 0.000000 0.000000
# 4 0.000000 0.000000 0.000000 0.063789 0.000000 0.000000
# 5 0.000000 0.000000 0.000000 0.000000 -0.103749 0.000000
# 6 0.000000 0.000000 0.000000 0.000000 0.000000 0.026053
#
#
# Mechanical properties :
#
#
# Convention : Reuss Voigt Hill
#
# Bulk Modulus (GPa) = 44.52895 57.47245 51.00070
# Shear Modulus (GPa) = 113.26348 25.91960 69.59154
#
# Velocity S-wave (km/s) = 7.07686 3.38540 5.54720
# Velocity P-wave (km/s) = 9.29867 6.37918 7.97368
#
# Compressibility (1/GPa) = 0.02245730
#
# Stress axis : x y z
#
# Youngs Moduli (GPa) = 144.87939 50.45677 102.13577
#
# Poissons Ratio (x) = 0.19082 0.17468
# Poissons Ratio (y) = 0.54792 0.15680
# Poissons Ratio (z) = 0.24778 0.07746
#
# Static dielectric constant tensor:
#      x y z
#    x 1.879410 0.000000 0.000000 
#    y 0.000000 1.858530 0.000000 
#    z 0.000000 0.000000 1.822610 
# 
# From -- ./inp_files/46587.got.cif
#   From: 2010.05.17/outbox.cif.g08.bks.cpg/sg63_24_cif.got.tgz:46587.got - 2010.06.03 15:47:04.
