data_PCOD9475595
_publ_section_title
;
Structure prediction by ZEFSAII (Michael W. Deem and Ramdas Pophale) SiO2 
 PCOD9475595
Probable space group: C M C M
;
_chemical_formula_sum "Si O2"
_cell_formula_units_Z 64
_cell_length_a 8.079091
_cell_length_b 23.675820
_cell_length_c 18.050089
_cell_angle_alpha 90.000000
_cell_angle_beta 90.000000
_cell_angle_gamma 90.000000
_cell_volume 3452.604856
_symmetry_space_group_name_H-M "C M C M"
_symmetry_group_IT_number 63
_symmetry_cell_setting 'orthorhombic'
loop_
_space_group_symop_operation_xyz
x,y,z
-x,-y,1/2+z
x,-y,-z
-x,y,1/2-z
-x,-y,-z
x,y,1/2-z
-x,y,z
x,-y,1/2+z
1/2+x,1/2+y,z
1/2-x,1/2-y,1/2+z
1/2+x,1/2-y,-z
1/2-x,1/2+y,1/2-z
1/2-x,1/2-y,-z
1/2+x,1/2+y,1/2-z
1/2-x,1/2+y,z
1/2+x,1/2-y,1/2+z
loop_
_atom_site_type_symbol
_atom_site_label
_atom_site_fract_x
_atom_site_fract_y
_atom_site_fract_z
Si Si1 0.000000 0.928450 0.420288
Si Si2 0.188138 0.159650 0.834209
Si Si3 0.686702 0.873696 0.661814
Si Si4 0.311184 0.264427 0.581980
Si Si5 0.500000 0.561799 0.095708
O O1 0.842817 0.895800 0.384105
O O2 0.000000 0.922380 0.508540
O O3 0.000000 0.993953 0.399948
O O4 0.235687 0.146010 0.750000
O O5 0.298861 0.207116 0.870785
O O6 0.000000 0.184354 0.832336
O O7 0.705413 0.865332 0.750000
O O8 0.500000 0.895461 0.647808
O O9 0.708170 0.813885 0.620543
O O10 0.834637 0.913258 0.632988
O O11 0.500000 0.284313 0.578511
O O12 0.250000 0.250000 0.500000
#
# Coordination Sequence:
#
# PCOD9475595 Si02
#       5
#     8  16  16  16   8
#     4   9  21  39  63  91 121 165 210 257 308 373
#     4   9  19  36  57  81 116 159 200 244 303 364
#     4  11  24  40  61  92 127 163 207 260 313 369
#     4  12  23  36  58  89 127 161 205 255 308 375
#     4  11  21  41  67  91 125 163 216 257 312 373
#
# _framework density 18.536729000000001
#
# number of rings (size 3 to 8) (size 9 to 14) (size 15 to 20)
#    0.750    0.750    1.250    4.875    0.000    5.500 
#    0.000    3.750    0.000    0.000    0.000    0.000 
#    0.000    0.000    0.000    0.000    0.000    0.000 
#
# Total GULP energy -178500.127470 kJ/mol
# GULP energy per Si atom -5578.128983 kJ/mol
# Density = 1.849454 g / cm^3
# Si number density = 18.536729 Si / 1000 Ang^3
#
#
#
# Elastic Constant Matrix: (Units=GPa)
#
#
# Indices 1 2 3 4 5 6 
#
# 1 112.5853 39.5352 50.4557 0.0000 0.0000 0.0000
# 2 39.5352 84.3065 32.6768 0.0000 0.0000 0.0000
# 3 50.4557 32.6768 98.7924 0.0000 0.0000 0.0000
# 4 0.0000 0.0000 0.0000 -28.2391 0.0000 0.0000
# 5 0.0000 0.0000 0.0000 0.0000 23.7263 0.0000
# 6 0.0000 0.0000 0.0000 0.0000 0.0000 26.0647
#
#
#
# Elastic Compliance Matrix: (Units=1/GPa)
#
#
# Indices 1 2 3 4 5 6 
#
# 1 0.012545 -0.003899 -0.005117 0.000000 0.000000 0.000000
# 2 -0.003899 0.014818 -0.002910 0.000000 0.000000 0.000000
# 3 -0.005117 -0.002910 0.013698 0.000000 0.000000 0.000000
# 4 0.000000 0.000000 0.000000 -0.035412 0.000000 0.000000
# 5 0.000000 0.000000 0.000000 0.000000 0.042147 0.000000
# 6 0.000000 0.000000 0.000000 0.000000 0.000000 0.038366
#
#
# Mechanical properties :
#
#
# Convention : Reuss Voigt Hill
#
# Bulk Modulus (GPa) = 58.11161 60.11330 59.11245
# Shear Modulus (GPa) = 43.19633 15.84483 29.52058
#
# Velocity S-wave (km/s) = 4.83257 2.92683 3.99500
# Velocity P-wave (km/s) = 7.90922 6.62733 7.29648
#
# Compressibility (1/GPa) = 0.01720827
#
# Stress axis : x y z
#
# Youngs Moduli (GPa) = 79.71475 67.48606 73.00294
#
# Poissons Ratio (x) = 0.26316 0.37356
# Poissons Ratio (y) = 0.31084 0.21241
# Poissons Ratio (z) = 0.40791 0.19636
#
# Static dielectric constant tensor:
#      x y z
#    x 1.662290 0.000000 0.000000 
#    y 0.000000 1.642550 0.000000 
#    z 0.000000 0.000000 1.660600 
# 
# From -- ./inp_files/40127.got.cif
#   From: 2010.05.17/outbox.cif.g08.bks.cpg/sg63_21_cif.got.tgz:40127.got - 2010.06.03 15:47:04.
