data_PCOD9475888
_publ_section_title
;
Structure prediction by ZEFSAII (Michael W. Deem and Ramdas Pophale) SiO2 
 PCOD9475888
Probable space group: C M C M
;
_chemical_formula_sum "Si O2"
_cell_formula_units_Z 80
_cell_length_a 9.927636
_cell_length_b 16.534171
_cell_length_c 26.269868
_cell_angle_alpha 90.000000
_cell_angle_beta 90.000000
_cell_angle_gamma 90.000000
_cell_volume 4312.073558
_symmetry_space_group_name_H-M "C M C M"
_symmetry_group_IT_number 63
_symmetry_cell_setting 'orthorhombic'
loop_
_space_group_symop_operation_xyz
x,y,z
-x,-y,1/2+z
x,-y,-z
-x,y,1/2-z
-x,-y,-z
x,y,1/2-z
-x,y,z
x,-y,1/2+z
1/2+x,1/2+y,z
1/2-x,1/2-y,1/2+z
1/2+x,1/2-y,-z
1/2-x,1/2+y,1/2-z
1/2-x,1/2-y,-z
1/2+x,1/2+y,1/2-z
1/2-x,1/2+y,z
1/2+x,1/2-y,1/2+z
loop_
_atom_site_type_symbol
_atom_site_label
_atom_site_fract_x
_atom_site_fract_y
_atom_site_fract_z
Si Si1 0.222450 0.589343 0.076724
Si Si2 0.500000 0.557940 0.046920
Si Si3 0.000000 0.369648 0.378079
Si Si4 0.000000 0.198577 0.968874
Si Si5 0.000000 0.280014 0.691807
Si Si6 0.500000 0.959139 0.655850
Si Si7 0.776098 0.771878 0.388963
Si Si8 0.000000 0.613835 0.996770
O O1 0.363523 0.545313 0.076580
O O2 0.252073 0.683655 0.087213
O O3 0.133748 0.582616 0.025523
O O4 0.129866 0.556754 0.121226
O O5 0.500000 0.500000 0.000000
O O6 0.500000 0.644404 0.018736
O O7 0.861714 0.317704 0.375439
O O8 0.000000 0.401521 0.436911
O O9 0.000000 0.443659 0.337363
O O10 0.869498 0.185944 0.932462
O O11 0.000000 0.290755 0.988949
O O12 0.000000 0.379134 0.691478
O O13 0.127987 0.247145 0.659530
O O14 0.000000 0.252620 0.750000
#
# Coordination Sequence:
#
# PCOD9475888 Si02
#       8
#    16   8   8   8   8   8  16   8
#     4   9  19  35  44  71 108 150 199 210 245 302
#     4  12  23  25  42  70 108 154 191 222 237 285
#     4  12  20  29  53  86 113 133 169 225 271 281
#     4   9  18  34  44  72 104 146 198 214 250 294
#     4   9  19  44  66  75  94 134 169 202 273 361
#     4   9  22  35  54  78 108 142 170 217 274 318
#     4   9  19  34  58  77 101 137 174 224 263 311
#     4   9  18  30  54  63 103 155 182 222 245 296
#
# _framework density 18.55256
#
# number of rings (size 3 to 8) (size 9 to 14) (size 15 to 20)
#    0.000    2.400    0.000    5.400    5.600    4.000 
#    0.000    1.500    0.000    0.000    0.000    0.000 
#    0.000    0.000    0.000    0.000    0.000    0.000 
#
# Total GULP energy -222980.756189 kJ/mol
# GULP energy per Si atom -5574.518905 kJ/mol
# Density = 1.851033 g / cm^3
# Si number density = 18.552560 Si / 1000 Ang^3
#
#
#
# Elastic Constant Matrix: (Units=GPa)
#
#
# Indices 1 2 3 4 5 6 
#
# 1 133.3566 21.3285 15.7044 0.0000 0.0000 0.0000
# 2 21.3285 63.2908 -6.9319 0.0000 0.0000 0.0000
# 3 15.7044 -6.9319 65.9939 0.0000 0.0000 0.0000
# 4 0.0000 0.0000 0.0000 10.8198 0.0000 0.0000
# 5 0.0000 0.0000 0.0000 0.0000 4.1097 0.0000
# 6 0.0000 0.0000 0.0000 0.0000 0.0000 -49.6813
#
#
#
# Elastic Compliance Matrix: (Units=1/GPa)
#
#
# Indices 1 2 3 4 5 6 
#
# 1 0.008252 -0.003031 -0.002282 0.000000 0.000000 0.000000
# 2 -0.003031 0.017097 0.002517 0.000000 0.000000 0.000000
# 3 -0.002282 0.002517 0.015960 0.000000 0.000000 0.000000
# 4 0.000000 0.000000 0.000000 0.092424 0.000000 0.000000
# 5 0.000000 0.000000 0.000000 0.000000 0.243329 0.000000
# 6 0.000000 0.000000 0.000000 0.000000 0.000000 -0.020128
#
#
# Mechanical properties :
#
#
# Convention : Reuss Voigt Hill
#
# Bulk Modulus (GPa) = 27.99710 35.87148 31.93429
# Shear Modulus (GPa) = 13.35356 8.55232 10.95294
#
# Velocity S-wave (km/s) = 2.68576 2.14937 2.43240
# Velocity P-wave (km/s) = 4.97405 5.05339 5.01388
#
# Compressibility (1/GPa) = 0.03571798
#
# Stress axis : x y z
#
# Youngs Moduli (GPa) = 121.18011 58.48933 62.65511
#
# Poissons Ratio (x) = 0.17727 0.14299
# Poissons Ratio (y) = 0.36728 -0.15771
# Poissons Ratio (z) = 0.27655 -0.14722
#
# Static dielectric constant tensor:
#      x y z
#    x 1.648840 0.000000 0.000000 
#    y 0.000000 1.680900 0.000000 
#    z 0.000000 0.000000 1.608140 
# 
# From -- ./inp_files/66753.got.cif
#   From: 2010.05.17/outbox.cif.g08.bks.cpg/sg63_34_cif.got.tgz:66753.got - 2010.06.03 15:47:04.
