data_PCOD9475536
_publ_section_title
;
Structure prediction by ZEFSAII (Michael W. Deem and Ramdas Pophale) SiO2 
 PCOD9475536
Probable space group: C M C M
;
_chemical_formula_sum "Si O2"
_cell_formula_units_Z 96
_cell_length_a 11.395854
_cell_length_b 19.585882
_cell_length_c 22.827486
_cell_angle_alpha 90.000000
_cell_angle_beta 90.000000
_cell_angle_gamma 90.000000
_cell_volume 5095.045836
_symmetry_space_group_name_H-M "C M C M"
_symmetry_group_IT_number 63
_symmetry_cell_setting 'orthorhombic'
loop_
_space_group_symop_operation_xyz
x,y,z
-x,-y,1/2+z
x,-y,-z
-x,y,1/2-z
-x,-y,-z
x,y,1/2-z
-x,y,z
x,-y,1/2+z
1/2+x,1/2+y,z
1/2-x,1/2-y,1/2+z
1/2+x,1/2-y,-z
1/2-x,1/2+y,1/2-z
1/2-x,1/2-y,-z
1/2+x,1/2+y,1/2-z
1/2-x,1/2+y,z
1/2+x,1/2-y,1/2+z
loop_
_atom_site_type_symbol
_atom_site_label
_atom_site_fract_x
_atom_site_fract_y
_atom_site_fract_z
Si Si1 0.361992 0.109047 0.145166
Si Si2 0.772928 0.235075 0.180891
Si Si3 0.861933 0.642908 0.606647
Si Si4 0.759424 0.529870 0.817385
Si Si5 0.857839 0.577379 0.487927
Si Si6 0.000000 0.854223 0.679532
Si Si7 0.500000 0.508847 0.821320
O O1 0.500000 0.093961 0.150974
O O2 0.334405 0.184391 0.168501
O O3 0.327303 0.102218 0.076860
O O4 0.289548 0.050383 0.178577
O O5 0.778634 0.252414 0.250000
O O6 0.785095 0.301724 0.141124
O O7 0.885053 0.188309 0.164598
O O8 0.845648 0.571710 0.641187
O O9 0.822683 0.627785 0.540338
O O10 0.000000 0.662024 0.607940
O O11 0.772019 0.551761 0.750000
O O12 0.624758 0.541223 0.837351
O O13 0.815515 0.500000 0.500000
O O14 0.000000 0.574869 0.490631
O O15 0.000000 0.930934 0.656205
O O16 0.000000 0.860155 0.750000
O O17 0.500000 0.507271 0.750000
#
# Coordination Sequence:
#
# PCOD9475536 Si02
#       7
#    16  16  16  16  16   8   8
#     4  11  22  37  59  85 116 153 196 238 283 346
#     4  11  22  36  56  84 118 151 185 237 293 342
#     4  11  22  37  60  86 113 149 196 245 291 340
#     4  11  21  34  57  86 114 148 191 241 293 345
#     4   9  18  36  59  84 114 151 191 240 295 336
#     4   9  16  32  54  75 106 143 181 226 279 340
#     4   9  18  34  54  78 110 148 190 226 277 352
#
# _framework density 18.841832
#
# number of rings (size 3 to 8) (size 9 to 14) (size 15 to 20)
#    0.000    1.667    4.167    1.500    0.000    3.667 
#    1.500    0.000    0.000    3.000    0.000    0.000 
#    0.000    0.000    0.000    0.000    0.000    0.000 
#
# Total GULP energy -267793.906634 kJ/mol
# GULP energy per Si atom -5579.039722 kJ/mol
# Density = 1.879895 g / cm^3
# Si number density = 18.841832 Si / 1000 Ang^3
#
#
#
# Elastic Constant Matrix: (Units=GPa)
#
#
# Indices 1 2 3 4 5 6 
#
# 1 50.6947 -7.8297 4.3638 0.0000 0.0000 0.0000
# 2 -7.8297 44.4181 -1.3550 0.0000 0.0000 0.0000
# 3 4.3638 -1.3550 62.3350 0.0000 0.0000 0.0000
# 4 0.0000 0.0000 0.0000 30.4238 0.0000 0.0000
# 5 0.0000 0.0000 0.0000 0.0000 15.0977 0.0000
# 6 0.0000 0.0000 0.0000 0.0000 0.0000 24.0659
#
#
#
# Elastic Compliance Matrix: (Units=1/GPa)
#
#
# Indices 1 2 3 4 5 6 
#
# 1 0.020391 0.003553 -0.001350 0.000000 0.000000 0.000000
# 2 0.003553 0.023147 0.000254 0.000000 0.000000 0.000000
# 3 -0.001350 0.000254 0.016142 0.000000 0.000000 0.000000
# 4 0.000000 0.000000 0.000000 0.032869 0.000000 0.000000
# 5 0.000000 0.000000 0.000000 0.000000 0.066235 0.000000
# 6 0.000000 0.000000 0.000000 0.000000 0.000000 0.041553
#
#
# Mechanical properties :
#
#
# Convention : Reuss Voigt Hill
#
# Bulk Modulus (GPa) = 15.48094 16.42287 15.95191
# Shear Modulus (GPa) = 23.04629 24.73539 23.89084
#
# Velocity S-wave (km/s) = 3.50114 3.62718 3.56472
# Velocity P-wave (km/s) = 4.95763 5.12611 5.04257
#
# Compressibility (1/GPa) = 0.06459556
#
# Stress axis : x y z
#
# Youngs Moduli (GPa) = 49.04139 43.20129 61.94859
#
# Poissons Ratio (x) = -0.15350 0.08365
# Poissons Ratio (y) = -0.17425 -0.01576
# Poissons Ratio (z) = 0.06622 -0.01099
#
# Static dielectric constant tensor:
#      x y z
#    x 1.655820 0.000000 0.000000 
#    y 0.000000 1.649890 0.000000 
#    z 0.000000 0.000000 1.649730 
# 
# From -- ./inp_files/52938.got.cif
#   From: 2010.05.17/outbox.cif.g08.bks.cpg/sg63_27_cif.got.tgz:52938.got - 2010.06.03 15:47:04.
