data_PCOD9475587
_publ_section_title
;
Structure prediction by ZEFSAII (Michael W. Deem and Ramdas Pophale) SiO2 
 PCOD9475587
Probable space group: C M C M
;
_chemical_formula_sum "Si O2"
_cell_formula_units_Z 112
_cell_length_a 31.199992
_cell_length_b 11.524109
_cell_length_c 14.943901
_cell_angle_alpha 90.000000
_cell_angle_beta 90.000000
_cell_angle_gamma 90.000000
_cell_volume 5373.111115
_symmetry_space_group_name_H-M "C M C M"
_symmetry_group_IT_number 63
_symmetry_cell_setting 'orthorhombic'
loop_
_space_group_symop_operation_xyz
x,y,z
-x,-y,1/2+z
x,-y,-z
-x,y,1/2-z
-x,-y,-z
x,y,1/2-z
-x,y,z
x,-y,1/2+z
1/2+x,1/2+y,z
1/2-x,1/2-y,1/2+z
1/2+x,1/2-y,-z
1/2-x,1/2+y,1/2-z
1/2-x,1/2-y,-z
1/2+x,1/2+y,1/2-z
1/2-x,1/2+y,z
1/2+x,1/2-y,1/2+z
loop_
_atom_site_type_symbol
_atom_site_label
_atom_site_fract_x
_atom_site_fract_y
_atom_site_fract_z
Si Si1 0.424779 0.624748 0.981281
Si Si2 0.452814 0.173054 0.147602
Si Si3 0.655432 0.375010 0.149939
Si Si4 0.875364 0.229644 0.145725
Si Si5 0.293890 0.850938 0.853648
Si Si6 0.797741 0.919861 0.912901
Si Si7 0.624965 0.998905 0.392880
O O1 0.448435 0.723635 0.924246
O O2 0.383192 0.600355 0.917857
O O3 0.445841 0.500000 0.000000
O O4 0.409477 0.675137 0.076703
O O5 0.450911 0.217149 0.250000
O O6 0.500000 0.117938 0.135822
O O7 0.414007 0.082701 0.135721
O O8 0.639527 0.344964 0.250000
O O9 0.682546 0.265807 0.114862
O O10 0.686547 0.484250 0.157503
O O11 0.879333 0.193018 0.250000
O O12 0.829799 0.186768 0.105098
O O13 0.879687 0.368079 0.140520
O O14 0.281641 0.833523 0.750000
O O15 0.251013 0.880850 0.905886
O O16 0.329997 0.949181 0.860126
O O17 0.803550 0.000000 0.000000
O O18 0.625693 0.000000 0.500000
#
# Coordination Sequence:
#
# PCOD9475587 Si02
#       7
#    16  16  16  16  16  16  16
#     4  12  23  43  69 101 137 176 227 276 338 406
#     4  11  25  48  78 107 136 175 224 277 340 419
#     4  11  21  39  64  89 131 183 232 281 335 400
#     4  12  24  41  64  97 139 183 227 279 339 401
#     4  11  24  39  61  93 131 182 236 288 335 396
#     4  12  25  41  60  93 138 183 242 284 342 397
#     4  12  24  44  70  99 136 177 228 282 349 411
#
# _framework density 20.844535
#
# number of rings (size 3 to 8) (size 9 to 14) (size 15 to 20)
#    0.000    0.429    5.714    3.429    2.000    1.714 
#    0.000    0.000    0.000    0.429    0.000    0.000 
#    0.000    0.000    0.000    0.000    0.000    0.000 
#
# Total GULP energy -312889.737799 kJ/mol
# GULP energy per Si atom -5587.316746 kJ/mol
# Density = 2.079709 g / cm^3
# Si number density = 20.844535 Si / 1000 Ang^3
#
#
#
# Elastic Constant Matrix: (Units=GPa)
#
#
# Indices 1 2 3 4 5 6 
#
# 1 85.2302 27.5757 25.5302 0.0000 0.0000 0.0000
# 2 27.5757 120.7141 20.9733 0.0000 0.0000 0.0000
# 3 25.5302 20.9733 142.7675 0.0000 0.0000 0.0000
# 4 0.0000 0.0000 0.0000 -41.5240 0.0000 0.0000
# 5 0.0000 0.0000 0.0000 0.0000 17.8771 0.0000
# 6 0.0000 0.0000 0.0000 0.0000 0.0000 5.1750
#
#
#
# Elastic Compliance Matrix: (Units=1/GPa)
#
#
# Indices 1 2 3 4 5 6 
#
# 1 0.013186 -0.002671 -0.001966 0.000000 0.000000 0.000000
# 2 -0.002671 0.009042 -0.000851 0.000000 0.000000 0.000000
# 3 -0.001966 -0.000851 0.007481 0.000000 0.000000 0.000000
# 4 0.000000 0.000000 0.000000 -0.024082 0.000000 0.000000
# 5 0.000000 0.000000 0.000000 0.000000 0.055937 0.000000
# 6 0.000000 0.000000 0.000000 0.000000 0.000000 0.193236
#
#
# Mechanical properties :
#
#
# Convention : Reuss Voigt Hill
#
# Bulk Modulus (GPa) = 53.37703 55.20780 54.29241
# Shear Modulus (GPa) = 18.38109 14.61446 16.49777
#
# Velocity S-wave (km/s) = 2.97276 2.65073 2.81636
# Velocity P-wave (km/s) = 6.11931 5.99262 6.05629
#
# Compressibility (1/GPa) = 0.01873465
#
# Stress axis : x y z
#
# Youngs Moduli (GPa) = 75.83932 110.59606 133.67431
#
# Poissons Ratio (x) = 0.29536 0.26275
# Poissons Ratio (y) = 0.20254 0.11372
# Poissons Ratio (z) = 0.14907 0.09409
#
# Static dielectric constant tensor:
#      x y z
#    x 1.718810 0.000000 0.000000 
#    y 0.000000 1.749940 0.000000 
#    z 0.000000 0.000000 1.820760 
# 
# From -- ./inp_files/38589.got.cif
#   From: 2010.05.17/outbox.cif.g08.bks.cpg/sg63_20_cif.got.tgz:38589.got - 2010.06.03 15:47:04.
