data_PCOD9475383
_publ_section_title
;
Structure prediction by ZEFSAII (Michael W. Deem and Ramdas Pophale) SiO2 
 PCOD9475383
Probable space group: C M C M
;
_chemical_formula_sum "Si O2"
_cell_formula_units_Z 112
_cell_length_a 25.020698
_cell_length_b 13.005900
_cell_length_c 22.451566
_cell_angle_alpha 90.000000
_cell_angle_beta 90.000000
_cell_angle_gamma 90.000000
_cell_volume 7306.114430
_symmetry_space_group_name_H-M "C M C M"
_symmetry_group_IT_number 63
_symmetry_cell_setting 'orthorhombic'
loop_
_space_group_symop_operation_xyz
x,y,z
-x,-y,1/2+z
x,-y,-z
-x,y,1/2-z
-x,-y,-z
x,y,1/2-z
-x,y,z
x,-y,1/2+z
1/2+x,1/2+y,z
1/2-x,1/2-y,1/2+z
1/2+x,1/2-y,-z
1/2-x,1/2+y,1/2-z
1/2-x,1/2-y,-z
1/2+x,1/2+y,1/2-z
1/2-x,1/2+y,z
1/2+x,1/2-y,1/2+z
loop_
_atom_site_type_symbol
_atom_site_label
_atom_site_fract_x
_atom_site_fract_y
_atom_site_fract_z
Si Si1 0.187752 0.728136 0.488635
Si Si2 0.829486 0.946062 0.437830
Si Si3 0.232827 0.817643 0.816723
Si Si4 0.340310 0.831968 0.383848
Si Si5 0.939657 0.234449 0.179356
Si Si6 0.371999 0.536850 0.317300
Si Si7 0.788303 0.457909 0.909865
O O1 0.250000 0.750000 0.500000
O O2 0.169370 0.824120 0.449299
O O3 0.159515 0.724523 0.552383
O O4 0.186875 0.615525 0.459954
O O5 0.848099 0.000000 0.500000
O O6 0.861472 0.971445 0.377038
O O7 0.768606 0.989938 0.428634
O O8 0.251612 0.796876 0.750000
O O9 0.210163 0.715961 0.848113
O O10 0.180557 0.890574 0.814008
O O11 0.274568 0.879452 0.856470
O O12 0.394991 0.804815 0.351116
O O13 0.327704 0.951061 0.392371
O O14 0.938153 0.254792 0.250000
O O15 0.920553 0.116160 0.172443
O O16 0.000000 0.249608 0.157651
O O17 0.377282 0.490083 0.250000
#
# Coordination Sequence:
#
# PCOD9475383 Si02
#       7
#    16  16  16  16  16  16  16
#     4  12  19  30  45  68  98 135 176 205 233 300
#     4  11  17  27  47  69  98 133 170 204 244 297
#     4   9  17  28  41  63  94 124 155 194 242 296
#     4  11  19  30  49  68  98 130 165 208 251 295
#     4   9  18  34  55  77  97 122 166 217 259 301
#     4   8  16  29  46  68  94 124 157 201 260 306
#     4  11  19  29  43  67  96 133 168 198 237 296
#
# _framework density 15.329625999999999
#
# number of rings (size 3 to 8) (size 9 to 14) (size 15 to 20)
#    0.000    1.857    4.286    3.429    0.000    1.143 
#    0.000    3.571    0.000    5.571    0.000    0.000 
#    0.000    2.286    0.000    0.000    0.000    0.000 
#
# Total GULP energy -311945.174442 kJ/mol
# GULP energy per Si atom -5570.449544 kJ/mol
# Density = 1.529474 g / cm^3
# Si number density = 15.329626 Si / 1000 Ang^3
#
#
#
# Elastic Constant Matrix: (Units=GPa)
#
#
# Indices 1 2 3 4 5 6 
#
# 1 56.9002 25.5156 32.1284 0.0000 0.0000 0.0000
# 2 25.5156 71.6590 34.4994 0.0000 0.0000 0.0000
# 3 32.1284 34.4994 95.8074 0.0000 0.0000 0.0000
# 4 0.0000 0.0000 0.0000 18.8451 0.0000 0.0000
# 5 0.0000 0.0000 0.0000 0.0000 14.1774 0.0000
# 6 0.0000 0.0000 0.0000 0.0000 0.0000 7.9814
#
#
#
# Elastic Compliance Matrix: (Units=1/GPa)
#
#
# Indices 1 2 3 4 5 6 
#
# 1 0.023341 -0.005495 -0.005848 0.000000 0.000000 0.000000
# 2 -0.005495 0.018175 -0.004702 0.000000 0.000000 0.000000
# 3 -0.005848 -0.004702 0.014092 0.000000 0.000000 0.000000
# 4 0.000000 0.000000 0.000000 0.053064 0.000000 0.000000
# 5 0.000000 0.000000 0.000000 0.000000 0.070535 0.000000
# 6 0.000000 0.000000 0.000000 0.000000 0.000000 0.125291
#
#
# Mechanical properties :
#
#
# Convention : Reuss Voigt Hill
#
# Bulk Modulus (GPa) = 42.52255 45.40594 43.96424
# Shear Modulus (GPa) = 14.51677 17.01567 15.76622
#
# Velocity S-wave (km/s) = 3.08063 3.33526 3.21047
# Velocity P-wave (km/s) = 6.36025 6.67203 6.51800
#
# Compressibility (1/GPa) = 0.02351693
#
# Stress axis : x y z
#
# Youngs Moduli (GPa) = 42.84263 55.01929 70.96226
#
# Poissons Ratio (x) = 0.30235 0.41502
# Poissons Ratio (y) = 0.23544 0.33366
# Poissons Ratio (z) = 0.25056 0.25870
#
# Static dielectric constant tensor:
#      x y z
#    x 1.486120 0.000000 0.000000 
#    y 0.000000 1.535360 0.000000 
#    z 0.000000 0.000000 1.565690 
# 
# From -- ./inp_files/65117.got.cif
#   From: 2010.05.17/outbox.cif.g08.bks.cpg/sg63_33_cif.got.tgz:65117.got - 2010.06.03 15:47:04.
