data_PCOD9475479
_publ_section_title
;
Structure prediction by ZEFSAII (Michael W. Deem and Ramdas Pophale) SiO2 
 PCOD9475479
Probable space group: C M C M
;
_chemical_formula_sum "Si O2"
_cell_formula_units_Z 64
_cell_length_a 15.651001
_cell_length_b 11.595277
_cell_length_c 18.894892
_cell_angle_alpha 90.000000
_cell_angle_beta 90.000000
_cell_angle_gamma 90.000000
_cell_volume 3429.001389
_symmetry_space_group_name_H-M "C M C M"
_symmetry_group_IT_number 63
_symmetry_cell_setting 'orthorhombic'
loop_
_space_group_symop_operation_xyz
x,y,z
-x,-y,1/2+z
x,-y,-z
-x,y,1/2-z
-x,-y,-z
x,y,1/2-z
-x,y,z
x,-y,1/2+z
1/2+x,1/2+y,z
1/2-x,1/2-y,1/2+z
1/2+x,1/2-y,-z
1/2-x,1/2+y,1/2-z
1/2-x,1/2-y,-z
1/2+x,1/2+y,1/2-z
1/2-x,1/2+y,z
1/2+x,1/2-y,1/2+z
loop_
_atom_site_type_symbol
_atom_site_label
_atom_site_fract_x
_atom_site_fract_y
_atom_site_fract_z
Si Si1 0.342997 0.067260 0.923828
Si Si2 0.151427 0.056708 0.896475
Si Si3 0.000000 0.800287 0.168008
Si Si4 0.500000 0.962034 0.663218
Si Si5 0.398612 0.325103 0.957134
O O1 0.252277 0.055115 0.884358
O O2 0.360251 0.201611 0.939614
O O3 0.417491 0.019945 0.873164
O O4 0.341489 0.000000 0.000000
O O5 0.085131 0.129129 0.850495
O O6 0.119116 0.925075 0.900153
O O7 0.141483 0.120169 0.972423
O O8 0.000000 0.671393 0.137118
O O9 0.000000 0.780023 0.250000
O O10 0.500000 0.971880 0.750000
O O11 0.500000 0.314366 0.968053
#
# Coordination Sequence:
#
# PCOD9475479 Si02
#       5
#    16  16   8   8  16
#     4  12  24  39  66  97 124 163 212 258 313 370
#     4  11  22  38  63  93 128 152 201 266 315 366
#     4  11  24  43  65  87 121 171 213 250 310 385
#     4  11  27  46  61  86 130 172 207 253 310 376
#     4  11  20  38  61  95 124 157 195 261 323 350
#
# _framework density 18.664325000000002
#
# number of rings (size 3 to 8) (size 9 to 14) (size 15 to 20)
#    0.000    0.750    6.250    3.375    3.500    1.000 
#    0.000    2.500    0.000    0.000    0.000    0.000 
#    0.000    0.000    0.000    0.000    0.000    0.000 
#
# Total GULP energy -178590.109262 kJ/mol
# GULP energy per Si atom -5580.940914 kJ/mol
# Density = 1.862184 g / cm^3
# Si number density = 18.664325 Si / 1000 Ang^3
#
#
#
# Elastic Constant Matrix: (Units=GPa)
#
#
# Indices 1 2 3 4 5 6 
#
# 1 151.0664 29.7071 25.3317 0.0000 0.0000 0.0000
# 2 29.7071 159.3764 23.6711 0.0000 0.0000 0.0000
# 3 25.3317 23.6711 34.7763 0.0000 0.0000 0.0000
# 4 0.0000 0.0000 0.0000 16.8004 0.0000 0.0000
# 5 0.0000 0.0000 0.0000 0.0000 -85.7379 0.0000
# 6 0.0000 0.0000 0.0000 0.0000 0.0000 23.3727
#
#
#
# Elastic Compliance Matrix: (Units=1/GPa)
#
#
# Indices 1 2 3 4 5 6 
#
# 1 0.007603 -0.000661 -0.005088 0.000000 0.000000 0.000000
# 2 -0.000661 0.007038 -0.004308 0.000000 0.000000 0.000000
# 3 -0.005088 -0.004308 0.035394 0.000000 0.000000 0.000000
# 4 0.000000 0.000000 0.000000 0.059522 0.000000 0.000000
# 5 0.000000 0.000000 0.000000 0.000000 -0.011663 0.000000
# 6 0.000000 0.000000 0.000000 0.000000 0.000000 0.042785
#
#
# Mechanical properties :
#
#
# Convention : Reuss Voigt Hill
#
# Bulk Modulus (GPa) = 33.42373 55.84878 44.63625
# Shear Modulus (GPa) = 29.27968 8.65431 18.96700
#
# Velocity S-wave (km/s) = 3.96504 2.15566 3.19127
# Velocity P-wave (km/s) = 6.23769 6.01528 6.12749
#
# Compressibility (1/GPa) = 0.02991887
#
# Stress axis : x y z
#
# Youngs Moduli (GPa) = 131.52981 142.09261 28.25347
#
# Poissons Ratio (x) = 0.09399 0.14375
# Poissons Ratio (y) = 0.08700 0.12173
# Poissons Ratio (z) = 0.66920 0.61220
#
# Static dielectric constant tensor:
#      x y z
#    x 1.706840 0.000000 0.000000 
#    y 0.000000 1.683370 0.000000 
#    z 0.000000 0.000000 1.647810 
# 
# From -- ./inp_files/43494.got.cif
#   From: 2010.05.17/outbox.cif.g08.bks.cpg/sg63_22_cif.got.tgz:43494.got - 2010.06.03 15:47:04.
