data_PCOD9475763
_publ_section_title
;
Structure prediction by ZEFSAII (Michael W. Deem and Ramdas Pophale) SiO2 
 PCOD9475763
Probable space group: C M C M
;
_chemical_formula_sum "Si O2"
_cell_formula_units_Z 64
_cell_length_a 9.700214
_cell_length_b 27.401535
_cell_length_c 12.528430
_cell_angle_alpha 90.000000
_cell_angle_beta 90.000000
_cell_angle_gamma 90.000000
_cell_volume 3330.066133
_symmetry_space_group_name_H-M "C M C M"
_symmetry_group_IT_number 63
_symmetry_cell_setting 'orthorhombic'
loop_
_space_group_symop_operation_xyz
x,y,z
-x,-y,1/2+z
x,-y,-z
-x,y,1/2-z
-x,-y,-z
x,y,1/2-z
-x,y,z
x,-y,1/2+z
1/2+x,1/2+y,z
1/2-x,1/2-y,1/2+z
1/2+x,1/2-y,-z
1/2-x,1/2+y,1/2-z
1/2-x,1/2-y,-z
1/2+x,1/2+y,1/2-z
1/2-x,1/2+y,z
1/2+x,1/2-y,1/2+z
loop_
_atom_site_type_symbol
_atom_site_label
_atom_site_fract_x
_atom_site_fract_y
_atom_site_fract_z
Si Si1 0.716918 0.354211 0.472238
Si Si2 0.500000 0.698691 0.376568
Si Si3 0.853330 0.103639 0.750000
Si Si4 0.500000 0.184147 0.623082
Si Si5 0.663594 0.009482 0.750000
Si Si6 0.155368 0.956114 0.581099
O O1 0.630542 0.320708 0.554290
O O2 0.652008 0.363322 0.355156
O O3 0.709891 0.407413 0.525692
O O4 0.867073 0.334698 0.441359
O O5 0.500000 0.683058 0.250000
O O6 0.500000 0.757204 0.376116
O O7 0.733644 0.063161 0.750000
O O8 0.000000 0.075779 0.750000
O O9 0.500000 0.168517 0.750000
O O10 0.500000 0.013583 0.750000
O O11 0.726305 0.977903 0.845378
O O12 0.000000 0.945900 0.625784
O O13 0.135771 0.000000 0.500000
#
# Coordination Sequence:
#
# PCOD9475763 Si02
#       6
#    16   8   8   8   8  16
#     4  12  24  43  74 102 136 185 235 286 350 420
#     4  11  26  49  70 103 139 187 239 295 352 422
#     4  12  22  42  70 103 136 180 239 284 341 412
#     4  11  26  46  73 104 146 178 227 306 367 408
#     4  12  28  40  62  99 144 182 229 282 353 416
#     4  11  23  41  65  94 135 183 228 280 334 416
#
# _framework density 19.218837000000001
#
# number of rings (size 3 to 8) (size 9 to 14) (size 15 to 20)
#    0.000    0.500    6.250    1.875    5.250    0.500 
#    0.000    0.625    0.000    0.000    0.000    0.000 
#    0.000    0.000    0.000    0.000    0.000    0.000 
#
# Total GULP energy -178453.159640 kJ/mol
# GULP energy per Si atom -5576.661239 kJ/mol
# Density = 1.917509 g / cm^3
# Si number density = 19.218837 Si / 1000 Ang^3
#
#
#
# Elastic Constant Matrix: (Units=GPa)
#
#
# Indices 1 2 3 4 5 6 
#
# 1 211.3353 69.6572 93.8306 0.0000 0.0000 0.0000
# 2 69.6572 107.8881 49.2784 0.0000 0.0000 0.0000
# 3 93.8306 49.2784 139.0937 0.0000 0.0000 0.0000
# 4 0.0000 0.0000 0.0000 6.8151 0.0000 0.0000
# 5 0.0000 0.0000 0.0000 0.0000 30.2945 0.0000
# 6 0.0000 0.0000 0.0000 0.0000 0.0000 -63.9787
#
#
#
# Elastic Compliance Matrix: (Units=1/GPa)
#
#
# Indices 1 2 3 4 5 6 
#
# 1 0.007498 -0.003019 -0.003988 0.000000 0.000000 0.000000
# 2 -0.003019 0.012274 -0.002312 0.000000 0.000000 0.000000
# 3 -0.003988 -0.002312 0.010699 0.000000 0.000000 0.000000
# 4 0.000000 0.000000 0.000000 0.146734 0.000000 0.000000
# 5 0.000000 0.000000 0.000000 0.000000 0.033009 0.000000
# 6 0.000000 0.000000 0.000000 0.000000 0.000000 -0.015630
#
#
# Mechanical properties :
#
#
# Convention : Reuss Voigt Hill
#
# Bulk Modulus (GPa) = 84.51483 98.20551 91.36017
# Shear Modulus (GPa) = 23.02388 10.99623 17.01005
#
# Velocity S-wave (km/s) = 3.46495 2.39458 2.97824
# Velocity P-wave (km/s) = 7.75102 7.67169 7.71146
#
# Compressibility (1/GPa) = 0.01183224
#
# Stress axis : x y z
#
# Youngs Moduli (GPa) = 133.37488 81.47230 93.46860
#
# Poissons Ratio (x) = 0.24598 0.37277
# Poissons Ratio (y) = 0.40269 0.21608
# Poissons Ratio (z) = 0.53192 0.18835
#
# Static dielectric constant tensor:
#      x y z
#    x 1.690250 0.000000 0.000000 
#    y 0.000000 1.605460 0.000000 
#    z 0.000000 0.000000 1.781260 
# 
# From -- ./inp_files/16296.got.cif
#   From: 2010.05.17/outbox.cif.g08.bks.cpg/sg63_9_cif.got.tgz:16296.got - 2010.06.03 15:47:04.
