data_PCOD9475978
_publ_section_title
;
Structure prediction by ZEFSAII (Michael W. Deem and Ramdas Pophale) SiO2 
 PCOD9475978
Probable space group: C M C M
;
_chemical_formula_sum "Si O2"
_cell_formula_units_Z 96
_cell_length_a 19.648427
_cell_length_b 33.565923
_cell_length_c 7.404962
_cell_angle_alpha 90.000000
_cell_angle_beta 90.000000
_cell_angle_gamma 90.000000
_cell_volume 4883.702676
_symmetry_space_group_name_H-M "C M C M"
_symmetry_group_IT_number 63
_symmetry_cell_setting 'orthorhombic'
loop_
_space_group_symop_operation_xyz
x,y,z
-x,-y,1/2+z
x,-y,-z
-x,y,1/2-z
-x,-y,-z
x,y,1/2-z
-x,y,z
x,-y,1/2+z
1/2+x,1/2+y,z
1/2-x,1/2-y,1/2+z
1/2+x,1/2-y,-z
1/2-x,1/2+y,1/2-z
1/2-x,1/2-y,-z
1/2+x,1/2+y,1/2-z
1/2-x,1/2+y,z
1/2+x,1/2-y,1/2+z
loop_
_atom_site_type_symbol
_atom_site_label
_atom_site_fract_x
_atom_site_fract_y
_atom_site_fract_z
Si Si1 0.076443 0.836009 0.536976
Si Si2 0.845528 0.332837 0.969567
Si Si3 0.922196 0.744535 0.467703
Si Si4 0.210597 0.122746 0.028974
Si Si5 0.711152 0.045515 0.034862
Si Si6 0.576408 0.087484 0.470068
O O1 0.071882 0.844404 0.750000
O O2 0.096081 0.789537 0.518658
O O3 0.137041 0.863210 0.463993
O O4 0.000000 0.840802 0.461084
O O5 0.845005 0.332107 0.750000
O O6 0.872358 0.290204 0.032505
O O7 0.770352 0.346577 0.025571
O O8 0.897267 0.368384 0.020412
O O9 0.922738 0.742956 0.250000
O O10 0.000000 0.737188 0.528743
O O11 0.209107 0.123051 0.250000
O O12 0.236048 0.079098 0.970090
O O13 0.708671 0.050490 0.250000
O O14 0.635420 0.057231 0.968591
O O15 0.728780 0.000000 0.000000
O O16 0.574846 0.086485 0.250000
O O17 0.500000 0.079472 0.533135
#
# Coordination Sequence:
#
# PCOD9475978 Si02
#       6
#    16  16  16  16  16  16
#     4   9  17  29  44  60  79 106 137 166 199 240
#     4   8  13  22  38  59  82 109 140 170 195 222
#     4   9  16  25  39  61  86 109 135 168 201 229
#     4   8  15  28  44  61  80 104 136 168 196 234
#     4   9  17  29  45  63  82 104 130 163 202 241
#     4   8  13  22  38  60  83 108 139 168 191 223
#
# _framework density 19.657216999999999
#
# number of rings (size 3 to 8) (size 9 to 14) (size 15 to 20)
#    0.000    3.500    0.000    2.500    0.000    3.000 
#    0.000    0.833    0.000    4.500    0.000    0.000 
#    0.000    0.000    0.000    0.000    0.000    0.000 
#
# Total GULP energy -267597.882307 kJ/mol
# GULP energy per Si atom -5574.955881 kJ/mol
# Density = 1.961248 g / cm^3
# Si number density = 19.657217 Si / 1000 Ang^3
#
#
#
# Elastic Constant Matrix: (Units=GPa)
#
#
# Indices 1 2 3 4 5 6 
#
# 1 141.9394 121.0143 6.7389 0.0000 0.0000 0.0000
# 2 121.0143 137.6583 0.6681 0.0000 0.0000 0.0000
# 3 6.7389 0.6681 63.9279 0.0000 0.0000 0.0000
# 4 0.0000 0.0000 0.0000 11.3537 0.0000 0.0000
# 5 0.0000 0.0000 0.0000 0.0000 -6.8818 0.0000
# 6 0.0000 0.0000 0.0000 0.0000 0.0000 12.3889
#
#
#
# Elastic Compliance Matrix: (Units=1/GPa)
#
#
# Indices 1 2 3 4 5 6 
#
# 1 0.028600 -0.025129 -0.002752 0.000000 0.000000 0.000000
# 2 -0.025129 0.029344 0.002342 0.000000 0.000000 0.000000
# 3 -0.002752 0.002342 0.015908 0.000000 0.000000 0.000000
# 4 0.000000 0.000000 0.000000 0.088077 0.000000 0.000000
# 5 0.000000 0.000000 0.000000 0.000000 -0.145311 0.000000
# 6 0.000000 0.000000 0.000000 0.000000 0.000000 0.080718
#
#
# Mechanical properties :
#
#
# Convention : Reuss Voigt Hill
#
# Bulk Modulus (GPa) = 43.90897 66.70756 55.30826
# Shear Modulus (GPa) = 32.05019 17.71243 24.88131
#
# Velocity S-wave (km/s) = 4.04227 3.00503 3.56161
# Velocity P-wave (km/s) = 6.64623 6.78597 6.71646
#
# Compressibility (1/GPa) = 0.02277439
#
# Stress axis : x y z
#
# Youngs Moduli (GPa) = 34.96474 34.07900 62.86037
#
# Poissons Ratio (x) = 0.85637 0.17301
# Poissons Ratio (y) = 0.87862 -0.14724
# Poissons Ratio (z) = 0.09623 -0.07982
#
# Static dielectric constant tensor:
#      x y z
#    x 1.690140 0.000000 0.000000 
#    y 0.000000 1.666660 0.000000 
#    z 0.000000 0.000000 1.765110 
# 
# From -- ./inp_files/21513.got.cif
#   From: 2010.05.17/outbox.cif.g08.bks.cpg/sg63_11_cif.got.tgz:21513.got - 2010.06.03 15:47:04.
