data_PCOD9475286
_publ_section_title
;
Structure prediction by ZEFSAII (Michael W. Deem and Ramdas Pophale) SiO2 
 PCOD9475286
Probable space group: C M C M
;
_chemical_formula_sum "Si O2"
_cell_formula_units_Z 64
_cell_length_a 20.915371
_cell_length_b 14.848222
_cell_length_c 10.380402
_cell_angle_alpha 90.000000
_cell_angle_beta 90.000000
_cell_angle_gamma 90.000000
_cell_volume 3223.696869
_symmetry_space_group_name_H-M "C M C M"
_symmetry_group_IT_number 63
_symmetry_cell_setting 'orthorhombic'
loop_
_space_group_symop_operation_xyz
x,y,z
-x,-y,1/2+z
x,-y,-z
-x,y,1/2-z
-x,-y,-z
x,y,1/2-z
-x,y,z
x,-y,1/2+z
1/2+x,1/2+y,z
1/2-x,1/2-y,1/2+z
1/2+x,1/2-y,-z
1/2-x,1/2+y,1/2-z
1/2-x,1/2-y,-z
1/2+x,1/2+y,1/2-z
1/2-x,1/2+y,z
1/2+x,1/2-y,1/2+z
loop_
_atom_site_type_symbol
_atom_site_label
_atom_site_fract_x
_atom_site_fract_y
_atom_site_fract_z
Si Si1 0.000000 0.155551 0.596679
Si Si2 0.788459 0.813287 0.250000
Si Si3 0.107948 0.500000 0.000000
Si Si4 0.861218 0.893312 0.005217
Si Si5 0.693748 0.968450 0.250000
Si Si6 0.500000 0.871347 0.598060
Si Si7 0.213141 0.863681 0.750000
O O1 0.063497 0.119922 0.527375
O O2 0.000000 0.264049 0.589200
O O3 0.000000 0.131099 0.750000
O O4 0.827526 0.844347 0.125131
O O5 0.723009 0.869300 0.250000
O O6 0.769939 0.709163 0.250000
O O7 0.151738 0.483168 0.123414
O O8 0.061655 0.583921 0.031752
O O9 0.831118 0.854076 0.875167
O O10 0.847393 0.000000 0.000000
O O11 0.752376 0.039153 0.250000
O O12 0.500000 0.896100 0.750000
#
# Coordination Sequence:
#
# PCOD9475286 Si02
#       7
#     8   8   8  16   8   8   8
#     4  11  26  43  75  94 129 182 234 277 335 399
#     4  12  26  45  72  98 140 181 228 278 340 411
#     4  11  24  40  70  92 138 175 220 274 348 395
#     4  12  24  49  68 101 137 179 228 285 340 399
#     4  12  24  43  68 101 132 180 222 278 340 408
#     4  10  23  45  63 102 131 174 225 286 326 402
#     4  12  28  43  72 104 142 177 226 284 340 407
#
# _framework density 19.852982999999998
#
# number of rings (size 3 to 8) (size 9 to 14) (size 15 to 20)
#    0.000    0.500    5.000    2.625    7.000    0.500 
#    0.000    1.250    0.000    0.000    0.000    0.000 
#    0.000    0.000    0.000    0.000    0.000    0.000 
#
# Total GULP energy -179076.443875 kJ/mol
# GULP energy per Si atom -5596.138871 kJ/mol
# Density = 1.980780 g / cm^3
# Si number density = 19.852983 Si / 1000 Ang^3
#
#
#
# Elastic Constant Matrix: (Units=GPa)
#
#
# Indices 1 2 3 4 5 6 
#
# 1 102.3700 -6.7000 67.1137 0.0000 0.0000 0.0000
# 2 -6.7000 55.0518 13.1129 0.0000 0.0000 0.0000
# 3 67.1137 13.1129 180.9683 0.0000 0.0000 0.0000
# 4 0.0000 0.0000 0.0000 -0.2288 0.0000 0.0000
# 5 0.0000 0.0000 0.0000 0.0000 -1.9370 0.0000
# 6 0.0000 0.0000 0.0000 0.0000 0.0000 31.1264
#
#
#
# Elastic Compliance Matrix: (Units=1/GPa)
#
#
# Indices 1 2 3 4 5 6 
#
# 1 0.013332 0.002849 -0.005151 0.000000 0.000000 0.000000
# 2 0.002849 0.019093 -0.002440 0.000000 0.000000 0.000000
# 3 -0.005151 -0.002440 0.007613 0.000000 0.000000 0.000000
# 4 0.000000 0.000000 0.000000 -4.370837 0.000000 0.000000
# 5 0.000000 0.000000 0.000000 0.000000 -0.516260 0.000000
# 6 0.000000 0.000000 0.000000 0.000000 0.000000 0.032127
#
#
# Mechanical properties :
#
#
# Convention : Reuss Voigt Hill
#
# Bulk Modulus (GPa) = 32.72854 53.93813 43.33333
# Shear Modulus (GPa) = -1.04270 23.44969 11.20350
#
# Velocity S-wave (km/s) = -0.72550 3.44054 2.37813
# Velocity P-wave (km/s) = 3.97737 6.55827 5.42357
#
# Compressibility (1/GPa) = 0.03055438
#
# Stress axis : x y z
#
# Youngs Moduli (GPa) = 75.00896 52.37598 131.35759
#
# Poissons Ratio (x) = -0.14924 0.67658
# Poissons Ratio (y) = -0.21373 0.32053
# Poissons Ratio (z) = 0.38635 0.12781
#
# Static dielectric constant tensor:
#      x y z
#    x 1.676320 0.000000 0.000000 
#    y 0.000000 1.666340 0.000000 
#    z 0.000000 0.000000 1.666370 
# 
# From -- ./inp_files/20632.got.cif
#   From: 2010.05.17/outbox.cif.g08.bks.cpg/sg63_11_cif.got.tgz:20632.got - 2010.06.03 15:47:04.
