data_PCOD9475317
_publ_section_title
;
Structure prediction by ZEFSAII (Michael W. Deem and Ramdas Pophale) SiO2 
 PCOD9475317
Probable space group: C M C M
;
_chemical_formula_sum "Si O2"
_cell_formula_units_Z 40
_cell_length_a 10.613452
_cell_length_b 18.303938
_cell_length_c 8.291255
_cell_angle_alpha 90.000000
_cell_angle_beta 90.000000
_cell_angle_gamma 90.000000
_cell_volume 1610.725256
_symmetry_space_group_name_H-M "C M C M"
_symmetry_group_IT_number 63
_symmetry_cell_setting 'orthorhombic'
loop_
_space_group_symop_operation_xyz
x,y,z
-x,-y,1/2+z
x,-y,-z
-x,y,1/2-z
-x,-y,-z
x,y,1/2-z
-x,y,z
x,-y,1/2+z
1/2+x,1/2+y,z
1/2-x,1/2-y,1/2+z
1/2+x,1/2-y,-z
1/2-x,1/2+y,1/2-z
1/2-x,1/2-y,-z
1/2+x,1/2+y,1/2-z
1/2-x,1/2+y,z
1/2+x,1/2-y,1/2+z
loop_
_atom_site_type_symbol
_atom_site_label
_atom_site_fract_x
_atom_site_fract_y
_atom_site_fract_z
Si Si1 0.146268 0.749380 0.250000
Si Si2 0.230493 0.386628 0.927594
Si Si3 0.000000 0.916201 0.055312
Si Si4 0.140878 0.625076 0.750000
O O1 0.170509 0.693347 0.102491
O O2 0.250537 0.812493 0.250000
O O3 0.000000 0.771807 0.250000
O O4 0.220769 0.422060 0.750000
O O5 0.376190 0.381144 0.977275
O O6 0.163481 0.418755 0.084473
O O7 0.000000 0.917791 0.250000
O O8 0.000000 0.000000 0.000000
O O9 0.000000 0.655030 0.750000
#
# Coordination Sequence:
#
# PCOD9475317 Si02
#       4
#     8  16   8   8
#     4  10  24  42  66  95 143 189 231 274 336 403
#     4  10  24  41  63  96 139 172 225 282 340 394
#     4  12  24  46  76 105 131 172 233 293 351 409
#     4  12  24  40  66  99 141 191 233 274 336 401
#
# _framework density 24.833532000000002
#
# number of rings (size 3 to 8) (size 9 to 14) (size 15 to 20)
#    1.200    0.000    2.000    4.200    5.600    0.000 
#    0.000    0.000    0.000    7.200    0.000    0.000 
#    0.000    0.000    0.000    0.000    0.000    0.000 
#
# Total GULP energy -111723.345154 kJ/mol
# GULP energy per Si atom -5586.167258 kJ/mol
# Density = 2.477701 g / cm^3
# Si number density = 24.833532 Si / 1000 Ang^3
#
#
#
# Elastic Constant Matrix: (Units=GPa)
#
#
# Indices 1 2 3 4 5 6 
#
# 1 205.1912 47.8550 54.2776 0.0000 0.0000 0.0000
# 2 47.8550 77.0370 39.4729 0.0000 0.0000 0.0000
# 3 54.2776 39.4729 274.1364 0.0000 0.0000 0.0000
# 4 0.0000 0.0000 0.0000 28.4478 0.0000 0.0000
# 5 0.0000 0.0000 0.0000 0.0000 45.4677 0.0000
# 6 0.0000 0.0000 0.0000 0.0000 0.0000 -56.0777
#
#
#
# Elastic Compliance Matrix: (Units=1/GPa)
#
#
# Indices 1 2 3 4 5 6 
#
# 1 0.005815 -0.003263 -0.000681 0.000000 0.000000 0.000000
# 2 -0.003263 0.015846 -0.001636 0.000000 0.000000 0.000000
# 3 -0.000681 -0.001636 0.004018 0.000000 0.000000 0.000000
# 4 0.000000 0.000000 0.000000 0.035152 0.000000 0.000000
# 5 0.000000 0.000000 0.000000 0.000000 0.021994 0.000000
# 6 0.000000 0.000000 0.000000 0.000000 0.000000 -0.017832
#
#
# Mechanical properties :
#
#
# Convention : Reuss Voigt Hill
#
# Bulk Modulus (GPa) = 68.87621 93.28619 81.08120
# Shear Modulus (GPa) = 61.73483 31.21818 46.47650
#
# Velocity S-wave (km/s) = 4.99134 3.54940 4.33080
# Velocity P-wave (km/s) = 7.81110 7.37861 7.59793
#
# Compressibility (1/GPa) = 0.01451880
#
# Stress axis : x y z
#
# Youngs Moduli (GPa) = 171.97653 63.10850 248.86432
#
# Poissons Ratio (x) = 0.20592 0.16959
# Poissons Ratio (y) = 0.56114 0.40704
# Poissons Ratio (z) = 0.11720 0.10322
#
# Static dielectric constant tensor:
#      x y z
#    x 1.917480 0.000000 0.000000 
#    y 0.000000 1.941660 0.000000 
#    z 0.000000 0.000000 2.083830 
# 
# From -- ./inp_files/1852.got.cif
#   From: 2010.05.17/outbox.cif.g08.bks.cpg/sg63_1_cif.got.tgz:1852.got - 2010.06.03 15:47:04.
