data_PCOD9475511
_publ_section_title
;
Structure prediction by ZEFSAII (Michael W. Deem and Ramdas Pophale) SiO2 
 PCOD9475511
Probable space group: C M C M
;
_chemical_formula_sum "Si O2"
_cell_formula_units_Z 80
_cell_length_a 21.203523
_cell_length_b 22.731469
_cell_length_c 8.615096
_cell_angle_alpha 90.000000
_cell_angle_beta 90.000000
_cell_angle_gamma 90.000000
_cell_volume 4152.366221
_symmetry_space_group_name_H-M "C M C M"
_symmetry_group_IT_number 63
_symmetry_cell_setting 'orthorhombic'
loop_
_space_group_symop_operation_xyz
x,y,z
-x,-y,1/2+z
x,-y,-z
-x,y,1/2-z
-x,-y,-z
x,y,1/2-z
-x,y,z
x,-y,1/2+z
1/2+x,1/2+y,z
1/2-x,1/2-y,1/2+z
1/2+x,1/2-y,-z
1/2-x,1/2+y,1/2-z
1/2-x,1/2-y,-z
1/2+x,1/2+y,1/2-z
1/2-x,1/2+y,z
1/2+x,1/2-y,1/2+z
loop_
_atom_site_type_symbol
_atom_site_label
_atom_site_fract_x
_atom_site_fract_y
_atom_site_fract_z
Si Si1 0.500000 0.668079 0.940152
Si Si2 0.500000 0.808824 0.565880
Si Si3 0.259512 0.065222 0.434849
Si Si4 0.374948 0.858886 0.075773
Si Si5 0.867182 0.121839 0.570162
Si Si6 0.314907 0.732277 0.075436
O O1 0.500000 0.669694 0.750000
O O2 0.500000 0.738399 0.990897
O O3 0.561189 0.629690 0.989774
O O4 0.500000 0.803281 0.750000
O O5 0.560005 0.847972 0.514077
O O6 0.261909 0.065614 0.250000
O O7 0.316804 0.105770 0.498899
O O8 0.189466 0.086426 0.488230
O O9 0.269098 0.000000 0.500000
O O10 0.385716 0.882767 0.250000
O O11 0.352413 0.791908 0.089918
O O12 0.868528 0.103919 0.750000
O O13 0.845535 0.188816 0.546865
O O14 0.308782 0.706063 0.250000
O O15 0.250000 0.750000 0.000000
#
# Coordination Sequence:
#
# PCOD9475511 Si02
#       6
#     8   8  16  16  16  16
#     4   9  20  35  58  91 130 167 200 243 301 365
#     4  11  21  37  60  93 132 171 205 245 304 370
#     4  12  26  45  67  90 117 159 211 263 312 365
#     4  11  23  39  60  91 128 165 204 253 306 366
#     4  11  21  38  61  90 126 163 204 253 307 366
#     4  11  21  32  54  88 125 161 200 250 308 366
#
# _framework density 19.266123
#
# number of rings (size 3 to 8) (size 9 to 14) (size 15 to 20)
#    0.000    1.000    4.000    3.900    0.000    1.600 
#    0.000    3.000    0.000    0.000    0.000    0.000 
#    0.000    0.000    0.000    0.000    0.000    0.000 
#
# Total GULP energy -222789.284128 kJ/mol
# GULP energy per Si atom -5569.732103 kJ/mol
# Density = 1.922227 g / cm^3
# Si number density = 19.266123 Si / 1000 Ang^3
#
#
#
# Elastic Constant Matrix: (Units=GPa)
#
#
# Indices 1 2 3 4 5 6 
#
# 1 112.8551 -3.9562 28.0033 0.0000 0.0000 0.0000
# 2 -3.9562 51.1340 8.8664 0.0000 0.0000 0.0000
# 3 28.0033 8.8664 85.4114 0.0000 0.0000 0.0000
# 4 0.0000 0.0000 0.0000 28.6374 0.0000 0.0000
# 5 0.0000 0.0000 0.0000 0.0000 13.9942 0.0000
# 6 0.0000 0.0000 0.0000 0.0000 0.0000 1.8449
#
#
#
# Elastic Compliance Matrix: (Units=1/GPa)
#
#
# Indices 1 2 3 4 5 6 
#
# 1 0.009734 0.001330 -0.003329 0.000000 0.000000 0.000000
# 2 0.001330 0.020097 -0.002522 0.000000 0.000000 0.000000
# 3 -0.003329 -0.002522 0.013061 0.000000 0.000000 0.000000
# 4 0.000000 0.000000 0.000000 0.034919 0.000000 0.000000
# 5 0.000000 0.000000 0.000000 0.000000 0.071458 0.000000
# 6 0.000000 0.000000 0.000000 0.000000 0.000000 0.542042
#
#
# Mechanical properties :
#
#
# Convention : Reuss Voigt Hill
#
# Bulk Modulus (GPa) = 29.54289 35.02528 32.28409
# Shear Modulus (GPa) = 7.02605 23.32776 15.17691
#
# Velocity S-wave (km/s) = 1.91174 3.48346 2.80974
# Velocity P-wave (km/s) = 4.49893 5.86502 5.22680
#
# Compressibility (1/GPa) = 0.03384909
#
# Stress axis : x y z
#
# Youngs Moduli (GPa) = 102.73581 49.75921 76.56097
#
# Poissons Ratio (x) = -0.06620 0.25490
# Poissons Ratio (y) = -0.13668 0.19312
# Poissons Ratio (z) = 0.34205 0.12551
#
# Static dielectric constant tensor:
#      x y z
#    x 1.617570 0.000000 0.000000 
#    y 0.000000 1.614000 0.000000 
#    z 0.000000 0.000000 1.741600 
# 
# From -- ./inp_files/8087.got.cif
#   From: 2010.05.17/outbox.cif.g08.bks.cpg/sg63_5_cif.got.tgz:8087.got - 2010.06.03 15:47:04.
