data_PCOD9475907
_publ_section_title
;
Structure prediction by ZEFSAII (Michael W. Deem and Ramdas Pophale) SiO2 
 PCOD9475907
Probable space group: C M C M
;
_chemical_formula_sum "Si O2"
_cell_formula_units_Z 88
_cell_length_a 15.160165
_cell_length_b 12.100887
_cell_length_c 23.615950
_cell_angle_alpha 90.000000
_cell_angle_beta 90.000000
_cell_angle_gamma 90.000000
_cell_volume 4332.380119
_symmetry_space_group_name_H-M "C M C M"
_symmetry_group_IT_number 63
_symmetry_cell_setting 'orthorhombic'
loop_
_space_group_symop_operation_xyz
x,y,z
-x,-y,1/2+z
x,-y,-z
-x,y,1/2-z
-x,-y,-z
x,y,1/2-z
-x,y,z
x,-y,1/2+z
1/2+x,1/2+y,z
1/2-x,1/2-y,1/2+z
1/2+x,1/2-y,-z
1/2-x,1/2+y,1/2-z
1/2-x,1/2-y,-z
1/2+x,1/2+y,1/2-z
1/2-x,1/2+y,z
1/2+x,1/2-y,1/2+z
loop_
_atom_site_type_symbol
_atom_site_label
_atom_site_fract_x
_atom_site_fract_y
_atom_site_fract_z
Si Si1 0.642744 0.635446 0.625283
Si Si2 0.000000 0.292308 0.817836
Si Si3 0.650980 0.293460 0.997646
Si Si4 0.500000 0.881237 0.028558
Si Si5 0.822497 0.682892 0.685519
Si Si6 0.602251 0.612603 0.379438
Si Si7 0.000000 0.554164 0.659350
O O1 0.584699 0.728804 0.656284
O O2 0.631170 0.651562 0.557968
O O3 0.744328 0.643331 0.644473
O O4 0.610644 0.512956 0.639921
O O5 0.000000 0.421802 0.834189
O O6 0.000000 0.283717 0.750000
O O7 0.750000 0.250000 0.000000
O O8 0.584516 0.191471 0.988244
O O9 0.639493 0.371348 0.942955
O O10 0.500000 0.906869 0.094658
O O11 0.500000 0.000000 0.000000
O O12 0.790131 0.687562 0.750000
O O13 0.850267 0.802911 0.662510
O O14 0.909678 0.606065 0.683785
O O15 0.500000 0.644182 0.381868
#
# Coordination Sequence:
#
# PCOD9475907 Si02
#       7
#    16   8  16   8  16  16   8
#     4  12  27  46  72 104 143 185 229 292 359 418
#     4  12  28  48  68 101 142 188 236 286 351 415
#     4  12  23  45  71 107 142 178 232 290 352 428
#     4  12  24  41  73 102 142 182 229 286 353 427
#     4  12  26  47  72 101 137 188 243 289 345 415
#     4  12  25  48  74 106 142 185 238 293 354 423
#     4  12  24  49  71 102 139 186 240 295 346 416
#
# _framework density 20.312161
#
# number of rings (size 3 to 8) (size 9 to 14) (size 15 to 20)
#    0.000    0.000    6.364    3.545    2.545    5.091 
#    0.000    0.000    0.000    0.000    0.000    0.000 
#    0.000    0.000    0.000    0.000    0.000    0.000 
#
# Total GULP energy -246262.201669 kJ/mol
# GULP energy per Si atom -5596.868220 kJ/mol
# Density = 2.026593 g / cm^3
# Si number density = 20.312161 Si / 1000 Ang^3
#
#
#
# Elastic Constant Matrix: (Units=GPa)
#
#
# Indices 1 2 3 4 5 6 
#
# 1 81.3448 21.7952 -3.9520 0.0000 0.0000 0.0000
# 2 21.7952 148.3753 26.2330 0.0000 0.0000 0.0000
# 3 -3.9520 26.2330 77.0909 0.0000 0.0000 0.0000
# 4 0.0000 0.0000 0.0000 12.7220 0.0000 0.0000
# 5 0.0000 0.0000 0.0000 0.0000 32.2712 0.0000
# 6 0.0000 0.0000 0.0000 0.0000 0.0000 21.1051
#
#
#
# Elastic Compliance Matrix: (Units=1/GPa)
#
#
# Indices 1 2 3 4 5 6 
#
# 1 0.012936 -0.002147 0.001394 0.000000 0.000000 0.000000
# 2 -0.002147 0.007527 -0.002671 0.000000 0.000000 0.000000
# 3 0.001394 -0.002671 0.013952 0.000000 0.000000 0.000000
# 4 0.000000 0.000000 0.000000 0.078604 0.000000 0.000000
# 5 0.000000 0.000000 0.000000 0.000000 0.030987 0.000000
# 6 0.000000 0.000000 0.000000 0.000000 0.000000 0.047382
#
#
# Mechanical properties :
#
#
# Convention : Reuss Voigt Hill
#
# Bulk Modulus (GPa) = 36.27555 43.88481 40.08018
# Shear Modulus (GPa) = 24.10486 30.73532 27.42009
#
# Velocity S-wave (km/s) = 3.44862 3.89414 3.67813
# Velocity P-wave (km/s) = 5.80991 6.47080 6.14924
#
# Compressibility (1/GPa) = 0.02756678
#
# Stress axis : x y z
#
# Youngs Moduli (GPa) = 77.30240 132.84954 71.67326
#
# Poissons Ratio (x) = 0.28518 -0.09989
# Poissons Ratio (y) = 0.16594 0.19147
# Poissons Ratio (z) = -0.10773 0.35491
#
# Static dielectric constant tensor:
#      x y z
#    x 1.718770 0.000000 0.000000 
#    y 0.000000 1.705310 0.000000 
#    z 0.000000 0.000000 1.718390 
# 
# From -- ./inp_files/62704.got.cif
#   From: 2010.05.17/outbox.cif.g08.bks.cpg/sg63_32_cif.got.tgz:62704.got - 2010.06.03 15:47:04.
