data_PCOD9475041
_publ_section_title
;
Structure prediction by ZEFSAII (Michael W. Deem and Ramdas Pophale) SiO2 
 PCOD9475041
Probable space group: C M C M
;
_chemical_formula_sum "Si O2"
_cell_formula_units_Z 68
_cell_length_a 7.931177
_cell_length_b 16.120797
_cell_length_c 23.302125
_cell_angle_alpha 90.000000
_cell_angle_beta 90.000000
_cell_angle_gamma 90.000000
_cell_volume 2979.337335
_symmetry_space_group_name_H-M "C M C M"
_symmetry_group_IT_number 63
_symmetry_cell_setting 'orthorhombic'
loop_
_space_group_symop_operation_xyz
x,y,z
-x,-y,1/2+z
x,-y,-z
-x,y,1/2-z
-x,-y,-z
x,y,1/2-z
-x,y,z
x,-y,1/2+z
1/2+x,1/2+y,z
1/2-x,1/2-y,1/2+z
1/2+x,1/2-y,-z
1/2-x,1/2+y,1/2-z
1/2-x,1/2-y,-z
1/2+x,1/2+y,1/2-z
1/2-x,1/2+y,z
1/2+x,1/2-y,1/2+z
loop_
_atom_site_type_symbol
_atom_site_label
_atom_site_fract_x
_atom_site_fract_y
_atom_site_fract_z
Si Si1 0.699491 0.458593 0.937856
Si Si2 0.812020 0.274922 0.938471
Si Si3 0.500000 0.217279 0.250000
Si Si4 0.198821 0.471073 0.313594
Si Si5 0.688535 0.774543 0.324145
O O1 0.500000 0.440887 0.942157
O O2 0.799921 0.373339 0.932959
O O3 0.726561 0.503299 0.875689
O O4 0.745799 0.500000 0.000000
O O5 0.695543 0.233898 0.891701
O O6 0.000000 0.243640 0.929590
O O7 0.750000 0.250000 0.000000
O O8 0.347117 0.224596 0.298699
O O9 0.262458 0.502566 0.250000
O O10 0.213135 0.371374 0.310180
O O11 0.000000 0.493200 0.315225
O O12 0.500000 0.748305 0.306998
#
# Coordination Sequence:
#
# PCOD9475041 Si02
#       5
#    16  16   4  16  16
#     4  11  25  43  66  95 130 172 222 276 333 399
#     4  12  25  44  68  97 132 173 224 281 338 399
#     4  12  22  40  68 102 132 184 226 264 340 390
#     4  10  22  41  65  96 132 174 218 272 330 391
#     4  11  23  42  68 100 137 175 225 276 328 400
#
# _framework density 22.823868999999998
#
# number of rings (size 3 to 8) (size 9 to 14) (size 15 to 20)
#    0.000    0.941    2.353    4.588    1.647    6.118 
#    2.118    0.000    0.000    0.000    0.000    0.000 
#    0.000    0.000    0.000    0.000    0.000    0.000 
#
# Total GULP energy -189268.741363 kJ/mol
# GULP energy per Si atom -5566.727687 kJ/mol
# Density = 2.277192 g / cm^3
# Si number density = 22.823869 Si / 1000 Ang^3
#
#
#
# Elastic Constant Matrix: (Units=GPa)
#
#
# Indices 1 2 3 4 5 6 
#
# 1 136.1150 0.7477 42.4815 0.0000 0.0000 0.0000
# 2 0.7477 26.7144 26.4663 0.0000 0.0000 0.0000
# 3 42.4815 26.4663 241.5653 0.0000 0.0000 0.0000
# 4 0.0000 0.0000 0.0000 39.8297 0.0000 0.0000
# 5 0.0000 0.0000 0.0000 0.0000 61.3418 0.0000
# 6 0.0000 0.0000 0.0000 0.0000 0.0000 19.8378
#
#
#
# Elastic Compliance Matrix: (Units=1/GPa)
#
#
# Indices 1 2 3 4 5 6 
#
# 1 0.007812 0.001282 -0.001514 0.000000 0.000000 0.000000
# 2 0.001282 0.042201 -0.004849 0.000000 0.000000 0.000000
# 3 -0.001514 -0.004849 0.004937 0.000000 0.000000 0.000000
# 4 0.000000 0.000000 0.000000 0.025107 0.000000 0.000000
# 5 0.000000 0.000000 0.000000 0.000000 0.016302 0.000000
# 6 0.000000 0.000000 0.000000 0.000000 0.000000 0.050409
#
#
# Mechanical properties :
#
#
# Convention : Reuss Voigt Hill
#
# Bulk Modulus (GPa) = 22.32780 60.42064 41.37422
# Shear Modulus (GPa) = 29.09328 46.51515 37.80421
#
# Velocity S-wave (km/s) = 3.57415 4.51932 4.07424
# Velocity P-wave (km/s) = 5.18041 7.33229 6.34819
#
# Compressibility (1/GPa) = 0.04478722
#
# Stress axis : x y z
#
# Youngs Moduli (GPa) = 128.00340 23.69603 202.54265
#
# Poissons Ratio (x) = -0.03037 0.30670
# Poissons Ratio (y) = -0.16404 0.98213
# Poissons Ratio (z) = 0.19383 0.11490
#
# Static dielectric constant tensor:
#      x y z
#    x 1.778200 0.000000 0.000000 
#    y 0.000000 2.399360 0.000000 
#    z 0.000000 0.000000 1.896600 
# 
# From -- ./inp_files/50457.got.cif
#   From: 2010.05.17/outbox.cif.g08.bks.cpg/sg63_26_cif.got.tgz:50457.got - 2010.06.03 15:47:04.
