data_PCOD9475366
_publ_section_title
;
Structure prediction by ZEFSAII (Michael W. Deem and Ramdas Pophale) SiO2 
 PCOD9475366
Probable space group: C M C M
;
_chemical_formula_sum "Si O2"
_cell_formula_units_Z 64
_cell_length_a 17.277614
_cell_length_b 10.563802
_cell_length_c 18.015673
_cell_angle_alpha 90.000000
_cell_angle_beta 90.000000
_cell_angle_gamma 90.000000
_cell_volume 3288.171873
_symmetry_space_group_name_H-M "C M C M"
_symmetry_group_IT_number 63
_symmetry_cell_setting 'orthorhombic'
loop_
_space_group_symop_operation_xyz
x,y,z
-x,-y,1/2+z
x,-y,-z
-x,y,1/2-z
-x,-y,-z
x,y,1/2-z
-x,y,z
x,-y,1/2+z
1/2+x,1/2+y,z
1/2-x,1/2-y,1/2+z
1/2+x,1/2-y,-z
1/2-x,1/2+y,1/2-z
1/2-x,1/2-y,-z
1/2+x,1/2+y,1/2-z
1/2-x,1/2+y,z
1/2+x,1/2-y,1/2+z
loop_
_atom_site_type_symbol
_atom_site_label
_atom_site_fract_x
_atom_site_fract_y
_atom_site_fract_z
Si Si1 0.593211 0.604631 0.897352
Si Si2 0.801455 0.443066 0.750000
Si Si3 0.589337 0.900761 0.333833
Si Si4 0.905811 0.821015 0.559479
Si Si5 0.820104 0.833128 0.250000
O O1 0.500000 0.608006 0.894138
O O2 0.616504 0.456609 0.905918
O O3 0.628464 0.660820 0.823492
O O4 0.617371 0.674906 0.973287
O O5 0.856497 0.478011 0.820534
O O6 0.775509 0.299758 0.750000
O O7 0.734925 0.546168 0.750000
O O8 0.588826 0.842144 0.250000
O O9 0.500000 0.934763 0.350879
O O10 0.619630 0.799434 0.392733
O O11 0.000000 0.818111 0.561487
#
# Coordination Sequence:
#
# PCOD9475366 Si02
#       5
#    16   8  16  16   8
#     4   9  19  33  58  89 118 143 185 233 278 331
#     4  10  25  39  54  82 114 147 198 235 269 341
#     4   8  16  33  61  81 104 144 184 230 280 328
#     4   8  15  32  58  93 115 138 181 234 281 332
#     4  12  25  39  56  78 116 159 184 231 285 325
#
# _framework density 19.463702000000001
#
# number of rings (size 3 to 8) (size 9 to 14) (size 15 to 20)
#    0.750    2.250    0.000    1.875    5.250    2.000 
#    0.000    2.500    0.000    4.500    0.000    0.000 
#    0.000    0.000    0.000    0.000    0.000    0.000 
#
# Total GULP energy -178195.956182 kJ/mol
# GULP energy per Si atom -5568.623631 kJ/mol
# Density = 1.941940 g / cm^3
# Si number density = 19.463702 Si / 1000 Ang^3
#
#
#
# Elastic Constant Matrix: (Units=GPa)
#
#
# Indices 1 2 3 4 5 6 
#
# 1 23.1785 15.5481 12.9488 0.0000 0.0000 0.0000
# 2 15.5481 76.3346 48.4426 0.0000 0.0000 0.0000
# 3 12.9488 48.4426 82.8875 0.0000 0.0000 0.0000
# 4 0.0000 0.0000 0.0000 6.5599 0.0000 0.0000
# 5 0.0000 0.0000 0.0000 0.0000 3.8436 0.0000
# 6 0.0000 0.0000 0.0000 0.0000 0.0000 24.2628
#
#
#
# Elastic Compliance Matrix: (Units=1/GPa)
#
#
# Indices 1 2 3 4 5 6 
#
# 1 0.050430 -0.008380 -0.002980 0.000000 0.000000 0.000000
# 2 -0.008380 0.022216 -0.011675 0.000000 0.000000 0.000000
# 3 -0.002980 -0.011675 0.019353 0.000000 0.000000 0.000000
# 4 0.000000 0.000000 0.000000 0.152441 0.000000 0.000000
# 5 0.000000 0.000000 0.000000 0.000000 0.260176 0.000000
# 6 0.000000 0.000000 0.000000 0.000000 0.000000 0.041215
#
#
# Mechanical properties :
#
#
# Convention : Reuss Voigt Hill
#
# Bulk Modulus (GPa) = 21.77304 37.36438 29.56871
# Shear Modulus (GPa) = 8.23436 13.96399 11.09917
#
# Velocity S-wave (km/s) = 2.05908 2.68141 2.39058
# Velocity P-wave (km/s) = 4.10656 5.36891 4.77960
#
# Compressibility (1/GPa) = 0.04592835
#
# Stress axis : x y z
#
# Youngs Moduli (GPa) = 19.82947 45.01248 51.67075
#
# Poissons Ratio (x) = 0.37722 0.15400
# Poissons Ratio (y) = 0.16618 0.60324
# Poissons Ratio (z) = 0.05910 0.52551
#
# Static dielectric constant tensor:
#      x y z
#    x 1.699380 0.000000 0.000000 
#    y 0.000000 1.687260 0.000000 
#    z 0.000000 0.000000 1.682360 
# 
# From -- ./inp_files/33406.got.cif
#   From: 2010.05.17/outbox.cif.g08.bks.cpg/sg63_17_cif.got.tgz:33406.got - 2010.06.03 15:47:04.
