data_PCOD9475132
_publ_section_title
;
Structure prediction by ZEFSAII (Michael W. Deem and Ramdas Pophale) SiO2 
 PCOD9475132
Probable space group: C M C M
;
_chemical_formula_sum "Si O2"
_cell_formula_units_Z 64
_cell_length_a 11.484627
_cell_length_b 13.361512
_cell_length_c 18.312977
_cell_angle_alpha 90.000000
_cell_angle_beta 90.000000
_cell_angle_gamma 90.000000
_cell_volume 2810.162607
_symmetry_space_group_name_H-M "C M C M"
_symmetry_group_IT_number 63
_symmetry_cell_setting 'orthorhombic'
loop_
_space_group_symop_operation_xyz
x,y,z
-x,-y,1/2+z
x,-y,-z
-x,y,1/2-z
-x,-y,-z
x,y,1/2-z
-x,y,z
x,-y,1/2+z
1/2+x,1/2+y,z
1/2-x,1/2-y,1/2+z
1/2+x,1/2-y,-z
1/2-x,1/2+y,1/2-z
1/2-x,1/2-y,-z
1/2+x,1/2+y,1/2-z
1/2-x,1/2+y,z
1/2+x,1/2-y,1/2+z
loop_
_atom_site_type_symbol
_atom_site_label
_atom_site_fract_x
_atom_site_fract_y
_atom_site_fract_z
Si Si1 0.130647 0.258330 0.949961
Si Si2 0.220227 0.145873 0.334511
Si Si3 0.134053 0.630099 0.669853
Si Si4 0.322777 0.461513 0.081810
O O1 0.168866 0.336377 0.887457
O O2 0.120686 0.147664 0.914484
O O3 0.000000 0.280352 0.981236
O O4 0.250000 0.250000 0.000000
O O5 0.250749 0.131164 0.250000
O O6 0.152491 0.251250 0.340640
O O7 0.146076 0.053277 0.365568
O O8 0.187484 0.606823 0.750000
O O9 0.193136 0.566958 0.606881
O O10 0.000000 0.607867 0.672372
O O11 0.334294 0.500000 0.000000
#
# Coordination Sequence:
#
# PCOD9475132 Si02
#       4
#    16  16  16  16
#     4  11  25  46  70 101 140 185 232 288 346 411
#     4  10  22  43  66  95 137 179 222 280 349 414
#     4   9  20  38  61  89 127 174 220 269 331 406
#     4  11  22  40  61  99 128 175 223 281 337 406
#
# _framework density 22.774483
#
# number of rings (size 3 to 8) (size 9 to 14) (size 15 to 20)
#    0.000    1.750    2.500    0.750    0.000    8.500 
#    0.000    0.000    0.000    0.000    0.000    0.000 
#    0.000    0.000    0.000    0.000    0.000    0.000 
#
# Total GULP energy -178384.536184 kJ/mol
# GULP energy per Si atom -5574.516756 kJ/mol
# Density = 2.272265 g / cm^3
# Si number density = 22.774483 Si / 1000 Ang^3
#
#
#
# Elastic Constant Matrix: (Units=GPa)
#
#
# Indices 1 2 3 4 5 6 
#
# 1 123.8365 5.6904 31.4085 0.0000 0.0000 0.0000
# 2 5.6904 118.0035 21.6333 0.0000 0.0000 0.0000
# 3 31.4085 21.6333 104.6705 0.0000 0.0000 0.0000
# 4 0.0000 0.0000 0.0000 -63.6316 0.0000 0.0000
# 5 0.0000 0.0000 0.0000 0.0000 15.5636 0.0000
# 6 0.0000 0.0000 0.0000 0.0000 0.0000 -20.5287
#
#
#
# Elastic Compliance Matrix: (Units=1/GPa)
#
#
# Indices 1 2 3 4 5 6 
#
# 1 0.008741 0.000062 -0.002636 0.000000 0.000000 0.000000
# 2 0.000062 0.008808 -0.001839 0.000000 0.000000 0.000000
# 3 -0.002636 -0.001839 0.010725 0.000000 0.000000 0.000000
# 4 0.000000 0.000000 0.000000 -0.015715 0.000000 0.000000
# 5 0.000000 0.000000 0.000000 0.000000 0.064252 0.000000
# 6 0.000000 0.000000 0.000000 0.000000 0.000000 -0.048712
#
#
# Mechanical properties :
#
#
# Convention : Reuss Voigt Hill
#
# Bulk Modulus (GPa) = 51.41890 51.55277 51.48584
# Shear Modulus (GPa) = 115.18809 5.46590 60.32700
#
# Velocity S-wave (km/s) = 7.11952 1.55088 5.15232
# Velocity P-wave (km/s) = 9.49788 5.08845 7.61912
#
# Compressibility (1/GPa) = 0.01944810
#
# Stress axis : x y z
#
# Youngs Moduli (GPa) = 114.40606 113.52673 93.24231
#
# Poissons Ratio (x) = -0.00700 0.24575
# Poissons Ratio (y) = -0.00706 0.17148
# Poissons Ratio (z) = 0.30153 0.20878
#
# Static dielectric constant tensor:
#      x y z
#    x 1.905300 0.000000 0.000000 
#    y 0.000000 1.871540 0.000000 
#    z 0.000000 0.000000 1.917750 
# 
# From -- ./inp_files/52131.got.cif
#   From: 2010.05.17/outbox.cif.g08.bks.cpg/sg63_27_cif.got.tgz:52131.got - 2010.06.03 15:47:04.
