data_PCOD9475975
_publ_section_title
;
Structure prediction by ZEFSAII (Michael W. Deem and Ramdas Pophale) SiO2 
 PCOD9475975
Probable space group: C M C M
;
_chemical_formula_sum "Si O2"
_cell_formula_units_Z 96
_cell_length_a 13.283530
_cell_length_b 11.191755
_cell_length_c 23.259596
_cell_angle_alpha 90.000000
_cell_angle_beta 90.000000
_cell_angle_gamma 90.000000
_cell_volume 3457.911408
_symmetry_space_group_name_H-M "C M C M"
_symmetry_group_IT_number 63
_symmetry_cell_setting 'orthorhombic'
loop_
_space_group_symop_operation_xyz
x,y,z
-x,-y,1/2+z
x,-y,-z
-x,y,1/2-z
-x,-y,-z
x,y,1/2-z
-x,y,z
x,-y,1/2+z
1/2+x,1/2+y,z
1/2-x,1/2-y,1/2+z
1/2+x,1/2-y,-z
1/2-x,1/2+y,1/2-z
1/2-x,1/2-y,-z
1/2+x,1/2+y,1/2-z
1/2-x,1/2+y,z
1/2+x,1/2-y,1/2+z
loop_
_atom_site_type_symbol
_atom_site_label
_atom_site_fract_x
_atom_site_fract_y
_atom_site_fract_z
Si Si1 0.379393 0.272547 0.941458
Si Si2 0.672649 0.569560 0.810999
Si Si3 0.382941 0.531680 0.930257
Si Si4 0.880771 0.649441 0.185143
Si Si5 0.878581 0.305142 0.560634
Si Si6 0.381918 0.823983 0.315010
O O1 0.500000 0.281140 0.943553
O O2 0.343228 0.407974 0.957286
O O3 0.358098 0.240181 0.875443
O O4 0.354224 0.178518 0.992655
O O5 0.641871 0.519008 0.750000
O O6 0.624019 0.501147 0.862832
O O7 0.635038 0.706387 0.813205
O O8 0.794218 0.576306 0.815319
O O9 0.500000 0.545398 0.945173
O O10 0.342713 0.667116 0.931561
O O11 0.844103 0.616539 0.250000
O O12 0.845894 0.624154 0.118272
O O13 0.000000 0.623143 0.185562
O O14 0.000000 0.310638 0.563562
O O15 0.370474 0.770045 0.250000
O O16 0.500000 0.859195 0.318531
#
# Coordination Sequence:
#
# PCOD9475975 Si02
#       6
#    16  16  16  16  16  16
#     4   9  16  26  41  60  85 114 138 167 209 252
#     4   9  16  26  40  58  81 108 138 172 208 245
#     4   9  16  25  40  64  89 109 131 162 203 252
#     4   8  13  22  37  58  84 110 134 163 199 242
#     4   8  13  22  37  58  85 114 137 159 198 249
#     4   9  18  31  43  56  78 110 145 178 213 249
#
# _framework density 27.762422999999998
#
# number of rings (size 3 to 8) (size 9 to 14) (size 15 to 20)
#    0.000    3.333    0.000    2.000    0.000    3.667 
#    0.000    5.000    0.000    0.000    0.000    2.333 
#    0.000   18.667    0.000    0.000    0.000    0.000 
#
# Total GULP energy -267380.739121 kJ/mol
# GULP energy per Si atom -5570.432065 kJ/mol
# Density = 2.769923 g / cm^3
# Si number density = 27.762423 Si / 1000 Ang^3
#
#
#
# Elastic Constant Matrix: (Units=GPa)
#
#
# Indices 1 2 3 4 5 6 
#
# 1 114.4030 -4.2093 14.2406 0.0000 0.0000 0.0000
# 2 -4.2093 58.2322 43.2354 0.0000 0.0000 0.0000
# 3 14.2406 43.2354 222.5129 0.0000 0.0000 0.0000
# 4 0.0000 0.0000 0.0000 46.3657 0.0000 0.0000
# 5 0.0000 0.0000 0.0000 0.0000 31.2625 0.0000
# 6 0.0000 0.0000 0.0000 0.0000 0.0000 2.6434
#
#
#
# Elastic Compliance Matrix: (Units=1/GPa)
#
#
# Indices 1 2 3 4 5 6 
#
# 1 0.008888 0.001244 -0.000811 0.000000 0.000000 0.000000
# 2 0.001244 0.020242 -0.004013 0.000000 0.000000 0.000000
# 3 -0.000811 -0.004013 0.005326 0.000000 0.000000 0.000000
# 4 0.000000 0.000000 0.000000 0.021568 0.000000 0.000000
# 5 0.000000 0.000000 0.000000 0.000000 0.031987 0.000000
# 6 0.000000 0.000000 0.000000 0.000000 0.000000 0.378295
#
#
# Mechanical properties :
#
#
# Convention : Reuss Voigt Hill
#
# Bulk Modulus (GPa) = 36.63377 55.74240 46.18808
# Shear Modulus (GPa) = 10.36135 38.84641 24.60388
#
# Velocity S-wave (km/s) = 1.93397 3.74471 2.98019
# Velocity P-wave (km/s) = 4.26745 6.23049 5.33995
#
# Compressibility (1/GPa) = 0.02729722
#
# Stress axis : x y z
#
# Youngs Moduli (GPa) = 112.51496 49.40245 187.76887
#
# Poissons Ratio (x) = -0.06147 0.15220
# Poissons Ratio (y) = -0.14000 0.75347
# Poissons Ratio (z) = 0.09120 0.19824
#
# Static dielectric constant tensor:
#      x y z
#    x 2.110490 0.000000 0.000000 
#    y 0.000000 2.192230 0.000000 
#    z 0.000000 0.000000 2.245900 
# 
# From -- ./inp_files/54641.got.cif
#   From: 2010.05.17/outbox.cif.g08.bks.cpg/sg63_28_cif.got.tgz:54641.got - 2010.06.03 15:47:04.
