data_PCOD9475957
_publ_section_title
;
Structure prediction by ZEFSAII (Michael W. Deem and Ramdas Pophale) SiO2 
 PCOD9475957
Probable space group: C M C M
;
_chemical_formula_sum "Si O2"
_cell_formula_units_Z 112
_cell_length_a 7.397172
_cell_length_b 28.396829
_cell_length_c 30.653812
_cell_angle_alpha 90.000000
_cell_angle_beta 90.000000
_cell_angle_gamma 90.000000
_cell_volume 6439.024134
_symmetry_space_group_name_H-M "C M C M"
_symmetry_group_IT_number 63
_symmetry_cell_setting 'orthorhombic'
loop_
_space_group_symop_operation_xyz
x,y,z
-x,-y,1/2+z
x,-y,-z
-x,y,1/2-z
-x,-y,-z
x,y,1/2-z
-x,y,z
x,-y,1/2+z
1/2+x,1/2+y,z
1/2-x,1/2-y,1/2+z
1/2+x,1/2-y,-z
1/2-x,1/2+y,1/2-z
1/2-x,1/2-y,-z
1/2+x,1/2+y,1/2-z
1/2-x,1/2+y,z
1/2+x,1/2-y,1/2+z
loop_
_atom_site_type_symbol
_atom_site_label
_atom_site_fract_x
_atom_site_fract_y
_atom_site_fract_z
Si Si1 0.279810 0.521716 0.567362
Si Si2 0.779444 0.324938 0.250000
Si Si3 0.212841 0.177189 0.023968
Si Si4 0.720737 0.572389 0.478627
Si Si5 0.780947 0.726961 0.933961
Si Si6 0.792054 0.064086 0.750000
Si Si7 0.713697 0.182241 0.655089
Si Si8 0.718594 0.570630 0.655395
O O1 0.500000 0.522036 0.568003
O O2 0.224230 0.468802 0.554631
O O3 0.225585 0.555139 0.527016
O O4 0.217824 0.541618 0.613574
O O5 0.713708 0.378911 0.250000
O O6 0.718795 0.304231 0.203544
O O7 0.000000 0.326241 0.250000
O O8 0.286154 0.124890 0.031112
O O9 0.285462 0.221217 0.051794
O O10 0.000000 0.174927 0.033786
O O11 0.232137 0.191835 0.973332
O O12 0.500000 0.573188 0.478638
O O13 0.713364 0.708609 0.887407
O O14 0.000000 0.728188 0.932977
O O15 0.713350 0.052256 0.797511
O O16 0.000000 0.047882 0.750000
O O17 0.500000 0.191648 0.655617
O O18 0.736953 0.125906 0.650258
O O19 0.500000 0.568057 0.656790
#
# Coordination Sequence:
#
# PCOD9475957 Si02
#       8
#    16   8  16  16  16   8  16  16
#     4   8  13  20  32  51  70  87 111 141 169 195
#     4   8  14  24  36  48  65  93 121 139 164 204
#     4   9  16  26  39  53  70  93 119 145 173 207
#     4   8  13  21  33  50  69  87 112 144 168 191
#     4   9  17  26  36  53  74  93 115 144 177 209
#     4   8  14  22  32  50  73  91 109 137 172 206
#     4   9  16  25  36  51  72  95 117 142 171 204
#     4   9  15  23  36  53  72  93 115 140 171 206
#
# _framework density 17.393939
#
# number of rings (size 3 to 8) (size 9 to 14) (size 15 to 20)
#    0.000    3.429    0.000    1.714    0.000    1.714 
#    0.000    0.000    0.000    0.857    0.000    5.000 
#    0.000    8.000    0.000    0.000    0.000   51.500 
#
# Total GULP energy -311866.692660 kJ/mol
# GULP energy per Si atom -5569.048083 kJ/mol
# Density = 1.735435 g / cm^3
# Si number density = 17.393939 Si / 1000 Ang^3
#
#
#
# Elastic Constant Matrix: (Units=GPa)
#
#
# Indices 1 2 3 4 5 6 
#
# 1 56.6549 -4.6542 -5.6722 0.0000 0.0000 0.0000
# 2 -4.6542 97.9938 63.6548 0.0000 0.0000 0.0000
# 3 -5.6722 63.6548 169.7170 0.0000 0.0000 0.0000
# 4 0.0000 0.0000 0.0000 26.0286 0.0000 0.0000
# 5 0.0000 0.0000 0.0000 0.0000 3.1566 0.0000
# 6 0.0000 0.0000 0.0000 0.0000 0.0000 5.2397
#
#
#
# Elastic Compliance Matrix: (Units=1/GPa)
#
#
# Indices 1 2 3 4 5 6 
#
# 1 0.017737 0.000605 0.000366 0.000000 0.000000 0.000000
# 2 0.000605 0.013512 -0.005048 0.000000 0.000000 0.000000
# 3 0.000366 -0.005048 0.007798 0.000000 0.000000 0.000000
# 4 0.000000 0.000000 0.000000 0.038419 0.000000 0.000000
# 5 0.000000 0.000000 0.000000 0.000000 0.316794 0.000000
# 6 0.000000 0.000000 0.000000 0.000000 0.000000 0.190852
#
#
# Mechanical properties :
#
#
# Convention : Reuss Voigt Hill
#
# Bulk Modulus (GPa) = 32.36998 47.89139 40.13069
# Shear Modulus (GPa) = 8.28413 24.95412 16.61913
#
# Velocity S-wave (km/s) = 2.18472 3.79178 3.09440
# Velocity P-wave (km/s) = 5.00143 6.83837 5.99073
#
# Compressibility (1/GPa) = 0.03089282
#
# Stress axis : x y z
#
# Youngs Moduli (GPa) = 56.37918 74.00613 128.24380
#
# Poissons Ratio (x) = -0.04475 -0.04694
# Poissons Ratio (y) = -0.03409 0.64735
# Poissons Ratio (z) = -0.02063 0.37357
#
# Static dielectric constant tensor:
#      x y z
#    x 1.679310 0.000000 0.000000 
#    y 0.000000 1.568630 0.000000 
#    z 0.000000 0.000000 1.622570 
# 
# From -- ./inp_files/72267.got.cif
#   From: 2010.05.17/outbox.cif.g08.bks.cpg/sg63_37_cif.got.tgz:72267.got - 2010.06.03 15:47:04.
