data_PCOD9475013
_publ_section_title
;
Structure prediction by ZEFSAII (Michael W. Deem and Ramdas Pophale) SiO2 
 PCOD9475013
Probable space group: C M C M
;
_chemical_formula_sum "Si O2"
_cell_formula_units_Z 72
_cell_length_a 27.496446
_cell_length_b 15.064181
_cell_length_c 8.675787
_cell_angle_alpha 90.000000
_cell_angle_beta 90.000000
_cell_angle_gamma 90.000000
_cell_volume 3593.610221
_symmetry_space_group_name_H-M "C M C M"
_symmetry_group_IT_number 63
_symmetry_cell_setting 'orthorhombic'
loop_
_space_group_symop_operation_xyz
x,y,z
-x,-y,1/2+z
x,-y,-z
-x,y,1/2-z
-x,-y,-z
x,y,1/2-z
-x,y,z
x,-y,1/2+z
1/2+x,1/2+y,z
1/2-x,1/2-y,1/2+z
1/2+x,1/2-y,-z
1/2-x,1/2+y,1/2-z
1/2-x,1/2-y,-z
1/2+x,1/2+y,1/2-z
1/2-x,1/2+y,z
1/2+x,1/2-y,1/2+z
loop_
_atom_site_type_symbol
_atom_site_label
_atom_site_fract_x
_atom_site_fract_y
_atom_site_fract_z
Si Si1 0.171213 0.087369 0.932695
Si Si2 0.405989 0.283911 0.564284
Si Si3 0.500000 0.399963 0.564453
Si Si4 0.871248 0.595407 0.933861
Si Si5 0.232637 0.655682 0.066852
O O1 0.177308 0.082228 0.750000
O O2 0.139674 0.172258 0.979300
O O3 0.222578 0.093876 0.018667
O O4 0.145201 0.000000 0.000000
O O5 0.399207 0.292059 0.750000
O O6 0.452959 0.341433 0.520043
O O7 0.406117 0.179045 0.528346
O O8 0.500000 0.500000 0.500000
O O9 0.500000 0.406665 0.750000
O O10 0.868241 0.588432 0.750000
O O11 0.885813 0.500000 0.000000
O O12 0.817753 0.621611 0.996263
O O13 0.227882 0.661227 0.250000
O O14 0.250000 0.750000 0.000000
#
# Coordination Sequence:
#
# PCOD9475013 Si02
#       5
#    16  16   8  16  16
#     4  12  24  38  59  87 122 162 205 252 305 364
#     4  10  22  41  64  89 122 159 203 254 310 372
#     4  10  22  42  67  96 124 158 197 248 315 377
#     4  11  23  40  62  88 123 166 210 257 307 361
#     4  12  23  38  59  87 123 163 208 253 304 360
#
# _framework density 20.035561000000001
#
# number of rings (size 3 to 8) (size 9 to 14) (size 15 to 20)
#    0.000    0.889    2.222    6.000    0.000    3.556 
#    0.000    0.556    0.000    0.000    0.000    0.000 
#    0.000    0.000    0.000    0.000    0.000    0.000 
#
# Total GULP energy -201275.844773 kJ/mol
# GULP energy per Si atom -5590.995688 kJ/mol
# Density = 1.998996 g / cm^3
# Si number density = 20.035561 Si / 1000 Ang^3
#
#
#
# Elastic Constant Matrix: (Units=GPa)
#
#
# Indices 1 2 3 4 5 6 
#
# 1 84.8608 46.5396 25.1415 0.0000 0.0000 0.0000
# 2 46.5396 190.7961 55.8438 0.0000 0.0000 0.0000
# 3 25.1415 55.8438 82.5212 0.0000 0.0000 0.0000
# 4 0.0000 0.0000 0.0000 39.0249 0.0000 0.0000
# 5 0.0000 0.0000 0.0000 0.0000 14.0444 0.0000
# 6 0.0000 0.0000 0.0000 0.0000 0.0000 27.6324
#
#
#
# Elastic Compliance Matrix: (Units=1/GPa)
#
#
# Indices 1 2 3 4 5 6 
#
# 1 0.013985 -0.002699 -0.002435 0.000000 0.000000 0.000000
# 2 -0.002699 0.007057 -0.003953 0.000000 0.000000 0.000000
# 3 -0.002435 -0.003953 0.015535 0.000000 0.000000 0.000000
# 4 0.000000 0.000000 0.000000 0.025625 0.000000 0.000000
# 5 0.000000 0.000000 0.000000 0.000000 0.071203 0.000000
# 6 0.000000 0.000000 0.000000 0.000000 0.000000 0.036189
#
#
# Mechanical properties :
#
#
# Convention : Reuss Voigt Hill
#
# Bulk Modulus (GPa) = 54.33596 68.13644 61.23620
# Shear Modulus (GPa) = 25.78632 31.51721 28.65176
#
# Velocity S-wave (km/s) = 3.59141 3.97049 3.78570
# Velocity P-wave (km/s) = 6.66155 7.42302 7.05257
#
# Compressibility (1/GPa) = 0.01840402
#
# Stress axis : x y z
#
# Youngs Moduli (GPa) = 71.50333 141.71319 64.37105
#
# Poissons Ratio (x) = 0.38245 0.15671
# Poissons Ratio (y) = 0.19297 0.25446
# Poissons Ratio (z) = 0.17408 0.56020
#
# Static dielectric constant tensor:
#      x y z
#    x 1.745360 0.000000 0.000000 
#    y 0.000000 1.776440 0.000000 
#    z 0.000000 0.000000 1.663390 
# 
# From -- ./inp_files/11730.got.cif
#   From: 2010.05.17/outbox.cif.g08.bks.cpg/sg63_6_cif.got.tgz:11730.got - 2010.06.03 15:47:04.
