data_PCOD9475146
_publ_section_title
;
Structure prediction by ZEFSAII (Michael W. Deem and Ramdas Pophale) SiO2 
 PCOD9475146
Probable space group: C M C M
;
_chemical_formula_sum "Si O2"
_cell_formula_units_Z 52
_cell_length_a 13.108912
_cell_length_b 6.891947
_cell_length_c 23.549109
_cell_angle_alpha 90.000000
_cell_angle_beta 90.000000
_cell_angle_gamma 90.000000
_cell_volume 2127.566076
_symmetry_space_group_name_H-M "C M C M"
_symmetry_group_IT_number 63
_symmetry_cell_setting 'orthorhombic'
loop_
_space_group_symop_operation_xyz
x,y,z
-x,-y,1/2+z
x,-y,-z
-x,y,1/2-z
-x,-y,-z
x,y,1/2-z
-x,y,z
x,-y,1/2+z
1/2+x,1/2+y,z
1/2-x,1/2-y,1/2+z
1/2+x,1/2-y,-z
1/2-x,1/2+y,1/2-z
1/2-x,1/2-y,-z
1/2+x,1/2+y,1/2-z
1/2-x,1/2+y,z
1/2+x,1/2-y,1/2+z
loop_
_atom_site_type_symbol
_atom_site_label
_atom_site_fract_x
_atom_site_fract_y
_atom_site_fract_z
Si Si1 0.111122 0.753459 0.160821
Si Si2 0.500000 0.859132 0.250000
Si Si3 0.383112 0.957470 0.061558
Si Si4 0.165690 0.199818 0.163289
O O1 0.110586 0.651472 0.099520
O O2 0.219156 0.688405 0.186527
O O3 0.000000 0.706395 0.188331
O O4 0.120145 0.985156 0.159258
O O5 0.589563 0.825935 0.200887
O O6 0.500000 0.887656 0.053008
O O7 0.328813 0.801240 0.101660
O O8 0.337574 0.000000 0.000000
#
# Coordination Sequence:
#
# PCOD9475146 Si02
#       4
#    16   4  16  16
#     4  11  24  46  73 105 148 188 235 289 361 433
#     4  12  28  48  78 102 142 188 252 314 352 428
#     4  10  22  43  74 112 147 188 239 294 365 442
#     4  12  24  48  71 105 145 190 243 302 358 426
#
# _framework density 24.441071999999998
#
# number of rings (size 3 to 8) (size 9 to 14) (size 15 to 20)
#    0.000    0.923    6.154    0.000    0.000    3.692 
#    0.000    7.692    0.000    0.000    0.000    0.000 
#    0.000    0.000    0.000    0.000    0.000    0.000 
#
# Total GULP energy -144920.516978 kJ/mol
# GULP energy per Si atom -5573.866038 kJ/mol
# Density = 2.438544 g / cm^3
# Si number density = 24.441072 Si / 1000 Ang^3
#
#
#
# Elastic Constant Matrix: (Units=GPa)
#
#
# Indices 1 2 3 4 5 6 
#
# 1 232.1309 22.1749 25.0978 0.0000 0.0000 0.0000
# 2 22.1749 88.4962 -8.0162 0.0000 0.0000 0.0000
# 3 25.0978 -8.0162 149.3644 0.0000 0.0000 0.0000
# 4 0.0000 0.0000 0.0000 40.4853 0.0000 0.0000
# 5 0.0000 0.0000 0.0000 0.0000 -25.1216 0.0000
# 6 0.0000 0.0000 0.0000 0.0000 0.0000 48.0365
#
#
#
# Elastic Compliance Matrix: (Units=1/GPa)
#
#
# Indices 1 2 3 4 5 6 
#
# 1 0.004512 -0.001205 -0.000823 0.000000 0.000000 0.000000
# 2 -0.001205 0.011677 0.000829 0.000000 0.000000 0.000000
# 3 -0.000823 0.000829 0.006878 0.000000 0.000000 0.000000
# 4 0.000000 0.000000 0.000000 0.024700 0.000000 0.000000
# 5 0.000000 0.000000 0.000000 0.000000 -0.039806 0.000000
# 6 0.000000 0.000000 0.000000 0.000000 0.000000 0.020817
#
#
# Mechanical properties :
#
#
# Convention : Reuss Voigt Hill
#
# Bulk Modulus (GPa) = 48.38104 60.94495 54.66299
# Shear Modulus (GPa) = 131.35255 41.39572 86.37414
#
# Velocity S-wave (km/s) = 7.33888 4.11992 5.95117
# Velocity P-wave (km/s) = 9.57341 6.90081 8.34480
#
# Compressibility (1/GPa) = 0.02066926
#
# Stress axis : x y z
#
# Youngs Moduli (GPa) = 221.63123 85.63843 145.39538
#
# Poissons Ratio (x) = 0.10320 0.11964
# Poissons Ratio (y) = 0.26709 -0.12056
# Poissons Ratio (z) = 0.18237 -0.07101
#
# Static dielectric constant tensor:
#      x y z
#    x 1.965720 0.000000 0.000000 
#    y 0.000000 1.981170 0.000000 
#    z 0.000000 0.000000 1.923950 
# 
# From -- ./inp_files/53605.got.cif
#   From: 2010.05.17/outbox.cif.g08.bks.cpg/sg63_27_cif.got.tgz:53605.got - 2010.06.03 15:47:04.
