data_PCOD9475224
_publ_section_title
;
Structure prediction by ZEFSAII (Michael W. Deem and Ramdas Pophale) SiO2 
 PCOD9475224
Probable space group: C M C M
;
_chemical_formula_sum "Si O2"
_cell_formula_units_Z 52
_cell_length_a 12.221618
_cell_length_b 14.650447
_cell_length_c 13.571012
_cell_angle_alpha 90.000000
_cell_angle_beta 90.000000
_cell_angle_gamma 90.000000
_cell_volume 2429.919104
_symmetry_space_group_name_H-M "C M C M"
_symmetry_group_IT_number 63
_symmetry_cell_setting 'orthorhombic'
loop_
_space_group_symop_operation_xyz
x,y,z
-x,-y,1/2+z
x,-y,-z
-x,y,1/2-z
-x,-y,-z
x,y,1/2-z
-x,y,z
x,-y,1/2+z
1/2+x,1/2+y,z
1/2-x,1/2-y,1/2+z
1/2+x,1/2-y,-z
1/2-x,1/2+y,1/2-z
1/2-x,1/2-y,-z
1/2+x,1/2+y,1/2-z
1/2-x,1/2+y,z
1/2+x,1/2-y,1/2+z
loop_
_atom_site_type_symbol
_atom_site_label
_atom_site_fract_x
_atom_site_fract_y
_atom_site_fract_z
Si Si1 0.204445 0.547900 0.364328
Si Si2 0.720523 0.658468 0.637160
Si Si3 0.500000 0.000000 0.000000
Si Si4 0.876048 0.801149 0.935953
O O1 0.175899 0.559924 0.250000
O O2 0.264708 0.449693 0.373645
O O3 0.096928 0.544967 0.430198
O O4 0.290185 0.624969 0.396154
O O5 0.691528 0.679656 0.750000
O O6 0.836594 0.705525 0.609880
O O7 0.639645 0.697242 0.554109
O O8 0.000000 0.821684 0.909209
#
# Coordination Sequence:
#
# PCOD9475224 Si02
#       4
#    16  16   4  16
#     4  11  24  42  67  98 130 173 223 272 330 391
#     4  10  23  42  64  95 129 172 220 265 329 397
#     4  12  22  44  66  94 132 182 222 274 320 398
#     4  11  24  44  69  98 136 172 220 279 336 399
#
# _framework density 21.399889000000002
#
# number of rings (size 3 to 8) (size 9 to 14) (size 15 to 20)
#    0.000    1.231    3.077    1.385    2.154    5.538 
#    0.000    3.077    0.000    0.000    0.000    0.000 
#    0.000    0.000    0.000    0.000    0.000    0.000 
#
# Total GULP energy -144895.328019 kJ/mol
# GULP energy per Si atom -5572.897231 kJ/mol
# Density = 2.135118 g / cm^3
# Si number density = 21.399889 Si / 1000 Ang^3
#
#
#
# Elastic Constant Matrix: (Units=GPa)
#
#
# Indices 1 2 3 4 5 6 
#
# 1 101.7139 16.7520 -6.0285 0.0000 0.0000 0.0000
# 2 16.7520 87.4080 25.2522 0.0000 0.0000 0.0000
# 3 -6.0285 25.2522 71.0351 0.0000 0.0000 0.0000
# 4 0.0000 0.0000 0.0000 27.4792 0.0000 0.0000
# 5 0.0000 0.0000 0.0000 0.0000 3.0918 0.0000
# 6 0.0000 0.0000 0.0000 0.0000 0.0000 17.4261
#
#
#
# Elastic Compliance Matrix: (Units=1/GPa)
#
#
# Indices 1 2 3 4 5 6 
#
# 1 0.010347 -0.002493 0.001764 0.000000 0.000000 0.000000
# 2 -0.002493 0.013351 -0.004958 0.000000 0.000000 0.000000
# 3 0.001764 -0.004958 0.015990 0.000000 0.000000 0.000000
# 4 0.000000 0.000000 0.000000 0.036391 0.000000 0.000000
# 5 0.000000 0.000000 0.000000 0.000000 0.323441 0.000000
# 6 0.000000 0.000000 0.000000 0.000000 0.000000 0.057385
#
#
# Mechanical properties :
#
#
# Convention : Reuss Voigt Hill
#
# Bulk Modulus (GPa) = 35.31720 36.90095 36.10907
# Shear Modulus (GPa) = 10.46651 24.54484 17.50567
#
# Velocity S-wave (km/s) = 2.21394 3.39036 2.86322
# Velocity P-wave (km/s) = 4.80361 5.71025 5.27644
#
# Compressibility (1/GPa) = 0.02831482
#
# Stress axis : x y z
#
# Youngs Moduli (GPa) = 96.65025 74.90328 62.54059
#
# Poissons Ratio (x) = 0.18671 -0.11033
# Poissons Ratio (y) = 0.24091 0.31005
# Poissons Ratio (z) = -0.17051 0.37133
#
# Static dielectric constant tensor:
#      x y z
#    x 1.713930 0.000000 0.000000 
#    y 0.000000 1.791020 0.000000 
#    z 0.000000 0.000000 1.812840 
# 
# From -- ./inp_files/28878.got.cif
#   From: 2010.05.17/outbox.cif.g08.bks.cpg/sg63_15_cif.got.tgz:28878.got - 2010.06.03 15:47:04.
