data_PCOD9475910
_publ_section_title
;
Structure prediction by ZEFSAII (Michael W. Deem and Ramdas Pophale) SiO2 
 PCOD9475910
Probable space group: C M C M
;
_chemical_formula_sum "Si O2"
_cell_formula_units_Z 72
_cell_length_a 16.772417
_cell_length_b 28.289453
_cell_length_c 8.436722
_cell_angle_alpha 90.000000
_cell_angle_beta 90.000000
_cell_angle_gamma 90.000000
_cell_volume 4003.076967
_symmetry_space_group_name_H-M "C M C M"
_symmetry_group_IT_number 63
_symmetry_cell_setting 'orthorhombic'
loop_
_space_group_symop_operation_xyz
x,y,z
-x,-y,1/2+z
x,-y,-z
-x,y,1/2-z
-x,-y,-z
x,y,1/2-z
-x,y,z
x,-y,1/2+z
1/2+x,1/2+y,z
1/2-x,1/2-y,1/2+z
1/2+x,1/2-y,-z
1/2-x,1/2+y,1/2-z
1/2-x,1/2-y,-z
1/2+x,1/2+y,1/2-z
1/2-x,1/2+y,z
1/2+x,1/2-y,1/2+z
loop_
_atom_site_type_symbol
_atom_site_label
_atom_site_fract_x
_atom_site_fract_y
_atom_site_fract_z
Si Si1 0.254005 0.803277 0.441340
Si Si2 0.587849 0.857424 0.056635
Si Si3 0.159227 0.894301 0.058190
Si Si4 0.000000 0.054375 0.061627
Si Si5 0.679604 0.052244 0.559617
O O1 0.252824 0.803336 0.250000
O O2 0.250000 0.750000 0.500000
O O3 0.339056 0.824657 0.493968
O O4 0.185217 0.840899 0.491083
O O5 0.587126 0.856234 0.250000
O O6 0.500000 0.844140 0.000645
O O7 0.612543 0.910388 0.008804
O O8 0.154808 0.894536 0.250000
O O9 0.234267 0.927119 0.009750
O O10 0.078186 0.916759 0.994115
O O11 0.000000 0.051922 0.250000
O O12 0.000000 0.000000 0.000000
O O13 0.680228 0.052060 0.750000
O O14 0.666639 0.000000 0.500000
#
# Coordination Sequence:
#
# PCOD9475910 Si02
#       5
#    16  16  16   8  16
#     4   9  18  34  56  77 101 135 171 213 261 307
#     4   8  15  30  50  71  97 130 165 198 237 294
#     4   9  19  36  53  72 103 141 177 213 259 315
#     4  12  24  36  54  80 108 140 178 224 273 324
#     4   9  17  29  48  72  97 131 169 200 241 293
#
# _framework density 17.986163999999999
#
# number of rings (size 3 to 8) (size 9 to 14) (size 15 to 20)
#    0.000    2.889    0.000    4.333    0.000    4.000 
#    2.000    3.333    0.000    1.333    0.000    0.000 
#    0.000    0.000    0.000    0.000    0.000    0.000 
#
# Total GULP energy -200579.833403 kJ/mol
# GULP energy per Si atom -5571.662039 kJ/mol
# Density = 1.794523 g / cm^3
# Si number density = 17.986164 Si / 1000 Ang^3
#
#
#
# Elastic Constant Matrix: (Units=GPa)
#
#
# Indices 1 2 3 4 5 6 
#
# 1 134.7563 77.7066 24.9603 0.0000 0.0000 0.0000
# 2 77.7066 176.9255 24.8768 0.0000 0.0000 0.0000
# 3 24.9603 24.8768 19.5406 0.0000 0.0000 0.0000
# 4 0.0000 0.0000 0.0000 33.7966 0.0000 0.0000
# 5 0.0000 0.0000 0.0000 0.0000 14.0740 0.0000
# 6 0.0000 0.0000 0.0000 0.0000 0.0000 13.0141
#
#
#
# Elastic Compliance Matrix: (Units=1/GPa)
#
#
# Indices 1 2 3 4 5 6 
#
# 1 0.011319 -0.003579 -0.009902 0.000000 0.000000 0.000000
# 2 -0.003579 0.008016 -0.005634 0.000000 0.000000 0.000000
# 3 -0.009902 -0.005634 0.070995 0.000000 0.000000 0.000000
# 4 0.000000 0.000000 0.000000 0.029589 0.000000 0.000000
# 5 0.000000 0.000000 0.000000 0.000000 0.071053 0.000000
# 6 0.000000 0.000000 0.000000 0.000000 0.000000 0.076840
#
#
# Mechanical properties :
#
#
# Convention : Reuss Voigt Hill
#
# Bulk Modulus (GPa) = 19.19319 65.14553 42.16936
# Shear Modulus (GPa) = 15.46038 25.75551 20.60795
#
# Velocity S-wave (km/s) = 2.93502 3.78823 3.38859
# Velocity P-wave (km/s) = 4.70957 7.44531 6.22948
#
# Compressibility (1/GPa) = 0.05210181
#
# Stress axis : x y z
#
# Youngs Moduli (GPa) = 88.34980 124.74886 14.08544
#
# Poissons Ratio (x) = 0.44647 0.13947
# Poissons Ratio (y) = 0.31620 0.07935
# Poissons Ratio (z) = 0.87481 0.70277
#
# Static dielectric constant tensor:
#      x y z
#    x 1.617940 0.000000 0.000000 
#    y 0.000000 1.607730 0.000000 
#    z 0.000000 0.000000 1.624700 
# 
# From -- ./inp_files/4631.got.cif
#   From: 2010.05.17/outbox.cif.g08.bks.cpg/sg63_3_cif.got.tgz:4631.got - 2010.06.03 15:47:04.
