data_PCOD9475554
_publ_section_title
;
Structure prediction by ZEFSAII (Michael W. Deem and Ramdas Pophale) SiO2 
 PCOD9475554
Probable space group: C M C M
;
_chemical_formula_sum "Si O2"
_cell_formula_units_Z 116
_cell_length_a 7.509430
_cell_length_b 31.699326
_cell_length_c 24.914242
_cell_angle_alpha 90.000000
_cell_angle_beta 90.000000
_cell_angle_gamma 90.000000
_cell_volume 5930.682575
_symmetry_space_group_name_H-M "C M C M"
_symmetry_group_IT_number 63
_symmetry_cell_setting 'orthorhombic'
loop_
_space_group_symop_operation_xyz
x,y,z
-x,-y,1/2+z
x,-y,-z
-x,y,1/2-z
-x,-y,-z
x,y,1/2-z
-x,y,z
x,-y,1/2+z
1/2+x,1/2+y,z
1/2-x,1/2-y,1/2+z
1/2+x,1/2-y,-z
1/2-x,1/2+y,1/2-z
1/2-x,1/2-y,-z
1/2+x,1/2+y,1/2-z
1/2-x,1/2+y,z
1/2+x,1/2-y,1/2+z
loop_
_atom_site_type_symbol
_atom_site_label
_atom_site_fract_x
_atom_site_fract_y
_atom_site_fract_z
Si Si1 0.704016 0.416795 0.837165
Si Si2 0.789650 0.798623 0.488450
Si Si3 0.782324 0.726249 0.311786
Si Si4 0.708903 0.158128 0.400216
Si Si5 0.784781 0.008255 0.687774
Si Si6 0.781692 0.186490 0.631840
Si Si7 0.000000 0.394515 0.750000
Si Si8 0.783293 0.899149 0.312645
O O1 0.500000 0.417266 0.816770
O O2 0.708755 0.387432 0.889224
O O3 0.761507 0.465693 0.843423
O O4 0.842886 0.396474 0.796127
O O5 0.750000 0.750000 0.500000
O O6 0.730380 0.825006 0.539788
O O7 0.718778 0.809423 0.429421
O O8 0.000000 0.804037 0.485106
O O9 0.726432 0.718602 0.250000
O O10 0.721727 0.691798 0.355701
O O11 0.729614 0.772619 0.333141
O O12 0.000000 0.724969 0.311358
O O13 0.500000 0.154843 0.390833
O O14 0.726508 0.001989 0.750000
O O15 0.722670 0.054286 0.668781
O O16 0.000000 0.010671 0.688638
O O17 0.721788 0.142158 0.656441
O O18 0.000000 0.186882 0.632217
O O19 0.735895 0.895782 0.250000
O O20 0.000000 0.898776 0.315329
#
# Coordination Sequence:
#
# PCOD9475554 Si02
#       8
#    16  16  16  16  16  16   4  16
#     4  11  22  36  55  83 119 151 190 232 277 335
#     4  11  21  36  55  77 102 141 192 244 287 338
#     4   9  17  27  45  73 109 139 170 219 278 341
#     4  11  22  36  54  79 109 147 192 234 285 337
#     4   8  14  26  46  75 109 143 174 216 265 326
#     4   9  16  28  47  75 105 135 178 230 282 336
#     4  12  22  36  56  86 116 162 190 220 282 338
#     4   8  13  23  45  78 112 138 170 220 282 338
#
# _framework density 19.5593
#
# number of rings (size 3 to 8) (size 9 to 14) (size 15 to 20)
#    0.000    2.345    2.759    2.276    0.966    1.655 
#    0.000    0.000    0.000    0.828    3.586    5.793 
#    0.000    0.000    0.000    0.000    0.000    0.000 
#
# Total GULP energy -323029.497684 kJ/mol
# GULP energy per Si atom -5569.474098 kJ/mol
# Density = 1.951478 g / cm^3
# Si number density = 19.559300 Si / 1000 Ang^3
#
#
#
# Elastic Constant Matrix: (Units=GPa)
#
#
# Indices 1 2 3 4 5 6 
#
# 1 70.9678 -2.1361 3.4892 0.0000 0.0000 0.0000
# 2 -2.1361 146.3900 54.3805 0.0000 0.0000 0.0000
# 3 3.4892 54.3805 97.5308 0.0000 0.0000 0.0000
# 4 0.0000 0.0000 0.0000 26.5024 0.0000 0.0000
# 5 0.0000 0.0000 0.0000 0.0000 18.5318 0.0000
# 6 0.0000 0.0000 0.0000 0.0000 0.0000 6.7356
#
#
#
# Elastic Compliance Matrix: (Units=1/GPa)
#
#
# Indices 1 2 3 4 5 6 
#
# 1 0.014144 0.000497 -0.000783 0.000000 0.000000 0.000000
# 2 0.000497 0.008633 -0.004831 0.000000 0.000000 0.000000
# 3 -0.000783 -0.004831 0.012975 0.000000 0.000000 0.000000
# 4 0.000000 0.000000 0.000000 0.037732 0.000000 0.000000
# 5 0.000000 0.000000 0.000000 0.000000 0.053961 0.000000
# 6 0.000000 0.000000 0.000000 0.000000 0.000000 0.148465
#
#
# Mechanical properties :
#
#
# Convention : Reuss Voigt Hill
#
# Bulk Modulus (GPa) = 39.18824 47.37285 43.28054
# Shear Modulus (GPa) = 16.96917 27.63097 22.30007
#
# Velocity S-wave (km/s) = 2.94866 3.76264 3.38024
# Velocity P-wave (km/s) = 5.62778 6.56881 6.11642
#
# Compressibility (1/GPa) = 0.02551786
#
# Stress axis : x y z
#
# Youngs Moduli (GPa) = 70.69941 115.83380 77.07120
#
# Poissons Ratio (x) = -0.05761 0.06037
# Poissons Ratio (y) = -0.03517 0.37236
# Poissons Ratio (z) = 0.05538 0.55963
#
# Static dielectric constant tensor:
#      x y z
#    x 1.773480 0.000000 0.000000 
#    y 0.000000 1.714860 0.000000 
#    z 0.000000 0.000000 1.679020 
# 
# From -- ./inp_files/67705.got.cif
#   From: 2010.05.17/outbox.cif.g08.bks.cpg/sg63_34_cif.got.tgz:67705.got - 2010.06.03 15:47:04.
