data_PCOD9475656
_publ_section_title
;
Structure prediction by ZEFSAII (Michael W. Deem and Ramdas Pophale) SiO2 
 PCOD9475656
Probable space group: C M C M
;
_chemical_formula_sum "Si O2"
_cell_formula_units_Z 56
_cell_length_a 11.691845
_cell_length_b 28.184256
_cell_length_c 8.152312
_cell_angle_alpha 90.000000
_cell_angle_beta 90.000000
_cell_angle_gamma 90.000000
_cell_volume 2686.398378
_symmetry_space_group_name_H-M "C M C M"
_symmetry_group_IT_number 63
_symmetry_cell_setting 'orthorhombic'
loop_
_space_group_symop_operation_xyz
x,y,z
-x,-y,1/2+z
x,-y,-z
-x,y,1/2-z
-x,-y,-z
x,y,1/2-z
-x,y,z
x,-y,1/2+z
1/2+x,1/2+y,z
1/2-x,1/2-y,1/2+z
1/2+x,1/2-y,-z
1/2-x,1/2+y,1/2-z
1/2-x,1/2-y,-z
1/2+x,1/2+y,1/2-z
1/2-x,1/2+y,z
1/2+x,1/2-y,1/2+z
loop_
_atom_site_type_symbol
_atom_site_label
_atom_site_fract_x
_atom_site_fract_y
_atom_site_fract_z
Si Si1 0.629516 0.726946 0.941387
Si Si2 0.500000 0.445951 0.447096
Si Si3 0.693397 0.624024 0.056371
Si Si4 0.869860 0.550841 0.447930
O O1 0.623182 0.738268 0.750000
O O2 0.500000 0.738612 0.010489
O O3 0.750000 0.750000 0.000000
O O4 0.649389 0.670855 0.967996
O O5 0.500000 0.500000 0.500000
O O6 0.500000 0.441607 0.250000
O O7 0.393669 0.418492 0.524222
O O8 0.700592 0.635119 0.250000
O O9 0.810145 0.599446 0.997253
O O10 0.817296 0.500000 0.500000
O O11 0.867791 0.551434 0.250000
O O12 0.000000 0.550643 0.507609
#
# Coordination Sequence:
#
# PCOD9475656 Si02
#       4
#    16   8  16  16
#     4  11  25  45  69  97 130 169 217 276 337 403
#     4  12  24  38  58  88 126 166 210 258 315 382
#     4  11  22  38  62  90 123 162 206 259 320 385
#     4   9  19  35  55  83 120 161 204 251 305 370
#
# _framework density 20.845755
#
# number of rings (size 3 to 8) (size 9 to 14) (size 15 to 20)
#    0.000    1.429    1.429    3.857    0.000    7.429 
#    0.000    2.857    0.000    0.000    0.000    0.000 
#    0.000    0.000    0.000    0.000    0.000    0.000 
#
# Total GULP energy -156125.754578 kJ/mol
# GULP energy per Si atom -5575.919806 kJ/mol
# Density = 2.079831 g / cm^3
# Si number density = 20.845755 Si / 1000 Ang^3
#
#
#
# Elastic Constant Matrix: (Units=GPa)
#
#
# Indices 1 2 3 4 5 6 
#
# 1 138.1912 51.8384 11.2785 0.0000 0.0000 0.0000
# 2 51.8384 82.5165 -9.2439 0.0000 0.0000 0.0000
# 3 11.2785 -9.2439 25.6171 0.0000 0.0000 0.0000
# 4 0.0000 0.0000 0.0000 35.1063 0.0000 0.0000
# 5 0.0000 0.0000 0.0000 0.0000 26.2258 0.0000
# 6 0.0000 0.0000 0.0000 0.0000 0.0000 48.5608
#
#
#
# Elastic Compliance Matrix: (Units=1/GPa)
#
#
# Indices 1 2 3 4 5 6 
#
# 1 0.010667 -0.007532 -0.007414 0.000000 0.000000 0.000000
# 2 -0.007532 0.017947 0.009792 0.000000 0.000000 0.000000
# 3 -0.007414 0.009792 0.045834 0.000000 0.000000 0.000000
# 4 0.000000 0.000000 0.000000 0.028485 0.000000 0.000000
# 5 0.000000 0.000000 0.000000 0.000000 0.038130 0.000000
# 6 0.000000 0.000000 0.000000 0.000000 0.000000 0.020593
#
#
# Mechanical properties :
#
#
# Convention : Reuss Voigt Hill
#
# Bulk Modulus (GPa) = 15.59059 39.34120 27.46590
# Shear Modulus (GPa) = 25.86074 34.80871 30.33472
#
# Velocity S-wave (km/s) = 3.52600 4.09078 3.81885
# Velocity P-wave (km/s) = 4.90634 6.42076 5.71394
#
# Compressibility (1/GPa) = 0.06414124
#
# Stress axis : x y z
#
# Youngs Moduli (GPa) = 93.74984 55.71900 21.81779
#
# Poissons Ratio (x) = 0.41965 0.16176
# Poissons Ratio (y) = 0.70608 -0.21364
# Poissons Ratio (z) = 0.69506 -0.54561
#
# Static dielectric constant tensor:
#      x y z
#    x 1.774100 0.000000 0.000000 
#    y 0.000000 1.729810 0.000000 
#    z 0.000000 0.000000 1.740360 
# 
# From -- ./inp_files/2818.got.cif
#   From: 2010.05.17/outbox.cif.g08.bks.cpg/sg63_2_cif.got.tgz:2818.got - 2010.06.03 15:47:04.
