data_PCOD9475318
_publ_section_title
;
Structure prediction by ZEFSAII (Michael W. Deem and Ramdas Pophale) SiO2 
 PCOD9475318
Probable space group: C M C M
;
_chemical_formula_sum "Si O2"
_cell_formula_units_Z 60
_cell_length_a 9.244496
_cell_length_b 27.303518
_cell_length_c 11.807625
_cell_angle_alpha 90.000000
_cell_angle_beta 90.000000
_cell_angle_gamma 90.000000
_cell_volume 2980.330308
_symmetry_space_group_name_H-M "C M C M"
_symmetry_group_IT_number 63
_symmetry_cell_setting 'orthorhombic'
loop_
_space_group_symop_operation_xyz
x,y,z
-x,-y,1/2+z
x,-y,-z
-x,y,1/2-z
-x,-y,-z
x,y,1/2-z
-x,y,z
x,-y,1/2+z
1/2+x,1/2+y,z
1/2-x,1/2-y,1/2+z
1/2+x,1/2-y,-z
1/2-x,1/2+y,1/2-z
1/2-x,1/2-y,-z
1/2+x,1/2+y,1/2-z
1/2-x,1/2+y,z
1/2+x,1/2-y,1/2+z
loop_
_atom_site_type_symbol
_atom_site_label
_atom_site_fract_x
_atom_site_fract_y
_atom_site_fract_z
Si Si1 0.662311 0.446447 0.551894
Si Si2 0.000000 0.787844 0.988882
Si Si3 0.175976 0.599762 0.250000
Si Si4 0.802759 0.858357 0.381472
Si Si5 0.000000 0.156232 0.250000
Si Si6 0.500000 0.814123 0.378740
O O1 0.682256 0.500000 0.500000
O O2 0.500000 0.444983 0.606200
O O3 0.788278 0.432023 0.638701
O O4 0.658117 0.405718 0.453600
O O5 0.131158 0.809751 0.061440
O O6 0.000000 0.813968 0.867014
O O7 0.000000 0.730370 0.966844
O O8 0.329374 0.633654 0.250000
O O9 0.000000 0.615148 0.250000
O O10 0.842829 0.862629 0.250000
O O11 0.634895 0.849006 0.390034
O O12 0.500000 0.793232 0.250000
#
# Coordination Sequence:
#
# PCOD9475318 Si02
#       6
#    16   8   8  16   4   8
#     4  11  24  43  69  97 135 183 228 285 345 418
#     4  12  21  42  69  89 133 174 225 276 335 413
#     4  12  24  44  68 101 135 179 239 278 346 412
#     4  11  23  41  64  98 131 170 223 281 338 410
#     4  12  22  44  70  96 136 186 222 286 350 384
#     4  10  24  41  64  93 132 178 218 274 356 410
#
# _framework density 20.131997999999999
#
# number of rings (size 3 to 8) (size 9 to 14) (size 15 to 20)
#    0.000    0.800    6.000    1.200    3.733    0.533 
#    0.000    0.000    2.933    0.000    0.000    0.000 
#    0.000    0.000    0.000    0.000    0.000    0.000 
#
# Total GULP energy -167059.803670 kJ/mol
# GULP energy per Si atom -5568.660122 kJ/mol
# Density = 2.008618 g / cm^3
# Si number density = 20.131998 Si / 1000 Ang^3
#
#
#
# Elastic Constant Matrix: (Units=GPa)
#
#
# Indices 1 2 3 4 5 6 
#
# 1 159.9885 22.7520 26.3568 0.0000 0.0000 0.0000
# 2 22.7520 84.8995 29.9444 0.0000 0.0000 0.0000
# 3 26.3568 29.9444 109.7802 0.0000 0.0000 0.0000
# 4 0.0000 0.0000 0.0000 -3.4020 0.0000 0.0000
# 5 0.0000 0.0000 0.0000 0.0000 12.9901 0.0000
# 6 0.0000 0.0000 0.0000 0.0000 0.0000 39.4563
#
#
#
# Elastic Compliance Matrix: (Units=1/GPa)
#
#
# Indices 1 2 3 4 5 6 
#
# 1 0.006644 -0.001348 -0.001228 0.000000 0.000000 0.000000
# 2 -0.001348 0.013306 -0.003306 0.000000 0.000000 0.000000
# 3 -0.001228 -0.003306 0.010306 0.000000 0.000000 0.000000
# 4 0.000000 0.000000 0.000000 -0.293944 0.000000 0.000000
# 5 0.000000 0.000000 0.000000 0.000000 0.076982 0.000000
# 6 0.000000 0.000000 0.000000 0.000000 0.000000 0.025345
#
#
# Mechanical properties :
#
#
# Convention : Reuss Voigt Hill
#
# Bulk Modulus (GPa) = 54.07298 56.97494 55.52396
# Shear Modulus (GPa) = -34.85882 28.18320 -3.33781
#
# Velocity S-wave (km/s) = -4.16566 3.74561 -1.28902
# Velocity P-wave (km/s) = 1.94437 6.86063 5.04226
#
# Compressibility (1/GPa) = 0.01849353
#
# Stress axis : x y z
#
# Youngs Moduli (GPa) = 150.50411 75.15542 97.03484
#
# Poissons Ratio (x) = 0.10128 0.11912
# Poissons Ratio (y) = 0.20282 0.32078
# Poissons Ratio (z) = 0.18476 0.24845
#
# Static dielectric constant tensor:
#      x y z
#    x 1.943010 0.000000 0.000000 
#    y 0.000000 1.681990 0.000000 
#    z 0.000000 0.000000 1.725690 
# 
# From -- ./inp_files/16011.got.cif
#   From: 2010.05.17/outbox.cif.g08.bks.cpg/sg63_9_cif.got.tgz:16011.got - 2010.06.03 15:47:04.
