data_PCOD9475045
_publ_section_title
;
Structure prediction by ZEFSAII (Michael W. Deem and Ramdas Pophale) SiO2 
 PCOD9475045
Probable space group: C M C M
;
_chemical_formula_sum "Si O2"
_cell_formula_units_Z 68
_cell_length_a 17.695956
_cell_length_b 22.915586
_cell_length_c 7.372166
_cell_angle_alpha 90.000000
_cell_angle_beta 90.000000
_cell_angle_gamma 90.000000
_cell_volume 2989.510637
_symmetry_space_group_name_H-M "C M C M"
_symmetry_group_IT_number 63
_symmetry_cell_setting 'orthorhombic'
loop_
_space_group_symop_operation_xyz
x,y,z
-x,-y,1/2+z
x,-y,-z
-x,y,1/2-z
-x,-y,-z
x,y,1/2-z
-x,y,z
x,-y,1/2+z
1/2+x,1/2+y,z
1/2-x,1/2-y,1/2+z
1/2+x,1/2-y,-z
1/2-x,1/2+y,1/2-z
1/2-x,1/2-y,-z
1/2+x,1/2+y,1/2-z
1/2-x,1/2+y,z
1/2+x,1/2-y,1/2+z
loop_
_atom_site_type_symbol
_atom_site_label
_atom_site_fract_x
_atom_site_fract_y
_atom_site_fract_z
Si Si1 0.799417 0.436082 0.465404
Si Si2 0.833622 0.223994 0.034462
Si Si3 0.500000 0.571661 0.250000
Si Si4 0.915347 0.661040 0.971688
Si Si5 0.633647 0.408817 0.042177
O O1 0.831811 0.500000 0.500000
O O2 0.793508 0.426998 0.250000
O O3 0.853288 0.385213 0.535863
O O4 0.713505 0.433139 0.531317
O O5 0.841802 0.216587 0.250000
O O6 0.891204 0.274128 0.973127
O O7 0.750000 0.250000 0.000000
O O8 0.851396 0.161163 0.953055
O O9 0.433888 0.575535 0.409345
O O10 0.914044 0.660368 0.750000
O O11 0.000000 0.646511 0.028582
O O12 0.619346 0.428753 0.250000
#
# Coordination Sequence:
#
# PCOD9475045 Si02
#       5
#    16  16   4  16  16
#     4  10  22  41  66  91 124 173 219 272 327 390
#     4  11  20  35  63  94 133 179 218 267 329 395
#     4  12  26  44  70  98 128 176 208 286 346 396
#     4   9  19  35  59  94 133 172 218 267 322 384
#     4  11  24  43  65  99 133 170 225 273 331 405
#
# _framework density 22.746196999999999
#
# number of rings (size 3 to 8) (size 9 to 14) (size 15 to 20)
#    0.000    1.647    3.529    1.059    3.294    0.471 
#    0.000    0.588    0.000    2.824    0.000    0.000 
#    0.000    0.000    0.000    0.000    0.000    0.000 
#
# Total GULP energy -189687.193033 kJ/mol
# GULP energy per Si atom -5579.035089 kJ/mol
# Density = 2.269443 g / cm^3
# Si number density = 22.746197 Si / 1000 Ang^3
#
#
#
# Elastic Constant Matrix: (Units=GPa)
#
#
# Indices 1 2 3 4 5 6 
#
# 1 135.3704 10.6436 25.3218 0.0000 0.0000 0.0000
# 2 10.6436 92.8338 -6.3263 0.0000 0.0000 0.0000
# 3 25.3218 -6.3263 122.9557 0.0000 0.0000 0.0000
# 4 0.0000 0.0000 0.0000 18.6337 0.0000 0.0000
# 5 0.0000 0.0000 0.0000 0.0000 15.3627 0.0000
# 6 0.0000 0.0000 0.0000 0.0000 0.0000 -20.2437
#
#
#
# Elastic Compliance Matrix: (Units=1/GPa)
#
#
# Indices 1 2 3 4 5 6 
#
# 1 0.007775 -0.001004 -0.001653 0.000000 0.000000 0.000000
# 2 -0.001004 0.010940 0.000770 0.000000 0.000000 0.000000
# 3 -0.001653 0.000770 0.008513 0.000000 0.000000 0.000000
# 4 0.000000 0.000000 0.000000 0.053666 0.000000 0.000000
# 5 0.000000 0.000000 0.000000 0.000000 0.065093 0.000000
# 6 0.000000 0.000000 0.000000 0.000000 0.000000 -0.049398
#
#
# Mechanical properties :
#
#
# Convention : Reuss Voigt Hill
#
# Bulk Modulus (GPa) = 42.63836 45.60423 44.12129
# Shear Modulus (GPa) = 46.21868 24.18525 35.20197
#
# Velocity S-wave (km/s) = 4.51258 3.26431 3.93822
# Velocity P-wave (km/s) = 6.77770 5.85665 6.33394
#
# Compressibility (1/GPa) = 0.02345306
#
# Stress axis : x y z
#
# Youngs Moduli (GPa) = 128.61287 91.41183 117.46716
#
# Poissons Ratio (x) = 0.09179 0.19416
# Poissons Ratio (y) = 0.12914 -0.09041
# Poissons Ratio (z) = 0.21259 -0.07035
#
# Static dielectric constant tensor:
#      x y z
#    x 1.808340 0.000000 0.000000 
#    y 0.000000 1.483120 0.000000 
#    z 0.000000 0.000000 1.842390 
# 
# From -- ./inp_files/5850.got.cif
#   From: 2010.05.17/outbox.cif.g08.bks.cpg/sg63_3_cif.got.tgz:5850.got - 2010.06.03 15:47:04.
