data_PCOD9475932
_publ_section_title
;
Structure prediction by ZEFSAII (Michael W. Deem and Ramdas Pophale) SiO2 
 PCOD9475932
Probable space group: C M C M
;
_chemical_formula_sum "Si O2"
_cell_formula_units_Z 72
_cell_length_a 27.699091
_cell_length_b 9.107869
_cell_length_c 13.500853
_cell_angle_alpha 90.000000
_cell_angle_beta 90.000000
_cell_angle_gamma 90.000000
_cell_volume 3405.991040
_symmetry_space_group_name_H-M "C M C M"
_symmetry_group_IT_number 63
_symmetry_cell_setting 'orthorhombic'
loop_
_space_group_symop_operation_xyz
x,y,z
-x,-y,1/2+z
x,-y,-z
-x,y,1/2-z
-x,-y,-z
x,y,1/2-z
-x,y,z
x,-y,1/2+z
1/2+x,1/2+y,z
1/2-x,1/2-y,1/2+z
1/2+x,1/2-y,-z
1/2-x,1/2+y,1/2-z
1/2-x,1/2-y,-z
1/2+x,1/2+y,1/2-z
1/2-x,1/2+y,z
1/2+x,1/2-y,1/2+z
loop_
_atom_site_type_symbol
_atom_site_label
_atom_site_fract_x
_atom_site_fract_y
_atom_site_fract_z
Si Si1 0.821762 0.711832 0.250000
Si Si2 0.106763 0.220474 0.423299
Si Si3 0.500000 0.291828 0.577726
Si Si4 0.000000 0.451234 0.250000
Si Si5 0.892616 0.020868 0.750000
Si Si6 0.201627 0.329496 0.966778
Si Si7 0.601413 0.040341 0.750000
Si Si8 0.000000 0.966135 0.250000
O O1 0.793724 0.686853 0.349735
O O2 0.860083 0.582670 0.250000
O O3 0.849635 0.864871 0.250000
O O4 0.111202 0.081671 0.348553
O O5 0.152345 0.248925 0.494453
O O6 0.105780 0.357075 0.346436
O O7 0.052952 0.211267 0.473087
O O8 0.500000 0.430313 0.651976
O O9 0.500000 0.154809 0.654194
O O10 0.950698 0.534936 0.250000
O O11 0.945769 0.096707 0.750000
O O12 0.199371 0.500000 0.000000
O O13 0.250000 0.250000 0.000000
#
# Coordination Sequence:
#
# PCOD9475932 Si02
#       8
#     8  16   8   4   8  16   8   4
#     4  12  26  43  68  99 132 169 225 277 344 391
#     4   9  18  40  67  96 136 178 224 266 329 394
#     4   7  12  28  63  95 125 180 222 256 318 403
#     4   7  12  23  54  94 128 166 216 254 320 382
#     4   9  20  35  70 101 141 183 221 273 328 404
#     4  12  29  49  71  97 134 173 226 284 338 406
#     4   9  16  35  62  94 132 174 212 270 319 388
#     4   7  12  31  54 100 140 180 224 260 318 390
#
# _framework density 21.139220999999999
#
# number of rings (size 3 to 8) (size 9 to 14) (size 15 to 20)
#    0.000    2.444    2.222    2.667    3.111    3.111 
#    0.000    2.778    0.000    4.000    0.000    0.000 
#    0.000    0.000    0.000    0.000    0.000    0.000 
#
# Total GULP energy -200725.145868 kJ/mol
# GULP energy per Si atom -5575.698496 kJ/mol
# Density = 2.109111 g / cm^3
# Si number density = 21.139221 Si / 1000 Ang^3
#
#
#
# Elastic Constant Matrix: (Units=GPa)
#
#
# Indices 1 2 3 4 5 6 
#
# 1 140.5136 35.1136 65.1862 0.0000 0.0000 0.0000
# 2 35.1136 86.9729 25.4302 0.0000 0.0000 0.0000
# 3 65.1862 25.4302 113.1580 0.0000 0.0000 0.0000
# 4 0.0000 0.0000 0.0000 11.3468 0.0000 0.0000
# 5 0.0000 0.0000 0.0000 0.0000 36.0936 0.0000
# 6 0.0000 0.0000 0.0000 0.0000 0.0000 91.2798
#
#
#
# Elastic Compliance Matrix: (Units=1/GPa)
#
#
# Indices 1 2 3 4 5 6 
#
# 1 0.010224 -0.002575 -0.005311 0.000000 0.000000 0.000000
# 2 -0.002575 0.012955 -0.001428 0.000000 0.000000 0.000000
# 3 -0.005311 -0.001428 0.012218 0.000000 0.000000 0.000000
# 4 0.000000 0.000000 0.000000 0.088130 0.000000 0.000000
# 5 0.000000 0.000000 0.000000 0.000000 0.027706 0.000000
# 6 0.000000 0.000000 0.000000 0.000000 0.000000 0.010955
#
#
# Mechanical properties :
#
#
# Convention : Reuss Voigt Hill
#
# Bulk Modulus (GPa) = 59.63519 65.78938 62.71228
# Shear Modulus (GPa) = 26.82321 42.07166 34.44743
#
# Velocity S-wave (km/s) = 3.56600 4.46603 4.04115
# Velocity P-wave (km/s) = 6.72511 7.60154 7.17671
#
# Compressibility (1/GPa) = 0.01676862
#
# Stress axis : x y z
#
# Youngs Moduli (GPa) = 97.80838 77.19062 81.84871
#
# Poissons Ratio (x) = 0.19875 0.43470
# Poissons Ratio (y) = 0.25184 0.11689
# Poissons Ratio (z) = 0.51947 0.11024
#
# Static dielectric constant tensor:
#      x y z
#    x 1.767370 0.000000 0.000000 
#    y 0.000000 1.760130 0.000000 
#    z 0.000000 0.000000 1.705460 
# 
# From -- ./inp_files/37636.got.cif
#   From: 2010.05.17/outbox.cif.g08.bks.cpg/sg63_19_cif.got.tgz:37636.got - 2010.06.03 15:47:04.
