data_PCOD9475999
_publ_section_title
;
Structure prediction by ZEFSAII (Michael W. Deem and Ramdas Pophale) SiO2 
 PCOD9475999
Probable space group: C M C M
;
_chemical_formula_sum "Si O2"
_cell_formula_units_Z 72
_cell_length_a 13.574100
_cell_length_b 32.815533
_cell_length_c 7.429628
_cell_angle_alpha 90.000000
_cell_angle_beta 90.000000
_cell_angle_gamma 90.000000
_cell_volume 3309.463352
_symmetry_space_group_name_H-M "C M C M"
_symmetry_group_IT_number 63
_symmetry_cell_setting 'orthorhombic'
loop_
_space_group_symop_operation_xyz
x,y,z
-x,-y,1/2+z
x,-y,-z
-x,y,1/2-z
-x,-y,-z
x,y,1/2-z
-x,y,z
x,-y,1/2+z
1/2+x,1/2+y,z
1/2-x,1/2-y,1/2+z
1/2+x,1/2-y,-z
1/2-x,1/2+y,1/2-z
1/2-x,1/2-y,-z
1/2+x,1/2+y,1/2-z
1/2-x,1/2+y,z
1/2+x,1/2-y,1/2+z
loop_
_atom_site_type_symbol
_atom_site_label
_atom_site_fract_x
_atom_site_fract_y
_atom_site_fract_z
Si Si1 0.890111 0.395962 0.529380
Si Si2 0.389893 0.280174 0.467771
Si Si3 0.321996 0.191576 0.460496
Si Si4 0.000000 0.048618 0.464925
Si Si5 0.212877 0.048164 0.465621
O O1 0.887877 0.395767 0.750000
O O2 0.866074 0.350122 0.467050
O O3 0.805133 0.426347 0.466614
O O4 0.000000 0.407986 0.475550
O O5 0.389374 0.279791 0.250000
O O6 0.500000 0.292035 0.526194
O O7 0.364385 0.234203 0.533594
O O8 0.296535 0.307160 0.523583
O O9 0.347784 0.192211 0.250000
O O10 0.894115 0.063022 0.535177
O O11 0.000000 0.055061 0.250000
O O12 0.000000 0.000000 0.500000
O O13 0.210458 0.053071 0.250000
O O14 0.223090 0.000000 0.500000
#
# Coordination Sequence:
#
# PCOD9475999 Si02
#       5
#    16  16  16   8  16
#     4   9  17  30  48  70  95 123 157 194 234 278
#     4   9  17  30  48  68  94 126 156 191 237 284
#     4   9  17  30  48  70  92 121 160 197 229 272
#     4   8  14  26  44  64  86 112 146 182 224 270
#     4   9  17  30  48  69  92 121 153 191 232 276
#
# _framework density 21.755793000000001
#
# number of rings (size 3 to 8) (size 9 to 14) (size 15 to 20)
#    0.000    3.111    0.000    0.667    0.000    3.556 
#    2.000    1.111    0.000    3.333    0.000    0.000 
#    0.000    0.000    0.000    0.000    0.000    0.000 
#
# Total GULP energy -200814.928890 kJ/mol
# GULP energy per Si atom -5578.192469 kJ/mol
# Density = 2.170628 g / cm^3
# Si number density = 21.755793 Si / 1000 Ang^3
#
#
#
# Elastic Constant Matrix: (Units=GPa)
#
#
# Indices 1 2 3 4 5 6 
#
# 1 192.3891 56.3708 -2.6388 0.0000 0.0000 0.0000
# 2 56.3708 46.5605 0.5505 0.0000 0.0000 0.0000
# 3 -2.6388 0.5505 70.5955 0.0000 0.0000 0.0000
# 4 0.0000 0.0000 0.0000 7.6901 0.0000 0.0000
# 5 0.0000 0.0000 0.0000 0.0000 -1.3076 0.0000
# 6 0.0000 0.0000 0.0000 0.0000 0.0000 26.0821
#
#
#
# Elastic Compliance Matrix: (Units=1/GPa)
#
#
# Indices 1 2 3 4 5 6 
#
# 1 0.008065 -0.009769 0.000378 0.000000 0.000000 0.000000
# 2 -0.009769 0.033313 -0.000625 0.000000 0.000000 0.000000
# 3 0.000378 -0.000625 0.014184 0.000000 0.000000 0.000000
# 4 0.000000 0.000000 0.000000 0.130037 0.000000 0.000000
# 5 0.000000 0.000000 0.000000 0.000000 -0.764787 0.000000
# 6 0.000000 0.000000 0.000000 0.000000 0.000000 0.038340
#
#
# Mechanical properties :
#
#
# Convention : Reuss Voigt Hill
#
# Bulk Modulus (GPa) = 28.14600 46.45667 37.30134
# Shear Modulus (GPa) = -9.82374 23.51044 6.84335
#
# Velocity S-wave (km/s) = -2.12727 3.29089 1.77549
# Velocity P-wave (km/s) = 2.63280 5.98665 4.62448
#
# Compressibility (1/GPa) = 0.03552903
#
# Stress axis : x y z
#
# Youngs Moduli (GPa) = 123.98606 30.01874 70.50103
#
# Poissons Ratio (x) = 0.29326 -0.02663
# Poissons Ratio (y) = 1.21126 0.04406
# Poissons Ratio (z) = -0.04682 0.01876
#
# Static dielectric constant tensor:
#      x y z
#    x 1.809810 0.000000 0.000000 
#    y 0.000000 1.748040 0.000000 
#    z 0.000000 0.000000 1.840060 
# 
# From -- ./inp_files/17581.got.cif
#   From: 2010.05.17/outbox.cif.g08.bks.cpg/sg63_9_cif.got.tgz:17581.got - 2010.06.03 15:47:04.
