data_PCOD9475735
_publ_section_title
;
Structure prediction by ZEFSAII (Michael W. Deem and Ramdas Pophale) SiO2 
 PCOD9475735
Probable space group: C M C M
;
_chemical_formula_sum "Si O2"
_cell_formula_units_Z 72
_cell_length_a 14.797849
_cell_length_b 30.761921
_cell_length_c 8.585237
_cell_angle_alpha 90.000000
_cell_angle_beta 90.000000
_cell_angle_gamma 90.000000
_cell_volume 3908.087983
_symmetry_space_group_name_H-M "C M C M"
_symmetry_group_IT_number 63
_symmetry_cell_setting 'orthorhombic'
loop_
_space_group_symop_operation_xyz
x,y,z
-x,-y,1/2+z
x,-y,-z
-x,y,1/2-z
-x,-y,-z
x,y,1/2-z
-x,y,z
x,-y,1/2+z
1/2+x,1/2+y,z
1/2-x,1/2-y,1/2+z
1/2+x,1/2-y,-z
1/2-x,1/2+y,1/2-z
1/2-x,1/2-y,-z
1/2+x,1/2+y,1/2-z
1/2-x,1/2+y,z
1/2+x,1/2-y,1/2+z
loop_
_atom_site_type_symbol
_atom_site_label
_atom_site_fract_x
_atom_site_fract_y
_atom_site_fract_z
Si Si1 0.806717 0.791057 0.563730
Si Si2 0.000000 0.766003 0.437217
Si Si3 0.500000 0.163608 0.436588
Si Si4 0.802182 0.048897 0.938046
Si Si5 0.311097 0.870055 0.437324
Si Si6 0.500000 0.450769 0.062325
O O1 0.804653 0.790280 0.750000
O O2 0.750000 0.750000 0.500000
O O3 0.908937 0.786979 0.503375
O O4 0.757585 0.833917 0.501201
O O5 0.000000 0.769155 0.250000
O O6 0.000000 0.714742 0.480457
O O7 0.500000 0.161571 0.250000
O O8 0.410094 0.141302 0.501159
O O9 0.801703 0.046741 0.750000
O O10 0.725700 0.082734 0.987150
O O11 0.901952 0.066803 0.987124
O O12 0.791031 0.000000 0.000000
O O13 0.311125 0.868169 0.250000
O O14 0.500000 0.450641 0.250000
O O15 0.500000 0.500000 0.000000
#
# Coordination Sequence:
#
# PCOD9475735 Si02
#       6
#    16   8   8  16  16   8
#     4  12  24  39  60  88 119 155 196 242 294 351
#     4  11  23  40  62  88 119 157 200 246 299 352
#     4  11  23  39  61  85 112 154 202 247 300 357
#     4   9  19  35  58  87 118 156 195 239 292 347
#     4  11  23  39  61  88 119 156 199 246 299 357
#     4   8  14  29  52  79 111 145 182 221 273 338
#
# _framework density 18.423331999999998
#
# number of rings (size 3 to 8) (size 9 to 14) (size 15 to 20)
#    0.000    1.556    2.222    3.333    0.000    3.556 
#    0.000    2.778    0.000    2.667    0.000    0.000 
#    0.000    0.000    0.000    0.000    0.000    0.000 
#
# Total GULP energy -201034.180020 kJ/mol
# GULP energy per Si atom -5584.282778 kJ/mol
# Density = 1.838140 g / cm^3
# Si number density = 18.423332 Si / 1000 Ang^3
#
#
#
# Elastic Constant Matrix: (Units=GPa)
#
#
# Indices 1 2 3 4 5 6 
#
# 1 197.7504 86.2877 49.6093 0.0000 0.0000 0.0000
# 2 86.2877 113.4654 33.5938 0.0000 0.0000 0.0000
# 3 49.6093 33.5938 59.7593 0.0000 0.0000 0.0000
# 4 0.0000 0.0000 0.0000 25.7380 0.0000 0.0000
# 5 0.0000 0.0000 0.0000 0.0000 32.5590 0.0000
# 6 0.0000 0.0000 0.0000 0.0000 0.0000 28.9611
#
#
#
# Elastic Compliance Matrix: (Units=1/GPa)
#
#
# Indices 1 2 3 4 5 6 
#
# 1 0.008298 -0.005124 -0.004008 0.000000 0.000000 0.000000
# 2 -0.005124 0.013737 -0.003469 0.000000 0.000000 0.000000
# 3 -0.004008 -0.003469 0.022011 0.000000 0.000000 0.000000
# 4 0.000000 0.000000 0.000000 0.038853 0.000000 0.000000
# 5 0.000000 0.000000 0.000000 0.000000 0.030713 0.000000
# 6 0.000000 0.000000 0.000000 0.000000 0.000000 0.034529
#
#
# Mechanical properties :
#
#
# Convention : Reuss Voigt Hill
#
# Bulk Modulus (GPa) = 53.06565 78.88409 65.97487
# Shear Modulus (GPa) = 27.83576 30.88391 29.35983
#
# Velocity S-wave (km/s) = 3.89124 4.09876 3.99635
# Velocity P-wave (km/s) = 7.00393 8.08148 7.56192
#
# Compressibility (1/GPa) = 0.01884458
#
# Stress axis : x y z
#
# Youngs Moduli (GPa) = 120.50767 72.79735 45.43123
#
# Poissons Ratio (x) = 0.37300 0.18211
# Poissons Ratio (y) = 0.61746 0.15758
# Poissons Ratio (z) = 0.48304 0.25251
#
# Static dielectric constant tensor:
#      x y z
#    x 1.635180 0.000000 0.000000 
#    y 0.000000 1.612040 0.000000 
#    z 0.000000 0.000000 1.622900 
# 
# From -- ./inp_files/4955.got.cif
#   From: 2010.05.17/outbox.cif.g08.bks.cpg/sg63_3_cif.got.tgz:4955.got - 2010.06.03 15:47:04.
