data_PCOD9475578
_publ_section_title
;
Structure prediction by ZEFSAII (Michael W. Deem and Ramdas Pophale) SiO2 
 PCOD9475578
Probable space group: C M C M
;
_chemical_formula_sum "Si O2"
_cell_formula_units_Z 72
_cell_length_a 20.717622
_cell_length_b 15.903944
_cell_length_c 11.043370
_cell_angle_alpha 90.000000
_cell_angle_beta 90.000000
_cell_angle_gamma 90.000000
_cell_volume 3638.700965
_symmetry_space_group_name_H-M "C M C M"
_symmetry_group_IT_number 63
_symmetry_cell_setting 'orthorhombic'
loop_
_space_group_symop_operation_xyz
x,y,z
-x,-y,1/2+z
x,-y,-z
-x,y,1/2-z
-x,-y,-z
x,y,1/2-z
-x,y,z
x,-y,1/2+z
1/2+x,1/2+y,z
1/2-x,1/2-y,1/2+z
1/2+x,1/2-y,-z
1/2-x,1/2+y,1/2-z
1/2-x,1/2-y,-z
1/2+x,1/2+y,1/2-z
1/2-x,1/2+y,z
1/2+x,1/2-y,1/2+z
loop_
_atom_site_type_symbol
_atom_site_label
_atom_site_fract_x
_atom_site_fract_y
_atom_site_fract_z
Si Si1 0.817100 0.819296 0.388866
Si Si2 0.330025 0.138770 0.750000
Si Si3 0.345343 0.343171 0.750000
Si Si4 0.816007 0.366203 0.509875
Si Si5 0.214315 0.454810 0.750000
Si Si6 0.573820 0.399895 0.985591
O O1 0.798148 0.811324 0.250000
O O2 0.827404 0.726758 0.440368
O O3 0.758815 0.862241 0.463363
O O4 0.883463 0.867497 0.403762
O O5 0.326876 0.243213 0.750000
O O6 0.357070 0.123689 0.613417
O O7 0.281914 0.055320 0.750000
O O8 0.281225 0.401739 0.750000
O O9 0.387707 0.367590 0.632728
O O10 0.820208 0.427680 0.624176
O O11 0.500000 0.370298 0.983146
O O12 0.573442 0.500000 0.000000
#
# Coordination Sequence:
#
# PCOD9475578 Si02
#       6
#    16   8   8  16   8  16
#     4  11  21  37  63  85 123 169 206 254 318 382
#     4  12  24  39  63  96 126 174 214 247 323 402
#     4  12  23  44  64  87 130 173 212 256 321 381
#     4  11  21  38  59  93 129 164 207 256 319 388
#     4  12  24  37  63  99 132 167 209 261 316 395
#     4  11  26  42  60  89 123 168 222 264 307 374
#
# _framework density 19.787282000000001
#
# number of rings (size 3 to 8) (size 9 to 14) (size 15 to 20)
#    0.000    0.667    6.667    2.333    4.667    0.444 
#    0.000    0.000    0.000    0.000    0.000    4.667 
#    0.000    0.000    0.000    0.000    0.000    0.000 
#
# Total GULP energy -200508.218113 kJ/mol
# GULP energy per Si atom -5569.672725 kJ/mol
# Density = 1.974224 g / cm^3
# Si number density = 19.787282 Si / 1000 Ang^3
#
#
#
# Elastic Constant Matrix: (Units=GPa)
#
#
# Indices 1 2 3 4 5 6 
#
# 1 60.7372 19.3217 15.8535 0.0000 0.0000 0.0000
# 2 19.3217 90.9209 32.3509 0.0000 0.0000 0.0000
# 3 15.8535 32.3509 129.1836 0.0000 0.0000 0.0000
# 4 0.0000 0.0000 0.0000 7.0207 0.0000 0.0000
# 5 0.0000 0.0000 0.0000 0.0000 59.5223 0.0000
# 6 0.0000 0.0000 0.0000 0.0000 0.0000 23.5927
#
#
#
# Elastic Compliance Matrix: (Units=1/GPa)
#
#
# Indices 1 2 3 4 5 6 
#
# 1 0.017874 -0.003313 -0.001364 0.000000 0.000000 0.000000
# 2 -0.003313 0.012689 -0.002771 0.000000 0.000000 0.000000
# 3 -0.001364 -0.002771 0.008602 0.000000 0.000000 0.000000
# 4 0.000000 0.000000 0.000000 0.142437 0.000000 0.000000
# 5 0.000000 0.000000 0.000000 0.000000 0.016800 0.000000
# 6 0.000000 0.000000 0.000000 0.000000 0.000000 0.042386
#
#
# Mechanical properties :
#
#
# Convention : Reuss Voigt Hill
#
# Bulk Modulus (GPa) = 41.20458 46.21044 43.70751
# Shear Modulus (GPa) = 18.95562 32.24816 25.60189
#
# Velocity S-wave (km/s) = 3.09847 4.04139 3.60092
# Velocity P-wave (km/s) = 5.80255 6.72171 6.27897
#
# Compressibility (1/GPa) = 0.02426915
#
# Stress axis : x y z
#
# Youngs Moduli (GPa) = 55.94610 78.81086 116.24920
#
# Poissons Ratio (x) = 0.26112 0.15854
# Poissons Ratio (y) = 0.18536 0.32212
# Poissons Ratio (z) = 0.07630 0.21838
#
# Static dielectric constant tensor:
#      x y z
#    x 1.737780 0.000000 0.000000 
#    y 0.000000 1.699460 0.000000 
#    z 0.000000 0.000000 1.793970 
# 
# From -- ./inp_files/23633.got.cif
#   From: 2010.05.17/outbox.cif.g08.bks.cpg/sg63_12_cif.got.tgz:23633.got - 2010.06.03 15:47:04.
