data_PCOD9475803
_publ_section_title
;
Structure prediction by ZEFSAII (Michael W. Deem and Ramdas Pophale) SiO2 
 PCOD9475803
Probable space group: C M C M
;
_chemical_formula_sum "Si O2"
_cell_formula_units_Z 80
_cell_length_a 8.858624
_cell_length_b 26.340851
_cell_length_c 20.129218
_cell_angle_alpha 90.000000
_cell_angle_beta 90.000000
_cell_angle_gamma 90.000000
_cell_volume 4697.026103
_symmetry_space_group_name_H-M "C M C M"
_symmetry_group_IT_number 63
_symmetry_cell_setting 'orthorhombic'
loop_
_space_group_symop_operation_xyz
x,y,z
-x,-y,1/2+z
x,-y,-z
-x,y,1/2-z
-x,-y,-z
x,y,1/2-z
-x,y,z
x,-y,1/2+z
1/2+x,1/2+y,z
1/2-x,1/2-y,1/2+z
1/2+x,1/2-y,-z
1/2-x,1/2+y,1/2-z
1/2-x,1/2-y,-z
1/2+x,1/2+y,1/2-z
1/2-x,1/2+y,z
1/2+x,1/2-y,1/2+z
loop_
_atom_site_type_symbol
_atom_site_label
_atom_site_fract_x
_atom_site_fract_y
_atom_site_fract_z
Si Si1 0.180085 0.401124 0.395890
Si Si2 0.680080 0.120279 0.446111
Si Si3 0.179513 0.195068 0.672380
Si Si4 0.816641 0.510333 0.423534
Si Si5 0.679414 0.271703 0.931987
O O1 0.201068 0.388223 0.474368
O O2 0.266561 0.359871 0.353073
O O3 0.230040 0.459650 0.384679
O O4 0.000000 0.397520 0.383295
O O5 0.500000 0.127082 0.435966
O O6 0.729930 0.068118 0.409625
O O7 0.766566 0.170405 0.424682
O O8 0.214325 0.201073 0.750000
O O9 0.261780 0.236948 0.627761
O O10 0.000000 0.199769 0.662909
O O11 0.773171 0.500000 0.500000
O O12 0.000000 0.510537 0.422057
O O13 0.500000 0.268700 0.936616
O O14 0.750000 0.250000 0.000000
#
# Coordination Sequence:
#
# PCOD9475803 Si02
#       5
#    16  16  16  16  16
#     4   9  16  29  52  78 105 138 173 213 258 311
#     4   9  16  29  51  79 109 139 171 215 263 309
#     4  11  24  39  54  75 106 143 181 224 274 324
#     4   7  12  24  45  75 106 134 166 203 250 304
#     4  12  23  35  54  79 108 141 180 225 271 322
#
# _framework density 17.032053999999999
#
# number of rings (size 3 to 8) (size 9 to 14) (size 15 to 20)
#    0.000    2.400    2.000    4.800    0.000    1.600 
#    0.000    1.000    0.000    4.800    0.000    2.800 
#    0.000    0.000    0.000    0.000    0.000    0.000 
#
# Total GULP energy -222926.504273 kJ/mol
# GULP energy per Si atom -5573.162607 kJ/mol
# Density = 1.699329 g / cm^3
# Si number density = 17.032054 Si / 1000 Ang^3
#
#
#
# Elastic Constant Matrix: (Units=GPa)
#
#
# Indices 1 2 3 4 5 6 
#
# 1 70.7830 73.1209 55.5787 0.0000 0.0000 0.0000
# 2 73.1209 195.2123 62.6139 0.0000 0.0000 0.0000
# 3 55.5787 62.6139 61.5004 0.0000 0.0000 0.0000
# 4 0.0000 0.0000 0.0000 14.2683 0.0000 0.0000
# 5 0.0000 0.0000 0.0000 0.0000 19.1041 0.0000
# 6 0.0000 0.0000 0.0000 0.0000 0.0000 29.9773
#
#
#
# Elastic Compliance Matrix: (Units=1/GPa)
#
#
# Indices 1 2 3 4 5 6 
#
# 1 0.054125 -0.006808 -0.041982 0.000000 0.000000 0.000000
# 2 -0.006808 0.008463 -0.002464 0.000000 0.000000 0.000000
# 3 -0.041982 -0.002464 0.056708 0.000000 0.000000 0.000000
# 4 0.000000 0.000000 0.000000 0.070086 0.000000 0.000000
# 5 0.000000 0.000000 0.000000 0.000000 0.052345 0.000000
# 6 0.000000 0.000000 0.000000 0.000000 0.000000 0.033359
#
#
# Mechanical properties :
#
#
# Convention : Reuss Voigt Hill
#
# Bulk Modulus (GPa) = 59.56507 78.90252 69.23379
# Shear Modulus (GPa) = 13.04840 21.74874 17.39857
#
# Velocity S-wave (km/s) = 2.77087 3.57729 3.19959
# Velocity P-wave (km/s) = 6.72943 7.96801 7.37477
#
# Compressibility (1/GPa) = 0.01678836
#
# Stress axis : x y z
#
# Youngs Moduli (GPa) = 18.47578 118.16254 17.63413
#
# Poissons Ratio (x) = 0.80445 0.74032
# Poissons Ratio (y) = 0.12578 0.04345
# Poissons Ratio (z) = 0.77565 0.29112
#
# Static dielectric constant tensor:
#      x y z
#    x 1.569800 0.000000 0.000000 
#    y 0.000000 1.617380 0.000000 
#    z 0.000000 0.000000 1.797430 
# 
# From -- ./inp_files/40518.got.cif
#   From: 2010.05.17/outbox.cif.g08.bks.cpg/sg63_21_cif.got.tgz:40518.got - 2010.06.03 15:47:04.
