data_PCOD9475583
_publ_section_title
;
Structure prediction by ZEFSAII (Michael W. Deem and Ramdas Pophale) SiO2 
 PCOD9475583
Probable space group: C M C M
;
_chemical_formula_sum "Si O2"
_cell_formula_units_Z 112
_cell_length_a 19.898260
_cell_length_b 12.427050
_cell_length_c 24.323471
_cell_angle_alpha 90.000000
_cell_angle_beta 90.000000
_cell_angle_gamma 90.000000
_cell_volume 6014.626959
_symmetry_space_group_name_H-M "C M C M"
_symmetry_group_IT_number 63
_symmetry_cell_setting 'orthorhombic'
loop_
_space_group_symop_operation_xyz
x,y,z
-x,-y,1/2+z
x,-y,-z
-x,y,1/2-z
-x,-y,-z
x,y,1/2-z
-x,y,z
x,-y,1/2+z
1/2+x,1/2+y,z
1/2-x,1/2-y,1/2+z
1/2+x,1/2-y,-z
1/2-x,1/2+y,1/2-z
1/2-x,1/2-y,-z
1/2+x,1/2+y,1/2-z
1/2-x,1/2+y,z
1/2+x,1/2-y,1/2+z
loop_
_atom_site_type_symbol
_atom_site_label
_atom_site_fract_x
_atom_site_fract_y
_atom_site_fract_z
Si Si1 0.644422 0.853273 0.378919
Si Si2 0.309403 0.079973 0.113653
Si Si3 0.336624 0.509611 0.857001
Si Si4 0.776896 0.220657 0.686588
Si Si5 0.921977 0.099120 0.542349
Si Si6 0.424476 0.682830 0.187143
Si Si7 0.326470 0.792738 0.996390
O O1 0.709104 0.804652 0.347126
O O2 0.585195 0.782000 0.354247
O O3 0.654062 0.836478 0.443817
O O4 0.644127 0.980501 0.368622
O O5 0.232885 0.033938 0.116155
O O6 0.311864 0.180818 0.154926
O O7 0.326673 0.120923 0.052778
O O8 0.318188 0.609836 0.818313
O O9 0.386221 0.555654 0.903053
O O10 0.372175 0.410793 0.826995
O O11 0.763744 0.247226 0.750000
O O12 0.877125 0.196761 0.519461
O O13 0.000000 0.129949 0.550913
O O14 0.920569 0.000000 0.500000
O O15 0.414741 0.719206 0.250000
O O16 0.500000 0.639388 0.181745
O O17 0.250000 0.750000 0.000000
#
# Coordination Sequence:
#
# PCOD9475583 Si02
#       7
#    16  16  16  16  16  16  16
#     4  11  23  37  60  86 124 158 198 249 301 368
#     4  11  22  38  61  94 121 162 195 253 312 367
#     4  11  21  39  61  90 124 159 199 258 314 372
#     4  11  22  37  60  92 122 154 201 257 314 364
#     4  11  23  37  60  92 128 164 202 254 315 377
#     4  11  23  40  62  87 118 161 211 253 298 362
#     4  12  20  39  60  91 125 160 205 251 307 373
#
# _framework density 18.621271
#
# number of rings (size 3 to 8) (size 9 to 14) (size 15 to 20)
#    0.000    0.857    4.286    4.286    0.000    4.571 
#    0.000    0.714    0.000    1.714    0.000    0.000 
#    0.000    0.000    0.000    0.000    0.000    0.000 
#
# Total GULP energy -312892.622954 kJ/mol
# GULP energy per Si atom -5587.368267 kJ/mol
# Density = 1.857889 g / cm^3
# Si number density = 18.621271 Si / 1000 Ang^3
#
#
#
# Elastic Constant Matrix: (Units=GPa)
#
#
# Indices 1 2 3 4 5 6 
#
# 1 78.5387 31.1004 15.1402 0.0000 0.0000 0.0000
# 2 31.1004 115.6059 41.7804 0.0000 0.0000 0.0000
# 3 15.1402 41.7804 128.6320 0.0000 0.0000 0.0000
# 4 0.0000 0.0000 0.0000 19.4841 0.0000 0.0000
# 5 0.0000 0.0000 0.0000 0.0000 11.8997 0.0000
# 6 0.0000 0.0000 0.0000 0.0000 0.0000 20.2085
#
#
#
# Elastic Compliance Matrix: (Units=1/GPa)
#
#
# Indices 1 2 3 4 5 6 
#
# 1 0.014278 -0.003664 -0.000491 0.000000 0.000000 0.000000
# 2 -0.003664 0.010741 -0.003057 0.000000 0.000000 0.000000
# 3 -0.000491 -0.003057 0.008825 0.000000 0.000000 0.000000
# 4 0.000000 0.000000 0.000000 0.051324 0.000000 0.000000
# 5 0.000000 0.000000 0.000000 0.000000 0.084036 0.000000
# 6 0.000000 0.000000 0.000000 0.000000 0.000000 0.049484
#
#
# Mechanical properties :
#
#
# Convention : Reuss Voigt Hill
#
# Bulk Modulus (GPa) = 51.49297 55.42428 53.45863
# Shear Modulus (GPa) = 20.86946 25.96881 23.41914
#
# Velocity S-wave (km/s) = 3.35137 3.73846 3.55019
# Velocity P-wave (km/s) = 6.53363 6.96156 6.75099
#
# Compressibility (1/GPa) = 0.01942013
#
# Stress axis : x y z
#
# Youngs Moduli (GPa) = 70.03801 93.10405 113.31558
#
# Poissons Ratio (x) = 0.34111 0.05558
# Poissons Ratio (y) = 0.25660 0.34645
# Poissons Ratio (z) = 0.03435 0.28466
#
# Static dielectric constant tensor:
#      x y z
#    x 1.638590 0.000000 0.000000 
#    y 0.000000 1.653820 0.000000 
#    z 0.000000 0.000000 1.633140 
# 
# From -- ./inp_files/64612.got.cif
#   From: 2010.05.17/outbox.cif.g08.bks.cpg/sg63_33_cif.got.tgz:64612.got - 2010.06.03 15:47:04.
