data_PCOD9475772
_publ_section_title
;
Structure prediction by ZEFSAII (Michael W. Deem and Ramdas Pophale) SiO2 
 PCOD9475772
Probable space group: C M C M
;
_chemical_formula_sum "Si O2"
_cell_formula_units_Z 32
_cell_length_a 7.258647
_cell_length_b 20.936214
_cell_length_c 11.989397
_cell_angle_alpha 90.000000
_cell_angle_beta 90.000000
_cell_angle_gamma 90.000000
_cell_volume 1822.011720
_symmetry_space_group_name_H-M "C M C M"
_symmetry_group_IT_number 63
_symmetry_cell_setting 'orthorhombic'
loop_
_space_group_symop_operation_xyz
x,y,z
-x,-y,1/2+z
x,-y,-z
-x,y,1/2-z
-x,-y,-z
x,y,1/2-z
-x,y,z
x,-y,1/2+z
1/2+x,1/2+y,z
1/2-x,1/2-y,1/2+z
1/2+x,1/2-y,-z
1/2-x,1/2+y,1/2-z
1/2-x,1/2-y,-z
1/2+x,1/2+y,1/2-z
1/2-x,1/2+y,z
1/2+x,1/2-y,1/2+z
loop_
_atom_site_type_symbol
_atom_site_label
_atom_site_fract_x
_atom_site_fract_y
_atom_site_fract_z
Si Si1 0.500000 0.433250 0.936870
Si Si2 0.284823 0.900109 0.750000
Si Si3 0.500000 0.669448 0.630315
Si Si4 0.216984 0.251597 0.250000
O O1 0.677478 0.426476 0.857492
O O2 0.500000 0.500000 0.000000
O O3 0.500000 0.375468 0.025410
O O4 0.500000 0.915071 0.750000
O O5 0.256877 0.823428 0.750000
O O6 0.500000 0.631524 0.750000
O O7 0.678388 0.714885 0.645708
O O8 0.000000 0.262652 0.250000
#
# Coordination Sequence:
#
# PCOD9475772 Si02
#       4
#     8   8   8   8
#     4  11  25  42  64  87 127 174 201 246 307 368
#     4  11  23  42  62  92 124 157 210 259 306 361
#     4   8  21  37  60  93 123 153 210 245 307 361
#     4   9  17  38  58  94 122 155 196 255 312 353
#
# _framework density 17.563003999999999
#
# number of rings (size 3 to 8) (size 9 to 14) (size 15 to 20)
#    1.500    0.500    5.000    0.000    3.500    5.000 
#    0.000    2.500    0.000    0.000    0.000    0.000 
#    0.000    0.000    0.000    0.000    0.000    0.000 
#
# Total GULP energy -89086.858173 kJ/mol
# GULP energy per Si atom -5567.928636 kJ/mol
# Density = 1.752303 g / cm^3
# Si number density = 17.563004 Si / 1000 Ang^3
#
#
#
# Elastic Constant Matrix: (Units=GPa)
#
#
# Indices 1 2 3 4 5 6 
#
# 1 210.8186 65.0813 72.1318 0.0000 0.0000 0.0000
# 2 65.0813 123.4129 74.4545 0.0000 0.0000 0.0000
# 3 72.1318 74.4545 126.3005 0.0000 0.0000 0.0000
# 4 0.0000 0.0000 0.0000 43.0583 0.0000 0.0000
# 5 0.0000 0.0000 0.0000 0.0000 7.1945 0.0000
# 6 0.0000 0.0000 0.0000 0.0000 0.0000 -2.5246
#
#
#
# Elastic Compliance Matrix: (Units=1/GPa)
#
#
# Indices 1 2 3 4 5 6 
#
# 1 0.006127 -0.001738 -0.002474 0.000000 0.000000 0.000000
# 2 -0.001738 0.013068 -0.006711 0.000000 0.000000 0.000000
# 3 -0.002474 -0.006711 0.013287 0.000000 0.000000 0.000000
# 4 0.000000 0.000000 0.000000 0.023224 0.000000 0.000000
# 5 0.000000 0.000000 0.000000 0.000000 0.138994 0.000000
# 6 0.000000 0.000000 0.000000 0.000000 0.000000 -0.396099
#
#
# Mechanical properties :
#
#
# Convention : Reuss Voigt Hill
#
# Bulk Modulus (GPa) = 94.03190 98.20746 96.11968
# Shear Modulus (GPa) = -28.40810 26.13661 -1.13575
#
# Velocity S-wave (km/s) = -4.02617 3.86186 -0.80503
# Velocity P-wave (km/s) = 5.66061 8.71343 7.34733
#
# Compressibility (1/GPa) = 0.01063469
#
# Stress axis : x y z
#
# Youngs Moduli (GPa) = 163.22335 76.52146 75.26149
#
# Poissons Ratio (x) = 0.13300 0.18623
# Poissons Ratio (y) = 0.28369 0.50509
# Poissons Ratio (z) = 0.40388 0.51355
#
# Static dielectric constant tensor:
#      x y z
#    x 1.588100 0.000000 0.000000 
#    y 0.000000 1.575380 0.000000 
#    z 0.000000 0.000000 1.618670 
# 
# From -- ./inp_files/15534.got.cif
#   From: 2010.05.17/outbox.cif.g08.bks.cpg/sg63_8_cif.got.tgz:15534.got - 2010.06.03 15:47:04.
