data_PCOD9475012
_publ_section_title
;
Structure prediction by ZEFSAII (Michael W. Deem and Ramdas Pophale) SiO2 
 PCOD9475012
Probable space group: C M C M
;
_chemical_formula_sum "Si O2"
_cell_formula_units_Z 52
_cell_length_a 7.478515
_cell_length_b 19.945800
_cell_length_c 13.819698
_cell_angle_alpha 90.000000
_cell_angle_beta 90.000000
_cell_angle_gamma 90.000000
_cell_volume 2061.414761
_symmetry_space_group_name_H-M "C M C M"
_symmetry_group_IT_number 63
_symmetry_cell_setting 'orthorhombic'
loop_
_space_group_symop_operation_xyz
x,y,z
-x,-y,1/2+z
x,-y,-z
-x,y,1/2-z
-x,-y,-z
x,y,1/2-z
-x,y,z
x,-y,1/2+z
1/2+x,1/2+y,z
1/2-x,1/2-y,1/2+z
1/2+x,1/2-y,-z
1/2-x,1/2+y,1/2-z
1/2-x,1/2-y,-z
1/2+x,1/2+y,1/2-z
1/2-x,1/2+y,z
1/2+x,1/2-y,1/2+z
loop_
_atom_site_type_symbol
_atom_site_label
_atom_site_fract_x
_atom_site_fract_y
_atom_site_fract_z
Si Si1 0.292612 0.485363 0.637722
Si Si2 0.783519 0.836787 0.928312
Si Si3 0.500000 0.000000 0.000000
Si Si4 0.707452 0.693006 0.856083
O O1 0.275995 0.500081 0.750000
O O2 0.500000 0.493513 0.610862
O O3 0.235431 0.408025 0.617798
O O4 0.157424 0.526142 0.573750
O O5 0.714579 0.773829 0.867550
O O6 0.000000 0.832724 0.927973
O O7 0.718945 0.829568 0.039312
O O8 0.783317 0.675061 0.750000
O O9 0.500000 0.670849 0.855084
#
# Coordination Sequence:
#
# PCOD9475012 Si02
#       4
#    16  16   4  16
#     4  10  22  41  64  89 119 158 203 255 315 376
#     4   9  18  33  53  79 114 155 196 239 294 360
#     4  12  24  40  64  92 120 148 208 272 320 362
#     4   9  17  29  49  80 117 153 192 236 287 349
#
# _framework density 25.225393
#
# number of rings (size 3 to 8) (size 9 to 14) (size 15 to 20)
#    0.000    2.462    0.000    1.846    2.154    1.846 
#    0.000    3.077    0.000    7.385    0.000    0.000 
#    0.000    0.000    0.000    0.000    0.000    0.000 
#
# Total GULP energy -144907.778443 kJ/mol
# GULP energy per Si atom -5573.376094 kJ/mol
# Density = 2.516798 g / cm^3
# Si number density = 25.225393 Si / 1000 Ang^3
#
#
#
# Elastic Constant Matrix: (Units=GPa)
#
#
# Indices 1 2 3 4 5 6 
#
# 1 98.6627 3.7853 35.6558 0.0000 0.0000 0.0000
# 2 3.7853 81.6965 -10.1835 0.0000 0.0000 0.0000
# 3 35.6558 -10.1835 190.4407 0.0000 0.0000 0.0000
# 4 0.0000 0.0000 0.0000 24.4932 0.0000 0.0000
# 5 0.0000 0.0000 0.0000 0.0000 36.1266 0.0000
# 6 0.0000 0.0000 0.0000 0.0000 0.0000 -37.4170
#
#
#
# Elastic Compliance Matrix: (Units=1/GPa)
#
#
# Indices 1 2 3 4 5 6 
#
# 1 0.010918 -0.000766 -0.002085 0.000000 0.000000 0.000000
# 2 -0.000766 0.012376 0.000805 0.000000 0.000000 0.000000
# 3 -0.002085 0.000805 0.005684 0.000000 0.000000 0.000000
# 4 0.000000 0.000000 0.000000 0.040828 0.000000 0.000000
# 5 0.000000 0.000000 0.000000 0.000000 0.027680 0.000000
# 6 0.000000 0.000000 0.000000 0.000000 0.000000 -0.026726
#
#
# Mechanical properties :
#
#
# Convention : Reuss Voigt Hill
#
# Bulk Modulus (GPa) = 40.18073 47.70168 43.94120
# Shear Modulus (GPa) = 60.13296 27.41003 43.77150
#
# Velocity S-wave (km/s) = 4.88774 3.29995 4.17011
# Velocity P-wave (km/s) = 6.91496 5.78539 6.37524
#
# Compressibility (1/GPa) = 0.02488755
#
# Stress axis : x y z
#
# Youngs Moduli (GPa) = 91.58770 80.79978 175.91881
#
# Poissons Ratio (x) = 0.06188 0.36683
# Poissons Ratio (y) = 0.07014 -0.14165
# Poissons Ratio (z) = 0.19098 -0.06506
#
# Static dielectric constant tensor:
#      x y z
#    x 1.900260 0.000000 0.000000 
#    y 0.000000 2.118950 0.000000 
#    z 0.000000 0.000000 1.989100 
# 
# From -- ./inp_files/27110.got.cif
#   From: 2010.05.17/outbox.cif.g08.bks.cpg/sg63_14_cif.got.tgz:27110.got - 2010.06.03 15:47:04.
