data_PCOD9475334
_publ_section_title
;
Structure prediction by ZEFSAII (Michael W. Deem and Ramdas Pophale) SiO2 
 PCOD9475334
Probable space group: C M C M
;
_chemical_formula_sum "Si O2"
_cell_formula_units_Z 40
_cell_length_a 28.474126
_cell_length_b 4.967869
_cell_length_c 11.152321
_cell_angle_alpha 90.000000
_cell_angle_beta 90.000000
_cell_angle_gamma 90.000000
_cell_volume 1577.559684
_symmetry_space_group_name_H-M "C M C M"
_symmetry_group_IT_number 63
_symmetry_cell_setting 'orthorhombic'
loop_
_space_group_symop_operation_xyz
x,y,z
-x,-y,1/2+z
x,-y,-z
-x,y,1/2-z
-x,-y,-z
x,y,1/2-z
-x,y,z
x,-y,1/2+z
1/2+x,1/2+y,z
1/2-x,1/2-y,1/2+z
1/2+x,1/2-y,-z
1/2-x,1/2+y,1/2-z
1/2-x,1/2-y,-z
1/2+x,1/2+y,1/2-z
1/2-x,1/2+y,z
1/2+x,1/2-y,1/2+z
loop_
_atom_site_type_symbol
_atom_site_label
_atom_site_fract_x
_atom_site_fract_y
_atom_site_fract_z
Si Si1 0.785431 0.997898 0.250000
Si Si2 0.449070 0.316162 0.882664
Si Si3 0.655179 0.865847 0.380736
O O1 0.746926 0.240095 0.250000
O O2 0.820074 0.075820 0.139794
O O3 0.446902 0.454230 0.750000
O O4 0.500000 0.171772 0.883447
O O5 0.400897 0.154712 0.889708
O O6 0.448669 0.500000 0.000000
O O7 0.662517 0.003765 0.250000
O O8 0.674339 0.000000 0.500000
#
# Coordination Sequence:
#
# PCOD9475334 Si02
#       3
#     8  16  16
#     4  10  24  44  67  94 127 170 220 274 328 382
#     4   9  18  34  57  88 125 165 210 259 316 385
#     4   9  21  39  58  90 123 164 209 266 317 386
#
# _framework density 25.355619999999998
#
# number of rings (size 3 to 8) (size 9 to 14) (size 15 to 20)
#    1.200    1.600    0.000    0.000    0.000    7.200 
#    0.000    0.000    0.000    0.000    0.000    0.000 
#    0.000    0.000    0.000    0.000    0.000    0.000 
#
# Total GULP energy -111385.059190 kJ/mol
# GULP energy per Si atom -5569.252959 kJ/mol
# Density = 2.529791 g / cm^3
# Si number density = 25.355620 Si / 1000 Ang^3
#
#
#
# Elastic Constant Matrix: (Units=GPa)
#
#
# Indices 1 2 3 4 5 6 
#
# 1 165.4519 6.7300 -6.3938 0.0000 0.0000 0.0000
# 2 6.7300 35.9115 31.1702 0.0000 0.0000 0.0000
# 3 -6.3938 31.1702 223.0980 0.0000 0.0000 0.0000
# 4 0.0000 0.0000 0.0000 25.8076 0.0000 0.0000
# 5 0.0000 0.0000 0.0000 0.0000 234.2748 0.0000
# 6 0.0000 0.0000 0.0000 0.0000 0.0000 53.4460
#
#
#
# Elastic Compliance Matrix: (Units=1/GPa)
#
#
# Indices 1 2 3 4 5 6 
#
# 1 0.006119 -0.001478 0.000382 0.000000 0.000000 0.000000
# 2 -0.001478 0.032046 -0.004520 0.000000 0.000000 0.000000
# 3 0.000382 -0.004520 0.005125 0.000000 0.000000 0.000000
# 4 0.000000 0.000000 0.000000 0.038748 0.000000 0.000000
# 5 0.000000 0.000000 0.000000 0.000000 0.004268 0.000000
# 6 0.000000 0.000000 0.000000 0.000000 0.000000 0.018710
#
#
# Mechanical properties :
#
#
# Convention : Reuss Voigt Hill
#
# Bulk Modulus (GPa) = 31.19356 54.16379 42.67868
# Shear Modulus (GPa) = 39.39019 88.90268 64.14644
#
# Velocity S-wave (km/s) = 3.94573 5.92777 5.03524
# Velocity P-wave (km/s) = 5.75218 8.26192 7.11853
#
# Compressibility (1/GPa) = 0.03205790
#
# Stress axis : x y z
#
# Youngs Moduli (GPa) = 163.42706 31.20494 195.13145
#
# Poissons Ratio (x) = 0.04613 -0.07452
# Poissons Ratio (y) = 0.24157 0.88194
# Poissons Ratio (z) = -0.06241 0.14104
#
# Static dielectric constant tensor:
#      x y z
#    x 1.983370 0.000000 0.000000 
#    y 0.000000 2.143500 0.000000 
#    z 0.000000 0.000000 2.007210 
# 
# From -- ./inp_files/24424.got.cif
#   From: 2010.05.17/outbox.cif.g08.bks.cpg/sg63_13_cif.got.tgz:24424.got - 2010.06.03 15:47:04.
