data_PCOD9475167
_publ_section_title
;
Structure prediction by ZEFSAII (Michael W. Deem and Ramdas Pophale) SiO2 
 PCOD9475167
Probable space group: C M C M
;
_chemical_formula_sum "Si O2"
_cell_formula_units_Z 80
_cell_length_a 19.721729
_cell_length_b 9.498159
_cell_length_c 23.768927
_cell_angle_alpha 90.000000
_cell_angle_beta 90.000000
_cell_angle_gamma 90.000000
_cell_volume 4452.398206
_symmetry_space_group_name_H-M "C M C M"
_symmetry_group_IT_number 63
_symmetry_cell_setting 'orthorhombic'
loop_
_space_group_symop_operation_xyz
x,y,z
-x,-y,1/2+z
x,-y,-z
-x,y,1/2-z
-x,-y,-z
x,y,1/2-z
-x,y,z
x,-y,1/2+z
1/2+x,1/2+y,z
1/2-x,1/2-y,1/2+z
1/2+x,1/2-y,-z
1/2-x,1/2+y,1/2-z
1/2-x,1/2-y,-z
1/2+x,1/2+y,1/2-z
1/2-x,1/2+y,z
1/2+x,1/2-y,1/2+z
loop_
_atom_site_type_symbol
_atom_site_label
_atom_site_fract_x
_atom_site_fract_y
_atom_site_fract_z
Si Si1 0.610488 0.987216 0.564503
Si Si2 0.500000 0.556097 0.250000
Si Si3 0.000000 0.449260 0.750000
Si Si4 0.238420 0.882284 0.959161
Si Si5 0.389377 0.799040 0.250000
Si Si6 0.000000 0.011005 0.370418
Si Si7 0.000000 0.306473 0.873432
Si Si8 0.872100 0.222212 0.126009
O O1 0.689126 0.940204 0.561681
O O2 0.565880 0.878749 0.599272
O O3 0.587340 0.000000 0.500000
O O4 0.604604 0.138632 0.593289
O O5 0.438365 0.663876 0.250000
O O6 0.500000 0.466943 0.305101
O O7 0.935166 0.558449 0.750000
O O8 0.000000 0.355943 0.807262
O O9 0.191344 0.841602 0.907229
O O10 0.250000 0.750000 0.000000
O O11 0.206370 0.000000 0.000000
O O12 0.354191 0.775752 0.189402
O O13 0.933675 0.109150 0.377256
O O14 0.000000 0.855643 0.395626
#
# Coordination Sequence:
#
# PCOD9475167 Si02
#       8
#    16   4   4  16   8   8   8  16
#     4  11  23  41  62  90 126 168 209 263 313 379
#     4   7  15  36  52  80 120 154 194 230 310 354
#     4  11  19  38  68  88 128 168 210 252 320 394
#     4  11  23  42  66  88 121 172 214 260 322 381
#     4   9  18  36  65  91 116 169 205 246 307 385
#     4  10  23  34  61  90 127 157 200 269 302 363
#     4  12  24  37  61  99 125 155 219 267 314 372
#     4  11  21  42  65  91 128 168 213 251 319 387
#
# _framework density 17.967845000000001
#
# number of rings (size 3 to 8) (size 9 to 14) (size 15 to 20)
#    0.000    1.400    6.000    1.800    2.800    0.000 
#    0.000    3.500    0.000    0.000    0.000    0.000 
#    0.000    0.000    0.000    0.000    0.000    0.000 
#
# Total GULP energy -222807.231316 kJ/mol
# GULP energy per Si atom -5570.180783 kJ/mol
# Density = 1.792695 g / cm^3
# Si number density = 17.967845 Si / 1000 Ang^3
#
#
#
# Elastic Constant Matrix: (Units=GPa)
#
#
# Indices 1 2 3 4 5 6 
#
# 1 78.3254 39.1134 47.1052 0.0000 0.0000 0.0000
# 2 39.1134 140.4386 51.9587 0.0000 0.0000 0.0000
# 3 47.1052 51.9587 150.6998 0.0000 0.0000 0.0000
# 4 0.0000 0.0000 0.0000 30.6036 0.0000 0.0000
# 5 0.0000 0.0000 0.0000 0.0000 39.8658 0.0000
# 6 0.0000 0.0000 0.0000 0.0000 0.0000 19.3233
#
#
#
# Elastic Compliance Matrix: (Units=1/GPa)
#
#
# Indices 1 2 3 4 5 6 
#
# 1 0.016854 -0.003146 -0.004183 0.000000 0.000000 0.000000
# 2 -0.003146 0.008749 -0.002033 0.000000 0.000000 0.000000
# 3 -0.004183 -0.002033 0.008644 0.000000 0.000000 0.000000
# 4 0.000000 0.000000 0.000000 0.032676 0.000000 0.000000
# 5 0.000000 0.000000 0.000000 0.000000 0.025084 0.000000
# 6 0.000000 0.000000 0.000000 0.000000 0.000000 0.051751
#
#
# Mechanical properties :
#
#
# Convention : Reuss Voigt Hill
#
# Bulk Modulus (GPa) = 64.42457 71.75760 68.09109
# Shear Modulus (GPa) = 29.82251 33.37763 31.60007
#
# Velocity S-wave (km/s) = 4.07845 4.31470 4.19824
# Velocity P-wave (km/s) = 7.62310 8.05267 7.84083
#
# Compressibility (1/GPa) = 0.01552203
#
# Stress axis : x y z
#
# Youngs Moduli (GPa) = 59.33172 114.29877 115.68279
#
# Poissons Ratio (x) = 0.35962 0.48396
# Poissons Ratio (y) = 0.18668 0.23519
# Poissons Ratio (z) = 0.24821 0.23237
#
# Static dielectric constant tensor:
#      x y z
#    x 1.851390 0.000000 0.000000 
#    y 0.000000 1.626740 0.000000 
#    z 0.000000 0.000000 1.656790 
# 
# From -- ./inp_files/64376.got.cif
#   From: 2010.05.17/outbox.cif.g08.bks.cpg/sg63_33_cif.got.tgz:64376.got - 2010.06.03 15:47:04.
