data_PCOD9475170
_publ_section_title
;
Structure prediction by ZEFSAII (Michael W. Deem and Ramdas Pophale) SiO2 
 PCOD9475170
Probable space group: C M C M
;
_chemical_formula_sum "Si O2"
_cell_formula_units_Z 80
_cell_length_a 21.155876
_cell_length_b 11.865544
_cell_length_c 17.921419
_cell_angle_alpha 90.000000
_cell_angle_beta 90.000000
_cell_angle_gamma 90.000000
_cell_volume 4498.741723
_symmetry_space_group_name_H-M "C M C M"
_symmetry_group_IT_number 63
_symmetry_cell_setting 'orthorhombic'
loop_
_space_group_symop_operation_xyz
x,y,z
-x,-y,1/2+z
x,-y,-z
-x,y,1/2-z
-x,-y,-z
x,y,1/2-z
-x,y,z
x,-y,1/2+z
1/2+x,1/2+y,z
1/2-x,1/2-y,1/2+z
1/2+x,1/2-y,-z
1/2-x,1/2+y,1/2-z
1/2-x,1/2-y,-z
1/2+x,1/2+y,1/2-z
1/2-x,1/2+y,z
1/2+x,1/2-y,1/2+z
loop_
_atom_site_type_symbol
_atom_site_label
_atom_site_fract_x
_atom_site_fract_y
_atom_site_fract_z
Si Si1 0.234627 0.725051 0.122541
Si Si2 0.688772 0.394108 0.750000
Si Si3 0.316449 0.116800 0.982893
Si Si4 0.427469 0.042159 0.876597
Si Si5 0.075697 0.364858 0.750000
Si Si6 0.837651 0.152073 0.750000
Si Si7 0.569122 0.768777 0.250000
O O1 0.268394 0.633643 0.176794
O O2 0.284441 0.795332 0.073380
O O3 0.201995 0.812006 0.177897
O O4 0.184550 0.675702 0.063423
O O5 0.658959 0.518111 0.750000
O O6 0.630014 0.308831 0.750000
O O7 0.380295 0.075748 0.942460
O O8 0.279144 0.000000 0.000000
O O9 0.500000 0.020264 0.900748
O O10 0.428711 0.148803 0.820981
O O11 0.405737 0.938401 0.823183
O O12 0.103824 0.239616 0.750000
O O13 0.000000 0.362449 0.750000
O O14 0.500000 0.710739 0.250000
#
# Coordination Sequence:
#
# PCOD9475170 Si02
#       7
#    16   8  16  16   8   8   8
#     4  10  23  36  50  82 112 148 190 231 269 338
#     4  11  20  38  59  79 108 154 194 227 269 338
#     4  11  20  34  55  79 115 146 179 230 288 335
#     4   9  18  34  59  85 111 143 182 234 289 335
#     4   9  19  35  56  86 115 140 185 241 288 338
#     4  11  22  36  55  77 108 146 188 229 281 324
#     4   9  17  33  58  84 105 138 189 237 268 320
#
# _framework density 17.782751000000001
#
# number of rings (size 3 to 8) (size 9 to 14) (size 15 to 20)
#    0.000    2.000    2.000    3.600    0.000    2.400 
#    0.000    1.000    0.000    0.000    0.000    2.800 
#    0.000    0.000    0.000    0.000    0.000    0.000 
#
# Total GULP energy -222835.852272 kJ/mol
# GULP energy per Si atom -5570.896307 kJ/mol
# Density = 1.774228 g / cm^3
# Si number density = 17.782751 Si / 1000 Ang^3
#
#
#
# Elastic Constant Matrix: (Units=GPa)
#
#
# Indices 1 2 3 4 5 6 
#
# 1 71.7866 27.0543 60.3454 0.0000 0.0000 0.0000
# 2 27.0543 98.0013 42.6274 0.0000 0.0000 0.0000
# 3 60.3454 42.6274 139.0100 0.0000 0.0000 0.0000
# 4 0.0000 0.0000 0.0000 16.6217 0.0000 0.0000
# 5 0.0000 0.0000 0.0000 0.0000 29.5981 0.0000
# 6 0.0000 0.0000 0.0000 0.0000 0.0000 -12.3305
#
#
#
# Elastic Compliance Matrix: (Units=1/GPa)
#
#
# Indices 1 2 3 4 5 6 
#
# 1 0.022357 -0.002251 -0.009015 0.000000 0.000000 0.000000
# 2 -0.002251 0.012001 -0.002703 0.000000 0.000000 0.000000
# 3 -0.009015 -0.002703 0.011936 0.000000 0.000000 0.000000
# 4 0.000000 0.000000 0.000000 0.060162 0.000000 0.000000
# 5 0.000000 0.000000 0.000000 0.000000 0.033786 0.000000
# 6 0.000000 0.000000 0.000000 0.000000 0.000000 -0.081100
#
#
# Mechanical properties :
#
#
# Convention : Reuss Voigt Hill
#
# Bulk Modulus (GPa) = 54.47717 63.20580 58.84149
# Shear Modulus (GPa) = 53.64897 18.69591 36.17244
#
# Velocity S-wave (km/s) = 5.49860 3.24597 4.51503
# Velocity P-wave (km/s) = 8.42699 7.04762 7.76798
#
# Compressibility (1/GPa) = 0.01835631
#
# Stress axis : x y z
#
# Youngs Moduli (GPa) = 44.72962 83.32638 83.77911
#
# Poissons Ratio (x) = 0.18753 0.75527
# Poissons Ratio (y) = 0.10066 0.22647
# Poissons Ratio (z) = 0.40324 0.22524
#
# Static dielectric constant tensor:
#      x y z
#    x 1.630570 0.000000 0.000000 
#    y 0.000000 1.623530 0.000000 
#    z 0.000000 0.000000 1.633550 
# 
# From -- ./inp_files/46883.got.cif
#   From: 2010.05.17/outbox.cif.g08.bks.cpg/sg63_24_cif.got.tgz:46883.got - 2010.06.03 15:47:04.
