data_PCOD9475539
_publ_section_title
;
Structure prediction by ZEFSAII (Michael W. Deem and Ramdas Pophale) SiO2 
 PCOD9475539
Probable space group: C M C M
;
_chemical_formula_sum "Si O2"
_cell_formula_units_Z 80
_cell_length_a 25.920198
_cell_length_b 9.815260
_cell_length_c 17.910387
_cell_angle_alpha 90.000000
_cell_angle_beta 90.000000
_cell_angle_gamma 90.000000
_cell_volume 4556.643932
_symmetry_space_group_name_H-M "C M C M"
_symmetry_group_IT_number 63
_symmetry_cell_setting 'orthorhombic'
loop_
_space_group_symop_operation_xyz
x,y,z
-x,-y,1/2+z
x,-y,-z
-x,y,1/2-z
-x,-y,-z
x,y,1/2-z
-x,y,z
x,-y,1/2+z
1/2+x,1/2+y,z
1/2-x,1/2-y,1/2+z
1/2+x,1/2-y,-z
1/2-x,1/2+y,1/2-z
1/2-x,1/2-y,-z
1/2+x,1/2+y,1/2-z
1/2-x,1/2+y,z
1/2+x,1/2-y,1/2+z
loop_
_atom_site_type_symbol
_atom_site_label
_atom_site_fract_x
_atom_site_fract_y
_atom_site_fract_z
Si Si1 0.224626 0.233281 0.582129
Si Si2 0.645929 0.931174 0.660409
Si Si3 0.865507 0.988347 0.414876
Si Si4 0.058529 0.219011 0.839380
Si Si5 0.668889 0.763616 0.162349
O O1 0.250000 0.250000 0.500000
O O2 0.190115 0.360707 0.610098
O O3 0.186617 0.103472 0.585336
O O4 0.271666 0.218249 0.639107
O O5 0.657381 0.913146 0.750000
O O6 0.593032 0.851876 0.643475
O O7 0.642599 0.091468 0.645700
O O8 0.908921 0.907984 0.369572
O O9 0.882372 0.000000 0.500000
O O10 0.853604 0.136250 0.382200
O O11 0.056557 0.208940 0.750000
O O12 0.000000 0.225103 0.867859
O O13 0.664632 0.735738 0.250000
#
# Coordination Sequence:
#
# PCOD9475539 Si02
#       5
#    16  16  16  16  16
#     4  11  21  35  53  81 115 155 190 220 273 336
#     4   9  20  36  55  81 111 146 190 234 278 333
#     4  11  22  37  55  85 117 149 188 237 287 340
#     4   9  19  39  63  81 105 147 194 238 288 344
#     4  11  22  35  55  83 117 152 189 234 281 336
#
# _framework density 17.556781000000001
#
# number of rings (size 3 to 8) (size 9 to 14) (size 15 to 20)
#    0.000    1.800    2.000    2.400    0.000    4.400 
#    0.000    1.000    0.000    4.800    0.000    0.000 
#    0.000    0.000    0.000    0.000    0.000    0.000 
#
# Total GULP energy -223284.840631 kJ/mol
# GULP energy per Si atom -5582.121016 kJ/mol
# Density = 1.751682 g / cm^3
# Si number density = 17.556781 Si / 1000 Ang^3
#
#
#
# Elastic Constant Matrix: (Units=GPa)
#
#
# Indices 1 2 3 4 5 6 
#
# 1 122.7202 57.5208 29.4738 0.0000 0.0000 0.0000
# 2 57.5208 130.8776 46.8229 0.0000 0.0000 0.0000
# 3 29.4738 46.8229 50.9732 0.0000 0.0000 0.0000
# 4 0.0000 0.0000 0.0000 16.7615 0.0000 0.0000
# 5 0.0000 0.0000 0.0000 0.0000 19.6259 0.0000
# 6 0.0000 0.0000 0.0000 0.0000 0.0000 1.5654
#
#
#
# Elastic Compliance Matrix: (Units=1/GPa)
#
#
# Indices 1 2 3 4 5 6 
#
# 1 0.010512 -0.003643 -0.002732 0.000000 0.000000 0.000000
# 2 -0.003643 0.012643 -0.009507 0.000000 0.000000 0.000000
# 3 -0.002732 -0.009507 0.029931 0.000000 0.000000 0.000000
# 4 0.000000 0.000000 0.000000 0.059661 0.000000 0.000000
# 5 0.000000 0.000000 0.000000 0.000000 0.050953 0.000000
# 6 0.000000 0.000000 0.000000 0.000000 0.000000 0.638813
#
#
# Mechanical properties :
#
#
# Convention : Reuss Voigt Hill
#
# Bulk Modulus (GPa) = 46.90019 63.57846 55.23932
# Shear Modulus (GPa) = 5.94258 18.97412 12.45835
#
# Velocity S-wave (km/s) = 1.84177 3.29101 2.66673
# Velocity P-wave (km/s) = 5.59413 7.12269 6.40418
#
# Compressibility (1/GPa) = 0.02132187
#
# Stress axis : x y z
#
# Youngs Moduli (GPa) = 95.12772 79.09500 33.40975
#
# Poissons Ratio (x) = 0.28811 0.09129
# Poissons Ratio (y) = 0.34651 0.31764
# Poissons Ratio (z) = 0.25992 0.75199
#
# Static dielectric constant tensor:
#      x y z
#    x 1.963670 0.000000 0.000000 
#    y 0.000000 1.622110 0.000000 
#    z 0.000000 0.000000 1.607240 
# 
# From -- ./inp_files/48773.got.cif
#   From: 2010.05.17/outbox.cif.g08.bks.cpg/sg63_25_cif.got.tgz:48773.got - 2010.06.03 15:47:04.
