data_PCOD9475097
_publ_section_title
;
Structure prediction by ZEFSAII (Michael W. Deem and Ramdas Pophale) SiO2 
 PCOD9475097
Probable space group: C M C M
;
_chemical_formula_sum "Si O2"
_cell_formula_units_Z 64
_cell_length_a 22.219141
_cell_length_b 9.337784
_cell_length_c 14.241995
_cell_angle_alpha 90.000000
_cell_angle_beta 90.000000
_cell_angle_gamma 90.000000
_cell_volume 2954.894078
_symmetry_space_group_name_H-M "C M C M"
_symmetry_group_IT_number 63
_symmetry_cell_setting 'orthorhombic'
loop_
_space_group_symop_operation_xyz
x,y,z
-x,-y,1/2+z
x,-y,-z
-x,y,1/2-z
-x,-y,-z
x,y,1/2-z
-x,y,z
x,-y,1/2+z
1/2+x,1/2+y,z
1/2-x,1/2-y,1/2+z
1/2+x,1/2-y,-z
1/2-x,1/2+y,1/2-z
1/2-x,1/2-y,-z
1/2+x,1/2+y,1/2-z
1/2-x,1/2+y,z
1/2+x,1/2-y,1/2+z
loop_
_atom_site_type_symbol
_atom_site_label
_atom_site_fract_x
_atom_site_fract_y
_atom_site_fract_z
Si Si1 0.356325 0.272193 0.857363
Si Si2 0.066571 0.968008 0.139652
Si Si3 0.203617 0.492026 0.640252
Si Si4 0.814636 0.177935 0.558582
O O1 0.334246 0.302219 0.750000
O O2 0.417246 0.362844 0.866651
O O3 0.353018 0.101444 0.867130
O O4 0.317217 0.326569 0.945525
O O5 0.067707 0.931994 0.250000
O O6 0.121604 0.884512 0.092867
O O7 0.000000 0.937106 0.102851
O O8 0.213522 0.463103 0.750000
O O9 0.190825 0.342944 0.589704
O O10 0.260129 0.585917 0.602497
#
# Coordination Sequence:
#
# PCOD9475097 Si02
#       4
#    16  16  16  16
#     4  10  23  41  61  89 125 164 207 254 305 365
#     4  10  22  42  67  93 122 160 206 254 307 370
#     4  11  23  40  64  95 128 162 204 256 314 372
#     4  12  23  40  64  92 127 165 206 252 309 369
#
# _framework density 21.658982999999999
#
# number of rings (size 3 to 8) (size 9 to 14) (size 15 to 20)
#    0.000    1.250    0.000    6.000    0.000    6.000 
#    0.000    7.500    0.000    7.500    0.000    0.000 
#    0.000    0.000    0.000    0.000    0.000    0.000 
#
# Total GULP energy -178754.782942 kJ/mol
# GULP energy per Si atom -5586.086967 kJ/mol
# Density = 2.160969 g / cm^3
# Si number density = 21.658983 Si / 1000 Ang^3
#
#
#
# Elastic Constant Matrix: (Units=GPa)
#
#
# Indices 1 2 3 4 5 6 
#
# 1 142.9407 86.6731 30.8419 0.0000 0.0000 0.0000
# 2 86.6731 128.5739 21.2042 0.0000 0.0000 0.0000
# 3 30.8419 21.2042 163.6419 0.0000 0.0000 0.0000
# 4 0.0000 0.0000 0.0000 40.9461 0.0000 0.0000
# 5 0.0000 0.0000 0.0000 0.0000 23.0571 0.0000
# 6 0.0000 0.0000 0.0000 0.0000 0.0000 18.5252
#
#
#
# Elastic Compliance Matrix: (Units=1/GPa)
#
#
# Indices 1 2 3 4 5 6 
#
# 1 0.012077 -0.007935 -0.001248 0.000000 0.000000 0.000000
# 2 -0.007935 0.013161 -0.000210 0.000000 0.000000 0.000000
# 3 -0.001248 -0.000210 0.006373 0.000000 0.000000 0.000000
# 4 0.000000 0.000000 0.000000 0.024422 0.000000 0.000000
# 5 0.000000 0.000000 0.000000 0.000000 0.043371 0.000000
# 6 0.000000 0.000000 0.000000 0.000000 0.000000 0.053980
#
#
# Mechanical properties :
#
#
# Convention : Reuss Voigt Hill
#
# Bulk Modulus (GPa) = 77.96973 79.17722 78.57348
# Shear Modulus (GPa) = 28.33725 36.26817 32.30271
#
# Velocity S-wave (km/s) = 3.62102 4.09652 3.86608
# Velocity P-wave (km/s) = 7.31842 7.68186 7.50234
#
# Compressibility (1/GPa) = 0.01282549
#
# Stress axis : x y z
#
# Youngs Moduli (GPa) = 82.80350 75.97918 156.90482
#
# Poissons Ratio (x) = 0.60292 0.19580
# Poissons Ratio (y) = 0.65707 0.03293
# Poissons Ratio (z) = 0.10333 0.01594
#
# Static dielectric constant tensor:
#      x y z
#    x 1.795530 0.000000 0.000000 
#    y 0.000000 1.814060 0.000000 
#    z 0.000000 0.000000 1.844260 
# 
# From -- ./inp_files/36175.got.cif
#   From: 2010.05.17/outbox.cif.g08.bks.cpg/sg63_19_cif.got.tgz:36175.got - 2010.06.03 15:47:04.
