data_PCOD9475184
_publ_section_title
;
Structure prediction by ZEFSAII (Michael W. Deem and Ramdas Pophale) SiO2 
 PCOD9475184
Probable space group: C M C M
;
_chemical_formula_sum "Si O2"
_cell_formula_units_Z 116
_cell_length_a 19.138918
_cell_length_b 11.542206
_cell_length_c 26.438958
_cell_angle_alpha 90.000000
_cell_angle_beta 90.000000
_cell_angle_gamma 90.000000
_cell_volume 5840.506852
_symmetry_space_group_name_H-M "C M C M"
_symmetry_group_IT_number 63
_symmetry_cell_setting 'orthorhombic'
loop_
_space_group_symop_operation_xyz
x,y,z
-x,-y,1/2+z
x,-y,-z
-x,y,1/2-z
-x,-y,-z
x,y,1/2-z
-x,y,z
x,-y,1/2+z
1/2+x,1/2+y,z
1/2-x,1/2-y,1/2+z
1/2+x,1/2-y,-z
1/2-x,1/2+y,1/2-z
1/2-x,1/2-y,-z
1/2+x,1/2+y,1/2-z
1/2-x,1/2+y,z
1/2+x,1/2-y,1/2+z
loop_
_atom_site_type_symbol
_atom_site_label
_atom_site_fract_x
_atom_site_fract_y
_atom_site_fract_z
Si Si1 0.418307 0.884876 0.378684
Si Si2 0.318686 0.442528 0.118588
Si Si3 0.322981 0.301908 0.482549
Si Si4 0.500000 0.716487 0.750000
Si Si5 0.917651 0.128651 0.424378
Si Si6 0.615555 0.224150 0.330892
Si Si7 0.193757 0.494079 0.192070
Si Si8 0.421817 0.109883 0.064762
O O1 0.500000 0.906095 0.365059
O O2 0.412018 0.754349 0.398017
O O3 0.366353 0.912349 0.332502
O O4 0.401966 0.976476 0.424024
O O5 0.305684 0.391356 0.062611
O O6 0.382594 0.531668 0.111219
O O7 0.337968 0.328777 0.149823
O O8 0.255266 0.496922 0.150244
O O9 0.250000 0.250000 0.500000
O O10 0.370097 0.362557 0.525446
O O11 0.368685 0.191356 0.464566
O O12 0.439974 0.725071 0.793327
O O13 0.000000 0.105519 0.434582
O O14 0.578757 0.165726 0.379314
O O15 0.660621 0.121653 0.306937
O O16 0.213015 0.461110 0.250000
O O17 0.500000 0.115228 0.042775
#
# Coordination Sequence:
#
# PCOD9475184 Si02
#       8
#    16  16  16   4  16  16  16  16
#     4   9  21  40  67  98 131 172 215 273 333 388
#     4  11  27  44  63  94 134 173 218 268 332 389
#     4  11  24  41  66  96 128 173 221 275 329 388
#     4  12  20  40  72 100 128 154 234 270 326 402
#     4  11  25  46  67  94 134 181 223 264 329 408
#     4  10  23  39  66  97 124 165 213 276 324 382
#     4  11  24  41  68  95 132 172 217 278 332 399
#     4   9  18  37  63  95 129 161 208 272 330 371
#
# _framework density 19.86129
#
# number of rings (size 3 to 8) (size 9 to 14) (size 15 to 20)
#    0.000    1.655    1.379    1.655   10.621    2.483 
#    2.483    2.069    0.000    0.828    0.000    0.000 
#    0.000    0.000    0.000    0.000    0.000    0.000 
#
# Total GULP energy -323252.750657 kJ/mol
# GULP energy per Si atom -5573.323287 kJ/mol
# Density = 1.981608 g / cm^3
# Si number density = 19.861290 Si / 1000 Ang^3
#
#
#
# Elastic Constant Matrix: (Units=GPa)
#
#
# Indices 1 2 3 4 5 6 
#
# 1 102.5318 6.7209 47.9321 0.0000 0.0000 0.0000
# 2 6.7209 39.0581 4.9057 0.0000 0.0000 0.0000
# 3 47.9321 4.9057 85.5343 0.0000 0.0000 0.0000
# 4 0.0000 0.0000 0.0000 15.8832 0.0000 0.0000
# 5 0.0000 0.0000 0.0000 0.0000 42.0872 0.0000
# 6 0.0000 0.0000 0.0000 0.0000 0.0000 11.6244
#
#
#
# Elastic Compliance Matrix: (Units=1/GPa)
#
#
# Indices 1 2 3 4 5 6 
#
# 1 0.013286 -0.001361 -0.007367 0.000000 0.000000 0.000000
# 2 -0.001361 0.025928 -0.000724 0.000000 0.000000 0.000000
# 3 -0.007367 -0.000724 0.015861 0.000000 0.000000 0.000000
# 4 0.000000 0.000000 0.000000 0.062960 0.000000 0.000000
# 5 0.000000 0.000000 0.000000 0.000000 0.023760 0.000000
# 6 0.000000 0.000000 0.000000 0.000000 0.000000 0.086026
#
#
# Mechanical properties :
#
#
# Convention : Reuss Voigt Hill
#
# Bulk Modulus (GPa) = 27.64703 38.47129 33.05916
# Shear Modulus (GPa) = 19.32110 25.08997 22.20554
#
# Velocity S-wave (km/s) = 3.12236 3.55809 3.34732
# Velocity P-wave (km/s) = 5.19125 6.02429 5.62322
#
# Compressibility (1/GPa) = 0.03617025
#
# Stress axis : x y z
#
# Youngs Moduli (GPa) = 75.26463 38.56827 63.04620
#
# Poissons Ratio (x) = 0.05249 0.46449
# Poissons Ratio (y) = 0.10243 0.04567
# Poissons Ratio (z) = 0.55451 0.02794
#
# Static dielectric constant tensor:
#      x y z
#    x 1.712450 0.000000 0.000000 
#    y 0.000000 1.715120 0.000000 
#    z 0.000000 0.000000 1.645240 
# 
# From -- ./inp_files/70042.got.cif
#   From: 2010.05.17/outbox.cif.g08.bks.cpg/sg63_36_cif.got.tgz:70042.got - 2010.06.03 15:47:04.
