data_PCOD9475175
_publ_section_title
;
Structure prediction by ZEFSAII (Michael W. Deem and Ramdas Pophale) SiO2 
 PCOD9475175
Probable space group: C M C M
;
_chemical_formula_sum "Si O2"
_cell_formula_units_Z 64
_cell_length_a 15.805491
_cell_length_b 11.571981
_cell_length_c 17.617331
_cell_angle_alpha 90.000000
_cell_angle_beta 90.000000
_cell_angle_gamma 90.000000
_cell_volume 3222.224666
_symmetry_space_group_name_H-M "C M C M"
_symmetry_group_IT_number 63
_symmetry_cell_setting 'orthorhombic'
loop_
_space_group_symop_operation_xyz
x,y,z
-x,-y,1/2+z
x,-y,-z
-x,y,1/2-z
-x,-y,-z
x,y,1/2-z
-x,y,z
x,-y,1/2+z
1/2+x,1/2+y,z
1/2-x,1/2-y,1/2+z
1/2+x,1/2-y,-z
1/2-x,1/2+y,1/2-z
1/2-x,1/2-y,-z
1/2+x,1/2+y,1/2-z
1/2-x,1/2+y,z
1/2+x,1/2-y,1/2+z
loop_
_atom_site_type_symbol
_atom_site_label
_atom_site_fract_x
_atom_site_fract_y
_atom_site_fract_z
Si Si1 0.144339 0.837369 0.750000
Si Si2 0.000000 0.739020 0.250000
Si Si3 0.500000 0.052677 0.381874
Si Si4 0.500000 0.858050 0.250000
Si Si5 0.265051 0.782741 0.121512
Si Si6 0.839304 0.382899 0.984023
Si Si7 0.338021 0.402940 0.250000
O O1 0.078164 0.731602 0.750000
O O2 0.201064 0.815617 0.676716
O O3 0.120318 0.970729 0.750000
O O4 0.000000 0.658681 0.176427
O O5 0.085414 0.812825 0.250000
O O6 0.580691 0.069861 0.436866
O O7 0.500000 0.941049 0.325175
O O8 0.199167 0.718996 0.066674
O O9 0.220788 0.876957 0.176237
O O10 0.340931 0.829570 0.068617
O O11 0.784946 0.500000 0.000000
#
# Coordination Sequence:
#
# PCOD9475175 Si02
#       7
#     8   4   8   4  16  16   8
#     4  11  23  40  60  88 123 163 212 264 312 373
#     4  11  21  40  64  90 117 167 222 242 316 377
#     4  11  23  40  67  89 129 162 213 269 311 381
#     4  11  25  40  62  98 121 167 216 270 322 371
#     4  10  23  38  61  93 126 163 216 252 323 380
#     4  11  21  38  61  93 126 164 206 265 317 375
#     4  11  21  42  66  88 129 171 208 262 310 385
#
# _framework density 19.862054000000001
#
# number of rings (size 3 to 8) (size 9 to 14) (size 15 to 20)
#    0.000    1.250    2.500    3.750    0.000    3.000 
#    0.000    0.000    0.000    1.500    0.000    0.000 
#    0.000    0.000    0.000    0.000    0.000    0.000 
#
# Total GULP energy -178221.880067 kJ/mol
# GULP energy per Si atom -5569.433752 kJ/mol
# Density = 1.981685 g / cm^3
# Si number density = 19.862054 Si / 1000 Ang^3
#
#
#
# Elastic Constant Matrix: (Units=GPa)
#
#
# Indices 1 2 3 4 5 6 
#
# 1 70.9702 30.5001 50.6053 0.0000 0.0000 0.0000
# 2 30.5001 130.8027 58.1974 0.0000 0.0000 0.0000
# 3 50.6053 58.1974 166.3257 0.0000 0.0000 0.0000
# 4 0.0000 0.0000 0.0000 8.2823 0.0000 0.0000
# 5 0.0000 0.0000 0.0000 0.0000 36.2825 0.0000
# 6 0.0000 0.0000 0.0000 0.0000 0.0000 -66.9732
#
#
#
# Elastic Compliance Matrix: (Units=1/GPa)
#
#
# Indices 1 2 3 4 5 6 
#
# 1 0.018487 -0.002142 -0.004875 0.000000 0.000000 0.000000
# 2 -0.002142 0.009303 -0.002603 0.000000 0.000000 0.000000
# 3 -0.004875 -0.002603 0.008407 0.000000 0.000000 0.000000
# 4 0.000000 0.000000 0.000000 0.120739 0.000000 0.000000
# 5 0.000000 0.000000 0.000000 0.000000 0.027561 0.000000
# 6 0.000000 0.000000 0.000000 0.000000 0.000000 -0.014931
#
#
# Mechanical properties :
#
#
# Convention : Reuss Voigt Hill
#
# Bulk Modulus (GPa) = 58.97738 71.85601 65.41670
# Shear Modulus (GPa) = 25.71233 10.77136 18.24185
#
# Velocity S-wave (km/s) = 3.60188 2.33128 3.03384
# Velocity P-wave (km/s) = 6.85974 6.59565 6.72899
#
# Compressibility (1/GPa) = 0.01695565
#
# Stress axis : x y z
#
# Youngs Moduli (GPa) = 54.09134 107.49434 118.95349
#
# Poissons Ratio (x) = 0.23021 0.57996
# Poissons Ratio (y) = 0.11584 0.30969
# Poissons Ratio (z) = 0.26372 0.27986
#
# Static dielectric constant tensor:
#      x y z
#    x 1.750120 0.000000 0.000000 
#    y 0.000000 1.712420 0.000000 
#    z 0.000000 0.000000 1.787030 
# 
# From -- ./inp_files/43522.got.cif
#   From: 2010.05.17/outbox.cif.g08.bks.cpg/sg63_22_cif.got.tgz:43522.got - 2010.06.03 15:47:04.
