data_PCOD9475649
_publ_section_title
;
Structure prediction by ZEFSAII (Michael W. Deem and Ramdas Pophale) SiO2 
 PCOD9475649
Probable space group: C M C M
;
_chemical_formula_sum "Si O2"
_cell_formula_units_Z 80
_cell_length_a 27.148052
_cell_length_b 8.930805
_cell_length_c 15.540591
_cell_angle_alpha 90.000000
_cell_angle_beta 90.000000
_cell_angle_gamma 90.000000
_cell_volume 3767.877806
_symmetry_space_group_name_H-M "C M C M"
_symmetry_group_IT_number 63
_symmetry_cell_setting 'orthorhombic'
loop_
_space_group_symop_operation_xyz
x,y,z
-x,-y,1/2+z
x,-y,-z
-x,y,1/2-z
-x,-y,-z
x,y,1/2-z
-x,y,z
x,-y,1/2+z
1/2+x,1/2+y,z
1/2-x,1/2-y,1/2+z
1/2+x,1/2-y,-z
1/2-x,1/2+y,1/2-z
1/2-x,1/2-y,-z
1/2+x,1/2+y,1/2-z
1/2-x,1/2+y,z
1/2+x,1/2-y,1/2+z
loop_
_atom_site_type_symbol
_atom_site_label
_atom_site_fract_x
_atom_site_fract_y
_atom_site_fract_z
Si Si1 0.500000 0.739059 0.350484
Si Si2 0.000000 0.874357 0.149536
Si Si3 0.892405 0.234009 0.145183
Si Si4 0.707094 0.238042 0.152265
Si Si5 0.297915 0.081129 0.590981
Si Si6 0.893265 0.115340 0.855248
O O1 0.500000 0.783525 0.250000
O O2 0.500000 0.556579 0.351721
O O3 0.553228 0.785497 0.385506
O O4 0.946885 0.830379 0.112064
O O5 0.000000 0.827936 0.250000
O O6 0.891945 0.240086 0.250000
O O7 0.847785 0.331082 0.110848
O O8 0.886291 0.058907 0.121539
O O9 0.711259 0.295672 0.250000
O O10 0.709202 0.059753 0.153625
O O11 0.751926 0.308176 0.100110
O O12 0.653978 0.290522 0.117244
O O13 0.299608 0.000000 0.500000
O O14 0.895771 0.121322 0.750000
#
# Coordination Sequence:
#
# PCOD9475649 Si02
#       6
#     8   8  16  16  16  16
#     4   7  12  24  50  81 105 134 179 225 266 315
#     4   7  10  22  45  79 112 132 158 211 270 311
#     4   9  16  32  56  81 107 141 183 226 269 323
#     4  11  22  38  58  80 104 139 184 227 270 326
#     4  12  25  39  54  78 110 144 179 225 282 336
#     4   8  15  28  53  83 108 133 170 218 266 312
#
# _framework density 21.232111
#
# number of rings (size 3 to 8) (size 9 to 14) (size 15 to 20)
#    0.000    2.600    0.000    6.000    0.000    1.600 
#    0.000    1.500    0.000    3.600    0.000    4.900 
#    0.000    0.000    0.000    0.000    0.000    0.000 
#
# Total GULP energy -223205.814546 kJ/mol
# GULP energy per Si atom -5580.145364 kJ/mol
# Density = 2.118379 g / cm^3
# Si number density = 21.232111 Si / 1000 Ang^3
#
#
#
# Elastic Constant Matrix: (Units=GPa)
#
#
# Indices 1 2 3 4 5 6 
#
# 1 207.1548 63.8394 18.2285 0.0000 0.0000 0.0000
# 2 63.8394 58.8092 3.9351 0.0000 0.0000 0.0000
# 3 18.2285 3.9351 42.9128 0.0000 0.0000 0.0000
# 4 0.0000 0.0000 0.0000 13.4190 0.0000 0.0000
# 5 0.0000 0.0000 0.0000 0.0000 -14.0277 0.0000
# 6 0.0000 0.0000 0.0000 0.0000 0.0000 -7.8239
#
#
#
# Elastic Compliance Matrix: (Units=1/GPa)
#
#
# Indices 1 2 3 4 5 6 
#
# 1 0.007503 -0.007980 -0.002455 0.000000 0.000000 0.000000
# 2 -0.007980 0.025597 0.001043 0.000000 0.000000 0.000000
# 3 -0.002455 0.001043 0.024250 0.000000 0.000000 0.000000
# 4 0.000000 0.000000 0.000000 0.074521 0.000000 0.000000
# 5 0.000000 0.000000 0.000000 0.000000 -0.071287 0.000000
# 6 0.000000 0.000000 0.000000 0.000000 0.000000 -0.127814
#
#
# Mechanical properties :
#
#
# Convention : Reuss Voigt Hill
#
# Bulk Modulus (GPa) = 25.93053 53.43141 39.68097
# Shear Modulus (GPa) = -140.48822 13.17173 -63.65824
#
# Velocity S-wave (km/s) = -8.14318 2.49342 -5.48153
# Velocity P-wave (km/s) = 8.72788 5.78874 4.61878
#
# Compressibility (1/GPa) = 0.03856458
#
# Stress axis : x y z
#
# Youngs Moduli (GPa) = 133.28771 39.06715 41.23644
#
# Poissons Ratio (x) = 0.31176 0.10124
# Poissons Ratio (y) = 1.06364 -0.04299
# Poissons Ratio (z) = 0.32725 -0.04073
#
# Static dielectric constant tensor:
#      x y z
#    x 1.784080 0.000000 0.000000 
#    y 0.000000 1.721760 0.000000 
#    z 0.000000 0.000000 1.841660 
# 
# From -- ./inp_files/58009.got.cif
#   From: 2010.05.17/outbox.cif.g08.bks.cpg/sg63_30_cif.got.tgz:58009.got - 2010.06.03 15:47:04.
