data_PCOD9475748
_publ_section_title
;
Structure prediction by ZEFSAII (Michael W. Deem and Ramdas Pophale) SiO2 
 PCOD9475748
Probable space group: C M C M
;
_chemical_formula_sum "Si O2"
_cell_formula_units_Z 48
_cell_length_a 12.656956
_cell_length_b 15.988978
_cell_length_c 12.391935
_cell_angle_alpha 90.000000
_cell_angle_beta 90.000000
_cell_angle_gamma 90.000000
_cell_volume 2507.778080
_symmetry_space_group_name_H-M "C M C M"
_symmetry_group_IT_number 63
_symmetry_cell_setting 'orthorhombic'
loop_
_space_group_symop_operation_xyz
x,y,z
-x,-y,1/2+z
x,-y,-z
-x,y,1/2-z
-x,-y,-z
x,y,1/2-z
-x,y,z
x,-y,1/2+z
1/2+x,1/2+y,z
1/2-x,1/2-y,1/2+z
1/2+x,1/2-y,-z
1/2-x,1/2+y,1/2-z
1/2-x,1/2-y,-z
1/2+x,1/2+y,1/2-z
1/2-x,1/2+y,z
1/2+x,1/2-y,1/2+z
loop_
_atom_site_type_symbol
_atom_site_label
_atom_site_fract_x
_atom_site_fract_y
_atom_site_fract_z
Si Si1 0.678922 0.757949 0.250000
Si Si2 0.324460 0.096548 0.250000
Si Si3 0.811710 0.929554 0.250000
Si Si4 0.000000 0.866700 0.366708
Si Si5 0.000000 0.748387 0.928478
Si Si6 0.500000 0.916129 0.931812
O O1 0.765373 0.685067 0.250000
O O2 0.732895 0.849876 0.250000
O O3 0.602950 0.746086 0.353111
O O4 0.398775 0.089537 0.354426
O O5 0.246155 0.017431 0.250000
O O6 0.893111 0.919691 0.350756
O O7 0.000000 0.814603 0.474419
O O8 0.000000 0.815537 0.250000
O O9 0.000000 0.659265 0.985182
O O10 0.500000 0.000000 0.000000
#
# Coordination Sequence:
#
# PCOD9475748 Si02
#       6
#     8   8   8   8   8   8
#     4  11  24  39  62  92 126 165 204 255 304 370
#     4  11  24  41  64  94 122 159 216 247 308 374
#     4   9  20  41  62  88 126 159 200 257 312 356
#     4   8  21  39  63  83 118 164 200 252 309 355
#     4  11  23  40  61  91 126 160 210 251 307 365
#     4  11  24  39  62  92 125 163 203 261 305 366
#
# _framework density 19.140450000000001
#
# number of rings (size 3 to 8) (size 9 to 14) (size 15 to 20)
#    1.000    0.667    0.000    4.000    2.333   13.333 
#    0.000    1.667    0.000    0.000    0.000    0.000 
#    0.000    0.000    0.000    0.000    0.000    0.000 
#
# Total GULP energy -133927.701186 kJ/mol
# GULP energy per Si atom -5580.320883 kJ/mol
# Density = 1.909689 g / cm^3
# Si number density = 19.140450 Si / 1000 Ang^3
#
#
#
# Elastic Constant Matrix: (Units=GPa)
#
#
# Indices 1 2 3 4 5 6 
#
# 1 99.2656 33.5114 42.1096 0.0000 0.0000 0.0000
# 2 33.5114 92.4555 37.3894 0.0000 0.0000 0.0000
# 3 42.1096 37.3894 124.3858 0.0000 0.0000 0.0000
# 4 0.0000 0.0000 0.0000 30.9485 0.0000 0.0000
# 5 0.0000 0.0000 0.0000 0.0000 -2.1276 0.0000
# 6 0.0000 0.0000 0.0000 0.0000 0.0000 27.9967
#
#
#
# Elastic Compliance Matrix: (Units=1/GPa)
#
#
# Indices 1 2 3 4 5 6 
#
# 1 0.012554 -0.003223 -0.003281 0.000000 0.000000 0.000000
# 2 -0.003223 0.013140 -0.002859 0.000000 0.000000 0.000000
# 3 -0.003281 -0.002859 0.010010 0.000000 0.000000 0.000000
# 4 0.000000 0.000000 0.000000 0.032312 0.000000 0.000000
# 5 0.000000 0.000000 0.000000 0.000000 -0.470008 0.000000
# 6 0.000000 0.000000 0.000000 0.000000 0.000000 0.035719
#
#
# Mechanical properties :
#
#
# Convention : Reuss Voigt Hill
#
# Bulk Modulus (GPa) = 58.90089 60.23640 59.56865
# Shear Modulus (GPa) = -14.62467 24.90327 5.13930
#
# Velocity S-wave (km/s) = -2.76718 3.61096 1.64039
# Velocity P-wave (km/s) = 4.54203 6.99460 5.89723
#
# Compressibility (1/GPa) = 0.01697767
#
# Stress axis : x y z
#
# Youngs Moduli (GPa) = 79.65535 76.10093 99.90429
#
# Poissons Ratio (x) = 0.24531 0.32780
# Poissons Ratio (y) = 0.25677 0.28559
# Poissons Ratio (z) = 0.26136 0.21755
#
# Static dielectric constant tensor:
#      x y z
#    x 1.677380 0.000000 0.000000 
#    y 0.000000 1.668640 0.000000 
#    z 0.000000 0.000000 1.638620 
# 
# From -- ./inp_files/18573.got.cif
#   From: 2010.05.17/outbox.cif.g08.bks.cpg/sg63_10_cif.got.tgz:18573.got - 2010.06.03 15:47:04.
