data_PCOD9475696
_publ_section_title
;
Structure prediction by ZEFSAII (Michael W. Deem and Ramdas Pophale) SiO2 
 PCOD9475696
Probable space group: C M C M
;
_chemical_formula_sum "Si O2"
_cell_formula_units_Z 116
_cell_length_a 31.342661
_cell_length_b 11.262999
_cell_length_c 16.576091
_cell_angle_alpha 90.000000
_cell_angle_beta 90.000000
_cell_angle_gamma 90.000000
_cell_volume 5851.564995
_symmetry_space_group_name_H-M "C M C M"
_symmetry_group_IT_number 63
_symmetry_cell_setting 'orthorhombic'
loop_
_space_group_symop_operation_xyz
x,y,z
-x,-y,1/2+z
x,-y,-z
-x,y,1/2-z
-x,-y,-z
x,y,1/2-z
-x,y,z
x,-y,1/2+z
1/2+x,1/2+y,z
1/2-x,1/2-y,1/2+z
1/2+x,1/2-y,-z
1/2-x,1/2+y,1/2-z
1/2-x,1/2-y,-z
1/2+x,1/2+y,1/2-z
1/2-x,1/2+y,z
1/2+x,1/2-y,1/2+z
loop_
_atom_site_type_symbol
_atom_site_label
_atom_site_fract_x
_atom_site_fract_y
_atom_site_fract_z
Si Si1 0.619057 0.490868 0.404301
Si Si2 0.698907 0.114668 0.848380
Si Si3 0.795884 0.871625 0.153249
Si Si4 0.383187 0.753514 0.154450
Si Si5 0.047994 0.373906 0.045072
Si Si6 0.000000 0.712311 0.250000
Si Si7 0.570435 0.249781 0.111232
Si Si8 0.343901 0.129337 0.346497
O O1 0.614777 0.500000 0.500000
O O2 0.667861 0.456276 0.383101
O O3 0.607535 0.616741 0.365495
O O4 0.589075 0.382133 0.375946
O O5 0.701285 0.116657 0.750000
O O6 0.747541 0.117669 0.877093
O O7 0.665543 0.217102 0.872002
O O8 0.676513 0.992842 0.873933
O O9 0.796176 0.892402 0.250000
O O10 0.811817 0.737845 0.138855
O O11 0.386037 0.773574 0.250000
O O12 0.415990 0.840466 0.109384
O O13 0.000000 0.376627 0.080279
O O14 0.054317 0.500000 0.000000
O O15 0.050739 0.272321 0.976528
O O16 0.962881 0.716701 0.320476
O O17 0.611463 0.163872 0.114801
O O18 0.350709 0.121887 0.250000
#
# Coordination Sequence:
#
# PCOD9475696 Si02
#       8
#    16  16  16  16  16   4  16  16
#     4  11  23  42  65  90 135 173 211 272 338 393
#     4   9  19  35  59  91 125 169 219 266 320 388
#     4   9  19  34  59  92 122 167 220 267 318 385
#     4  11  24  43  66  96 132 180 223 270 334 408
#     4  11  24  45  67  95 133 171 216 277 344 389
#     4  12  24  40  72 100 124 164 234 266 324 414
#     4  11  22  42  63  98 126 166 216 273 331 393
#     4   9  17  32  57  86 126 159 207 266 314 377
#
# _framework density 19.823757000000001
#
# number of rings (size 3 to 8) (size 9 to 14) (size 15 to 20)
#    0.000    1.793    2.759    1.241    3.862    0.276 
#    2.483    3.793    0.000    0.000    0.000    0.000 
#    0.000    0.000    0.000    0.000    0.000    0.000 
#
# Total GULP energy -323349.137269 kJ/mol
# GULP energy per Si atom -5574.985125 kJ/mol
# Density = 1.977864 g / cm^3
# Si number density = 19.823757 Si / 1000 Ang^3
#
#
#
# Elastic Constant Matrix: (Units=GPa)
#
#
# Indices 1 2 3 4 5 6 
#
# 1 88.9695 2.7451 14.9490 0.0000 0.0000 0.0000
# 2 2.7451 50.0998 -8.1541 0.0000 0.0000 0.0000
# 3 14.9490 -8.1541 43.4823 0.0000 0.0000 0.0000
# 4 0.0000 0.0000 0.0000 19.7394 0.0000 0.0000
# 5 0.0000 0.0000 0.0000 0.0000 36.6038 0.0000
# 6 0.0000 0.0000 0.0000 0.0000 0.0000 10.1304
#
#
#
# Elastic Compliance Matrix: (Units=1/GPa)
#
#
# Indices 1 2 3 4 5 6 
#
# 1 0.012020 -0.001373 -0.004390 0.000000 0.000000 0.000000
# 2 -0.001373 0.020745 0.004362 0.000000 0.000000 0.000000
# 3 -0.004390 0.004362 0.025325 0.000000 0.000000 0.000000
# 4 0.000000 0.000000 0.000000 0.050660 0.000000 0.000000
# 5 0.000000 0.000000 0.000000 0.000000 0.027320 0.000000
# 6 0.000000 0.000000 0.000000 0.000000 0.000000 0.098713
#
#
# Mechanical properties :
#
#
# Convention : Reuss Voigt Hill
#
# Bulk Modulus (GPa) = 18.08670 22.40351 20.24510
# Shear Modulus (GPa) = 19.53019 24.82883 22.17951
#
# Velocity S-wave (km/s) = 3.14218 3.54288 3.34853
# Velocity P-wave (km/s) = 4.72313 5.29734 5.01846
#
# Compressibility (1/GPa) = 0.05528925
#
# Stress axis : x y z
#
# Youngs Moduli (GPa) = 83.19634 48.20349 39.48648
#
# Poissons Ratio (x) = 0.06619 0.17334
# Poissons Ratio (y) = 0.11423 -0.17225
# Poissons Ratio (z) = 0.36522 -0.21028
#
# Static dielectric constant tensor:
#      x y z
#    x 1.702190 0.000000 0.000000 
#    y 0.000000 1.705680 0.000000 
#    z 0.000000 0.000000 1.695020 
# 
# From -- ./inp_files/49623.got.cif
#   From: 2010.05.17/outbox.cif.g08.bks.cpg/sg63_25_cif.got.tgz:49623.got - 2010.06.03 15:47:04.
