data_PCOD9475514
_publ_section_title
;
Structure prediction by ZEFSAII (Michael W. Deem and Ramdas Pophale) SiO2 
 PCOD9475514
Probable space group: C M C M
;
_chemical_formula_sum "Si O2"
_cell_formula_units_Z 104
_cell_length_a 29.212260
_cell_length_b 24.864994
_cell_length_c 8.605267
_cell_angle_alpha 90.000000
_cell_angle_beta 90.000000
_cell_angle_gamma 90.000000
_cell_volume 6250.544711
_symmetry_space_group_name_H-M "C M C M"
_symmetry_group_IT_number 63
_symmetry_cell_setting 'orthorhombic'
loop_
_space_group_symop_operation_xyz
x,y,z
-x,-y,1/2+z
x,-y,-z
-x,y,1/2-z
-x,-y,-z
x,y,1/2-z
-x,y,z
x,-y,1/2+z
1/2+x,1/2+y,z
1/2-x,1/2-y,1/2+z
1/2+x,1/2-y,-z
1/2-x,1/2+y,1/2-z
1/2-x,1/2-y,-z
1/2+x,1/2+y,1/2-z
1/2-x,1/2+y,z
1/2+x,1/2-y,1/2+z
loop_
_atom_site_type_symbol
_atom_site_label
_atom_site_fract_x
_atom_site_fract_y
_atom_site_fract_z
Si Si1 0.947447 0.853538 0.937468
Si Si2 0.588684 0.122814 0.437202
Si Si3 0.053330 0.737304 0.063228
Si Si4 0.771620 0.060909 0.436351
Si Si5 0.176312 0.438931 0.435242
Si Si6 0.127049 0.060580 0.062451
Si Si7 0.500000 0.939485 0.436148
O O1 0.947559 0.854460 0.750000
O O2 0.912783 0.899594 0.992312
O O3 0.000000 0.862219 0.990573
O O4 0.932865 0.794234 0.991640
O O5 0.588098 0.119713 0.250000
O O6 0.582342 0.185250 0.483320
O O7 0.634598 0.096092 0.501034
O O8 0.544977 0.090709 0.501778
O O9 0.054977 0.741628 0.250000
O O10 0.000000 0.727584 0.019523
O O11 0.767132 0.060524 0.250000
O O12 0.725365 0.084226 0.508921
O O13 0.822048 0.082471 0.478256
O O14 0.772791 0.000000 0.500000
O O15 0.172066 0.500000 0.500000
O O16 0.175197 0.441479 0.250000
O O17 0.125382 0.057644 0.250000
O O18 0.121774 0.000000 0.000000
O O19 0.500000 0.939939 0.250000
O O20 0.500000 0.000000 0.500000
#
# Coordination Sequence:
#
# PCOD9475514 Si02
#       7
#    16  16  16  16  16  16   8
#     4   9  18  32  50  74 104 135 165 203 246 292
#     4  11  21  36  53  71  98 131 166 209 253 298
#     4   9  18  34  53  72  94 126 168 208 245 291
#     4   9  16  29  48  69  95 129 165 203 244 292
#     4  11  21  33  49  73 100 128 164 206 251 302
#     4   9  18  31  49  75 105 135 167 200 243 295
#     4  12  24  36  50  72 102 134 167 204 253 302
#
# _framework density 16.638549999999999
#
# number of rings (size 3 to 8) (size 9 to 14) (size 15 to 20)
#    0.000    2.154    0.769    4.385    0.000    2.769 
#    0.000    0.000    0.000    0.923    0.000    0.000 
#    0.000    0.000    0.000    0.000    0.000    0.000 
#
# Total GULP energy -289971.116202 kJ/mol
# GULP energy per Si atom -5576.367619 kJ/mol
# Density = 1.660068 g / cm^3
# Si number density = 16.638550 Si / 1000 Ang^3
#
#
#
# Elastic Constant Matrix: (Units=GPa)
#
#
# Indices 1 2 3 4 5 6 
#
# 1 149.4163 88.8047 43.7951 0.0000 0.0000 0.0000
# 2 88.8047 109.0543 32.6660 0.0000 0.0000 0.0000
# 3 43.7951 32.6660 64.5705 0.0000 0.0000 0.0000
# 4 0.0000 0.0000 0.0000 24.9203 0.0000 0.0000
# 5 0.0000 0.0000 0.0000 0.0000 20.0089 0.0000
# 6 0.0000 0.0000 0.0000 0.0000 0.0000 2.4725
#
#
#
# Elastic Compliance Matrix: (Units=1/GPa)
#
#
# Indices 1 2 3 4 5 6 
#
# 1 0.013946 -0.010045 -0.004377 0.000000 0.000000 0.000000
# 2 -0.010045 0.018043 -0.002315 0.000000 0.000000 0.000000
# 3 -0.004377 -0.002315 0.019627 0.000000 0.000000 0.000000
# 4 0.000000 0.000000 0.000000 0.040128 0.000000 0.000000
# 5 0.000000 0.000000 0.000000 0.000000 0.049978 0.000000
# 6 0.000000 0.000000 0.000000 0.000000 0.000000 0.404457
#
#
# Mechanical properties :
#
#
# Convention : Reuss Voigt Hill
#
# Bulk Modulus (GPa) = 55.12150 72.61920 63.87035
# Shear Modulus (GPa) = 8.53679 19.99866 14.26772
#
# Velocity S-wave (km/s) = 2.26757 3.47067 2.93150
# Velocity P-wave (km/s) = 6.32902 7.73309 7.06602
#
# Compressibility (1/GPa) = 0.01814174
#
# Stress axis : x y z
#
# Youngs Moduli (GPa) = 71.70448 55.42229 50.95108
#
# Poissons Ratio (x) = 0.55674 0.22301
# Poissons Ratio (y) = 0.72031 0.11793
# Poissons Ratio (z) = 0.31385 0.12828
#
# Static dielectric constant tensor:
#      x y z
#    x 1.583400 0.000000 0.000000 
#    y 0.000000 1.532850 0.000000 
#    z 0.000000 0.000000 1.560710 
# 
# From -- ./inp_files/14678.got.cif
#   From: 2010.05.17/outbox.cif.g08.bks.cpg/sg63_8_cif.got.tgz:14678.got - 2010.06.03 15:47:04.
