data_PCOD9475032
_publ_section_title
;
Structure prediction by ZEFSAII (Michael W. Deem and Ramdas Pophale) SiO2 
 PCOD9475032
Probable space group: C M C M
;
_chemical_formula_sum "Si O2"
_cell_formula_units_Z 88
_cell_length_a 19.017415
_cell_length_b 8.949505
_cell_length_c 26.440473
_cell_angle_alpha 90.000000
_cell_angle_beta 90.000000
_cell_angle_gamma 90.000000
_cell_volume 4500.074658
_symmetry_space_group_name_H-M "C M C M"
_symmetry_group_IT_number 63
_symmetry_cell_setting 'orthorhombic'
loop_
_space_group_symop_operation_xyz
x,y,z
-x,-y,1/2+z
x,-y,-z
-x,y,1/2-z
-x,-y,-z
x,y,1/2-z
-x,y,z
x,-y,1/2+z
1/2+x,1/2+y,z
1/2-x,1/2-y,1/2+z
1/2+x,1/2-y,-z
1/2-x,1/2+y,1/2-z
1/2-x,1/2-y,-z
1/2+x,1/2+y,1/2-z
1/2-x,1/2+y,z
1/2+x,1/2-y,1/2+z
loop_
_atom_site_type_symbol
_atom_site_label
_atom_site_fract_x
_atom_site_fract_y
_atom_site_fract_z
Si Si1 0.153015 0.793757 0.750000
Si Si2 0.917492 0.246236 0.419492
Si Si3 0.673100 0.756802 0.628260
Si Si4 0.417430 0.500532 0.163351
Si Si5 0.825346 0.323266 0.511683
Si Si6 0.186047 0.411068 0.153201
O O1 0.126282 0.911878 0.705664
O O2 0.173913 0.671717 0.794246
O O3 0.908036 0.090646 0.389443
O O4 0.881515 0.249839 0.473893
O O5 0.877087 0.366011 0.384477
O O6 0.000000 0.278861 0.422475
O O7 0.611437 0.664815 0.654873
O O8 0.657228 0.795766 0.570197
O O9 0.741922 0.652234 0.629838
O O10 0.689720 0.910828 0.656900
O O11 0.500000 0.505734 0.176331
O O12 0.822666 0.500000 0.500000
O O13 0.750000 0.250000 0.500000
#
# Coordination Sequence:
#
# PCOD9475032 Si02
#       6
#     8  16  16  16  16  16
#     4  10  23  44  72  90 127 168 220 268 347 396
#     4  10  22  41  64  94 132 178 225 273 332 399
#     4  12  24  41  67 100 139 173 229 277 337 395
#     4  10  24  45  69  97 134 177 224 281 337 404
#     4  12  24  40  66  95 134 186 221 272 338 401
#     4  11  23  42  65 100 132 176 219 284 333 399
#
# _framework density 19.555230000000002
#
# number of rings (size 3 to 8) (size 9 to 14) (size 15 to 20)
#    0.000    1.091    3.636    2.455    2.545    6.182 
#    0.000    1.818    0.000    0.000    0.000    0.000 
#    0.000    0.000    0.000    0.000    0.000    0.000 
#
# Total GULP energy -244935.404153 kJ/mol
# GULP energy per Si atom -5566.713731 kJ/mol
# Density = 1.951072 g / cm^3
# Si number density = 19.555230 Si / 1000 Ang^3
#
#
#
# Elastic Constant Matrix: (Units=GPa)
#
#
# Indices 1 2 3 4 5 6 
#
# 1 47.2942 5.3654 8.3289 0.0000 0.0000 0.0000
# 2 5.3654 91.6847 7.2807 0.0000 0.0000 0.0000
# 3 8.3289 7.2807 125.4671 0.0000 0.0000 0.0000
# 4 0.0000 0.0000 0.0000 21.8387 0.0000 0.0000
# 5 0.0000 0.0000 0.0000 0.0000 2.1568 0.0000
# 6 0.0000 0.0000 0.0000 0.0000 0.0000 26.8693
#
#
#
# Elastic Compliance Matrix: (Units=1/GPa)
#
#
# Indices 1 2 3 4 5 6 
#
# 1 0.021515 -0.001151 -0.001361 0.000000 0.000000 0.000000
# 2 -0.001151 0.011019 -0.000563 0.000000 0.000000 0.000000
# 3 -0.001361 -0.000563 0.008093 0.000000 0.000000 0.000000
# 4 0.000000 0.000000 0.000000 0.045790 0.000000 0.000000
# 5 0.000000 0.000000 0.000000 0.000000 0.463655 0.000000
# 6 0.000000 0.000000 0.000000 0.000000 0.000000 0.037217
#
#
# Mechanical properties :
#
#
# Convention : Reuss Voigt Hill
#
# Bulk Modulus (GPa) = 29.00559 34.04400 31.52480
# Shear Modulus (GPa) = 8.26539 26.40434 17.33487
#
# Velocity S-wave (km/s) = 2.05812 3.67855 2.98057
# Velocity P-wave (km/s) = 4.52909 5.95729 5.29160
#
# Compressibility (1/GPa) = 0.03447611
#
# Stress axis : x y z
#
# Youngs Moduli (GPa) = 46.48013 90.75228 123.55954
#
# Poissons Ratio (x) = 0.10445 0.16822
# Poissons Ratio (y) = 0.05350 0.06957
# Poissons Ratio (z) = 0.06328 0.05109
#
# Static dielectric constant tensor:
#      x y z
#    x 1.687760 0.000000 0.000000 
#    y 0.000000 1.687410 0.000000 
#    z 0.000000 0.000000 1.661860 
# 
# From -- ./inp_files/64389.got.cif
#   From: 2010.05.17/outbox.cif.g08.bks.cpg/sg63_33_cif.got.tgz:64389.got - 2010.06.03 15:47:04.
