data_PCOD9475569
_publ_section_title
;
Structure prediction by ZEFSAII (Michael W. Deem and Ramdas Pophale) SiO2 
 PCOD9475569
Probable space group: C M C M
;
_chemical_formula_sum "Si O2"
_cell_formula_units_Z 120
_cell_length_a 23.221133
_cell_length_b 11.802872
_cell_length_c 20.225315
_cell_angle_alpha 90.000000
_cell_angle_beta 90.000000
_cell_angle_gamma 90.000000
_cell_volume 5543.274657
_symmetry_space_group_name_H-M "C M C M"
_symmetry_group_IT_number 63
_symmetry_cell_setting 'orthorhombic'
loop_
_space_group_symop_operation_xyz
x,y,z
-x,-y,1/2+z
x,-y,-z
-x,y,1/2-z
-x,-y,-z
x,y,1/2-z
-x,y,z
x,-y,1/2+z
1/2+x,1/2+y,z
1/2-x,1/2-y,1/2+z
1/2+x,1/2-y,-z
1/2-x,1/2+y,1/2-z
1/2-x,1/2-y,-z
1/2+x,1/2+y,1/2-z
1/2-x,1/2+y,z
1/2+x,1/2-y,1/2+z
loop_
_atom_site_type_symbol
_atom_site_label
_atom_site_fract_x
_atom_site_fract_y
_atom_site_fract_z
Si Si1 0.142953 0.982959 0.675580
Si Si2 0.310641 0.000000 0.000000
Si Si3 0.371991 0.860933 0.826243
Si Si4 0.368349 0.236234 0.034882
Si Si5 0.760393 0.793474 0.820178
Si Si6 0.726990 0.382325 0.088166
Si Si7 0.932074 0.600527 0.672565
Si Si8 0.931880 0.175486 0.088974
O O1 0.121488 0.008069 0.750000
O O2 0.190194 0.884388 0.680843
O O3 0.097005 0.932828 0.624157
O O4 0.180637 0.082072 0.643412
O O5 0.265796 0.981393 0.059912
O O6 0.348474 0.111815 0.010350
O O7 0.390411 0.831701 0.750000
O O8 0.390374 0.785284 0.889659
O O9 0.302582 0.850207 0.826295
O O10 0.394445 0.988318 0.839604
O O11 0.311703 0.315907 0.035469
O O12 0.411449 0.297075 0.985060
O O13 0.761230 0.729874 0.750000
O O14 0.768918 0.708054 0.879255
O O15 0.926112 0.629381 0.750000
O O16 0.916596 0.711005 0.630731
O O17 0.000000 0.574153 0.660229
O O18 0.000000 0.162259 0.091398
#
# Coordination Sequence:
#
# PCOD9475569 Si02
#       8
#    16   8  16  16  16  16  16  16
#     4  11  23  39  62  90 118 156 204 250 304 367
#     4  12  22  36  59  88 127 164 198 240 296 364
#     4   9  18  34  56  85 123 161 196 240 298 363
#     4  11  23  38  59  88 120 162 208 247 299 365
#     4   9  19  35  57  87 121 154 190 237 292 354
#     4  11  21  37  57  85 122 159 194 240 293 355
#     4   9  18  34  58  86 116 153 197 247 303 361
#     4  11  24  42  61  83 115 154 203 262 314 364
#
# _framework density 21.647853999999999
#
# number of rings (size 3 to 8) (size 9 to 14) (size 15 to 20)
#    0.000    1.733    0.000    5.200    0.000    2.933 
#    0.000    7.667    0.000    0.800    0.000    7.467 
#    0.000    0.000    0.000    0.000    0.000    0.000 
#
# Total GULP energy -335160.069280 kJ/mol
# GULP energy per Si atom -5586.001155 kJ/mol
# Density = 2.159858 g / cm^3
# Si number density = 21.647854 Si / 1000 Ang^3
#
#
#
# Elastic Constant Matrix: (Units=GPa)
#
#
# Indices 1 2 3 4 5 6 
#
# 1 46.0355 8.2026 15.2335 0.0000 0.0000 0.0000
# 2 8.2026 35.8633 11.4699 0.0000 0.0000 0.0000
# 3 15.2335 11.4699 90.5627 0.0000 0.0000 0.0000
# 4 0.0000 0.0000 0.0000 6.1721 0.0000 0.0000
# 5 0.0000 0.0000 0.0000 0.0000 18.8353 0.0000
# 6 0.0000 0.0000 0.0000 0.0000 0.0000 17.9620
#
#
#
# Elastic Compliance Matrix: (Units=1/GPa)
#
#
# Indices 1 2 3 4 5 6 
#
# 1 0.023624 -0.004307 -0.003428 0.000000 0.000000 0.000000
# 2 -0.004307 0.029846 -0.003056 0.000000 0.000000 0.000000
# 3 -0.003428 -0.003056 0.012006 0.000000 0.000000 0.000000
# 4 0.000000 0.000000 0.000000 0.162021 0.000000 0.000000
# 5 0.000000 0.000000 0.000000 0.000000 0.053092 0.000000
# 6 0.000000 0.000000 0.000000 0.000000 0.000000 0.055673
#
#
# Mechanical properties :
#
#
# Convention : Reuss Voigt Hill
#
# Bulk Modulus (GPa) = 22.78196 26.91927 24.85061
# Shear Modulus (GPa) = 13.42374 17.76424 15.59399
#
# Velocity S-wave (km/s) = 2.49287 2.86772 2.68684
# Velocity P-wave (km/s) = 4.33966 4.84016 4.59673
#
# Compressibility (1/GPa) = 0.04389439
#
# Stress axis : x y z
#
# Youngs Moduli (GPa) = 42.32941 33.50539 83.29341
#
# Poissons Ratio (x) = 0.14430 0.28556
# Poissons Ratio (y) = 0.18231 0.25451
# Poissons Ratio (z) = 0.14512 0.10238
#
# Static dielectric constant tensor:
#      x y z
#    x 1.744980 0.000000 0.000000 
#    y 0.000000 1.777300 0.000000 
#    z 0.000000 0.000000 1.894680 
# 
# From -- ./inp_files/57695.got.cif
#   From: 2010.05.17/outbox.cif.g08.bks.cpg/sg63_29_cif.got.tgz:57695.got - 2010.06.03 15:47:04.
