data_PCOD9475544
_publ_section_title
;
Structure prediction by ZEFSAII (Michael W. Deem and Ramdas Pophale) SiO2 
 PCOD9475544
Probable space group: C M C M
;
_chemical_formula_sum "Si O2"
_cell_formula_units_Z 80
_cell_length_a 25.414566
_cell_length_b 20.761275
_cell_length_c 9.081046
_cell_angle_alpha 90.000000
_cell_angle_beta 90.000000
_cell_angle_gamma 90.000000
_cell_volume 4791.512157
_symmetry_space_group_name_H-M "C M C M"
_symmetry_group_IT_number 63
_symmetry_cell_setting 'orthorhombic'
loop_
_space_group_symop_operation_xyz
x,y,z
-x,-y,1/2+z
x,-y,-z
-x,y,1/2-z
-x,-y,-z
x,y,1/2-z
-x,y,z
x,-y,1/2+z
1/2+x,1/2+y,z
1/2-x,1/2-y,1/2+z
1/2+x,1/2-y,-z
1/2-x,1/2+y,1/2-z
1/2-x,1/2-y,-z
1/2+x,1/2+y,1/2-z
1/2-x,1/2+y,z
1/2+x,1/2-y,1/2+z
loop_
_atom_site_type_symbol
_atom_site_label
_atom_site_fract_x
_atom_site_fract_y
_atom_site_fract_z
Si Si1 0.606905 0.610492 0.574505
Si Si2 0.106214 0.261954 0.574825
Si Si3 0.000000 0.262058 0.420227
Si Si4 0.000000 0.105193 0.420454
Si Si5 0.279198 0.810841 0.927633
Si Si6 0.723903 0.433308 0.427389
O O1 0.598758 0.606857 0.750000
O O2 0.614248 0.686339 0.535625
O O3 0.554497 0.584754 0.496177
O O4 0.661792 0.576647 0.538262
O O5 0.098035 0.263853 0.750000
O O6 0.053432 0.284892 0.496209
O O7 0.158891 0.301014 0.540580
O O8 0.000000 0.183656 0.432331
O O9 0.000000 0.278852 0.250000
O O10 0.000000 0.087071 0.250000
O O11 0.272176 0.810682 0.750000
O O12 0.250000 0.750000 0.000000
O O13 0.255455 0.874493 0.000513
O O14 0.741234 0.500000 0.500000
O O15 0.729532 0.433030 0.250000
#
# Coordination Sequence:
#
# PCOD9475544 Si02
#       6
#    16  16   8   8  16  16
#     4   9  17  32  50  69  99 137 176 215 262 315
#     4   9  17  31  50  74 104 139 173 210 261 316
#     4   9  17  27  43  74 107 134 167 213 263 305
#     4   9  17  27  44  72  99 128 173 221 263 304
#     4  11  21  35  56  82 109 141 180 223 268 318
#     4  11  23  39  55  77 106 142 182 223 272 322
#
# _framework density 16.696190999999999
#
# number of rings (size 3 to 8) (size 9 to 14) (size 15 to 20)
#    0.000    2.200    2.000    1.800    0.000    5.600 
#    0.000    0.500    0.000    0.000    0.000    0.700 
#    0.000    0.000    0.000    0.000    0.000    0.000 
#
# Total GULP energy -223194.941048 kJ/mol
# GULP energy per Si atom -5579.873526 kJ/mol
# Density = 1.665819 g / cm^3
# Si number density = 16.696191 Si / 1000 Ang^3
#
#
#
# Elastic Constant Matrix: (Units=GPa)
#
#
# Indices 1 2 3 4 5 6 
#
# 1 134.3915 58.2927 72.2411 0.0000 0.0000 0.0000
# 2 58.2927 97.4071 49.3218 0.0000 0.0000 0.0000
# 3 72.2411 49.3218 63.5873 0.0000 0.0000 0.0000
# 4 0.0000 0.0000 0.0000 18.5392 0.0000 0.0000
# 5 0.0000 0.0000 0.0000 0.0000 30.9912 0.0000
# 6 0.0000 0.0000 0.0000 0.0000 0.0000 11.1813
#
#
#
# Elastic Compliance Matrix: (Units=1/GPa)
#
#
# Indices 1 2 3 4 5 6 
#
# 1 0.019145 -0.000731 -0.021184 0.000000 0.000000 0.000000
# 2 -0.000731 0.016934 -0.012304 0.000000 0.000000 0.000000
# 3 -0.021184 -0.012304 0.049337 0.000000 0.000000 0.000000
# 4 0.000000 0.000000 0.000000 0.053940 0.000000 0.000000
# 5 0.000000 0.000000 0.000000 0.000000 0.032267 0.000000
# 6 0.000000 0.000000 0.000000 0.000000 0.000000 0.089435
#
#
# Mechanical properties :
#
#
# Convention : Reuss Voigt Hill
#
# Bulk Modulus (GPa) = 58.89991 72.78857 65.84424
# Shear Modulus (GPa) = 14.91841 19.84433 17.38137
#
# Velocity S-wave (km/s) = 2.99243 3.45128 3.23001
# Velocity P-wave (km/s) = 6.87703 7.71831 7.30978
#
# Compressibility (1/GPa) = 0.01697795
#
# Stress axis : x y z
#
# Youngs Moduli (GPa) = 52.23251 59.05291 20.26875
#
# Poissons Ratio (x) = 0.04317 0.42937
# Poissons Ratio (y) = 0.03818 0.24939
# Poissons Ratio (z) = 1.10648 0.72661
#
# Static dielectric constant tensor:
#      x y z
#    x 1.559740 0.000000 0.000000 
#    y 0.000000 1.557240 0.000000 
#    z 0.000000 0.000000 1.554430 
# 
# From -- ./inp_files/10080.got.cif
#   From: 2010.05.17/outbox.cif.g08.bks.cpg/sg63_6_cif.got.tgz:10080.got - 2010.06.03 15:47:04.
