data_PCOD9475434
_publ_section_title
;
Structure prediction by ZEFSAII (Michael W. Deem and Ramdas Pophale) SiO2 
 PCOD9475434
Probable space group: C M C M
;
_chemical_formula_sum "Si O2"
_cell_formula_units_Z 60
_cell_length_a 10.478361
_cell_length_b 27.809396
_cell_length_c 10.270171
_cell_angle_alpha 90.000000
_cell_angle_beta 90.000000
_cell_angle_gamma 90.000000
_cell_volume 2992.695894
_symmetry_space_group_name_H-M "C M C M"
_symmetry_group_IT_number 63
_symmetry_cell_setting 'orthorhombic'
loop_
_space_group_symop_operation_xyz
x,y,z
-x,-y,1/2+z
x,-y,-z
-x,y,1/2-z
-x,-y,-z
x,y,1/2-z
-x,y,z
x,-y,1/2+z
1/2+x,1/2+y,z
1/2-x,1/2-y,1/2+z
1/2+x,1/2-y,-z
1/2-x,1/2+y,1/2-z
1/2-x,1/2-y,-z
1/2+x,1/2+y,1/2-z
1/2-x,1/2+y,z
1/2+x,1/2-y,1/2+z
loop_
_atom_site_type_symbol
_atom_site_label
_atom_site_fract_x
_atom_site_fract_y
_atom_site_fract_z
Si Si1 0.500000 0.935875 0.395165
Si Si2 0.000000 0.347031 0.965168
Si Si3 0.220200 0.500000 0.000000
Si Si4 0.649959 0.453058 0.750000
Si Si5 0.208122 0.353835 0.750000
Si Si6 0.000000 0.767213 0.462274
Si Si7 0.000000 0.246996 0.250000
Si Si8 0.715789 0.262287 0.250000
O O1 0.500000 0.954221 0.250000
O O2 0.500000 0.878841 0.407667
O O3 0.625242 0.957096 0.460995
O O4 0.879056 0.360673 0.877174
O O5 0.000000 0.290294 0.979650
O O6 0.298242 0.519245 0.122794
O O7 0.500000 0.455347 0.750000
O O8 0.691081 0.396748 0.750000
O O9 0.231956 0.296124 0.750000
O O10 0.872754 0.777297 0.374683
O O11 0.000000 0.783545 0.613072
O O12 0.864924 0.276511 0.250000
#
# Coordination Sequence:
#
# PCOD9475434 Si02
#       8
#     8   8   8   8   8   8   4   8
#     4  11  20  31  56  76 108 127 168 233 266 305
#     4   9  17  33  56  76 108 129 172 222 268 303
#     4  11  23  36  50  84  99 137 176 222 270 299
#     4  12  23  37  53  71 110 143 181 211 260 319
#     4   9  18  34  56  77  97 139 178 222 259 304
#     4   9  20  36  53  83 110 143 168 220 267 311
#     4  12  20  32  60  84 108 140 184 208 260 330
#     4   9  20  37  54  79 115 137 176 221 265 305
#
# _framework density 20.048812999999999
#
# number of rings (size 3 to 8) (size 9 to 14) (size 15 to 20)
#    0.000    1.867    4.000    2.800    1.867    0.000 
#    0.000    0.000    0.000    0.000    0.000    0.000 
#    0.000    0.000    0.000    0.000    0.000    0.000 
#
# Total GULP energy -167222.717784 kJ/mol
# GULP energy per Si atom -5574.090593 kJ/mol
# Density = 2.000318 g / cm^3
# Si number density = 20.048813 Si / 1000 Ang^3
#
#
#
# Elastic Constant Matrix: (Units=GPa)
#
#
# Indices 1 2 3 4 5 6 
#
# 1 157.5487 12.2858 59.8986 0.0000 0.0000 0.0000
# 2 12.2858 44.4857 11.0289 0.0000 0.0000 0.0000
# 3 59.8986 11.0289 142.5762 0.0000 0.0000 0.0000
# 4 0.0000 0.0000 0.0000 18.9206 0.0000 0.0000
# 5 0.0000 0.0000 0.0000 0.0000 -84.9562 0.0000
# 6 0.0000 0.0000 0.0000 0.0000 0.0000 8.6205
#
#
#
# Elastic Compliance Matrix: (Units=1/GPa)
#
#
# Indices 1 2 3 4 5 6 
#
# 1 0.007631 -0.001338 -0.003102 0.000000 0.000000 0.000000
# 2 -0.001338 0.023153 -0.001229 0.000000 0.000000 0.000000
# 3 -0.003102 -0.001229 0.008412 0.000000 0.000000 0.000000
# 4 0.000000 0.000000 0.000000 0.052853 0.000000 0.000000
# 5 0.000000 0.000000 0.000000 0.000000 -0.011771 0.000000
# 6 0.000000 0.000000 0.000000 0.000000 0.000000 0.116003
#
#
# Mechanical properties :
#
#
# Convention : Reuss Voigt Hill
#
# Bulk Modulus (GPa) = 35.89678 56.78192 46.33935
# Shear Modulus (GPa) = 23.05143 5.94345 14.49744
#
# Velocity S-wave (km/s) = 3.39450 1.72364 2.69198
# Velocity P-wave (km/s) = 5.77123 5.68723 5.72938
#
# Compressibility (1/GPa) = 0.02785765
#
# Stress axis : x y z
#
# Youngs Moduli (GPa) = 131.04223 43.19021 118.87462
#
# Poissons Ratio (x) = 0.05780 0.36880
# Poissons Ratio (y) = 0.17538 0.14607
# Poissons Ratio (z) = 0.40655 0.05307
#
# Static dielectric constant tensor:
#      x y z
#    x 1.768610 0.000000 0.000000 
#    y 0.000000 1.683210 0.000000 
#    z 0.000000 0.000000 1.807010 
# 
# From -- ./inp_files/16166.got.cif
#   From: 2010.05.17/outbox.cif.g08.bks.cpg/sg63_9_cif.got.tgz:16166.got - 2010.06.03 15:47:04.
