data_PCOD9475903
_publ_section_title
;
Structure prediction by ZEFSAII (Michael W. Deem and Ramdas Pophale) SiO2 
 PCOD9475903
Probable space group: C M C M
;
_chemical_formula_sum "Si O2"
_cell_formula_units_Z 56
_cell_length_a 12.853345
_cell_length_b 22.018195
_cell_length_c 7.503880
_cell_angle_alpha 90.000000
_cell_angle_beta 90.000000
_cell_angle_gamma 90.000000
_cell_volume 2123.653994
_symmetry_space_group_name_H-M "C M C M"
_symmetry_group_IT_number 63
_symmetry_cell_setting 'orthorhombic'
loop_
_space_group_symop_operation_xyz
x,y,z
-x,-y,1/2+z
x,-y,-z
-x,y,1/2-z
-x,-y,-z
x,y,1/2-z
-x,y,z
x,-y,1/2+z
1/2+x,1/2+y,z
1/2-x,1/2-y,1/2+z
1/2+x,1/2-y,-z
1/2-x,1/2+y,1/2-z
1/2-x,1/2-y,-z
1/2+x,1/2+y,1/2-z
1/2-x,1/2+y,z
1/2+x,1/2-y,1/2+z
loop_
_atom_site_type_symbol
_atom_site_label
_atom_site_fract_x
_atom_site_fract_y
_atom_site_fract_z
Si Si1 0.152058 0.166694 0.750000
Si Si2 0.384866 0.096413 0.964616
Si Si3 0.842906 0.067325 0.052106
Si Si4 0.881463 0.741510 0.961541
O O1 0.128006 0.116455 0.594305
O O2 0.182914 0.216844 0.594580
O O3 0.375414 0.088879 0.750000
O O4 0.500000 0.075658 0.020790
O O5 0.378668 0.169002 0.993841
O O6 0.284175 0.067216 0.049892
O O7 0.877370 0.083561 0.250000
O O8 0.877088 0.000000 0.000000
O O9 0.876992 0.752762 0.750000
O O10 0.000000 0.759639 0.021606
#
# Coordination Sequence:
#
# PCOD9475903 Si02
#       4
#     8  16  16  16
#     4  12  23  40  63  92 126 168 200 256 315 368
#     4   9  19  40  65  93 129 165 205 252 299 360
#     4  12  25  43  61  88 126 168 213 253 303 366
#     4   9  20  40  66  96 128 160 200 251 309 371
#
# _framework density 26.369643
#
# number of rings (size 3 to 8) (size 9 to 14) (size 15 to 20)
#    0.000    1.714    2.857    3.000    2.000    2.286 
#    0.000    0.000    0.000    3.429    0.000    0.000 
#    0.000    0.000    0.000    0.000    0.000    0.000 
#
# Total GULP energy -155942.809520 kJ/mol
# GULP energy per Si atom -5569.386054 kJ/mol
# Density = 2.630962 g / cm^3
# Si number density = 26.369643 Si / 1000 Ang^3
#
#
#
# Elastic Constant Matrix: (Units=GPa)
#
#
# Indices 1 2 3 4 5 6 
#
# 1 111.5290 -11.2754 -10.0494 0.0000 0.0000 0.0000
# 2 -11.2754 144.2743 94.2181 0.0000 0.0000 0.0000
# 3 -10.0494 94.2181 211.3670 0.0000 0.0000 0.0000
# 4 0.0000 0.0000 0.0000 40.9813 0.0000 0.0000
# 5 0.0000 0.0000 0.0000 0.0000 -284.6480 0.0000
# 6 0.0000 0.0000 0.0000 0.0000 0.0000 64.3042
#
#
#
# Elastic Compliance Matrix: (Units=1/GPa)
#
#
# Indices 1 2 3 4 5 6 
#
# 1 0.009042 0.000601 0.000162 0.000000 0.000000 0.000000
# 2 0.000601 0.009817 -0.004348 0.000000 0.000000 0.000000
# 3 0.000162 -0.004348 0.006677 0.000000 0.000000 0.000000
# 4 0.000000 0.000000 0.000000 0.024401 0.000000 0.000000
# 5 0.000000 0.000000 0.000000 0.000000 -0.003513 0.000000
# 6 0.000000 0.000000 0.000000 0.000000 0.000000 0.015551
#
#
# Mechanical properties :
#
#
# Convention : Reuss Voigt Hill
#
# Bulk Modulus (GPa) = 54.44751 68.10633 61.27692
# Shear Modulus (GPa) = 66.43043 -9.58738 28.42153
#
# Velocity S-wave (km/s) = 5.02461 -1.90884 3.28657
# Velocity P-wave (km/s) = 7.37258 4.58535 6.13923
#
# Compressibility (1/GPa) = 0.01836631
#
# Stress axis : x y z
#
# Youngs Moduli (GPa) = 110.59964 101.86012 149.77277
#
# Poissons Ratio (x) = -0.06120 -0.02428
# Poissons Ratio (y) = -0.06645 0.65115
# Poissons Ratio (z) = -0.01793 0.44285
#
# Static dielectric constant tensor:
#      x y z
#    x 2.371050 0.000000 0.000000 
#    y 0.000000 1.969560 0.000000 
#    z 0.000000 0.000000 1.930690 
# 
# From -- ./inp_files/4023.got.cif
#   From: 2010.05.17/outbox.cif.g08.bks.cpg/sg63_3_cif.got.tgz:4023.got - 2010.06.03 15:47:04.
