data_PCOD9475673
_publ_section_title
;
Structure prediction by ZEFSAII (Michael W. Deem and Ramdas Pophale) SiO2 
 PCOD9475673
Probable space group: C M C M
;
_chemical_formula_sum "Si O2"
_cell_formula_units_Z 48
_cell_length_a 7.544029
_cell_length_b 22.558276
_cell_length_c 15.137676
_cell_angle_alpha 90.000000
_cell_angle_beta 90.000000
_cell_angle_gamma 90.000000
_cell_volume 2576.134066
_symmetry_space_group_name_H-M "C M C M"
_symmetry_group_IT_number 63
_symmetry_cell_setting 'orthorhombic'
loop_
_space_group_symop_operation_xyz
x,y,z
-x,-y,1/2+z
x,-y,-z
-x,y,1/2-z
-x,-y,-z
x,y,1/2-z
-x,y,z
x,-y,1/2+z
1/2+x,1/2+y,z
1/2-x,1/2-y,1/2+z
1/2+x,1/2-y,-z
1/2-x,1/2+y,1/2-z
1/2-x,1/2-y,-z
1/2+x,1/2+y,1/2-z
1/2-x,1/2+y,z
1/2+x,1/2-y,1/2+z
loop_
_atom_site_type_symbol
_atom_site_label
_atom_site_fract_x
_atom_site_fract_y
_atom_site_fract_z
Si Si1 0.707894 0.245662 0.604294
Si Si2 0.500000 0.569287 0.480477
Si Si3 0.000000 0.151165 0.847283
Si Si4 0.708029 0.880164 0.649838
O O1 0.500000 0.234271 0.617019
O O2 0.750000 0.250000 0.500000
O O3 0.830614 0.194355 0.642907
O O4 0.755832 0.309706 0.643672
O O5 0.500000 0.500000 0.500000
O O6 0.500000 0.605761 0.571761
O O7 0.330894 0.588647 0.422085
O O8 0.000000 0.123335 0.750000
O O9 0.750185 0.899536 0.750000
O O10 0.500000 0.890213 0.633308
#
# Coordination Sequence:
#
# PCOD9475673 Si02
#       4
#    16   8   8  16
#     4  12  20  36  65  99 131 163 199 255 330 396
#     4  12  27  45  66  87 123 183 227 262 306 372
#     4  12  26  41  60  97 137 165 208 270 326 378
#     4  11  22  39  67  99 128 160 208 267 322 383
#
# _framework density 18.632570999999999
#
# number of rings (size 3 to 8) (size 9 to 14) (size 15 to 20)
#    0.000    0.333    8.333    1.500    0.000    4.000 
#    0.000    0.000    0.000    0.000    0.000    0.000 
#    0.000    0.000    0.000    0.000    0.000    0.000 
#
# Total GULP energy -134264.775096 kJ/mol
# GULP energy per Si atom -5594.365629 kJ/mol
# Density = 1.859016 g / cm^3
# Si number density = 18.632571 Si / 1000 Ang^3
#
#
#
# Elastic Constant Matrix: (Units=GPa)
#
#
# Indices 1 2 3 4 5 6 
#
# 1 157.7030 57.4159 76.1600 0.0000 0.0000 0.0000
# 2 57.4159 128.2608 65.1792 0.0000 0.0000 0.0000
# 3 76.1600 65.1792 175.7017 0.0000 0.0000 0.0000
# 4 0.0000 0.0000 0.0000 -2.0732 0.0000 0.0000
# 5 0.0000 0.0000 0.0000 0.0000 17.5602 0.0000
# 6 0.0000 0.0000 0.0000 0.0000 0.0000 1.1187
#
#
#
# Elastic Compliance Matrix: (Units=1/GPa)
#
#
# Indices 1 2 3 4 5 6 
#
# 1 0.008582 -0.002405 -0.002828 0.000000 0.000000 0.000000
# 2 -0.002405 0.010282 -0.002772 0.000000 0.000000 0.000000
# 3 -0.002828 -0.002772 0.007946 0.000000 0.000000 0.000000
# 4 0.000000 0.000000 0.000000 -0.482351 0.000000 0.000000
# 5 0.000000 0.000000 0.000000 0.000000 0.056947 0.000000
# 6 0.000000 0.000000 0.000000 0.000000 0.000000 0.893879
#
#
# Mechanical properties :
#
#
# Convention : Reuss Voigt Hill
#
# Bulk Modulus (GPa) = 92.58898 95.46396 94.02647
# Shear Modulus (GPa) = 9.71076 20.84852 15.27964
#
# Velocity S-wave (km/s) = 2.28539 3.34867 2.86676
# Velocity P-wave (km/s) = 7.53418 8.14234 7.84416
#
# Compressibility (1/GPa) = 0.01080042
#
# Stress axis : x y z
#
# Youngs Moduli (GPa) = 116.51919 97.26075 125.85679
#
# Poissons Ratio (x) = 0.23388 0.35593
# Poissons Ratio (y) = 0.28020 0.34885
# Poissons Ratio (z) = 0.32952 0.26959
#
# Static dielectric constant tensor:
#      x y z
#    x 1.636270 0.000000 0.000000 
#    y 0.000000 1.593230 0.000000 
#    z 0.000000 0.000000 1.669960 
# 
# From -- ./inp_files/27328.got.cif
#   From: 2010.05.17/outbox.cif.g08.bks.cpg/sg63_14_cif.got.tgz:27328.got - 2010.06.03 15:47:04.
