data_PCOD9475410
_publ_section_title
;
Structure prediction by ZEFSAII (Michael W. Deem and Ramdas Pophale) SiO2 
 PCOD9475410
Probable space group: C M C M
;
_chemical_formula_sum "Si O2"
_cell_formula_units_Z 72
_cell_length_a 17.027703
_cell_length_b 15.892381
_cell_length_c 14.206249
_cell_angle_alpha 90.000000
_cell_angle_beta 90.000000
_cell_angle_gamma 90.000000
_cell_volume 3844.363606
_symmetry_space_group_name_H-M "C M C M"
_symmetry_group_IT_number 63
_symmetry_cell_setting 'orthorhombic'
loop_
_space_group_symop_operation_xyz
x,y,z
-x,-y,1/2+z
x,-y,-z
-x,y,1/2-z
-x,-y,-z
x,y,1/2-z
-x,y,z
x,-y,1/2+z
1/2+x,1/2+y,z
1/2-x,1/2-y,1/2+z
1/2+x,1/2-y,-z
1/2-x,1/2+y,1/2-z
1/2-x,1/2-y,-z
1/2+x,1/2+y,1/2-z
1/2-x,1/2+y,z
1/2+x,1/2-y,1/2+z
loop_
_atom_site_type_symbol
_atom_site_label
_atom_site_fract_x
_atom_site_fract_y
_atom_site_fract_z
Si Si1 0.163229 0.500000 0.500000
Si Si2 0.410717 0.431400 0.915925
Si Si3 0.092861 0.630841 0.357766
Si Si4 0.167280 0.788047 0.038028
Si Si5 0.716131 0.558425 0.852217
O O1 0.116087 0.552247 0.423078
O O2 0.221999 0.445441 0.436577
O O3 0.500000 0.421505 0.877666
O O4 0.343475 0.478929 0.855994
O O5 0.417160 0.500000 0.000000
O O6 0.376919 0.343635 0.957478
O O7 0.125533 0.627748 0.250000
O O8 0.121068 0.710543 0.417692
O O9 0.000000 0.633808 0.349778
O O10 0.173513 0.854608 0.123972
O O11 0.250000 0.750000 0.000000
O O12 0.753786 0.560521 0.750000
#
# Coordination Sequence:
#
# PCOD9475410 Si02
#       5
#     8  16  16  16  16
#     4  12  21  42  59  84 118 154 196 250 293 346
#     4   9  18  34  56  85 120 155 190 237 298 352
#     4  11  24  40  62  90 117 153 200 245 293 350
#     4  11  19  37  60  89 121 154 194 241 297 350
#     4  11  21  36  61  87 115 157 200 239 290 354
#
# _framework density 18.728717
#
# number of rings (size 3 to 8) (size 9 to 14) (size 15 to 20)
#    0.000    1.333    5.556    2.333    0.000    1.333 
#    0.000    1.111    0.000    0.000    0.000    0.000 
#    0.000    0.000    0.000    0.000    0.000    0.000 
#
# Total GULP energy -200434.575908 kJ/mol
# GULP energy per Si atom -5567.627109 kJ/mol
# Density = 1.868609 g / cm^3
# Si number density = 18.728717 Si / 1000 Ang^3
#
#
#
# Elastic Constant Matrix: (Units=GPa)
#
#
# Indices 1 2 3 4 5 6 
#
# 1 79.5667 29.2219 19.1528 0.0000 0.0000 0.0000
# 2 29.2219 107.7169 21.2695 0.0000 0.0000 0.0000
# 3 19.1528 21.2695 86.4550 0.0000 0.0000 0.0000
# 4 0.0000 0.0000 0.0000 4.6832 0.0000 0.0000
# 5 0.0000 0.0000 0.0000 0.0000 3.3111 0.0000
# 6 0.0000 0.0000 0.0000 0.0000 0.0000 31.7750
#
#
#
# Elastic Compliance Matrix: (Units=1/GPa)
#
#
# Indices 1 2 3 4 5 6 
#
# 1 0.014396 -0.003443 -0.002342 0.000000 0.000000 0.000000
# 2 -0.003443 0.010581 -0.001840 0.000000 0.000000 0.000000
# 3 -0.002342 -0.001840 0.012538 0.000000 0.000000 0.000000
# 4 0.000000 0.000000 0.000000 0.213530 0.000000 0.000000
# 5 0.000000 0.000000 0.000000 0.000000 0.302011 0.000000
# 6 0.000000 0.000000 0.000000 0.000000 0.000000 0.031471
#
#
# Mechanical properties :
#
#
# Convention : Reuss Voigt Hill
#
# Bulk Modulus (GPa) = 44.91460 45.89188 45.40324
# Shear Modulus (GPa) = 8.23451 21.56016 14.89733
#
# Velocity S-wave (km/s) = 2.09911 3.39659 2.82339
# Velocity P-wave (km/s) = 5.46889 6.31974 5.90965
#
# Compressibility (1/GPa) = 0.02226448
#
# Stress axis : x y z
#
# Youngs Moduli (GPa) = 69.46191 94.50874 79.75521
#
# Poissons Ratio (x) = 0.32540 0.18681
# Poissons Ratio (y) = 0.23916 0.14678
# Poissons Ratio (z) = 0.16270 0.17393
#
# Static dielectric constant tensor:
#      x y z
#    x 1.696110 0.000000 0.000000 
#    y 0.000000 1.666240 0.000000 
#    z 0.000000 0.000000 1.651480 
# 
# From -- ./inp_files/33683.got.cif
#   From: 2010.05.17/outbox.cif.g08.bks.cpg/sg63_17_cif.got.tgz:33683.got - 2010.06.03 15:47:04.
