data_PCOD9475722
_publ_section_title
;
Structure prediction by ZEFSAII (Michael W. Deem and Ramdas Pophale) SiO2 
 PCOD9475722
Probable space group: C M C M
;
_chemical_formula_sum "Si O2"
_cell_formula_units_Z 104
_cell_length_a 20.249980
_cell_length_b 30.277819
_cell_length_c 8.790866
_cell_angle_alpha 90.000000
_cell_angle_beta 90.000000
_cell_angle_gamma 90.000000
_cell_volume 5389.901731
_symmetry_space_group_name_H-M "C M C M"
_symmetry_group_IT_number 63
_symmetry_cell_setting 'orthorhombic'
loop_
_space_group_symop_operation_xyz
x,y,z
-x,-y,1/2+z
x,-y,-z
-x,y,1/2-z
-x,-y,-z
x,y,1/2-z
-x,y,z
x,-y,1/2+z
1/2+x,1/2+y,z
1/2-x,1/2-y,1/2+z
1/2+x,1/2-y,-z
1/2-x,1/2+y,1/2-z
1/2-x,1/2-y,-z
1/2+x,1/2+y,1/2-z
1/2-x,1/2+y,z
1/2+x,1/2-y,1/2+z
loop_
_atom_site_type_symbol
_atom_site_label
_atom_site_fract_x
_atom_site_fract_y
_atom_site_fract_z
Si Si1 0.298136 0.135927 0.567995
Si Si2 0.922636 0.951690 0.933889
Si Si3 0.424378 0.813865 0.566881
Si Si4 0.356915 0.951810 0.067451
Si Si5 0.500000 0.049258 0.933006
Si Si6 0.078058 0.789611 0.422855
Si Si7 0.158416 0.864890 0.570730
O O1 0.300059 0.139108 0.750000
O O2 0.362653 0.160570 0.504402
O O3 0.304561 0.084387 0.521935
O O4 0.227228 0.148982 0.505946
O O5 0.919745 0.953889 0.750000
O O6 0.875666 0.910977 0.983916
O O7 0.000000 0.943116 0.975560
O O8 0.904621 0.000000 0.000000
O O9 0.423483 0.819425 0.750000
O O10 0.500000 0.825585 0.515663
O O11 0.413363 0.761763 0.535248
O O12 0.357204 0.955828 0.250000
O O13 0.429126 0.932768 0.019143
O O14 0.347458 0.000000 0.000000
O O15 0.500000 0.048119 0.750000
O O16 0.500000 0.000000 0.000000
O O17 0.103944 0.795953 0.250000
O O18 0.109692 0.824713 0.534275
O O19 0.000000 0.797102 0.418662
O O20 0.169082 0.869593 0.750000
#
# Coordination Sequence:
#
# PCOD9475722 Si02
#       7
#    16  16  16  16   8  16  16
#     4  11  24  38  55  82 115 153 194 236 286 340
#     4   9  19  36  58  85 115 149 190 235 282 334
#     4   9  20  40  63  87 114 145 184 232 287 345
#     4   9  19  34  53  75 103 139 182 230 277 329
#     4   8  14  28  48  70  94 122 164 218 270 316
#     4   9  19  38  64  90 115 144 182 230 283 341
#     4  11  23  38  57  83 118 155 193 236 280 335
#
# _framework density 19.295342999999999
#
# number of rings (size 3 to 8) (size 9 to 14) (size 15 to 20)
#    0.000    2.462    0.000    2.308    1.077    5.538 
#    0.000    6.154    0.000    0.000    0.000    0.000 
#    0.000    0.000    0.000    0.000    0.000    0.000 
#
# Total GULP energy -289827.404826 kJ/mol
# GULP energy per Si atom -5573.603939 kJ/mol
# Density = 1.925143 g / cm^3
# Si number density = 19.295343 Si / 1000 Ang^3
#
#
#
# Elastic Constant Matrix: (Units=GPa)
#
#
# Indices 1 2 3 4 5 6 
#
# 1 90.2420 65.3664 32.2027 0.0000 0.0000 0.0000
# 2 65.3664 76.9800 33.7179 0.0000 0.0000 0.0000
# 3 32.2027 33.7179 26.7690 0.0000 0.0000 0.0000
# 4 0.0000 0.0000 0.0000 25.8112 0.0000 0.0000
# 5 0.0000 0.0000 0.0000 0.0000 18.9271 0.0000
# 6 0.0000 0.0000 0.0000 0.0000 0.0000 14.3611
#
#
#
# Elastic Compliance Matrix: (Units=1/GPa)
#
#
# Indices 1 2 3 4 5 6 
#
# 1 0.029696 -0.021345 -0.008839 0.000000 0.000000 0.000000
# 2 -0.021345 0.044320 -0.030147 0.000000 0.000000 0.000000
# 3 -0.008839 -0.030147 0.085962 0.000000 0.000000 0.000000
# 4 0.000000 0.000000 0.000000 0.038743 0.000000 0.000000
# 5 0.000000 0.000000 0.000000 0.000000 0.052834 0.000000
# 6 0.000000 0.000000 0.000000 0.000000 0.000000 0.069633
#
#
# Mechanical properties :
#
#
# Convention : Reuss Voigt Hill
#
# Bulk Modulus (GPa) = 25.43415 50.72944 38.08180
# Shear Modulus (GPa) = 10.99012 16.00013 13.49513
#
# Velocity S-wave (km/s) = 2.38916 2.88275 2.64748
# Velocity P-wave (km/s) = 4.56299 6.11788 5.39673
#
# Compressibility (1/GPa) = 0.03931722
#
# Stress axis : x y z
#
# Youngs Moduli (GPa) = 33.67414 22.56341 11.63307
#
# Poissons Ratio (x) = 0.48161 0.10282
# Poissons Ratio (y) = 0.71877 0.35070
# Poissons Ratio (z) = 0.29763 0.68021
#
# Static dielectric constant tensor:
#      x y z
#    x 1.731420 0.000000 0.000000 
#    y 0.000000 1.663250 0.000000 
#    z 0.000000 0.000000 1.667510 
# 
# From -- ./inp_files/8815.got.cif
#   From: 2010.05.17/outbox.cif.g08.bks.cpg/sg63_5_cif.got.tgz:8815.got - 2010.06.03 15:47:04.
