data_PCOD9475924
_publ_section_title
;
Structure prediction by ZEFSAII (Michael W. Deem and Ramdas Pophale) SiO2 
 PCOD9475924
Probable space group: C M C M
;
_chemical_formula_sum "Si O2"
_cell_formula_units_Z 112
_cell_length_a 24.088250
_cell_length_b 16.876520
_cell_length_c 13.702210
_cell_angle_alpha 90.000000
_cell_angle_beta 90.000000
_cell_angle_gamma 90.000000
_cell_volume 5570.302333
_symmetry_space_group_name_H-M "C M C M"
_symmetry_group_IT_number 63
_symmetry_cell_setting 'orthorhombic'
loop_
_space_group_symop_operation_xyz
x,y,z
-x,-y,1/2+z
x,-y,-z
-x,y,1/2-z
-x,-y,-z
x,y,1/2-z
-x,y,z
x,-y,1/2+z
1/2+x,1/2+y,z
1/2-x,1/2-y,1/2+z
1/2+x,1/2-y,-z
1/2-x,1/2+y,1/2-z
1/2-x,1/2-y,-z
1/2+x,1/2+y,1/2-z
1/2-x,1/2+y,z
1/2+x,1/2-y,1/2+z
loop_
_atom_site_type_symbol
_atom_site_label
_atom_site_fract_x
_atom_site_fract_y
_atom_site_fract_z
Si Si1 0.566010 0.196535 0.133059
Si Si2 0.232532 0.124094 0.367215
Si Si3 0.563742 0.622194 0.868788
Si Si4 0.377511 0.534695 0.130785
Si Si5 0.155654 0.590226 0.475933
Si Si6 0.327370 0.216433 0.866205
Si Si7 0.439552 0.309937 0.867726
O O1 0.576492 0.189834 0.250000
O O2 0.500000 0.183556 0.118789
O O3 0.578391 0.287930 0.102960
O O4 0.604665 0.136513 0.074338
O O5 0.232405 0.123648 0.250000
O O6 0.291242 0.096242 0.405712
O O7 0.215786 0.214238 0.395404
O O8 0.182501 0.066671 0.400092
O O9 0.564198 0.622428 0.750000
O O10 0.500000 0.605121 0.896921
O O11 0.604655 0.552517 0.900827
O O12 0.376926 0.534202 0.250000
O O13 0.422676 0.601296 0.102691
O O14 0.141424 0.500000 0.500000
O O15 0.175449 0.636918 0.572578
O O16 0.322206 0.203583 0.750000
O O17 0.388208 0.252953 0.887396
O O18 0.442699 0.311457 0.750000
O O19 0.500000 0.286097 0.905445
#
# Coordination Sequence:
#
# PCOD9475924 Si02
#       7
#    16  16  16  16  16  16  16
#     4   9  20  40  63  88 120 157 197 242 296 358
#     4   9  19  39  61  84 119 156 194 239 294 359
#     4   8  13  25  50  85 121 154 188 224 272 342
#     4   8  13  24  48  84 121 152 183 224 275 339
#     4  12  25  40  61  86 113 149 200 256 306 352
#     4   9  20  39  60  83 115 155 197 245 296 354
#     4   8  13  24  48  81 114 148 183 225 283 345
#
# _framework density 20.106629000000002
#
# number of rings (size 3 to 8) (size 9 to 14) (size 15 to 20)
#    0.000    3.000    0.000    3.857    0.000    3.714 
#    5.143    0.000    0.000    1.714    0.000    5.000 
#    0.000    0.000    0.000    0.000    0.000    0.000 
#
# Total GULP energy -312742.818438 kJ/mol
# GULP energy per Si atom -5584.693186 kJ/mol
# Density = 2.006087 g / cm^3
# Si number density = 20.106629 Si / 1000 Ang^3
#
#
#
# Elastic Constant Matrix: (Units=GPa)
#
#
# Indices 1 2 3 4 5 6 
#
# 1 67.3263 52.5096 7.8235 0.0000 0.0000 0.0000
# 2 52.5096 157.6493 33.3848 0.0000 0.0000 0.0000
# 3 7.8235 33.3848 64.7619 0.0000 0.0000 0.0000
# 4 0.0000 0.0000 0.0000 25.5371 0.0000 0.0000
# 5 0.0000 0.0000 0.0000 0.0000 20.8405 0.0000
# 6 0.0000 0.0000 0.0000 0.0000 0.0000 17.1093
#
#
#
# Elastic Compliance Matrix: (Units=1/GPa)
#
#
# Indices 1 2 3 4 5 6 
#
# 1 0.020142 -0.006952 0.001151 0.000000 0.000000 0.000000
# 2 -0.006952 0.009520 -0.004068 0.000000 0.000000 0.000000
# 3 0.001151 -0.004068 0.017399 0.000000 0.000000 0.000000
# 4 0.000000 0.000000 0.000000 0.039159 0.000000 0.000000
# 5 0.000000 0.000000 0.000000 0.000000 0.047984 0.000000
# 6 0.000000 0.000000 0.000000 0.000000 0.000000 0.058448
#
#
# Mechanical properties :
#
#
# Convention : Reuss Voigt Hill
#
# Bulk Modulus (GPa) = 36.60035 53.01927 44.80981
# Shear Modulus (GPa) = 22.57359 25.76534 24.16947
#
# Velocity S-wave (km/s) = 3.35430 3.58360 3.47084
# Velocity P-wave (km/s) = 5.76579 6.59918 6.19651
#
# Compressibility (1/GPa) = 0.02732215
#
# Stress axis : x y z
#
# Youngs Moduli (GPa) = 49.64811 105.03811 57.47410
#
# Poissons Ratio (x) = 0.73028 -0.06614
# Poissons Ratio (y) = 0.34518 0.23380
# Poissons Ratio (z) = -0.05713 0.42728
#
# Static dielectric constant tensor:
#      x y z
#    x 1.673440 0.000000 0.000000 
#    y 0.000000 1.685300 0.000000 
#    z 0.000000 0.000000 1.783850 
# 
# From -- ./inp_files/36889.got.cif
#   From: 2010.05.17/outbox.cif.g08.bks.cpg/sg63_19_cif.got.tgz:36889.got - 2010.06.03 15:47:04.
