data_PCOD9475728
_publ_section_title
;
Structure prediction by ZEFSAII (Michael W. Deem and Ramdas Pophale) SiO2 
 PCOD9475728
Probable space group: C M C M
;
_chemical_formula_sum "Si O2"
_cell_formula_units_Z 112
_cell_length_a 32.095135
_cell_length_b 11.874735
_cell_length_c 14.773490
_cell_angle_alpha 90.000000
_cell_angle_beta 90.000000
_cell_angle_gamma 90.000000
_cell_volume 5630.490576
_symmetry_space_group_name_H-M "C M C M"
_symmetry_group_IT_number 63
_symmetry_cell_setting 'orthorhombic'
loop_
_space_group_symop_operation_xyz
x,y,z
-x,-y,1/2+z
x,-y,-z
-x,y,1/2-z
-x,-y,-z
x,y,1/2-z
-x,y,z
x,-y,1/2+z
1/2+x,1/2+y,z
1/2-x,1/2-y,1/2+z
1/2+x,1/2-y,-z
1/2-x,1/2+y,1/2-z
1/2-x,1/2-y,-z
1/2+x,1/2+y,1/2-z
1/2-x,1/2+y,z
1/2+x,1/2-y,1/2+z
loop_
_atom_site_type_symbol
_atom_site_label
_atom_site_fract_x
_atom_site_fract_y
_atom_site_fract_z
Si Si1 0.167403 0.065845 0.408607
Si Si2 0.826719 0.484742 0.143659
Si Si3 0.818418 0.826295 0.351690
Si Si4 0.746735 0.848350 0.639240
Si Si5 0.048035 0.635071 0.511052
Si Si6 0.880226 0.281811 0.141839
Si Si7 0.607004 0.815617 0.643932
O O1 0.210292 0.134836 0.411899
O O2 0.132910 0.153122 0.375984
O O3 0.156674 0.000000 0.500000
O O4 0.179621 0.959055 0.347441
O O5 0.818357 0.466964 0.250000
O O6 0.785990 0.552680 0.112332
O O7 0.843024 0.365582 0.107556
O O8 0.866116 0.569330 0.135082
O O9 0.821118 0.777867 0.250000
O O10 0.776291 0.768664 0.385017
O O11 0.860620 0.777581 0.394093
O O12 0.754238 0.851068 0.750000
O O13 0.050778 0.500000 0.500000
O O14 0.078480 0.679852 0.589515
O O15 0.066581 0.682203 0.417471
O O16 0.000000 0.665087 0.526578
O O17 0.884624 0.298459 0.250000
O O18 0.597028 0.799180 0.750000
#
# Coordination Sequence:
#
# PCOD9475728 Si02
#       7
#    16  16  16  16  16  16  16
#     4  12  25  38  54  85 124 162 214 266 318 370
#     4   8  16  33  57  83 114 159 208 248 302 373
#     4   9  19  37  59  80 110 158 210 251 302 367
#     4   9  19  36  57  81 113 155 205 261 310 363
#     4  11  23  38  61  96 129 157 194 253 322 386
#     4  11  23  41  64  89 123 172 216 259 318 384
#     4   9  17  36  61  87 121 163 202 246 308 379
#
# _framework density 19.891694999999999
#
# number of rings (size 3 to 8) (size 9 to 14) (size 15 to 20)
#    0.000    2.143    1.429    3.857    2.000    1.143 
#    5.143    1.429    0.000    3.857    0.000    4.000 
#    0.000    0.000    0.000    0.000    0.000    0.000 
#
# Total GULP energy -312349.554239 kJ/mol
# GULP energy per Si atom -5577.670611 kJ/mol
# Density = 1.984642 g / cm^3
# Si number density = 19.891695 Si / 1000 Ang^3
#
#
#
# Elastic Constant Matrix: (Units=GPa)
#
#
# Indices 1 2 3 4 5 6 
#
# 1 93.8455 42.2279 12.8872 0.0000 0.0000 0.0000
# 2 42.2279 109.7162 17.9353 0.0000 0.0000 0.0000
# 3 12.8872 17.9353 62.8510 0.0000 0.0000 0.0000
# 4 0.0000 0.0000 0.0000 26.8508 0.0000 0.0000
# 5 0.0000 0.0000 0.0000 0.0000 19.8539 0.0000
# 6 0.0000 0.0000 0.0000 0.0000 0.0000 12.9898
#
#
#
# Elastic Compliance Matrix: (Units=1/GPa)
#
#
# Indices 1 2 3 4 5 6 
#
# 1 0.012988 -0.004787 -0.001297 0.000000 0.000000 0.000000
# 2 -0.004787 0.011325 -0.002250 0.000000 0.000000 0.000000
# 3 -0.001297 -0.002250 0.016819 0.000000 0.000000 0.000000
# 4 0.000000 0.000000 0.000000 0.037243 0.000000 0.000000
# 5 0.000000 0.000000 0.000000 0.000000 0.050368 0.000000
# 6 0.000000 0.000000 0.000000 0.000000 0.000000 0.076983
#
#
# Mechanical properties :
#
#
# Convention : Reuss Voigt Hill
#
# Bulk Modulus (GPa) = 40.87780 45.83483 43.35631
# Shear Modulus (GPa) = 21.68748 24.82972 23.25860
#
# Velocity S-wave (km/s) = 3.30552 3.53688 3.42316
# Velocity P-wave (km/s) = 5.92987 6.30647 6.12107
#
# Compressibility (1/GPa) = 0.02446316
#
# Stress axis : x y z
#
# Youngs Moduli (GPa) = 76.99506 88.30335 59.45764
#
# Poissons Ratio (x) = 0.42269 0.07712
# Poissons Ratio (y) = 0.36856 0.13379
# Poissons Ratio (z) = 0.09987 0.19869
#
# Static dielectric constant tensor:
#      x y z
#    x 1.678130 0.000000 0.000000 
#    y 0.000000 1.749210 0.000000 
#    z 0.000000 0.000000 1.805010 
# 
# From -- ./inp_files/38532.got.cif
#   From: 2010.05.17/outbox.cif.g08.bks.cpg/sg63_20_cif.got.tgz:38532.got - 2010.06.03 15:47:04.
