data_PCOD9475877
_publ_section_title
;
Structure prediction by ZEFSAII (Michael W. Deem and Ramdas Pophale) SiO2 
 PCOD9475877
Probable space group: C M C M
;
_chemical_formula_sum "Si O2"
_cell_formula_units_Z 56
_cell_length_a 22.428084
_cell_length_b 14.724570
_cell_length_c 8.274802
_cell_angle_alpha 90.000000
_cell_angle_beta 90.000000
_cell_angle_gamma 90.000000
_cell_volume 2732.702825
_symmetry_space_group_name_H-M "C M C M"
_symmetry_group_IT_number 63
_symmetry_cell_setting 'orthorhombic'
loop_
_space_group_symop_operation_xyz
x,y,z
-x,-y,1/2+z
x,-y,-z
-x,y,1/2-z
-x,-y,-z
x,y,1/2-z
-x,y,z
x,-y,1/2+z
1/2+x,1/2+y,z
1/2-x,1/2-y,1/2+z
1/2+x,1/2-y,-z
1/2-x,1/2+y,1/2-z
1/2-x,1/2-y,-z
1/2+x,1/2+y,1/2-z
1/2-x,1/2+y,z
1/2+x,1/2-y,1/2+z
loop_
_atom_site_type_symbol
_atom_site_label
_atom_site_fract_x
_atom_site_fract_y
_atom_site_fract_z
Si Si1 0.567120 0.303916 0.250000
Si Si2 0.258861 0.353069 0.437195
Si Si3 0.068584 0.588126 0.250000
Si Si4 0.617829 0.598984 0.437731
Si Si5 0.342860 0.000000 0.500000
O O1 0.500000 0.341040 0.250000
O O2 0.566046 0.195960 0.250000
O O3 0.595635 0.334400 0.420564
O O4 0.278701 0.349199 0.250000
O O5 0.250000 0.250000 0.500000
O O6 0.310470 0.395415 0.548374
O O7 0.201734 0.419648 0.441623
O O8 0.109969 0.553527 0.392530
O O9 0.000000 0.553926 0.250000
O O10 0.598516 0.500000 0.500000
O O11 0.600332 0.615181 0.250000
#
# Coordination Sequence:
#
# PCOD9475877 Si02
#       5
#     8  16   8  16   8
#     4  11  26  49  74 103 141 196 255 306 365 440
#     4  12  25  41  68 106 142 181 235 297 368 443
#     4  11  26  49  72  99 143 190 247 306 357 438
#     4  12  24  44  69 103 150 188 239 306 369 439
#     4  12  25  44  72 104 137 190 236 288 378 432
#
# _framework density 20.492531
#
# number of rings (size 3 to 8) (size 9 to 14) (size 15 to 20)
#    0.000    0.286    5.714    3.000    4.000    1.143 
#    2.571    0.000    0.000    0.000    0.000    0.000 
#    0.000    0.000    0.000    0.000    0.000    0.000 
#
# Total GULP energy -156117.400554 kJ/mol
# GULP energy per Si atom -5575.621448 kJ/mol
# Density = 2.044589 g / cm^3
# Si number density = 20.492531 Si / 1000 Ang^3
#
#
#
# Elastic Constant Matrix: (Units=GPa)
#
#
# Indices 1 2 3 4 5 6 
#
# 1 115.2974 27.4266 51.0255 0.0000 0.0000 0.0000
# 2 27.4266 110.7657 41.6733 0.0000 0.0000 0.0000
# 3 51.0255 41.6733 169.9072 0.0000 0.0000 0.0000
# 4 0.0000 0.0000 0.0000 16.8091 0.0000 0.0000
# 5 0.0000 0.0000 0.0000 0.0000 18.0082 0.0000
# 6 0.0000 0.0000 0.0000 0.0000 0.0000 48.9578
#
#
#
# Elastic Compliance Matrix: (Units=1/GPa)
#
#
# Indices 1 2 3 4 5 6 
#
# 1 0.010229 -0.001517 -0.002700 0.000000 0.000000 0.000000
# 2 -0.001517 0.010171 -0.002039 0.000000 0.000000 0.000000
# 3 -0.002700 -0.002039 0.007196 0.000000 0.000000 0.000000
# 4 0.000000 0.000000 0.000000 0.059491 0.000000 0.000000
# 5 0.000000 0.000000 0.000000 0.000000 0.055530 0.000000
# 6 0.000000 0.000000 0.000000 0.000000 0.000000 0.020426
#
#
# Mechanical properties :
#
#
# Convention : Reuss Voigt Hill
#
# Bulk Modulus (GPa) = 66.29322 70.69124 68.49223
# Shear Modulus (GPa) = 27.68799 35.14467 31.41633
#
# Velocity S-wave (km/s) = 3.67975 4.14575 3.91968
# Velocity P-wave (km/s) = 7.10453 7.58204 7.34716
#
# Compressibility (1/GPa) = 0.01508450
#
# Stress axis : x y z
#
# Youngs Moduli (GPa) = 97.76221 98.32034 138.95702
#
# Poissons Ratio (x) = 0.14915 0.37516
# Poissons Ratio (y) = 0.14831 0.28334
# Poissons Ratio (z) = 0.26394 0.20048
#
# Static dielectric constant tensor:
#      x y z
#    x 1.733560 0.000000 0.000000 
#    y 0.000000 1.716140 0.000000 
#    z 0.000000 0.000000 1.717250 
# 
# From -- ./inp_files/7350.got.cif
#   From: 2010.05.17/outbox.cif.g08.bks.cpg/sg63_4_cif.got.tgz:7350.got - 2010.06.03 15:47:04.
