data_PCOD9475908
_publ_section_title
;
Structure prediction by ZEFSAII (Michael W. Deem and Ramdas Pophale) SiO2 
 PCOD9475908
Probable space group: C M C M
;
_chemical_formula_sum "Si O2"
_cell_formula_units_Z 60
_cell_length_a 5.246175
_cell_length_b 18.170090
_cell_length_c 29.168814
_cell_angle_alpha 90.000000
_cell_angle_beta 90.000000
_cell_angle_gamma 90.000000
_cell_volume 2780.472622
_symmetry_space_group_name_H-M "C M C M"
_symmetry_group_IT_number 63
_symmetry_cell_setting 'orthorhombic'
loop_
_space_group_symop_operation_xyz
x,y,z
-x,-y,1/2+z
x,-y,-z
-x,y,1/2-z
-x,-y,-z
x,y,1/2-z
-x,y,z
x,-y,1/2+z
1/2+x,1/2+y,z
1/2-x,1/2-y,1/2+z
1/2+x,1/2-y,-z
1/2-x,1/2+y,1/2-z
1/2-x,1/2-y,-z
1/2+x,1/2+y,1/2-z
1/2-x,1/2+y,z
1/2+x,1/2-y,1/2+z
loop_
_atom_site_type_symbol
_atom_site_label
_atom_site_fract_x
_atom_site_fract_y
_atom_site_fract_z
Si Si1 0.000000 0.620042 0.076171
Si Si2 0.000000 0.957831 0.547284
Si Si3 0.500000 0.097448 0.318759
Si Si4 0.000000 0.456534 0.250000
Si Si5 0.000000 0.354531 0.159194
Si Si6 0.000000 0.195523 0.301941
Si Si7 0.000000 0.766307 0.030722
Si Si8 0.500000 0.395346 0.398833
O O1 0.250773 0.591236 0.051507
O O2 0.000000 0.707887 0.072734
O O3 0.000000 0.587225 0.126865
O O4 0.000000 0.000000 0.500000
O O5 0.000000 0.019564 0.586791
O O6 0.751515 0.145071 0.308204
O O7 0.500000 0.022805 0.289776
O O8 0.000000 0.394106 0.291263
O O9 0.749592 0.377381 0.130890
O O10 0.000000 0.266213 0.165576
O O11 0.000000 0.223236 0.250000
O O12 0.000000 0.845505 0.055055
O O13 0.250000 0.750000 0.000000
#
# Coordination Sequence:
#
# PCOD9475908 Si02
#       8
#     8   8   8   4   8   8   8   8
#     4  12  25  45  69 104 136 183 228 289 343 410
#     4  12  25  45  69  98 140 183 227 275 351 416
#     4  12  26  44  72  97 139 174 235 281 342 402
#     4  12  26  46  68 102 132 186 232 290 334 406
#     4  12  27  45  71  99 142 180 234 281 347 409
#     4  12  23  47  66  99 127 183 219 274 342 407
#     4  12  25  45  74 107 140 180 233 288 352 425
#     4  12  26  47  69 104 139 182 226 292 342 411
#
# _framework density 21.579063999999999
#
# number of rings (size 3 to 8) (size 9 to 14) (size 15 to 20)
#    0.000    0.000    2.000    9.200    0.000    2.667 
#    0.000    0.000    0.000    0.000    0.000    0.000 
#    0.000    0.000    0.000    0.000    0.000    0.000 
#
# Total GULP energy -167525.643294 kJ/mol
# GULP energy per Si atom -5584.188110 kJ/mol
# Density = 2.152995 g / cm^3
# Si number density = 21.579064 Si / 1000 Ang^3
#
#
#
# Elastic Constant Matrix: (Units=GPa)
#
#
# Indices 1 2 3 4 5 6 
#
# 1 188.0880 36.9248 30.3812 0.0000 0.0000 0.0000
# 2 36.9248 118.8487 0.1180 0.0000 0.0000 0.0000
# 3 30.3812 0.1180 105.0839 0.0000 0.0000 0.0000
# 4 0.0000 0.0000 0.0000 63.1175 0.0000 0.0000
# 5 0.0000 0.0000 0.0000 0.0000 37.5972 0.0000
# 6 0.0000 0.0000 0.0000 0.0000 0.0000 26.6670
#
#
#
# Elastic Compliance Matrix: (Units=1/GPa)
#
#
# Indices 1 2 3 4 5 6 
#
# 1 0.005958 -0.001849 -0.001720 0.000000 0.000000 0.000000
# 2 -0.001849 0.008988 0.000525 0.000000 0.000000 0.000000
# 3 -0.001720 0.000525 0.010013 0.000000 0.000000 0.000000
# 4 0.000000 0.000000 0.000000 0.015843 0.000000 0.000000
# 5 0.000000 0.000000 0.000000 0.000000 0.026598 0.000000
# 6 0.000000 0.000000 0.000000 0.000000 0.000000 0.037500
#
#
# Mechanical properties :
#
#
# Convention : Reuss Voigt Hill
#
# Bulk Modulus (GPa) = 52.99813 60.76316 56.88064
# Shear Modulus (GPa) = 42.63339 48.44945 45.54142
#
# Velocity S-wave (km/s) = 4.44969 4.74350 4.59894
# Velocity P-wave (km/s) = 7.14233 7.63024 7.39031
#
# Compressibility (1/GPa) = 0.01886859
#
# Stress axis : x y z
#
# Youngs Moduli (GPa) = 167.85354 111.25858 99.87023
#
# Poissons Ratio (x) = 0.20574 0.17181
# Poissons Ratio (y) = 0.31040 -0.05239
# Poissons Ratio (z) = 0.28877 -0.05836
#
# Static dielectric constant tensor:
#      x y z
#    x 1.789930 0.000000 0.000000 
#    y 0.000000 1.740700 0.000000 
#    z 0.000000 0.000000 1.786790 
# 
# From -- ./inp_files/65944.got.cif
#   From: 2010.05.17/outbox.cif.g08.bks.cpg/sg63_33_cif.got.tgz:65944.got - 2010.06.03 15:47:04.
