data_PCOD9475841
_publ_section_title
;
Structure prediction by ZEFSAII (Michael W. Deem and Ramdas Pophale) SiO2 
 PCOD9475841
Probable space group: C M C M
;
_chemical_formula_sum "Si O2"
_cell_formula_units_Z 64
_cell_length_a 11.643910
_cell_length_b 16.473013
_cell_length_c 16.003414
_cell_angle_alpha 90.000000
_cell_angle_beta 90.000000
_cell_angle_gamma 90.000000
_cell_volume 3069.619333
_symmetry_space_group_name_H-M "C M C M"
_symmetry_group_IT_number 63
_symmetry_cell_setting 'orthorhombic'
loop_
_space_group_symop_operation_xyz
x,y,z
-x,-y,1/2+z
x,-y,-z
-x,y,1/2-z
-x,-y,-z
x,y,1/2-z
-x,y,z
x,-y,1/2+z
1/2+x,1/2+y,z
1/2-x,1/2-y,1/2+z
1/2+x,1/2-y,-z
1/2-x,1/2+y,1/2-z
1/2-x,1/2-y,-z
1/2+x,1/2+y,1/2-z
1/2-x,1/2+y,z
1/2+x,1/2-y,1/2+z
loop_
_atom_site_type_symbol
_atom_site_label
_atom_site_fract_x
_atom_site_fract_y
_atom_site_fract_z
Si Si1 0.368765 0.393560 0.250000
Si Si2 0.000000 0.531228 0.904513
Si Si3 0.717817 0.854294 0.408203
Si Si4 0.132798 0.912268 0.750000
Si Si5 0.000000 0.350370 0.653151
Si Si6 0.746695 0.330115 0.590725
O O1 0.500000 0.367366 0.250000
O O2 0.306121 0.363730 0.333050
O O3 0.363556 0.490919 0.250000
O O4 0.888959 0.587028 0.891008
O O5 0.000000 0.448861 0.851439
O O6 0.000000 0.500000 0.000000
O O7 0.688754 0.758512 0.412185
O O8 0.766460 0.872549 0.500791
O O9 0.195459 0.879358 0.667705
O O10 0.000000 0.885787 0.750000
O O11 0.116367 0.321765 0.607802
O O12 0.000000 0.325873 0.750000
#
# Coordination Sequence:
#
# PCOD9475841 Si02
#       6
#     8   8  16   8   8  16
#     4  11  27  45  67  99 133 185 231 277 335 415
#     4  12  24  44  70 108 136 172 229 293 338 414
#     4  11  26  43  70 100 139 172 231 281 344 405
#     4  11  25  43  65  95 135 175 225 273 341 407
#     4  12  24  42  72 101 136 180 232 281 346 408
#     4  11  24  44  69  99 135 182 220 286 345 409
#
# _framework density 20.849491
#
# number of rings (size 3 to 8) (size 9 to 14) (size 15 to 20)
#    0.000    0.750    3.750    2.250    5.250    1.000 
#    0.000    2.500    0.000    0.000    0.000    0.000 
#    0.000    0.000    0.000    0.000    0.000    0.000 
#
# Total GULP energy -179079.015086 kJ/mol
# GULP energy per Si atom -5596.219221 kJ/mol
# Density = 2.080204 g / cm^3
# Si number density = 20.849491 Si / 1000 Ang^3
#
#
#
# Elastic Constant Matrix: (Units=GPa)
#
#
# Indices 1 2 3 4 5 6 
#
# 1 103.0965 19.9064 50.6313 0.0000 0.0000 0.0000
# 2 19.9064 86.9868 9.4528 0.0000 0.0000 0.0000
# 3 50.6313 9.4528 183.6391 0.0000 0.0000 0.0000
# 4 0.0000 0.0000 0.0000 34.9741 0.0000 0.0000
# 5 0.0000 0.0000 0.0000 0.0000 74.7690 0.0000
# 6 0.0000 0.0000 0.0000 0.0000 0.0000 62.1359
#
#
#
# Elastic Compliance Matrix: (Units=1/GPa)
#
#
# Indices 1 2 3 4 5 6 
#
# 1 0.011672 -0.002334 -0.003098 0.000000 0.000000 0.000000
# 2 -0.002334 0.012028 0.000024 0.000000 0.000000 0.000000
# 3 -0.003098 0.000024 0.006298 0.000000 0.000000 0.000000
# 4 0.000000 0.000000 0.000000 0.028593 0.000000 0.000000
# 5 0.000000 0.000000 0.000000 0.000000 0.013375 0.000000
# 6 0.000000 0.000000 0.000000 0.000000 0.000000 0.016094
#
#
# Mechanical properties :
#
#
# Convention : Reuss Voigt Hill
#
# Bulk Modulus (GPa) = 52.13183 59.30037 55.71610
# Shear Modulus (GPa) = 47.49777 53.95792 50.72785
#
# Velocity S-wave (km/s) = 4.77815 5.09273 4.93795
# Velocity P-wave (km/s) = 7.44977 7.94261 7.70014
#
# Compressibility (1/GPa) = 0.01918214
#
# Stress axis : x y z
#
# Youngs Moduli (GPa) = 85.67679 83.14246 158.77249
#
# Poissons Ratio (x) = 0.19409 0.49186
# Poissons Ratio (y) = 0.20000 -0.00389
# Poissons Ratio (z) = 0.26542 -0.00204
#
# Static dielectric constant tensor:
#      x y z
#    x 1.724170 0.000000 0.000000 
#    y 0.000000 1.755830 0.000000 
#    z 0.000000 0.000000 1.763340 
# 
# From -- ./inp_files/29244.got.cif
#   From: 2010.05.17/outbox.cif.g08.bks.cpg/sg63_15_cif.got.tgz:29244.got - 2010.06.03 15:47:04.
