data_PCOD9475953
_publ_section_title
;
Structure prediction by ZEFSAII (Michael W. Deem and Ramdas Pophale) SiO2 
 PCOD9475953
Probable space group: C M C M
;
_chemical_formula_sum "Si O2"
_cell_formula_units_Z 112
_cell_length_a 7.406436
_cell_length_b 30.325516
_cell_length_c 27.671020
_cell_angle_alpha 90.000000
_cell_angle_beta 90.000000
_cell_angle_gamma 90.000000
_cell_volume 6215.021594
_symmetry_space_group_name_H-M "C M C M"
_symmetry_group_IT_number 63
_symmetry_cell_setting 'orthorhombic'
loop_
_space_group_symop_operation_xyz
x,y,z
-x,-y,1/2+z
x,-y,-z
-x,y,1/2-z
-x,-y,-z
x,y,1/2-z
-x,y,z
x,-y,1/2+z
1/2+x,1/2+y,z
1/2-x,1/2-y,1/2+z
1/2+x,1/2-y,-z
1/2-x,1/2+y,1/2-z
1/2-x,1/2-y,-z
1/2+x,1/2+y,1/2-z
1/2-x,1/2+y,z
1/2+x,1/2-y,1/2+z
loop_
_atom_site_type_symbol
_atom_site_label
_atom_site_fract_x
_atom_site_fract_y
_atom_site_fract_z
Si Si1 0.778643 0.341949 0.436974
Si Si2 0.714865 0.691092 0.304333
Si Si3 0.783535 0.382402 0.878316
Si Si4 0.718233 0.811019 0.542536
Si Si5 0.719958 0.035001 0.432470
Si Si6 0.709317 0.761200 0.118105
Si Si7 0.780208 0.560529 0.958503
O O1 0.722731 0.321377 0.488520
O O2 0.715358 0.309250 0.394686
O O3 0.720973 0.392865 0.436927
O O4 0.000000 0.341663 0.436415
O O5 0.786970 0.693115 0.250000
O O6 0.500000 0.697781 0.301874
O O7 0.738792 0.643535 0.329540
O O8 0.788152 0.728854 0.340828
O O9 0.722894 0.350424 0.921872
O O10 0.719095 0.431523 0.890797
O O11 0.000000 0.383712 0.880520
O O12 0.500000 0.809859 0.542644
O O13 0.783140 0.766672 0.568240
O O14 0.500000 0.034160 0.431920
O O15 0.770680 0.054785 0.485058
O O16 0.778919 0.984166 0.431719
O O17 0.500000 0.767700 0.130836
O O18 0.000000 0.561035 0.958169
#
# Coordination Sequence:
#
# PCOD9475953 Si02
#       7
#    16  16  16  16  16  16  16
#     4   9  14  21  33  52  77 103 129 155 180 214
#     4   9  18  31  42  53  72  98 128 161 196 235
#     4   9  15  24  40  61  80  98 124 157 192 225
#     4   9  15  23  35  53  78 103 124 151 183 219
#     4   8  12  19  32  54  81 105 126 149 180 215
#     4   9  17  26  37  53  72  97 128 159 190 223
#     4   8  12  18  31  52  80 108 129 149 174 212
#
# _framework density 18.020855999999998
#
# number of rings (size 3 to 8) (size 9 to 14) (size 15 to 20)
#    0.000    3.286    1.429    1.286    0.000    0.286 
#    0.000    0.000    0.000    0.000    0.000    5.000 
#    0.000    5.714    0.000    1.429    0.000    2.143 
#
# Total GULP energy -311974.545442 kJ/mol
# GULP energy per Si atom -5570.974026 kJ/mol
# Density = 1.797984 g / cm^3
# Si number density = 18.020856 Si / 1000 Ang^3
#
#
#
# Elastic Constant Matrix: (Units=GPa)
#
#
# Indices 1 2 3 4 5 6 
#
# 1 57.9113 2.4869 4.5893 0.0000 0.0000 0.0000
# 2 2.4869 175.8235 78.0232 0.0000 0.0000 0.0000
# 3 4.5893 78.0232 89.3323 0.0000 0.0000 0.0000
# 4 0.0000 0.0000 0.0000 11.7141 0.0000 0.0000
# 5 0.0000 0.0000 0.0000 0.0000 11.0052 0.0000
# 6 0.0000 0.0000 0.0000 0.0000 0.0000 8.3736
#
#
#
# Elastic Compliance Matrix: (Units=1/GPa)
#
#
# Indices 1 2 3 4 5 6 
#
# 1 0.017345 0.000245 -0.001105 0.000000 0.000000 0.000000
# 2 0.000245 0.009290 -0.008127 0.000000 0.000000 0.000000
# 3 -0.001105 -0.008127 0.018349 0.000000 0.000000 0.000000
# 4 0.000000 0.000000 0.000000 0.085367 0.000000 0.000000
# 5 0.000000 0.000000 0.000000 0.000000 0.090866 0.000000
# 6 0.000000 0.000000 0.000000 0.000000 0.000000 0.119422
#
#
# Mechanical properties :
#
#
# Convention : Reuss Voigt Hill
#
# Bulk Modulus (GPa) = 37.02275 54.80731 45.91503
# Shear Modulus (GPa) = 13.60110 22.08310 17.84210
#
# Velocity S-wave (km/s) = 2.75024 3.50440 3.14997
# Velocity P-wave (km/s) = 5.53842 6.84497 6.22606
#
# Compressibility (1/GPa) = 0.02701042
#
# Stress axis : x y z
#
# Youngs Moduli (GPa) = 57.65406 107.63746 54.49883
#
# Poissons Ratio (x) = -0.02638 0.06023
# Poissons Ratio (y) = -0.01413 0.44291
# Poissons Ratio (z) = 0.06371 0.87476
#
# Static dielectric constant tensor:
#      x y z
#    x 1.716070 0.000000 0.000000 
#    y 0.000000 1.658470 0.000000 
#    z 0.000000 0.000000 1.595540 
# 
# From -- ./inp_files/53370.got.cif
#   From: 2010.05.17/outbox.cif.g08.bks.cpg/sg63_27_cif.got.tgz:53370.got - 2010.06.03 15:47:04.
