data_PCOD9475414
_publ_section_title
;
Structure prediction by ZEFSAII (Michael W. Deem and Ramdas Pophale) SiO2 
 PCOD9475414
Probable space group: C M C M
;
_chemical_formula_sum "Si O2"
_cell_formula_units_Z 64
_cell_length_a 24.987173
_cell_length_b 7.232289
_cell_length_c 17.457339
_cell_angle_alpha 90.000000
_cell_angle_beta 90.000000
_cell_angle_gamma 90.000000
_cell_volume 3154.793528
_symmetry_space_group_name_H-M "C M C M"
_symmetry_group_IT_number 63
_symmetry_cell_setting 'orthorhombic'
loop_
_space_group_symop_operation_xyz
x,y,z
-x,-y,1/2+z
x,-y,-z
-x,y,1/2-z
-x,-y,-z
x,y,1/2-z
-x,y,z
x,-y,1/2+z
1/2+x,1/2+y,z
1/2-x,1/2-y,1/2+z
1/2+x,1/2-y,-z
1/2-x,1/2+y,1/2-z
1/2-x,1/2-y,-z
1/2+x,1/2+y,1/2-z
1/2-x,1/2+y,z
1/2+x,1/2-y,1/2+z
loop_
_atom_site_type_symbol
_atom_site_label
_atom_site_fract_x
_atom_site_fract_y
_atom_site_fract_z
Si Si1 0.563363 0.079009 0.913905
Si Si2 0.249060 0.372653 0.941071
Si Si3 0.854975 0.318737 0.662593
Si Si4 0.133500 0.062680 0.088799
O O1 0.500000 0.081212 0.902021
O O2 0.589747 0.279328 0.904861
O O3 0.595463 0.949831 0.856129
O O4 0.573677 0.000000 0.000000
O O5 0.249978 0.623644 0.962540
O O6 0.194124 0.368064 0.893948
O O7 0.305850 0.368685 0.898062
O O8 0.837487 0.333951 0.750000
O O9 0.874101 0.112644 0.642263
O O10 0.132761 0.000000 0.000000
#
# Coordination Sequence:
#
# PCOD9475414 Si02
#       4
#    16  16  16  16
#     4  11  24  44  72  99 128 175 231 275 321 396
#     4  11  19  38  66  91 130 175 213 268 328 395
#     4  12  26  42  64 100 139 175 219 276 338 392
#     4  11  22  41  69  99 132 171 224 274 328 391
#
# _framework density 20.28659
#
# number of rings (size 3 to 8) (size 9 to 14) (size 15 to 20)
#    0.000    0.750    7.500    2.250    0.000    4.000 
#    0.000    0.000    0.000    0.000    0.000    0.000 
#    0.000    0.000    0.000    0.000    0.000    0.000 
#
# Total GULP energy -178642.831155 kJ/mol
# GULP energy per Si atom -5582.588474 kJ/mol
# Density = 2.024042 g / cm^3
# Si number density = 20.286590 Si / 1000 Ang^3
#
#
#
# Elastic Constant Matrix: (Units=GPa)
#
#
# Indices 1 2 3 4 5 6 
#
# 1 137.1545 69.7168 51.0610 0.0000 0.0000 0.0000
# 2 69.7168 133.5270 38.9042 0.0000 0.0000 0.0000
# 3 51.0610 38.9042 74.0960 0.0000 0.0000 0.0000
# 4 0.0000 0.0000 0.0000 16.0196 0.0000 0.0000
# 5 0.0000 0.0000 0.0000 0.0000 14.2178 0.0000
# 6 0.0000 0.0000 0.0000 0.0000 0.0000 3.2152
#
#
#
# Elastic Compliance Matrix: (Units=1/GPa)
#
#
# Indices 1 2 3 4 5 6 
#
# 1 0.011670 -0.004427 -0.005717 0.000000 0.000000 0.000000
# 2 -0.004427 0.010521 -0.002473 0.000000 0.000000 0.000000
# 3 -0.005717 -0.002473 0.018735 0.000000 0.000000 0.000000
# 4 0.000000 0.000000 0.000000 0.062424 0.000000 0.000000
# 5 0.000000 0.000000 0.000000 0.000000 0.070334 0.000000
# 6 0.000000 0.000000 0.000000 0.000000 0.000000 0.311025
#
#
# Mechanical properties :
#
#
# Convention : Reuss Voigt Hill
#
# Bulk Modulus (GPa) = 63.73553 73.79348 68.76450
# Shear Modulus (GPa) = 9.70544 19.03022 14.36783
#
# Velocity S-wave (km/s) = 2.18965 3.06611 2.66417
# Velocity P-wave (km/s) = 6.15455 6.99923 6.59044
#
# Compressibility (1/GPa) = 0.01568984
#
# Stress axis : x y z
#
# Youngs Moduli (GPa) = 85.68955 95.04522 53.37705
#
# Poissons Ratio (x) = 0.42079 0.30518
# Poissons Ratio (y) = 0.37937 0.13202
# Poissons Ratio (z) = 0.48993 0.23507
#
# Static dielectric constant tensor:
#      x y z
#    x 1.637600 0.000000 0.000000 
#    y 0.000000 2.693110 0.000000 
#    z 0.000000 0.000000 1.704810 
# 
# From -- ./inp_files/57134.got.cif
#   From: 2010.05.17/outbox.cif.g08.bks.cpg/sg63_29_cif.got.tgz:57134.got - 2010.06.03 15:47:04.
