data_PCOD9475111
_publ_section_title
;
Structure prediction by ZEFSAII (Michael W. Deem and Ramdas Pophale) SiO2 
 PCOD9475111
Probable space group: C M C M
;
_chemical_formula_sum "Si O2"
_cell_formula_units_Z 64
_cell_length_a 13.158159
_cell_length_b 15.990064
_cell_length_c 14.861626
_cell_angle_alpha 90.000000
_cell_angle_beta 90.000000
_cell_angle_gamma 90.000000
_cell_volume 3126.883205
_symmetry_space_group_name_H-M "C M C M"
_symmetry_group_IT_number 63
_symmetry_cell_setting 'orthorhombic'
loop_
_space_group_symop_operation_xyz
x,y,z
-x,-y,1/2+z
x,-y,-z
-x,y,1/2-z
-x,-y,-z
x,y,1/2-z
-x,y,z
x,-y,1/2+z
1/2+x,1/2+y,z
1/2-x,1/2-y,1/2+z
1/2+x,1/2-y,-z
1/2-x,1/2+y,1/2-z
1/2-x,1/2-y,-z
1/2+x,1/2+y,1/2-z
1/2-x,1/2+y,z
1/2+x,1/2-y,1/2+z
loop_
_atom_site_type_symbol
_atom_site_label
_atom_site_fract_x
_atom_site_fract_y
_atom_site_fract_z
Si Si1 0.174396 0.679403 0.969127
Si Si2 0.388466 0.903480 0.848839
Si Si3 0.717171 0.455623 0.151240
Si Si4 0.500000 0.730740 0.357806
Si Si5 0.500000 0.531494 0.101886
O O1 0.242627 0.606799 0.924700
O O2 0.096044 0.719729 0.898763
O O3 0.250000 0.750000 0.000000
O O4 0.119905 0.649479 0.060622
O O5 0.382147 0.859749 0.750000
O O6 0.500000 0.945701 0.850834
O O7 0.296859 0.968365 0.851189
O O8 0.724490 0.414828 0.250000
O O9 0.604189 0.492675 0.140912
O O10 0.500000 0.732610 0.250000
O O11 0.500000 0.632457 0.387293
O O12 0.500000 0.500000 0.000000
#
# Coordination Sequence:
#
# PCOD9475111 Si02
#       5
#    16  16  16   8   8
#     4  12  25  42  66 100 138 176 223 278 343 412
#     4  10  22  42  68  97 128 171 224 279 336 398
#     4  11  24  42  69  99 131 178 230 279 333 404
#     4  12  26  44  68 101 143 183 224 283 351 411
#     4  12  24  46  70  97 135 185 236 279 335 409
#
# _framework density 20.467666000000001
#
# number of rings (size 3 to 8) (size 9 to 14) (size 15 to 20)
#    0.000    0.750    1.250    7.125    1.750    5.000 
#    0.000    0.000    0.000    0.000    0.000    0.000 
#    0.000    0.000    0.000    0.000    0.000    0.000 
#
# Total GULP energy -178706.585560 kJ/mol
# GULP energy per Si atom -5584.580799 kJ/mol
# Density = 2.042108 g / cm^3
# Si number density = 20.467666 Si / 1000 Ang^3
#
#
#
# Elastic Constant Matrix: (Units=GPa)
#
#
# Indices 1 2 3 4 5 6 
#
# 1 181.9489 53.4685 55.2180 0.0000 0.0000 0.0000
# 2 53.4685 82.9186 59.9958 0.0000 0.0000 0.0000
# 3 55.2180 59.9958 168.1498 0.0000 0.0000 0.0000
# 4 0.0000 0.0000 0.0000 15.0509 0.0000 0.0000
# 5 0.0000 0.0000 0.0000 0.0000 26.5491 0.0000
# 6 0.0000 0.0000 0.0000 0.0000 0.0000 32.6481
#
#
#
# Elastic Compliance Matrix: (Units=1/GPa)
#
#
# Indices 1 2 3 4 5 6 
#
# 1 0.006883 -0.003779 -0.000912 0.000000 0.000000 0.000000
# 2 -0.003779 0.018331 -0.005300 0.000000 0.000000 0.000000
# 3 -0.000912 -0.005300 0.008138 0.000000 0.000000 0.000000
# 4 0.000000 0.000000 0.000000 0.066441 0.000000 0.000000
# 5 0.000000 0.000000 0.000000 0.000000 0.037666 0.000000
# 6 0.000000 0.000000 0.000000 0.000000 0.000000 0.030630
#
#
# Mechanical properties :
#
#
# Convention : Reuss Voigt Hill
#
# Bulk Modulus (GPa) = 74.78823 85.59800 80.19312
# Shear Modulus (GPa) = 25.97044 32.47197 29.22120
#
# Velocity S-wave (km/s) = 3.56596 3.98741 3.78256
# Velocity P-wave (km/s) = 7.31941 7.94425 7.63822
#
# Compressibility (1/GPa) = 0.01337109
#
# Stress axis : x y z
#
# Youngs Moduli (GPa) = 145.28001 54.55189 122.88673
#
# Poissons Ratio (x) = 0.20613 0.11210
# Poissons Ratio (y) = 0.54894 0.65127
# Poissons Ratio (z) = 0.13252 0.28911
#
# Static dielectric constant tensor:
#      x y z
#    x 1.711250 0.000000 0.000000 
#    y 0.000000 1.712620 0.000000 
#    z 0.000000 0.000000 1.865620 
# 
# From -- ./inp_files/29163.got.cif
#   From: 2010.05.17/outbox.cif.g08.bks.cpg/sg63_15_cif.got.tgz:29163.got - 2010.06.03 15:47:04.
