data_PCOD9475044
_publ_section_title
;
Structure prediction by ZEFSAII (Michael W. Deem and Ramdas Pophale) SiO2 
 PCOD9475044
Probable space group: C M C M
;
_chemical_formula_sum "Si O2"
_cell_formula_units_Z 80
_cell_length_a 26.756859
_cell_length_b 16.940107
_cell_length_c 10.200537
_cell_angle_alpha 90.000000
_cell_angle_beta 90.000000
_cell_angle_gamma 90.000000
_cell_volume 4623.536758
_symmetry_space_group_name_H-M "C M C M"
_symmetry_group_IT_number 63
_symmetry_cell_setting 'orthorhombic'
loop_
_space_group_symop_operation_xyz
x,y,z
-x,-y,1/2+z
x,-y,-z
-x,y,1/2-z
-x,-y,-z
x,y,1/2-z
-x,y,z
x,-y,1/2+z
1/2+x,1/2+y,z
1/2-x,1/2-y,1/2+z
1/2+x,1/2-y,-z
1/2-x,1/2+y,1/2-z
1/2-x,1/2-y,-z
1/2+x,1/2+y,1/2-z
1/2-x,1/2+y,z
1/2+x,1/2-y,1/2+z
loop_
_atom_site_type_symbol
_atom_site_label
_atom_site_fract_x
_atom_site_fract_y
_atom_site_fract_z
Si Si1 0.156430 0.066062 0.098075
Si Si2 0.559436 0.077025 0.750000
Si Si3 0.444463 0.351337 0.908255
Si Si4 0.900648 0.316183 0.017395
Si Si5 0.060258 0.388834 0.750000
Si Si6 0.796577 0.760204 0.903892
O O1 0.156276 0.039630 0.250000
O O2 0.099956 0.089484 0.056281
O O3 0.186136 0.148370 0.091797
O O4 0.176129 0.000000 0.000000
O O5 0.500000 0.090863 0.750000
O O6 0.582455 0.119818 0.624145
O O7 0.567645 0.983329 0.750000
O O8 0.442763 0.344507 0.750000
O O9 0.500000 0.375972 0.948096
O O10 0.431648 0.264664 0.961595
O O11 0.914006 0.350957 0.876739
O O12 0.843385 0.291569 0.044831
O O13 0.000000 0.374668 0.750000
O O14 0.786709 0.741215 0.750000
O O15 0.750000 0.750000 0.000000
#
# Coordination Sequence:
#
# PCOD9475044 Si02
#       6
#    16   8  16  16   8  16
#     4   9  19  36  55  82 113 141 180 224 273 333
#     4  11  20  36  59  80 115 165 200 233 290 356
#     4   9  16  30  55  79 105 149 191 222 266 332
#     4  11  20  37  57  83 115 151 197 243 284 348
#     4  11  24  34  51  88 127 159 194 241 294 340
#     4  10  22  41  66  87 108 147 196 241 292 347
#
# _framework density 17.302771
#
# number of rings (size 3 to 8) (size 9 to 14) (size 15 to 20)
#    0.000    2.000    2.000    3.600    1.400    2.800 
#    5.400    2.000    0.000    0.000    0.000    0.000 
#    0.000    0.000    0.000    0.000    0.000    0.000 
#
# Total GULP energy -223174.890213 kJ/mol
# GULP energy per Si atom -5579.372255 kJ/mol
# Density = 1.726339 g / cm^3
# Si number density = 17.302771 Si / 1000 Ang^3
#
#
#
# Elastic Constant Matrix: (Units=GPa)
#
#
# Indices 1 2 3 4 5 6 
#
# 1 104.1929 29.7249 55.3391 0.0000 0.0000 0.0000
# 2 29.7249 72.7106 51.1732 0.0000 0.0000 0.0000
# 3 55.3391 51.1732 129.7095 0.0000 0.0000 0.0000
# 4 0.0000 0.0000 0.0000 26.4458 0.0000 0.0000
# 5 0.0000 0.0000 0.0000 0.0000 27.9417 0.0000
# 6 0.0000 0.0000 0.0000 0.0000 0.0000 9.4953
#
#
#
# Elastic Compliance Matrix: (Units=1/GPa)
#
#
# Indices 1 2 3 4 5 6 
#
# 1 0.012595 -0.001893 -0.004627 0.000000 0.000000 0.000000
# 2 -0.001893 0.019324 -0.006816 0.000000 0.000000 0.000000
# 3 -0.004627 -0.006816 0.012373 0.000000 0.000000 0.000000
# 4 0.000000 0.000000 0.000000 0.037813 0.000000 0.000000
# 5 0.000000 0.000000 0.000000 0.000000 0.035789 0.000000
# 6 0.000000 0.000000 0.000000 0.000000 0.000000 0.105315
#
#
# Mechanical properties :
#
#
# Convention : Reuss Voigt Hill
#
# Bulk Modulus (GPa) = 56.75288 64.34306 60.54797
# Shear Modulus (GPa) = 19.55005 24.13494 21.84249
#
# Velocity S-wave (km/s) = 3.36502 3.73883 3.55684
# Velocity P-wave (km/s) = 6.92595 7.47702 7.20676
#
# Compressibility (1/GPa) = 0.01762025
#
# Stress axis : x y z
#
# Youngs Moduli (GPa) = 79.39707 51.74872 80.82321
#
# Poissons Ratio (x) = 0.09794 0.37395
# Poissons Ratio (y) = 0.15027 0.55092
# Poissons Ratio (z) = 0.36735 0.35274
#
# Static dielectric constant tensor:
#      x y z
#    x 1.596810 0.000000 0.000000 
#    y 0.000000 1.563050 0.000000 
#    z 0.000000 0.000000 1.630010 
# 
# From -- ./inp_files/12132.got.cif
#   From: 2010.05.17/outbox.cif.g08.bks.cpg/sg63_7_cif.got.tgz:12132.got - 2010.06.03 15:47:04.
