data_PCOD9475361
_publ_section_title
;
Structure prediction by ZEFSAII (Michael W. Deem and Ramdas Pophale) SiO2 
 PCOD9475361
Probable space group: C M C M
;
_chemical_formula_sum "Si O2"
_cell_formula_units_Z 56
_cell_length_a 17.224859
_cell_length_b 5.062620
_cell_length_c 25.412228
_cell_angle_alpha 90.000000
_cell_angle_beta 90.000000
_cell_angle_gamma 90.000000
_cell_volume 2216.020375
_symmetry_space_group_name_H-M "C M C M"
_symmetry_group_IT_number 63
_symmetry_cell_setting 'orthorhombic'
loop_
_space_group_symop_operation_xyz
x,y,z
-x,-y,1/2+z
x,-y,-z
-x,y,1/2-z
-x,-y,-z
x,y,1/2-z
-x,y,z
x,-y,1/2+z
1/2+x,1/2+y,z
1/2-x,1/2-y,1/2+z
1/2+x,1/2-y,-z
1/2-x,1/2+y,1/2-z
1/2-x,1/2-y,-z
1/2+x,1/2+y,1/2-z
1/2-x,1/2+y,z
1/2+x,1/2-y,1/2+z
loop_
_atom_site_type_symbol
_atom_site_label
_atom_site_fract_x
_atom_site_fract_y
_atom_site_fract_z
Si Si1 0.589883 0.691850 0.546013
Si Si2 0.089307 0.890055 0.841237
Si Si3 0.693273 0.978621 0.392260
Si Si4 0.695355 0.607125 0.750000
O O1 0.618818 0.500000 0.500000
O O2 0.500000 0.757536 0.535444
O O3 0.591161 0.530921 0.601449
O O4 0.641503 0.948432 0.557100
O O5 0.128430 0.602891 0.849462
O O6 0.141746 0.046601 0.800106
O O7 0.000000 0.870271 0.824686
O O8 0.750396 0.227252 0.389524
O O9 0.735334 0.891326 0.750000
#
# Coordination Sequence:
#
# PCOD9475361 Si02
#       4
#    16  16  16   8
#     4  10  24  47  75 109 152 201 253 311 374 449
#     4  11  25  49  76 109 148 195 251 303 374 452
#     4  12  24  44  70 102 146 187 240 297 362 429
#     4  12  29  50  77 110 148 190 244 312 381 440
#
# _framework density 25.270524000000002
#
# number of rings (size 3 to 8) (size 9 to 14) (size 15 to 20)
#    0.000    0.857    2.857    3.000    4.000    2.286 
#    0.000    5.714    0.000    0.000    0.000    0.000 
#    0.000    0.000    0.000    0.000    0.000    0.000 
#
# Total GULP energy -156855.716002 kJ/mol
# GULP energy per Si atom -5601.989857 kJ/mol
# Density = 2.521301 g / cm^3
# Si number density = 25.270524 Si / 1000 Ang^3
#
#
#
# Elastic Constant Matrix: (Units=GPa)
#
#
# Indices 1 2 3 4 5 6 
#
# 1 137.8054 47.2615 13.3622 0.0000 0.0000 0.0000
# 2 47.2615 162.6885 35.7983 0.0000 0.0000 0.0000
# 3 13.3622 35.7983 126.0592 0.0000 0.0000 0.0000
# 4 0.0000 0.0000 0.0000 35.0919 0.0000 0.0000
# 5 0.0000 0.0000 0.0000 0.0000 30.6526 0.0000
# 6 0.0000 0.0000 0.0000 0.0000 0.0000 3.1989
#
#
#
# Elastic Compliance Matrix: (Units=1/GPa)
#
#
# Indices 1 2 3 4 5 6 
#
# 1 0.008064 -0.002298 -0.000202 0.000000 0.000000 0.000000
# 2 -0.002298 0.007211 -0.001804 0.000000 0.000000 0.000000
# 3 -0.000202 -0.001804 0.008467 0.000000 0.000000 0.000000
# 4 0.000000 0.000000 0.000000 0.028497 0.000000 0.000000
# 5 0.000000 0.000000 0.000000 0.000000 0.032624 0.000000
# 6 0.000000 0.000000 0.000000 0.000000 0.000000 0.312603
#
#
# Mechanical properties :
#
#
# Convention : Reuss Voigt Hill
#
# Bulk Modulus (GPa) = 66.08076 68.82191 67.45134
# Shear Modulus (GPa) = 12.16192 35.79742 23.97967
#
# Velocity S-wave (km/s) = 2.19616 3.76782 3.08379
# Velocity P-wave (km/s) = 5.71288 6.79866 6.27928
#
# Compressibility (1/GPa) = 0.01513300
#
# Stress axis : x y z
#
# Youngs Moduli (GPa) = 124.00155 138.66969 118.11135
#
# Poissons Ratio (x) = 0.31870 0.02388
# Poissons Ratio (y) = 0.28499 0.21311
# Poissons Ratio (z) = 0.02507 0.25020
#
# Static dielectric constant tensor:
#      x y z
#    x 1.981330 0.000000 0.000000 
#    y 0.000000 2.044780 0.000000 
#    z 0.000000 0.000000 2.049280 
# 
# From -- ./inp_files/69625.got.cif
#   From: 2010.05.17/outbox.cif.g08.bks.cpg/sg63_35_cif.got.tgz:69625.got - 2010.06.03 15:47:04.
