data_PCOD9475015
_publ_section_title
;
Structure prediction by ZEFSAII (Michael W. Deem and Ramdas Pophale) SiO2 
 PCOD9475015
Probable space group: C M C M
;
_chemical_formula_sum "Si O2"
_cell_formula_units_Z 64
_cell_length_a 19.602898
_cell_length_b 8.253872
_cell_length_c 18.259448
_cell_angle_alpha 90.000000
_cell_angle_beta 90.000000
_cell_angle_gamma 90.000000
_cell_volume 2954.375234
_symmetry_space_group_name_H-M "C M C M"
_symmetry_group_IT_number 63
_symmetry_cell_setting 'orthorhombic'
loop_
_space_group_symop_operation_xyz
x,y,z
-x,-y,1/2+z
x,-y,-z
-x,y,1/2-z
-x,-y,-z
x,y,1/2-z
-x,y,z
x,-y,1/2+z
1/2+x,1/2+y,z
1/2-x,1/2-y,1/2+z
1/2+x,1/2-y,-z
1/2-x,1/2+y,1/2-z
1/2-x,1/2-y,-z
1/2+x,1/2+y,1/2-z
1/2-x,1/2+y,z
1/2+x,1/2-y,1/2+z
loop_
_atom_site_type_symbol
_atom_site_label
_atom_site_fract_x
_atom_site_fract_y
_atom_site_fract_z
Si Si1 0.578097 0.822696 0.536860
Si Si2 0.694756 0.294616 0.661983
Si Si3 0.075622 0.461689 0.164745
Si Si4 0.801853 0.901620 0.433313
O O1 0.500000 0.771439 0.521475
O O2 0.635917 0.690049 0.526202
O O3 0.588543 0.000000 0.500000
O O4 0.584868 0.872590 0.621716
O O5 0.709491 0.301930 0.750000
O O6 0.632703 0.170594 0.649748
O O7 0.755567 0.223440 0.612040
O O8 0.676852 0.468303 0.628190
O O9 0.077604 0.494487 0.250000
O O10 0.000000 0.398964 0.144922
O O11 0.765553 0.000000 0.500000
#
# Coordination Sequence:
#
# PCOD9475015 Si02
#       4
#    16  16  16  16
#     4  10  22  41  64  90 122 160 203 254 312 371
#     4  11  24  41  62  90 128 168 208 259 315 371
#     4   9  19  38  63  88 117 158 205 252 307 372
#     4  12  25  40  62  91 124 164 211 260 311 371
#
# _framework density 21.662786000000001
#
# number of rings (size 3 to 8) (size 9 to 14) (size 15 to 20)
#    0.000    1.500    0.000    4.500    0.000    7.500 
#    0.000    0.000    0.000    0.000    0.000    0.000 
#    0.000    0.000    0.000    0.000    0.000    0.000 
#
# Total GULP energy -178731.497427 kJ/mol
# GULP energy per Si atom -5585.359295 kJ/mol
# Density = 2.161348 g / cm^3
# Si number density = 21.662786 Si / 1000 Ang^3
#
#
#
# Elastic Constant Matrix: (Units=GPa)
#
#
# Indices 1 2 3 4 5 6 
#
# 1 86.8852 24.2446 35.1146 0.0000 0.0000 0.0000
# 2 24.2446 51.3157 31.4793 0.0000 0.0000 0.0000
# 3 35.1146 31.4793 101.2151 0.0000 0.0000 0.0000
# 4 0.0000 0.0000 0.0000 44.1606 0.0000 0.0000
# 5 0.0000 0.0000 0.0000 0.0000 20.7952 0.0000
# 6 0.0000 0.0000 0.0000 0.0000 0.0000 5.7046
#
#
#
# Elastic Compliance Matrix: (Units=1/GPa)
#
#
# Indices 1 2 3 4 5 6 
#
# 1 0.014199 -0.004556 -0.003509 0.000000 0.000000 0.000000
# 2 -0.004556 0.025543 -0.006364 0.000000 0.000000 0.000000
# 3 -0.003509 -0.006364 0.013077 0.000000 0.000000 0.000000
# 4 0.000000 0.000000 0.000000 0.022645 0.000000 0.000000
# 5 0.000000 0.000000 0.000000 0.000000 0.048088 0.000000
# 6 0.000000 0.000000 0.000000 0.000000 0.000000 0.175296
#
#
# Mechanical properties :
#
#
# Convention : Reuss Voigt Hill
#
# Bulk Modulus (GPa) = 41.73355 46.78810 44.26083
# Shear Modulus (GPa) = 14.89458 24.03725 19.46592
#
# Velocity S-wave (km/s) = 2.62499 3.33470 3.00090
# Velocity P-wave (km/s) = 5.33801 6.03922 5.69941
#
# Compressibility (1/GPa) = 0.02396154
#
# Stress axis : x y z
#
# Youngs Moduli (GPa) = 70.42798 39.14894 76.47250
#
# Poissons Ratio (x) = 0.17835 0.26835
# Poissons Ratio (y) = 0.32085 0.48666
# Poissons Ratio (z) = 0.24714 0.24914
#
# Static dielectric constant tensor:
#      x y z
#    x 1.854830 0.000000 0.000000 
#    y 0.000000 1.784490 0.000000 
#    z 0.000000 0.000000 1.858880 
# 
# From -- ./inp_files/46515.got.cif
#   From: 2010.05.17/outbox.cif.g08.bks.cpg/sg63_24_cif.got.tgz:46515.got - 2010.06.03 15:47:04.
