data_PCOD9475543
_publ_section_title
;
Structure prediction by ZEFSAII (Michael W. Deem and Ramdas Pophale) SiO2 
 PCOD9475543
Probable space group: C M C M
;
_chemical_formula_sum "Si O2"
_cell_formula_units_Z 72
_cell_length_a 15.012664
_cell_length_b 31.049751
_cell_length_c 7.914330
_cell_angle_alpha 90.000000
_cell_angle_beta 90.000000
_cell_angle_gamma 90.000000
_cell_volume 3689.181663
_symmetry_space_group_name_H-M "C M C M"
_symmetry_group_IT_number 63
_symmetry_cell_setting 'orthorhombic'
loop_
_space_group_symop_operation_xyz
x,y,z
-x,-y,1/2+z
x,-y,-z
-x,y,1/2-z
-x,-y,-z
x,y,1/2-z
-x,y,z
x,-y,1/2+z
1/2+x,1/2+y,z
1/2-x,1/2-y,1/2+z
1/2+x,1/2-y,-z
1/2-x,1/2+y,1/2-z
1/2-x,1/2-y,-z
1/2+x,1/2+y,1/2-z
1/2-x,1/2+y,z
1/2+x,1/2-y,1/2+z
loop_
_atom_site_type_symbol
_atom_site_label
_atom_site_fract_x
_atom_site_fract_y
_atom_site_fract_z
Si Si1 0.500000 0.737244 0.450209
Si Si2 0.193365 0.792007 0.049455
Si Si3 0.000000 0.663796 0.543005
Si Si4 0.194531 0.950018 0.453839
Si Si5 0.689711 0.872111 0.457218
Si Si6 0.500000 0.449525 0.453096
O O1 0.500000 0.741048 0.250000
O O2 0.409034 0.713717 0.499271
O O3 0.500000 0.786533 0.516960
O O4 0.195894 0.794923 0.250000
O O5 0.243316 0.834466 0.984246
O O6 0.250000 0.750000 0.000000
O O7 0.090181 0.640078 0.489088
O O8 0.000000 0.664608 0.750000
O O9 0.192668 0.948194 0.250000
O O10 0.271373 0.917925 0.513135
O O11 0.096534 0.933860 0.514664
O O12 0.206388 0.000000 0.500000
O O13 0.689178 0.872038 0.250000
O O14 0.500000 0.500000 0.500000
O O15 0.500000 0.444740 0.250000
#
# Coordination Sequence:
#
# PCOD9475543 Si02
#       6
#     8  16   8  16  16   8
#     4  11  21  36  56  79 111 147 183 225 274 328
#     4  11  21  35  55  81 109 142 183 227 273 324
#     4   9  16  31  53  75  99 137 181 214 253 322
#     4   9  17  31  51  74 100 133 172 215 263 316
#     4   9  18  32  53  77 103 139 180 217 263 325
#     4   8  14  25  44  68  93 122 157 200 249 303
#
# _framework density 19.516522999999999
#
# number of rings (size 3 to 8) (size 9 to 14) (size 15 to 20)
#    0.000    2.444    2.222    1.000    0.000    0.889 
#    0.000    6.111    0.000    5.333    0.000    0.000 
#    0.000    0.000    0.000    0.000    0.000    0.000 
#
# Total GULP energy -200756.923222 kJ/mol
# GULP energy per Si atom -5576.581201 kJ/mol
# Density = 1.947210 g / cm^3
# Si number density = 19.516523 Si / 1000 Ang^3
#
#
#
# Elastic Constant Matrix: (Units=GPa)
#
#
# Indices 1 2 3 4 5 6 
#
# 1 213.6197 97.9325 11.9290 0.0000 0.0000 0.0000
# 2 97.9325 118.4892 5.0449 0.0000 0.0000 0.0000
# 3 11.9290 5.0449 20.2198 0.0000 0.0000 0.0000
# 4 0.0000 0.0000 0.0000 17.3099 0.0000 0.0000
# 5 0.0000 0.0000 0.0000 0.0000 21.4083 0.0000
# 6 0.0000 0.0000 0.0000 0.0000 0.0000 32.1987
#
#
#
# Elastic Compliance Matrix: (Units=1/GPa)
#
#
# Indices 1 2 3 4 5 6 
#
# 1 0.007712 -0.006247 -0.002991 0.000000 0.000000 0.000000
# 2 -0.006247 0.013590 0.000295 0.000000 0.000000 0.000000
# 3 -0.002991 0.000295 0.051148 0.000000 0.000000 0.000000
# 4 0.000000 0.000000 0.000000 0.057770 0.000000 0.000000
# 5 0.000000 0.000000 0.000000 0.000000 0.046711 0.000000
# 6 0.000000 0.000000 0.000000 0.000000 0.000000 0.031057
#
#
# Mechanical properties :
#
#
# Convention : Reuss Voigt Hill
#
# Bulk Modulus (GPa) = 18.32747 64.68239 41.50493
# Shear Modulus (GPa) = 20.48656 30.01152 25.24904
#
# Velocity S-wave (km/s) = 3.24343 3.92567 3.60074
# Velocity P-wave (km/s) = 4.84124 7.33227 6.21288
#
# Compressibility (1/GPa) = 0.05456290
#
# Stress axis : x y z
#
# Youngs Moduli (GPa) = 129.66786 73.58348 19.55126
#
# Poissons Ratio (x) = 0.45965 0.05848
# Poissons Ratio (y) = 0.81000 -0.00576
# Poissons Ratio (z) = 0.38787 -0.02168
#
# Static dielectric constant tensor:
#      x y z
#    x 1.687980 0.000000 0.000000 
#    y 0.000000 1.662850 0.000000 
#    z 0.000000 0.000000 1.712240 
# 
# From -- ./inp_files/4957.got.cif
#   From: 2010.05.17/outbox.cif.g08.bks.cpg/sg63_3_cif.got.tgz:4957.got - 2010.06.03 15:47:04.
