data_PCOD9475879
_publ_section_title
;
Structure prediction by ZEFSAII (Michael W. Deem and Ramdas Pophale) SiO2 
 PCOD9475879
Probable space group: C M C M
;
_chemical_formula_sum "Si O2"
_cell_formula_units_Z 84
_cell_length_a 11.995598
_cell_length_b 14.691883
_cell_length_c 23.985870
_cell_angle_alpha 90.000000
_cell_angle_beta 90.000000
_cell_angle_gamma 90.000000
_cell_volume 4227.219894
_symmetry_space_group_name_H-M "C M C M"
_symmetry_group_IT_number 63
_symmetry_cell_setting 'orthorhombic'
loop_
_space_group_symop_operation_xyz
x,y,z
-x,-y,1/2+z
x,-y,-z
-x,y,1/2-z
-x,-y,-z
x,y,1/2-z
-x,y,z
x,-y,1/2+z
1/2+x,1/2+y,z
1/2-x,1/2-y,1/2+z
1/2+x,1/2-y,-z
1/2-x,1/2+y,1/2-z
1/2-x,1/2-y,-z
1/2+x,1/2+y,1/2-z
1/2-x,1/2+y,z
1/2+x,1/2-y,1/2+z
loop_
_atom_site_type_symbol
_atom_site_label
_atom_site_fract_x
_atom_site_fract_y
_atom_site_fract_z
Si Si1 0.628294 0.605393 0.750000
Si Si2 0.371020 0.492646 0.566462
Si Si3 0.258160 0.861655 0.134177
Si Si4 0.168858 0.103173 0.250000
Si Si5 0.500000 0.870947 0.683741
Si Si6 0.500000 0.232812 0.750000
Si Si7 0.000000 0.420295 0.343123
Si Si8 0.766617 0.347040 0.866794
O O1 0.500000 0.641295 0.750000
O O2 0.702227 0.631358 0.804070
O O3 0.616333 0.496195 0.750000
O O4 0.368137 0.500000 0.500000
O O5 0.500000 0.474705 0.584103
O O6 0.327148 0.585837 0.594051
O O7 0.288364 0.413623 0.588127
O O8 0.378919 0.910226 0.128309
O O9 0.275056 0.755099 0.123059
O O10 0.232485 0.109192 0.192339
O O11 0.100006 0.196320 0.250000
O O12 0.500000 0.842795 0.750000
O O13 0.602946 0.839817 0.645528
O O14 0.500000 0.980934 0.684864
O O15 0.500000 0.165278 0.801536
#
# Coordination Sequence:
#
# PCOD9475879 Si02
#       8
#     8  16  16   8   8   4   8  16
#     4  12  24  38  64 103 143 180 223 275 338 409
#     4  11  27  51  74  95 128 178 238 293 339 397
#     4  12  26  42  68 102 136 177 222 278 341 413
#     4  12  21  38  62 104 137 179 222 271 329 406
#     4  12  24  40  61 102 148 178 211 265 346 411
#     4  12  22  32  62 104 138 176 236 264 322 416
#     4  12  22  40  60  95 139 178 213 269 336 394
#     4  12  26  42  69 101 139 180 221 276 343 414
#
# _framework density 19.871216
#
# number of rings (size 3 to 8) (size 9 to 14) (size 15 to 20)
#    0.000    0.190    7.619    1.714    5.333    0.762 
#    0.000    1.905    0.000    0.000    0.000    0.000 
#    0.000    0.000    0.000    0.000    0.000    0.000 
#
# Total GULP energy -234362.321274 kJ/mol
# GULP energy per Si atom -5580.055268 kJ/mol
# Density = 1.982599 g / cm^3
# Si number density = 19.871216 Si / 1000 Ang^3
#
#
#
# Elastic Constant Matrix: (Units=GPa)
#
#
# Indices 1 2 3 4 5 6 
#
# 1 117.9620 -4.5448 30.9572 0.0000 0.0000 0.0000
# 2 -4.5448 102.7738 15.6106 0.0000 0.0000 0.0000
# 3 30.9572 15.6106 79.2458 0.0000 0.0000 0.0000
# 4 0.0000 0.0000 0.0000 13.5460 0.0000 0.0000
# 5 0.0000 0.0000 0.0000 0.0000 79.3741 0.0000
# 6 0.0000 0.0000 0.0000 0.0000 0.0000 51.3067
#
#
#
# Elastic Compliance Matrix: (Units=1/GPa)
#
#
# Indices 1 2 3 4 5 6 
#
# 1 0.009548 0.001019 -0.003931 0.000000 0.000000 0.000000
# 2 0.001019 0.010139 -0.002395 0.000000 0.000000 0.000000
# 3 -0.003931 -0.002395 0.014626 0.000000 0.000000 0.000000
# 4 0.000000 0.000000 0.000000 0.073822 0.000000 0.000000
# 5 0.000000 0.000000 0.000000 0.000000 0.012599 0.000000
# 6 0.000000 0.000000 0.000000 0.000000 0.000000 0.019491
#
#
# Mechanical properties :
#
#
# Convention : Reuss Voigt Hill
#
# Bulk Modulus (GPa) = 42.19464 42.66975 42.43219
# Shear Modulus (GPa) = 31.49825 46.04258 38.77042
#
# Velocity S-wave (km/s) = 3.98567 4.81880 4.42190
# Velocity P-wave (km/s) = 6.51621 7.24436 6.88991
#
# Compressibility (1/GPa) = 0.02369969
#
# Stress axis : x y z
#
# Youngs Moduli (GPa) = 104.73244 98.62866 68.36959
#
# Poissons Ratio (x) = -0.10053 0.26874
# Poissons Ratio (y) = -0.10675 0.16378
# Poissons Ratio (z) = 0.41168 0.23626
#
# Static dielectric constant tensor:
#      x y z
#    x 1.578250 0.000000 0.000000 
#    y 0.000000 1.679850 0.000000 
#    z 0.000000 0.000000 1.658420 
# 
# From -- ./inp_files/61331.got.cif
#   From: 2010.05.17/outbox.cif.g08.bks.cpg/sg63_31_cif.got.tgz:61331.got - 2010.06.03 15:47:04.
