data_PCOD9475721
_publ_section_title
;
Structure prediction by ZEFSAII (Michael W. Deem and Ramdas Pophale) SiO2 
 PCOD9475721
Probable space group: C M C M
;
_chemical_formula_sum "Si O2"
_cell_formula_units_Z 112
_cell_length_a 14.628402
_cell_length_b 17.348520
_cell_length_c 25.161718
_cell_angle_alpha 90.000000
_cell_angle_beta 90.000000
_cell_angle_gamma 90.000000
_cell_volume 6385.569093
_symmetry_space_group_name_H-M "C M C M"
_symmetry_group_IT_number 63
_symmetry_cell_setting 'orthorhombic'
loop_
_space_group_symop_operation_xyz
x,y,z
-x,-y,1/2+z
x,-y,-z
-x,y,1/2-z
-x,-y,-z
x,y,1/2-z
-x,y,z
x,-y,1/2+z
1/2+x,1/2+y,z
1/2-x,1/2-y,1/2+z
1/2+x,1/2-y,-z
1/2-x,1/2+y,1/2-z
1/2-x,1/2-y,-z
1/2+x,1/2+y,1/2-z
1/2-x,1/2+y,z
1/2+x,1/2-y,1/2+z
loop_
_atom_site_type_symbol
_atom_site_label
_atom_site_fract_x
_atom_site_fract_y
_atom_site_fract_z
Si Si1 0.391458 0.915002 0.813176
Si Si2 0.893527 0.404974 0.186938
Si Si3 0.287731 0.831175 0.594837
Si Si4 0.101376 0.894462 0.551925
Si Si5 0.109402 0.592329 0.503965
Si Si6 0.730046 0.842897 0.101245
Si Si7 0.100673 0.077554 0.930390
O O1 0.375552 0.905026 0.750000
O O2 0.500000 0.901790 0.822719
O O3 0.330417 0.860995 0.850115
O O4 0.373422 0.005190 0.826663
O O5 0.882103 0.396701 0.250000
O O6 0.830455 0.348511 0.153754
O O7 0.000000 0.392127 0.174125
O O8 0.185320 0.861550 0.584284
O O9 0.351892 0.866295 0.548598
O O10 0.275530 0.739705 0.591715
O O11 0.115859 0.884352 0.488585
O O12 0.000000 0.863753 0.565310
O O13 0.099646 0.986189 0.560739
O O14 0.127434 0.500000 0.500000
O O15 0.164983 0.628425 0.553240
O O16 0.000000 0.602728 0.509395
O O17 0.815171 0.900628 0.105722
O O18 0.000000 0.101205 0.911259
#
# Coordination Sequence:
#
# PCOD9475721 Si02
#       7
#    16  16  16  16  16  16  16
#     4   9  19  38  63  85 106 141 188 232 275 329
#     4   9  19  38  63  85 106 141 188 232 275 329
#     4  12  23  34  52  84 117 146 175 224 285 337
#     4   9  18  33  52  71  98 143 191 223 249 302
#     4  11  23  38  57  81 111 149 190 233 278 326
#     4  12  23  34  52  84 117 146 175 224 285 337
#     4   9  18  33  52  71  98 143 191 223 249 302
#
# _framework density 17.539549000000001
#
# number of rings (size 3 to 8) (size 9 to 14) (size 15 to 20)
#    0.000    1.857    1.429    5.571    0.000    5.143 
#    0.000    0.000    0.000    0.857    0.000    4.000 
#    0.000    0.000    0.000    0.000    0.000    0.000 
#
# Total GULP energy -312499.891732 kJ/mol
# GULP energy per Si atom -5580.355210 kJ/mol
# Density = 1.749963 g / cm^3
# Si number density = 17.539549 Si / 1000 Ang^3
#
#
#
# Elastic Constant Matrix: (Units=GPa)
#
#
# Indices 1 2 3 4 5 6 
#
# 1 64.3246 4.3167 13.0689 0.0000 0.0000 0.0000
# 2 4.3167 37.8117 2.9813 0.0000 0.0000 0.0000
# 3 13.0689 2.9813 24.1553 0.0000 0.0000 0.0000
# 4 0.0000 0.0000 0.0000 -4.6072 0.0000 0.0000
# 5 0.0000 0.0000 0.0000 0.0000 24.8686 0.0000
# 6 0.0000 0.0000 0.0000 0.0000 0.0000 -16.9064
#
#
#
# Elastic Compliance Matrix: (Units=1/GPa)
#
#
# Indices 1 2 3 4 5 6 
#
# 1 0.017526 -0.001266 -0.009326 0.000000 0.000000 0.000000
# 2 -0.001266 0.026798 -0.002623 0.000000 0.000000 0.000000
# 3 -0.009326 -0.002623 0.046768 0.000000 0.000000 0.000000
# 4 0.000000 0.000000 0.000000 -0.217054 0.000000 0.000000
# 5 0.000000 0.000000 0.000000 0.000000 0.040211 0.000000
# 6 0.000000 0.000000 0.000000 0.000000 0.000000 -0.059149
#
#
# Mechanical properties :
#
#
# Convention : Reuss Voigt Hill
#
# Bulk Modulus (GPa) = 15.46466 18.55840 17.01153
# Shear Modulus (GPa) = -51.59079 7.73266 -21.92907
#
# Velocity S-wave (km/s) = -5.42935 2.10197 -3.53974
# Velocity P-wave (km/s) = 5.51975 4.06139 2.64317
#
# Compressibility (1/GPa) = 0.06466356
#
# Stress axis : x y z
#
# Youngs Moduli (GPa) = 57.05866 37.31607 21.38211
#
# Poissons Ratio (x) = 0.04722 0.19941
# Poissons Ratio (y) = 0.07221 0.05608
# Poissons Ratio (z) = 0.53212 0.09787
#
# Static dielectric constant tensor:
#      x y z
#    x 1.600610 0.000000 0.000000 
#    y 0.000000 1.438700 0.000000 
#    z 0.000000 0.000000 1.590240 
# 
# From -- ./inp_files/62975.got.cif
#   From: 2010.05.17/outbox.cif.g08.bks.cpg/sg63_32_cif.got.tgz:62975.got - 2010.06.03 15:47:04.
