data_PCOD9475343
_publ_section_title
;
Structure prediction by ZEFSAII (Michael W. Deem and Ramdas Pophale) SiO2 
 PCOD9475343
Probable space group: C M C M
;
_chemical_formula_sum "Si O2"
_cell_formula_units_Z 64
_cell_length_a 22.134428
_cell_length_b 8.119030
_cell_length_c 18.215737
_cell_angle_alpha 90.000000
_cell_angle_beta 90.000000
_cell_angle_gamma 90.000000
_cell_volume 3273.551644
_symmetry_space_group_name_H-M "C M C M"
_symmetry_group_IT_number 63
_symmetry_cell_setting 'orthorhombic'
loop_
_space_group_symop_operation_xyz
x,y,z
-x,-y,1/2+z
x,-y,-z
-x,y,1/2-z
-x,-y,-z
x,y,1/2-z
-x,y,z
x,-y,1/2+z
1/2+x,1/2+y,z
1/2-x,1/2-y,1/2+z
1/2+x,1/2-y,-z
1/2-x,1/2+y,1/2-z
1/2-x,1/2-y,-z
1/2+x,1/2+y,1/2-z
1/2-x,1/2+y,z
1/2+x,1/2-y,1/2+z
loop_
_atom_site_type_symbol
_atom_site_label
_atom_site_fract_x
_atom_site_fract_y
_atom_site_fract_z
Si Si1 0.369899 0.470967 0.415087
Si Si2 0.127427 0.305439 0.162659
Si Si3 0.767142 0.611271 0.558116
Si Si4 0.571496 0.840864 0.663208
O O1 0.386449 0.500000 0.500000
O O2 0.392912 0.630017 0.370247
O O3 0.296344 0.462790 0.414109
O O4 0.394289 0.299405 0.382933
O O5 0.130887 0.291760 0.250000
O O6 0.192270 0.338025 0.125501
O O7 0.089285 0.470264 0.144869
O O8 0.804037 0.500000 0.500000
O O9 0.750000 0.750000 0.500000
O O10 0.586114 0.818003 0.750000
O O11 0.500000 0.819893 0.653663
#
# Coordination Sequence:
#
# PCOD9475343 Si02
#       4
#    16  16  16  16
#     4  11  23  40  66  94 128 167 211 265 327 380
#     4  11  24  40  65  97 127 169 220 261 313 388
#     4  11  20  39  62  88 131 170 198 254 325 379
#     4  10  24  45  65  90 129 171 214 268 321 375
#
# _framework density 19.550629000000001
#
# number of rings (size 3 to 8) (size 9 to 14) (size 15 to 20)
#    0.000    1.250    5.000    2.250    0.000    3.500 
#    0.000    3.750    0.000    0.000    0.000    0.000 
#    0.000    0.000    0.000    0.000    0.000    0.000 
#
# Total GULP energy -178374.159897 kJ/mol
# GULP energy per Si atom -5574.192497 kJ/mol
# Density = 1.950613 g / cm^3
# Si number density = 19.550629 Si / 1000 Ang^3
#
#
#
# Elastic Constant Matrix: (Units=GPa)
#
#
# Indices 1 2 3 4 5 6 
#
# 1 46.2303 23.5200 28.4702 0.0000 0.0000 0.0000
# 2 23.5200 128.3866 57.2504 0.0000 0.0000 0.0000
# 3 28.4702 57.2504 96.7492 0.0000 0.0000 0.0000
# 4 0.0000 0.0000 0.0000 46.0528 0.0000 0.0000
# 5 0.0000 0.0000 0.0000 0.0000 11.5147 0.0000
# 6 0.0000 0.0000 0.0000 0.0000 0.0000 21.9258
#
#
#
# Elastic Compliance Matrix: (Units=1/GPa)
#
#
# Indices 1 2 3 4 5 6 
#
# 1 0.026751 -0.001889 -0.006754 0.000000 0.000000 0.000000
# 2 -0.001889 0.010714 -0.005784 0.000000 0.000000 0.000000
# 3 -0.006754 -0.005784 0.015746 0.000000 0.000000 0.000000
# 4 0.000000 0.000000 0.000000 0.021714 0.000000 0.000000
# 5 0.000000 0.000000 0.000000 0.000000 0.086846 0.000000
# 6 0.000000 0.000000 0.000000 0.000000 0.000000 0.045608
#
#
# Mechanical properties :
#
#
# Convention : Reuss Voigt Hill
#
# Bulk Modulus (GPa) = 41.05576 54.42746 47.74161
# Shear Modulus (GPa) = 20.46210 26.70703 23.58457
#
# Velocity S-wave (km/s) = 3.23866 3.70001 3.47700
# Velocity P-wave (km/s) = 5.91866 6.79361 6.37117
#
# Compressibility (1/GPa) = 0.02435712
#
# Stress axis : x y z
#
# Youngs Moduli (GPa) = 37.38127 93.33288 63.50664
#
# Poissons Ratio (x) = 0.17629 0.42895
# Poissons Ratio (y) = 0.07061 0.36734
# Poissons Ratio (z) = 0.25249 0.53986
#
# Static dielectric constant tensor:
#      x y z
#    x 1.673820 0.000000 0.000000 
#    y 0.000000 1.755510 0.000000 
#    z 0.000000 0.000000 1.647110 
# 
# From -- ./inp_files/36196.got.cif
#   From: 2010.05.17/outbox.cif.g08.bks.cpg/sg63_19_cif.got.tgz:36196.got - 2010.06.03 15:47:04.
