data_PCOD9475580
_publ_section_title
;
Structure prediction by ZEFSAII (Michael W. Deem and Ramdas Pophale) SiO2 
 PCOD9475580
Probable space group: C M C M
;
_chemical_formula_sum "Si O2"
_cell_formula_units_Z 80
_cell_length_a 20.629461
_cell_length_b 10.094530
_cell_length_c 22.042446
_cell_angle_alpha 90.000000
_cell_angle_beta 90.000000
_cell_angle_gamma 90.000000
_cell_volume 4590.222840
_symmetry_space_group_name_H-M "C M C M"
_symmetry_group_IT_number 63
_symmetry_cell_setting 'orthorhombic'
loop_
_space_group_symop_operation_xyz
x,y,z
-x,-y,1/2+z
x,-y,-z
-x,y,1/2-z
-x,-y,-z
x,y,1/2-z
-x,y,z
x,-y,1/2+z
1/2+x,1/2+y,z
1/2-x,1/2-y,1/2+z
1/2+x,1/2-y,-z
1/2-x,1/2+y,1/2-z
1/2-x,1/2-y,-z
1/2+x,1/2+y,1/2-z
1/2-x,1/2+y,z
1/2+x,1/2-y,1/2+z
loop_
_atom_site_type_symbol
_atom_site_label
_atom_site_fract_x
_atom_site_fract_y
_atom_site_fract_z
Si Si1 0.628407 0.034389 0.880400
Si Si2 0.754050 0.123617 0.544462
Si Si3 0.000000 0.612793 0.949688
Si Si4 0.000000 0.861355 0.034873
Si Si5 0.622789 0.287074 0.382487
Si Si6 0.423587 0.033765 0.750000
Si Si7 0.925490 0.786866 0.250000
O O1 0.689866 0.094086 0.915693
O O2 0.564066 0.089958 0.911399
O O3 0.617269 0.069522 0.809832
O O4 0.628443 0.873668 0.886459
O O5 0.750000 0.250000 0.500000
O O6 0.812998 0.148871 0.590158
O O7 0.765300 0.000000 0.500000
O O8 0.000000 0.500000 0.000000
O O9 0.000000 0.751489 0.982830
O O10 0.062418 0.835560 0.077076
O O11 0.000000 0.000000 0.000000
O O12 0.609441 0.324328 0.312522
O O13 0.500000 0.079624 0.750000
O O14 0.428239 0.873571 0.750000
O O15 0.000000 0.834618 0.250000
#
# Coordination Sequence:
#
# PCOD9475580 Si02
#       7
#    16  16   8   8  16   8   8
#     4  11  21  38  63  93 121 159 207 256 302 359
#     4  12  24  40  60  88 130 165 200 248 305 365
#     4  12  20  35  65  87 119 156 206 255 302 355
#     4  12  24  37  59  93 125 158 202 254 312 365
#     4  11  21  39  63  90 124 159 205 257 302 360
#     4   9  18  35  62  96 120 147 200 267 307 348
#     4   9  18  35  64  92 118 153 204 257 303 360
#
# _framework density 17.428348
#
# number of rings (size 3 to 8) (size 9 to 14) (size 15 to 20)
#    0.000    1.000    6.000    2.400    0.000    0.800 
#    0.000    0.000    0.000    4.800    0.000    0.000 
#    0.000    0.000    0.000    0.000    0.000    0.000 
#
# Total GULP energy -223286.395314 kJ/mol
# GULP energy per Si atom -5582.159883 kJ/mol
# Density = 1.738868 g / cm^3
# Si number density = 17.428348 Si / 1000 Ang^3
#
#
#
# Elastic Constant Matrix: (Units=GPa)
#
#
# Indices 1 2 3 4 5 6 
#
# 1 185.6589 51.0415 112.7914 0.0000 0.0000 0.0000
# 2 51.0415 103.2698 71.4498 0.0000 0.0000 0.0000
# 3 112.7914 71.4498 197.8349 0.0000 0.0000 0.0000
# 4 0.0000 0.0000 0.0000 15.8254 0.0000 0.0000
# 5 0.0000 0.0000 0.0000 0.0000 30.5977 0.0000
# 6 0.0000 0.0000 0.0000 0.0000 0.0000 24.6734
#
#
#
# Elastic Compliance Matrix: (Units=1/GPa)
#
#
# Indices 1 2 3 4 5 6 
#
# 1 0.008335 -0.001109 -0.004351 0.000000 0.000000 0.000000
# 2 -0.001109 0.013057 -0.004083 0.000000 0.000000 0.000000
# 3 -0.004351 -0.004083 0.009010 0.000000 0.000000 0.000000
# 4 0.000000 0.000000 0.000000 0.063190 0.000000 0.000000
# 5 0.000000 0.000000 0.000000 0.000000 0.032682 0.000000
# 6 0.000000 0.000000 0.000000 0.000000 0.000000 0.040530
#
#
# Mechanical properties :
#
#
# Convention : Reuss Voigt Hill
#
# Bulk Modulus (GPa) = 88.38241 106.36986 97.37614
# Shear Modulus (GPa) = 26.36282 30.98470 28.67376
#
# Velocity S-wave (km/s) = 3.89349 4.22101 4.06055
# Velocity P-wave (km/s) = 8.42818 9.21526 8.83050
#
# Compressibility (1/GPa) = 0.01131447
#
# Stress axis : x y z
#
# Youngs Moduli (GPa) = 119.98218 76.58988 110.98463
#
# Poissons Ratio (x) = 0.08492 0.48293
# Poissons Ratio (y) = 0.13304 0.45319
# Poissons Ratio (z) = 0.52208 0.31274
#
# Static dielectric constant tensor:
#      x y z
#    x 1.573090 0.000000 0.000000 
#    y 0.000000 1.586460 0.000000 
#    z 0.000000 0.000000 1.600980 
# 
# From -- ./inp_files/64351.got.cif
#   From: 2010.05.17/outbox.cif.g08.bks.cpg/sg63_33_cif.got.tgz:64351.got - 2010.06.03 15:47:04.
