data_PCOD9475610
_publ_section_title
;
Structure prediction by ZEFSAII (Michael W. Deem and Ramdas Pophale) SiO2 
 PCOD9475610
Probable space group: C M C M
;
_chemical_formula_sum "Si O2"
_cell_formula_units_Z 64
_cell_length_a 21.486719
_cell_length_b 17.959632
_cell_length_c 7.707904
_cell_angle_alpha 90.000000
_cell_angle_beta 90.000000
_cell_angle_gamma 90.000000
_cell_volume 2974.430562
_symmetry_space_group_name_H-M "C M C M"
_symmetry_group_IT_number 63
_symmetry_cell_setting 'orthorhombic'
loop_
_space_group_symop_operation_xyz
x,y,z
-x,-y,1/2+z
x,-y,-z
-x,y,1/2-z
-x,-y,-z
x,y,1/2-z
-x,y,z
x,-y,1/2+z
1/2+x,1/2+y,z
1/2-x,1/2-y,1/2+z
1/2+x,1/2-y,-z
1/2-x,1/2+y,1/2-z
1/2-x,1/2-y,-z
1/2+x,1/2+y,1/2-z
1/2-x,1/2+y,z
1/2+x,1/2-y,1/2+z
loop_
_atom_site_type_symbol
_atom_site_label
_atom_site_fract_x
_atom_site_fract_y
_atom_site_fract_z
Si Si1 0.635214 0.623988 0.463216
Si Si2 0.232069 0.420167 0.545121
Si Si3 0.366414 0.795451 0.457395
Si Si4 0.500000 0.201008 0.952160
Si Si5 0.500000 0.382857 0.548085
O O1 0.632728 0.621582 0.250000
O O2 0.697565 0.584298 0.526965
O O3 0.643606 0.710617 0.515995
O O4 0.567557 0.595734 0.526219
O O5 0.203792 0.500000 0.500000
O O6 0.237822 0.415326 0.750000
O O7 0.189276 0.351461 0.491647
O O8 0.373141 0.790127 0.250000
O O9 0.433564 0.822230 0.528501
O O10 0.500000 0.177668 0.750000
O O11 0.500000 0.291863 0.954710
O O12 0.500000 0.405795 0.750000
#
# Coordination Sequence:
#
# PCOD9475610 Si02
#       5
#    16  16  16   8   8
#     4   8  15  28  50  75  97 121 155 194 236 282
#     4  11  22  34  46  67  98 132 164 196 232 276
#     4   9  16  31  54  77  96 119 152 195 240 285
#     4   7  12  24  48  77  98 114 144 189 238 285
#     4   7  10  22  45  73  97 118 147 189 234 281
#
# _framework density 21.516725000000001
#
# number of rings (size 3 to 8) (size 9 to 14) (size 15 to 20)
#    0.000    3.250    0.000    4.500    0.000    0.000 
#    0.000    3.125    0.000    0.000    0.000    6.125 
#    0.000    0.000    0.000    0.000    0.000    0.000 
#
# Total GULP energy -178317.130350 kJ/mol
# GULP energy per Si atom -5572.410323 kJ/mol
# Density = 2.146775 g / cm^3
# Si number density = 21.516725 Si / 1000 Ang^3
#
#
#
# Elastic Constant Matrix: (Units=GPa)
#
#
# Indices 1 2 3 4 5 6 
#
# 1 126.1653 33.6155 1.7924 0.0000 0.0000 0.0000
# 2 33.6155 64.5911 -4.2665 0.0000 0.0000 0.0000
# 3 1.7924 -4.2665 32.3762 0.0000 0.0000 0.0000
# 4 0.0000 0.0000 0.0000 -0.2935 0.0000 0.0000
# 5 0.0000 0.0000 0.0000 0.0000 8.9752 0.0000
# 6 0.0000 0.0000 0.0000 0.0000 0.0000 -18.6705
#
#
#
# Elastic Compliance Matrix: (Units=1/GPa)
#
#
# Indices 1 2 3 4 5 6 
#
# 1 0.009245 -0.004888 -0.001156 0.000000 0.000000 0.000000
# 2 -0.004888 0.018202 0.002669 0.000000 0.000000 0.000000
# 3 -0.001156 0.002669 0.031303 0.000000 0.000000 0.000000
# 4 0.000000 0.000000 0.000000 -3.407370 0.000000 0.000000
# 5 0.000000 0.000000 0.000000 0.000000 0.111418 0.000000
# 6 0.000000 0.000000 0.000000 0.000000 0.000000 -0.053561
#
#
# Mechanical properties :
#
#
# Convention : Reuss Voigt Hill
#
# Bulk Modulus (GPa) = 19.23047 31.71282 25.47165
# Shear Modulus (GPa) = -1.53061 10.80167 4.63553
#
# Velocity S-wave (km/s) = -0.84433 2.24299 1.46937
# Velocity P-wave (km/s) = 2.82954 4.63451 3.83960
#
# Compressibility (1/GPa) = 0.05200080
#
# Stress axis : x y z
#
# Youngs Moduli (GPa) = 108.16891 54.93892 31.94620
#
# Poissons Ratio (x) = 0.26852 0.03693
# Poissons Ratio (y) = 0.52869 -0.08527
# Poissons Ratio (z) = 0.12503 -0.14665
#
# Static dielectric constant tensor:
#      x y z
#    x 1.872980 0.000000 0.000000 
#    y 0.000000 1.673590 0.000000 
#    z 0.000000 0.000000 1.799910 
# 
# From -- ./inp_files/7492.got.cif
#   From: 2010.05.17/outbox.cif.g08.bks.cpg/sg63_4_cif.got.tgz:7492.got - 2010.06.03 15:47:04.
