data_PCOD9475985
_publ_section_title
;
Structure prediction by ZEFSAII (Michael W. Deem and Ramdas Pophale) SiO2 
 PCOD9475985
Probable space group: C M C M
;
_chemical_formula_sum "Si O2"
_cell_formula_units_Z 96
_cell_length_a 27.078370
_cell_length_b 11.475024
_cell_length_c 15.308642
_cell_angle_alpha 90.000000
_cell_angle_beta 90.000000
_cell_angle_gamma 90.000000
_cell_volume 4756.776953
_symmetry_space_group_name_H-M "C M C M"
_symmetry_group_IT_number 63
_symmetry_cell_setting 'orthorhombic'
loop_
_space_group_symop_operation_xyz
x,y,z
-x,-y,1/2+z
x,-y,-z
-x,y,1/2-z
-x,-y,-z
x,y,1/2-z
-x,y,z
x,-y,1/2+z
1/2+x,1/2+y,z
1/2-x,1/2-y,1/2+z
1/2+x,1/2-y,-z
1/2-x,1/2+y,1/2-z
1/2-x,1/2-y,-z
1/2+x,1/2+y,1/2-z
1/2-x,1/2+y,z
1/2+x,1/2-y,1/2+z
loop_
_atom_site_type_symbol
_atom_site_label
_atom_site_fract_x
_atom_site_fract_y
_atom_site_fract_z
Si Si1 0.843366 0.910528 0.352755
Si Si2 0.445941 0.698185 0.645808
Si Si3 0.259174 0.417864 0.848776
Si Si4 0.692351 0.212497 0.475637
Si Si5 0.401389 0.939052 0.914663
Si Si6 0.326404 0.114857 0.655889
O O1 0.838346 0.872721 0.250000
O O2 0.900706 0.888495 0.377725
O O3 0.815237 0.828637 0.420826
O O4 0.814522 0.032366 0.357394
O O5 0.448557 0.690916 0.750000
O O6 0.500000 0.668680 0.608870
O O7 0.433133 0.833523 0.624242
O O8 0.252538 0.365356 0.750000
O O9 0.240830 0.346930 0.933700
O O10 0.220432 0.526910 0.847222
O O11 0.648068 0.127505 0.444455
O O12 0.817502 0.296201 0.421889
O O13 0.377089 0.040682 0.855962
O O14 0.424534 0.000000 0.000000
O O15 0.327733 0.171900 0.750000
#
# Coordination Sequence:
#
# PCOD9475985 Si02
#       6
#    16  16  16  16  16  16
#     4   9  17  28  42  61  85 113 143 177 215 252
#     4   9  16  25  37  54  78 108 138 168 208 258
#     4   9  16  26  41  60  81 109 143 175 209 251
#     4   9  16  27  42  59  83 113 144 171 206 252
#     4   8  14  24  38  55  74 102 137 170 204 241
#     4   9  16  26  40  58  83 114 144 172 205 249
#
# _framework density 20.181732
#
# number of rings (size 3 to 8) (size 9 to 14) (size 15 to 20)
#    0.000    3.167    0.000    2.500    0.000    5.000 
#    0.000    0.000    0.000    1.000    0.000    0.000 
#    0.000    2.667    0.000   14.167    0.000  236.167 
#
# Total GULP energy -267240.456609 kJ/mol
# GULP energy per Si atom -5567.509513 kJ/mol
# Density = 2.013580 g / cm^3
# Si number density = 20.181732 Si / 1000 Ang^3
#
#
#
# Elastic Constant Matrix: (Units=GPa)
#
#
# Indices 1 2 3 4 5 6 
#
# 1 121.5439 21.8921 28.7977 0.0000 0.0000 0.0000
# 2 21.8921 30.0268 29.2212 0.0000 0.0000 0.0000
# 3 28.7977 29.2212 130.1613 0.0000 0.0000 0.0000
# 4 0.0000 0.0000 0.0000 -6.5509 0.0000 0.0000
# 5 0.0000 0.0000 0.0000 0.0000 5.7571 0.0000
# 6 0.0000 0.0000 0.0000 0.0000 0.0000 7.3842
#
#
#
# Elastic Compliance Matrix: (Units=1/GPa)
#
#
# Indices 1 2 3 4 5 6 
#
# 1 0.009521 -0.006259 -0.000701 0.000000 0.000000 0.000000
# 2 -0.006259 0.046728 -0.009106 0.000000 0.000000 0.000000
# 3 -0.000701 -0.009106 0.009882 0.000000 0.000000 0.000000
# 4 0.000000 0.000000 0.000000 -0.152650 0.000000 0.000000
# 5 0.000000 0.000000 0.000000 0.000000 0.173699 0.000000
# 6 0.000000 0.000000 0.000000 0.000000 0.000000 0.135424
#
#
# Mechanical properties :
#
#
# Convention : Reuss Voigt Hill
#
# Bulk Modulus (GPa) = 29.41239 49.06154 39.23697
# Shear Modulus (GPa) = 18.79206 14.77281 16.78244
#
# Velocity S-wave (km/s) = 3.05477 2.70847 2.88682
# Velocity P-wave (km/s) = 5.20073 5.84326 5.53133
#
# Compressibility (1/GPa) = 0.03399928
#
# Stress axis : x y z
#
# Youngs Moduli (GPa) = 105.03076 21.40027 101.19241
#
# Poissons Ratio (x) = 0.13395 0.07097
# Poissons Ratio (y) = 0.65740 0.92143
# Poissons Ratio (z) = 0.07366 0.19486
#
# Static dielectric constant tensor:
#      x y z
#    x 1.762920 0.000000 0.000000 
#    y 0.000000 1.749740 0.000000 
#    z 0.000000 0.000000 1.798840 
# 
# From -- ./inp_files/48969.got.cif
#   From: 2010.05.17/outbox.cif.g08.bks.cpg/sg63_25_cif.got.tgz:48969.got - 2010.06.03 15:47:04.
