data_PCOD9475008
_publ_section_title
;
Structure prediction by ZEFSAII (Michael W. Deem and Ramdas Pophale) SiO2 
 PCOD9475008
Probable space group: C M C M
;
_chemical_formula_sum "Si O2"
_cell_formula_units_Z 112
_cell_length_a 15.471753
_cell_length_b 23.277364
_cell_length_c 15.215482
_cell_angle_alpha 90.000000
_cell_angle_beta 90.000000
_cell_angle_gamma 90.000000
_cell_volume 5479.728432
_symmetry_space_group_name_H-M "C M C M"
_symmetry_group_IT_number 63
_symmetry_cell_setting 'orthorhombic'
loop_
_space_group_symop_operation_xyz
x,y,z
-x,-y,1/2+z
x,-y,-z
-x,y,1/2-z
-x,-y,-z
x,y,1/2-z
-x,y,z
x,-y,1/2+z
1/2+x,1/2+y,z
1/2-x,1/2-y,1/2+z
1/2+x,1/2-y,-z
1/2-x,1/2+y,1/2-z
1/2-x,1/2-y,-z
1/2+x,1/2+y,1/2-z
1/2-x,1/2+y,z
1/2+x,1/2-y,1/2+z
loop_
_atom_site_type_symbol
_atom_site_label
_atom_site_fract_x
_atom_site_fract_y
_atom_site_fract_z
Si Si1 0.103170 0.864522 0.854631
Si Si2 0.714821 0.476904 0.899331
Si Si3 0.233745 0.903632 0.152046
Si Si4 0.648966 0.255775 0.522245
Si Si5 0.403385 0.309078 0.148477
Si Si6 0.904441 0.369811 0.440961
Si Si7 0.592997 0.043771 0.083894
O O1 0.118838 0.854481 0.750000
O O2 0.156397 0.921241 0.884019
O O3 0.130627 0.810102 0.914606
O O4 0.000000 0.873345 0.866292
O O5 0.689321 0.534458 0.848563
O O6 0.814399 0.464363 0.871972
O O7 0.713388 0.500000 0.000000
O O8 0.257308 0.886762 0.250000
O O9 0.166236 0.856499 0.119963
O O10 0.322934 0.902552 0.099848
O O11 0.750000 0.250000 0.500000
O O12 0.603115 0.262357 0.427623
O O13 0.615115 0.197330 0.565755
O O14 0.386459 0.290877 0.250000
O O15 0.500000 0.333630 0.147416
O O16 0.905706 0.392973 0.540610
O O17 0.000000 0.382928 0.403955
O O18 0.500000 0.035545 0.130027
O O19 0.591198 0.000000 0.000000
#
# Coordination Sequence:
#
# PCOD9475008 Si02
#       7
#    16  16  16  16  16  16  16
#     4  11  26  45  64  95 139 181 222 273 333 400
#     4  11  20  37  65  91 122 167 218 270 326 389
#     4  11  22  36  56  88 122 157 207 262 315 374
#     4  12  23  41  69  93 127 171 215 265 324 393
#     4  10  22  41  63  90 126 163 206 266 325 378
#     4  11  21  36  59  90 121 160 207 255 314 385
#     4   9  17  33  58  86 118 153 200 259 321 382
#
# _framework density 20.438969
#
# number of rings (size 3 to 8) (size 9 to 14) (size 15 to 20)
#    0.000    1.286    4.286    3.429    0.000    2.286 
#    0.000    1.429    0.000    1.286    0.000    2.000 
#    0.000    0.000    0.000    0.000    0.000    0.000 
#
# Total GULP energy -312233.771347 kJ/mol
# GULP energy per Si atom -5575.603060 kJ/mol
# Density = 2.039245 g / cm^3
# Si number density = 20.438969 Si / 1000 Ang^3
#
#
#
# Elastic Constant Matrix: (Units=GPa)
#
#
# Indices 1 2 3 4 5 6 
#
# 1 119.0138 30.5023 30.5885 0.0000 0.0000 0.0000
# 2 30.5023 117.1709 24.6536 0.0000 0.0000 0.0000
# 3 30.5885 24.6536 67.3287 0.0000 0.0000 0.0000
# 4 0.0000 0.0000 0.0000 9.3324 0.0000 0.0000
# 5 0.0000 0.0000 0.0000 0.0000 12.2435 0.0000
# 6 0.0000 0.0000 0.0000 0.0000 0.0000 12.0798
#
#
#
# Elastic Compliance Matrix: (Units=1/GPa)
#
#
# Indices 1 2 3 4 5 6 
#
# 1 0.009836 -0.001755 -0.003826 0.000000 0.000000 0.000000
# 2 -0.001755 0.009560 -0.002703 0.000000 0.000000 0.000000
# 3 -0.003826 -0.002703 0.017580 0.000000 0.000000 0.000000
# 4 0.000000 0.000000 0.000000 0.107153 0.000000 0.000000
# 5 0.000000 0.000000 0.000000 0.000000 0.081676 0.000000
# 6 0.000000 0.000000 0.000000 0.000000 0.000000 0.082783
#
#
# Mechanical properties :
#
#
# Convention : Reuss Voigt Hill
#
# Bulk Modulus (GPa) = 49.00113 52.77802 50.88957
# Shear Modulus (GPa) = 15.06208 21.24907 18.15558
#
# Velocity S-wave (km/s) = 2.71759 3.22784 2.98364
# Velocity P-wave (km/s) = 5.82009 6.30636 6.06810
#
# Compressibility (1/GPa) = 0.02040769
#
# Stress axis : x y z
#
# Youngs Moduli (GPa) = 101.67188 104.59929 56.88166
#
# Poissons Ratio (x) = 0.18362 0.21761
# Poissons Ratio (y) = 0.17848 0.15376
# Poissons Ratio (z) = 0.38896 0.28275
#
# Static dielectric constant tensor:
#      x y z
#    x 1.773480 0.000000 0.000000 
#    y 0.000000 1.754740 0.000000 
#    z 0.000000 0.000000 1.898630 
# 
# From -- ./inp_files/32356.got.cif
#   From: 2010.05.17/outbox.cif.g08.bks.cpg/sg63_17_cif.got.tgz:32356.got - 2010.06.03 15:47:04.
