data_PCOD9475915
_publ_section_title
;
Structure prediction by ZEFSAII (Michael W. Deem and Ramdas Pophale) SiO2 
 PCOD9475915
Probable space group: C M C M
;
_chemical_formula_sum "Si O2"
_cell_formula_units_Z 52
_cell_length_a 21.089115
_cell_length_b 7.385744
_cell_length_c 15.666626
_cell_angle_alpha 90.000000
_cell_angle_beta 90.000000
_cell_angle_gamma 90.000000
_cell_volume 2440.214938
_symmetry_space_group_name_H-M "C M C M"
_symmetry_group_IT_number 63
_symmetry_cell_setting 'orthorhombic'
loop_
_space_group_symop_operation_xyz
x,y,z
-x,-y,1/2+z
x,-y,-z
-x,y,1/2-z
-x,-y,-z
x,y,1/2-z
-x,y,z
x,-y,1/2+z
1/2+x,1/2+y,z
1/2-x,1/2-y,1/2+z
1/2+x,1/2-y,-z
1/2-x,1/2+y,1/2-z
1/2-x,1/2-y,-z
1/2+x,1/2+y,1/2-z
1/2-x,1/2+y,z
1/2+x,1/2-y,1/2+z
loop_
_atom_site_type_symbol
_atom_site_label
_atom_site_fract_x
_atom_site_fract_y
_atom_site_fract_z
Si Si1 0.838127 0.616298 0.346267
Si Si2 0.097615 0.965927 0.405473
Si Si3 0.787627 0.243679 0.089532
Si Si4 0.000000 0.967991 0.750000
O O1 0.860805 0.583870 0.250000
O O2 0.825370 0.427855 0.393423
O O3 0.769275 0.712193 0.344604
O O4 0.885045 0.754639 0.392886
O O5 0.162928 0.080565 0.405114
O O6 0.054825 0.024599 0.326102
O O7 0.070738 0.000000 0.500000
O O8 0.750000 0.250000 0.000000
#
# Coordination Sequence:
#
# PCOD9475915 Si02
#       4
#    16  16  16   4
#     4  12  24  39  68 110 149 183 233 302 386 453
#     4  12  26  48  74 103 149 194 252 314 367 454
#     4  12  24  41  72 114 149 180 235 309 398 449
#     4  12  30  52  70 102 140 218 266 294 362 450
#
# _framework density 21.309598999999999
#
# number of rings (size 3 to 8) (size 9 to 14) (size 15 to 20)
#    0.000    0.000    7.692    2.308    4.308    0.000 
#    0.000    3.077    0.000    3.692    0.000    0.000 
#    0.000    0.000    0.000    0.000    0.000    0.000 
#
# Total GULP energy -144885.772732 kJ/mol
# GULP energy per Si atom -5572.529720 kJ/mol
# Density = 2.126110 g / cm^3
# Si number density = 21.309599 Si / 1000 Ang^3
#
#
#
# Elastic Constant Matrix: (Units=GPa)
#
#
# Indices 1 2 3 4 5 6 
#
# 1 70.9676 4.3947 35.9998 0.0000 0.0000 0.0000
# 2 4.3947 125.8326 40.7712 0.0000 0.0000 0.0000
# 3 35.9998 40.7712 210.3071 0.0000 0.0000 0.0000
# 4 0.0000 0.0000 0.0000 20.5221 0.0000 0.0000
# 5 0.0000 0.0000 0.0000 0.0000 37.9272 0.0000
# 6 0.0000 0.0000 0.0000 0.0000 0.0000 -11.3989
#
#
#
# Elastic Compliance Matrix: (Units=1/GPa)
#
#
# Indices 1 2 3 4 5 6 
#
# 1 0.015444 0.000338 -0.002709 0.000000 0.000000 0.000000
# 2 0.000338 0.008487 -0.001703 0.000000 0.000000 0.000000
# 3 -0.002709 -0.001703 0.005549 0.000000 0.000000 0.000000
# 4 0.000000 0.000000 0.000000 0.048728 0.000000 0.000000
# 5 0.000000 0.000000 0.000000 0.000000 0.026366 0.000000
# 6 0.000000 0.000000 0.000000 0.000000 0.000000 -0.087728
#
#
# Mechanical properties :
#
#
# Convention : Reuss Voigt Hill
#
# Bulk Modulus (GPa) = 46.87774 63.27095 55.07435
# Shear Modulus (GPa) = 155.73489 31.13953 93.43721
#
# Velocity S-wave (km/s) = 8.55808 3.82683 6.62893
# Velocity P-wave (km/s) = 10.94077 7.02011 9.19191
#
# Compressibility (1/GPa) = 0.02133209
#
# Stress axis : x y z
#
# Youngs Moduli (GPa) = 64.74861 117.82543 180.21468
#
# Poissons Ratio (x) = -0.03988 0.48826
# Poissons Ratio (y) = -0.02192 0.30696
# Poissons Ratio (z) = 0.17543 0.20069
#
# Static dielectric constant tensor:
#      x y z
#    x 1.746210 0.000000 0.000000 
#    y 0.000000 1.793340 0.000000 
#    z 0.000000 0.000000 1.826830 
# 
# From -- ./inp_files/28894.got.cif
#   From: 2010.05.17/outbox.cif.g08.bks.cpg/sg63_15_cif.got.tgz:28894.got - 2010.06.03 15:47:04.
