data_PCOD9475046
_publ_section_title
;
Structure prediction by ZEFSAII (Michael W. Deem and Ramdas Pophale) SiO2 
 PCOD9475046
Probable space group: C M C M
;
_chemical_formula_sum "Si O2"
_cell_formula_units_Z 88
_cell_length_a 10.911713
_cell_length_b 14.795102
_cell_length_c 29.925132
_cell_angle_alpha 90.000000
_cell_angle_beta 90.000000
_cell_angle_gamma 90.000000
_cell_volume 4831.110522
_symmetry_space_group_name_H-M "C M C M"
_symmetry_group_IT_number 63
_symmetry_cell_setting 'orthorhombic'
loop_
_space_group_symop_operation_xyz
x,y,z
-x,-y,1/2+z
x,-y,-z
-x,y,1/2-z
-x,-y,-z
x,y,1/2-z
-x,y,z
x,-y,1/2+z
1/2+x,1/2+y,z
1/2-x,1/2-y,1/2+z
1/2+x,1/2-y,-z
1/2-x,1/2+y,1/2-z
1/2-x,1/2-y,-z
1/2+x,1/2+y,1/2-z
1/2-x,1/2+y,z
1/2+x,1/2-y,1/2+z
loop_
_atom_site_type_symbol
_atom_site_label
_atom_site_fract_x
_atom_site_fract_y
_atom_site_fract_z
Si Si1 0.500000 0.244448 0.415389
Si Si2 0.146301 0.149601 0.750000
Si Si3 0.279303 0.695753 0.849278
Si Si4 0.500000 0.965790 0.551157
Si Si5 0.247718 0.984053 0.097466
Si Si6 0.000000 0.936680 0.456248
Si Si7 0.858448 0.135216 0.155396
Si Si8 0.851428 0.942616 0.750000
O O1 0.615611 0.263592 0.382157
O O2 0.500000 0.143665 0.437503
O O3 0.500000 0.325861 0.452731
O O4 0.183568 0.193245 0.702841
O O5 0.000000 0.146298 0.750000
O O6 0.192653 0.045725 0.750000
O O7 0.251623 0.595373 0.866006
O O8 0.162528 0.760079 0.853001
O O9 0.500000 0.000000 0.500000
O O10 0.624223 0.006920 0.572188
O O11 0.127246 0.963141 0.068001
O O12 0.221249 0.078155 0.121431
O O13 0.000000 0.000000 0.500000
O O14 0.816202 0.108726 0.205108
O O15 0.000000 0.108530 0.150534
O O16 0.000000 0.945056 0.750000
#
# Coordination Sequence:
#
# PCOD9475046 Si02
#       8
#     8   8  16   8  16   8  16   8
#     4  10  22  41  66  92 119 163 210 256 313 390
#     4  11  19  32  63  94 128 169 215 253 304 366
#     4  11  22  38  62  95 129 165 213 257 307 376
#     4  12  26  48  65  93 130 165 206 277 348 394
#     4  11  23  41  67  91 125 166 204 264 324 381
#     4  10  22  44  65  93 119 154 210 264 309 382
#     4  11  21  38  61  90 127 165 217 257 308 368
#     4   9  19  32  56  87 123 170 213 261 298 364
#
# _framework density 18.215271999999999
#
# number of rings (size 3 to 8) (size 9 to 14) (size 15 to 20)
#    0.000    1.273    5.455    1.091    1.273    0.000 
#    3.273    2.727    0.000    1.091    0.000    0.000 
#    0.000    0.000    0.000    0.000    0.000    0.000 
#
# Total GULP energy -245181.713036 kJ/mol
# GULP energy per Si atom -5572.311660 kJ/mol
# Density = 1.817381 g / cm^3
# Si number density = 18.215272 Si / 1000 Ang^3
#
#
#
# Elastic Constant Matrix: (Units=GPa)
#
#
# Indices 1 2 3 4 5 6 
#
# 1 99.2287 22.8052 46.6410 0.0000 0.0000 0.0000
# 2 22.8052 94.2614 37.5589 0.0000 0.0000 0.0000
# 3 46.6410 37.5589 107.3906 0.0000 0.0000 0.0000
# 4 0.0000 0.0000 0.0000 16.5002 0.0000 0.0000
# 5 0.0000 0.0000 0.0000 0.0000 9.7470 0.0000
# 6 0.0000 0.0000 0.0000 0.0000 0.0000 25.2821
#
#
#
# Elastic Compliance Matrix: (Units=1/GPa)
#
#
# Indices 1 2 3 4 5 6 
#
# 1 0.012747 -0.001020 -0.005179 0.000000 0.000000 0.000000
# 2 -0.001020 0.012408 -0.003897 0.000000 0.000000 0.000000
# 3 -0.005179 -0.003897 0.012924 0.000000 0.000000 0.000000
# 4 0.000000 0.000000 0.000000 0.060605 0.000000 0.000000
# 5 0.000000 0.000000 0.000000 0.000000 0.102595 0.000000
# 6 0.000000 0.000000 0.000000 0.000000 0.000000 0.039554
#
#
# Mechanical properties :
#
#
# Convention : Reuss Voigt Hill
#
# Bulk Modulus (GPa) = 55.90691 57.21010 56.55851
# Shear Modulus (GPa) = 18.72746 23.23091 20.97919
#
# Velocity S-wave (km/s) = 3.20991 3.57508 3.39741
# Velocity P-wave (km/s) = 6.67060 6.96546 6.81962
#
# Compressibility (1/GPa) = 0.01788688
#
# Stress axis : x y z
#
# Youngs Moduli (GPa) = 78.45237 80.59167 77.37552
#
# Poissons Ratio (x) = 0.08222 0.40074
# Poissons Ratio (y) = 0.08003 0.30150
# Poissons Ratio (z) = 0.40632 0.31403
#
# Static dielectric constant tensor:
#      x y z
#    x 1.625060 0.000000 0.000000 
#    y 0.000000 1.628330 0.000000 
#    z 0.000000 0.000000 1.617330 
# 
# From -- ./inp_files/68249.got.cif
#   From: 2010.05.17/outbox.cif.g08.bks.cpg/sg63_35_cif.got.tgz:68249.got - 2010.06.03 15:47:04.
