data_PCOD9475709
_publ_section_title
;
Structure prediction by ZEFSAII (Michael W. Deem and Ramdas Pophale) SiO2 
 PCOD9475709
Probable space group: C M C M
;
_chemical_formula_sum "Si O2"
_cell_formula_units_Z 112
_cell_length_a 14.923918
_cell_length_b 14.879381
_cell_length_c 26.187277
_cell_angle_alpha 90.000000
_cell_angle_beta 90.000000
_cell_angle_gamma 90.000000
_cell_volume 5815.111690
_symmetry_space_group_name_H-M "C M C M"
_symmetry_group_IT_number 63
_symmetry_cell_setting 'orthorhombic'
loop_
_space_group_symop_operation_xyz
x,y,z
-x,-y,1/2+z
x,-y,-z
-x,y,1/2-z
-x,-y,-z
x,y,1/2-z
-x,y,z
x,-y,1/2+z
1/2+x,1/2+y,z
1/2-x,1/2-y,1/2+z
1/2+x,1/2-y,-z
1/2-x,1/2+y,1/2-z
1/2-x,1/2-y,-z
1/2+x,1/2+y,1/2-z
1/2-x,1/2+y,z
1/2+x,1/2-y,1/2+z
loop_
_atom_site_type_symbol
_atom_site_label
_atom_site_fract_x
_atom_site_fract_y
_atom_site_fract_z
Si Si1 0.252218 0.028970 0.373974
Si Si2 0.897651 0.437589 0.955162
Si Si3 0.599794 0.573064 0.044362
Si Si4 0.500000 0.406087 0.311388
Si Si5 0.000000 0.878634 0.688222
Si Si6 0.195862 0.816302 0.810201
Si Si7 0.150652 0.762832 0.021939
Si Si8 0.319233 0.333471 0.136026
O O1 0.343060 0.050671 0.403424
O O2 0.174760 0.061242 0.413192
O O3 0.239155 0.087069 0.323314
O O4 0.238350 0.924396 0.365241
O O5 0.892381 0.334883 0.973091
O O6 0.000000 0.464954 0.947529
O O7 0.857564 0.500000 0.000000
O O8 0.500000 0.557948 0.065010
O O9 0.615756 0.500000 0.000000
O O10 0.604275 0.668999 0.016866
O O11 0.500000 0.397924 0.250000
O O12 0.500000 0.513849 0.323580
O O13 0.589024 0.358932 0.334283
O O14 0.091710 0.828011 0.672412
O O15 0.000000 0.876364 0.750000
O O16 0.196922 0.797609 0.750000
O O17 0.257149 0.743736 0.839316
O O18 0.155466 0.805352 0.078383
O O19 0.250000 0.750000 0.000000
#
# Coordination Sequence:
#
# PCOD9475709 Si02
#       8
#    16  16  16   8   8  16  16  16
#     4  12  23  41  66  96 128 172 219 277 330 400
#     4  11  24  42  63  86 125 177 223 266 324 400
#     4  11  23  36  61  95 133 164 201 261 332 399
#     4  11  24  42  70 105 134 168 229 292 348 409
#     4   9  20  42  70  94 128 172 216 278 344 402
#     4  11  24  44  67  96 132 173 220 276 339 401
#     4  12  22  40  62  91 131 171 213 266 332 404
#     4  12  25  39  69  99 133 174 221 279 342 404
#
# _framework density 19.260164
#
# number of rings (size 3 to 8) (size 9 to 14) (size 15 to 20)
#    0.000    0.714    5.714    2.143    4.000    0.571 
#    1.286    0.000    0.000    0.000    0.000    0.000 
#    0.000    0.000    0.000    0.000    0.000    0.000 
#
# Total GULP energy -313047.093150 kJ/mol
# GULP energy per Si atom -5590.126663 kJ/mol
# Density = 1.921633 g / cm^3
# Si number density = 19.260164 Si / 1000 Ang^3
#
#
#
# Elastic Constant Matrix: (Units=GPa)
#
#
# Indices 1 2 3 4 5 6 
#
# 1 103.0122 3.3051 20.8555 0.0000 0.0000 0.0000
# 2 3.3051 105.9869 6.7104 0.0000 0.0000 0.0000
# 3 20.8555 6.7104 63.6082 0.0000 0.0000 0.0000
# 4 0.0000 0.0000 0.0000 26.4345 0.0000 0.0000
# 5 0.0000 0.0000 0.0000 0.0000 -4.3342 0.0000
# 6 0.0000 0.0000 0.0000 0.0000 0.0000 37.7985
#
#
#
# Elastic Compliance Matrix: (Units=1/GPa)
#
#
# Indices 1 2 3 4 5 6 
#
# 1 0.010399 -0.000109 -0.003398 0.000000 0.000000 0.000000
# 2 -0.000109 0.009500 -0.000966 0.000000 0.000000 0.000000
# 3 -0.003398 -0.000966 0.016937 0.000000 0.000000 0.000000
# 4 0.000000 0.000000 0.000000 0.037829 0.000000 0.000000
# 5 0.000000 0.000000 0.000000 0.000000 -0.230723 0.000000
# 6 0.000000 0.000000 0.000000 0.000000 0.000000 0.026456
#
#
# Mechanical properties :
#
#
# Convention : Reuss Voigt Hill
#
# Bulk Modulus (GPa) = 35.85658 37.14992 36.50325
# Shear Modulus (GPa) = -44.90033 28.09552 -8.40240
#
# Velocity S-wave (km/s) = -4.83354 3.82349 -2.09095
# Velocity P-wave (km/s) = 3.53461 6.23076 3.62829
#
# Compressibility (1/GPa) = 0.02788889
#
# Stress axis : x y z
#
# Youngs Moduli (GPa) = 96.16269 105.26625 59.04120
#
# Poissons Ratio (x) = 0.01149 0.20063
# Poissons Ratio (y) = 0.01050 0.05706
# Poissons Ratio (z) = 0.32677 0.10173
#
# Static dielectric constant tensor:
#      x y z
#    x 1.689840 0.000000 0.000000 
#    y 0.000000 1.661340 0.000000 
#    z 0.000000 0.000000 1.672680 
# 
# From -- ./inp_files/69458.got.cif
#   From: 2010.05.17/outbox.cif.g08.bks.cpg/sg63_35_cif.got.tgz:69458.got - 2010.06.03 15:47:04.
