data_PCOD9475089
_publ_section_title
;
Structure prediction by ZEFSAII (Michael W. Deem and Ramdas Pophale) SiO2 
 PCOD9475089
Probable space group: C M C M
;
_chemical_formula_sum "Si O2"
_cell_formula_units_Z 64
_cell_length_a 13.820709
_cell_length_b 26.964501
_cell_length_c 8.739257
_cell_angle_alpha 90.000000
_cell_angle_beta 90.000000
_cell_angle_gamma 90.000000
_cell_volume 3256.845987
_symmetry_space_group_name_H-M "C M C M"
_symmetry_group_IT_number 63
_symmetry_cell_setting 'orthorhombic'
loop_
_space_group_symop_operation_xyz
x,y,z
-x,-y,1/2+z
x,-y,-z
-x,y,1/2-z
-x,-y,-z
x,y,1/2-z
-x,y,z
x,-y,1/2+z
1/2+x,1/2+y,z
1/2-x,1/2-y,1/2+z
1/2+x,1/2-y,-z
1/2-x,1/2+y,1/2-z
1/2-x,1/2-y,-z
1/2+x,1/2+y,1/2-z
1/2-x,1/2+y,z
1/2+x,1/2-y,1/2+z
loop_
_atom_site_type_symbol
_atom_site_label
_atom_site_fract_x
_atom_site_fract_y
_atom_site_fract_z
Si Si1 0.500000 0.196932 0.073303
Si Si2 0.211502 0.553580 0.934421
Si Si3 0.500000 0.078741 0.426815
Si Si4 0.391222 0.624711 0.565480
Si Si5 0.150498 0.232785 0.431114
O O1 0.500000 0.213940 0.250000
O O2 0.500000 0.138241 0.072833
O O3 0.413502 0.221184 0.982489
O O4 0.208275 0.553094 0.750000
O O5 0.296474 0.592574 0.982124
O O6 0.239735 0.500000 0.000000
O O7 0.101998 0.563700 0.995295
O O8 0.500000 0.060739 0.250000
O O9 0.388775 0.626466 0.750000
O O10 0.500000 0.605895 0.521658
O O11 0.381934 0.680496 0.502242
O O12 0.152139 0.227267 0.250000
O O13 0.250000 0.250000 0.500000
#
# Coordination Sequence:
#
# PCOD9475089 Si02
#       5
#     8  16   8  16  16
#     4  11  23  40  62  91 126 163 204 254 311 374
#     4  11  24  42  66  94 125 166 212 266 325 384
#     4  11  24  42  65  93 126 165 211 268 323 382
#     4  10  22  42  66  92 128 169 212 263 319 379
#     4  12  24  38  60  91 126 168 211 256 310 371
#
# _framework density 19.650914
#
# number of rings (size 3 to 8) (size 9 to 14) (size 15 to 20)
#    0.000    1.000    1.250    5.625    0.000    8.500 
#    0.000    0.000    0.000    0.000    0.000    0.000 
#    0.000    0.000    0.000    0.000    0.000    0.000 
#
# Total GULP energy -178596.596009 kJ/mol
# GULP energy per Si atom -5581.143625 kJ/mol
# Density = 1.960619 g / cm^3
# Si number density = 19.650914 Si / 1000 Ang^3
#
#
#
# Elastic Constant Matrix: (Units=GPa)
#
#
# Indices 1 2 3 4 5 6 
#
# 1 135.3738 24.1269 36.3538 0.0000 0.0000 0.0000
# 2 24.1269 77.8868 24.7589 0.0000 0.0000 0.0000
# 3 36.3538 24.7589 63.9542 0.0000 0.0000 0.0000
# 4 0.0000 0.0000 0.0000 30.8878 0.0000 0.0000
# 5 0.0000 0.0000 0.0000 0.0000 25.8180 0.0000
# 6 0.0000 0.0000 0.0000 0.0000 0.0000 40.6243
#
#
#
# Elastic Compliance Matrix: (Units=1/GPa)
#
#
# Indices 1 2 3 4 5 6 
#
# 1 0.008832 -0.001300 -0.004517 0.000000 0.000000 0.000000
# 2 -0.001300 0.014832 -0.005003 0.000000 0.000000 0.000000
# 3 -0.004517 -0.005003 0.020141 0.000000 0.000000 0.000000
# 4 0.000000 0.000000 0.000000 0.032375 0.000000 0.000000
# 5 0.000000 0.000000 0.000000 0.000000 0.038733 0.000000
# 6 0.000000 0.000000 0.000000 0.000000 0.000000 0.024616
#
#
# Mechanical properties :
#
#
# Convention : Reuss Voigt Hill
#
# Bulk Modulus (GPa) = 45.11722 49.74378 47.43050
# Shear Modulus (GPa) = 29.66363 32.26436 30.96400
#
# Velocity S-wave (km/s) = 3.88948 4.05640 3.97382
# Velocity P-wave (km/s) = 6.57114 6.87807 6.72636
#
# Compressibility (1/GPa) = 0.02216449
#
# Stress axis : x y z
#
# Youngs Moduli (GPa) = 113.22937 67.42065 49.65067
#
# Poissons Ratio (x) = 0.08764 0.22427
# Poissons Ratio (y) = 0.14719 0.24841
# Poissons Ratio (z) = 0.51145 0.33732
#
# Static dielectric constant tensor:
#      x y z
#    x 1.683270 0.000000 0.000000 
#    y 0.000000 1.656100 0.000000 
#    z 0.000000 0.000000 1.678210 
# 
# From -- ./inp_files/4327.got.cif
#   From: 2010.05.17/outbox.cif.g08.bks.cpg/sg63_3_cif.got.tgz:4327.got - 2010.06.03 15:47:04.
