data_PCOD9475300
_publ_section_title
;
Structure prediction by ZEFSAII (Michael W. Deem and Ramdas Pophale) SiO2 
 PCOD9475300
Probable space group: C M C M
;
_chemical_formula_sum "Si O2"
_cell_formula_units_Z 72
_cell_length_a 24.870605
_cell_length_b 13.218283
_cell_length_c 9.098249
_cell_angle_alpha 90.000000
_cell_angle_beta 90.000000
_cell_angle_gamma 90.000000
_cell_volume 2991.019292
_symmetry_space_group_name_H-M "C M C M"
_symmetry_group_IT_number 63
_symmetry_cell_setting 'orthorhombic'
loop_
_space_group_symop_operation_xyz
x,y,z
-x,-y,1/2+z
x,-y,-z
-x,y,1/2-z
-x,-y,-z
x,y,1/2-z
-x,y,z
x,-y,1/2+z
1/2+x,1/2+y,z
1/2-x,1/2-y,1/2+z
1/2+x,1/2-y,-z
1/2-x,1/2+y,1/2-z
1/2-x,1/2-y,-z
1/2+x,1/2+y,1/2-z
1/2-x,1/2+y,z
1/2+x,1/2-y,1/2+z
loop_
_atom_site_type_symbol
_atom_site_label
_atom_site_fract_x
_atom_site_fract_y
_atom_site_fract_z
Si Si1 0.265093 0.091651 0.250000
Si Si2 0.164562 0.500000 0.000000
Si Si3 0.587486 0.936491 0.250000
Si Si4 0.063317 0.672916 0.250000
Si Si5 0.694579 0.421609 0.250000
Si Si6 0.365735 0.708724 0.990781
Si Si7 0.289748 0.785601 0.250000
Si Si8 0.439658 0.700239 0.250000
O O1 0.297786 0.064836 0.395182
O O2 0.260501 0.210991 0.250000
O O3 0.205416 0.041886 0.250000
O O4 0.125239 0.441169 0.108705
O O5 0.560515 0.825790 0.250000
O O6 0.561252 0.049242 0.250000
O O7 0.098584 0.716886 0.386026
O O8 0.000000 0.705550 0.250000
O O9 0.664684 0.373836 0.390143
O O10 0.758556 0.391108 0.250000
O O11 0.322787 0.759072 0.103445
O O12 0.408815 0.664676 0.105314
O O13 0.500000 0.665438 0.250000
#
# Coordination Sequence:
#
# PCOD9475300 Si02
#       8
#     8   8   8   8   8  16   8   8
#     4  11  24  40  63  86 132 168 211 242 313 370
#     4  10  24  34  57  88 122 174 199 256 292 364
#     4  11  23  34  59  82 132 162 217 244 308 362
#     4  11  23  40  61  88 123 166 213 261 317 370
#     4  11  24  39  63  92 127 162 211 255 314 373
#     4  10  24  39  59  88 120 162 204 261 308 361
#     4  11  24  39  63  92 127 162 211 255 314 373
#     4  11  23  40  61  88 123 166 213 261 317 370
#
# _framework density 24.072061000000001
#
# number of rings (size 3 to 8) (size 9 to 14) (size 15 to 20)
#    0.000    1.333    0.000    4.333   18.667    0.000 
#    0.000    3.333    0.000    0.000    0.000   54.444 
#    0.000    0.000    0.000    0.000    0.000    0.000 
#
# Total GULP energy -201413.005021 kJ/mol
# GULP energy per Si atom -5594.805695 kJ/mol
# Density = 2.401727 g / cm^3
# Si number density = 24.072061 Si / 1000 Ang^3
#
#
#
# Elastic Constant Matrix: (Units=GPa)
#
#
# Indices 1 2 3 4 5 6 
#
# 1 132.9802 10.3844 59.2324 0.0000 0.0000 0.0000
# 2 10.3844 41.1532 18.1703 0.0000 0.0000 0.0000
# 3 59.2324 18.1703 191.2662 0.0000 0.0000 0.0000
# 4 0.0000 0.0000 0.0000 26.5183 0.0000 0.0000
# 5 0.0000 0.0000 0.0000 0.0000 19.0426 0.0000
# 6 0.0000 0.0000 0.0000 0.0000 0.0000 28.6406
#
#
#
# Elastic Compliance Matrix: (Units=1/GPa)
#
#
# Indices 1 2 3 4 5 6 
#
# 1 0.008767 -0.001058 -0.002615 0.000000 0.000000 0.000000
# 2 -0.001058 0.025491 -0.002094 0.000000 0.000000 0.000000
# 3 -0.002615 -0.002094 0.006237 0.000000 0.000000 0.000000
# 4 0.000000 0.000000 0.000000 0.037710 0.000000 0.000000
# 5 0.000000 0.000000 0.000000 0.000000 0.052514 0.000000
# 6 0.000000 0.000000 0.000000 0.000000 0.000000 0.034915
#
#
# Mechanical properties :
#
#
# Convention : Reuss Voigt Hill
#
# Bulk Modulus (GPa) = 34.52787 60.10819 47.31803
# Shear Modulus (GPa) = 26.76358 33.34780 30.05569
#
# Velocity S-wave (km/s) = 3.33800 3.72604 3.53735
# Velocity P-wave (km/s) = 5.40657 6.59814 6.03185
#
# Compressibility (1/GPa) = 0.02896211
#
# Stress axis : x y z
#
# Youngs Moduli (GPa) = 114.06272 39.22962 160.33511
#
# Poissons Ratio (x) = 0.04150 0.41920
# Poissons Ratio (y) = 0.12066 0.33575
# Poissons Ratio (z) = 0.29822 0.08215
#
# Static dielectric constant tensor:
#      x y z
#    x 1.912310 0.000000 0.000000 
#    y 0.000000 1.969950 0.000000 
#    z 0.000000 0.000000 1.881000 
# 
# From -- ./inp_files/11834.got.cif
#   From: 2010.05.17/outbox.cif.g08.bks.cpg/sg63_6_cif.got.tgz:11834.got - 2010.06.03 15:47:04.
