data_PCOD9475310
_publ_section_title
;
Structure prediction by ZEFSAII (Michael W. Deem and Ramdas Pophale) SiO2 
 PCOD9475310
Probable space group: C M C M
;
_chemical_formula_sum "Si O2"
_cell_formula_units_Z 104
_cell_length_a 22.990583
_cell_length_b 8.946694
_cell_length_c 27.291635
_cell_angle_alpha 90.000000
_cell_angle_beta 90.000000
_cell_angle_gamma 90.000000
_cell_volume 5613.608515
_symmetry_space_group_name_H-M "C M C M"
_symmetry_group_IT_number 63
_symmetry_cell_setting 'orthorhombic'
loop_
_space_group_symop_operation_xyz
x,y,z
-x,-y,1/2+z
x,-y,-z
-x,y,1/2-z
-x,-y,-z
x,y,1/2-z
-x,y,z
x,-y,1/2+z
1/2+x,1/2+y,z
1/2-x,1/2-y,1/2+z
1/2+x,1/2-y,-z
1/2-x,1/2+y,1/2-z
1/2-x,1/2-y,-z
1/2+x,1/2+y,1/2-z
1/2-x,1/2+y,z
1/2+x,1/2-y,1/2+z
loop_
_atom_site_type_symbol
_atom_site_label
_atom_site_fract_x
_atom_site_fract_y
_atom_site_fract_z
Si Si1 0.869085 0.998495 0.398633
Si Si2 0.500000 0.517270 0.579284
Si Si3 0.096465 0.500000 0.000000
Si Si4 0.174444 0.394038 0.695615
Si Si5 0.798018 0.042856 0.803632
Si Si6 0.277866 0.366872 0.962144
Si Si7 0.500000 0.247108 0.503076
Si Si8 0.661496 0.849662 0.910515
O O1 0.837089 0.019616 0.347076
O O2 0.852764 0.827641 0.415748
O O3 0.938480 0.000231 0.393809
O O4 0.840984 0.119633 0.436150
O O5 0.500000 0.384865 0.539662
O O6 0.500000 0.676270 0.550634
O O7 0.055236 0.641013 0.989320
O O8 0.133993 0.448150 0.953641
O O9 0.147356 0.419356 0.750000
O O10 0.195898 0.221929 0.695131
O O11 0.230916 0.498214 0.691783
O O12 0.141684 0.403904 0.643496
O O13 0.817753 0.989612 0.750000
O O14 0.230742 0.371687 0.918307
O O15 0.279359 0.500000 0.000000
O O16 0.250000 0.250000 0.000000
#
# Coordination Sequence:
#
# PCOD9475310 Si02
#       8
#    16   8   8  16  16  16   8  16
#     4  11  23  39  57  86 117 156 198 234 295 347
#     4  11  24  40  61  80 115 159 194 245 277 349
#     4  11  22  40  58  86 114 159 194 242 288 347
#     4   9  18  34  55  83 117 153 189 236 294 354
#     4   9  18  35  58  83 114 148 193 239 288 348
#     4  12  24  33  51  81 118 148 185 232 289 350
#     4  10  24  40  58  80 111 153 211 235 276 344
#     4  11  21  35  58  89 119 154 188 246 292 353
#
# _framework density 18.526408
#
# number of rings (size 3 to 8) (size 9 to 14) (size 15 to 20)
#    0.000    1.538    5.385    0.000    4.308    0.000 
#    2.769    0.385    0.000    0.000    0.000    3.231 
#    0.000    0.000    0.000    0.000    0.000    0.000 
#
# Total GULP energy -289529.054085 kJ/mol
# GULP energy per Si atom -5567.866425 kJ/mol
# Density = 1.848424 g / cm^3
# Si number density = 18.526408 Si / 1000 Ang^3
#
#
#
# Elastic Constant Matrix: (Units=GPa)
#
#
# Indices 1 2 3 4 5 6 
#
# 1 80.7686 18.6888 17.0808 0.0000 0.0000 0.0000
# 2 18.6888 25.4051 37.0675 0.0000 0.0000 0.0000
# 3 17.0808 37.0675 118.4392 0.0000 0.0000 0.0000
# 4 0.0000 0.0000 0.0000 22.0977 0.0000 0.0000
# 5 0.0000 0.0000 0.0000 0.0000 7.6681 0.0000
# 6 0.0000 0.0000 0.0000 0.0000 0.0000 18.2450
#
#
#
# Elastic Compliance Matrix: (Units=1/GPa)
#
#
# Indices 1 2 3 4 5 6 
#
# 1 0.015289 -0.014778 0.002420 0.000000 0.000000 0.000000
# 2 -0.014778 0.086726 -0.025011 0.000000 0.000000 0.000000
# 3 0.002420 -0.025011 0.015922 0.000000 0.000000 0.000000
# 4 0.000000 0.000000 0.000000 0.045254 0.000000 0.000000
# 5 0.000000 0.000000 0.000000 0.000000 0.130411 0.000000
# 6 0.000000 0.000000 0.000000 0.000000 0.000000 0.054809
#
#
# Mechanical properties :
#
#
# Convention : Reuss Voigt Hill
#
# Bulk Modulus (GPa) = 23.14889 41.14302 32.14595
# Shear Modulus (GPa) = 11.42730 19.72053 15.57392
#
# Velocity S-wave (km/s) = 2.48626 3.26614 2.90251
# Velocity P-wave (km/s) = 4.55678 6.03983 5.34994
#
# Compressibility (1/GPa) = 0.04319861
#
# Stress axis : x y z
#
# Youngs Moduli (GPa) = 65.40786 11.53053 62.80693
#
# Poissons Ratio (x) = 0.17040 -0.15200
# Poissons Ratio (y) = 0.96660 1.57088
# Poissons Ratio (z) = -0.15830 0.28839
#
# Static dielectric constant tensor:
#      x y z
#    x 1.634750 0.000000 0.000000 
#    y 0.000000 1.669990 0.000000 
#    z 0.000000 0.000000 1.717290 
# 
# From -- ./inp_files/70723.got.cif
#   From: 2010.05.17/outbox.cif.g08.bks.cpg/sg63_36_cif.got.tgz:70723.got - 2010.06.03 15:47:04.
