data_PCOD9475827
_publ_section_title
;
Structure prediction by ZEFSAII (Michael W. Deem and Ramdas Pophale) SiO2 
 PCOD9475827
Probable space group: C M C M
;
_chemical_formula_sum "Si O2"
_cell_formula_units_Z 52
_cell_length_a 15.892418
_cell_length_b 9.989639
_cell_length_c 13.800723
_cell_angle_alpha 90.000000
_cell_angle_beta 90.000000
_cell_angle_gamma 90.000000
_cell_volume 2190.996141
_symmetry_space_group_name_H-M "C M C M"
_symmetry_group_IT_number 63
_symmetry_cell_setting 'orthorhombic'
loop_
_space_group_symop_operation_xyz
x,y,z
-x,-y,1/2+z
x,-y,-z
-x,y,1/2-z
-x,-y,-z
x,y,1/2-z
-x,y,z
x,-y,1/2+z
1/2+x,1/2+y,z
1/2-x,1/2-y,1/2+z
1/2+x,1/2-y,-z
1/2-x,1/2+y,1/2-z
1/2-x,1/2-y,-z
1/2+x,1/2+y,1/2-z
1/2-x,1/2+y,z
1/2+x,1/2-y,1/2+z
loop_
_atom_site_type_symbol
_atom_site_label
_atom_site_fract_x
_atom_site_fract_y
_atom_site_fract_z
Si Si1 0.596545 0.685746 0.953515
Si Si2 0.000000 0.434104 0.250000
Si Si3 0.642728 0.965527 0.888096
Si Si4 0.835228 0.077020 0.141712
O O1 0.500000 0.695518 0.984733
O O2 0.617665 0.809137 0.884178
O O3 0.610554 0.549935 0.893278
O O4 0.652764 0.678953 0.051628
O O5 0.074524 0.448582 0.167609
O O6 0.739186 0.973372 0.856011
O O7 0.639335 0.000000 0.000000
O O8 0.858943 0.124131 0.250000
#
# Coordination Sequence:
#
# PCOD9475827 Si02
#       4
#    16   4  16  16
#     4  11  25  45  70  99 138 183 222 285 342 401
#     4  12  26  44  72 104 132 190 226 270 356 416
#     4  12  25  48  69 102 140 178 226 284 345 406
#     4  11  24  42  70 102 135 180 231 279 338 406
#
# _framework density 23.733497
#
# number of rings (size 3 to 8) (size 9 to 14) (size 15 to 20)
#    0.000    0.615    6.154    3.231    2.154    2.462 
#    2.769    0.000    0.000    0.000    0.000    0.000 
#    0.000    0.000    0.000    0.000    0.000    0.000 
#
# Total GULP energy -145010.543941 kJ/mol
# GULP energy per Si atom -5577.328613 kJ/mol
# Density = 2.367948 g / cm^3
# Si number density = 23.733497 Si / 1000 Ang^3
#
#
#
# Elastic Constant Matrix: (Units=GPa)
#
#
# Indices 1 2 3 4 5 6 
#
# 1 115.0959 -25.7011 16.3085 0.0000 0.0000 0.0000
# 2 -25.7011 38.1470 -18.9736 0.0000 0.0000 0.0000
# 3 16.3085 -18.9736 150.4308 0.0000 0.0000 0.0000
# 4 0.0000 0.0000 0.0000 3.3525 0.0000 0.0000
# 5 0.0000 0.0000 0.0000 0.0000 -56.5111 0.0000
# 6 0.0000 0.0000 0.0000 0.0000 0.0000 -28.7249
#
#
#
# Elastic Compliance Matrix: (Units=1/GPa)
#
#
# Indices 1 2 3 4 5 6 
#
# 1 0.010236 0.006769 -0.000256 0.000000 0.000000 0.000000
# 2 0.006769 0.032446 0.003358 0.000000 0.000000 0.000000
# 3 -0.000256 0.003358 0.007099 0.000000 0.000000 0.000000
# 4 0.000000 0.000000 0.000000 0.298288 0.000000 0.000000
# 5 0.000000 0.000000 0.000000 0.000000 -0.017696 0.000000
# 6 0.000000 0.000000 0.000000 0.000000 0.000000 -0.034813
#
#
# Mechanical properties :
#
#
# Convention : Reuss Voigt Hill
#
# Bulk Modulus (GPa) = 14.38349 27.43793 20.91071
# Shear Modulus (GPa) = 16.72288 5.75929 11.24109
#
# Velocity S-wave (km/s) = 2.65733 1.55946 2.17868
# Velocity P-wave (km/s) = 3.93558 3.85078 3.89341
#
# Compressibility (1/GPa) = 0.06952416
#
# Stress axis : x y z
#
# Youngs Moduli (GPa) = 97.69199 30.82091 140.86661
#
# Poissons Ratio (x) = -0.20863 0.03605
# Poissons Ratio (y) = -0.66130 -0.47309
# Poissons Ratio (z) = 0.02500 -0.10351
#
# Static dielectric constant tensor:
#      x y z
#    x 1.838980 0.000000 0.000000 
#    y 0.000000 2.014670 0.000000 
#    z 0.000000 0.000000 1.966620 
# 
# From -- ./inp_files/30811.got.cif
#   From: 2010.05.17/outbox.cif.g08.bks.cpg/sg63_16_cif.got.tgz:30811.got - 2010.06.03 15:47:04.
