data_PCOD9475861
_publ_section_title
;
Structure prediction by ZEFSAII (Michael W. Deem and Ramdas Pophale) SiO2 
 PCOD9475861
Probable space group: C M C M
;
_chemical_formula_sum "Si O2"
_cell_formula_units_Z 48
_cell_length_a 18.869267
_cell_length_b 7.383869
_cell_length_c 18.065347
_cell_angle_alpha 90.000000
_cell_angle_beta 90.000000
_cell_angle_gamma 90.000000
_cell_volume 2517.012201
_symmetry_space_group_name_H-M "C M C M"
_symmetry_group_IT_number 63
_symmetry_cell_setting 'orthorhombic'
loop_
_space_group_symop_operation_xyz
x,y,z
-x,-y,1/2+z
x,-y,-z
-x,y,1/2-z
-x,-y,-z
x,y,1/2-z
-x,y,z
x,-y,1/2+z
1/2+x,1/2+y,z
1/2-x,1/2-y,1/2+z
1/2+x,1/2-y,-z
1/2-x,1/2+y,1/2-z
1/2-x,1/2-y,-z
1/2+x,1/2+y,1/2-z
1/2-x,1/2+y,z
1/2+x,1/2-y,1/2+z
loop_
_atom_site_type_symbol
_atom_site_label
_atom_site_fract_x
_atom_site_fract_y
_atom_site_fract_z
Si Si1 0.185135 0.558312 0.583647
Si Si2 0.917165 0.902251 0.579389
Si Si3 0.829183 0.810343 0.337682
O O1 0.203914 0.500000 0.500000
O O2 0.129485 0.721396 0.580976
O O3 0.154809 0.383688 0.625905
O O4 0.255468 0.623342 0.625873
O O5 0.000000 0.863367 0.589689
O O6 0.907777 0.000000 0.500000
O O7 0.887483 0.042081 0.639840
O O8 0.821523 0.794913 0.250000
#
# Coordination Sequence:
#
# PCOD9475861 Si02
#       3
#    16  16  16
#     4  12  23  41  71 101 129 173 227 275 323 394
#     4  11  25  45  68  97 133 174 219 272 332 395
#     4  12  25  41  66 101 137 173 219 277 333 392
#
# _framework density 19.070229000000001
#
# number of rings (size 3 to 8) (size 9 to 14) (size 15 to 20)
#    0.000    0.333    6.667    3.000    0.000    4.000 
#    0.000    0.000    0.000    0.000    0.000    0.000 
#    0.000    0.000    0.000    0.000    0.000    0.000 
#
# Total GULP energy -134353.052876 kJ/mol
# GULP energy per Si atom -5598.043870 kJ/mol
# Density = 1.902682 g / cm^3
# Si number density = 19.070229 Si / 1000 Ang^3
#
#
#
# Elastic Constant Matrix: (Units=GPa)
#
#
# Indices 1 2 3 4 5 6 
#
# 1 62.0889 12.9556 35.4585 0.0000 0.0000 0.0000
# 2 12.9556 105.5511 49.1807 0.0000 0.0000 0.0000
# 3 35.4585 49.1807 170.7768 0.0000 0.0000 0.0000
# 4 0.0000 0.0000 0.0000 23.7780 0.0000 0.0000
# 5 0.0000 0.0000 0.0000 0.0000 -5.4215 0.0000
# 6 0.0000 0.0000 0.0000 0.0000 0.0000 64.2861
#
#
#
# Elastic Compliance Matrix: (Units=1/GPa)
#
#
# Indices 1 2 3 4 5 6 
#
# 1 0.018300 -0.000550 -0.003641 0.000000 0.000000 0.000000
# 2 -0.000550 0.010959 -0.003042 0.000000 0.000000 0.000000
# 3 -0.003641 -0.003042 0.007488 0.000000 0.000000 0.000000
# 4 0.000000 0.000000 0.000000 0.042056 0.000000 0.000000
# 5 0.000000 0.000000 0.000000 0.000000 -0.184450 0.000000
# 6 0.000000 0.000000 0.000000 0.000000 0.000000 0.015555
#
#
# Mechanical properties :
#
#
# Convention : Reuss Voigt Hill
#
# Bulk Modulus (GPa) = 44.88107 59.28962 52.08535
# Shear Modulus (GPa) = -73.31392 32.58330 -20.36531
#
# Velocity S-wave (km/s) = -6.20706 4.13800 -3.27144
# Velocity P-wave (km/s) = 5.27110 7.34768 3.61966
#
# Compressibility (1/GPa) = 0.02228111
#
# Stress axis : x y z
#
# Youngs Moduli (GPa) = 54.64418 91.25029 133.55279
#
# Poissons Ratio (x) = 0.05014 0.48632
# Poissons Ratio (y) = 0.03003 0.40625
# Poissons Ratio (z) = 0.19898 0.27757
#
# Static dielectric constant tensor:
#      x y z
#    x 1.633440 0.000000 0.000000 
#    y 0.000000 1.657630 0.000000 
#    z 0.000000 0.000000 1.642230 
# 
# From -- ./inp_files/33002.got.cif
#   From: 2010.05.17/outbox.cif.g08.bks.cpg/sg63_17_cif.got.tgz:33002.got - 2010.06.03 15:47:04.
