data_PCOD9475974
_publ_section_title
;
Structure prediction by ZEFSAII (Michael W. Deem and Ramdas Pophale) SiO2 
 PCOD9475974
Probable space group: C M C M
;
_chemical_formula_sum "Si O2"
_cell_formula_units_Z 80
_cell_length_a 12.640210
_cell_length_b 12.347152
_cell_length_c 22.850315
_cell_angle_alpha 90.000000
_cell_angle_beta 90.000000
_cell_angle_gamma 90.000000
_cell_volume 3566.262239
_symmetry_space_group_name_H-M "C M C M"
_symmetry_group_IT_number 63
_symmetry_cell_setting 'orthorhombic'
loop_
_space_group_symop_operation_xyz
x,y,z
-x,-y,1/2+z
x,-y,-z
-x,y,1/2-z
-x,-y,-z
x,y,1/2-z
-x,y,z
x,-y,1/2+z
1/2+x,1/2+y,z
1/2-x,1/2-y,1/2+z
1/2+x,1/2-y,-z
1/2-x,1/2+y,1/2-z
1/2-x,1/2-y,-z
1/2+x,1/2+y,1/2-z
1/2-x,1/2+y,z
1/2+x,1/2-y,1/2+z
loop_
_atom_site_type_symbol
_atom_site_label
_atom_site_fract_x
_atom_site_fract_y
_atom_site_fract_z
Si Si1 0.174331 0.803800 0.411877
Si Si2 0.324333 0.271450 0.682355
Si Si3 0.175761 0.616726 0.009643
Si Si4 0.614966 0.025854 0.818350
Si Si5 0.322985 0.462767 0.608354
O O1 0.213161 0.753410 0.350823
O O2 0.122838 0.711038 0.451993
O O3 0.281259 0.835095 0.448950
O O4 0.123335 0.921006 0.401278
O O5 0.311685 0.301058 0.750000
O O6 0.382812 0.156610 0.679953
O O7 0.376296 0.368717 0.645873
O O8 0.281135 0.585698 0.047378
O O9 0.122270 0.500000 0.000000
O O10 0.626584 0.995407 0.750000
O O11 0.500000 0.987355 0.839739
O O12 0.714901 0.987744 0.855295
#
# Coordination Sequence:
#
# PCOD9475974 Si02
#       5
#    16  16  16  16  16
#     4   8  14  23  36  57  84 108 134 172 216 253
#     4   9  16  25  39  59  81 107 140 176 210 248
#     4   8  13  22  37  57  83 109 136 172 214 254
#     4   9  17  28  41  60  88 117 143 176 220 264
#     4   9  15  24  40  60  82 106 142 181 212 247
#
# _framework density 22.432449999999999
#
# number of rings (size 3 to 8) (size 9 to 14) (size 15 to 20)
#    0.000    3.400    0.000    0.600    0.000    0.800 
#    0.000    0.000    0.000   15.000    0.000   12.600 
#    0.000  340.000    0.000    0.000    0.000    0.000 
#
# Total GULP energy -222816.225508 kJ/mol
# GULP energy per Si atom -5570.405638 kJ/mol
# Density = 2.238139 g / cm^3
# Si number density = 22.432450 Si / 1000 Ang^3
#
#
#
# Elastic Constant Matrix: (Units=GPa)
#
#
# Indices 1 2 3 4 5 6 
#
# 1 69.6811 0.2367 7.0081 0.0000 0.0000 0.0000
# 2 0.2367 138.4848 11.2562 0.0000 0.0000 0.0000
# 3 7.0081 11.2562 107.6335 0.0000 0.0000 0.0000
# 4 0.0000 0.0000 0.0000 49.5081 0.0000 0.0000
# 5 0.0000 0.0000 0.0000 0.0000 -7.5485 0.0000
# 6 0.0000 0.0000 0.0000 0.0000 0.0000 -8.7914
#
#
#
# Elastic Compliance Matrix: (Units=1/GPa)
#
#
# Indices 1 2 3 4 5 6 
#
# 1 0.014446 0.000052 -0.000946 0.000000 0.000000 0.000000
# 2 0.000052 0.007283 -0.000765 0.000000 0.000000 0.000000
# 3 -0.000946 -0.000765 0.009432 0.000000 0.000000 0.000000
# 4 0.000000 0.000000 0.000000 0.020199 0.000000 0.000000
# 5 0.000000 0.000000 0.000000 0.000000 -0.132477 0.000000
# 6 0.000000 0.000000 0.000000 0.000000 0.000000 -0.113748
#
#
# Mechanical properties :
#
#
# Convention : Reuss Voigt Hill
#
# Bulk Modulus (GPa) = 35.91469 39.20014 37.55741
# Shear Modulus (GPa) = -27.43252 26.45354 -0.48949
#
# Velocity S-wave (km/s) = -3.50078 3.43775 -0.46763
# Velocity P-wave (km/s) = 0.54383 5.76803 4.06045
#
# Compressibility (1/GPa) = 0.02784376
#
# Stress axis : x y z
#
# Youngs Moduli (GPa) = 69.22306 137.30403 106.01759
#
# Poissons Ratio (x) = -0.00717 0.10030
# Poissons Ratio (y) = -0.00361 0.08111
# Poissons Ratio (z) = 0.06549 0.10505
#
# Static dielectric constant tensor:
#      x y z
#    x 1.825290 0.000000 0.000000 
#    y 0.000000 1.931750 0.000000 
#    z 0.000000 0.000000 1.824900 
# 
# From -- ./inp_files/62769.got.cif
#   From: 2010.05.17/outbox.cif.g08.bks.cpg/sg63_32_cif.got.tgz:62769.got - 2010.06.03 15:47:04.
