data_PCOD9475958
_publ_section_title
;
Structure prediction by ZEFSAII (Michael W. Deem and Ramdas Pophale) SiO2 
 PCOD9475958
Probable space group: C M C M
;
_chemical_formula_sum "Si O2"
_cell_formula_units_Z 80
_cell_length_a 7.345423
_cell_length_b 28.048589
_cell_length_c 19.312208
_cell_angle_alpha 90.000000
_cell_angle_beta 90.000000
_cell_angle_gamma 90.000000
_cell_volume 3978.870089
_symmetry_space_group_name_H-M "C M C M"
_symmetry_group_IT_number 63
_symmetry_cell_setting 'orthorhombic'
loop_
_space_group_symop_operation_xyz
x,y,z
-x,-y,1/2+z
x,-y,-z
-x,y,1/2-z
-x,-y,-z
x,y,1/2-z
-x,y,z
x,-y,1/2+z
1/2+x,1/2+y,z
1/2-x,1/2-y,1/2+z
1/2+x,1/2-y,-z
1/2-x,1/2+y,1/2-z
1/2-x,1/2-y,-z
1/2+x,1/2+y,1/2-z
1/2-x,1/2+y,z
1/2+x,1/2-y,1/2+z
loop_
_atom_site_type_symbol
_atom_site_label
_atom_site_fract_x
_atom_site_fract_y
_atom_site_fract_z
Si Si1 0.222852 0.320067 0.250000
Si Si2 0.221618 0.572728 0.464172
Si Si3 0.778332 0.523401 0.606362
Si Si4 0.277906 0.069227 0.750000
Si Si5 0.713512 0.776750 0.393538
Si Si6 0.219733 0.320348 0.538052
O O1 0.275072 0.375467 0.250000
O O2 0.286455 0.294697 0.320404
O O3 0.000000 0.318261 0.250000
O O4 0.279039 0.530265 0.413065
O O5 0.275223 0.556917 0.541824
O O6 0.282313 0.626059 0.447463
O O7 0.000000 0.572856 0.463354
O O8 0.717536 0.543156 0.679963
O O9 0.000000 0.523541 0.607076
O O10 0.500000 0.068405 0.750000
O O11 0.500000 0.788658 0.392710
O O12 0.730907 0.720453 0.407245
O O13 0.787309 0.802583 0.462579
O O14 0.000000 0.321117 0.535611
#
# Coordination Sequence:
#
# PCOD9475958 Si02
#       6
#     8  16  16   8  16  16
#     4   9  16  26  40  57  79 107 137 169 204 239
#     4   8  13  22  35  52  76 104 128 154 194 239
#     4   8  13  20  32  52  76  99 126 159 195 236
#     4   9  14  20  33  53  75  99 127 161 198 233
#     4   9  17  28  42  60  81 106 138 172 202 235
#     4   9  16  27  43  61  82 108 136 166 201 240
#
# _framework density 20.106210000000001
#
# number of rings (size 3 to 8) (size 9 to 14) (size 15 to 20)
#    0.000    3.400    0.000    2.400    0.000    4.800 
#    0.000    1.500    0.000    2.400    0.000    2.800 
#    0.000    3.200    0.000    0.400    0.000    0.000 
#
# Total GULP energy -223126.822822 kJ/mol
# GULP energy per Si atom -5578.170571 kJ/mol
# Density = 2.006045 g / cm^3
# Si number density = 20.106210 Si / 1000 Ang^3
#
#
#
# Elastic Constant Matrix: (Units=GPa)
#
#
# Indices 1 2 3 4 5 6 
#
# 1 73.0761 -10.6000 3.3476 0.0000 0.0000 0.0000
# 2 -10.6000 166.3857 110.4512 0.0000 0.0000 0.0000
# 3 3.3476 110.4512 177.9627 0.0000 0.0000 0.0000
# 4 0.0000 0.0000 0.0000 20.2330 0.0000 0.0000
# 5 0.0000 0.0000 0.0000 0.0000 -14.5218 0.0000
# 6 0.0000 0.0000 0.0000 0.0000 0.0000 10.0427
#
#
#
# Elastic Compliance Matrix: (Units=1/GPa)
#
#
# Indices 1 2 3 4 5 6 
#
# 1 0.014011 0.001816 -0.001390 0.000000 0.000000 0.000000
# 2 0.001816 0.010457 -0.006524 0.000000 0.000000 0.000000
# 3 -0.001390 -0.006524 0.009694 0.000000 0.000000 0.000000
# 4 0.000000 0.000000 0.000000 0.049424 0.000000 0.000000
# 5 0.000000 0.000000 0.000000 0.000000 -0.068862 0.000000
# 6 0.000000 0.000000 0.000000 0.000000 0.000000 0.099575
#
#
# Mechanical properties :
#
#
# Convention : Reuss Voigt Hill
#
# Bulk Modulus (GPa) = 45.52725 69.31357 57.42041
# Shear Modulus (GPa) = 37.36405 24.09916 30.73161
#
# Velocity S-wave (km/s) = 4.31552 3.46583 3.91380
# Velocity P-wave (km/s) = 6.89377 7.11087 7.00316
#
# Compressibility (1/GPa) = 0.02196486
#
# Stress axis : x y z
#
# Youngs Moduli (GPa) = 71.37034 95.63374 103.15300
#
# Poissons Ratio (x) = -0.17364 0.14343
# Poissons Ratio (y) = -0.12958 0.67296
# Poissons Ratio (z) = 0.09923 0.62391
#
# Static dielectric constant tensor:
#      x y z
#    x 1.822630 0.000000 0.000000 
#    y 0.000000 1.687600 0.000000 
#    z 0.000000 0.000000 1.676330 
# 
# From -- ./inp_files/42415.got.cif
#   From: 2010.05.17/outbox.cif.g08.bks.cpg/sg63_22_cif.got.tgz:42415.got - 2010.06.03 15:47:04.
