data_PCOD9475588
_publ_section_title
;
Structure prediction by ZEFSAII (Michael W. Deem and Ramdas Pophale) SiO2 
 PCOD9475588
Probable space group: C M C M
;
_chemical_formula_sum "Si O2"
_cell_formula_units_Z 116
_cell_length_a 30.748569
_cell_length_b 11.090297
_cell_length_c 18.169251
_cell_angle_alpha 90.000000
_cell_angle_beta 90.000000
_cell_angle_gamma 90.000000
_cell_volume 6195.910138
_symmetry_space_group_name_H-M "C M C M"
_symmetry_group_IT_number 63
_symmetry_cell_setting 'orthorhombic'
loop_
_space_group_symop_operation_xyz
x,y,z
-x,-y,1/2+z
x,-y,-z
-x,y,1/2-z
-x,-y,-z
x,y,1/2-z
-x,y,z
x,-y,1/2+z
1/2+x,1/2+y,z
1/2-x,1/2-y,1/2+z
1/2+x,1/2-y,-z
1/2-x,1/2+y,1/2-z
1/2-x,1/2-y,-z
1/2+x,1/2+y,1/2-z
1/2-x,1/2+y,z
1/2+x,1/2-y,1/2+z
loop_
_atom_site_type_symbol
_atom_site_label
_atom_site_fract_x
_atom_site_fract_y
_atom_site_fract_z
Si Si1 0.153438 0.768337 0.964908
Si Si2 0.419189 0.839400 0.941459
Si Si3 0.683384 0.361626 0.382383
Si Si4 0.000000 0.500000 0.500000
Si Si5 0.155487 0.404236 0.663865
Si Si6 0.778760 0.573674 0.574824
Si Si7 0.378330 0.431689 0.667369
Si Si8 0.948378 0.936372 0.078457
O O1 0.197157 0.696479 0.947340
O O2 0.136545 0.836143 0.893472
O O3 0.116391 0.676200 0.993311
O O4 0.164261 0.854447 0.034166
O O5 0.461371 0.911867 0.965675
O O6 0.391564 0.899607 0.875734
O O7 0.432488 0.701821 0.921893
O O8 0.675606 0.228896 0.349854
O O9 0.733475 0.398255 0.386089
O O10 0.656088 0.459512 0.338228
O O11 0.151789 0.428835 0.750000
O O12 0.187638 0.497804 0.624253
O O13 0.770224 0.500000 0.500000
O O14 0.380310 0.383752 0.750000
O O15 0.423687 0.488906 0.640849
O O16 0.000000 0.939887 0.087559
O O17 0.937784 0.000000 0.000000
#
# Coordination Sequence:
#
# PCOD9475588 Si02
#       8
#    16  16  16   4  16  16  16  16
#     4  11  22  42  66  92 126 168 214 262 319 377
#     4  11  21  40  68  94 127 160 212 264 308 380
#     4  11  23  39  66  92 126 169 221 271 306 371
#     4  12  24  40  68 112 112 160 218 268 306 372
#     4  11  25  43  62  91 134 174 210 263 328 381
#     4  12  23  40  65  95 121 172 225 269 310 374
#     4  12  24  40  62  93 133 166 204 263 330 380
#     4  11  21  39  66  95 119 159 205 260 317 379
#
# _framework density 18.722027000000001
#
# number of rings (size 3 to 8) (size 9 to 14) (size 15 to 20)
#    0.000    0.690    7.586    2.897    1.931    1.931 
#    0.000    0.345    0.000    0.828    0.000    0.000 
#    0.000    0.000    0.000    0.000    0.000    0.000 
#
# Total GULP energy -323717.386013 kJ/mol
# GULP energy per Si atom -5581.334242 kJ/mol
# Density = 1.867941 g / cm^3
# Si number density = 18.722027 Si / 1000 Ang^3
#
#
#
# Elastic Constant Matrix: (Units=GPa)
#
#
# Indices 1 2 3 4 5 6 
#
# 1 124.3075 12.0143 16.9183 0.0000 0.0000 0.0000
# 2 12.0143 28.1698 10.5378 0.0000 0.0000 0.0000
# 3 16.9183 10.5378 84.8757 0.0000 0.0000 0.0000
# 4 0.0000 0.0000 0.0000 18.7733 0.0000 0.0000
# 5 0.0000 0.0000 0.0000 0.0000 -4.2030 0.0000
# 6 0.0000 0.0000 0.0000 0.0000 0.0000 31.6643
#
#
#
# Elastic Compliance Matrix: (Units=1/GPa)
#
#
# Indices 1 2 3 4 5 6 
#
# 1 0.008527 -0.003147 -0.001309 0.000000 0.000000 0.000000
# 2 -0.003147 0.038389 -0.004139 0.000000 0.000000 0.000000
# 3 -0.001309 -0.004139 0.012557 0.000000 0.000000 0.000000
# 4 0.000000 0.000000 0.000000 0.053267 0.000000 0.000000
# 5 0.000000 0.000000 0.000000 0.000000 -0.237926 0.000000
# 6 0.000000 0.000000 0.000000 0.000000 0.000000 0.031581
#
#
# Mechanical properties :
#
#
# Convention : Reuss Voigt Hill
#
# Bulk Modulus (GPa) = 23.65002 35.14373 29.39688
# Shear Modulus (GPa) = -80.23113 22.43910 -28.89601
#
# Velocity S-wave (km/s) = -6.55339 3.46575 -3.93290
# Velocity P-wave (km/s) = 6.67854 5.90147 2.21084
#
# Compressibility (1/GPa) = 0.04228325
#
# Stress axis : x y z
#
# Youngs Moduli (GPa) = 117.27630 26.04880 79.63859
#
# Poissons Ratio (x) = 0.08198 0.10424
# Poissons Ratio (y) = 0.36907 0.32962
# Poissons Ratio (z) = 0.15351 0.10781
#
# Static dielectric constant tensor:
#      x y z
#    x 1.631510 0.000000 0.000000 
#    y 0.000000 1.653570 0.000000 
#    z 0.000000 0.000000 1.648740 
# 
# From -- ./inp_files/49600.got.cif
#   From: 2010.05.17/outbox.cif.g08.bks.cpg/sg63_25_cif.got.tgz:49600.got - 2010.06.03 15:47:04.
