data_PCOD9475443
_publ_section_title
;
Structure prediction by ZEFSAII (Michael W. Deem and Ramdas Pophale) SiO2 
 PCOD9475443
Probable space group: C M C M
;
_chemical_formula_sum "Si O2"
_cell_formula_units_Z 68
_cell_length_a 26.013734
_cell_length_b 13.263095
_cell_length_c 7.683106
_cell_angle_alpha 90.000000
_cell_angle_beta 90.000000
_cell_angle_gamma 90.000000
_cell_volume 2650.845403
_symmetry_space_group_name_H-M "C M C M"
_symmetry_group_IT_number 63
_symmetry_cell_setting 'orthorhombic'
loop_
_space_group_symop_operation_xyz
x,y,z
-x,-y,1/2+z
x,-y,-z
-x,y,1/2-z
-x,-y,-z
x,y,1/2-z
-x,y,z
x,-y,1/2+z
1/2+x,1/2+y,z
1/2-x,1/2-y,1/2+z
1/2+x,1/2-y,-z
1/2-x,1/2+y,1/2-z
1/2-x,1/2-y,-z
1/2+x,1/2+y,1/2-z
1/2-x,1/2+y,z
1/2+x,1/2-y,1/2+z
loop_
_atom_site_type_symbol
_atom_site_label
_atom_site_fract_x
_atom_site_fract_y
_atom_site_fract_z
Si Si1 0.802360 0.122203 0.950251
Si Si2 0.000000 0.603792 0.750000
Si Si3 0.915741 0.888832 0.555749
Si Si4 0.577865 0.842885 0.556384
Si Si5 0.307932 0.147159 0.962222
O O1 0.807806 0.089367 0.750000
O O2 0.745651 0.097156 0.019419
O O3 0.853905 0.097325 0.053222
O O4 0.803176 0.242244 0.957458
O O5 0.044039 0.613790 0.596758
O O6 0.934417 0.869198 0.750000
O O7 0.924539 0.781934 0.457172
O O8 0.936062 0.000000 0.500000
O O9 0.560564 0.129231 0.250000
O O10 0.636061 0.882589 0.528309
O O11 0.308141 0.150757 0.750000
#
# Coordination Sequence:
#
# PCOD9475443 Si02
#       5
#    16   4  16  16  16
#     4   9  16  25  43  69  93 120 151 182 228 284
#     4  12  22  40  50  70  90 120 162 212 250 284
#     4  11  20  33  49  67  95 126 163 202 235 283
#     4  11  21  35  54  69  91 124 160 203 246 286
#     4   9  15  27  44  68  96 117 146 188 229 283
#
# _framework density 25.652194999999999
#
# number of rings (size 3 to 8) (size 9 to 14) (size 15 to 20)
#    0.000    1.882    2.353    6.706    0.000    2.824 
#    0.000    0.588    0.000    0.000    0.000    0.000 
#    0.000    0.000    0.000    1.059    5.176    1.412 
#
# Total GULP energy -189322.482774 kJ/mol
# GULP energy per Si atom -5568.308317 kJ/mol
# Density = 2.559381 g / cm^3
# Si number density = 25.652195 Si / 1000 Ang^3
#
#
#
# Elastic Constant Matrix: (Units=GPa)
#
#
# Indices 1 2 3 4 5 6 
#
# 1 159.6547 -18.1514 35.1726 0.0000 0.0000 0.0000
# 2 -18.1514 114.8388 -7.5173 0.0000 0.0000 0.0000
# 3 35.1726 -7.5173 177.8581 0.0000 0.0000 0.0000
# 4 0.0000 0.0000 0.0000 9.9808 0.0000 0.0000
# 5 0.0000 0.0000 0.0000 0.0000 3.3456 0.0000
# 6 0.0000 0.0000 0.0000 0.0000 0.0000 -34.4854
#
#
#
# Elastic Compliance Matrix: (Units=1/GPa)
#
#
# Indices 1 2 3 4 5 6 
#
# 1 0.006655 0.000968 -0.001275 0.000000 0.000000 0.000000
# 2 0.000968 0.008873 0.000184 0.000000 0.000000 0.000000
# 3 -0.001275 0.000184 0.005882 0.000000 0.000000 0.000000
# 4 0.000000 0.000000 0.000000 0.100192 0.000000 0.000000
# 5 0.000000 0.000000 0.000000 0.000000 0.298900 0.000000
# 6 0.000000 0.000000 0.000000 0.000000 0.000000 -0.028998
#
#
# Mechanical properties :
#
#
# Convention : Reuss Voigt Hill
#
# Bulk Modulus (GPa) = 47.25128 52.37328 49.81228
# Shear Modulus (GPa) = 12.53747 25.29138 18.91442
#
# Velocity S-wave (km/s) = 2.21316 3.14337 2.71835
# Velocity P-wave (km/s) = 4.99908 5.79960 5.41415
#
# Compressibility (1/GPa) = 0.02116345
#
# Stress axis : x y z
#
# Youngs Moduli (GPa) = 150.27402 112.70235 169.99966
#
# Poissons Ratio (x) = -0.10913 0.21676
# Poissons Ratio (y) = -0.14552 -0.03120
# Poissons Ratio (z) = 0.19161 -0.02068
#
# Static dielectric constant tensor:
#      x y z
#    x 2.008550 0.000000 0.000000 
#    y 0.000000 2.169220 0.000000 
#    z 0.000000 0.000000 1.856450 
# 
# From -- ./inp_files/13995.got.cif
#   From: 2010.05.17/outbox.cif.g08.bks.cpg/sg63_7_cif.got.tgz:13995.got - 2010.06.03 15:47:04.
