data_PCOD9475158
_publ_section_title
;
Structure prediction by ZEFSAII (Michael W. Deem and Ramdas Pophale) SiO2 
 PCOD9475158
Probable space group: C M C M
;
_chemical_formula_sum "Si O2"
_cell_formula_units_Z 88
_cell_length_a 11.855030
_cell_length_b 13.838433
_cell_length_c 27.419219
_cell_angle_alpha 90.000000
_cell_angle_beta 90.000000
_cell_angle_gamma 90.000000
_cell_volume 4498.261025
_symmetry_space_group_name_H-M "C M C M"
_symmetry_group_IT_number 63
_symmetry_cell_setting 'orthorhombic'
loop_
_space_group_symop_operation_xyz
x,y,z
-x,-y,1/2+z
x,-y,-z
-x,y,1/2-z
-x,-y,-z
x,y,1/2-z
-x,y,z
x,-y,1/2+z
1/2+x,1/2+y,z
1/2-x,1/2-y,1/2+z
1/2+x,1/2-y,-z
1/2-x,1/2+y,1/2-z
1/2-x,1/2-y,-z
1/2+x,1/2+y,1/2-z
1/2-x,1/2+y,z
1/2+x,1/2-y,1/2+z
loop_
_atom_site_type_symbol
_atom_site_label
_atom_site_fract_x
_atom_site_fract_y
_atom_site_fract_z
Si Si1 0.135687 0.060020 0.615086
Si Si2 0.000000 0.387702 0.001961
Si Si3 0.230111 0.678178 0.694982
Si Si4 0.741290 0.652833 0.368151
Si Si5 0.000000 0.556776 0.693308
Si Si6 0.220242 0.693388 0.951333
Si Si7 0.500000 0.885642 0.885177
O O1 0.180640 0.126951 0.659241
O O2 0.189386 0.114926 0.568085
O O3 0.000000 0.055372 0.612592
O O4 0.190008 0.953307 0.623047
O O5 0.000000 0.363941 0.943974
O O6 0.000000 0.500000 0.000000
O O7 0.893471 0.357741 0.033383
O O8 0.269978 0.670211 0.750000
O O9 0.210103 0.789941 0.680797
O O10 0.112430 0.620992 0.689887
O O11 0.701714 0.725995 0.410255
O O12 0.877472 0.653027 0.369948
O O13 0.000000 0.514591 0.750000
O O14 0.000000 0.486581 0.645986
O O15 0.250000 0.750000 0.000000
#
# Coordination Sequence:
#
# PCOD9475158 Si02
#       7
#    16   8  16  16   8  16   8
#     4  11  26  45  67  97 140 180 224 281 343 404
#     4  12  26  42  72  97 130 181 235 281 329 397
#     4  10  24  43  69 101 135 177 226 281 342 406
#     4  11  25  42  68  95 136 176 223 273 344 400
#     4  10  22  44  70  98 134 173 228 290 330 398
#     4  11  26  43  65  97 134 174 225 277 332 400
#     4  12  22  44  70  96 129 178 233 282 333 400
#
# _framework density 19.563116000000001
#
# number of rings (size 3 to 8) (size 9 to 14) (size 15 to 20)
#    0.000    1.091    3.636    1.091   11.455    1.818 
#    0.000    0.909    0.000    0.000    0.000    0.000 
#    0.000    0.000    0.000    0.000    0.000    0.000 
#
# Total GULP energy -245280.756834 kJ/mol
# GULP energy per Si atom -5574.562655 kJ/mol
# Density = 1.951859 g / cm^3
# Si number density = 19.563116 Si / 1000 Ang^3
#
#
#
# Elastic Constant Matrix: (Units=GPa)
#
#
# Indices 1 2 3 4 5 6 
#
# 1 148.7848 61.3354 56.7696 0.0000 0.0000 0.0000
# 2 61.3354 140.9108 47.6177 0.0000 0.0000 0.0000
# 3 56.7696 47.6177 98.1035 0.0000 0.0000 0.0000
# 4 0.0000 0.0000 0.0000 29.6547 0.0000 0.0000
# 5 0.0000 0.0000 0.0000 0.0000 29.0597 0.0000
# 6 0.0000 0.0000 0.0000 0.0000 0.0000 30.0739
#
#
#
# Elastic Compliance Matrix: (Units=1/GPa)
#
#
# Indices 1 2 3 4 5 6 
#
# 1 0.009412 -0.002699 -0.004136 0.000000 0.000000 0.000000
# 2 -0.002699 0.009263 -0.002934 0.000000 0.000000 0.000000
# 3 -0.004136 -0.002934 0.014011 0.000000 0.000000 0.000000
# 4 0.000000 0.000000 0.000000 0.033721 0.000000 0.000000
# 5 0.000000 0.000000 0.000000 0.000000 0.034412 0.000000
# 6 0.000000 0.000000 0.000000 0.000000 0.000000 0.033251
#
#
# Mechanical properties :
#
#
# Convention : Reuss Voigt Hill
#
# Bulk Modulus (GPa) = 76.06380 79.91604 77.98992
# Shear Modulus (GPa) = 31.64699 32.56276 32.10488
#
# Velocity S-wave (km/s) = 4.02641 4.08425 4.05543
# Velocity P-wave (km/s) = 7.78342 7.94862 7.86645
#
# Compressibility (1/GPa) = 0.01314686
#
# Stress axis : x y z
#
# Youngs Moduli (GPa) = 106.24690 107.95523 71.37159
#
# Poissons Ratio (x) = 0.29138 0.29522
# Poissons Ratio (y) = 0.28677 0.20942
# Poissons Ratio (z) = 0.43948 0.31677
#
# Static dielectric constant tensor:
#      x y z
#    x 1.695720 0.000000 0.000000 
#    y 0.000000 1.707630 0.000000 
#    z 0.000000 0.000000 1.722920 
# 
# From -- ./inp_files/72657.got.cif
#   From: 2010.05.17/outbox.cif.g08.bks.cpg/sg63_37_cif.got.tgz:72657.got - 2010.06.03 15:47:04.
