data_PCOD9475729
_publ_section_title
;
Structure prediction by ZEFSAII (Michael W. Deem and Ramdas Pophale) SiO2 
 PCOD9475729
Probable space group: C M C M
;
_chemical_formula_sum "Si O2"
_cell_formula_units_Z 80
_cell_length_a 10.440646
_cell_length_b 14.905402
_cell_length_c 25.207055
_cell_angle_alpha 90.000000
_cell_angle_beta 90.000000
_cell_angle_gamma 90.000000
_cell_volume 3922.772963
_symmetry_space_group_name_H-M "C M C M"
_symmetry_group_IT_number 63
_symmetry_cell_setting 'orthorhombic'
loop_
_space_group_symop_operation_xyz
x,y,z
-x,-y,1/2+z
x,-y,-z
-x,y,1/2-z
-x,-y,-z
x,y,1/2-z
-x,y,z
x,-y,1/2+z
1/2+x,1/2+y,z
1/2-x,1/2-y,1/2+z
1/2+x,1/2-y,-z
1/2-x,1/2+y,1/2-z
1/2-x,1/2-y,-z
1/2+x,1/2+y,1/2-z
1/2-x,1/2+y,z
1/2+x,1/2-y,1/2+z
loop_
_atom_site_type_symbol
_atom_site_label
_atom_site_fract_x
_atom_site_fract_y
_atom_site_fract_z
Si Si1 0.140695 0.142095 0.972802
Si Si2 0.772106 0.676311 0.078163
Si Si3 0.651435 0.925238 0.193509
Si Si4 0.353081 0.980084 0.421146
Si Si5 0.650991 0.290902 0.690891
O O1 0.157029 0.231899 0.937516
O O2 0.254404 0.075094 0.956799
O O3 0.000000 0.102806 0.964299
O O4 0.159423 0.169589 0.034247
O O5 0.852008 0.585965 0.069385
O O6 0.724222 0.677400 0.138643
O O7 0.708734 0.954427 0.250000
O O8 0.500000 0.946895 0.194853
O O9 0.698139 0.965435 0.138782
O O10 0.661046 0.817624 0.190360
O O11 0.500000 0.946192 0.426086
O O12 0.695542 0.320260 0.750000
O O13 0.500000 0.312917 0.686516
#
# Coordination Sequence:
#
# PCOD9475729 Si02
#       5
#    16  16  16  16  16
#     4  11  25  42  60  87 126 165 201 248 306 361
#     4  11  23  38  62  90 122 158 203 252 302 358
#     4   8  15  31  57  86 116 153 197 243 293 353
#     4  11  23  40  64  91 120 159 207 253 301 360
#     4   9  17  33  60  91 121 156 199 246 300 362
#
# _framework density 20.393737000000002
#
# number of rings (size 3 to 8) (size 9 to 14) (size 15 to 20)
#    0.000    2.000    2.000    3.000    0.000    8.000 
#    0.000    0.000    0.000    3.600    0.000    0.000 
#    0.000    0.000    0.000    0.000    0.000    0.000 
#
# Total GULP energy -223083.626676 kJ/mol
# GULP energy per Si atom -5577.090667 kJ/mol
# Density = 2.034732 g / cm^3
# Si number density = 20.393737 Si / 1000 Ang^3
#
#
#
# Elastic Constant Matrix: (Units=GPa)
#
#
# Indices 1 2 3 4 5 6 
#
# 1 88.5556 25.8016 43.4925 0.0000 0.0000 0.0000
# 2 25.8016 71.7261 23.8804 0.0000 0.0000 0.0000
# 3 43.4925 23.8804 176.0394 0.0000 0.0000 0.0000
# 4 0.0000 0.0000 0.0000 24.6705 0.0000 0.0000
# 5 0.0000 0.0000 0.0000 0.0000 9.4272 0.0000
# 6 0.0000 0.0000 0.0000 0.0000 0.0000 14.0000
#
#
#
# Elastic Compliance Matrix: (Units=1/GPa)
#
#
# Indices 1 2 3 4 5 6 
#
# 1 0.013884 -0.004034 -0.002883 0.000000 0.000000 0.000000
# 2 -0.004034 0.015774 -0.001143 0.000000 0.000000 0.000000
# 3 -0.002883 -0.001143 0.006548 0.000000 0.000000 0.000000
# 4 0.000000 0.000000 0.000000 0.040534 0.000000 0.000000
# 5 0.000000 0.000000 0.000000 0.000000 0.106076 0.000000
# 6 0.000000 0.000000 0.000000 0.000000 0.000000 0.071429
#
#
# Mechanical properties :
#
#
# Convention : Reuss Voigt Hill
#
# Bulk Modulus (GPa) = 49.78924 58.07445 53.93185
# Shear Modulus (GPa) = 18.04663 25.82930 21.93796
#
# Velocity S-wave (km/s) = 2.97797 3.56270 3.28338
# Velocity P-wave (km/s) = 6.02423 6.74256 6.39350
#
# Compressibility (1/GPa) = 0.02008466
#
# Stress axis : x y z
#
# Youngs Moduli (GPa) = 72.02704 63.39634 152.72224
#
# Poissons Ratio (x) = 0.25577 0.44027
# Poissons Ratio (y) = 0.29059 0.17456
# Poissons Ratio (z) = 0.20764 0.07246
#
# Static dielectric constant tensor:
#      x y z
#    x 1.713660 0.000000 0.000000 
#    y 0.000000 1.727970 0.000000 
#    z 0.000000 0.000000 1.795590 
# 
# From -- ./inp_files/61102.got.cif
#   From: 2010.05.17/outbox.cif.g08.bks.cpg/sg63_31_cif.got.tgz:61102.got - 2010.06.03 15:47:04.
