data_PCOD9475052
_publ_section_title
;
Structure prediction by ZEFSAII (Michael W. Deem and Ramdas Pophale) SiO2 
 PCOD9475052
Probable space group: C M C M
;
_chemical_formula_sum "Si O2"
_cell_formula_units_Z 116
_cell_length_a 12.017611
_cell_length_b 17.968503
_cell_length_c 26.782745
_cell_angle_alpha 90.000000
_cell_angle_beta 90.000000
_cell_angle_gamma 90.000000
_cell_volume 5783.425227
_symmetry_space_group_name_H-M "C M C M"
_symmetry_group_IT_number 63
_symmetry_cell_setting 'orthorhombic'
loop_
_space_group_symop_operation_xyz
x,y,z
-x,-y,1/2+z
x,-y,-z
-x,y,1/2-z
-x,-y,-z
x,y,1/2-z
-x,y,z
x,-y,1/2+z
1/2+x,1/2+y,z
1/2-x,1/2-y,1/2+z
1/2+x,1/2-y,-z
1/2-x,1/2+y,1/2-z
1/2-x,1/2-y,-z
1/2+x,1/2+y,1/2-z
1/2-x,1/2+y,z
1/2+x,1/2-y,1/2+z
loop_
_atom_site_type_symbol
_atom_site_label
_atom_site_fract_x
_atom_site_fract_y
_atom_site_fract_z
Si Si1 0.500000 0.710130 0.750000
Si Si2 0.629489 0.352039 0.693574
Si Si3 0.679890 0.437050 0.462304
Si Si4 0.747334 0.962799 0.879281
Si Si5 0.868594 0.618072 0.027492
Si Si6 0.715328 0.710543 0.824742
Si Si7 0.125379 0.223428 0.565391
Si Si8 0.873653 0.570055 0.807436
O O1 0.600107 0.710213 0.793704
O O2 0.637350 0.383164 0.750000
O O3 0.500000 0.332989 0.684611
O O4 0.674148 0.410560 0.653441
O O5 0.708159 0.280187 0.690743
O O6 0.634767 0.500000 0.500000
O O7 0.682869 0.473855 0.408132
O O8 0.805142 0.419155 0.481250
O O9 0.625988 0.356150 0.461775
O O10 0.684582 0.916964 0.922514
O O11 0.659779 0.003246 0.843611
O O12 0.844274 0.706319 0.031053
O O13 0.000000 0.605687 0.024976
O O14 0.696022 0.717186 0.884225
O O15 0.785754 0.636262 0.814149
O O16 0.000000 0.240220 0.582179
O O17 0.868719 0.544849 0.750000
O O18 0.000000 0.595752 0.817557
#
# Coordination Sequence:
#
# PCOD9475052 Si02
#       8
#     4  16  16  16  16  16  16  16
#     4  12  24  40  70 108 130 174 232 276 332 388
#     4  11  24  44  67  97 136 179 221 274 327 395
#     4  10  23  41  65  91 127 165 213 273 329 403
#     4  11  22  40  64  94 132 171 217 264 327 403
#     4  10  22  41  67  93 125 167 219 278 335 395
#     4  12  22  42  67  97 131 174 227 272 326 394
#     4  11  22  40  66  92 126 169 217 274 332 392
#     4  11  23  40  62  95 132 174 218 270 326 387
#
# _framework density 20.057317999999999
#
# number of rings (size 3 to 8) (size 9 to 14) (size 15 to 20)
#    0.000    1.103    4.828    1.655    0.000    4.966 
#    2.483    2.069    0.000    0.000    0.000    0.000 
#    0.000    0.000    0.000    0.000    0.000    0.000 
#
# Total GULP energy -323395.505265 kJ/mol
# GULP energy per Si atom -5575.784574 kJ/mol
# Density = 2.001167 g / cm^3
# Si number density = 20.057318 Si / 1000 Ang^3
#
#
#
# Elastic Constant Matrix: (Units=GPa)
#
#
# Indices 1 2 3 4 5 6 
#
# 1 129.2900 28.8670 18.8440 0.0000 0.0000 0.0000
# 2 28.8670 102.1480 16.3267 0.0000 0.0000 0.0000
# 3 18.8440 16.3267 45.1233 0.0000 0.0000 0.0000
# 4 0.0000 0.0000 0.0000 23.5316 0.0000 0.0000
# 5 0.0000 0.0000 0.0000 0.0000 19.1885 0.0000
# 6 0.0000 0.0000 0.0000 0.0000 0.0000 11.3035
#
#
#
# Elastic Compliance Matrix: (Units=1/GPa)
#
#
# Indices 1 2 3 4 5 6 
#
# 1 0.008593 -0.001969 -0.002876 0.000000 0.000000 0.000000
# 2 -0.001969 0.010842 -0.003101 0.000000 0.000000 0.000000
# 3 -0.002876 -0.003101 0.024485 0.000000 0.000000 0.000000
# 4 0.000000 0.000000 0.000000 0.042496 0.000000 0.000000
# 5 0.000000 0.000000 0.000000 0.000000 0.052115 0.000000
# 6 0.000000 0.000000 0.000000 0.000000 0.000000 0.088468
#
#
# Mechanical properties :
#
#
# Convention : Reuss Voigt Hill
#
# Bulk Modulus (GPa) = 35.67834 44.95962 40.31898
# Shear Modulus (GPa) = 19.82296 24.97295 22.39796
#
# Velocity S-wave (km/s) = 3.14716 3.53240 3.34533
# Velocity P-wave (km/s) = 5.57072 6.25311 5.92175
#
# Compressibility (1/GPa) = 0.02802821
#
# Stress axis : x y z
#
# Youngs Moduli (GPa) = 116.36912 92.23680 40.84204
#
# Poissons Ratio (x) = 0.18159 0.11748
# Poissons Ratio (y) = 0.22910 0.12664
# Poissons Ratio (z) = 0.33472 0.28599
#
# Static dielectric constant tensor:
#      x y z
#    x 1.694360 0.000000 0.000000 
#    y 0.000000 1.717910 0.000000 
#    z 0.000000 0.000000 1.705690 
# 
# From -- ./inp_files/68521.got.cif
#   From: 2010.05.17/outbox.cif.g08.bks.cpg/sg63_35_cif.got.tgz:68521.got - 2010.06.03 15:47:04.
