data_PCOD9475634
_publ_section_title
;
Structure prediction by ZEFSAII (Michael W. Deem and Ramdas Pophale) SiO2 
 PCOD9475634
Probable space group: C M C M
;
_chemical_formula_sum "Si O2"
_cell_formula_units_Z 80
_cell_length_a 8.301093
_cell_length_b 28.237053
_cell_length_c 18.946646
_cell_angle_alpha 90.000000
_cell_angle_beta 90.000000
_cell_angle_gamma 90.000000
_cell_volume 4441.063565
_symmetry_space_group_name_H-M "C M C M"
_symmetry_group_IT_number 63
_symmetry_cell_setting 'orthorhombic'
loop_
_space_group_symop_operation_xyz
x,y,z
-x,-y,1/2+z
x,-y,-z
-x,y,1/2-z
-x,-y,-z
x,y,1/2-z
-x,y,z
x,-y,1/2+z
1/2+x,1/2+y,z
1/2-x,1/2-y,1/2+z
1/2+x,1/2-y,-z
1/2-x,1/2+y,1/2-z
1/2-x,1/2-y,-z
1/2+x,1/2+y,1/2-z
1/2-x,1/2+y,z
1/2+x,1/2-y,1/2+z
loop_
_atom_site_type_symbol
_atom_site_label
_atom_site_fract_x
_atom_site_fract_y
_atom_site_fract_z
Si Si1 0.194256 0.102641 0.537881
Si Si2 0.809446 0.699752 0.472138
Si Si3 0.802659 0.956767 0.169514
Si Si4 0.694692 0.657441 0.328523
Si Si5 0.303911 0.557475 0.392816
O O1 0.244523 0.155628 0.518041
O O2 0.249880 0.082497 0.612841
O O3 0.247495 0.068590 0.473102
O O4 0.000000 0.101401 0.537787
O O5 0.750000 0.750000 0.500000
O O6 0.754528 0.690053 0.391875
O O7 0.000000 0.698515 0.474977
O O8 0.750001 0.949353 0.250000
O O9 0.000000 0.956931 0.170003
O O10 0.750205 0.008095 0.140169
O O11 0.749546 0.670351 0.250000
O O12 0.500000 0.658371 0.329627
O O13 0.743400 0.603448 0.347326
O O14 0.500000 0.556020 0.393164
#
# Coordination Sequence:
#
# PCOD9475634 Si02
#       5
#    16  16  16  16  16
#     4   9  17  30  48  71  99 131 167 207 251 298
#     4  11  22  37  56  74  95 127 168 212 257 305
#     4   9  15  23  41  72 105 134 167 206 242 281
#     4   9  17  31  53  81 109 132 158 199 250 299
#     4   8  13  23  43  72 103 133 164 198 238 287
#
# _framework density 18.013703
#
# number of rings (size 3 to 8) (size 9 to 14) (size 15 to 20)
#    0.000    2.800    0.000    4.200    0.000    5.200 
#    0.000    1.000    0.000   13.800    0.000    0.000 
#    0.000    0.000    0.000    0.000    0.000    0.000 
#
# Total GULP energy -223031.843653 kJ/mol
# GULP energy per Si atom -5575.796091 kJ/mol
# Density = 1.797270 g / cm^3
# Si number density = 18.013703 Si / 1000 Ang^3
#
#
#
# Elastic Constant Matrix: (Units=GPa)
#
#
# Indices 1 2 3 4 5 6 
#
# 1 12.5576 10.3461 24.0161 0.0000 0.0000 0.0000
# 2 10.3461 113.5469 111.8733 0.0000 0.0000 0.0000
# 3 24.0161 111.8733 197.0352 0.0000 0.0000 0.0000
# 4 0.0000 0.0000 0.0000 17.7822 0.0000 0.0000
# 5 0.0000 0.0000 0.0000 0.0000 11.9558 0.0000
# 6 0.0000 0.0000 0.0000 0.0000 0.0000 16.6554
#
#
#
# Elastic Compliance Matrix: (Units=1/GPa)
#
#
# Indices 1 2 3 4 5 6 
#
# 1 0.106225 0.006985 -0.016914 0.000000 0.000000 0.000000
# 2 0.006985 0.020449 -0.012462 0.000000 0.000000 0.000000
# 3 -0.016914 -0.012462 0.014212 0.000000 0.000000 0.000000
# 4 0.000000 0.000000 0.000000 0.056236 0.000000 0.000000
# 5 0.000000 0.000000 0.000000 0.000000 0.083642 0.000000
# 6 0.000000 0.000000 0.000000 0.000000 0.000000 0.060040
#
#
# Mechanical properties :
#
#
# Convention : Reuss Voigt Hill
#
# Bulk Modulus (GPa) = 10.40522 68.40116 39.40319
# Shear Modulus (GPa) = 11.97265 21.07230 16.52248
#
# Velocity S-wave (km/s) = 2.58086 3.42393 3.03184
# Velocity P-wave (km/s) = 3.83014 7.32702 5.84616
#
# Compressibility (1/GPa) = 0.09610559
#
# Stress axis : x y z
#
# Youngs Moduli (GPa) = 9.41402 48.90322 70.36115
#
# Poissons Ratio (x) = -0.34161 1.19006
# Poissons Ratio (y) = -0.06576 0.87683
# Poissons Ratio (z) = 0.15923 0.60942
#
# Static dielectric constant tensor:
#      x y z
#    x 1.631130 0.000000 0.000000 
#    y 0.000000 2.272980 0.000000 
#    z 0.000000 0.000000 1.630470 
# 
# From -- ./inp_files/40415.got.cif
#   From: 2010.05.17/outbox.cif.g08.bks.cpg/sg63_21_cif.got.tgz:40415.got - 2010.06.03 15:47:04.
