data_PCOD9475393
_publ_section_title
;
Structure prediction by ZEFSAII (Michael W. Deem and Ramdas Pophale) SiO2 
 PCOD9475393
Probable space group: C M C M
;
_chemical_formula_sum "Si O2"
_cell_formula_units_Z 96
_cell_length_a 17.322464
_cell_length_b 12.489894
_cell_length_c 22.322308
_cell_angle_alpha 90.000000
_cell_angle_beta 90.000000
_cell_angle_gamma 90.000000
_cell_volume 4829.559448
_symmetry_space_group_name_H-M "C M C M"
_symmetry_group_IT_number 63
_symmetry_cell_setting 'orthorhombic'
loop_
_space_group_symop_operation_xyz
x,y,z
-x,-y,1/2+z
x,-y,-z
-x,y,1/2-z
-x,-y,-z
x,y,1/2-z
-x,y,z
x,-y,1/2+z
1/2+x,1/2+y,z
1/2-x,1/2-y,1/2+z
1/2+x,1/2-y,-z
1/2-x,1/2+y,1/2-z
1/2-x,1/2-y,-z
1/2+x,1/2+y,1/2-z
1/2-x,1/2+y,z
1/2+x,1/2-y,1/2+z
loop_
_atom_site_type_symbol
_atom_site_label
_atom_site_fract_x
_atom_site_fract_y
_atom_site_fract_z
Si Si1 0.329386 0.352539 0.539358
Si Si2 0.413675 0.507808 0.875220
Si Si3 0.188058 0.664342 0.629923
Si Si4 0.588479 0.556602 0.250000
Si Si5 0.641590 0.275617 0.095815
Si Si6 0.660752 0.947583 0.559537
Si Si7 0.589669 0.811613 0.250000
O O1 0.372886 0.453337 0.568277
O O2 0.345543 0.253553 0.584158
O O3 0.348672 0.314042 0.473155
O O4 0.240047 0.388691 0.539139
O O5 0.500000 0.462745 0.874159
O O6 0.373603 0.477378 0.812448
O O7 0.414807 0.635314 0.878463
O O8 0.277619 0.702744 0.631093
O O9 0.182708 0.546622 0.601458
O O10 0.139651 0.661427 0.691002
O O11 0.500000 0.511948 0.250000
O O12 0.584029 0.683403 0.250000
O O13 0.618910 0.150930 0.092905
O O14 0.623766 0.000000 0.500000
O O15 0.500000 0.852164 0.250000
#
# Coordination Sequence:
#
# PCOD9475393 Si02
#       7
#    16  16  16   8  16  16   8
#     4  11  19  34  61  93 124 159 202 259 314 364
#     4  11  22  38  60  90 127 163 209 264 317 366
#     4  11  21  37  63  90 120 163 206 256 305 362
#     4   9  20  39  61  81 113 162 204 256 314 363
#     4  11  22  35  58  96 128 161 207 250 314 379
#     4  11  18  36  59  88 124 163 202 252 306 368
#     4  11  24  43  63  89 120 160 216 262 307 365
#
# _framework density 19.877590000000001
#
# number of rings (size 3 to 8) (size 9 to 14) (size 15 to 20)
#    0.000    1.167    6.667    1.500    0.000    2.000 
#    0.000    5.000    0.000    2.000    0.000    0.000 
#    0.000    0.000    0.000    0.000    0.000    0.000 
#
# Total GULP energy -267565.076994 kJ/mol
# GULP energy per Si atom -5574.272437 kJ/mol
# Density = 1.983235 g / cm^3
# Si number density = 19.877590 Si / 1000 Ang^3
#
#
#
# Elastic Constant Matrix: (Units=GPa)
#
#
# Indices 1 2 3 4 5 6 
#
# 1 39.8314 -1.8731 28.7692 0.0000 0.0000 0.0000
# 2 -1.8731 137.2990 19.3835 0.0000 0.0000 0.0000
# 3 28.7692 19.3835 99.5550 0.0000 0.0000 0.0000
# 4 0.0000 0.0000 0.0000 20.7111 0.0000 0.0000
# 5 0.0000 0.0000 0.0000 0.0000 -9.2083 0.0000
# 6 0.0000 0.0000 0.0000 0.0000 0.0000 19.0237
#
#
#
# Elastic Compliance Matrix: (Units=1/GPa)
#
#
# Indices 1 2 3 4 5 6 
#
# 1 0.032155 0.001800 -0.009643 0.000000 0.000000 0.000000
# 2 0.001800 0.007590 -0.001998 0.000000 0.000000 0.000000
# 3 -0.009643 -0.001998 0.013220 0.000000 0.000000 0.000000
# 4 0.000000 0.000000 0.000000 0.048283 0.000000 0.000000
# 5 0.000000 0.000000 0.000000 0.000000 -0.108598 0.000000
# 6 0.000000 0.000000 0.000000 0.000000 0.000000 0.052566
#
#
# Mechanical properties :
#
#
# Convention : Reuss Voigt Hill
#
# Bulk Modulus (GPa) = 30.04431 41.02718 35.53575
# Shear Modulus (GPa) = 65.79632 21.46571 43.63101
#
# Velocity S-wave (km/s) = 5.75957 3.28974 4.69015
# Velocity P-wave (km/s) = 7.70569 5.92576 6.87358
#
# Compressibility (1/GPa) = 0.03328417
#
# Stress axis : x y z
#
# Youngs Moduli (GPa) = 31.09937 131.75247 75.64194
#
# Poissons Ratio (x) = -0.23715 0.72938
# Poissons Ratio (y) = -0.05598 0.15113
# Poissons Ratio (z) = 0.29988 0.26323
#
# Static dielectric constant tensor:
#      x y z
#    x 1.714810 0.000000 0.000000 
#    y 0.000000 1.733010 0.000000 
#    z 0.000000 0.000000 1.737430 
# 
# From -- ./inp_files/56603.got.cif
#   From: 2010.05.17/outbox.cif.g08.bks.cpg/sg63_29_cif.got.tgz:56603.got - 2010.06.03 15:47:04.
