data_PCOD9475524
_publ_section_title
;
Structure prediction by ZEFSAII (Michael W. Deem and Ramdas Pophale) SiO2 
 PCOD9475524
Probable space group: C M C M
;
_chemical_formula_sum "Si O2"
_cell_formula_units_Z 112
_cell_length_a 15.460432
_cell_length_b 28.480238
_cell_length_c 14.795321
_cell_angle_alpha 90.000000
_cell_angle_beta 90.000000
_cell_angle_gamma 90.000000
_cell_volume 6514.628145
_symmetry_space_group_name_H-M "C M C M"
_symmetry_group_IT_number 63
_symmetry_cell_setting 'orthorhombic'
loop_
_space_group_symop_operation_xyz
x,y,z
-x,-y,1/2+z
x,-y,-z
-x,y,1/2-z
-x,-y,-z
x,y,1/2-z
-x,y,z
x,-y,1/2+z
1/2+x,1/2+y,z
1/2-x,1/2-y,1/2+z
1/2+x,1/2-y,-z
1/2-x,1/2+y,1/2-z
1/2-x,1/2-y,-z
1/2+x,1/2+y,1/2-z
1/2-x,1/2+y,z
1/2+x,1/2-y,1/2+z
loop_
_atom_site_type_symbol
_atom_site_label
_atom_site_fract_x
_atom_site_fract_y
_atom_site_fract_z
Si Si1 0.781905 0.394334 0.500012
Si Si2 0.897542 0.222904 0.350439
Si Si3 0.395952 0.355304 0.999987
Si Si4 0.401463 0.056139 0.857141
Si Si5 0.901464 0.556117 0.357142
Si Si6 0.602459 0.277112 0.350438
Si Si7 0.330242 0.785526 0.999989
O O1 0.677041 0.395580 0.500018
O O2 0.828286 0.418217 0.414396
O O3 0.828290 0.418235 0.585606
O O4 0.806503 0.339403 0.500027
O O5 0.858070 0.222353 0.250000
O O6 0.876755 0.177775 0.412761
O O7 0.878070 0.269198 0.408940
O O8 0.000000 0.220931 0.341420
O O9 0.500000 0.366587 0.999987
O O10 0.376750 0.322235 0.087227
O O11 0.392217 0.064523 0.750000
O O12 0.500000 0.070414 0.883237
O O13 0.395700 0.000011 0.871999
O O14 0.892218 0.564501 0.250000
O O15 0.000000 0.570392 0.383239
O O16 0.641929 0.277667 0.250000
O O17 0.500000 0.279089 0.341421
O O18 0.621927 0.230814 0.408928
O O19 0.250000 0.750000 0.000000
#
# Coordination Sequence:
#
# PCOD9475524 Si02
#       7
#    16  16  16  16  16  16  16
#     4  12  21  32  56  85 104 144 186 222 269 326
#     4   9  18  34  52  65  92 143 187 221 266 312
#     4   9  19  36  51  73 106 138 185 231 260 305
#     4   9  20  39  60  84 114 142 171 216 277 343
#     4   9  20  39  60  84 114 142 171 216 277 343
#     4   9  18  34  52  65  92 143 187 221 266 312
#     4  11  21  34  43  75 111 139 172 228 270 313
#
# _framework density 17.192079
#
# number of rings (size 3 to 8) (size 9 to 14) (size 15 to 20)
#    0.000    2.286    2.857    3.000    0.000    6.286 
#    0.000    2.857    0.000    1.714    0.000    2.000 
#    0.000    0.000    0.000    0.000    0.000    0.000 
#
# Total GULP energy -311854.981135 kJ/mol
# GULP energy per Si atom -5568.838949 kJ/mol
# Density = 1.715295 g / cm^3
# Si number density = 17.192079 Si / 1000 Ang^3
#
#
#
# Elastic Constant Matrix: (Units=GPa)
#
#
# Indices 1 2 3 4 5 6 
#
# 1 102.3125 42.7688 45.6344 0.0000 0.0000 0.0000
# 2 42.7688 51.9685 32.2879 0.0000 0.0000 0.0000
# 3 45.6344 32.2879 121.7606 0.0000 0.0000 0.0000
# 4 0.0000 0.0000 0.0000 -4.2461 0.0000 0.0000
# 5 0.0000 0.0000 0.0000 0.0000 5.7998 0.0000
# 6 0.0000 0.0000 0.0000 0.0000 0.0000 32.4262
#
#
#
# Elastic Compliance Matrix: (Units=1/GPa)
#
#
# Indices 1 2 3 4 5 6 
#
# 1 0.015738 -0.011119 -0.002950 0.000000 0.000000 0.000000
# 2 -0.011119 0.030894 -0.004025 0.000000 0.000000 0.000000
# 3 -0.002950 -0.004025 0.010386 0.000000 0.000000 0.000000
# 4 0.000000 0.000000 0.000000 -0.235509 0.000000 0.000000
# 5 0.000000 0.000000 0.000000 0.000000 0.172419 0.000000
# 6 0.000000 0.000000 0.000000 0.000000 0.000000 0.030839
#
#
# Mechanical properties :
#
#
# Convention : Reuss Voigt Hill
#
# Bulk Modulus (GPa) = 48.00867 57.49154 52.75010
# Shear Modulus (GPa) = 73.64054 17.15267 45.39660
#
# Velocity S-wave (km/s) = 6.55187 3.16208 5.14421
# Velocity P-wave (km/s) = 9.23155 6.84434 8.12608
#
# Compressibility (1/GPa) = 0.02082957
#
# Stress axis : x y z
#
# Youngs Moduli (GPa) = 63.54183 32.36893 96.28606
#
# Poissons Ratio (x) = 0.35991 0.28402
# Poissons Ratio (y) = 0.70652 0.38755
# Poissons Ratio (z) = 0.18744 0.13029
#
# Static dielectric constant tensor:
#      x y z
#    x 1.636320 0.000000 0.000000 
#    y 0.000000 1.556830 0.000000 
#    z 0.000000 0.000000 1.544570 
# 
# From -- ./inp_files/32299.got.cif
#   From: 2010.05.17/outbox.cif.g08.bks.cpg/sg63_17_cif.got.tgz:32299.got - 2010.06.03 15:47:04.
