data_PCOD9475541
_publ_section_title
;
Structure prediction by ZEFSAII (Michael W. Deem and Ramdas Pophale) SiO2 
 PCOD9475541
Probable space group: C M C M
;
_chemical_formula_sum "Si O2"
_cell_formula_units_Z 96
_cell_length_a 14.805619
_cell_length_b 14.589785
_cell_length_c 24.363934
_cell_angle_alpha 90.000000
_cell_angle_beta 90.000000
_cell_angle_gamma 90.000000
_cell_volume 5262.872826
_symmetry_space_group_name_H-M "C M C M"
_symmetry_group_IT_number 63
_symmetry_cell_setting 'orthorhombic'
loop_
_space_group_symop_operation_xyz
x,y,z
-x,-y,1/2+z
x,-y,-z
-x,y,1/2-z
-x,-y,-z
x,y,1/2-z
-x,y,z
x,-y,1/2+z
1/2+x,1/2+y,z
1/2-x,1/2-y,1/2+z
1/2+x,1/2-y,-z
1/2-x,1/2+y,1/2-z
1/2-x,1/2-y,-z
1/2+x,1/2+y,1/2-z
1/2-x,1/2+y,z
1/2+x,1/2-y,1/2+z
loop_
_atom_site_type_symbol
_atom_site_label
_atom_site_fract_x
_atom_site_fract_y
_atom_site_fract_z
Si Si1 0.257287 0.650776 0.073273
Si Si2 0.679213 0.537991 0.627708
Si Si3 0.605041 0.890569 0.491048
Si Si4 0.102126 0.107470 0.982554
Si Si5 0.000000 0.253025 0.184385
Si Si6 0.500000 0.539163 0.184262
Si Si7 0.677501 0.827305 0.127628
O O1 0.275335 0.553743 0.102888
O O2 0.270233 0.733001 0.115200
O O3 0.164073 0.652210 0.039989
O O4 0.335347 0.657094 0.026642
O O5 0.644898 0.601688 0.577379
O O6 0.590650 0.507883 0.661007
O O7 0.756730 0.598662 0.655604
O O8 0.500000 0.864715 0.492552
O O9 0.646565 0.866551 0.431817
O O10 0.612216 0.000000 0.500000
O O11 0.000000 0.142077 0.982654
O O12 0.099347 0.000000 0.000000
O O13 0.000000 0.146005 0.165913
O O14 0.088572 0.302286 0.161314
O O15 0.000000 0.253495 0.250000
O O16 0.500000 0.536020 0.250000
#
# Coordination Sequence:
#
# PCOD9475541 Si02
#       7
#    16  16  16  16   8   8  16
#     4  11  21  36  54  90 128 166 199 244 299 377
#     4  11  21  38  61  91 123 157 205 253 316 366
#     4  11  21  35  54  83 128 173 203 236 298 377
#     4   9  17  27  50  81 122 156 187 234 289 363
#     4  11  26  46  68  91 115 159 221 273 313 361
#     4  11  24  46  70  88 114 158 217 279 324 357
#     4  12  23  38  63  92 125 166 206 258 310 365
#
# _framework density 18.240988000000002
#
# number of rings (size 3 to 8) (size 9 to 14) (size 15 to 20)
#    0.000    1.167    6.667    1.000    2.333    0.667 
#    1.500    0.000    0.000    0.000    0.000    1.167 
#    0.000    0.000    0.000    0.000    0.000    0.000 
#
# Total GULP energy -268230.732977 kJ/mol
# GULP energy per Si atom -5588.140270 kJ/mol
# Density = 1.819947 g / cm^3
# Si number density = 18.240988 Si / 1000 Ang^3
#
#
#
# Elastic Constant Matrix: (Units=GPa)
#
#
# Indices 1 2 3 4 5 6 
#
# 1 147.4526 50.4565 29.6497 0.0000 0.0000 0.0000
# 2 50.4565 93.6151 22.9944 0.0000 0.0000 0.0000
# 3 29.6497 22.9944 42.9277 0.0000 0.0000 0.0000
# 4 0.0000 0.0000 0.0000 12.8846 0.0000 0.0000
# 5 0.0000 0.0000 0.0000 0.0000 7.1398 0.0000
# 6 0.0000 0.0000 0.0000 0.0000 0.0000 19.7771
#
#
#
# Elastic Compliance Matrix: (Units=1/GPa)
#
#
# Indices 1 2 3 4 5 6 
#
# 1 0.008907 -0.003788 -0.004123 0.000000 0.000000 0.000000
# 2 -0.003788 0.013911 -0.004835 0.000000 0.000000 0.000000
# 3 -0.004123 -0.004835 0.028733 0.000000 0.000000 0.000000
# 4 0.000000 0.000000 0.000000 0.077612 0.000000 0.000000
# 5 0.000000 0.000000 0.000000 0.000000 0.140059 0.000000
# 6 0.000000 0.000000 0.000000 0.000000 0.000000 0.050563
#
#
# Mechanical properties :
#
#
# Convention : Reuss Voigt Hill
#
# Bulk Modulus (GPa) = 38.37513 54.46628 46.42070
# Shear Modulus (GPa) = 14.12571 20.01997 17.07284
#
# Velocity S-wave (km/s) = 2.78581 3.31649 3.06267
# Velocity P-wave (km/s) = 5.60635 6.67754 6.16526
#
# Compressibility (1/GPa) = 0.02605854
#
# Stress axis : x y z
#
# Youngs Moduli (GPa) = 112.27002 71.88356 34.80352
#
# Poissons Ratio (x) = 0.27230 0.14349
# Poissons Ratio (y) = 0.42528 0.16829
# Poissons Ratio (z) = 0.46288 0.34758
#
# Static dielectric constant tensor:
#      x y z
#    x 1.640570 0.000000 0.000000 
#    y 0.000000 1.654180 0.000000 
#    z 0.000000 0.000000 1.593130 
# 
# From -- ./inp_files/54253.got.cif
#   From: 2010.05.17/outbox.cif.g08.bks.cpg/sg63_28_cif.got.tgz:54253.got - 2010.06.03 15:47:04.
