data_PCOD9475319
_publ_section_title
;
Structure prediction by ZEFSAII (Michael W. Deem and Ramdas Pophale) SiO2 
 PCOD9475319
Probable space group: C M C M
;
_chemical_formula_sum "Si O2"
_cell_formula_units_Z 68
_cell_length_a 8.006606
_cell_length_b 22.002060
_cell_length_c 17.414178
_cell_angle_alpha 90.000000
_cell_angle_beta 90.000000
_cell_angle_gamma 90.000000
_cell_volume 3067.713388
_symmetry_space_group_name_H-M "C M C M"
_symmetry_group_IT_number 63
_symmetry_cell_setting 'orthorhombic'
loop_
_space_group_symop_operation_xyz
x,y,z
-x,-y,1/2+z
x,-y,-z
-x,y,1/2-z
-x,-y,-z
x,y,1/2-z
-x,y,z
x,-y,1/2+z
1/2+x,1/2+y,z
1/2-x,1/2-y,1/2+z
1/2+x,1/2-y,-z
1/2-x,1/2+y,1/2-z
1/2-x,1/2-y,-z
1/2+x,1/2+y,1/2-z
1/2-x,1/2+y,z
1/2+x,1/2-y,1/2+z
loop_
_atom_site_type_symbol
_atom_site_label
_atom_site_fract_x
_atom_site_fract_y
_atom_site_fract_z
Si Si1 0.808932 0.380119 0.157087
Si Si2 0.000000 0.421290 0.750000
Si Si3 0.500000 0.440106 0.552856
Si Si4 0.322151 0.120567 0.397139
Si Si5 0.000000 0.960145 0.159634
Si Si6 0.198413 0.751260 0.588973
O O1 0.808435 0.379355 0.250000
O O2 0.668041 0.427142 0.130509
O O3 0.762848 0.313174 0.127377
O O4 0.000000 0.395201 0.134053
O O5 0.857713 0.416774 0.680743
O O6 0.500000 0.500000 0.500000
O O7 0.668810 0.401469 0.551385
O O8 0.500000 0.470450 0.636709
O O9 0.500000 0.118612 0.440736
O O10 0.288042 0.190478 0.374515
O O11 0.000000 0.952646 0.250000
O O12 0.250000 0.750000 0.500000
O O13 0.000000 0.760110 0.595387
#
# Coordination Sequence:
#
# PCOD9475319 Si02
#       6
#    16   4   8  16   8  16
#     4   9  21  40  60  93 126 162 216 267 325 387
#     4   8  24  44  70  98 130 176 226 308 336 420
#     4  12  28  46  70  98 140 184 232 284 348 419
#     4  10  24  45  66 102 132 177 232 286 353 405
#     4  10  24  41  68  91 124 178 223 275 322 399
#     4  11  23  39  66  96 137 179 216 277 340 415
#
# _framework density 22.166349
#
# number of rings (size 3 to 8) (size 9 to 14) (size 15 to 20)
#    0.706    1.176    1.176    0.706    9.882    1.412 
#    2.118    0.000    0.000    0.000    0.000    0.000 
#    0.000    0.000    0.000    0.000    0.000    0.000 
#
# Total GULP energy -189288.324267 kJ/mol
# GULP energy per Si atom -5567.303655 kJ/mol
# Density = 2.211590 g / cm^3
# Si number density = 22.166349 Si / 1000 Ang^3
#
#
#
# Elastic Constant Matrix: (Units=GPa)
#
#
# Indices 1 2 3 4 5 6 
#
# 1 119.6548 37.0621 3.3175 0.0000 0.0000 0.0000
# 2 37.0621 39.2598 -18.5184 0.0000 0.0000 0.0000
# 3 3.3175 -18.5184 42.6331 0.0000 0.0000 0.0000
# 4 0.0000 0.0000 0.0000 25.9109 0.0000 0.0000
# 5 0.0000 0.0000 0.0000 0.0000 10.7359 0.0000
# 6 0.0000 0.0000 0.0000 0.0000 0.0000 28.0961
#
#
#
# Elastic Compliance Matrix: (Units=1/GPa)
#
#
# Indices 1 2 3 4 5 6 
#
# 1 0.013907 -0.017154 -0.008533 0.000000 0.000000 0.000000
# 2 -0.017154 0.053193 0.024440 0.000000 0.000000 0.000000
# 3 -0.008533 0.024440 0.034736 0.000000 0.000000 0.000000
# 4 0.000000 0.000000 0.000000 0.038594 0.000000 0.000000
# 5 0.000000 0.000000 0.000000 0.000000 0.093145 0.000000
# 6 0.000000 0.000000 0.000000 0.000000 0.000000 0.035592
#
#
# Mechanical properties :
#
#
# Convention : Reuss Voigt Hill
#
# Bulk Modulus (GPa) = 10.06618 27.25223 18.65921
# Shear Modulus (GPa) = 16.40553 24.92767 20.66660
#
# Velocity S-wave (km/s) = 2.72345 3.35710 3.05674
# Velocity P-wave (km/s) = 3.80008 5.22953 4.57103
#
# Compressibility (1/GPa) = 0.09934250
#
# Stress axis : x y z
#
# Youngs Moduli (GPa) = 71.90521 18.79948 28.78860
#
# Poissons Ratio (x) = 0.32248 0.24566
# Poissons Ratio (y) = 1.23344 -0.70360
# Poissons Ratio (z) = 0.61358 -0.45946
#
# Static dielectric constant tensor:
#      x y z
#    x 1.856330 0.000000 0.000000 
#    y 0.000000 1.810920 0.000000 
#    z 0.000000 0.000000 1.828690 
# 
# From -- ./inp_files/40009.got.cif
#   From: 2010.05.17/outbox.cif.g08.bks.cpg/sg63_21_cif.got.tgz:40009.got - 2010.06.03 15:47:04.
