data_PCOD9475138
_publ_section_title
;
Structure prediction by ZEFSAII (Michael W. Deem and Ramdas Pophale) SiO2 
 PCOD9475138
Probable space group: C M C M
;
_chemical_formula_sum "Si O2"
_cell_formula_units_Z 96
_cell_length_a 19.258248
_cell_length_b 15.603658
_cell_length_c 14.379247
_cell_angle_alpha 90.000000
_cell_angle_beta 90.000000
_cell_angle_gamma 90.000000
_cell_volume 4320.951005
_symmetry_space_group_name_H-M "C M C M"
_symmetry_group_IT_number 63
_symmetry_cell_setting 'orthorhombic'
loop_
_space_group_symop_operation_xyz
x,y,z
-x,-y,1/2+z
x,-y,-z
-x,y,1/2-z
-x,-y,-z
x,y,1/2-z
-x,y,z
x,-y,1/2+z
1/2+x,1/2+y,z
1/2-x,1/2-y,1/2+z
1/2+x,1/2-y,-z
1/2-x,1/2+y,1/2-z
1/2-x,1/2-y,-z
1/2+x,1/2+y,1/2-z
1/2-x,1/2+y,z
1/2+x,1/2-y,1/2+z
loop_
_atom_site_type_symbol
_atom_site_label
_atom_site_fract_x
_atom_site_fract_y
_atom_site_fract_z
Si Si1 0.921890 0.515658 0.638494
Si Si2 0.784589 0.421542 0.556764
Si Si3 0.417265 0.723904 0.645746
Si Si4 0.620925 0.188385 0.539855
Si Si5 0.420437 0.537306 0.636515
Si Si6 0.850131 0.136575 0.358070
O O1 0.915600 0.520183 0.750000
O O2 0.856393 0.461357 0.599218
O O3 0.916533 0.610997 0.594017
O O4 0.000000 0.481599 0.617040
O O5 0.752014 0.500000 0.500000
O O6 0.803295 0.349746 0.481144
O O7 0.731684 0.380865 0.628655
O O8 0.391955 0.747870 0.750000
O O9 0.500000 0.712450 0.653949
O O10 0.406107 0.790065 0.563347
O O11 0.388045 0.630531 0.615933
O O12 0.624182 0.277085 0.593864
O O13 0.419808 0.535435 0.750000
O O14 0.500000 0.536550 0.605475
O O15 0.385881 0.449793 0.604192
O O16 0.866939 0.144112 0.250000
#
# Coordination Sequence:
#
# PCOD9475138 Si02
#       6
#    16  16  16  16  16  16
#     4  10  22  43  69  95 127 167 211 260 317 379
#     4  10  24  42  62  87 122 165 214 261 308 372
#     4   9  19  36  58  89 127 164 205 254 307 366
#     4  11  23  38  61  95 126 158 204 263 318 371
#     4   8  17  35  57  85 119 159 205 246 294 361
#     4  11  23  40  63  90 126 166 206 256 314 380
#
# _framework density 22.217331000000001
#
# number of rings (size 3 to 8) (size 9 to 14) (size 15 to 20)
#    0.000    2.167    0.000    3.000    2.333    6.333 
#    0.000    5.000    0.000    0.000    0.000    0.000 
#    0.000    0.000    0.000    0.000    0.000    0.000 
#
# Total GULP energy -267896.390740 kJ/mol
# GULP energy per Si atom -5581.174807 kJ/mol
# Density = 2.216676 g / cm^3
# Si number density = 22.217331 Si / 1000 Ang^3
#
#
#
# Elastic Constant Matrix: (Units=GPa)
#
#
# Indices 1 2 3 4 5 6 
#
# 1 54.1837 15.8732 4.4227 0.0000 0.0000 0.0000
# 2 15.8732 99.1716 32.1768 0.0000 0.0000 0.0000
# 3 4.4227 32.1768 93.0788 0.0000 0.0000 0.0000
# 4 0.0000 0.0000 0.0000 32.3164 0.0000 0.0000
# 5 0.0000 0.0000 0.0000 0.0000 -24.4270 0.0000
# 6 0.0000 0.0000 0.0000 0.0000 0.0000 -8.4520
#
#
#
# Elastic Compliance Matrix: (Units=1/GPa)
#
#
# Indices 1 2 3 4 5 6 
#
# 1 0.019366 -0.003155 0.000170 0.000000 0.000000 0.000000
# 2 -0.003155 0.011871 -0.003954 0.000000 0.000000 0.000000
# 3 0.000170 -0.003954 0.012102 0.000000 0.000000 0.000000
# 4 0.000000 0.000000 0.000000 0.030944 0.000000 0.000000
# 5 0.000000 0.000000 0.000000 0.000000 -0.040938 0.000000
# 6 0.000000 0.000000 0.000000 0.000000 0.000000 -0.118315
#
#
# Mechanical properties :
#
#
# Convention : Reuss Voigt Hill
#
# Bulk Modulus (GPa) = 33.94103 39.04214 36.49158
# Shear Modulus (GPa) = -81.60379 12.81824 -34.39278
#
# Velocity S-wave (km/s) = -6.06709 2.40458 -3.93875
# Velocity P-wave (km/s) = 5.81114 5.03193 2.05537
#
# Compressibility (1/GPa) = 0.02946287
#
# Stress axis : x y z
#
# Youngs Moduli (GPa) = 51.63666 84.23605 82.62858
#
# Poissons Ratio (x) = 0.26576 -0.01409
# Poissons Ratio (y) = 0.16291 0.32671
# Poissons Ratio (z) = -0.00880 0.33307
#
# Static dielectric constant tensor:
#      x y z
#    x 1.838510 0.000000 0.000000 
#    y 0.000000 1.873360 0.000000 
#    z 0.000000 0.000000 1.836770 
# 
# From -- ./inp_files/35371.got.cif
#   From: 2010.05.17/outbox.cif.g08.bks.cpg/sg63_18_cif.got.tgz:35371.got - 2010.06.03 15:47:04.
