data_PCOD9475645
_publ_section_title
;
Structure prediction by ZEFSAII (Michael W. Deem and Ramdas Pophale) SiO2 
 PCOD9475645
Probable space group: C M C M
;
_chemical_formula_sum "Si O2"
_cell_formula_units_Z 64
_cell_length_a 23.649648
_cell_length_b 14.189520
_cell_length_c 9.501895
_cell_angle_alpha 90.000000
_cell_angle_beta 90.000000
_cell_angle_gamma 90.000000
_cell_volume 3188.618875
_symmetry_space_group_name_H-M "C M C M"
_symmetry_group_IT_number 63
_symmetry_cell_setting 'orthorhombic'
loop_
_space_group_symop_operation_xyz
x,y,z
-x,-y,1/2+z
x,-y,-z
-x,y,1/2-z
-x,-y,-z
x,y,1/2-z
-x,y,z
x,-y,1/2+z
1/2+x,1/2+y,z
1/2-x,1/2-y,1/2+z
1/2+x,1/2-y,-z
1/2-x,1/2+y,1/2-z
1/2-x,1/2-y,-z
1/2+x,1/2+y,1/2-z
1/2-x,1/2+y,z
1/2+x,1/2-y,1/2+z
loop_
_atom_site_type_symbol
_atom_site_label
_atom_site_fract_x
_atom_site_fract_y
_atom_site_fract_z
Si Si1 0.068240 0.151639 0.750000
Si Si2 0.849482 0.413103 0.086099
Si Si3 0.567225 0.431380 0.750000
Si Si4 0.876821 0.208241 0.466551
Si Si5 0.231264 0.093281 0.420590
O O1 0.096651 0.200832 0.618306
O O2 0.000000 0.157936 0.750000
O O3 0.084164 0.040517 0.750000
O O4 0.837560 0.437842 0.250000
O O5 0.882608 0.314825 0.086060
O O6 0.876785 0.500000 0.000000
O O7 0.791956 0.394790 0.995844
O O8 0.500000 0.429094 0.750000
O O9 0.591110 0.372408 0.879562
O O10 0.811374 0.177788 0.454144
O O11 0.234616 0.082914 0.250000
O O12 0.207629 0.000000 0.500000
#
# Coordination Sequence:
#
# PCOD9475645 Si02
#       5
#     8  16   8  16  16
#     4  11  26  42  66  97 127 161 204 258 318 381
#     4  11  24  42  63  93 129 168 211 257 305 362
#     4  11  22  44  66  93 127 159 200 260 320 377
#     4  12  24  39  66  94 126 168 210 251 313 375
#     4  11  22  37  61  96 132 167 205 251 308 375
#
# _framework density 20.071387000000001
#
# number of rings (size 3 to 8) (size 9 to 14) (size 15 to 20)
#    0.000    0.750    2.500    6.750    7.000    2.000 
#    0.000    0.000    0.000    4.500    0.000    0.000 
#    0.000    0.000    0.000    0.000    0.000    0.000 
#
# Total GULP energy -178673.892746 kJ/mol
# GULP energy per Si atom -5583.559148 kJ/mol
# Density = 2.002570 g / cm^3
# Si number density = 20.071387 Si / 1000 Ang^3
#
#
#
# Elastic Constant Matrix: (Units=GPa)
#
#
# Indices 1 2 3 4 5 6 
#
# 1 29.4840 15.0089 27.9419 0.0000 0.0000 0.0000
# 2 15.0089 128.1700 35.3602 0.0000 0.0000 0.0000
# 3 27.9419 35.3602 198.3942 0.0000 0.0000 0.0000
# 4 0.0000 0.0000 0.0000 33.0788 0.0000 0.0000
# 5 0.0000 0.0000 0.0000 0.0000 -7.4244 0.0000
# 6 0.0000 0.0000 0.0000 0.0000 0.0000 13.4855
#
#
#
# Elastic Compliance Matrix: (Units=1/GPa)
#
#
# Indices 1 2 3 4 5 6 
#
# 1 0.040448 -0.003329 -0.005103 0.000000 0.000000 0.000000
# 2 -0.003329 0.008480 -0.001043 0.000000 0.000000 0.000000
# 3 -0.005103 -0.001043 0.005945 0.000000 0.000000 0.000000
# 4 0.000000 0.000000 0.000000 0.030231 0.000000 0.000000
# 5 0.000000 0.000000 0.000000 0.000000 -0.134692 0.000000
# 6 0.000000 0.000000 0.000000 0.000000 0.000000 0.074154
#
#
# Mechanical properties :
#
#
# Convention : Reuss Voigt Hill
#
# Bulk Modulus (GPa) = 27.83714 56.96338 42.40026
# Shear Modulus (GPa) = 90.10832 26.34378 58.22605
#
# Velocity S-wave (km/s) = 6.70756 3.62678 5.39189
# Velocity P-wave (km/s) = 8.59579 6.78086 7.74170
#
# Compressibility (1/GPa) = 0.03592324
#
# Stress axis : x y z
#
# Youngs Moduli (GPa) = 24.72335 117.93103 168.20713
#
# Poissons Ratio (x) = 0.39254 0.85843
# Poissons Ratio (y) = 0.08229 0.17536
# Poissons Ratio (z) = 0.12617 0.12295
#
# Static dielectric constant tensor:
#      x y z
#    x 1.714440 0.000000 0.000000 
#    y 0.000000 1.739000 0.000000 
#    z 0.000000 0.000000 1.654080 
# 
# From -- ./inp_files/9657.got.cif
#   From: 2010.05.17/outbox.cif.g08.bks.cpg/sg63_5_cif.got.tgz:9657.got - 2010.06.03 15:47:04.
