data_PCOD9475868
_publ_section_title
;
Structure prediction by ZEFSAII (Michael W. Deem and Ramdas Pophale) SiO2 
 PCOD9475868
Probable space group: C M C M
;
_chemical_formula_sum "Si O2"
_cell_formula_units_Z 60
_cell_length_a 13.527805
_cell_length_b 19.973898
_cell_length_c 10.163376
_cell_angle_alpha 90.000000
_cell_angle_beta 90.000000
_cell_angle_gamma 90.000000
_cell_volume 2746.174657
_symmetry_space_group_name_H-M "C M C M"
_symmetry_group_IT_number 63
_symmetry_cell_setting 'orthorhombic'
loop_
_space_group_symop_operation_xyz
x,y,z
-x,-y,1/2+z
x,-y,-z
-x,y,1/2-z
-x,-y,-z
x,y,1/2-z
-x,y,z
x,-y,1/2+z
1/2+x,1/2+y,z
1/2-x,1/2-y,1/2+z
1/2+x,1/2-y,-z
1/2-x,1/2+y,1/2-z
1/2-x,1/2-y,-z
1/2+x,1/2+y,1/2-z
1/2-x,1/2+y,z
1/2+x,1/2-y,1/2+z
loop_
_atom_site_type_symbol
_atom_site_label
_atom_site_fract_x
_atom_site_fract_y
_atom_site_fract_z
Si Si1 0.380578 0.615302 0.250000
Si Si2 0.299119 0.115788 0.750000
Si Si3 0.322208 0.959153 0.750000
Si Si4 0.000000 0.574070 0.433516
Si Si5 0.681530 0.313559 0.475903
Si Si6 0.500000 0.765020 0.963230
Si Si7 0.000000 0.298526 0.250000
O O1 0.500000 0.598861 0.250000
O O2 0.293682 0.558433 0.250000
O O3 0.352092 0.653361 0.113735
O O4 0.236458 0.135517 0.621202
O O5 0.400993 0.157435 0.750000
O O6 0.329182 0.038937 0.750000
O O7 0.390664 0.930798 0.867271
O O8 0.000000 0.500000 0.500000
O O9 0.000000 0.654144 0.463564
O O10 0.750000 0.250000 0.500000
O O11 0.591379 0.275307 0.407238
O O12 0.500000 0.754221 0.120771
#
# Coordination Sequence:
#
# PCOD9475868 Si02
#       7
#     8   8   8   8  16   8   4
#     4  12  27  52  71 105 156 209 249 305 377 458
#     4  12  27  46  75 108 146 194 255 312 376 452
#     4  11  27  46  72 105 146 203 251 309 382 455
#     4  11  25  46  77 110 148 185 248 321 391 445
#     4  12  25  44  74 109 145 191 250 305 374 448
#     4  12  23  44  72 106 149 191 245 307 374 452
#     4  12  22  44  70 108 150 190 236 304 404 442
#
# _framework density 21.848575
#
# number of rings (size 3 to 8) (size 9 to 14) (size 15 to 20)
#    0.000    0.267    4.000    5.600    3.733    2.667 
#    2.400    1.333    0.000    0.000    0.000    0.000 
#    0.000    0.000    0.000    0.000    0.000    0.000 
#
# Total GULP energy -167067.452804 kJ/mol
# GULP energy per Si atom -5568.915093 kJ/mol
# Density = 2.179885 g / cm^3
# Si number density = 21.848575 Si / 1000 Ang^3
#
#
#
# Elastic Constant Matrix: (Units=GPa)
#
#
# Indices 1 2 3 4 5 6 
#
# 1 165.7846 3.1027 30.7566 0.0000 0.0000 0.0000
# 2 3.1027 49.9616 22.5176 0.0000 0.0000 0.0000
# 3 30.7566 22.5176 103.6819 0.0000 0.0000 0.0000
# 4 0.0000 0.0000 0.0000 24.0313 0.0000 0.0000
# 5 0.0000 0.0000 0.0000 0.0000 32.9126 0.0000
# 6 0.0000 0.0000 0.0000 0.0000 0.0000 44.9898
#
#
#
# Elastic Compliance Matrix: (Units=1/GPa)
#
#
# Indices 1 2 3 4 5 6 
#
# 1 0.006395 0.000508 -0.002007 0.000000 0.000000 0.000000
# 2 0.000508 0.022227 -0.004978 0.000000 0.000000 0.000000
# 3 -0.002007 -0.004978 0.011321 0.000000 0.000000 0.000000
# 4 0.000000 0.000000 0.000000 0.041612 0.000000 0.000000
# 5 0.000000 0.000000 0.000000 0.000000 0.030383 0.000000
# 6 0.000000 0.000000 0.000000 0.000000 0.000000 0.022227
#
#
# Mechanical properties :
#
#
# Convention : Reuss Voigt Hill
#
# Bulk Modulus (GPa) = 37.05289 48.02022 42.53656
# Shear Modulus (GPa) = 32.02703 37.92348 34.97526
#
# Velocity S-wave (km/s) = 3.83281 4.17074 4.00534
# Velocity P-wave (km/s) = 6.04839 6.72457 6.39542
#
# Compressibility (1/GPa) = 0.02698845
#
# Stress axis : x y z
#
# Youngs Moduli (GPa) = 156.37696 44.98952 88.32823
#
# Poissons Ratio (x) = -0.02283 0.17729
# Poissons Ratio (y) = -0.07936 0.43969
# Poissons Ratio (z) = 0.31388 0.22395
#
# Static dielectric constant tensor:
#      x y z
#    x 1.755480 0.000000 0.000000 
#    y 0.000000 1.768400 0.000000 
#    z 0.000000 0.000000 1.940090 
# 
# From -- ./inp_files/17208.got.cif
#   From: 2010.05.17/outbox.cif.g08.bks.cpg/sg63_9_cif.got.tgz:17208.got - 2010.06.03 15:47:04.
