data_PCOD9475476
_publ_section_title
;
Structure prediction by ZEFSAII (Michael W. Deem and Ramdas Pophale) SiO2 
 PCOD9475476
Probable space group: C M C M
;
_chemical_formula_sum "Si O2"
_cell_formula_units_Z 80
_cell_length_a 11.529850
_cell_length_b 19.453913
_cell_length_c 19.028150
_cell_angle_alpha 90.000000
_cell_angle_beta 90.000000
_cell_angle_gamma 90.000000
_cell_volume 4268.027342
_symmetry_space_group_name_H-M "C M C M"
_symmetry_group_IT_number 63
_symmetry_cell_setting 'orthorhombic'
loop_
_space_group_symop_operation_xyz
x,y,z
-x,-y,1/2+z
x,-y,-z
-x,y,1/2-z
-x,-y,-z
x,y,1/2-z
-x,y,z
x,-y,1/2+z
1/2+x,1/2+y,z
1/2-x,1/2-y,1/2+z
1/2+x,1/2-y,-z
1/2-x,1/2+y,1/2-z
1/2-x,1/2-y,-z
1/2+x,1/2+y,1/2-z
1/2-x,1/2+y,z
1/2+x,1/2-y,1/2+z
loop_
_atom_site_type_symbol
_atom_site_label
_atom_site_fract_x
_atom_site_fract_y
_atom_site_fract_z
Si Si1 0.000000 0.451440 0.167758
Si Si2 0.288501 0.982423 0.582666
Si Si3 0.361596 0.834966 0.549557
Si Si4 0.636508 0.575713 0.831068
Si Si5 0.500000 0.214408 0.830818
Si Si6 0.762560 0.703930 0.899021
O O1 0.109982 0.480428 0.126294
O O2 0.000000 0.471408 0.250000
O O3 0.000000 0.368930 0.164941
O O4 0.308202 0.901068 0.587888
O O5 0.296706 0.000000 0.500000
O O6 0.173851 0.014304 0.617168
O O7 0.500000 0.843731 0.541880
O O8 0.329578 0.764162 0.588051
O O9 0.301460 0.828650 0.473315
O O10 0.662762 0.557906 0.750000
O O11 0.500000 0.589819 0.837450
O O12 0.708678 0.643627 0.852062
O O13 0.500000 0.235104 0.750000
O O14 0.380415 0.235586 0.867238
#
# Coordination Sequence:
#
# PCOD9475476 Si02
#       6
#     8  16  16  16   8  16
#     4  11  21  35  65  97 125 157 201 260 315 370
#     4  12  22  39  65  95 124 159 206 262 310 368
#     4  11  23  40  62  94 127 158 205 259 313 369
#     4  11  24  43  64  89 125 168 211 255 310 379
#     4  11  20  37  65  91 120 161 213 253 296 368
#     4  11  22  40  63  92 123 163 204 256 311 370
#
# _framework density 18.744022000000001
#
# number of rings (size 3 to 8) (size 9 to 14) (size 15 to 20)
#    0.000    0.800    6.000    2.100    0.000    0.400 
#    1.800    4.000    0.000    0.000    0.000    0.000 
#    0.000    0.000    0.000    0.000    0.000    0.000 
#
# Total GULP energy -223515.607656 kJ/mol
# GULP energy per Si atom -5587.890191 kJ/mol
# Density = 1.870136 g / cm^3
# Si number density = 18.744022 Si / 1000 Ang^3
#
#
#
# Elastic Constant Matrix: (Units=GPa)
#
#
# Indices 1 2 3 4 5 6 
#
# 1 79.1640 19.2913 25.1198 0.0000 0.0000 0.0000
# 2 19.2913 69.5075 18.3420 0.0000 0.0000 0.0000
# 3 25.1198 18.3420 98.2227 0.0000 0.0000 0.0000
# 4 0.0000 0.0000 0.0000 11.7392 0.0000 0.0000
# 5 0.0000 0.0000 0.0000 0.0000 28.3273 0.0000
# 6 0.0000 0.0000 0.0000 0.0000 0.0000 22.2194
#
#
#
# Elastic Compliance Matrix: (Units=1/GPa)
#
#
# Indices 1 2 3 4 5 6 
#
# 1 0.014386 -0.003178 -0.003085 0.000000 0.000000 0.000000
# 2 -0.003178 0.015835 -0.002144 0.000000 0.000000 0.000000
# 3 -0.003085 -0.002144 0.011370 0.000000 0.000000 0.000000
# 4 0.000000 0.000000 0.000000 0.085185 0.000000 0.000000
# 5 0.000000 0.000000 0.000000 0.000000 0.035302 0.000000
# 6 0.000000 0.000000 0.000000 0.000000 0.000000 0.045006
#
#
# Mechanical properties :
#
#
# Convention : Reuss Voigt Hill
#
# Bulk Modulus (GPa) = 40.36350 41.37784 40.87067
# Shear Modulus (GPa) = 21.53708 24.73323 23.13516
#
# Velocity S-wave (km/s) = 3.39338 3.63647 3.51703
# Velocity P-wave (km/s) = 6.07735 6.30516 6.19230
#
# Compressibility (1/GPa) = 0.02477486
#
# Stress axis : x y z
#
# Youngs Moduli (GPa) = 69.51387 63.15171 87.94741
#
# Poissons Ratio (x) = 0.20072 0.27136
# Poissons Ratio (y) = 0.22094 0.18857
# Poissons Ratio (z) = 0.21448 0.13541
#
# Static dielectric constant tensor:
#      x y z
#    x 1.658760 0.000000 0.000000 
#    y 0.000000 1.632660 0.000000 
#    z 0.000000 0.000000 1.642080 
# 
# From -- ./inp_files/42188.got.cif
#   From: 2010.05.17/outbox.cif.g08.bks.cpg/sg63_22_cif.got.tgz:42188.got - 2010.06.03 15:47:04.
