data_PCOD9475072
_publ_section_title
;
Structure prediction by ZEFSAII (Michael W. Deem and Ramdas Pophale) SiO2 
 PCOD9475072
Probable space group: C M C M
;
_chemical_formula_sum "Si O2"
_cell_formula_units_Z 88
_cell_length_a 14.054408
_cell_length_b 20.282184
_cell_length_c 13.914236
_cell_angle_alpha 90.000000
_cell_angle_beta 90.000000
_cell_angle_gamma 90.000000
_cell_volume 3966.309868
_symmetry_space_group_name_H-M "C M C M"
_symmetry_group_IT_number 63
_symmetry_cell_setting 'orthorhombic'
loop_
_space_group_symop_operation_xyz
x,y,z
-x,-y,1/2+z
x,-y,-z
-x,y,1/2-z
-x,-y,-z
x,y,1/2-z
-x,y,z
x,-y,1/2+z
1/2+x,1/2+y,z
1/2-x,1/2-y,1/2+z
1/2+x,1/2-y,-z
1/2-x,1/2+y,1/2-z
1/2-x,1/2-y,-z
1/2+x,1/2+y,1/2-z
1/2-x,1/2+y,z
1/2+x,1/2-y,1/2+z
loop_
_atom_site_type_symbol
_atom_site_label
_atom_site_fract_x
_atom_site_fract_y
_atom_site_fract_z
Si Si1 0.250807 0.500000 0.000000
Si Si2 0.612129 0.116860 0.250000
Si Si3 0.609572 0.311254 0.545368
Si Si4 0.614536 0.965112 0.250000
Si Si5 0.107425 0.045410 0.361857
Si Si6 0.887966 0.603692 0.548901
Si Si7 0.824258 0.287647 0.919405
O O1 0.318862 0.495151 0.091724
O O2 0.178998 0.440587 0.982491
O O3 0.500000 0.107897 0.250000
O O4 0.637159 0.163868 0.338971
O O5 0.651162 0.041175 0.250000
O O6 0.500000 0.291317 0.572542
O O7 0.612278 0.388849 0.572145
O O8 0.710293 0.287987 0.592652
O O9 0.629840 0.284566 0.436542
O O10 0.500000 0.970092 0.250000
O O11 0.636322 0.922498 0.155057
O O12 0.125719 0.061985 0.250000
O O13 0.000000 0.019634 0.367845
O O14 0.859451 0.676543 0.518341
O O15 0.000000 0.593250 0.532007
#
# Coordination Sequence:
#
# PCOD9475072 Si02
#       7
#     8   8  16   8  16  16  16
#     4  12  22  36  66  94 124 168 208 266 308 378
#     4  11  22  38  64  95 127 171 213 257 313 382
#     4  10  22  42  64  89 123 161 212 267 313 372
#     4   9  22  38  57  87 131 173 212 255 314 380
#     4  10  23  43  67  95 127 167 213 261 316 378
#     4  11  22  38  57  90 131 166 205 260 318 377
#     4  11  23  41  66  94 125 168 211 260 324 380
#
# _framework density 22.186869999999999
#
# number of rings (size 3 to 8) (size 9 to 14) (size 15 to 20)
#    0.000    1.455    1.818    3.273    2.545    1.455 
#    1.636    0.909    2.000    0.000    0.000    0.000 
#    0.000    0.000    0.000    0.000    0.000    0.000 
#
# Total GULP energy -245022.073388 kJ/mol
# GULP energy per Si atom -5568.683486 kJ/mol
# Density = 2.213637 g / cm^3
# Si number density = 22.186870 Si / 1000 Ang^3
#
#
#
# Elastic Constant Matrix: (Units=GPa)
#
#
# Indices 1 2 3 4 5 6 
#
# 1 168.7184 34.9752 30.4807 0.0000 0.0000 0.0000
# 2 34.9752 55.8794 44.8322 0.0000 0.0000 0.0000
# 3 30.4807 44.8322 100.4979 0.0000 0.0000 0.0000
# 4 0.0000 0.0000 0.0000 935.1756 0.0000 0.0000
# 5 0.0000 0.0000 0.0000 0.0000 20.2077 0.0000
# 6 0.0000 0.0000 0.0000 0.0000 0.0000 30.7711
#
#
#
# Elastic Compliance Matrix: (Units=1/GPa)
#
#
# Indices 1 2 3 4 5 6 
#
# 1 0.006815 -0.004060 -0.000256 0.000000 0.000000 0.000000
# 2 -0.004060 0.030290 -0.012281 0.000000 0.000000 0.000000
# 3 -0.000256 -0.012281 0.015507 0.000000 0.000000 0.000000
# 4 0.000000 0.000000 0.000000 0.001069 0.000000 0.000000
# 5 0.000000 0.000000 0.000000 0.000000 0.049486 0.000000
# 6 0.000000 0.000000 0.000000 0.000000 0.000000 0.032498
#
#
# Mechanical properties :
#
#
# Convention : Reuss Voigt Hill
#
# Bulk Modulus (GPa) = 51.49947 60.63019 56.06483
# Shear Modulus (GPa) = 28.51741 211.55140 120.03440
#
# Velocity S-wave (km/s) = 3.58904 9.77532 7.36336
# Velocity P-wave (km/s) = 6.35901 12.44168 9.88009
#
# Compressibility (1/GPa) = 0.01941767
#
# Stress axis : x y z
#
# Youngs Moduli (GPa) = 146.73650 33.01403 64.48904
#
# Poissons Ratio (x) = 0.13405 0.01648
# Poissons Ratio (y) = 0.59582 0.79199
# Poissons Ratio (z) = 0.03750 0.40544
#
# Static dielectric constant tensor:
#      x y z
#    x 1.824320 0.000000 0.000000 
#    y 0.000000 1.995220 0.000000 
#    z 0.000000 0.000000 1.926710 
# 
# From -- ./inp_files/31821.got.cif
#   From: 2010.05.17/outbox.cif.g08.bks.cpg/sg63_16_cif.got.tgz:31821.got - 2010.06.03 15:47:04.
