data_PCOD9475251
_publ_section_title
;
Structure prediction by ZEFSAII (Michael W. Deem and Ramdas Pophale) SiO2 
 PCOD9475251
Probable space group: C M C M
;
_chemical_formula_sum "Si O2"
_cell_formula_units_Z 72
_cell_length_a 18.089210
_cell_length_b 24.196574
_cell_length_c 8.658291
_cell_angle_alpha 90.000000
_cell_angle_beta 90.000000
_cell_angle_gamma 90.000000
_cell_volume 3789.707202
_symmetry_space_group_name_H-M "C M C M"
_symmetry_group_IT_number 63
_symmetry_cell_setting 'orthorhombic'
loop_
_space_group_symop_operation_xyz
x,y,z
-x,-y,1/2+z
x,-y,-z
-x,y,1/2-z
-x,-y,-z
x,y,1/2-z
-x,y,z
x,-y,1/2+z
1/2+x,1/2+y,z
1/2-x,1/2-y,1/2+z
1/2+x,1/2-y,-z
1/2-x,1/2+y,1/2-z
1/2-x,1/2-y,-z
1/2+x,1/2+y,1/2-z
1/2-x,1/2+y,z
1/2+x,1/2-y,1/2+z
loop_
_atom_site_type_symbol
_atom_site_label
_atom_site_fract_x
_atom_site_fract_y
_atom_site_fract_z
Si Si1 0.854996 0.871622 0.064053
Si Si2 0.285788 0.937927 0.935548
Si Si3 0.414685 0.855014 0.936413
Si Si4 0.000000 0.061046 0.935522
Si Si5 0.166919 0.247349 0.434428
O O1 0.850616 0.868845 0.250000
O O2 0.926017 0.907251 0.016981
O O3 0.781481 0.901177 0.000788
O O4 0.863888 0.810453 0.996970
O O5 0.280165 0.939597 0.750000
O O6 0.361771 0.906377 0.978174
O O7 0.282734 0.000000 0.000000
O O8 0.412517 0.849858 0.750000
O O9 0.500000 0.862235 0.983413
O O10 0.379691 0.799555 0.006777
O O11 0.000000 0.059006 0.750000
O O12 0.000000 0.000000 0.000000
O O13 0.169363 0.247407 0.250000
O O14 0.250000 0.250000 0.500000
#
# Coordination Sequence:
#
# PCOD9475251 Si02
#       5
#    16  16  16   8  16
#     4  11  23  41  64  92 125 165 210 260 315 376
#     4  11  23  40  64  92 123 164 211 260 313 376
#     4  10  23  43  65  91 127 169 211 260 315 370
#     4  10  24  42  62  90 126 168 209 254 311 368
#     4  12  24  40  64  94 125 162 207 258 313 374
#
# _framework density 18.998829000000001
#
# number of rings (size 3 to 8) (size 9 to 14) (size 15 to 20)
#    0.000    1.111    2.222    4.000    1.556    5.333 
#    0.000    0.000    0.000    0.000    0.000    0.000 
#    0.000    0.000    0.000    0.000    0.000    0.000 
#
# Total GULP energy -201340.990896 kJ/mol
# GULP energy per Si atom -5592.805303 kJ/mol
# Density = 1.895559 g / cm^3
# Si number density = 18.998829 Si / 1000 Ang^3
#
#
#
# Elastic Constant Matrix: (Units=GPa)
#
#
# Indices 1 2 3 4 5 6 
#
# 1 110.4448 17.7808 27.8330 0.0000 0.0000 0.0000
# 2 17.7808 104.2205 24.4155 0.0000 0.0000 0.0000
# 3 27.8330 24.4155 50.5941 0.0000 0.0000 0.0000
# 4 0.0000 0.0000 0.0000 31.2361 0.0000 0.0000
# 5 0.0000 0.0000 0.0000 0.0000 26.3275 0.0000
# 6 0.0000 0.0000 0.0000 0.0000 0.0000 33.2911
#
#
#
# Elastic Compliance Matrix: (Units=1/GPa)
#
#
# Indices 1 2 3 4 5 6 
#
# 1 0.010534 -0.000496 -0.005556 0.000000 0.000000 0.000000
# 2 -0.000496 0.010841 -0.004959 0.000000 0.000000 0.000000
# 3 -0.005556 -0.004959 0.025215 0.000000 0.000000 0.000000
# 4 0.000000 0.000000 0.000000 0.032014 0.000000 0.000000
# 5 0.000000 0.000000 0.000000 0.000000 0.037983 0.000000
# 6 0.000000 0.000000 0.000000 0.000000 0.000000 0.030038
#
#
# Mechanical properties :
#
#
# Convention : Reuss Voigt Hill
#
# Bulk Modulus (GPa) = 40.70178 45.03534 42.86856
# Shear Modulus (GPa) = 28.27465 31.18627 29.73046
#
# Velocity S-wave (km/s) = 3.86194 4.05592 3.96012
# Velocity P-wave (km/s) = 6.43086 6.75942 6.59718
#
# Compressibility (1/GPa) = 0.02456895
#
# Stress axis : x y z
#
# Youngs Moduli (GPa) = 94.92862 92.23929 39.65927
#
# Poissons Ratio (x) = 0.04572 0.22034
# Poissons Ratio (y) = 0.04705 0.19668
# Poissons Ratio (z) = 0.52742 0.45743
#
# Static dielectric constant tensor:
#      x y z
#    x 1.643760 0.000000 0.000000 
#    y 0.000000 1.635660 0.000000 
#    z 0.000000 0.000000 1.641520 
# 
# From -- ./inp_files/4612.got.cif
#   From: 2010.05.17/outbox.cif.g08.bks.cpg/sg63_3_cif.got.tgz:4612.got - 2010.06.03 15:47:04.
