data_PCOD9475399
_publ_section_title
;
Structure prediction by ZEFSAII (Michael W. Deem and Ramdas Pophale) SiO2 
 PCOD9475399
Probable space group: C M C M
;
_chemical_formula_sum "Si O2"
_cell_formula_units_Z 80
_cell_length_a 20.094294
_cell_length_b 13.460060
_cell_length_c 18.523787
_cell_angle_alpha 90.000000
_cell_angle_beta 90.000000
_cell_angle_gamma 90.000000
_cell_volume 5010.136133
_symmetry_space_group_name_H-M "C M C M"
_symmetry_group_IT_number 63
_symmetry_cell_setting 'orthorhombic'
loop_
_space_group_symop_operation_xyz
x,y,z
-x,-y,1/2+z
x,-y,-z
-x,y,1/2-z
-x,-y,-z
x,y,1/2-z
-x,y,z
x,-y,1/2+z
1/2+x,1/2+y,z
1/2-x,1/2-y,1/2+z
1/2+x,1/2-y,-z
1/2-x,1/2+y,1/2-z
1/2-x,1/2-y,-z
1/2+x,1/2+y,1/2-z
1/2-x,1/2+y,z
1/2+x,1/2-y,1/2+z
loop_
_atom_site_type_symbol
_atom_site_label
_atom_site_fract_x
_atom_site_fract_y
_atom_site_fract_z
Si Si1 0.923459 0.885822 0.523451
Si Si2 0.295351 0.103162 0.166735
Si Si3 0.192731 0.774697 0.441109
Si Si4 0.712190 0.877313 0.165600
Si Si5 0.142747 0.171240 0.332165
O O1 0.871014 0.819242 0.479953
O O2 0.905251 0.871118 0.607399
O O3 0.000000 0.858317 0.510035
O O4 0.914311 0.000000 0.500000
O O5 0.313508 0.127889 0.250000
O O6 0.323111 0.178294 0.107367
O O7 0.215099 0.118048 0.162186
O O8 0.312516 0.988650 0.152479
O O9 0.250000 0.750000 0.500000
O O10 0.226320 0.852731 0.386085
O O11 0.732234 0.871596 0.250000
O O12 0.659588 0.788023 0.154585
O O13 0.119063 0.159744 0.250000
#
# Coordination Sequence:
#
# PCOD9475399 Si02
#       5
#    16  16  16  16  16
#     4  11  23  37  51  75 111 142 171 213 259 309
#     4   9  17  30  51  79 105 129 167 219 266 306
#     4  11  19  30  52  78 105 138 170 215 260 307
#     4   9  17  30  52  80 105 129 169 221 265 304
#     4   9  17  33  52  75 102 135 173 213 259 306
#
# _framework density 15.96763
#
# number of rings (size 3 to 8) (size 9 to 14) (size 15 to 20)
#    0.000    2.200    4.000    3.000    0.000    0.400 
#    0.000    1.000    0.000    7.200    0.000    2.800 
#    0.000    0.000    0.000    0.000    0.000    0.000 
#
# Total GULP energy -222927.470308 kJ/mol
# GULP energy per Si atom -5573.186758 kJ/mol
# Density = 1.593129 g / cm^3
# Si number density = 15.967630 Si / 1000 Ang^3
#
#
#
# Elastic Constant Matrix: (Units=GPa)
#
#
# Indices 1 2 3 4 5 6 
#
# 1 84.0213 41.0511 54.5716 0.0000 0.0000 0.0000
# 2 41.0511 93.8655 59.1976 0.0000 0.0000 0.0000
# 3 54.5716 59.1976 113.7879 0.0000 0.0000 0.0000
# 4 0.0000 0.0000 0.0000 24.1843 0.0000 0.0000
# 5 0.0000 0.0000 0.0000 0.0000 14.0910 0.0000
# 6 0.0000 0.0000 0.0000 0.0000 0.0000 17.1733
#
#
#
# Elastic Compliance Matrix: (Units=1/GPa)
#
#
# Indices 1 2 3 4 5 6 
#
# 1 0.018081 -0.003630 -0.006783 0.000000 0.000000 0.000000
# 2 -0.003630 0.016584 -0.006887 0.000000 0.000000 0.000000
# 3 -0.006783 -0.006887 0.015624 0.000000 0.000000 0.000000
# 4 0.000000 0.000000 0.000000 0.041349 0.000000 0.000000
# 5 0.000000 0.000000 0.000000 0.000000 0.070967 0.000000
# 6 0.000000 0.000000 0.000000 0.000000 0.000000 0.058230
#
#
# Mechanical properties :
#
#
# Convention : Reuss Voigt Hill
#
# Bulk Modulus (GPa) = 63.73582 66.81282 65.27432
# Shear Modulus (GPa) = 19.18169 20.21337 19.69753
#
# Velocity S-wave (km/s) = 3.46972 3.56180 3.51606
# Velocity P-wave (km/s) = 7.48694 7.67129 7.57968
#
# Compressibility (1/GPa) = 0.01568976
#
# Stress axis : x y z
#
# Youngs Moduli (GPa) = 55.30782 60.29749 64.00238
#
# Poissons Ratio (x) = 0.21885 0.43413
# Poissons Ratio (y) = 0.20074 0.44080
# Poissons Ratio (z) = 0.37515 0.41528
#
# Static dielectric constant tensor:
#      x y z
#    x 1.497470 0.000000 0.000000 
#    y 0.000000 1.554100 0.000000 
#    z 0.000000 0.000000 1.555380 
# 
# From -- ./inp_files/45432.got.cif
#   From: 2010.05.17/outbox.cif.g08.bks.cpg/sg63_23_cif.got.tgz:45432.got - 2010.06.03 15:47:04.
