data_PCOD9475263
_publ_section_title
;
Structure prediction by ZEFSAII (Michael W. Deem and Ramdas Pophale) SiO2 
 PCOD9475263
Probable space group: C M C M
;
_chemical_formula_sum "Si O2"
_cell_formula_units_Z 48
_cell_length_a 18.087657
_cell_length_b 7.506077
_cell_length_c 15.810989
_cell_angle_alpha 90.000000
_cell_angle_beta 90.000000
_cell_angle_gamma 90.000000
_cell_volume 2146.616017
_symmetry_space_group_name_H-M "C M C M"
_symmetry_group_IT_number 63
_symmetry_cell_setting 'orthorhombic'
loop_
_space_group_symop_operation_xyz
x,y,z
-x,-y,1/2+z
x,-y,-z
-x,y,1/2-z
-x,-y,-z
x,y,1/2-z
-x,y,z
x,-y,1/2+z
1/2+x,1/2+y,z
1/2-x,1/2-y,1/2+z
1/2+x,1/2-y,-z
1/2-x,1/2+y,1/2-z
1/2-x,1/2-y,-z
1/2+x,1/2+y,1/2-z
1/2-x,1/2+y,z
1/2+x,1/2-y,1/2+z
loop_
_atom_site_type_symbol
_atom_site_label
_atom_site_fract_x
_atom_site_fract_y
_atom_site_fract_z
Si Si1 0.345654 0.619231 0.344912
Si Si2 0.415394 0.020854 0.647915
Si Si3 0.702249 0.253660 0.414437
O O1 0.365869 0.564136 0.250000
O O2 0.401461 0.772194 0.374360
O O3 0.335664 0.443307 0.399891
O O4 0.265915 0.716832 0.345405
O O5 0.401712 0.004883 0.750000
O O6 0.500000 0.970609 0.631926
O O7 0.358303 0.899080 0.597152
O O8 0.750000 0.250000 0.500000
#
# Coordination Sequence:
#
# PCOD9475263 Si02
#       3
#    16  16  16
#     4  11  22  39  67  97 127 176 234 282 331 406
#     4  10  23  43  68 101 139 180 232 292 348 407
#     4  12  24  39  66 101 136 177 224 283 344 410
#
# _framework density 22.360778
#
# number of rings (size 3 to 8) (size 9 to 14) (size 15 to 20)
#    0.000    1.000    3.333    4.000    0.000    1.333 
#    0.000    6.667    0.000    4.000    0.000    0.000 
#    0.000    0.000    0.000    0.000    0.000    0.000 
#
# Total GULP energy -134272.565740 kJ/mol
# GULP energy per Si atom -5594.690239 kJ/mol
# Density = 2.230988 g / cm^3
# Si number density = 22.360778 Si / 1000 Ang^3
#
#
#
# Elastic Constant Matrix: (Units=GPa)
#
#
# Indices 1 2 3 4 5 6 
#
# 1 106.5396 40.2764 35.8815 0.0000 0.0000 0.0000
# 2 40.2764 146.4127 65.5043 0.0000 0.0000 0.0000
# 3 35.8815 65.5043 101.8770 0.0000 0.0000 0.0000
# 4 0.0000 0.0000 0.0000 31.8797 0.0000 0.0000
# 5 0.0000 0.0000 0.0000 0.0000 24.6019 0.0000
# 6 0.0000 0.0000 0.0000 0.0000 0.0000 34.0507
#
#
#
# Elastic Compliance Matrix: (Units=1/GPa)
#
#
# Indices 1 2 3 4 5 6 
#
# 1 0.010981 -0.001812 -0.002703 0.000000 0.000000 0.000000
# 2 -0.001812 0.009887 -0.005719 0.000000 0.000000 0.000000
# 3 -0.002703 -0.005719 0.014445 0.000000 0.000000 0.000000
# 4 0.000000 0.000000 0.000000 0.031368 0.000000 0.000000
# 5 0.000000 0.000000 0.000000 0.000000 0.040647 0.000000
# 6 0.000000 0.000000 0.000000 0.000000 0.000000 0.029368
#
#
# Mechanical properties :
#
#
# Convention : Reuss Voigt Hill
#
# Bulk Modulus (GPa) = 67.35698 70.90595 69.13146
# Shear Modulus (GPa) = 30.84281 32.31758 31.58019
#
# Velocity S-wave (km/s) = 3.71796 3.80581 3.76214
# Velocity P-wave (km/s) = 6.97274 7.14780 7.06081
#
# Compressibility (1/GPa) = 0.01484627
#
# Stress axis : x y z
#
# Youngs Moduli (GPa) = 91.06358 101.14254 69.22838
#
# Poissons Ratio (x) = 0.18323 0.18712
# Poissons Ratio (y) = 0.16497 0.39592
# Poissons Ratio (z) = 0.24613 0.57844
#
# Static dielectric constant tensor:
#      x y z
#    x 1.778000 0.000000 0.000000 
#    y 0.000000 1.832700 0.000000 
#    z 0.000000 0.000000 1.917530 
# 
# From -- ./inp_files/33061.got.cif
#   From: 2010.05.17/outbox.cif.g08.bks.cpg/sg63_17_cif.got.tgz:33061.got - 2010.06.03 15:47:04.
