data_PCOD9475512
_publ_section_title
;
Structure prediction by ZEFSAII (Michael W. Deem and Ramdas Pophale) SiO2 
 PCOD9475512
Probable space group: C M C M
;
_chemical_formula_sum "Si O2"
_cell_formula_units_Z 80
_cell_length_a 9.106673
_cell_length_b 28.013653
_cell_length_c 19.018406
_cell_angle_alpha 90.000000
_cell_angle_beta 90.000000
_cell_angle_gamma 90.000000
_cell_volume 4851.807947
_symmetry_space_group_name_H-M "C M C M"
_symmetry_group_IT_number 63
_symmetry_cell_setting 'orthorhombic'
loop_
_space_group_symop_operation_xyz
x,y,z
-x,-y,1/2+z
x,-y,-z
-x,y,1/2-z
-x,-y,-z
x,y,1/2-z
-x,y,z
x,-y,1/2+z
1/2+x,1/2+y,z
1/2-x,1/2-y,1/2+z
1/2+x,1/2-y,-z
1/2-x,1/2+y,1/2-z
1/2-x,1/2-y,-z
1/2+x,1/2+y,1/2-z
1/2-x,1/2+y,z
1/2+x,1/2-y,1/2+z
loop_
_atom_site_type_symbol
_atom_site_label
_atom_site_fract_x
_atom_site_fract_y
_atom_site_fract_z
Si Si1 0.167457 0.389659 0.527666
Si Si2 0.833699 0.565817 0.870418
Si Si3 0.668437 0.478026 0.579624
Si Si4 0.823311 0.330735 0.171793
Si Si5 0.823841 0.797763 0.029386
O O1 0.161941 0.414840 0.450851
O O2 0.237422 0.429697 0.577623
O O3 0.265467 0.342806 0.516214
O O4 0.000000 0.377434 0.546913
O O5 0.734219 0.519168 0.870966
O O6 0.784552 0.612867 0.829253
O O7 0.000000 0.553558 0.849446
O O8 0.672122 0.500000 0.500000
O O9 0.500000 0.467764 0.596263
O O10 0.795936 0.311450 0.250000
O O11 0.735755 0.306525 0.108601
O O12 0.000000 0.328172 0.157737
O O13 0.000000 0.795485 0.028023
O O14 0.750000 0.750000 0.000000
#
# Coordination Sequence:
#
# PCOD9475512 Si02
#       5
#    16  16  16  16  16
#     4   9  16  27  42  61  87 118 152 190 234 281
#     4   8  14  24  39  60  87 119 150 181 221 272
#     4   9  15  22  35  58  87 117 147 179 216 261
#     4   9  18  33  51  71  97 128 161 198 244 297
#     4  11  21  33  49  70  97 127 163 207 254 301
#
# _framework density 16.488697999999999
#
# number of rings (size 3 to 8) (size 9 to 14) (size 15 to 20)
#    0.000    2.800    0.000    4.200    0.000    7.600 
#    0.000    0.000    0.000    0.000    0.000    1.400 
#    0.000    8.000    0.000    0.000    0.000    0.000 
#
# Total GULP energy -222758.650364 kJ/mol
# GULP energy per Si atom -5568.966259 kJ/mol
# Density = 1.645117 g / cm^3
# Si number density = 16.488698 Si / 1000 Ang^3
#
#
#
# Elastic Constant Matrix: (Units=GPa)
#
#
# Indices 1 2 3 4 5 6 
#
# 1 131.4301 73.9869 41.0239 0.0000 0.0000 0.0000
# 2 73.9869 104.6581 38.7558 0.0000 0.0000 0.0000
# 3 41.0239 38.7558 46.6492 0.0000 0.0000 0.0000
# 4 0.0000 0.0000 0.0000 10.8558 0.0000 0.0000
# 5 0.0000 0.0000 0.0000 0.0000 10.7127 0.0000
# 6 0.0000 0.0000 0.0000 0.0000 0.0000 30.4502
#
#
#
# Elastic Compliance Matrix: (Units=1/GPa)
#
#
# Indices 1 2 3 4 5 6 
#
# 1 0.013628 -0.007505 -0.005750 0.000000 0.000000 0.000000
# 2 -0.007505 0.017934 -0.008299 0.000000 0.000000 0.000000
# 3 -0.005750 -0.008299 0.033388 0.000000 0.000000 0.000000
# 4 0.000000 0.000000 0.000000 0.092117 0.000000 0.000000
# 5 0.000000 0.000000 0.000000 0.000000 0.093347 0.000000
# 6 0.000000 0.000000 0.000000 0.000000 0.000000 0.032840
#
#
# Mechanical properties :
#
#
# Convention : Reuss Voigt Hill
#
# Bulk Modulus (GPa) = 45.78346 65.58564 55.68455
# Shear Modulus (GPa) = 14.98609 19.00180 16.99395
#
# Velocity S-wave (km/s) = 3.01802 3.39840 3.21384
# Velocity P-wave (km/s) = 6.32230 7.43380 6.90046
#
# Compressibility (1/GPa) = 0.02184195
#
# Stress axis : x y z
#
# Youngs Moduli (GPa) = 73.37735 55.76035 29.95117
#
# Poissons Ratio (x) = 0.41849 0.17221
# Poissons Ratio (y) = 0.55071 0.24857
# Poissons Ratio (z) = 0.42189 0.46277
#
# Static dielectric constant tensor:
#      x y z
#    x 1.557640 0.000000 0.000000 
#    y 0.000000 1.549280 0.000000 
#    z 0.000000 0.000000 1.575390 
# 
# From -- ./inp_files/51563.got.cif
#   From: 2010.05.17/outbox.cif.g08.bks.cpg/sg63_26_cif.got.tgz:51563.got - 2010.06.03 15:47:04.
