data_PCOD9475885
_publ_section_title
;
Structure prediction by ZEFSAII (Michael W. Deem and Ramdas Pophale) SiO2 
 PCOD9475885
Probable space group: C M C M
;
_chemical_formula_sum "Si O2"
_cell_formula_units_Z 72
_cell_length_a 23.562182
_cell_length_b 9.070834
_cell_length_c 18.333409
_cell_angle_alpha 90.000000
_cell_angle_beta 90.000000
_cell_angle_gamma 90.000000
_cell_volume 3918.374601
_symmetry_space_group_name_H-M "C M C M"
_symmetry_group_IT_number 63
_symmetry_cell_setting 'orthorhombic'
loop_
_space_group_symop_operation_xyz
x,y,z
-x,-y,1/2+z
x,-y,-z
-x,y,1/2-z
-x,-y,-z
x,y,1/2-z
-x,y,z
x,-y,1/2+z
1/2+x,1/2+y,z
1/2-x,1/2-y,1/2+z
1/2+x,1/2-y,-z
1/2-x,1/2+y,1/2-z
1/2-x,1/2-y,-z
1/2+x,1/2+y,1/2-z
1/2-x,1/2+y,z
1/2+x,1/2-y,1/2+z
loop_
_atom_site_type_symbol
_atom_site_label
_atom_site_fract_x
_atom_site_fract_y
_atom_site_fract_z
Si Si1 0.437030 0.753590 0.521699
Si Si2 0.563495 0.957930 0.379476
Si Si3 0.188860 0.539378 0.832961
Si Si4 0.238026 0.183510 0.080419
Si Si5 0.650154 0.500000 0.500000
O O1 0.500000 0.686819 0.526380
O O2 0.432233 0.836889 0.444049
O O3 0.389056 0.632230 0.527812
O O4 0.433843 0.883053 0.581031
O O5 0.500000 0.943532 0.346504
O O6 0.620703 0.945803 0.333868
O O7 0.208653 0.518449 0.750000
O O8 0.215415 0.686424 0.868446
O O9 0.209689 0.403439 0.883456
O O10 0.250000 0.250000 0.000000
O O11 0.189510 0.062733 0.064276
#
# Coordination Sequence:
#
# PCOD9475885 Si02
#       5
#    16  16  16  16   8
#     4   9  18  32  56  90 119 147 200 253 294 344
#     4   9  19  36  59  84 116 157 198 247 294 353
#     4  12  25  41  60  89 125 159 199 249 306 363
#     4  12  24  40  61  89 119 161 204 246 294 365
#     4  12  19  32  60  86 117 150 198 246 302 344
#
# _framework density 18.374966000000001
#
# number of rings (size 3 to 8) (size 9 to 14) (size 15 to 20)
#    0.000    1.333    4.444    3.667    3.111    0.444 
#    0.000    0.000    0.000    0.000    0.000    0.000 
#    0.000    0.000    0.000    0.000    0.000    0.000 
#
# Total GULP energy -200920.456323 kJ/mol
# GULP energy per Si atom -5581.123787 kJ/mol
# Density = 1.833314 g / cm^3
# Si number density = 18.374966 Si / 1000 Ang^3
#
#
#
# Elastic Constant Matrix: (Units=GPa)
#
#
# Indices 1 2 3 4 5 6 
#
# 1 118.3454 47.7412 26.2925 0.0000 0.0000 0.0000
# 2 47.7412 87.6736 27.3094 0.0000 0.0000 0.0000
# 3 26.2925 27.3094 77.7821 0.0000 0.0000 0.0000
# 4 0.0000 0.0000 0.0000 0.3285 0.0000 0.0000
# 5 0.0000 0.0000 0.0000 0.0000 13.3900 0.0000
# 6 0.0000 0.0000 0.0000 0.0000 0.0000 49.5406
#
#
#
# Elastic Compliance Matrix: (Units=1/GPa)
#
#
# Indices 1 2 3 4 5 6 
#
# 1 0.011054 -0.005452 -0.001822 0.000000 0.000000 0.000000
# 2 -0.005452 0.015495 -0.003598 0.000000 0.000000 0.000000
# 3 -0.001822 -0.003598 0.014736 0.000000 0.000000 0.000000
# 4 0.000000 0.000000 0.000000 3.044312 0.000000 0.000000
# 5 0.000000 0.000000 0.000000 0.000000 0.074682 0.000000
# 6 0.000000 0.000000 0.000000 0.000000 0.000000 0.020185
#
#
# Mechanical properties :
#
#
# Convention : Reuss Voigt Hill
#
# Bulk Modulus (GPa) = 51.17343 54.05417 52.61380
# Shear Modulus (GPa) = 1.55825 24.81568 13.18697
#
# Velocity S-wave (km/s) = 0.92188 3.67892 2.68182
# Velocity P-wave (km/s) = 5.38917 6.89399 6.18750
#
# Compressibility (1/GPa) = 0.01954139
#
# Stress axis : x y z
#
# Youngs Moduli (GPa) = 90.46559 64.53647 67.86282
#
# Poissons Ratio (x) = 0.35182 0.12368
# Poissons Ratio (y) = 0.49318 0.24414
# Poissons Ratio (z) = 0.16487 0.23218
#
# Static dielectric constant tensor:
#      x y z
#    x 1.674680 0.000000 0.000000 
#    y 0.000000 1.621000 0.000000 
#    z 0.000000 0.000000 1.609140 
# 
# From -- ./inp_files/47789.got.cif
#   From: 2010.05.17/outbox.cif.g08.bks.cpg/sg63_24_cif.got.tgz:47789.got - 2010.06.03 15:47:04.
