data_PCOD9475412
_publ_section_title
;
Structure prediction by ZEFSAII (Michael W. Deem and Ramdas Pophale) SiO2 
 PCOD9475412
Probable space group: C M C M
;
_chemical_formula_sum "Si O2"
_cell_formula_units_Z 56
_cell_length_a 13.268690
_cell_length_b 6.195588
_cell_length_c 26.161374
_cell_angle_alpha 90.000000
_cell_angle_beta 90.000000
_cell_angle_gamma 90.000000
_cell_volume 2150.656877
_symmetry_space_group_name_H-M "C M C M"
_symmetry_group_IT_number 63
_symmetry_cell_setting 'orthorhombic'
loop_
_space_group_symop_operation_xyz
x,y,z
-x,-y,1/2+z
x,-y,-z
-x,y,1/2-z
-x,-y,-z
x,y,1/2-z
-x,y,z
x,-y,1/2+z
1/2+x,1/2+y,z
1/2-x,1/2-y,1/2+z
1/2+x,1/2-y,-z
1/2-x,1/2+y,1/2-z
1/2-x,1/2-y,-z
1/2+x,1/2+y,1/2-z
1/2-x,1/2+y,z
1/2+x,1/2-y,1/2+z
loop_
_atom_site_type_symbol
_atom_site_label
_atom_site_fract_x
_atom_site_fract_y
_atom_site_fract_z
Si Si1 0.316670 0.524251 0.443915
Si Si2 0.000000 0.352022 0.049819
Si Si3 0.216408 0.473469 0.832761
Si Si4 0.500000 0.729994 0.590986
Si Si5 0.500000 0.820658 0.806421
O O1 0.267841 0.500000 0.500000
O O2 0.398332 0.715921 0.446477
O O3 0.249221 0.529655 0.393279
O O4 0.398428 0.334034 0.436992
O O5 0.000000 0.516458 0.095861
O O6 0.000000 0.500000 0.000000
O O7 0.247485 0.723123 0.816743
O O8 0.101823 0.453796 0.814584
O O9 0.500000 0.639683 0.648326
O O10 0.500000 0.724415 0.750000
#
# Coordination Sequence:
#
# PCOD9475412 Si02
#       5
#    16   8  16   8   8
#     4  11  23  40  76 121 170 220 266 330 410 499
#     4  11  19  37  79 120 168 227 272 324 403 504
#     4  12  29  55  85 125 169 212 282 343 416 503
#     4  11  20  47  73 117 160 208 277 335 398 495
#     4  12  29  57  89 118 162 219 282 363 429 487
#
# _framework density 26.038556
#
# number of rings (size 3 to 8) (size 9 to 14) (size 15 to 20)
#    0.000    0.571    5.714    2.571    0.000    4.571 
#    0.000    2.143    0.000    0.000    0.000    0.000 
#    0.000    0.000    0.000    0.000    0.000    0.000 
#
# Total GULP energy -156088.380355 kJ/mol
# GULP energy per Si atom -5574.585013 kJ/mol
# Density = 2.597929 g / cm^3
# Si number density = 26.038556 Si / 1000 Ang^3
#
#
#
# Elastic Constant Matrix: (Units=GPa)
#
#
# Indices 1 2 3 4 5 6 
#
# 1 128.1519 56.6220 21.9547 0.0000 0.0000 0.0000
# 2 56.6220 184.2600 2.9231 0.0000 0.0000 0.0000
# 3 21.9547 2.9231 121.4914 0.0000 0.0000 0.0000
# 4 0.0000 0.0000 0.0000 2.9215 0.0000 0.0000
# 5 0.0000 0.0000 0.0000 0.0000 11.7012 0.0000
# 6 0.0000 0.0000 0.0000 0.0000 0.0000 47.2204
#
#
#
# Elastic Compliance Matrix: (Units=1/GPa)
#
#
# Indices 1 2 3 4 5 6 
#
# 1 0.009337 -0.002844 -0.001619 0.000000 0.000000 0.000000
# 2 -0.002844 0.006295 0.000362 0.000000 0.000000 0.000000
# 3 -0.001619 0.000362 0.008515 0.000000 0.000000 0.000000
# 4 0.000000 0.000000 0.000000 0.342285 0.000000 0.000000
# 5 0.000000 0.000000 0.000000 0.000000 0.085461 0.000000
# 6 0.000000 0.000000 0.000000 0.000000 0.000000 0.021177
#
#
# Mechanical properties :
#
#
# Convention : Reuss Voigt Hill
#
# Bulk Modulus (GPa) = 62.70772 66.32254 64.51513
# Shear Modulus (GPa) = 10.27568 35.86221 23.06895
#
# Velocity S-wave (km/s) = 1.98869 3.71519 2.97973
# Velocity P-wave (km/s) = 5.42293 6.62795 6.05549
#
# Compressibility (1/GPa) = 0.01594700
#
# Stress axis : x y z
#
# Youngs Moduli (GPa) = 107.10147 158.85233 117.44176
#
# Poissons Ratio (x) = 0.45170 0.19012
# Poissons Ratio (y) = 0.30454 -0.04256
# Poissons Ratio (z) = 0.17338 -0.05757
#
# Static dielectric constant tensor:
#      x y z
#    x 2.018830 0.000000 0.000000 
#    y 0.000000 2.228010 0.000000 
#    z 0.000000 0.000000 2.340460 
# 
# From -- ./inp_files/73173.got.cif
#   From: 2010.05.17/outbox.cif.g08.bks.cpg/sg63_37_cif.got.tgz:73173.got - 2010.06.03 15:47:04.
