data_PCOD9475766
_publ_section_title
;
Structure prediction by ZEFSAII (Michael W. Deem and Ramdas Pophale) SiO2 
 PCOD9475766
Probable space group: C M C M
;
_chemical_formula_sum "Si O2"
_cell_formula_units_Z 72
_cell_length_a 7.938453
_cell_length_b 15.407069
_cell_length_c 24.947826
_cell_angle_alpha 90.000000
_cell_angle_beta 90.000000
_cell_angle_gamma 90.000000
_cell_volume 3051.326015
_symmetry_space_group_name_H-M "C M C M"
_symmetry_group_IT_number 63
_symmetry_cell_setting 'orthorhombic'
loop_
_space_group_symop_operation_xyz
x,y,z
-x,-y,1/2+z
x,-y,-z
-x,y,1/2-z
-x,-y,-z
x,y,1/2-z
-x,y,z
x,-y,1/2+z
1/2+x,1/2+y,z
1/2-x,1/2-y,1/2+z
1/2+x,1/2-y,-z
1/2-x,1/2+y,1/2-z
1/2-x,1/2-y,-z
1/2+x,1/2+y,1/2-z
1/2-x,1/2+y,z
1/2+x,1/2-y,1/2+z
loop_
_atom_site_type_symbol
_atom_site_label
_atom_site_fract_x
_atom_site_fract_y
_atom_site_fract_z
Si Si1 0.700962 0.720332 0.671782
Si Si2 0.700128 0.789614 0.943145
Si Si3 0.202425 0.124546 0.250000
Si Si4 0.193437 0.527341 0.826030
Si Si5 0.806966 0.981455 0.940948
O O1 0.500000 0.730437 0.680659
O O2 0.734001 0.729863 0.608295
O O3 0.785891 0.798733 0.703844
O O4 0.756370 0.624739 0.689097
O O5 0.500000 0.808379 0.943046
O O6 0.799051 0.878432 0.934980
O O7 0.750000 0.750000 0.000000
O O8 0.203679 0.047746 0.296312
O O9 0.214380 0.519933 0.889887
O O10 0.000000 0.509312 0.811561
O O11 0.000000 0.014104 0.940074
O O12 0.735184 0.000000 0.000000
#
# Coordination Sequence:
#
# PCOD9475766 Si02
#       5
#    16  16   8  16  16
#     4  11  24  45  70  98 137 185 227 276 345 414
#     4  11  23  41  68  99 137 183 230 285 349 414
#     4  12  25  48  73  98 143 188 229 282 347 416
#     4  12  25  44  71 104 139 181 232 289 345 410
#     4  11  24  43  67  98 138 182 231 287 349 416
#
# _framework density 23.596298000000001
#
# number of rings (size 3 to 8) (size 9 to 14) (size 15 to 20)
#    0.000    0.667    2.222    6.000    0.000    8.889 
#    0.000    3.889    0.000    0.000    0.000    0.000 
#    0.000    0.000    0.000    0.000    0.000    0.000 
#
# Total GULP energy -200575.550995 kJ/mol
# GULP energy per Si atom -5571.543083 kJ/mol
# Density = 2.354259 g / cm^3
# Si number density = 23.596298 Si / 1000 Ang^3
#
#
#
# Elastic Constant Matrix: (Units=GPa)
#
#
# Indices 1 2 3 4 5 6 
#
# 1 61.8685 8.0478 27.5525 0.0000 0.0000 0.0000
# 2 8.0478 189.8667 52.7923 0.0000 0.0000 0.0000
# 3 27.5525 52.7923 207.2177 0.0000 0.0000 0.0000
# 4 0.0000 0.0000 0.0000 54.7228 0.0000 0.0000
# 5 0.0000 0.0000 0.0000 0.0000 14.9509 0.0000
# 6 0.0000 0.0000 0.0000 0.0000 0.0000 6.4049
#
#
#
# Elastic Compliance Matrix: (Units=1/GPa)
#
#
# Indices 1 2 3 4 5 6 
#
# 1 0.017182 -0.000100 -0.002259 0.000000 0.000000 0.000000
# 2 -0.000100 0.005669 -0.001431 0.000000 0.000000 0.000000
# 3 -0.002259 -0.001431 0.005491 0.000000 0.000000 0.000000
# 4 0.000000 0.000000 0.000000 0.018274 0.000000 0.000000
# 5 0.000000 0.000000 0.000000 0.000000 0.066886 0.000000
# 6 0.000000 0.000000 0.000000 0.000000 0.000000 0.156130
#
#
# Mechanical properties :
#
#
# Convention : Reuss Voigt Hill
#
# Bulk Modulus (GPa) = 48.16559 70.63759 59.40159
# Shear Modulus (GPa) = 17.59744 39.91975 28.75859
#
# Velocity S-wave (km/s) = 2.73384 4.11759 3.49488
# Velocity P-wave (km/s) = 5.51560 7.25306 6.44317
#
# Compressibility (1/GPa) = 0.02076171
#
# Stress axis : x y z
#
# Youngs Moduli (GPa) = 58.19898 176.39879 182.12329
#
# Poissons Ratio (x) = 0.01767 0.41144
# Poissons Ratio (y) = 0.00583 0.26061
# Poissons Ratio (z) = 0.13148 0.25242
#
# Static dielectric constant tensor:
#      x y z
#    x 1.937620 0.000000 0.000000 
#    y 0.000000 1.830160 0.000000 
#    z 0.000000 0.000000 1.885740 
# 
# From -- ./inp_files/66309.got.cif
#   From: 2010.05.17/outbox.cif.g08.bks.cpg/sg63_34_cif.got.tgz:66309.got - 2010.06.03 15:47:04.
