data_PCOD9475496
_publ_section_title
;
Structure prediction by ZEFSAII (Michael W. Deem and Ramdas Pophale) SiO2 
 PCOD9475496
Probable space group: C M C M
;
_chemical_formula_sum "Si O2"
_cell_formula_units_Z 80
_cell_length_a 28.340823
_cell_length_b 18.674055
_cell_length_c 7.859434
_cell_angle_alpha 90.000000
_cell_angle_beta 90.000000
_cell_angle_gamma 90.000000
_cell_volume 4159.511819
_symmetry_space_group_name_H-M "C M C M"
_symmetry_group_IT_number 63
_symmetry_cell_setting 'orthorhombic'
loop_
_space_group_symop_operation_xyz
x,y,z
-x,-y,1/2+z
x,-y,-z
-x,y,1/2-z
-x,-y,-z
x,y,1/2-z
-x,y,z
x,-y,1/2+z
1/2+x,1/2+y,z
1/2-x,1/2-y,1/2+z
1/2+x,1/2-y,-z
1/2-x,1/2+y,1/2-z
1/2-x,1/2-y,-z
1/2+x,1/2+y,1/2-z
1/2-x,1/2+y,z
1/2+x,1/2-y,1/2+z
loop_
_atom_site_type_symbol
_atom_site_label
_atom_site_fract_x
_atom_site_fract_y
_atom_site_fract_z
Si Si1 0.551336 0.768228 0.457855
Si Si2 0.186531 0.628502 0.954948
Si Si3 0.914451 0.422325 0.046022
Si Si4 0.152686 0.783819 0.541632
Si Si5 0.790359 0.080226 0.450525
O O1 0.551588 0.767347 0.250000
O O2 0.500000 0.741993 0.514260
O O3 0.558337 0.851184 0.511310
O O4 0.598213 0.725991 0.511841
O O5 0.185411 0.627715 0.750000
O O6 0.139725 0.586962 0.016155
O O7 0.180320 0.711363 0.009658
O O8 0.235658 0.594875 0.008589
O O9 0.913575 0.418644 0.250000
O O10 0.933545 0.500000 0.000000
O O11 0.152857 0.784100 0.750000
O O12 0.178008 0.855161 0.476688
O O13 0.795478 0.084786 0.250000
O O14 0.803795 0.000000 0.500000
#
# Coordination Sequence:
#
# PCOD9475496 Si02
#       5
#    16  16  16  16  16
#     4   8  14  27  47  67  85 110 147 187 224 261
#     4   9  17  31  48  66  91 121 153 185 217 256
#     4   9  17  27  41  64  93 121 147 178 214 254
#     4   8  16  30  47  67  90 116 148 187 224 262
#     4  11  21  31  45  67  94 121 150 183 222 266
#
# _framework density 19.233027
#
# number of rings (size 3 to 8) (size 9 to 14) (size 15 to 20)
#    0.000    3.000    0.000    4.200    0.000    2.800 
#    0.000    1.000    0.000    3.000    0.000    0.000 
#    0.000    0.000    0.000    0.000    0.000    0.200 
#
# Total GULP energy -223034.631374 kJ/mol
# GULP energy per Si atom -5575.865784 kJ/mol
# Density = 1.918925 g / cm^3
# Si number density = 19.233027 Si / 1000 Ang^3
#
#
#
# Elastic Constant Matrix: (Units=GPa)
#
#
# Indices 1 2 3 4 5 6 
#
# 1 65.9236 20.5754 -1.3755 0.0000 0.0000 0.0000
# 2 20.5754 76.6563 3.0135 0.0000 0.0000 0.0000
# 3 -1.3755 3.0135 17.8344 0.0000 0.0000 0.0000
# 4 0.0000 0.0000 0.0000 17.9121 0.0000 0.0000
# 5 0.0000 0.0000 0.0000 0.0000 6.7574 0.0000
# 6 0.0000 0.0000 0.0000 0.0000 0.0000 4.6123
#
#
#
# Elastic Compliance Matrix: (Units=1/GPa)
#
#
# Indices 1 2 3 4 5 6 
#
# 1 0.016630 -0.004544 0.002051 0.000000 0.000000 0.000000
# 2 -0.004544 0.014374 -0.002779 0.000000 0.000000 0.000000
# 3 0.002051 -0.002779 0.056699 0.000000 0.000000 0.000000
# 4 0.000000 0.000000 0.000000 0.055828 0.000000 0.000000
# 5 0.000000 0.000000 0.000000 0.000000 0.147985 0.000000
# 6 0.000000 0.000000 0.000000 0.000000 0.000000 0.216812
#
#
# Mechanical properties :
#
#
# Convention : Reuss Voigt Hill
#
# Bulk Modulus (GPa) = 12.96051 22.76010 17.86031
# Shear Modulus (GPa) = 9.18114 15.06976 12.12545
#
# Velocity S-wave (km/s) = 2.18724 2.80221 2.51360
# Velocity P-wave (km/s) = 3.62381 4.72540 4.21078
#
# Compressibility (1/GPa) = 0.07715746
#
# Stress axis : x y z
#
# Youngs Moduli (GPa) = 60.13159 69.56885 17.63692
#
# Poissons Ratio (x) = 0.31614 -0.03616
# Poissons Ratio (y) = 0.27326 0.04902
# Poissons Ratio (z) = -0.12330 0.19335
#
# Static dielectric constant tensor:
#      x y z
#    x 1.687750 0.000000 0.000000 
#    y 0.000000 1.604930 0.000000 
#    z 0.000000 0.000000 1.703120 
# 
# From -- ./inp_files/11990.got.cif
#   From: 2010.05.17/outbox.cif.g08.bks.cpg/sg63_6_cif.got.tgz:11990.got - 2010.06.03 15:47:04.
