data_PCOD9475854
_publ_section_title
;
Structure prediction by ZEFSAII (Michael W. Deem and Ramdas Pophale) SiO2 
 PCOD9475854
Probable space group: C M C M
;
_chemical_formula_sum "Si O2"
_cell_formula_units_Z 80
_cell_length_a 29.432633
_cell_length_b 9.406722
_cell_length_c 14.027295
_cell_angle_alpha 90.000000
_cell_angle_beta 90.000000
_cell_angle_gamma 90.000000
_cell_volume 3883.661368
_symmetry_space_group_name_H-M "C M C M"
_symmetry_group_IT_number 63
_symmetry_cell_setting 'orthorhombic'
loop_
_space_group_symop_operation_xyz
x,y,z
-x,-y,1/2+z
x,-y,-z
-x,y,1/2-z
-x,-y,-z
x,y,1/2-z
-x,y,z
x,-y,1/2+z
1/2+x,1/2+y,z
1/2-x,1/2-y,1/2+z
1/2+x,1/2-y,-z
1/2-x,1/2+y,1/2-z
1/2-x,1/2-y,-z
1/2+x,1/2+y,1/2-z
1/2-x,1/2+y,z
1/2+x,1/2-y,1/2+z
loop_
_atom_site_type_symbol
_atom_site_label
_atom_site_fract_x
_atom_site_fract_y
_atom_site_fract_z
Si Si1 0.448879 0.166105 0.478467
Si Si2 0.721175 0.422804 0.133214
Si Si3 0.877357 0.842666 0.363654
Si Si4 0.904464 0.169746 0.136967
Si Si5 0.195802 0.239697 0.133888
O O1 0.500000 0.184605 0.440007
O O2 0.410492 0.229199 0.409925
O O3 0.443045 0.258489 0.574622
O O4 0.442125 0.000000 0.500000
O O5 0.721384 0.421754 0.250000
O O6 0.675431 0.338318 0.104884
O O7 0.768430 0.356322 0.100813
O O8 0.713933 0.585102 0.103967
O O9 0.877636 0.826150 0.250000
O O10 0.895597 0.002918 0.383795
O O11 0.911847 0.183091 0.250000
O O12 0.857181 0.248753 0.109862
O O13 0.196489 0.240228 0.250000
#
# Coordination Sequence:
#
# PCOD9475854 Si02
#       5
#    16  16  16  16  16
#     4  11  25  41  56  79 110 141 178 229 284 333
#     4   8  14  26  47  77 110 141 174 213 258 310
#     4   9  19  37  60  84 110 143 184 226 267 318
#     4   9  19  37  60  84 110 143 184 226 267 318
#     4   8  14  26  47  77 110 141 174 213 258 310
#
# _framework density 20.599119000000002
#
# number of rings (size 3 to 8) (size 9 to 14) (size 15 to 20)
#    0.000    3.000    0.000    3.000    0.000    4.800 
#    0.000    9.000    0.000    0.000    0.000    0.000 
#    0.000    0.000    0.000    0.000    0.000    0.000 
#
# Total GULP energy -223346.496841 kJ/mol
# GULP energy per Si atom -5583.662421 kJ/mol
# Density = 2.055223 g / cm^3
# Si number density = 20.599119 Si / 1000 Ang^3
#
#
#
# Elastic Constant Matrix: (Units=GPa)
#
#
# Indices 1 2 3 4 5 6 
#
# 1 74.6382 28.5434 4.8922 0.0000 0.0000 0.0000
# 2 28.5434 27.5600 -0.0172 0.0000 0.0000 0.0000
# 3 4.8922 -0.0172 55.1009 0.0000 0.0000 0.0000
# 4 0.0000 0.0000 0.0000 22.4670 0.0000 0.0000
# 5 0.0000 0.0000 0.0000 0.0000 29.2695 0.0000
# 6 0.0000 0.0000 0.0000 0.0000 0.0000 32.9581
#
#
#
# Elastic Compliance Matrix: (Units=1/GPa)
#
#
# Indices 1 2 3 4 5 6 
#
# 1 0.022402 -0.023203 -0.001996 0.000000 0.000000 0.000000
# 2 -0.023203 0.060316 0.002079 0.000000 0.000000 0.000000
# 3 -0.001996 0.002079 0.018326 0.000000 0.000000 0.000000
# 4 0.000000 0.000000 0.000000 0.044510 0.000000 0.000000
# 5 0.000000 0.000000 0.000000 0.000000 0.034165 0.000000
# 6 0.000000 0.000000 0.000000 0.000000 0.000000 0.030342
#
#
# Mechanical properties :
#
#
# Convention : Reuss Voigt Hill
#
# Bulk Modulus (GPa) = 18.24660 24.90401 21.57531
# Shear Modulus (GPa) = 18.21034 25.19765 21.70400
#
# Velocity S-wave (km/s) = 2.97650 3.50128 3.24950
# Velocity P-wave (km/s) = 4.54862 5.33492 4.95738
#
# Compressibility (1/GPa) = 0.05480473
#
# Stress axis : x y z
#
# Youngs Moduli (GPa) = 44.63878 16.57928 54.56605
#
# Poissons Ratio (x) = 0.38468 0.10893
# Poissons Ratio (y) = 1.03574 -0.11344
# Poissons Ratio (z) = 0.08911 -0.03447
#
# Static dielectric constant tensor:
#      x y z
#    x 1.708320 0.000000 0.000000 
#    y 0.000000 1.692740 0.000000 
#    z 0.000000 0.000000 1.793220 
# 
# From -- ./inp_files/48789.got.cif
#   From: 2010.05.17/outbox.cif.g08.bks.cpg/sg63_25_cif.got.tgz:48789.got - 2010.06.03 15:47:04.
