data_PCOD9475212
_publ_section_title
;
Structure prediction by ZEFSAII (Michael W. Deem and Ramdas Pophale) SiO2 
 PCOD9475212
Probable space group: C M C M
;
_chemical_formula_sum "Si O2"
_cell_formula_units_Z 68
_cell_length_a 23.092156
_cell_length_b 7.099923
_cell_length_c 18.209944
_cell_angle_alpha 90.000000
_cell_angle_beta 90.000000
_cell_angle_gamma 90.000000
_cell_volume 2985.566381
_symmetry_space_group_name_H-M "C M C M"
_symmetry_group_IT_number 63
_symmetry_cell_setting 'orthorhombic'
loop_
_space_group_symop_operation_xyz
x,y,z
-x,-y,1/2+z
x,-y,-z
-x,y,1/2-z
-x,-y,-z
x,y,1/2-z
-x,y,z
x,-y,1/2+z
1/2+x,1/2+y,z
1/2-x,1/2-y,1/2+z
1/2+x,1/2-y,-z
1/2-x,1/2+y,1/2-z
1/2-x,1/2-y,-z
1/2+x,1/2+y,1/2-z
1/2-x,1/2+y,z
1/2+x,1/2-y,1/2+z
loop_
_atom_site_type_symbol
_atom_site_label
_atom_site_fract_x
_atom_site_fract_y
_atom_site_fract_z
Si Si1 0.298915 0.907815 0.330382
Si Si2 0.641220 0.786677 0.024476
Si Si3 0.171484 0.172292 0.633286
Si Si4 0.000000 0.265577 0.250000
Si Si5 0.562823 0.421312 0.875640
O O1 0.311290 0.826883 0.250000
O O2 0.321002 0.794928 0.401320
O O3 0.229698 0.924912 0.338835
O O4 0.326382 0.115474 0.336456
O O5 0.584373 0.676745 0.050181
O O6 0.672177 0.690730 0.955508
O O7 0.628769 0.000000 0.000000
O O8 0.112278 0.064291 0.650495
O O9 0.950272 0.238228 0.314796
O O10 0.500000 0.518293 0.883177
#
# Coordination Sequence:
#
# PCOD9475212 Si02
#       5
#    16  16  16   4  16
#     4  11  24  37  65  93 130 167 209 264 318 373
#     4  10  23  42  63  95 130 164 207 258 315 381
#     4  11  23  41  63  94 129 167 212 259 316 377
#     4   8  24  40  64  94 126 160 212 262 304 376
#     4  10  23  41  68  88 123 165 210 255 311 369
#
# _framework density 22.776247000000001
#
# number of rings (size 3 to 8) (size 9 to 14) (size 15 to 20)
#    0.706    0.941    0.000    3.529    4.941    6.118 
#    0.000    3.529    0.000    7.059    0.000    0.000 
#    0.000    0.000    0.000    0.000    0.000    0.000 
#
# Total GULP energy -189429.155354 kJ/mol
# GULP energy per Si atom -5571.445746 kJ/mol
# Density = 2.272441 g / cm^3
# Si number density = 22.776247 Si / 1000 Ang^3
#
#
#
# Elastic Constant Matrix: (Units=GPa)
#
#
# Indices 1 2 3 4 5 6 
#
# 1 130.1578 8.7339 21.1455 0.0000 0.0000 0.0000
# 2 8.7339 30.4639 3.2566 0.0000 0.0000 0.0000
# 3 21.1455 3.2566 162.1327 0.0000 0.0000 0.0000
# 4 0.0000 0.0000 0.0000 15.6982 0.0000 0.0000
# 5 0.0000 0.0000 0.0000 0.0000 128.2016 0.0000
# 6 0.0000 0.0000 0.0000 0.0000 0.0000 6.1723
#
#
#
# Elastic Compliance Matrix: (Units=1/GPa)
#
#
# Indices 1 2 3 4 5 6 
#
# 1 0.007992 -0.002184 -0.000998 0.000000 0.000000 0.000000
# 2 -0.002184 0.033493 -0.000388 0.000000 0.000000 0.000000
# 3 -0.000998 -0.000388 0.006306 0.000000 0.000000 0.000000
# 4 0.000000 0.000000 0.000000 0.063702 0.000000 0.000000
# 5 0.000000 0.000000 0.000000 0.000000 0.007800 0.000000
# 6 0.000000 0.000000 0.000000 0.000000 0.000000 0.162014
#
#
# Mechanical properties :
#
#
# Convention : Reuss Voigt Hill
#
# Bulk Modulus (GPa) = 24.60051 43.22515 33.91283
# Shear Modulus (GPa) = 16.55641 49.32231 32.93936
#
# Velocity S-wave (km/s) = 2.69906 4.65856 3.80704
# Velocity P-wave (km/s) = 4.53185 6.92500 5.85206
#
# Compressibility (1/GPa) = 0.04064956
#
# Stress axis : x y z
#
# Youngs Moduli (GPa) = 125.12881 29.85655 158.58436
#
# Poissons Ratio (x) = 0.06522 0.15833
# Poissons Ratio (y) = 0.27334 0.06151
# Poissons Ratio (z) = 0.12493 0.01158
#
# Static dielectric constant tensor:
#      x y z
#    x 1.865670 0.000000 0.000000 
#    y 0.000000 1.909660 0.000000 
#    z 0.000000 0.000000 1.855220 
# 
# From -- ./inp_files/46634.got.cif
#   From: 2010.05.17/outbox.cif.g08.bks.cpg/sg63_24_cif.got.tgz:46634.got - 2010.06.03 15:47:04.
