data_PCOD9475440
_publ_section_title
;
Structure prediction by ZEFSAII (Michael W. Deem and Ramdas Pophale) SiO2 
 PCOD9475440
Probable space group: C M C M
;
_chemical_formula_sum "Si O2"
_cell_formula_units_Z 96
_cell_length_a 12.151126
_cell_length_b 25.824413
_cell_length_c 17.792496
_cell_angle_alpha 90.000000
_cell_angle_beta 90.000000
_cell_angle_gamma 90.000000
_cell_volume 5583.208670
_symmetry_space_group_name_H-M "C M C M"
_symmetry_group_IT_number 63
_symmetry_cell_setting 'orthorhombic'
loop_
_space_group_symop_operation_xyz
x,y,z
-x,-y,1/2+z
x,-y,-z
-x,y,1/2-z
-x,-y,-z
x,y,1/2-z
-x,y,z
x,-y,1/2+z
1/2+x,1/2+y,z
1/2-x,1/2-y,1/2+z
1/2+x,1/2-y,-z
1/2-x,1/2+y,1/2-z
1/2-x,1/2-y,-z
1/2+x,1/2+y,1/2-z
1/2-x,1/2+y,z
1/2+x,1/2-y,1/2+z
loop_
_atom_site_type_symbol
_atom_site_label
_atom_site_fract_x
_atom_site_fract_y
_atom_site_fract_z
Si Si1 0.000000 0.082302 0.163195
Si Si2 0.630920 0.810974 0.839021
Si Si3 0.217255 0.908202 0.408591
Si Si4 0.731449 0.401352 0.588151
Si Si5 0.125722 0.499058 0.408448
Si Si6 0.500000 0.457923 0.162224
Si Si7 0.872144 0.808353 0.340294
O O1 0.111018 0.100804 0.123815
O O2 0.000000 0.098060 0.250000
O O3 0.000000 0.019844 0.159444
O O4 0.654734 0.817589 0.750000
O O5 0.500000 0.818984 0.848864
O O6 0.698651 0.851842 0.886840
O O7 0.654293 0.751136 0.859435
O O8 0.219123 0.904961 0.498528
O O9 0.318911 0.944824 0.385190
O O10 0.208004 0.850696 0.375495
O O11 0.107826 0.936758 0.378933
O O12 0.797165 0.452904 0.614744
O O13 0.124147 0.500000 0.500000
O O14 0.000000 0.504711 0.382486
O O15 0.500000 0.441406 0.250000
O O16 0.869108 0.812500 0.250000
O O17 0.000000 0.818614 0.363136
#
# Coordination Sequence:
#
# PCOD9475440 Si02
#       7
#     8  16  16  16  16   8  16
#     4  11  23  35  51  77 111 147 183 218 271 332
#     4   9  19  37  59  80 105 143 188 230 272 320
#     4  11  20  32  57  84 110 141 177 227 277 323
#     4  11  21  34  55  80 113 142 179 229 274 325
#     4   9  19  34  51  76 110 145 173 209 269 328
#     4  11  21  35  55  81 113 145 181 224 275 332
#     4   9  18  34  57  82 107 140 184 230 273 320
#
# _framework density 17.194413000000001
#
# number of rings (size 3 to 8) (size 9 to 14) (size 15 to 20)
#    0.000    2.000    2.500    3.000    0.000    2.000 
#    0.000    0.000    1.833    5.000    0.000    0.000 
#    0.000    0.000    0.000    0.000    0.000    0.000 
#
# Total GULP energy -267831.478904 kJ/mol
# GULP energy per Si atom -5579.822477 kJ/mol
# Density = 1.715528 g / cm^3
# Si number density = 17.194413 Si / 1000 Ang^3
#
#
#
# Elastic Constant Matrix: (Units=GPa)
#
#
# Indices 1 2 3 4 5 6 
#
# 1 103.3397 57.6202 32.8109 0.0000 0.0000 0.0000
# 2 57.6202 116.6945 45.1669 0.0000 0.0000 0.0000
# 3 32.8109 45.1669 49.4040 0.0000 0.0000 0.0000
# 4 0.0000 0.0000 0.0000 37.5173 0.0000 0.0000
# 5 0.0000 0.0000 0.0000 0.0000 18.1480 0.0000
# 6 0.0000 0.0000 0.0000 0.0000 0.0000 26.3746
#
#
#
# Elastic Compliance Matrix: (Units=1/GPa)
#
#
# Indices 1 2 3 4 5 6 
#
# 1 0.014000 -0.005129 -0.004609 0.000000 0.000000 0.000000
# 2 -0.005129 0.015141 -0.010436 0.000000 0.000000 0.000000
# 3 -0.004609 -0.010436 0.032844 0.000000 0.000000 0.000000
# 4 0.000000 0.000000 0.000000 0.026654 0.000000 0.000000
# 5 0.000000 0.000000 0.000000 0.000000 0.055103 0.000000
# 6 0.000000 0.000000 0.000000 0.000000 0.000000 0.037915
#
#
# Mechanical properties :
#
#
# Convention : Reuss Voigt Hill
#
# Bulk Modulus (GPa) = 46.21833 60.07046 53.14439
# Shear Modulus (GPa) = 21.81334 25.33065 23.57200
#
# Velocity S-wave (km/s) = 3.56565 3.84238 3.70660
# Velocity P-wave (km/s) = 6.62495 7.39575 7.02093
#
# Compressibility (1/GPa) = 0.02163644
#
# Stress axis : x y z
#
# Youngs Moduli (GPa) = 71.42906 66.04441 30.44735
#
# Poissons Ratio (x) = 0.33873 0.14033
# Poissons Ratio (y) = 0.36635 0.31776
# Poissons Ratio (z) = 0.32920 0.68927
#
# Static dielectric constant tensor:
#      x y z
#    x 1.563560 0.000000 0.000000 
#    y 0.000000 1.589970 0.000000 
#    z 0.000000 0.000000 1.570080 
# 
# From -- ./inp_files/42533.got.cif
#   From: 2010.05.17/outbox.cif.g08.bks.cpg/sg63_22_cif.got.tgz:42533.got - 2010.06.03 15:47:04.
