data_PCOD9475333
_publ_section_title
;
Structure prediction by ZEFSAII (Michael W. Deem and Ramdas Pophale) SiO2 
 PCOD9475333
Probable space group: C M C M
;
_chemical_formula_sum "Si O2"
_cell_formula_units_Z 80
_cell_length_a 12.841835
_cell_length_b 13.190116
_cell_length_c 22.063817
_cell_angle_alpha 90.000000
_cell_angle_beta 90.000000
_cell_angle_gamma 90.000000
_cell_volume 3737.286114
_symmetry_space_group_name_H-M "C M C M"
_symmetry_group_IT_number 63
_symmetry_cell_setting 'orthorhombic'
loop_
_space_group_symop_operation_xyz
x,y,z
-x,-y,1/2+z
x,-y,-z
-x,y,1/2-z
-x,-y,-z
x,y,1/2-z
-x,y,z
x,-y,1/2+z
1/2+x,1/2+y,z
1/2-x,1/2-y,1/2+z
1/2+x,1/2-y,-z
1/2-x,1/2+y,1/2-z
1/2-x,1/2-y,-z
1/2+x,1/2+y,1/2-z
1/2-x,1/2+y,z
1/2+x,1/2-y,1/2+z
loop_
_atom_site_type_symbol
_atom_site_label
_atom_site_fract_x
_atom_site_fract_y
_atom_site_fract_z
Si Si1 0.000000 0.511556 0.426125
Si Si2 0.125136 0.156605 0.490084
Si Si3 0.297965 0.673430 0.680569
Si Si4 0.125682 0.016377 0.599657
Si Si5 0.118303 0.676983 0.591583
Si Si6 0.000000 0.315481 0.677637
O O1 0.000000 0.500000 0.500000
O O2 0.101086 0.443260 0.409728
O O3 0.000000 0.606349 0.379841
O O4 0.159844 0.104515 0.551794
O O5 0.144985 0.272783 0.473282
O O6 0.000000 0.145724 0.494528
O O7 0.158644 0.087259 0.433044
O O8 0.269132 0.677461 0.750000
O O9 0.327745 0.558428 0.661335
O O10 0.201144 0.707936 0.640598
O O11 0.398713 0.744130 0.670734
O O12 0.000000 0.014013 0.604676
O O13 0.000000 0.714771 0.605682
O O14 0.000000 0.352370 0.750000
#
# Coordination Sequence:
#
# PCOD9475333 Si02
#       6
#     8  16  16  16  16   8
#     4  10  24  44  67  97 132 173 231 270 325 394
#     4   8  16  34  58  89 119 151 189 244 328 371
#     4  11  23  39  63  91 122 173 219 259 318 388
#     4   9  17  32  59  90 122 149 188 251 315 383
#     4   9  22  41  60  88 124 166 210 269 315 386
#     4  10  24  44  65  93 133 175 217 268 331 394
#
# _framework density 21.405906999999999
#
# number of rings (size 3 to 8) (size 9 to 14) (size 15 to 20)
#    0.600    2.000    1.000    1.200    2.800    3.600 
#    3.600    3.000    0.000    3.600    0.000    0.000 
#    0.000    0.000    0.000    0.000    0.000    0.000 
#
# Total GULP energy -222751.055001 kJ/mol
# GULP energy per Si atom -5568.776375 kJ/mol
# Density = 2.135719 g / cm^3
# Si number density = 21.405907 Si / 1000 Ang^3
#
#
#
# Elastic Constant Matrix: (Units=GPa)
#
#
# Indices 1 2 3 4 5 6 
#
# 1 78.1370 -8.4825 31.0313 0.0000 0.0000 0.0000
# 2 -8.4825 30.9809 12.4416 0.0000 0.0000 0.0000
# 3 31.0313 12.4416 93.4216 0.0000 0.0000 0.0000
# 4 0.0000 0.0000 0.0000 34.5009 0.0000 0.0000
# 5 0.0000 0.0000 0.0000 0.0000 33.5354 0.0000
# 6 0.0000 0.0000 0.0000 0.0000 0.0000 10.9435
#
#
#
# Elastic Compliance Matrix: (Units=1/GPa)
#
#
# Indices 1 2 3 4 5 6 
#
# 1 0.016025 0.006894 -0.006241 0.000000 0.000000 0.000000
# 2 0.006894 0.037068 -0.007226 0.000000 0.000000 0.000000
# 3 -0.006241 -0.007226 0.013740 0.000000 0.000000 0.000000
# 4 0.000000 0.000000 0.000000 0.028985 0.000000 0.000000
# 5 0.000000 0.000000 0.000000 0.000000 0.029819 0.000000
# 6 0.000000 0.000000 0.000000 0.000000 0.000000 0.091378
#
#
# Mechanical properties :
#
#
# Convention : Reuss Voigt Hill
#
# Bulk Modulus (GPa) = 18.62719 30.28004 24.45361
# Shear Modulus (GPa) = 20.15667 26.96588 23.56127
#
# Velocity S-wave (km/s) = 3.07195 3.55313 3.32126
# Velocity P-wave (km/s) = 4.61554 5.56860 5.11432
#
# Compressibility (1/GPa) = 0.05368497
#
# Stress axis : x y z
#
# Youngs Moduli (GPa) = 62.40250 26.97780 72.78224
#
# Poissons Ratio (x) = -0.18598 0.45424
# Poissons Ratio (y) = -0.43020 0.52596
# Poissons Ratio (z) = 0.38946 0.19495
#
# Static dielectric constant tensor:
#      x y z
#    x 1.836420 0.000000 0.000000 
#    y 0.000000 1.807340 0.000000 
#    z 0.000000 0.000000 1.763750 
# 
# From -- ./inp_files/62603.got.cif
#   From: 2010.05.17/outbox.cif.g08.bks.cpg/sg63_32_cif.got.tgz:62603.got - 2010.06.03 15:47:04.
