data_PCOD9475898
_publ_section_title
;
Structure prediction by ZEFSAII (Michael W. Deem and Ramdas Pophale) SiO2 
 PCOD9475898
Probable space group: C M C M
;
_chemical_formula_sum "Si O2"
_cell_formula_units_Z 80
_cell_length_a 25.753448
_cell_length_b 20.815685
_cell_length_c 8.739665
_cell_angle_alpha 90.000000
_cell_angle_beta 90.000000
_cell_angle_gamma 90.000000
_cell_volume 4685.121694
_symmetry_space_group_name_H-M "C M C M"
_symmetry_group_IT_number 63
_symmetry_cell_setting 'orthorhombic'
loop_
_space_group_symop_operation_xyz
x,y,z
-x,-y,1/2+z
x,-y,-z
-x,y,1/2-z
-x,-y,-z
x,y,1/2-z
-x,y,z
x,-y,1/2+z
1/2+x,1/2+y,z
1/2-x,1/2-y,1/2+z
1/2+x,1/2-y,-z
1/2-x,1/2+y,1/2-z
1/2-x,1/2-y,-z
1/2+x,1/2+y,1/2-z
1/2-x,1/2+y,z
1/2+x,1/2-y,1/2+z
loop_
_atom_site_type_symbol
_atom_site_label
_atom_site_fract_x
_atom_site_fract_y
_atom_site_fract_z
Si Si1 0.500000 0.759557 0.564448
Si Si2 0.113914 0.890496 0.067053
Si Si3 0.386633 0.764743 0.932784
Si Si4 0.777777 0.067904 0.431705
Si Si5 0.000000 0.891367 0.435594
Si Si6 0.718875 0.810348 0.431718
O O1 0.500000 0.761226 0.750000
O O2 0.555687 0.786333 0.516022
O O3 0.500000 0.684168 0.523582
O O4 0.118820 0.901799 0.250000
O O5 0.116266 0.812833 0.045499
O O6 0.056856 0.915236 0.014709
O O7 0.162492 0.920479 0.981460
O O8 0.381124 0.775380 0.750000
O O9 0.340577 0.799506 0.020141
O O10 0.774097 0.067756 0.250000
O O11 0.743761 0.125550 0.499738
O O12 0.760756 0.000000 0.500000
O O13 0.000000 0.895076 0.250000
O O14 0.724755 0.810715 0.250000
O O15 0.750000 0.750000 0.500000
#
# Coordination Sequence:
#
# PCOD9475898 Si02
#       6
#     8  16  16  16   8  16
#     4   7  12  24  45  76 109 140 172 210 260 312
#     4   9  16  30  52  76 105 139 179 221 265 313
#     4   9  16  29  52  80 110 142 177 217 262 312
#     4  12  25  40  56  76 105 141 181 225 275 325
#     4   7  12  24  46  74 101 136 176 218 262 307
#     4  12  23  36  55  81 110 142 181 224 269 318
#
# _framework density 17.075330000000001
#
# number of rings (size 3 to 8) (size 9 to 14) (size 15 to 20)
#    0.000    2.200    2.000    6.000    0.000    0.000 
#    0.000    1.500    0.000    3.600    0.000    0.700 
#    0.000    0.000    0.000    0.000    0.000    0.000 
#
# Total GULP energy -223108.385881 kJ/mol
# GULP energy per Si atom -5577.709647 kJ/mol
# Density = 1.703647 g / cm^3
# Si number density = 17.075330 Si / 1000 Ang^3
#
#
#
# Elastic Constant Matrix: (Units=GPa)
#
#
# Indices 1 2 3 4 5 6 
#
# 1 137.6571 57.6526 56.0030 0.0000 0.0000 0.0000
# 2 57.6526 93.1671 54.2969 0.0000 0.0000 0.0000
# 3 56.0030 54.2969 91.5876 0.0000 0.0000 0.0000
# 4 0.0000 0.0000 0.0000 19.5421 0.0000 0.0000
# 5 0.0000 0.0000 0.0000 0.0000 28.7336 0.0000
# 6 0.0000 0.0000 0.0000 0.0000 0.0000 7.2394
#
#
#
# Elastic Compliance Matrix: (Units=1/GPa)
#
#
# Indices 1 2 3 4 5 6 
#
# 1 0.010683 -0.004284 -0.003993 0.000000 0.000000 0.000000
# 2 -0.004284 0.018117 -0.008121 0.000000 0.000000 0.000000
# 3 -0.003993 -0.008121 0.018174 0.000000 0.000000 0.000000
# 4 0.000000 0.000000 0.000000 0.051172 0.000000 0.000000
# 5 0.000000 0.000000 0.000000 0.000000 0.034802 0.000000
# 6 0.000000 0.000000 0.000000 0.000000 0.000000 0.138134
#
#
# Mechanical properties :
#
#
# Convention : Reuss Voigt Hill
#
# Bulk Modulus (GPa) = 70.52552 73.14629 71.83590
# Shear Modulus (GPa) = 16.20199 21.40030 18.80114
#
# Velocity S-wave (km/s) = 3.08369 3.54402 3.32184
# Velocity P-wave (km/s) = 7.35330 7.72510 7.54149
#
# Compressibility (1/GPa) = 0.01417927
#
# Stress axis : x y z
#
# Youngs Moduli (GPa) = 93.60797 55.19616 55.02216
#
# Poissons Ratio (x) = 0.23645 0.21968
# Poissons Ratio (y) = 0.40099 0.44685
# Poissons Ratio (z) = 0.37374 0.44826
#
# Static dielectric constant tensor:
#      x y z
#    x 1.625930 0.000000 0.000000 
#    y 0.000000 1.557910 0.000000 
#    z 0.000000 0.000000 1.564970 
# 
# From -- ./inp_files/12128.got.cif
#   From: 2010.05.17/outbox.cif.g08.bks.cpg/sg63_7_cif.got.tgz:12128.got - 2010.06.03 15:47:04.
