data_PCOD9475232
_publ_section_title
;
Structure prediction by ZEFSAII (Michael W. Deem and Ramdas Pophale) SiO2 
 PCOD9475232
Probable space group: C M C M
;
_chemical_formula_sum "Si O2"
_cell_formula_units_Z 88
_cell_length_a 27.711396
_cell_length_b 5.561407
_cell_length_c 23.840142
_cell_angle_alpha 90.000000
_cell_angle_beta 90.000000
_cell_angle_gamma 90.000000
_cell_volume 3674.108029
_symmetry_space_group_name_H-M "C M C M"
_symmetry_group_IT_number 63
_symmetry_cell_setting 'orthorhombic'
loop_
_space_group_symop_operation_xyz
x,y,z
-x,-y,1/2+z
x,-y,-z
-x,y,1/2-z
-x,-y,-z
x,y,1/2-z
-x,y,z
x,-y,1/2+z
1/2+x,1/2+y,z
1/2-x,1/2-y,1/2+z
1/2+x,1/2-y,-z
1/2-x,1/2+y,1/2-z
1/2-x,1/2-y,-z
1/2+x,1/2+y,1/2-z
1/2-x,1/2+y,z
1/2+x,1/2-y,1/2+z
loop_
_atom_site_type_symbol
_atom_site_label
_atom_site_fract_x
_atom_site_fract_y
_atom_site_fract_z
Si Si1 0.784578 0.600112 0.556852
Si Si2 0.057704 0.578621 0.626674
Si Si3 0.876731 0.853070 0.950028
Si Si4 0.058452 0.083696 0.812910
Si Si5 0.814912 0.796183 0.374796
Si Si6 0.280737 0.659291 0.750000
O O1 0.760954 0.500000 0.500000
O O2 0.827106 0.747845 0.526290
O O3 0.819414 0.475246 0.603851
O O4 0.738013 0.665612 0.594779
O O5 0.086218 0.655455 0.571500
O O6 0.073094 0.321433 0.652043
O O7 0.000000 0.570457 0.618090
O O8 0.068027 0.812157 0.666111
O O9 0.853946 0.027359 0.902009
O O10 0.900880 0.000000 0.000000
O O11 0.077189 0.111198 0.750000
O O12 0.000000 0.098858 0.811711
O O13 0.809605 0.831371 0.308727
O O14 0.251647 0.404827 0.750000
#
# Coordination Sequence:
#
# PCOD9475232 Si02
#       6
#    16  16  16  16  16   8
#     4  12  22  40  68  96 130 171 227 285 331 391
#     4  10  23  42  66  98 136 176 224 276 336 398
#     4  12  26  42  65  96 131 176 227 282 331 398
#     4   9  18  39  70  97 128 171 220 278 335 391
#     4  12  24  42  67  96 132 176 223 273 343 398
#     4  12  24  44  68  94 137 182 215 266 334 414
#
# _framework density 23.95139
#
# number of rings (size 3 to 8) (size 9 to 14) (size 15 to 20)
#    0.000    0.909    5.455    1.636    2.545    2.545 
#    3.273    0.000    0.000    3.818    0.000    0.000 
#    0.000    0.000    0.000    0.000    0.000    0.000 
#
# Total GULP energy -245272.079314 kJ/mol
# GULP energy per Si atom -5574.365439 kJ/mol
# Density = 2.389688 g / cm^3
# Si number density = 23.951390 Si / 1000 Ang^3
#
#
#
# Elastic Constant Matrix: (Units=GPa)
#
#
# Indices 1 2 3 4 5 6 
#
# 1 49.7473 20.5426 13.8153 0.0000 0.0000 0.0000
# 2 20.5426 103.0065 11.1070 0.0000 0.0000 0.0000
# 3 13.8153 11.1070 121.6191 0.0000 0.0000 0.0000
# 4 0.0000 0.0000 0.0000 36.4188 0.0000 0.0000
# 5 0.0000 0.0000 0.0000 0.0000 23.7273 0.0000
# 6 0.0000 0.0000 0.0000 0.0000 0.0000 33.2221
#
#
#
# Elastic Compliance Matrix: (Units=1/GPa)
#
#
# Indices 1 2 3 4 5 6 
#
# 1 0.022455 -0.004245 -0.002163 0.000000 0.000000 0.000000
# 2 -0.004245 0.010607 -0.000486 0.000000 0.000000 0.000000
# 3 -0.002163 -0.000486 0.008513 0.000000 0.000000 0.000000
# 4 0.000000 0.000000 0.000000 0.027458 0.000000 0.000000
# 5 0.000000 0.000000 0.000000 0.000000 0.042146 0.000000
# 6 0.000000 0.000000 0.000000 0.000000 0.000000 0.030100
#
#
# Mechanical properties :
#
#
# Convention : Reuss Voigt Hill
#
# Bulk Modulus (GPa) = 35.98974 40.58919 38.28946
# Shear Modulus (GPa) = 30.42650 33.93418 32.18034
#
# Velocity S-wave (km/s) = 3.56806 3.76812 3.66945
# Velocity P-wave (km/s) = 5.65981 5.99290 5.82874
#
# Compressibility (1/GPa) = 0.02778570
#
# Stress axis : x y z
#
# Youngs Moduli (GPa) = 44.53303 94.27593 117.47371
#
# Poissons Ratio (x) = 0.40020 0.25411
# Poissons Ratio (y) = 0.18904 0.05715
# Poissons Ratio (z) = 0.09633 0.04587
#
# Static dielectric constant tensor:
#      x y z
#    x 1.900430 0.000000 0.000000 
#    y 0.000000 2.589290 0.000000 
#    z 0.000000 0.000000 2.031490 
# 
# From -- ./inp_files/65699.got.cif
#   From: 2010.05.17/outbox.cif.g08.bks.cpg/sg63_33_cif.got.tgz:65699.got - 2010.06.03 15:47:04.
