data_PCOD9475839
_publ_section_title
;
Structure prediction by ZEFSAII (Michael W. Deem and Ramdas Pophale) SiO2 
 PCOD9475839
Probable space group: C M C M
;
_chemical_formula_sum "Si O2"
_cell_formula_units_Z 52
_cell_length_a 10.678036
_cell_length_b 30.121849
_cell_length_c 7.504249
_cell_angle_alpha 90.000000
_cell_angle_beta 90.000000
_cell_angle_gamma 90.000000
_cell_volume 2413.683068
_symmetry_space_group_name_H-M "C M C M"
_symmetry_group_IT_number 63
_symmetry_cell_setting 'orthorhombic'
loop_
_space_group_symop_operation_xyz
x,y,z
-x,-y,1/2+z
x,-y,-z
-x,y,1/2-z
-x,-y,-z
x,y,1/2-z
-x,y,z
x,-y,1/2+z
1/2+x,1/2+y,z
1/2-x,1/2-y,1/2+z
1/2+x,1/2-y,-z
1/2-x,1/2+y,1/2-z
1/2-x,1/2-y,-z
1/2+x,1/2+y,1/2-z
1/2-x,1/2+y,z
1/2+x,1/2-y,1/2+z
loop_
_atom_site_type_symbol
_atom_site_label
_atom_site_fract_x
_atom_site_fract_y
_atom_site_fract_z
Si Si1 0.709578 0.864667 0.044338
Si Si2 0.358227 0.550660 0.537221
Si Si3 0.862978 0.216598 0.038021
Si Si4 0.000000 0.656880 0.250000
O O1 0.664512 0.867905 0.250000
O O2 0.760505 0.912249 0.977899
O O3 0.825864 0.830609 0.042456
O O4 0.608666 0.846003 0.907349
O O5 0.320517 0.500000 0.500000
O O6 0.364838 0.555952 0.750000
O O7 0.500000 0.556852 0.465971
O O8 0.869214 0.211843 0.250000
O O9 0.000000 0.232313 0.973892
O O10 0.750000 0.250000 0.000000
#
# Coordination Sequence:
#
# PCOD9475839 Si02
#       4
#    16  16  16   4
#     4  11  24  44  68  95 133 175 225 278 335 398
#     4   9  19  36  64  97 128 165 215 276 339 398
#     4  11  25  43  67 101 137 180 225 274 332 396
#     4  12  26  44  68  94 130 184 228 270 342 398
#
# _framework density 21.543838000000001
#
# number of rings (size 3 to 8) (size 9 to 14) (size 15 to 20)
#    0.000    1.538    1.538    2.308    4.308    3.692 
#    0.000    0.769    0.000    0.000    0.000    0.000 
#    0.000    0.000    0.000    0.000    0.000    0.000 
#
# Total GULP energy -144779.100109 kJ/mol
# GULP energy per Si atom -5568.426927 kJ/mol
# Density = 2.149480 g / cm^3
# Si number density = 21.543838 Si / 1000 Ang^3
#
#
#
# Elastic Constant Matrix: (Units=GPa)
#
#
# Indices 1 2 3 4 5 6 
#
# 1 132.5768 37.0949 26.2892 0.0000 0.0000 0.0000
# 2 37.0949 75.4568 -3.4756 0.0000 0.0000 0.0000
# 3 26.2892 -3.4756 118.6028 0.0000 0.0000 0.0000
# 4 0.0000 0.0000 0.0000 23.7919 0.0000 0.0000
# 5 0.0000 0.0000 0.0000 0.0000 55.4297 0.0000
# 6 0.0000 0.0000 0.0000 0.0000 0.0000 0.8671
#
#
#
# Elastic Compliance Matrix: (Units=1/GPa)
#
#
# Indices 1 2 3 4 5 6 
#
# 1 0.009283 -0.004665 -0.002194 0.000000 0.000000 0.000000
# 2 -0.004665 0.015614 0.001492 0.000000 0.000000 0.000000
# 3 -0.002194 0.001492 0.008962 0.000000 0.000000 0.000000
# 4 0.000000 0.000000 0.000000 0.042031 0.000000 0.000000
# 5 0.000000 0.000000 0.000000 0.000000 0.018041 0.000000
# 6 0.000000 0.000000 0.000000 0.000000 0.000000 1.153297
#
#
# Mechanical properties :
#
#
# Convention : Reuss Voigt Hill
#
# Bulk Modulus (GPa) = 43.24477 49.60593 46.42535
# Shear Modulus (GPa) = 3.95047 33.79960 18.87503
#
# Velocity S-wave (km/s) = 1.35561 3.96520 2.96315
# Velocity P-wave (km/s) = 4.75044 6.63621 5.77088
#
# Compressibility (1/GPa) = 0.02312418
#
# Stress axis : x y z
#
# Youngs Moduli (GPa) = 107.72260 64.04304 111.58706
#
# Poissons Ratio (x) = 0.29874 0.24486
# Poissons Ratio (y) = 0.50249 -0.16644
# Poissons Ratio (z) = 0.23638 -0.09552
#
# Static dielectric constant tensor:
#      x y z
#    x 1.795020 0.000000 0.000000 
#    y 0.000000 1.795570 0.000000 
#    z 0.000000 0.000000 1.794350 
# 
# From -- ./inp_files/2753.got.cif
#   From: 2010.05.17/outbox.cif.g08.bks.cpg/sg63_2_cif.got.tgz:2753.got - 2010.06.03 15:47:04.
