data_PCOD9475001
_publ_section_title
;
Structure prediction by ZEFSAII (Michael W. Deem and Ramdas Pophale) SiO2 
 PCOD9475001
Probable space group: C M C M
;
_chemical_formula_sum "Si O2"
_cell_formula_units_Z 64
_cell_length_a 7.997786
_cell_length_b 26.984003
_cell_length_c 13.897423
_cell_angle_alpha 90.000000
_cell_angle_beta 90.000000
_cell_angle_gamma 90.000000
_cell_volume 2999.234563
_symmetry_space_group_name_H-M "C M C M"
_symmetry_group_IT_number 63
_symmetry_cell_setting 'orthorhombic'
loop_
_space_group_symop_operation_xyz
x,y,z
-x,-y,1/2+z
x,-y,-z
-x,y,1/2-z
-x,-y,-z
x,y,1/2-z
-x,y,z
x,-y,1/2+z
1/2+x,1/2+y,z
1/2-x,1/2-y,1/2+z
1/2+x,1/2-y,-z
1/2-x,1/2+y,1/2-z
1/2-x,1/2-y,-z
1/2+x,1/2+y,1/2-z
1/2-x,1/2+y,z
1/2+x,1/2-y,1/2+z
loop_
_atom_site_type_symbol
_atom_site_label
_atom_site_fract_x
_atom_site_fract_y
_atom_site_fract_z
Si Si1 0.701744 0.054089 0.464683
Si Si2 0.201564 0.875905 0.143148
Si Si3 0.690039 0.923550 0.750000
Si Si4 0.199815 0.237475 0.606708
Si Si5 0.314460 0.681300 0.250000
O O1 0.500000 0.054954 0.458887
O O2 0.746476 0.093373 0.548570
O O3 0.765138 0.062727 0.354953
O O4 0.756870 0.000000 0.500000
O O5 0.258060 0.894289 0.250000
O O6 0.253883 0.818258 0.133543
O O7 0.000000 0.876534 0.143915
O O8 0.500000 0.943572 0.750000
O O9 0.689370 0.864089 0.750000
O O10 0.250000 0.250000 0.500000
O O11 0.286286 0.281478 0.663499
O O12 0.000000 0.240002 0.622632
O O13 0.500000 0.659737 0.250000
#
# Coordination Sequence:
#
# PCOD9475001 Si02
#       5
#    16  16   8  16   8
#     4  10  23  41  65  94 122 159 205 258 316 372
#     4  10  22  41  62  89 126 165 204 252 310 367
#     4  10  22  42  63  88 127 165 202 257 321 374
#     4  11  22  39  61  89 127 166 205 254 306 364
#     4  12  24  38  59  90 123 165 212 249 299 368
#
# _framework density 21.338777
#
# number of rings (size 3 to 8) (size 9 to 14) (size 15 to 20)
#    0.000    1.500    1.250    3.375    1.750    8.000 
#    0.000    0.000    0.000    0.000    0.000    0.000 
#    0.000    0.000    0.000    0.000    0.000    0.000 
#
# Total GULP energy -178567.634581 kJ/mol
# GULP energy per Si atom -5580.238581 kJ/mol
# Density = 2.129021 g / cm^3
# Si number density = 21.338777 Si / 1000 Ang^3
#
#
#
# Elastic Constant Matrix: (Units=GPa)
#
#
# Indices 1 2 3 4 5 6 
#
# 1 36.9252 2.4529 5.9150 0.0000 0.0000 0.0000
# 2 2.4529 105.7522 69.2888 0.0000 0.0000 0.0000
# 3 5.9150 69.2888 230.7698 0.0000 0.0000 0.0000
# 4 0.0000 0.0000 0.0000 30.4782 0.0000 0.0000
# 5 0.0000 0.0000 0.0000 0.0000 35.0715 0.0000
# 6 0.0000 0.0000 0.0000 0.0000 0.0000 18.5759
#
#
#
# Elastic Compliance Matrix: (Units=1/GPa)
#
#
# Indices 1 2 3 4 5 6 
#
# 1 0.027197 -0.000217 -0.000632 0.000000 0.000000 0.000000
# 2 -0.000217 0.011774 -0.003529 0.000000 0.000000 0.000000
# 3 -0.000632 -0.003529 0.005409 0.000000 0.000000 0.000000
# 4 0.000000 0.000000 0.000000 0.032810 0.000000 0.000000
# 5 0.000000 0.000000 0.000000 0.000000 0.028513 0.000000
# 6 0.000000 0.000000 0.000000 0.000000 0.000000 0.053833
#
#
# Mechanical properties :
#
#
# Convention : Reuss Voigt Hill
#
# Bulk Modulus (GPa) = 28.07114 58.75119 43.41117
# Shear Modulus (GPa) = 27.75185 36.54449 32.14817
#
# Velocity S-wave (km/s) = 3.61021 4.14283 3.88566
# Velocity P-wave (km/s) = 5.52826 7.10468 6.36546
#
# Compressibility (1/GPa) = 0.03562378
#
# Stress axis : x y z
#
# Youngs Moduli (GPa) = 36.76821 84.93577 184.86850
#
# Poissons Ratio (x) = 0.01841 0.11685
# Poissons Ratio (y) = 0.00797 0.65249
# Poissons Ratio (z) = 0.02324 0.29978
#
# Static dielectric constant tensor:
#      x y z
#    x 1.780330 0.000000 0.000000 
#    y 0.000000 1.722770 0.000000 
#    z 0.000000 0.000000 1.767230 
# 
# From -- ./inp_files/27740.got.cif
#   From: 2010.05.17/outbox.cif.g08.bks.cpg/sg63_14_cif.got.tgz:27740.got - 2010.06.03 15:47:04.
