data_PCOD9475665
_publ_section_title
;
Structure prediction by ZEFSAII (Michael W. Deem and Ramdas Pophale) SiO2 
 PCOD9475665
Probable space group: C M C M
;
_chemical_formula_sum "Si O2"
_cell_formula_units_Z 116
_cell_length_a 29.468494
_cell_length_b 25.720031
_cell_length_c 7.853287
_cell_angle_alpha 90.000000
_cell_angle_beta 90.000000
_cell_angle_gamma 90.000000
_cell_volume 5952.246365
_symmetry_space_group_name_H-M "C M C M"
_symmetry_group_IT_number 63
_symmetry_cell_setting 'orthorhombic'
loop_
_space_group_symop_operation_xyz
x,y,z
-x,-y,1/2+z
x,-y,-z
-x,y,1/2-z
-x,-y,-z
x,y,1/2-z
-x,y,z
x,-y,1/2+z
1/2+x,1/2+y,z
1/2-x,1/2-y,1/2+z
1/2+x,1/2-y,-z
1/2-x,1/2+y,1/2-z
1/2-x,1/2-y,-z
1/2+x,1/2+y,1/2-z
1/2-x,1/2+y,z
1/2+x,1/2-y,1/2+z
loop_
_atom_site_type_symbol
_atom_site_label
_atom_site_fract_x
_atom_site_fract_y
_atom_site_fract_z
Si Si1 0.154967 0.943918 0.549405
Si Si2 0.621391 0.829965 0.043824
Si Si3 0.074647 0.868875 0.549875
Si Si4 0.745918 0.912901 0.452719
Si Si5 0.852229 0.556287 0.545499
Si Si6 0.778467 0.300356 0.045565
Si Si7 0.500000 0.386978 0.250000
Si Si8 0.447610 0.257039 0.451671
O O1 0.159047 0.942660 0.750000
O O2 0.121690 0.897038 0.501907
O O3 0.205913 0.938589 0.482476
O O4 0.135250 0.000000 0.500000
O O5 0.620310 0.829417 0.250000
O O6 0.623355 0.890438 0.988084
O O7 0.669101 0.803633 0.987881
O O8 0.579750 0.795671 0.980915
O O9 0.063811 0.882656 0.750000
O O10 0.076099 0.806222 0.539891
O O11 0.038957 0.885127 0.404081
O O12 0.739987 0.911035 0.250000
O O13 0.700036 0.939827 0.520103
O O14 0.745217 0.853437 0.516806
O O15 0.871520 0.500000 0.500000
O O16 0.851622 0.558752 0.750000
O O17 0.780055 0.302396 0.250000
O O18 0.750000 0.250000 0.000000
O O19 0.448872 0.268413 0.250000
O O20 0.500000 0.254024 0.510012
#
# Coordination Sequence:
#
# PCOD9475665 Si02
#       8
#    16  16  16  16  16  16   4  16
#     4  11  25  40  60  85 117 152 195 245 298 353
#     4   9  20  36  54  81 116 152 190 240 294 353
#     4  11  24  42  65  90 119 153 195 246 309 363
#     4   9  19  35  55  79 113 156 195 239 286 342
#     4   9  18  34  55  81 115 154 197 239 291 345
#     4   9  19  34  50  76 115 154 190 231 286 346
#     4  12  22  44  70  90 114 152 196 254 298 376
#     4  11  22  39  62  89 117 150 195 246 299 360
#
# _framework density 19.488441999999999
#
# number of rings (size 3 to 8) (size 9 to 14) (size 15 to 20)
#    0.000    2.069    1.379    3.103    3.862    4.138 
#    0.000    3.103    0.000    0.414    0.000    0.000 
#    0.000    0.000    0.000    0.000    0.000    0.000 
#
# Total GULP energy -322902.385727 kJ/mol
# GULP energy per Si atom -5567.282513 kJ/mol
# Density = 1.944409 g / cm^3
# Si number density = 19.488442 Si / 1000 Ang^3
#
#
#
# Elastic Constant Matrix: (Units=GPa)
#
#
# Indices 1 2 3 4 5 6 
#
# 1 73.8294 63.8162 9.9566 0.0000 0.0000 0.0000
# 2 63.8162 137.5684 0.2514 0.0000 0.0000 0.0000
# 3 9.9566 0.2514 48.7982 0.0000 0.0000 0.0000
# 4 0.0000 0.0000 0.0000 28.6015 0.0000 0.0000
# 5 0.0000 0.0000 0.0000 0.0000 10.5309 0.0000
# 6 0.0000 0.0000 0.0000 0.0000 0.0000 -439.0783
#
#
#
# Elastic Compliance Matrix: (Units=1/GPa)
#
#
# Indices 1 2 3 4 5 6 
#
# 1 0.023673 -0.010973 -0.004774 0.000000 0.000000 0.000000
# 2 -0.010973 0.012355 0.002175 0.000000 0.000000 0.000000
# 3 -0.004774 0.002175 0.021455 0.000000 0.000000 0.000000
# 4 0.000000 0.000000 0.000000 0.034963 0.000000 0.000000
# 5 0.000000 0.000000 0.000000 0.000000 0.094958 0.000000
# 6 0.000000 0.000000 0.000000 0.000000 0.000000 -0.002277
#
#
# Mechanical properties :
#
#
# Convention : Reuss Voigt Hill
#
# Bulk Modulus (GPa) = 32.95860 45.36051 39.15955
# Shear Modulus (GPa) = 22.48358 -67.57772 -22.54707
#
# Velocity S-wave (km/s) = 3.40028 -5.89500 -3.40508
# Velocity P-wave (km/s) = 5.68898 4.79673 2.16285
#
# Compressibility (1/GPa) = 0.03034110
#
# Stress axis : x y z
#
# Youngs Moduli (GPa) = 42.24170 80.93645 46.60845
#
# Poissons Ratio (x) = 0.88812 0.22249
# Poissons Ratio (y) = 0.46352 -0.10138
# Poissons Ratio (z) = 0.20165 -0.17606
#
# Static dielectric constant tensor:
#      x y z
#    x 1.681100 0.000000 0.000000 
#    y 0.000000 1.709890 0.000000 
#    z 0.000000 0.000000 1.705910 
# 
# From -- ./inp_files/14744.got.cif
#   From: 2010.05.17/outbox.cif.g08.bks.cpg/sg63_8_cif.got.tgz:14744.got - 2010.06.03 15:47:04.
