data_PCOD9475816
_publ_section_title
;
Structure prediction by ZEFSAII (Michael W. Deem and Ramdas Pophale) SiO2 
 PCOD9475816
Probable space group: C M C M
;
_chemical_formula_sum "Si O2"
_cell_formula_units_Z 56
_cell_length_a 33.132128
_cell_length_b 5.067485
_cell_length_c 14.790476
_cell_angle_alpha 90.000000
_cell_angle_beta 90.000000
_cell_angle_gamma 90.000000
_cell_volume 2483.270066
_symmetry_space_group_name_H-M "C M C M"
_symmetry_group_IT_number 63
_symmetry_cell_setting 'orthorhombic'
loop_
_space_group_symop_operation_xyz
x,y,z
-x,-y,1/2+z
x,-y,-z
-x,y,1/2-z
-x,-y,-z
x,y,1/2-z
-x,y,z
x,-y,1/2+z
1/2+x,1/2+y,z
1/2-x,1/2-y,1/2+z
1/2+x,1/2-y,-z
1/2-x,1/2+y,1/2-z
1/2-x,1/2-y,-z
1/2+x,1/2+y,1/2-z
1/2-x,1/2+y,z
1/2+x,1/2-y,1/2+z
loop_
_atom_site_type_symbol
_atom_site_label
_atom_site_fract_x
_atom_site_fract_y
_atom_site_fract_z
Si Si1 0.318286 0.762274 0.060465
Si Si2 0.597928 0.095352 0.648594
Si Si3 0.725255 0.361220 0.750000
Si Si4 0.545962 0.587275 0.895887
O O1 0.363817 0.844497 0.086572
O O2 0.297184 0.709696 0.156665
O O3 0.318175 0.500000 0.000000
O O4 0.300071 0.000000 0.000000
O O5 0.612193 0.030156 0.750000
O O6 0.570060 0.353316 0.651481
O O7 0.570878 0.854909 0.613996
O O8 0.735664 0.670727 0.750000
O O9 0.500000 0.620122 0.863412
O O10 0.544399 0.500000 0.000000
#
# Coordination Sequence:
#
# PCOD9475816 Si02
#       4
#    16  16   8  16
#     4  12  26  47  76 106 144 190 234 283 351 416
#     4  12  24  42  67  98 137 181 239 293 342 411
#     4  12  28  50  76 112 149 178 231 288 344 426
#     4  11  24  41  63  94 135 183 237 294 351 410
#
# _framework density 22.550909999999998
#
# number of rings (size 3 to 8) (size 9 to 14) (size 15 to 20)
#    0.000    0.286    1.429    8.571    0.000    9.143 
#    0.000    0.000    0.000    0.000    0.000    0.000 
#    0.000    0.000    0.000    0.000    0.000    0.000 
#
# Total GULP energy -156898.923806 kJ/mol
# GULP energy per Si atom -5603.532993 kJ/mol
# Density = 2.249958 g / cm^3
# Si number density = 22.550910 Si / 1000 Ang^3
#
#
#
# Elastic Constant Matrix: (Units=GPa)
#
#
# Indices 1 2 3 4 5 6 
#
# 1 57.6092 22.6790 40.3413 0.0000 0.0000 0.0000
# 2 22.6790 109.3284 24.6872 0.0000 0.0000 0.0000
# 3 40.3413 24.6872 170.3984 0.0000 0.0000 0.0000
# 4 0.0000 0.0000 0.0000 58.0020 0.0000 0.0000
# 5 0.0000 0.0000 0.0000 0.0000 34.3341 0.0000
# 6 0.0000 0.0000 0.0000 0.0000 0.0000 27.3738
#
#
#
# Elastic Compliance Matrix: (Units=1/GPa)
#
#
# Indices 1 2 3 4 5 6 
#
# 1 0.022037 -0.003508 -0.004709 0.000000 0.000000 0.000000
# 2 -0.003508 0.010015 -0.000620 0.000000 0.000000 0.000000
# 3 -0.004709 -0.000620 0.007073 0.000000 0.000000 0.000000
# 4 0.000000 0.000000 0.000000 0.017241 0.000000 0.000000
# 5 0.000000 0.000000 0.000000 0.000000 0.029126 0.000000
# 6 0.000000 0.000000 0.000000 0.000000 0.000000 0.036531
#
#
# Mechanical properties :
#
#
# Convention : Reuss Voigt Hill
#
# Bulk Modulus (GPa) = 46.61997 56.97234 51.79616
# Shear Modulus (GPa) = 34.04906 40.58387 37.31647
#
# Velocity S-wave (km/s) = 3.88993 4.24684 4.07229
# Velocity P-wave (km/s) = 6.39480 7.02611 6.71787
#
# Compressibility (1/GPa) = 0.02145004
#
# Stress axis : x y z
#
# Youngs Moduli (GPa) = 45.37868 99.85480 141.37666
#
# Poissons Ratio (x) = 0.35029 0.66573
# Poissons Ratio (y) = 0.15919 0.08771
# Poissons Ratio (z) = 0.21368 0.06195
#
# Static dielectric constant tensor:
#      x y z
#    x 1.821660 0.000000 0.000000 
#    y 0.000000 1.789230 0.000000 
#    z 0.000000 0.000000 1.853820 
# 
# From -- ./inp_files/38192.got.cif
#   From: 2010.05.17/outbox.cif.g08.bks.cpg/sg63_20_cif.got.tgz:38192.got - 2010.06.03 15:47:04.
