data_PCOD9475093
_publ_section_title
;
Structure prediction by ZEFSAII (Michael W. Deem and Ramdas Pophale) SiO2 
 PCOD9475093
Probable space group: C M C M
;
_chemical_formula_sum "Si O2"
_cell_formula_units_Z 72
_cell_length_a 28.600502
_cell_length_b 13.179429
_cell_length_c 9.799840
_cell_angle_alpha 90.000000
_cell_angle_beta 90.000000
_cell_angle_gamma 90.000000
_cell_volume 3693.934888
_symmetry_space_group_name_H-M "C M C M"
_symmetry_group_IT_number 63
_symmetry_cell_setting 'orthorhombic'
loop_
_space_group_symop_operation_xyz
x,y,z
-x,-y,1/2+z
x,-y,-z
-x,y,1/2-z
-x,-y,-z
x,y,1/2-z
-x,y,z
x,-y,1/2+z
1/2+x,1/2+y,z
1/2-x,1/2-y,1/2+z
1/2+x,1/2-y,-z
1/2-x,1/2+y,1/2-z
1/2-x,1/2-y,-z
1/2+x,1/2+y,1/2-z
1/2-x,1/2+y,z
1/2+x,1/2-y,1/2+z
loop_
_atom_site_type_symbol
_atom_site_label
_atom_site_fract_x
_atom_site_fract_y
_atom_site_fract_z
Si Si1 0.442308 0.107758 0.750000
Si Si2 0.816170 0.190186 0.911441
Si Si3 0.500000 0.600620 0.088634
Si Si4 0.944238 0.628757 0.250000
Si Si5 0.265736 0.907326 0.911376
Si Si6 0.915041 0.753110 0.988088
O O1 0.500000 0.119096 0.750000
O O2 0.419337 0.166060 0.624671
O O3 0.430694 0.989098 0.750000
O O4 0.818127 0.159987 0.750000
O O5 0.797559 0.306482 0.913621
O O6 0.866112 0.191957 0.985236
O O7 0.780577 0.124131 0.002622
O O8 0.500000 0.579726 0.250000
O O9 0.500000 0.500000 0.000000
O O10 0.454715 0.666422 0.050369
O O11 0.926559 0.691602 0.123216
O O12 0.000000 0.629204 0.250000
O O13 0.257672 0.932019 0.750000
O O14 0.286611 0.000000 0.000000
#
# Coordination Sequence:
#
# PCOD9475093 Si02
#       6
#     8  16   8   8  16  16
#     4  11  22  40  62  93 134 174 214 258 317 388
#     4  10  23  41  64  93 126 167 210 259 317 373
#     4  12  28  46  67  93 126 174 223 267 319 368
#     4  11  22  36  66  95 126 176 210 252 325 378
#     4  10  22  42  66  93 125 163 208 261 319 380
#     4  12  22  43  63  94 135 166 215 268 310 377
#
# _framework density 19.491409999999998
#
# number of rings (size 3 to 8) (size 9 to 14) (size 15 to 20)
#    0.000    1.111    4.444    1.333    3.111    5.333 
#    0.000    0.000    0.000    0.000    0.000    0.000 
#    0.000    0.000    0.000    0.000    0.000    0.000 
#
# Total GULP energy -201010.744700 kJ/mol
# GULP energy per Si atom -5583.631797 kJ/mol
# Density = 1.944705 g / cm^3
# Si number density = 19.491410 Si / 1000 Ang^3
#
#
#
# Elastic Constant Matrix: (Units=GPa)
#
#
# Indices 1 2 3 4 5 6 
#
# 1 74.2259 -5.0529 16.7488 0.0000 0.0000 0.0000
# 2 -5.0529 68.5202 32.9696 0.0000 0.0000 0.0000
# 3 16.7488 32.9696 172.0717 0.0000 0.0000 0.0000
# 4 0.0000 0.0000 0.0000 41.8227 0.0000 0.0000
# 5 0.0000 0.0000 0.0000 0.0000 24.3542 0.0000
# 6 0.0000 0.0000 0.0000 0.0000 0.0000 6.7668
#
#
#
# Elastic Compliance Matrix: (Units=1/GPa)
#
#
# Indices 1 2 3 4 5 6 
#
# 1 0.013986 0.001858 -0.001717 0.000000 0.000000 0.000000
# 2 0.001858 0.016323 -0.003308 0.000000 0.000000 0.000000
# 3 -0.001717 -0.003308 0.006613 0.000000 0.000000 0.000000
# 4 0.000000 0.000000 0.000000 0.023910 0.000000 0.000000
# 5 0.000000 0.000000 0.000000 0.000000 0.041061 0.000000
# 6 0.000000 0.000000 0.000000 0.000000 0.000000 0.147781
#
#
# Mechanical properties :
#
#
# Convention : Reuss Voigt Hill
#
# Bulk Modulus (GPa) = 32.69463 44.90542 38.80002
# Shear Modulus (GPa) = 18.78248 32.59888 25.69068
#
# Velocity S-wave (km/s) = 3.10760 4.09403 3.63444
# Velocity P-wave (km/s) = 5.44854 6.74067 6.12875
#
# Compressibility (1/GPa) = 0.03058606
#
# Stress axis : x y z
#
# Youngs Moduli (GPa) = 71.49822 61.26280 151.22662
#
# Poissons Ratio (x) = -0.11381 0.25970
# Poissons Ratio (y) = -0.13282 0.50032
# Poissons Ratio (z) = 0.12279 0.20268
#
# Static dielectric constant tensor:
#      x y z
#    x 1.699080 0.000000 0.000000 
#    y 0.000000 1.707120 0.000000 
#    z 0.000000 0.000000 1.575760 
# 
# From -- ./inp_files/11790.got.cif
#   From: 2010.05.17/outbox.cif.g08.bks.cpg/sg63_6_cif.got.tgz:11790.got - 2010.06.03 15:47:04.
