data_PCOD9475872
_publ_section_title
;
Structure prediction by ZEFSAII (Michael W. Deem and Ramdas Pophale) SiO2 
 PCOD9475872
Probable space group: C M C M
;
_chemical_formula_sum "Si O2"
_cell_formula_units_Z 36
_cell_length_a 12.480101
_cell_length_b 6.833102
_cell_length_c 14.885507
_cell_angle_alpha 90.000000
_cell_angle_beta 90.000000
_cell_angle_gamma 90.000000
_cell_volume 1269.403335
_symmetry_space_group_name_H-M "C M C M"
_symmetry_group_IT_number 63
_symmetry_cell_setting 'orthorhombic'
loop_
_space_group_symop_operation_xyz
x,y,z
-x,-y,1/2+z
x,-y,-z
-x,y,1/2-z
-x,-y,-z
x,y,1/2-z
-x,y,z
x,-y,1/2+z
1/2+x,1/2+y,z
1/2-x,1/2-y,1/2+z
1/2+x,1/2-y,-z
1/2-x,1/2+y,1/2-z
1/2-x,1/2-y,-z
1/2+x,1/2+y,1/2-z
1/2-x,1/2+y,z
1/2+x,1/2-y,1/2+z
loop_
_atom_site_type_symbol
_atom_site_label
_atom_site_fract_x
_atom_site_fract_y
_atom_site_fract_z
Si Si1 0.000000 0.500000 0.000000
Si Si2 0.846348 0.696934 0.151065
Si Si3 0.616720 0.393080 0.905208
O O1 0.093955 0.589255 0.070154
O O2 0.858612 0.603707 0.250000
O O3 0.720548 0.719949 0.126430
O O4 0.889605 0.917138 0.156359
O O5 0.500000 0.285253 0.912681
O O6 0.634119 0.500000 0.000000
#
# Coordination Sequence:
#
# PCOD9475872 Si02
#       3
#     4  16  16
#     4  12  26  44  76 102 150 196 238 302 366 432
#     4  12  26  46  74 108 149 195 246 302 364 434
#     4  11  25  47  75 106 145 192 244 305 367 431
#
# _framework density 28.359781999999999
#
# number of rings (size 3 to 8) (size 9 to 14) (size 15 to 20)
#    0.000    0.444    4.444    3.333    0.000    2.667 
#    0.000    0.000    0.000    0.000    0.000    0.000 
#    0.000    0.000    0.000    0.000    0.000    0.000 
#
# Total GULP energy -100564.755361 kJ/mol
# GULP energy per Si atom -5586.930853 kJ/mol
# Density = 2.829523 g / cm^3
# Si number density = 28.359782 Si / 1000 Ang^3
#
#
#
# Elastic Constant Matrix: (Units=GPa)
#
#
# Indices 1 2 3 4 5 6 
#
# 1 289.0612 33.5751 51.3856 0.0000 0.0000 0.0000
# 2 33.5751 57.1200 8.7306 0.0000 0.0000 0.0000
# 3 51.3856 8.7306 228.4113 0.0000 0.0000 0.0000
# 4 0.0000 0.0000 0.0000 38.6387 0.0000 0.0000
# 5 0.0000 0.0000 0.0000 0.0000 7.0266 0.0000
# 6 0.0000 0.0000 0.0000 0.0000 0.0000 51.1114
#
#
#
# Elastic Compliance Matrix: (Units=1/GPa)
#
#
# Indices 1 2 3 4 5 6 
#
# 1 0.003848 -0.002142 -0.000784 0.000000 0.000000 0.000000
# 2 -0.002142 0.018802 -0.000237 0.000000 0.000000 0.000000
# 3 -0.000784 -0.000237 0.004563 0.000000 0.000000 0.000000
# 4 0.000000 0.000000 0.000000 0.025881 0.000000 0.000000
# 5 0.000000 0.000000 0.000000 0.000000 0.142317 0.000000
# 6 0.000000 0.000000 0.000000 0.000000 0.000000 0.019565
#
#
# Mechanical properties :
#
#
# Convention : Reuss Voigt Hill
#
# Bulk Modulus (GPa) = 47.87340 84.66391 66.26865
# Shear Modulus (GPa) = 21.90448 51.41541 36.65994
#
# Velocity S-wave (km/s) = 2.78218 4.26252 3.59928
# Velocity P-wave (km/s) = 5.21902 7.35824 6.37894
#
# Compressibility (1/GPa) = 0.02088843
#
# Stress axis : x y z
#
# Youngs Moduli (GPa) = 259.90429 53.18541 219.13328
#
# Poissons Ratio (x) = 0.11391 0.17174
# Poissons Ratio (y) = 0.55667 0.05190
# Poissons Ratio (z) = 0.20369 0.01260
#
# Static dielectric constant tensor:
#      x y z
#    x 2.216050 0.000000 0.000000 
#    y 0.000000 2.027810 0.000000 
#    z 0.000000 0.000000 2.123090 
# 
# From -- ./inp_files/30519.got.cif
#   From: 2010.05.17/outbox.cif.g08.bks.cpg/sg63_16_cif.got.tgz:30519.got - 2010.06.03 15:47:04.
