data_PCOD9475830
_publ_section_title
;
Structure prediction by ZEFSAII (Michael W. Deem and Ramdas Pophale) SiO2 
 PCOD9475830
Probable space group: C M C M
;
_chemical_formula_sum "Si O2"
_cell_formula_units_Z 64
_cell_length_a 10.388457
_cell_length_b 9.935412
_cell_length_c 32.489194
_cell_angle_alpha 90.000000
_cell_angle_beta 90.000000
_cell_angle_gamma 90.000000
_cell_volume 3353.326685
_symmetry_space_group_name_H-M "C M C M"
_symmetry_group_IT_number 63
_symmetry_cell_setting 'orthorhombic'
loop_
_space_group_symop_operation_xyz
x,y,z
-x,-y,1/2+z
x,-y,-z
-x,y,1/2-z
-x,-y,-z
x,y,1/2-z
-x,y,z
x,-y,1/2+z
1/2+x,1/2+y,z
1/2-x,1/2-y,1/2+z
1/2+x,1/2-y,-z
1/2-x,1/2+y,1/2-z
1/2-x,1/2-y,-z
1/2+x,1/2+y,1/2-z
1/2-x,1/2+y,z
1/2+x,1/2-y,1/2+z
loop_
_atom_site_type_symbol
_atom_site_label
_atom_site_fract_x
_atom_site_fract_y
_atom_site_fract_z
Si Si1 0.000000 0.178429 0.543179
Si Si2 0.739745 0.750971 0.595896
Si Si3 0.500000 0.643170 0.446102
Si Si4 0.259644 0.998255 0.652936
Si Si5 0.000000 0.386623 0.201588
Si Si6 0.500000 0.564280 0.200804
O O1 0.874041 0.246729 0.562671
O O2 0.000000 0.184596 0.493948
O O3 0.000000 0.019595 0.555228
O O4 0.873521 0.798862 0.575973
O O5 0.711021 0.853992 0.632915
O O6 0.749826 0.603845 0.615672
O O7 0.127120 0.991442 0.678451
O O8 0.374459 0.048623 0.681510
O O9 0.000000 0.410135 0.250000
O O10 0.000000 0.225894 0.194523
O O11 0.500000 0.537791 0.250000
#
# Coordination Sequence:
#
# PCOD9475830 Si02
#       6
#     8  16   8  16   8   8
#     4  11  24  43  66  95 132 171 211 264 324 381
#     4  12  23  43  68  95 129 168 216 263 316 379
#     4  11  24  44  64  96 134 167 211 268 324 377
#     4  12  23  43  68  95 129 168 216 262 316 380
#     4  11  24  43  65  96 132 167 210 266 319 377
#     4  11  24  44  65  95 134 169 208 264 325 377
#
# _framework density 19.085523999999999
#
# number of rings (size 3 to 8) (size 9 to 14) (size 15 to 20)
#    0.000    0.500    5.000    4.500    0.000    0.000 
#    0.000    2.500    0.000    0.000    0.000    0.000 
#    0.000    0.000    0.000    0.000    0.000    0.000 
#
# Total GULP energy -179051.946812 kJ/mol
# GULP energy per Si atom -5595.373338 kJ/mol
# Density = 1.904208 g / cm^3
# Si number density = 19.085524 Si / 1000 Ang^3
#
#
#
# Elastic Constant Matrix: (Units=GPa)
#
#
# Indices 1 2 3 4 5 6 
#
# 1 173.9775 25.8009 74.8449 0.0000 0.0000 0.0000
# 2 25.8009 31.1425 9.5508 0.0000 0.0000 0.0000
# 3 74.8449 9.5508 89.6320 0.0000 0.0000 0.0000
# 4 0.0000 0.0000 0.0000 35.4534 0.0000 0.0000
# 5 0.0000 0.0000 0.0000 0.0000 100.4291 0.0000
# 6 0.0000 0.0000 0.0000 0.0000 0.0000 20.2564
#
#
#
# Elastic Compliance Matrix: (Units=1/GPa)
#
#
# Indices 1 2 3 4 5 6 
#
# 1 0.009908 -0.005863 -0.007648 0.000000 0.000000 0.000000
# 2 -0.005863 0.036664 0.000989 0.000000 0.000000 0.000000
# 3 -0.007648 0.000989 0.017438 0.000000 0.000000 0.000000
# 4 0.000000 0.000000 0.000000 0.028206 0.000000 0.000000
# 5 0.000000 0.000000 0.000000 0.000000 0.009957 0.000000
# 6 0.000000 0.000000 0.000000 0.000000 0.000000 0.049367
#
#
# Mechanical properties :
#
#
# Convention : Reuss Voigt Hill
#
# Bulk Modulus (GPa) = 25.66393 57.23836 41.45114
# Shear Modulus (GPa) = 26.37495 43.53146 34.95320
#
# Velocity S-wave (km/s) = 3.72147 4.78102 4.28413
# Velocity P-wave (km/s) = 5.65171 7.78030 6.79981
#
# Compressibility (1/GPa) = 0.03896520
#
# Stress axis : x y z
#
# Youngs Moduli (GPa) = 100.93205 27.27441 57.34595
#
# Poissons Ratio (x) = 0.15990 0.43861
# Poissons Ratio (y) = 0.59173 -0.05670
# Poissons Ratio (z) = 0.77197 -0.02697
#
# Static dielectric constant tensor:
#      x y z
#    x 1.626090 0.000000 0.000000 
#    y 0.000000 1.636880 0.000000 
#    z 0.000000 0.000000 1.646030 
# 
# From -- ./inp_files/72406.got.cif
#   From: 2010.05.17/outbox.cif.g08.bks.cpg/sg63_37_cif.got.tgz:72406.got - 2010.06.03 15:47:04.
