data_PCOD9475820
_publ_section_title
;
Structure prediction by ZEFSAII (Michael W. Deem and Ramdas Pophale) SiO2 
 PCOD9475820
Probable space group: C M C M
;
_chemical_formula_sum "Si O2"
_cell_formula_units_Z 96
_cell_length_a 20.084319
_cell_length_b 14.863740
_cell_length_c 15.905266
_cell_angle_alpha 90.000000
_cell_angle_beta 90.000000
_cell_angle_gamma 90.000000
_cell_volume 4748.168770
_symmetry_space_group_name_H-M "C M C M"
_symmetry_group_IT_number 63
_symmetry_cell_setting 'orthorhombic'
loop_
_space_group_symop_operation_xyz
x,y,z
-x,-y,1/2+z
x,-y,-z
-x,y,1/2-z
-x,-y,-z
x,y,1/2-z
-x,y,z
x,-y,1/2+z
1/2+x,1/2+y,z
1/2-x,1/2-y,1/2+z
1/2+x,1/2-y,-z
1/2-x,1/2+y,1/2-z
1/2-x,1/2-y,-z
1/2+x,1/2+y,1/2-z
1/2-x,1/2+y,z
1/2+x,1/2-y,1/2+z
loop_
_atom_site_type_symbol
_atom_site_label
_atom_site_fract_x
_atom_site_fract_y
_atom_site_fract_z
Si Si1 0.729761 0.165200 0.654289
Si Si2 0.077611 0.929807 0.250000
Si Si3 0.125146 0.812182 0.401813
Si Si4 0.663562 0.323692 0.587513
Si Si5 0.075044 0.623783 0.351223
Si Si6 0.421100 0.638908 0.250000
Si Si7 0.785278 0.534245 0.404412
O O1 0.711291 0.188350 0.750000
O O2 0.801162 0.206686 0.632942
O O3 0.684473 0.218255 0.587748
O O4 0.730812 0.057754 0.645799
O O5 0.101752 0.885845 0.335860
O O6 0.000000 0.916618 0.250000
O O7 0.093479 0.033363 0.250000
O O8 0.132346 0.845416 0.497111
O O9 0.082363 0.722266 0.392403
O O10 0.612617 0.328703 0.664297
O O11 0.727117 0.389936 0.603892
O O12 0.078912 0.633983 0.250000
O O13 0.140927 0.569046 0.379458
O O14 0.000000 0.587648 0.370349
O O15 0.500000 0.655720 0.250000
O O16 0.785721 0.500000 0.500000
#
# Coordination Sequence:
#
# PCOD9475820 Si02
#       7
#    16   8  16  16  16   8  16
#     4  12  23  40  68 102 132 176 230 290 343 404
#     4  11  24  41  66 101 133 173 227 278 343 414
#     4  12  22  41  69 103 134 173 230 291 346 402
#     4  12  26  46  69 100 139 180 233 292 343 416
#     4  11  24  43  68 102 144 186 230 285 350 415
#     4  11  28  47  66  95 140 191 231 282 362 424
#     4  12  25  42  68 106 139 178 236 290 346 417
#
# _framework density 20.218321
#
# number of rings (size 3 to 8) (size 9 to 14) (size 15 to 20)
#    0.000    0.333    5.833    3.500    2.333    1.667 
#    0.000    2.500    0.000    0.000    0.000    0.000 
#    0.000    0.000    0.000    0.000    0.000    0.000 
#
# Total GULP energy -268002.231051 kJ/mol
# GULP energy per Si atom -5583.379814 kJ/mol
# Density = 2.017230 g / cm^3
# Si number density = 20.218321 Si / 1000 Ang^3
#
#
#
# Elastic Constant Matrix: (Units=GPa)
#
#
# Indices 1 2 3 4 5 6 
#
# 1 130.7536 26.0174 39.3205 0.0000 0.0000 0.0000
# 2 26.0174 74.4131 13.2119 0.0000 0.0000 0.0000
# 3 39.3205 13.2119 97.7634 0.0000 0.0000 0.0000
# 4 0.0000 0.0000 0.0000 33.8661 0.0000 0.0000
# 5 0.0000 0.0000 0.0000 0.0000 25.6001 0.0000
# 6 0.0000 0.0000 0.0000 0.0000 0.0000 44.5161
#
#
#
# Elastic Compliance Matrix: (Units=1/GPa)
#
#
# Indices 1 2 3 4 5 6 
#
# 1 0.009171 -0.002614 -0.003335 0.000000 0.000000 0.000000
# 2 -0.002614 0.014514 -0.000910 0.000000 0.000000 0.000000
# 3 -0.003335 -0.000910 0.011693 0.000000 0.000000 0.000000
# 4 0.000000 0.000000 0.000000 0.029528 0.000000 0.000000
# 5 0.000000 0.000000 0.000000 0.000000 0.039062 0.000000
# 6 0.000000 0.000000 0.000000 0.000000 0.000000 0.022464
#
#
# Mechanical properties :
#
#
# Convention : Reuss Voigt Hill
#
# Bulk Modulus (GPa) = 46.16978 51.11439 48.64208
# Shear Modulus (GPa) = 33.92778 35.75515 34.84146
#
# Velocity S-wave (km/s) = 4.10087 4.20986 4.15572
# Velocity P-wave (km/s) = 6.73112 6.99762 6.86566
#
# Compressibility (1/GPa) = 0.02165919
#
# Stress axis : x y z
#
# Youngs Moduli (GPa) = 109.03701 68.89840 85.51956
#
# Poissons Ratio (x) = 0.18013 0.28524
# Poissons Ratio (y) = 0.28506 0.07782
# Poissons Ratio (z) = 0.36368 0.06269
#
# Static dielectric constant tensor:
#      x y z
#    x 1.811030 0.000000 0.000000 
#    y 0.000000 1.716130 0.000000 
#    z 0.000000 0.000000 1.958620 
# 
# From -- ./inp_files/35432.got.cif
#   From: 2010.05.17/outbox.cif.g08.bks.cpg/sg63_18_cif.got.tgz:35432.got - 2010.06.03 15:47:04.
