data_PCOD9475601
_publ_section_title
;
Structure prediction by ZEFSAII (Michael W. Deem and Ramdas Pophale) SiO2 
 PCOD9475601
Probable space group: C M C M
;
_chemical_formula_sum "Si O2"
_cell_formula_units_Z 68
_cell_length_a 20.917108
_cell_length_b 10.221468
_cell_length_c 13.760795
_cell_angle_alpha 90.000000
_cell_angle_beta 90.000000
_cell_angle_gamma 90.000000
_cell_volume 2942.106823
_symmetry_space_group_name_H-M "C M C M"
_symmetry_group_IT_number 63
_symmetry_cell_setting 'orthorhombic'
loop_
_space_group_symop_operation_xyz
x,y,z
-x,-y,1/2+z
x,-y,-z
-x,y,1/2-z
-x,-y,-z
x,y,1/2-z
-x,y,z
x,-y,1/2+z
1/2+x,1/2+y,z
1/2-x,1/2-y,1/2+z
1/2+x,1/2-y,-z
1/2-x,1/2+y,1/2-z
1/2-x,1/2-y,-z
1/2+x,1/2+y,1/2-z
1/2-x,1/2+y,z
1/2+x,1/2-y,1/2+z
loop_
_atom_site_type_symbol
_atom_site_label
_atom_site_fract_x
_atom_site_fract_y
_atom_site_fract_z
Si Si1 0.571421 0.843337 0.431085
Si Si2 0.880934 0.395970 0.855706
Si Si3 0.252500 0.622839 0.070386
Si Si4 0.605239 0.443707 0.607675
Si Si5 0.000000 0.048339 0.750000
O O1 0.500000 0.894808 0.420508
O O2 0.588567 0.837306 0.545750
O O3 0.575579 0.700640 0.387065
O O4 0.614379 0.948276 0.375415
O O5 0.909592 0.363209 0.750000
O O6 0.806935 0.358704 0.858708
O O7 0.319073 0.586934 0.123835
O O8 0.239008 0.500000 0.000000
O O9 0.250000 0.750000 0.000000
O O10 0.604674 0.500000 0.500000
O O11 0.557993 0.535406 0.667962
#
# Coordination Sequence:
#
# PCOD9475601 Si02
#       5
#    16  16  16  16   4
#     4  11  23  44  68  96 139 185 220 289 353 412
#     4  11  23  40  66 101 135 171 231 284 345 414
#     4  11  21  44  70  96 140 182 226 289 355 408
#     4  11  25  44  69  98 138 180 232 285 344 422
#     4  12  26  44  68 100 134 186 244 274 352 424
#
# _framework density 23.112687999999999
#
# number of rings (size 3 to 8) (size 9 to 14) (size 15 to 20)
#    0.000    0.941    5.882    1.765    3.294    1.882 
#    2.118    1.176    0.000    0.000    0.000    0.000 
#    0.000    0.000    0.000    0.000    0.000    0.000 
#
# Total GULP energy -189302.796087 kJ/mol
# GULP energy per Si atom -5567.729297 kJ/mol
# Density = 2.306008 g / cm^3
# Si number density = 23.112688 Si / 1000 Ang^3
#
#
#
# Elastic Constant Matrix: (Units=GPa)
#
#
# Indices 1 2 3 4 5 6 
#
# 1 133.7157 -27.2966 14.6971 0.0000 0.0000 0.0000
# 2 -27.2966 59.7506 -13.7808 0.0000 0.0000 0.0000
# 3 14.6971 -13.7808 98.7810 0.0000 0.0000 0.0000
# 4 0.0000 0.0000 0.0000 -9.9180 0.0000 0.0000
# 5 0.0000 0.0000 0.0000 0.0000 26.3329 0.0000
# 6 0.0000 0.0000 0.0000 0.0000 0.0000 -319.5577
#
#
#
# Elastic Compliance Matrix: (Units=1/GPa)
#
#
# Indices 1 2 3 4 5 6 
#
# 1 0.008298 0.003623 -0.000729 0.000000 0.000000 0.000000
# 2 0.003623 0.018874 0.002094 0.000000 0.000000 0.000000
# 3 -0.000729 0.002094 0.010524 0.000000 0.000000 0.000000
# 4 0.000000 0.000000 0.000000 -0.100827 0.000000 0.000000
# 5 0.000000 0.000000 0.000000 0.000000 0.037975 0.000000
# 6 0.000000 0.000000 0.000000 0.000000 0.000000 -0.003129
#
#
# Mechanical properties :
#
#
# Convention : Reuss Voigt Hill
#
# Bulk Modulus (GPa) = 20.97669 26.60962 23.79315
# Shear Modulus (GPa) = -223.52270 -39.38670 -131.45470
#
# Velocity S-wave (km/s) = -9.84479 -4.13257 -7.54977
# Velocity P-wave (km/s) = 10.96043 3.35155 8.10444
#
# Compressibility (1/GPa) = 0.04767196
#
# Stress axis : x y z
#
# Youngs Moduli (GPa) = 120.50713 52.98216 95.02044
#
# Poissons Ratio (x) = -0.19194 0.06929
# Poissons Ratio (y) = -0.43657 -0.19898
# Poissons Ratio (z) = 0.08788 -0.11095
#
# Static dielectric constant tensor:
#      x y z
#    x 1.918940 0.000000 0.000000 
#    y 0.000000 1.874760 0.000000 
#    z 0.000000 0.000000 1.880830 
# 
# From -- ./inp_files/34981.got.cif
#   From: 2010.05.17/outbox.cif.g08.bks.cpg/sg63_18_cif.got.tgz:34981.got - 2010.06.03 15:47:04.
