data_PCOD9475377
_publ_section_title
;
Structure prediction by ZEFSAII (Michael W. Deem and Ramdas Pophale) SiO2 
 PCOD9475377
Probable space group: C M C M
;
_chemical_formula_sum "Si O2"
_cell_formula_units_Z 84
_cell_length_a 8.174462
_cell_length_b 24.304926
_cell_length_c 22.158223
_cell_angle_alpha 90.000000
_cell_angle_beta 90.000000
_cell_angle_gamma 90.000000
_cell_volume 4402.388965
_symmetry_space_group_name_H-M "C M C M"
_symmetry_group_IT_number 63
_symmetry_cell_setting 'orthorhombic'
loop_
_space_group_symop_operation_xyz
x,y,z
-x,-y,1/2+z
x,-y,-z
-x,y,1/2-z
-x,-y,-z
x,y,1/2-z
-x,y,z
x,-y,1/2+z
1/2+x,1/2+y,z
1/2-x,1/2-y,1/2+z
1/2+x,1/2-y,-z
1/2-x,1/2+y,1/2-z
1/2-x,1/2-y,-z
1/2+x,1/2+y,1/2-z
1/2-x,1/2+y,z
1/2+x,1/2-y,1/2+z
loop_
_atom_site_type_symbol
_atom_site_label
_atom_site_fract_x
_atom_site_fract_y
_atom_site_fract_z
Si Si1 0.308252 0.563896 0.494618
Si Si2 0.311384 0.870906 0.617096
Si Si3 0.306707 0.911652 0.750000
Si Si4 0.500000 0.508997 0.250000
Si Si5 0.813458 0.632661 0.893900
Si Si6 0.809639 0.242341 0.431993
Si Si7 0.500000 0.403486 0.318313
O O1 0.256348 0.500000 0.500000
O O2 0.500000 0.566360 0.511282
O O3 0.287199 0.589193 0.427891
O O4 0.212004 0.602589 0.541599
O O5 0.500000 0.885408 0.606741
O O6 0.277595 0.878993 0.687811
O O7 0.283001 0.807856 0.598840
O O8 0.500000 0.928991 0.750000
O O9 0.168475 0.958087 0.750000
O O10 0.500000 0.468943 0.307773
O O11 0.793719 0.698243 0.901352
O O12 0.665841 0.612655 0.852002
O O13 0.000000 0.621455 0.872999
O O14 0.750000 0.250000 0.500000
O O15 0.000000 0.226928 0.432712
O O16 0.500000 0.380054 0.250000
#
# Coordination Sequence:
#
# PCOD9475377 Si02
#       7
#    16  16   8   4  16  16   8
#     4  11  24  38  63  96 132 171 221 280 340 399
#     4  11  24  42  64  98 133 176 226 276 343 403
#     4  10  26  46  67  99 137 181 228 277 331 408
#     4  10  26  46  74  92 136 176 236 268 344 392
#     4  11  24  43  66  97 135 172 222 277 340 404
#     4  11  23  39  64  97 129 174 220 278 337 400
#     4  10  26  46  66 101 125 181 222 270 334 403
#
# _framework density 19.080551
#
# number of rings (size 3 to 8) (size 9 to 14) (size 15 to 20)
#    0.286    0.952    2.857    1.714    8.000    2.667 
#    1.714    0.000    0.000    0.000    0.000    0.000 
#    0.000    0.000    0.000    0.000    0.000    0.000 
#
# Total GULP energy -234492.766248 kJ/mol
# GULP energy per Si atom -5583.161101 kJ/mol
# Density = 1.903712 g / cm^3
# Si number density = 19.080551 Si / 1000 Ang^3
#
#
#
# Elastic Constant Matrix: (Units=GPa)
#
#
# Indices 1 2 3 4 5 6 
#
# 1 94.6087 41.1824 56.7089 0.0000 0.0000 0.0000
# 2 41.1824 100.4452 43.2126 0.0000 0.0000 0.0000
# 3 56.7089 43.2126 118.3690 0.0000 0.0000 0.0000
# 4 0.0000 0.0000 0.0000 31.0314 0.0000 0.0000
# 5 0.0000 0.0000 0.0000 0.0000 33.7923 0.0000
# 6 0.0000 0.0000 0.0000 0.0000 0.0000 30.2977
#
#
#
# Elastic Compliance Matrix: (Units=1/GPa)
#
#
# Indices 1 2 3 4 5 6 
#
# 1 0.016003 -0.003871 -0.006254 0.000000 0.000000 0.000000
# 2 -0.003871 0.012747 -0.002799 0.000000 0.000000 0.000000
# 3 -0.006254 -0.002799 0.012466 0.000000 0.000000 0.000000
# 4 0.000000 0.000000 0.000000 0.032225 0.000000 0.000000
# 5 0.000000 0.000000 0.000000 0.000000 0.029593 0.000000
# 6 0.000000 0.000000 0.000000 0.000000 0.000000 0.033006
#
#
# Mechanical properties :
#
#
# Convention : Reuss Voigt Hill
#
# Bulk Modulus (GPa) = 65.06633 66.18118 65.62375
# Shear Modulus (GPa) = 29.93819 30.51220 30.22519
#
# Velocity S-wave (km/s) = 3.96541 4.00325 3.98437
# Velocity P-wave (km/s) = 7.42569 7.49189 7.45886
#
# Compressibility (1/GPa) = 0.01536893
#
# Stress axis : x y z
#
# Youngs Moduli (GPa) = 62.48663 78.45045 80.21750
#
# Poissons Ratio (x) = 0.30367 0.50167
# Poissons Ratio (y) = 0.24188 0.22453
# Poissons Ratio (z) = 0.39078 0.21958
#
# Static dielectric constant tensor:
#      x y z
#    x 1.600630 0.000000 0.000000 
#    y 0.000000 1.649800 0.000000 
#    z 0.000000 0.000000 1.660710 
# 
# From -- ./inp_files/50974.got.cif
#   From: 2010.05.17/outbox.cif.g08.bks.cpg/sg63_26_cif.got.tgz:50974.got - 2010.06.03 15:47:04.
