data_PCOD9475708
_publ_section_title
;
Structure prediction by ZEFSAII (Michael W. Deem and Ramdas Pophale) SiO2 
 PCOD9475708
Probable space group: C M C M
;
_chemical_formula_sum "Si O2"
_cell_formula_units_Z 64
_cell_length_a 8.803104
_cell_length_b 23.183167
_cell_length_c 16.317791
_cell_angle_alpha 90.000000
_cell_angle_beta 90.000000
_cell_angle_gamma 90.000000
_cell_volume 3330.197287
_symmetry_space_group_name_H-M "C M C M"
_symmetry_group_IT_number 63
_symmetry_cell_setting 'orthorhombic'
loop_
_space_group_symop_operation_xyz
x,y,z
-x,-y,1/2+z
x,-y,-z
-x,y,1/2-z
-x,-y,-z
x,y,1/2-z
-x,y,z
x,-y,1/2+z
1/2+x,1/2+y,z
1/2-x,1/2-y,1/2+z
1/2+x,1/2-y,-z
1/2-x,1/2+y,1/2-z
1/2-x,1/2-y,-z
1/2+x,1/2+y,1/2-z
1/2-x,1/2+y,z
1/2+x,1/2-y,1/2+z
loop_
_atom_site_type_symbol
_atom_site_label
_atom_site_fract_x
_atom_site_fract_y
_atom_site_fract_z
Si Si1 0.677225 0.911876 0.937013
Si Si2 0.324011 0.967215 0.382346
Si Si3 0.318265 0.712991 0.423458
Si Si4 0.178461 0.112028 0.750000
Si Si5 0.184694 0.756613 0.250000
O O1 0.500000 0.898313 0.917687
O O2 0.774150 0.854153 0.934809
O O3 0.728843 0.966193 0.881748
O O4 0.679472 0.940039 0.027160
O O5 0.500000 0.967850 0.356240
O O6 0.230877 0.924634 0.326867
O O7 0.500000 0.720787 0.422598
O O8 0.250000 0.750000 0.500000
O O9 0.247876 0.730588 0.335158
O O10 0.238536 0.176862 0.750000
O O11 0.000000 0.117604 0.750000
O O12 0.000000 0.752419 0.250000
#
# Coordination Sequence:
#
# PCOD9475708 Si02
#       5
#    16  16  16   8   8
#     4   9  19  38  61  86 114 149 194 240 288 350
#     4   9  19  36  60  85 112 149 190 233 289 352
#     4  12  25  41  63  91 123 163 204 249 304 360
#     4  11  23  36  55  84 115 146 188 239 292 345
#     4  11  25  44  63  88 121 160 206 255 302 357
#
# _framework density 19.218081000000002
#
# number of rings (size 3 to 8) (size 9 to 14) (size 15 to 20)
#    0.000    1.750    0.000    6.000    0.000    9.000 
#    0.000    3.750    0.000    0.000    0.000    0.000 
#    0.000    0.000    0.000    0.000    0.000    0.000 
#
# Total GULP energy -178569.156448 kJ/mol
# GULP energy per Si atom -5580.286139 kJ/mol
# Density = 1.917434 g / cm^3
# Si number density = 19.218081 Si / 1000 Ang^3
#
#
#
# Elastic Constant Matrix: (Units=GPa)
#
#
# Indices 1 2 3 4 5 6 
#
# 1 91.0324 55.7586 45.1817 0.0000 0.0000 0.0000
# 2 55.7586 157.4210 54.8565 0.0000 0.0000 0.0000
# 3 45.1817 54.8565 97.3123 0.0000 0.0000 0.0000
# 4 0.0000 0.0000 0.0000 3.3068 0.0000 0.0000
# 5 0.0000 0.0000 0.0000 0.0000 53.8953 0.0000
# 6 0.0000 0.0000 0.0000 0.0000 0.0000 35.1358
#
#
#
# Elastic Compliance Matrix: (Units=1/GPa)
#
#
# Indices 1 2 3 4 5 6 
#
# 1 0.015923 -0.003813 -0.005244 0.000000 0.000000 0.000000
# 2 -0.003813 0.008818 -0.003201 0.000000 0.000000 0.000000
# 3 -0.005244 -0.003201 0.014515 0.000000 0.000000 0.000000
# 4 0.000000 0.000000 0.000000 0.302409 0.000000 0.000000
# 5 0.000000 0.000000 0.000000 0.000000 0.018555 0.000000
# 6 0.000000 0.000000 0.000000 0.000000 0.000000 0.028461
#
#
# Mechanical properties :
#
#
# Convention : Reuss Voigt Hill
#
# Bulk Modulus (GPa) = 67.83312 73.03996 70.43654
# Shear Modulus (GPa) = 11.95859 31.13215 21.54537
#
# Velocity S-wave (km/s) = 2.49722 4.02922 3.35191
# Velocity P-wave (km/s) = 6.60968 7.72881 7.19105
#
# Compressibility (1/GPa) = 0.01474206
#
# Stress axis : x y z
#
# Youngs Moduli (GPa) = 62.80222 113.40172 68.89344
#
# Poissons Ratio (x) = 0.43236 0.36126
# Poissons Ratio (y) = 0.23944 0.22051
# Poissons Ratio (z) = 0.32932 0.36297
#
# Static dielectric constant tensor:
#      x y z
#    x 1.656490 0.000000 0.000000 
#    y 0.000000 1.664320 0.000000 
#    z 0.000000 0.000000 1.682620 
# 
# From -- ./inp_files/39857.got.cif
#   From: 2010.05.17/outbox.cif.g08.bks.cpg/sg63_20_cif.got.tgz:39857.got - 2010.06.03 15:47:04.
