data_PCOD9475449
_publ_section_title
;
Structure prediction by ZEFSAII (Michael W. Deem and Ramdas Pophale) SiO2 
 PCOD9475449
Probable space group: C M C M
;
_chemical_formula_sum "Si O2"
_cell_formula_units_Z 116
_cell_length_a 15.055000
_cell_length_b 19.680582
_cell_length_c 18.773041
_cell_angle_alpha 90.000000
_cell_angle_beta 90.000000
_cell_angle_gamma 90.000000
_cell_volume 5562.286132
_symmetry_space_group_name_H-M "C M C M"
_symmetry_group_IT_number 63
_symmetry_cell_setting 'orthorhombic'
loop_
_space_group_symop_operation_xyz
x,y,z
-x,-y,1/2+z
x,-y,-z
-x,y,1/2-z
-x,-y,-z
x,y,1/2-z
-x,y,z
x,-y,1/2+z
1/2+x,1/2+y,z
1/2-x,1/2-y,1/2+z
1/2+x,1/2-y,-z
1/2-x,1/2+y,1/2-z
1/2-x,1/2-y,-z
1/2+x,1/2+y,1/2-z
1/2-x,1/2+y,z
1/2+x,1/2-y,1/2+z
loop_
_atom_site_type_symbol
_atom_site_label
_atom_site_fract_x
_atom_site_fract_y
_atom_site_fract_z
Si Si1 0.000000 0.053522 0.750000
Si Si2 0.156301 0.377895 0.333057
Si Si3 0.284509 0.133587 0.416512
Si Si4 0.602210 0.802224 0.038215
Si Si5 0.402783 0.232038 0.332794
Si Si6 0.599339 0.989763 0.584773
Si Si7 0.600730 0.358107 0.520937
Si Si8 0.635265 0.610766 0.860240
O O1 0.922547 0.060623 0.687381
O O2 0.134336 0.372256 0.250000
O O3 0.128673 0.312332 0.379549
O O4 0.108777 0.440797 0.372083
O O5 0.261013 0.391350 0.342427
O O6 0.328943 0.153025 0.492860
O O7 0.320310 0.195396 0.369190
O O8 0.329874 0.065093 0.389804
O O9 0.180258 0.124409 0.425952
O O10 0.500000 0.824685 0.028867
O O11 0.608156 0.724158 0.013200
O O12 0.402435 0.214520 0.250000
O O13 0.500000 0.211572 0.363265
O O14 0.396098 0.312962 0.339548
O O15 0.500000 0.962532 0.594434
O O16 0.612847 0.000000 0.500000
O O17 0.500000 0.372772 0.544024
O O18 0.618695 0.393286 0.444881
#
# Coordination Sequence:
#
# PCOD9475449 Si02
#       8
#     4  16  16  16  16  16  16  16
#     4  12  20  32  60  88 124 164 200 252 316 358
#     4  12  25  39  61  88 125 159 203 252 311 363
#     4  12  22  37  62  86 118 157 208 245 302 362
#     4  11  21  35  59  93 123 161 199 244 304 370
#     4  11  20  33  55  90 126 154 192 250 307 362
#     4  11  23  41  61  81 111 156 201 246 291 352
#     4  11  22  36  61  91 126 159 202 249 299 370
#     4  12  19  35  57  88 125 161 195 249 306 360
#
# _framework density 20.854735000000002
#
# number of rings (size 3 to 8) (size 9 to 14) (size 15 to 20)
#    0.000    0.552    6.897    2.897    0.000    1.655 
#    0.000    0.000    1.517    2.483    0.000    0.000 
#    0.000    0.000    0.000    0.000    0.000    0.000 
#
# Total GULP energy -323740.536514 kJ/mol
# GULP energy per Si atom -5581.733388 kJ/mol
# Density = 2.080727 g / cm^3
# Si number density = 20.854735 Si / 1000 Ang^3
#
#
#
# Elastic Constant Matrix: (Units=GPa)
#
#
# Indices 1 2 3 4 5 6 
#
# 1 123.2729 -2.2175 14.3137 0.0000 0.0000 0.0000
# 2 -2.2175 15.6206 -8.7270 0.0000 0.0000 0.0000
# 3 14.3137 -8.7270 84.1597 0.0000 0.0000 0.0000
# 4 0.0000 0.0000 0.0000 12.7529 0.0000 0.0000
# 5 0.0000 0.0000 0.0000 0.0000 53.5217 0.0000
# 6 0.0000 0.0000 0.0000 0.0000 0.0000 36.7854
#
#
#
# Elastic Compliance Matrix: (Units=1/GPa)
#
#
# Indices 1 2 3 4 5 6 
#
# 1 0.008278 0.000412 -0.001365 0.000000 0.000000 0.000000
# 2 0.000412 0.067975 0.006979 0.000000 0.000000 0.000000
# 3 -0.001365 0.006979 0.012838 0.000000 0.000000 0.000000
# 4 0.000000 0.000000 0.000000 0.078413 0.000000 0.000000
# 5 0.000000 0.000000 0.000000 0.000000 0.018684 0.000000
# 6 0.000000 0.000000 0.000000 0.000000 0.000000 0.027185
#
#
# Mechanical properties :
#
#
# Convention : Reuss Voigt Hill
#
# Bulk Modulus (GPa) = 9.88696 25.53240 17.70968
# Shear Modulus (GPa) = 21.27333 35.25760 28.26547
#
# Velocity S-wave (km/s) = 3.19732 4.11619 3.68550
# Velocity P-wave (km/s) = 4.28738 5.90425 5.15955
#
# Compressibility (1/GPa) = 0.10114333
#
# Stress axis : x y z
#
# Youngs Moduli (GPa) = 120.80195 14.71120 77.89375
#
# Poissons Ratio (x) = -0.00607 0.10634
# Poissons Ratio (y) = -0.04983 -0.54359
# Poissons Ratio (z) = 0.16491 -0.10266
#
# Static dielectric constant tensor:
#      x y z
#    x 1.765720 0.000000 0.000000 
#    y 0.000000 1.766170 0.000000 
#    z 0.000000 0.000000 1.764550 
# 
# From -- ./inp_files/44649.got.cif
#   From: 2010.05.17/outbox.cif.g08.bks.cpg/sg63_23_cif.got.tgz:44649.got - 2010.06.03 15:47:04.
