data_PCOD9475845
_publ_section_title
;
Structure prediction by ZEFSAII (Michael W. Deem and Ramdas Pophale) SiO2 
 PCOD9475845
Probable space group: C M C M
;
_chemical_formula_sum "Si O2"
_cell_formula_units_Z 108
_cell_length_a 27.912321
_cell_length_b 10.217904
_cell_length_c 15.206146
_cell_angle_alpha 90.000000
_cell_angle_beta 90.000000
_cell_angle_gamma 90.000000
_cell_volume 4336.875202
_symmetry_space_group_name_H-M "C M C M"
_symmetry_group_IT_number 63
_symmetry_cell_setting 'orthorhombic'
loop_
_space_group_symop_operation_xyz
x,y,z
-x,-y,1/2+z
x,-y,-z
-x,y,1/2-z
-x,-y,-z
x,y,1/2-z
-x,y,z
x,-y,1/2+z
1/2+x,1/2+y,z
1/2-x,1/2-y,1/2+z
1/2+x,1/2-y,-z
1/2-x,1/2+y,1/2-z
1/2-x,1/2-y,-z
1/2+x,1/2+y,1/2-z
1/2-x,1/2+y,z
1/2+x,1/2-y,1/2+z
loop_
_atom_site_type_symbol
_atom_site_label
_atom_site_fract_x
_atom_site_fract_y
_atom_site_fract_z
Si Si1 0.446326 0.113946 0.353466
Si Si2 0.678092 0.142718 0.750000
Si Si3 0.274277 0.984030 0.894505
Si Si4 0.647234 0.781178 0.911030
Si Si5 0.567942 0.572120 0.090727
Si Si6 0.000000 0.002403 0.250000
Si Si7 0.399705 0.844672 0.406383
Si Si8 0.828225 0.002427 0.854618
O O1 0.448320 0.085075 0.250000
O O2 0.500000 0.151184 0.382002
O O3 0.405150 0.222091 0.366235
O O4 0.426731 0.983297 0.399743
O O5 0.636078 0.164699 0.825026
O O6 0.717009 0.105101 0.671015
O O7 0.317960 0.888203 0.868596
O O8 0.221502 0.930103 0.872944
O O9 0.276160 0.000000 0.000000
O O10 0.673049 0.643598 0.901278
O O11 0.633467 0.827411 0.008136
O O12 0.540995 0.510527 0.172475
O O13 0.561200 0.728637 0.089911
O O14 0.624915 0.562100 0.105417
O O15 0.556112 0.500000 0.000000
O O16 0.834003 0.014856 0.750000
#
# Coordination Sequence:
#
# PCOD9475845 Si02
#       8
#    16   8  16  16  16   4  16  16
#     4  11  24  44  74 111 148 194 253 316 392 470
#     4  12  23  45  72 116 143 202 260 312 388 468
#     4  12  25  47  73 108 153 199 256 316 391 456
#     4  12  25  48  73 107 156 202 254 327 394 461
#     4  12  27  53  74 115 152 200 264 325 393 469
#     4  12  28  50  86 102 154 208 262 328 392 468
#     4  12  24  44  79 102 155 197 251 325 382 467
#     4  12  28  48  74 107 153 206 259 322 391 473
#
# _framework density 24.902723000000002
#
# number of rings (size 3 to 8) (size 9 to 14) (size 15 to 20)
#    0.000    0.148    6.667    2.000    2.074    2.963 
#    1.333    0.000    0.000    0.000    0.000    0.000 
#    0.000    0.000    0.000    0.000    0.000    0.000 
#
# Total GULP energy -300937.867546 kJ/mol
# GULP energy per Si atom -5572.923473 kJ/mol
# Density = 2.484604 g / cm^3
# Si number density = 24.902723 Si / 1000 Ang^3
#
#
#
# Elastic Constant Matrix: (Units=GPa)
#
#
# Indices 1 2 3 4 5 6 
#
# 1 168.9953 22.8528 46.9248 0.0000 0.0000 0.0000
# 2 22.8528 45.3534 5.8633 0.0000 0.0000 0.0000
# 3 46.9248 5.8633 187.8243 0.0000 0.0000 0.0000
# 4 0.0000 0.0000 0.0000 28.2375 0.0000 0.0000
# 5 0.0000 0.0000 0.0000 0.0000 53.6877 0.0000
# 6 0.0000 0.0000 0.0000 0.0000 0.0000 -18.9248
#
#
#
# Elastic Compliance Matrix: (Units=1/GPa)
#
#
# Indices 1 2 3 4 5 6 
#
# 1 0.006796 -0.003218 -0.001597 0.000000 0.000000 0.000000
# 2 -0.003218 0.023662 0.000065 0.000000 0.000000 0.000000
# 3 -0.001597 0.000065 0.005721 0.000000 0.000000 0.000000
# 4 0.000000 0.000000 0.000000 0.035414 0.000000 0.000000
# 5 0.000000 0.000000 0.000000 0.000000 0.018626 0.000000
# 6 0.000000 0.000000 0.000000 0.000000 0.000000 -0.052841
#
#
# Mechanical properties :
#
#
# Convention : Reuss Voigt Hill
#
# Bulk Modulus (GPa) = 37.48236 61.49496 49.48866
# Shear Modulus (GPa) = 89.65113 34.36890 62.01001
#
# Velocity S-wave (km/s) = 6.00655 3.71904 4.99549
# Velocity P-wave (km/s) = 7.94916 6.57186 7.29309
#
# Compressibility (1/GPa) = 0.02667922
#
# Stress axis : x y z
#
# Youngs Moduli (GPa) = 147.14492 42.26173 174.78929
#
# Poissons Ratio (x) = 0.13599 0.27921
# Poissons Ratio (y) = 0.47349 -0.01141
# Poissons Ratio (z) = 0.23505 -0.00276
#
# Static dielectric constant tensor:
#      x y z
#    x 1.973240 0.000000 0.000000 
#    y 0.000000 2.087610 0.000000 
#    z 0.000000 0.000000 1.937790 
# 
# From -- ./inp_files/38616.got.cif
#   From: 2010.05.17/outbox.cif.g08.bks.cpg/sg63_20_cif.got.tgz:38616.got - 2010.06.03 15:47:04.
