data_PCOD9475200
_publ_section_title
;
Structure prediction by ZEFSAII (Michael W. Deem and Ramdas Pophale) SiO2 
 PCOD9475200
Probable space group: C M C M
;
_chemical_formula_sum "Si O2"
_cell_formula_units_Z 96
_cell_length_a 13.348150
_cell_length_b 20.633654
_cell_length_c 18.940260
_cell_angle_alpha 90.000000
_cell_angle_beta 90.000000
_cell_angle_gamma 90.000000
_cell_volume 5216.547407
_symmetry_space_group_name_H-M "C M C M"
_symmetry_group_IT_number 63
_symmetry_cell_setting 'orthorhombic'
loop_
_space_group_symop_operation_xyz
x,y,z
-x,-y,1/2+z
x,-y,-z
-x,y,1/2-z
-x,-y,-z
x,y,1/2-z
-x,y,z
x,-y,1/2+z
1/2+x,1/2+y,z
1/2-x,1/2-y,1/2+z
1/2+x,1/2-y,-z
1/2-x,1/2+y,1/2-z
1/2-x,1/2-y,-z
1/2+x,1/2+y,1/2-z
1/2-x,1/2+y,z
1/2+x,1/2-y,1/2+z
loop_
_atom_site_type_symbol
_atom_site_label
_atom_site_fract_x
_atom_site_fract_y
_atom_site_fract_z
Si Si1 0.385165 0.588645 0.335983
Si Si2 0.880617 0.236034 0.170118
Si Si3 0.760851 0.308220 0.444848
Si Si4 0.882247 0.146630 0.670970
Si Si5 0.239056 0.522296 0.669928
Si Si6 0.883132 0.566570 0.956748
O O1 0.388094 0.584373 0.250000
O O2 0.500000 0.575567 0.359972
O O3 0.356683 0.662474 0.352909
O O4 0.301220 0.538566 0.360339
O O5 0.843427 0.246533 0.250000
O O6 0.839022 0.286640 0.115333
O O7 0.000000 0.239392 0.172396
O O8 0.750000 0.250000 0.500000
O O9 0.660403 0.317438 0.398064
O O10 0.806877 0.374853 0.476202
O O11 0.867309 0.176733 0.750000
O O12 0.820018 0.080115 0.671978
O O13 0.000000 0.134722 0.663847
O O14 0.207456 0.507889 0.750000
O O15 0.148208 0.546285 0.622435
O O16 0.000000 0.586012 0.962644
O O17 0.868980 0.500000 0.000000
#
# Coordination Sequence:
#
# PCOD9475200 Si02
#       6
#    16  16  16  16  16  16
#     4   8  14  26  49  81 112 138 165 211 277 335
#     4   9  18  33  54  81 110 139 179 233 285 327
#     4  11  23  36  57  82 109 147 191 235 278 335
#     4   9  18  34  55  80 109 140 178 224 278 336
#     4   9  17  31  57  84 106 136 179 228 272 323
#     4  10  23  41  57  75 110 152 188 225 276 332
#
# _framework density 18.402975999999999
#
# number of rings (size 3 to 8) (size 9 to 14) (size 15 to 20)
#    0.000    2.667    0.000    2.500    2.333    4.333 
#    0.000    0.000    0.000    2.500    0.000    0.000 
#    0.000    0.000    0.000    0.000    0.000    0.000 
#
# Total GULP energy -267350.378968 kJ/mol
# GULP energy per Si atom -5569.799562 kJ/mol
# Density = 1.836109 g / cm^3
# Si number density = 18.402976 Si / 1000 Ang^3
#
#
#
# Elastic Constant Matrix: (Units=GPa)
#
#
# Indices 1 2 3 4 5 6 
#
# 1 51.0364 13.3108 29.7918 0.0000 0.0000 0.0000
# 2 13.3108 50.4041 30.4348 0.0000 0.0000 0.0000
# 3 29.7918 30.4348 60.5181 0.0000 0.0000 0.0000
# 4 0.0000 0.0000 0.0000 14.9249 0.0000 0.0000
# 5 0.0000 0.0000 0.0000 0.0000 12.5606 0.0000
# 6 0.0000 0.0000 0.0000 0.0000 0.0000 23.5516
#
#
#
# Elastic Compliance Matrix: (Units=1/GPa)
#
#
# Indices 1 2 3 4 5 6 
#
# 1 0.027555 0.001312 -0.014225 0.000000 0.000000 0.000000
# 2 0.001312 0.028554 -0.015006 0.000000 0.000000 0.000000
# 3 -0.014225 -0.015006 0.031073 0.000000 0.000000 0.000000
# 4 0.000000 0.000000 0.000000 0.067002 0.000000 0.000000
# 5 0.000000 0.000000 0.000000 0.000000 0.079614 0.000000
# 6 0.000000 0.000000 0.000000 0.000000 0.000000 0.042460
#
#
# Mechanical properties :
#
#
# Convention : Reuss Voigt Hill
#
# Bulk Modulus (GPa) = 31.90264 34.33705 33.11984
# Shear Modulus (GPa) = 14.59672 16.10218 15.34945
#
# Velocity S-wave (km/s) = 2.81939 2.96121 2.89117
# Velocity P-wave (km/s) = 5.28884 5.51277 5.40196
#
# Compressibility (1/GPa) = 0.03134537
#
# Stress axis : x y z
#
# Youngs Moduli (GPa) = 36.29092 35.02155 32.18228
#
# Poissons Ratio (x) = -0.04596 0.45779
# Poissons Ratio (y) = -0.04762 0.48292
# Poissons Ratio (z) = 0.51623 0.52553
#
# Static dielectric constant tensor:
#      x y z
#    x 1.617370 0.000000 0.000000 
#    y 0.000000 1.661460 0.000000 
#    z 0.000000 0.000000 1.659900 
# 
# From -- ./inp_files/42520.got.cif
#   From: 2010.05.17/outbox.cif.g08.bks.cpg/sg63_22_cif.got.tgz:42520.got - 2010.06.03 15:47:04.
