data_PCOD9475777
_publ_section_title
;
Structure prediction by ZEFSAII (Michael W. Deem and Ramdas Pophale) SiO2 
 PCOD9475777
Probable space group: C M C M
;
_chemical_formula_sum "Si O2"
_cell_formula_units_Z 80
_cell_length_a 19.930019
_cell_length_b 8.945535
_cell_length_c 22.086857
_cell_angle_alpha 90.000000
_cell_angle_beta 90.000000
_cell_angle_gamma 90.000000
_cell_volume 3937.748288
_symmetry_space_group_name_H-M "C M C M"
_symmetry_group_IT_number 63
_symmetry_cell_setting 'orthorhombic'
loop_
_space_group_symop_operation_xyz
x,y,z
-x,-y,1/2+z
x,-y,-z
-x,y,1/2-z
-x,-y,-z
x,y,1/2-z
-x,y,z
x,-y,1/2+z
1/2+x,1/2+y,z
1/2-x,1/2-y,1/2+z
1/2+x,1/2-y,-z
1/2-x,1/2+y,1/2-z
1/2-x,1/2-y,-z
1/2+x,1/2+y,1/2-z
1/2-x,1/2+y,z
1/2+x,1/2-y,1/2+z
loop_
_atom_site_type_symbol
_atom_site_label
_atom_site_fract_x
_atom_site_fract_y
_atom_site_fract_z
Si Si1 0.500000 0.226029 0.451345
Si Si2 0.500000 0.127530 0.582902
Si Si3 0.154792 0.926078 0.250000
Si Si4 0.140139 0.565160 0.635492
Si Si5 0.622589 0.715893 0.868142
Si Si6 0.795616 0.268323 0.250000
Si Si7 0.760348 0.117998 0.546445
O O1 0.500000 0.231656 0.523691
O O2 0.435172 0.292295 0.418427
O O3 0.500000 0.047637 0.437132
O O4 0.569333 0.141487 0.619073
O O5 0.112964 0.888416 0.189968
O O6 0.216824 0.807833 0.250000
O O7 0.186323 0.092317 0.250000
O O8 0.128126 0.390521 0.650457
O O9 0.173587 0.653038 0.690682
O O10 0.190504 0.568241 0.577640
O O11 0.690967 0.664351 0.899854
O O12 0.750000 0.250000 0.500000
O O13 0.791185 0.000000 0.500000
#
# Coordination Sequence:
#
# PCOD9475777 Si02
#       7
#     8   8   8  16  16   8  16
#     4   9  20  41  66  98 131 173 212 262 319 392
#     4   9  20  39  69  97 132 168 217 261 318 385
#     4  12  26  43  66  93 131 171 219 277 326 390
#     4  11  23  42  68  97 128 172 218 273 317 388
#     4  11  23  43  67  95 131 171 220 266 325 384
#     4  12  26  43  66  95 131 167 223 273 332 382
#     4  12  24  37  62  96 131 164 212 265 326 385
#
# _framework density 20.316179999999999
#
# number of rings (size 3 to 8) (size 9 to 14) (size 15 to 20)
#    0.000    1.000    4.000    3.000    5.600    0.800 
#    0.000    5.500    0.000    0.000    0.000    0.000 
#    0.000    0.000    0.000    0.000    0.000    0.000 
#
# Total GULP energy -223435.827235 kJ/mol
# GULP energy per Si atom -5585.895681 kJ/mol
# Density = 2.026994 g / cm^3
# Si number density = 20.316180 Si / 1000 Ang^3
#
#
#
# Elastic Constant Matrix: (Units=GPa)
#
#
# Indices 1 2 3 4 5 6 
#
# 1 90.7293 -7.2553 18.4167 0.0000 0.0000 0.0000
# 2 -7.2553 77.7169 18.4311 0.0000 0.0000 0.0000
# 3 18.4167 18.4311 105.6672 0.0000 0.0000 0.0000
# 4 0.0000 0.0000 0.0000 39.1864 0.0000 0.0000
# 5 0.0000 0.0000 0.0000 0.0000 12.3743 0.0000
# 6 0.0000 0.0000 0.0000 0.0000 0.0000 20.0197
#
#
#
# Elastic Compliance Matrix: (Units=1/GPa)
#
#
# Indices 1 2 3 4 5 6 
#
# 1 0.011621 0.001633 -0.002310 0.000000 0.000000 0.000000
# 2 0.001633 0.013652 -0.002666 0.000000 0.000000 0.000000
# 3 -0.002310 -0.002666 0.010331 0.000000 0.000000 0.000000
# 4 0.000000 0.000000 0.000000 0.025519 0.000000 0.000000
# 5 0.000000 0.000000 0.000000 0.000000 0.080813 0.000000
# 6 0.000000 0.000000 0.000000 0.000000 0.000000 0.049951
#
#
# Mechanical properties :
#
#
# Convention : Reuss Voigt Hill
#
# Bulk Modulus (GPa) = 34.58064 37.03316 35.80690
# Shear Modulus (GPa) = 24.01385 30.61747 27.31566
#
# Velocity S-wave (km/s) = 3.44176 3.88628 3.67076
# Velocity P-wave (km/s) = 5.73171 6.19722 5.96901
#
# Compressibility (1/GPa) = 0.02891792
#
# Stress axis : x y z
#
# Youngs Moduli (GPa) = 86.04878 73.25010 96.79303
#
# Poissons Ratio (x) = -0.11960 0.22362
# Poissons Ratio (y) = -0.14050 0.25803
# Poissons Ratio (z) = 0.19880 0.19527
#
# Static dielectric constant tensor:
#      x y z
#    x 1.722170 0.000000 0.000000 
#    y 0.000000 1.683080 0.000000 
#    z 0.000000 0.000000 1.683830 
# 
# From -- ./inp_files/64361.got.cif
#   From: 2010.05.17/outbox.cif.g08.bks.cpg/sg63_33_cif.got.tgz:64361.got - 2010.06.03 15:47:04.
