data_PCOD9476804
_publ_section_title
;
Structure prediction by ZEFSAII (Michael W. Deem and Ramdas Pophale) SiO2 
 PCOD9476804
Probable space group: C M C A
;
_chemical_formula_sum "Si O2"
_cell_formula_units_Z 128
_cell_length_a 18.339423
_cell_length_b 23.481700
_cell_length_c 18.230077
_cell_angle_alpha 90.000000
_cell_angle_beta 90.000000
_cell_angle_gamma 90.000000
_cell_volume 7850.615473
_symmetry_space_group_name_H-M "C M C A"
_symmetry_group_IT_number 64
_symmetry_cell_setting 'orthorhombic'
loop_
_space_group_symop_operation_xyz
x,y,z
-x,1/2-y,1/2+z
x,-y,-z
-x,1/2+y,1/2-z
-x,-y,-z
x,1/2+y,1/2-z
-x,y,z
x,1/2-y,1/2+z
1/2+x,1/2+y,z
1/2-x,-y,1/2+z
1/2+x,1/2-y,-z
1/2-x,y,1/2-z
1/2-x,1/2-y,-z
1/2+x,y,1/2-z
1/2-x,1/2+y,z
1/2+x,-y,1/2+z
loop_
_atom_site_type_symbol
_atom_site_label
_atom_site_fract_x
_atom_site_fract_y
_atom_site_fract_z
Si Si1 0.303987 0.781003 0.901568
Si Si2 0.913061 0.950486 0.812930
Si Si3 0.140747 0.719811 0.460940
Si Si4 0.322035 0.174665 0.707403
Si Si5 0.415086 0.245353 0.306643
Si Si6 0.412931 0.075035 0.632702
Si Si7 0.165560 0.358615 0.772591
Si Si8 0.586458 0.593390 0.028918
O O1 0.223248 0.792259 0.932755
O O2 0.299470 0.726959 0.846201
O O3 0.334997 0.833706 0.854971
O O4 0.353107 0.760693 0.969249
O O5 0.871534 0.918239 0.747881
O O6 0.885031 0.926132 0.891693
O O7 0.000000 0.938832 0.806659
O O8 0.903270 0.018101 0.819683
O O9 0.098129 0.747074 0.393249
O O10 0.104243 0.659881 0.480543
O O11 0.250000 0.154482 0.750000
O O12 0.376835 0.202461 0.766032
O O13 0.363993 0.125884 0.663467
O O14 0.500000 0.242837 0.289359
O O15 0.376232 0.188261 0.276778
O O16 0.500000 0.089238 0.633144
O O17 0.391605 0.063786 0.547452
O O18 0.250000 0.359571 0.750000
O O19 0.500000 0.584214 0.034384
#
# Coordination Sequence:
#
# PCOD9476804 Si02
#       8
#    16  16  16  16  16  16  16  16
#     4  10  20  32  51  73 105 137 168 211 259 305
#     4  10  20  34  53  74 102 137 173 213 262 313
#     4  11  18  32  51  77 103 139 169 205 257 317
#     4  11  20  36  50  73 103 137 173 212 256 306
#     4  11  20  32  51  76 106 139 170 206 257 315
#     4  10  21  35  51  75 102 135 175 216 261 308
#     4  11  19  34  51  76 103 134 173 214 256 310
#     4  10  18  31  50  75 105 134 166 207 255 314
#
# _framework density 16.304454
#
# number of rings (size 3 to 8) (size 9 to 14) (size 15 to 20)
#    0.000    1.500    5.000    2.250    0.000    2.000 
#    0.000    1.875    0.000    0.000    0.000    0.875 
#    0.000    3.000    0.000    0.000    0.000    0.250 
#
# Total GULP energy -356964.715580 kJ/mol
# GULP energy per Si atom -5577.573681 kJ/mol
# Density = 1.626734 g / cm^3
# Si number density = 16.304454 Si / 1000 Ang^3
#
#
#
# Elastic Constant Matrix: (Units=GPa)
#
#
# Indices 1 2 3 4 5 6 
#
# 1 47.6686 0.9184 8.9163 0.0000 0.0000 0.0000
# 2 0.9184 33.3413 14.6224 0.0000 0.0000 0.0000
# 3 8.9163 14.6224 71.1184 0.0000 0.0000 0.0000
# 4 0.0000 0.0000 0.0000 28.0982 0.0000 0.0000
# 5 0.0000 0.0000 0.0000 0.0000 23.5482 0.0000
# 6 0.0000 0.0000 0.0000 0.0000 0.0000 -1.3309
#
#
#
# Elastic Compliance Matrix: (Units=1/GPa)
#
#
# Indices 1 2 3 4 5 6 
#
# 1 0.021495 0.000648 -0.002828 0.000000 0.000000 0.000000
# 2 0.000648 0.032985 -0.006863 0.000000 0.000000 0.000000
# 3 -0.002828 -0.006863 0.015827 0.000000 0.000000 0.000000
# 4 0.000000 0.000000 0.000000 0.035589 0.000000 0.000000
# 5 0.000000 0.000000 0.000000 0.000000 0.042466 0.000000
# 6 0.000000 0.000000 0.000000 0.000000 0.000000 -0.751373
#
#
# Mechanical properties :
#
#
# Convention : Reuss Voigt Hill
#
# Bulk Modulus (GPa) = 19.14968 22.33807 20.74387
# Shear Modulus (GPa) = -8.81029 18.57452 4.88212
#
# Velocity S-wave (km/s) = -2.32709 3.37891 1.73230
# Velocity P-wave (km/s) = 2.13310 5.38080 4.09287
#
# Compressibility (1/GPa) = 0.05222020
#
# Stress axis : x y z
#
# Youngs Moduli (GPa) = 46.52318 30.31686 63.18420
#
# Poissons Ratio (x) = -0.01965 0.17869
# Poissons Ratio (y) = -0.03016 0.43365
# Poissons Ratio (z) = 0.13157 0.20807
#
# Static dielectric constant tensor:
#      x y z
#    x 1.537970 0.000000 0.000000 
#    y 0.000000 1.545930 0.000000 
#    z 0.000000 0.000000 1.573590 
# 
# From -- ./inp_files/33795.got.cif
#   From: 2010.05.17/outbox.cif.g08.bks.cpg/sg64_17_cif.got.tgz:33795.got - 2010.06.03 16:29:19.
