data_PCOD9476807
_publ_section_title
;
Structure prediction by ZEFSAII (Michael W. Deem and Ramdas Pophale) SiO2 
 PCOD9476807
Probable space group: C M C A
;
_chemical_formula_sum "Si O2"
_cell_formula_units_Z 56
_cell_length_a 33.131921
_cell_length_b 13.741810
_cell_length_c 4.988411
_cell_angle_alpha 90.000000
_cell_angle_beta 90.000000
_cell_angle_gamma 90.000000
_cell_volume 2271.186431
_symmetry_space_group_name_H-M "C M C A"
_symmetry_group_IT_number 64
_symmetry_cell_setting 'orthorhombic'
loop_
_space_group_symop_operation_xyz
x,y,z
-x,1/2-y,1/2+z
x,-y,-z
-x,1/2+y,1/2-z
-x,-y,-z
x,1/2+y,1/2-z
-x,y,z
x,1/2-y,1/2+z
1/2+x,1/2+y,z
1/2-x,-y,1/2+z
1/2+x,1/2-y,-z
1/2-x,y,1/2-z
1/2-x,1/2-y,-z
1/2+x,y,1/2-z
1/2-x,1/2+y,z
1/2+x,-y,1/2+z
loop_
_atom_site_type_symbol
_atom_site_label
_atom_site_fract_x
_atom_site_fract_y
_atom_site_fract_z
Si Si1 0.330655 0.385761 0.958361
Si Si2 0.786973 0.883134 0.447779
Si Si3 0.084907 0.316293 0.741777
Si Si4 0.000000 0.181231 0.112811
O O1 0.297019 0.347797 0.747394
O O2 0.374497 0.371620 0.834513
O O3 0.323299 0.500000 0.000000
O O4 0.324873 0.350967 0.262379
O O5 0.750000 0.858795 0.250000
O O6 0.784030 0.000000 0.500000
O O7 0.084755 0.222382 0.543927
O O8 0.042554 0.369515 0.676400
O O9 0.000000 0.274720 0.315135
#
# Coordination Sequence:
#
# PCOD9476807 Si02
#       4
#    16  16  16   8
#     4  10  20  32  51  78 104 129 167 216 257 295
#     4  10  18  31  51  74 100 132 171 211 248 294
#     4  10  19  34  54  75 102 136 172 207 251 305
#     4   8  16  30  51  74  95 130 176 208 234 296
#
# _framework density 24.656717
#
# number of rings (size 3 to 8) (size 9 to 14) (size 15 to 20)
#    0.000    2.286    0.000    5.143    0.000    0.000 
#    0.000    0.714    0.000   17.143    0.000   18.000 
#    0.000    0.000    0.000    0.000    0.000    0.000 
#
# Total GULP energy -156239.752177 kJ/mol
# GULP energy per Si atom -5579.991149 kJ/mol
# Density = 2.460060 g / cm^3
# Si number density = 24.656717 Si / 1000 Ang^3
#
#
#
# Elastic Constant Matrix: (Units=GPa)
#
#
# Indices 1 2 3 4 5 6 
#
# 1 181.6134 4.9338 54.8812 0.0000 0.0000 0.0000
# 2 4.9338 64.4343 0.7070 0.0000 0.0000 0.0000
# 3 54.8812 0.7070 154.5250 0.0000 0.0000 0.0000
# 4 0.0000 0.0000 0.0000 4.8554 0.0000 0.0000
# 5 0.0000 0.0000 0.0000 0.0000 45.5172 0.0000
# 6 0.0000 0.0000 0.0000 0.0000 0.0000 -51.8819
#
#
#
# Elastic Compliance Matrix: (Units=1/GPa)
#
#
# Indices 1 2 3 4 5 6 
#
# 1 0.006181 -0.000449 -0.002193 0.000000 0.000000 0.000000
# 2 -0.000449 0.015553 0.000088 0.000000 0.000000 0.000000
# 3 -0.002193 0.000088 0.007250 0.000000 0.000000 0.000000
# 4 0.000000 0.000000 0.000000 0.205955 0.000000 0.000000
# 5 0.000000 0.000000 0.000000 0.000000 0.021970 0.000000
# 6 0.000000 0.000000 0.000000 0.000000 0.000000 -0.019275
#
#
# Mechanical properties :
#
#
# Convention : Reuss Voigt Hill
#
# Bulk Modulus (GPa) = 41.88292 57.95741 49.92016
# Shear Modulus (GPa) = 19.94402 22.36820 21.15611
#
# Velocity S-wave (km/s) = 2.84715 3.01522 2.93239
# Velocity P-wave (km/s) = 5.27557 5.97317 5.63518
#
# Compressibility (1/GPa) = 0.02387608
#
# Stress axis : x y z
#
# Youngs Moduli (GPa) = 161.78143 64.29586 137.93103
#
# Poissons Ratio (x) = 0.02888 0.30252
# Poissons Ratio (y) = 0.07268 -0.01219
# Poissons Ratio (z) = 0.35483 -0.00568
#
# Static dielectric constant tensor:
#      x y z
#    x 2.071560 0.000000 0.000000 
#    y 0.000000 1.949020 0.000000 
#    z 0.000000 0.000000 1.925950 
# 
# From -- ./inp_files/2649.got.cif
#   From: 2010.05.17/outbox.cif.g08.bks.cpg/sg64_2_cif.got.tgz:2649.got - 2010.06.03 16:29:19.
