data_PCOD9476006
_publ_section_title
;
Structure prediction by ZEFSAII (Michael W. Deem and Ramdas Pophale) SiO2 
 PCOD9476006
Probable space group: C M C M
;
_chemical_formula_sum "Si O2"
_cell_formula_units_Z 96
_cell_length_a 18.331932
_cell_length_b 13.751486
_cell_length_c 14.690228
_cell_angle_alpha 90.000000
_cell_angle_beta 90.000000
_cell_angle_gamma 90.000000
_cell_volume 3703.278766
_symmetry_space_group_name_H-M "C M C M"
_symmetry_group_IT_number 63
_symmetry_cell_setting 'orthorhombic'
loop_
_space_group_symop_operation_xyz
x,y,z
-x,-y,1/2+z
x,-y,-z
-x,y,1/2-z
-x,-y,-z
x,y,1/2-z
-x,y,z
x,-y,1/2+z
1/2+x,1/2+y,z
1/2-x,1/2-y,1/2+z
1/2+x,1/2-y,-z
1/2-x,1/2+y,1/2-z
1/2-x,1/2-y,-z
1/2+x,1/2+y,1/2-z
1/2-x,1/2+y,z
1/2+x,1/2-y,1/2+z
loop_
_atom_site_type_symbol
_atom_site_label
_atom_site_fract_x
_atom_site_fract_y
_atom_site_fract_z
Si Si1 0.581532 0.787985 0.393312
Si Si2 0.264793 0.518126 0.854960
Si Si3 0.894273 0.712629 0.112991
Si Si4 0.762329 0.257456 0.109252
Si Si5 0.395319 0.007257 0.396933
Si Si6 0.421674 0.559716 0.642759
O O1 0.500000 0.751347 0.372204
O O2 0.592258 0.790694 0.503327
O O3 0.654994 0.730502 0.364020
O O4 0.587622 0.900188 0.358384
O O5 0.264346 0.486353 0.750000
O O6 0.248098 0.632501 0.859842
O O7 0.192700 0.478923 0.902818
O O8 0.346884 0.512060 0.894165
O O9 0.810354 0.709293 0.145117
O O10 0.923378 0.607848 0.144927
O O11 0.918884 0.821799 0.137518
O O12 0.750000 0.250000 0.000000
O O13 0.422084 0.000000 0.500000
O O14 0.420800 0.537069 0.750000
O O15 0.500000 0.527818 0.604544
#
# Coordination Sequence:
#
# PCOD9476006 Si02
#       6
#    16  16  16  16  16  16
#     4   9  16  26  42  63  86 115 148 179 216 262
#     4   9  17  30  47  65  87 118 153 182 213 263
#     4   9  16  26  41  61  85 112 143 180 218 258
#     4   8  15  28  44  62  85 115 149 181 215 256
#     4   9  18  29  43  63  89 120 149 180 216 258
#     4   9  17  28  43  64  87 110 138 177 225 267
#
# _framework density 25.922975000000001
#
# number of rings (size 3 to 8) (size 9 to 14) (size 15 to 20)
#    0.000    3.167    0.000    1.500    0.000    4.333 
#    0.000    0.000    0.000    9.500    0.000    0.000 
#    0.000    0.000    0.000    0.000    0.000    0.000 
#
# Total GULP energy -267291.110311 kJ/mol
# GULP energy per Si atom -5568.564798 kJ/mol
# Density = 2.586397 g / cm^3
# Si number density = 25.922975 Si / 1000 Ang^3
#
#
#
# Elastic Constant Matrix: (Units=GPa)
#
#
# Indices 1 2 3 4 5 6 
#
# 1 298.3314 4.6226 1.0480 0.0000 0.0000 0.0000
# 2 4.6226 50.7354 -11.6657 0.0000 0.0000 0.0000
# 3 1.0480 -11.6657 97.9120 0.0000 0.0000 0.0000
# 4 0.0000 0.0000 0.0000 18.2653 0.0000 0.0000
# 5 0.0000 0.0000 0.0000 0.0000 -2.5105 0.0000
# 6 0.0000 0.0000 0.0000 0.0000 0.0000 -11.4504
#
#
#
# Elastic Compliance Matrix: (Units=1/GPa)
#
#
# Indices 1 2 3 4 5 6 
#
# 1 0.003357 -0.000323 -0.000074 0.000000 0.000000 0.000000
# 2 -0.000323 0.020296 0.002422 0.000000 0.000000 0.000000
# 3 -0.000074 0.002422 0.010503 0.000000 0.000000 0.000000
# 4 0.000000 0.000000 0.000000 0.054749 0.000000 0.000000
# 5 0.000000 0.000000 0.000000 0.000000 -0.398325 0.000000
# 6 0.000000 0.000000 0.000000 0.000000 0.000000 -0.087333
#
#
# Mechanical properties :
#
#
# Convention : Reuss Voigt Hill
#
# Bulk Modulus (GPa) = 26.17483 48.33207 37.25345
# Shear Modulus (GPa) = -12.88437 31.05914 9.08739
#
# Velocity S-wave (km/s) = -2.23182 3.46516 1.87434
# Velocity P-wave (km/s) = 1.86486 5.89022 4.36878
#
# Compressibility (1/GPa) = 0.03820464
#
# Stress axis : x y z
#
# Youngs Moduli (GPa) = 297.86338 49.26997 95.21469
#
# Poissons Ratio (x) = 0.01591 0.00709
# Poissons Ratio (y) = 0.09621 -0.23058
# Poissons Ratio (z) = 0.02217 -0.11931
#
# Static dielectric constant tensor:
#      x y z
#    x 3.147520 0.000000 0.000000 
#    y 0.000000 1.903120 0.000000 
#    z 0.000000 0.000000 2.022820 
# 
# From -- ./inp_files/45719.got.cif
#   From: 2010.05.17/outbox.cif.g08.bks.cpg/sg63_23_cif.got.tgz:45719.got - 2010.06.03 15:47:04.
