data_PCOD9476603
_publ_section_title
;
Structure prediction by ZEFSAII (Michael W. Deem and Ramdas Pophale) SiO2 
 PCOD9476603
Probable space group: C M C A
;
_chemical_formula_sum "Si O2"
_cell_formula_units_Z 80
_cell_length_a 29.137357
_cell_length_b 17.709840
_cell_length_c 8.754348
_cell_angle_alpha 90.000000
_cell_angle_beta 90.000000
_cell_angle_gamma 90.000000
_cell_volume 4517.400538
_symmetry_space_group_name_H-M "C M C A"
_symmetry_group_IT_number 64
_symmetry_cell_setting 'orthorhombic'
loop_
_space_group_symop_operation_xyz
x,y,z
-x,1/2-y,1/2+z
x,-y,-z
-x,1/2+y,1/2-z
-x,-y,-z
x,1/2+y,1/2-z
-x,y,z
x,1/2-y,1/2+z
1/2+x,1/2+y,z
1/2-x,-y,1/2+z
1/2+x,1/2-y,-z
1/2-x,y,1/2-z
1/2-x,1/2-y,-z
1/2+x,y,1/2-z
1/2-x,1/2+y,z
1/2+x,-y,1/2+z
loop_
_atom_site_type_symbol
_atom_site_label
_atom_site_fract_x
_atom_site_fract_y
_atom_site_fract_z
Si Si1 0.049936 0.146213 0.384819
Si Si2 0.282999 0.708461 0.381604
Si Si3 0.354309 0.913587 0.019759
Si Si4 0.579319 0.213527 0.420783
Si Si5 0.361553 0.321670 0.200419
O O1 0.095680 0.103339 0.443013
O O2 0.051556 0.227046 0.474392
O O3 0.053865 0.161865 0.202857
O O4 0.000000 0.111119 0.418188
O O5 0.250000 0.676454 0.250000
O O6 0.250000 0.750000 0.500000
O O7 0.317501 0.645563 0.449436
O O8 0.314740 0.776527 0.321448
O O9 0.356828 0.896196 0.200208
O O10 0.341315 0.000000 0.000000
O O11 0.612129 0.170596 0.540315
O O12 0.609673 0.266481 0.311169
#
# Coordination Sequence:
#
# PCOD9476603 Si02
#       5
#    16  16  16  16  16
#     4  10  19  33  59  88 119 156 198 243 295 349
#     4  12  21  37  66  85 110 154 200 243 291 357
#     4  11  24  41  58  87 127 154 193 250 302 351
#     4   9  16  31  58  84 116 147 196 248 279 333
#     4  10  17  36  60  83 112 153 193 236 292 345
#
# _framework density 17.709299999999999
#
# number of rings (size 3 to 8) (size 9 to 14) (size 15 to 20)
#    0.000    1.600    8.000    0.600    0.000    0.400 
#    3.600    2.000    0.000    1.200    0.000    0.000 
#    0.000    0.000    0.000    0.000    0.000    0.000 
#
# Total GULP energy -222750.577283 kJ/mol
# GULP energy per Si atom -5568.764432 kJ/mol
# Density = 1.766899 g / cm^3
# Si number density = 17.709300 Si / 1000 Ang^3
#
#
#
# Elastic Constant Matrix: (Units=GPa)
#
#
# Indices 1 2 3 4 5 6 
#
# 1 119.6434 27.1477 39.7773 0.0000 0.0000 0.0000
# 2 27.1477 68.9765 20.0888 0.0000 0.0000 0.0000
# 3 39.7773 20.0888 103.4253 0.0000 0.0000 0.0000
# 4 0.0000 0.0000 0.0000 9.9743 0.0000 0.0000
# 5 0.0000 0.0000 0.0000 0.0000 12.2446 0.0000
# 6 0.0000 0.0000 0.0000 0.0000 0.0000 6.7880
#
#
#
# Elastic Compliance Matrix: (Units=1/GPa)
#
#
# Indices 1 2 3 4 5 6 
#
# 1 0.010147 -0.003028 -0.003314 0.000000 0.000000 0.000000
# 2 -0.003028 0.016271 -0.001996 0.000000 0.000000 0.000000
# 3 -0.003314 -0.001996 0.011331 0.000000 0.000000 0.000000
# 4 0.000000 0.000000 0.000000 0.100258 0.000000 0.000000
# 5 0.000000 0.000000 0.000000 0.000000 0.081669 0.000000
# 6 0.000000 0.000000 0.000000 0.000000 0.000000 0.147318
#
#
# Mechanical properties :
#
#
# Convention : Reuss Voigt Hill
#
# Bulk Modulus (GPa) = 47.45569 51.78588 49.62078
# Shear Modulus (GPa) = 12.79773 19.47015 16.13394
#
# Velocity S-wave (km/s) = 2.69114 3.31936 3.02162
# Velocity P-wave (km/s) = 6.04248 6.63299 6.34461
#
# Compressibility (1/GPa) = 0.02107229
#
# Stress axis : x y z
#
# Youngs Moduli (GPa) = 98.54867 61.45962 88.25229
#
# Poissons Ratio (x) = 0.18613 0.29250
# Poissons Ratio (y) = 0.29845 0.17612
# Poissons Ratio (z) = 0.32663 0.12265
#
# Static dielectric constant tensor:
#      x y z
#    x 1.813700 0.000000 0.000000 
#    y 0.000000 1.594010 0.000000 
#    z 0.000000 0.000000 1.673340 
# 
# From -- ./inp_files/10161.got.cif
#   From: 2010.05.17/outbox.cif.g08.bks.cpg/sg64_6_cif.got.tgz:10161.got - 2010.06.03 16:29:19.
