data_PCOD9476988
_publ_section_title
;
Structure prediction by ZEFSAII (Michael W. Deem and Ramdas Pophale) SiO2 
 PCOD9476988
Probable space group: C M C A
;
_chemical_formula_sum "Si O2"
_cell_formula_units_Z 64
_cell_length_a 25.357806
_cell_length_b 14.049032
_cell_length_c 8.010200
_cell_angle_alpha 90.000000
_cell_angle_beta 90.000000
_cell_angle_gamma 90.000000
_cell_volume 2853.654800
_symmetry_space_group_name_H-M "C M C A"
_symmetry_group_IT_number 64
_symmetry_cell_setting 'orthorhombic'
loop_
_space_group_symop_operation_xyz
x,y,z
-x,1/2-y,1/2+z
x,-y,-z
-x,1/2+y,1/2-z
-x,-y,-z
x,1/2+y,1/2-z
-x,y,z
x,1/2-y,1/2+z
1/2+x,1/2+y,z
1/2-x,-y,1/2+z
1/2+x,1/2-y,-z
1/2-x,y,1/2-z
1/2-x,1/2-y,-z
1/2+x,y,1/2-z
1/2-x,1/2+y,z
1/2+x,-y,1/2+z
loop_
_atom_site_type_symbol
_atom_site_label
_atom_site_fract_x
_atom_site_fract_y
_atom_site_fract_z
Si Si1 0.308700 0.541573 0.684822
Si Si2 0.500000 0.105802 0.265984
Si Si3 0.500000 0.185381 0.889520
Si Si4 0.612350 0.893532 0.665485
Si Si5 0.890708 0.185982 0.791831
O O1 0.307078 0.500000 0.500000
O O2 0.250000 0.557058 0.750000
O O3 0.340476 0.464489 0.795871
O O4 0.343210 0.637051 0.692391
O O5 0.500000 0.199103 0.386231
O O6 0.555699 0.056831 0.300748
O O7 0.500000 0.142843 0.074783
O O8 0.553488 0.160340 0.792963
O O9 0.612964 0.852787 0.479068
O O10 0.613797 0.800247 0.783389
#
# Coordination Sequence:
#
# PCOD9476988 Si02
#       5
#    16   8   8  16  16
#     4  12  26  45  64  89 120 158 206 256 302 358
#     4  10  18  33  58  91 125 160 198 245 299 361
#     4  10  18  33  58  91 125 160 198 245 299 361
#     4  11  22  40  64  93 125 162 201 248 303 361
#     4  11  22  40  64  93 125 162 201 248 303 361
#
# _framework density 22.427378000000001
#
# number of rings (size 3 to 8) (size 9 to 14) (size 15 to 20)
#    0.000    1.000    0.000   12.000    0.000    2.000 
#    0.000   10.000    0.000    0.000    0.000    0.000 
#    0.000    0.000    0.000    0.000    0.000    0.000 
#
# Total GULP energy -179273.129874 kJ/mol
# GULP energy per Si atom -5602.285309 kJ/mol
# Density = 2.237633 g / cm^3
# Si number density = 22.427378 Si / 1000 Ang^3
#
#
#
# Elastic Constant Matrix: (Units=GPa)
#
#
# Indices 1 2 3 4 5 6 
#
# 1 204.3797 41.8399 17.9669 0.0000 0.0000 0.0000
# 2 41.8399 78.0902 -8.9867 0.0000 0.0000 0.0000
# 3 17.9669 -8.9867 89.9063 0.0000 0.0000 0.0000
# 4 0.0000 0.0000 0.0000 32.4303 0.0000 0.0000
# 5 0.0000 0.0000 0.0000 0.0000 48.8314 0.0000
# 6 0.0000 0.0000 0.0000 0.0000 0.0000 21.8510
#
#
#
# Elastic Compliance Matrix: (Units=1/GPa)
#
#
# Indices 1 2 3 4 5 6 
#
# 1 0.005678 -0.003210 -0.001455 0.000000 0.000000 0.000000
# 2 -0.003210 0.014769 0.002118 0.000000 0.000000 0.000000
# 3 -0.001455 0.002118 0.011625 0.000000 0.000000 0.000000
# 4 0.000000 0.000000 0.000000 0.030835 0.000000 0.000000
# 5 0.000000 0.000000 0.000000 0.000000 0.020479 0.000000
# 6 0.000000 0.000000 0.000000 0.000000 0.000000 0.045764
#
#
# Mechanical properties :
#
#
# Convention : Reuss Voigt Hill
#
# Bulk Modulus (GPa) = 37.06819 52.66850 44.86835
# Shear Modulus (GPa) = 34.90693 42.05961 38.48327
#
# Velocity S-wave (km/s) = 3.94946 4.33525 4.14684
# Velocity P-wave (km/s) = 6.11241 6.97095 6.55575
#
# Compressibility (1/GPa) = 0.02697731
#
# Stress axis : x y z
#
# Youngs Moduli (GPa) = 176.12231 67.70888 86.01977
#
# Poissons Ratio (x) = 0.21732 0.12520
# Poissons Ratio (y) = 0.56529 -0.18216
# Poissons Ratio (z) = 0.25634 -0.14339
#
# Static dielectric constant tensor:
#      x y z
#    x 1.815060 0.000000 0.000000 
#    y 0.000000 1.860370 0.000000 
#    z 0.000000 0.000000 1.834650 
# 
# From -- ./inp_files/9004.got.cif
#   From: 2010.05.17/outbox.cif.g08.bks.cpg/sg64_5_cif.got.tgz:9004.got - 2010.06.03 16:29:19.
