data_PCOD9476056
_publ_section_title
;
Structure prediction by ZEFSAII (Michael W. Deem and Ramdas Pophale) SiO2 
 PCOD9476056
Probable space group: C M C M
;
_chemical_formula_sum "Si O2"
_cell_formula_units_Z 40
_cell_length_a 27.000000
_cell_length_b 18.000000
_cell_length_c 9.000000
_cell_angle_alpha 90.000000
_cell_angle_beta 90.000000
_cell_angle_gamma 90.000000
_cell_volume 4374.000000
_symmetry_space_group_name_H-M "C M C M"
_symmetry_group_IT_number 63
_symmetry_cell_setting 'orthorhombic'
loop_
_space_group_symop_operation_xyz
x,y,z
-x,-y,1/2+z
x,-y,-z
-x,y,1/2-z
-x,-y,-z
x,y,1/2-z
-x,y,z
x,-y,1/2+z
1/2+x,1/2+y,z
1/2-x,1/2-y,1/2+z
1/2+x,1/2-y,-z
1/2-x,1/2+y,1/2-z
1/2-x,1/2-y,-z
1/2+x,1/2+y,1/2-z
1/2-x,1/2+y,z
1/2+x,1/2-y,1/2+z
loop_
_atom_site_type_symbol
_atom_site_label
_atom_site_fract_x
_atom_site_fract_y
_atom_site_fract_z
Si Si1 0.500000 0.916492 0.569987
Si Si2 0.808972 0.664371 0.075031
Si Si3 0.000000 0.917901 0.928738
Si Si4 0.100416 0.581961 0.571512
Si Si5 0.605813 0.419388 0.928189
Si Si6 0.799974 0.823517 0.572325
O O1 0.500000 0.918630 0.750000
O O2 0.550847 0.883629 0.503727
O O3 0.500000 0.000000 0.500000
O O4 0.820772 0.656881 0.250000
O O5 0.752757 0.636127 0.049635
O O6 0.850915 0.626389 0.976709
O O7 0.804171 0.749804 0.025527
O O8 0.947235 0.883130 0.970807
O O9 0.000000 0.925093 0.750000
O O10 0.000000 0.000000 0.000000
O O11 0.105573 0.500000 0.500000
O O12 0.094976 0.577727 0.750000
O O13 0.606534 0.427058 0.750000
O O14 0.653549 0.373169 0.969540
O O15 0.607907 0.500000 0.000000
O O16 0.802283 0.805054 0.750000
#
# Coordination Sequence:
#
# PCOD9476056 Si02
#       6
#     8  16   8  16  16  16
#     4  10  18  32  53  78 107 136 168 206 252 304
#     4  10  20  35  53  73  99 134 173 213 259 309
#     4   8  14  26  45  68  95 126 156 192 240 290
#     4  11  21  35  55  79 106 136 171 211 256 306
#     4   9  17  30  49  73  99 127 162 203 247 298
#     4   9  19  35  52  71  99 135 173 213 259 310
#
# _framework density 9.1449470000000002
#
# number of rings (size 3 to 8) (size 9 to 14) (size 15 to 20)
#    0.000    2.400    0.000    4.500    0.000    2.400 
#    0.000    3.000    0.000    2.400    0.000    0.000 
#    0.000    0.000    0.000    0.000    0.000    0.000 
#
# Total GULP energy -222774.432914 kJ/mol
# GULP energy per Si atom -5569.360823 kJ/mol
# Density = 0.912413 g / cm^3
# Si number density = 9.144947 Si / 1000 Ang^3
#
#
#
# Elastic Constant Matrix: (Units=GPa)
#
#
# Indices 1 2 3 4 5 6 
#
# 1 187.6579 43.6994 54.7000 0.0000 0.0000 0.0000
# 2 43.6994 19.2685 13.6726 0.0000 0.0000 0.0000
# 3 54.7000 13.6726 96.0869 0.0000 0.0000 0.0000
# 4 0.0000 0.0000 0.0000 24.0720 0.0000 0.0000
# 5 0.0000 0.0000 0.0000 0.000015428.7522 0.0000
# 6 0.0000 0.0000 0.0000 0.0000 0.0000 37.5671
#
#
#
# Elastic Compliance Matrix: (Units=1/GPa)
#
#
# Indices 1 2 3 4 5 6 
#
# 1 0.012187 -0.025268 -0.003342 0.000000 0.000000 0.000000
# 2 -0.025268 0.110115 -0.001284 0.000000 0.000000 0.000000
# 3 -0.003342 -0.001284 0.012493 0.000000 0.000000 0.000000
# 4 0.000000 0.000000 0.000000 0.041542 0.000000 0.000000
# 5 0.000000 0.000000 0.000000 0.000000 0.000065 0.000000
# 6 0.000000 0.000000 0.000000 0.000000 0.000000 0.026619
#
#
# Mechanical properties :
#
#
# Convention : Reuss Voigt Hill
#
# Bulk Modulus (GPa) = 13.33230 58.57304 35.95267
# Shear Modulus (GPa) = 17.37246 3110.80768 1564.09007
#
# Velocity S-wave (km/s) = 3.08529 41.28591 29.27495
# Velocity P-wave (km/s) = 4.47183 48.00829 34.09394
#
# Compressibility (1/GPa) = 0.07500580
#
# Stress axis : x y z
#
# Youngs Moduli (GPa) = 82.05344 9.08141 80.04636
#
# Poissons Ratio (x) = 0.22947 0.26755
# Poissons Ratio (y) = 2.07331 0.10281
# Poissons Ratio (z) = 0.27426 0.01166
#
# Static dielectric constant tensor:
#      x y z
#    x 1.721980 0.000000 0.000000 
#    y 0.000000 1.624980 0.000000 
#    z 0.000000 0.000000 1.606250 
# 
# From -- ./inp_files/10066.got.cif
#   From: 2010.05.17/outbox.ucp.g08.bks.cvg/sg63_6_cif.got.tgz:10066.got - 2010.06.11 16:32:19.
