data_PCOD9476373
_publ_section_title
;
Structure prediction by ZEFSAII (Michael W. Deem and Ramdas Pophale) SiO2 
 PCOD9476373
Probable space group: C M C A
;
_chemical_formula_sum "Si O2"
_cell_formula_units_Z 88
_cell_length_a 21.773388
_cell_length_b 20.410133
_cell_length_c 9.310417
_cell_angle_alpha 90.000000
_cell_angle_beta 90.000000
_cell_angle_gamma 90.000000
_cell_volume 4137.528319
_symmetry_space_group_name_H-M "C M C A"
_symmetry_group_IT_number 64
_symmetry_cell_setting 'orthorhombic'
loop_
_space_group_symop_operation_xyz
x,y,z
-x,1/2-y,1/2+z
x,-y,-z
-x,1/2+y,1/2-z
-x,-y,-z
x,1/2+y,1/2-z
-x,y,z
x,1/2-y,1/2+z
1/2+x,1/2+y,z
1/2-x,-y,1/2+z
1/2+x,1/2-y,-z
1/2-x,y,1/2-z
1/2-x,1/2-y,-z
1/2+x,y,1/2-z
1/2-x,1/2+y,z
1/2+x,-y,1/2+z
loop_
_atom_site_type_symbol
_atom_site_label
_atom_site_fract_x
_atom_site_fract_y
_atom_site_fract_z
Si Si1 0.135620 0.567790 0.678545
Si Si2 0.000000 0.400871 0.718611
Si Si3 0.000000 0.550239 0.764158
Si Si4 0.500000 0.339035 0.486923
Si Si5 0.138125 0.084620 0.140841
Si Si6 0.815479 0.294292 0.817242
Si Si7 0.134253 0.687574 0.876277
O O1 0.160032 0.591261 0.523862
O O2 0.150071 0.490366 0.690419
O O3 0.151492 0.616859 0.807652
O O4 0.061213 0.568572 0.678632
O O5 0.000000 0.473193 0.788942
O O6 0.935006 0.400115 0.638794
O O7 0.000000 0.347021 0.842848
O O8 0.000000 0.589735 0.911322
O O9 0.435698 0.309707 0.434055
O O10 0.167188 0.135315 0.250843
O O11 0.750000 0.276966 0.750000
O O12 0.860009 0.239939 0.750183
O O13 0.822687 0.296651 0.987918
#
# Coordination Sequence:
#
# PCOD9476373 Si02
#       7
#    16   8   8   8  16  16  16
#     4   9  19  37  61  97 129 162 202 251 319 389
#     4  10  16  31  59  91 129 158 199 248 320 384
#     4   8  16  28  55  91 132 164 184 238 312 404
#     4  10  19  35  58  98 125 152 206 256 327 377
#     4  10  20  37  64  94 129 163 204 257 318 386
#     4  12  26  45  63  86 121 172 222 264 316 378
#     4  11  24  42  66  92 126 164 212 264 324 385
#
# _framework density 21.268736000000001
#
# number of rings (size 3 to 8) (size 9 to 14) (size 15 to 20)
#    0.000    1.818    1.818    2.455    0.000    4.364 
#    0.000    6.364    0.000    0.000    0.000    0.000 
#    0.000    0.000    0.000    0.000    0.000    0.000 
#
# Total GULP energy -245590.544120 kJ/mol
# GULP energy per Si atom -5581.603275 kJ/mol
# Density = 2.122033 g / cm^3
# Si number density = 21.268736 Si / 1000 Ang^3
#
#
#
# Elastic Constant Matrix: (Units=GPa)
#
#
# Indices 1 2 3 4 5 6 
#
# 1 31.2441 2.7844 14.7521 0.0000 0.0000 0.0000
# 2 2.7844 53.3163 44.0013 0.0000 0.0000 0.0000
# 3 14.7521 44.0013 113.5837 0.0000 0.0000 0.0000
# 4 0.0000 0.0000 0.0000 34.6490 0.0000 0.0000
# 5 0.0000 0.0000 0.0000 0.0000 -17.0274 0.0000
# 6 0.0000 0.0000 0.0000 0.0000 0.0000 -37.1683
#
#
#
# Elastic Compliance Matrix: (Units=1/GPa)
#
#
# Indices 1 2 3 4 5 6 
#
# 1 0.034374 0.002777 -0.005540 0.000000 0.000000 0.000000
# 2 0.002777 0.027795 -0.011128 0.000000 0.000000 0.000000
# 3 -0.005540 -0.011128 0.013835 0.000000 0.000000 0.000000
# 4 0.000000 0.000000 0.000000 0.028861 0.000000 0.000000
# 5 0.000000 0.000000 0.000000 0.000000 -0.058729 0.000000
# 6 0.000000 0.000000 0.000000 0.000000 0.000000 -0.026905
#
#
# Mechanical properties :
#
#
# Convention : Reuss Voigt Hill
#
# Bulk Modulus (GPa) = 20.73774 35.69108 28.21441
# Shear Modulus (GPa) = 79.25465 5.19776 42.22620
#
# Velocity S-wave (km/s) = 6.11100 1.56498 4.46058
# Velocity P-wave (km/s) = 7.71777 4.48140 6.31058
#
# Compressibility (1/GPa) = 0.04822127
#
# Stress axis : x y z
#
# Youngs Moduli (GPa) = 29.09136 35.97777 72.28241
#
# Poissons Ratio (x) = -0.09992 0.40047
# Poissons Ratio (y) = -0.08079 0.80437
# Poissons Ratio (z) = 0.16118 0.40037
#
# Static dielectric constant tensor:
#      x y z
#    x 1.790020 0.000000 0.000000 
#    y 0.000000 1.768970 0.000000 
#    z 0.000000 0.000000 1.754630 
# 
# From -- ./inp_files/9372.got.cif
#   From: 2010.05.17/outbox.cif.g08.bks.cpg/sg64_5_cif.got.tgz:9372.got - 2010.06.03 16:29:19.
