data_PCOD9476601
_publ_section_title
;
Structure prediction by ZEFSAII (Michael W. Deem and Ramdas Pophale) SiO2 
 PCOD9476601
Probable space group: C M C A
;
_chemical_formula_sum "Si O2"
_cell_formula_units_Z 112
_cell_length_a 19.191939
_cell_length_b 13.832185
_cell_length_c 18.813804
_cell_angle_alpha 90.000000
_cell_angle_beta 90.000000
_cell_angle_gamma 90.000000
_cell_volume 4994.433773
_symmetry_space_group_name_H-M "C M C A"
_symmetry_group_IT_number 64
_symmetry_cell_setting 'orthorhombic'
loop_
_space_group_symop_operation_xyz
x,y,z
-x,1/2-y,1/2+z
x,-y,-z
-x,1/2+y,1/2-z
-x,-y,-z
x,1/2+y,1/2-z
-x,y,z
x,1/2-y,1/2+z
1/2+x,1/2+y,z
1/2-x,-y,1/2+z
1/2+x,1/2-y,-z
1/2-x,y,1/2-z
1/2-x,1/2-y,-z
1/2+x,y,1/2-z
1/2-x,1/2+y,z
1/2+x,-y,1/2+z
loop_
_atom_site_type_symbol
_atom_site_label
_atom_site_fract_x
_atom_site_fract_y
_atom_site_fract_z
Si Si1 0.799114 0.645918 0.181408
Si Si2 0.418569 0.943275 0.303637
Si Si3 0.297056 0.581209 0.901035
Si Si4 0.295928 0.644719 0.053911
Si Si5 0.654777 0.935124 0.156135
Si Si6 0.923935 0.828757 0.769807
Si Si7 0.421414 0.279451 0.418867
O O1 0.750000 0.621851 0.250000
O O2 0.753493 0.686546 0.116509
O O3 0.836913 0.550364 0.150743
O O4 0.862647 0.702025 0.217323
O O5 0.500000 0.919325 0.308560
O O6 0.371991 0.899957 0.366716
O O7 0.385098 0.914397 0.228735
O O8 0.412647 0.061334 0.298971
O O9 0.303346 0.466596 0.920151
O O10 0.235330 0.597087 0.844692
O O11 0.272294 0.633792 0.972765
O O12 0.366842 0.705511 0.046908
O O13 0.613350 0.884151 0.092329
O O14 0.925351 0.763517 0.839179
O O15 0.000000 0.827278 0.734872
O O16 0.500000 0.281854 0.448043
#
# Coordination Sequence:
#
# PCOD9476601 Si02
#       7
#    16  16  16  16  16  16  16
#     4  10  17  36  56  82 110 146 195 234 278 329
#     4  10  18  34  58  83 109 147 189 231 278 335
#     4  10  20  36  57  83 115 150 193 231 279 338
#     4  10  20  35  57  83 114 151 189 237 279 331
#     4  10  20  34  55  77 114 149 184 229 274 340
#     4   9  17  31  54  80 109 139 182 234 275 323
#     4  11  21  35  54  84 116 145 181 230 287 339
#
# _framework density 22.424963000000002
#
# number of rings (size 3 to 8) (size 9 to 14) (size 15 to 20)
#    0.000    2.000    2.857    3.429    0.000    1.714 
#    7.714    1.429    0.000    1.714    0.000   12.000 
#    0.000    0.000    0.000    0.000    0.000    0.000 
#
# Total GULP energy -312444.513403 kJ/mol
# GULP energy per Si atom -5579.366311 kJ/mol
# Density = 2.237392 g / cm^3
# Si number density = 22.424963 Si / 1000 Ang^3
#
#
#
# Elastic Constant Matrix: (Units=GPa)
#
#
# Indices 1 2 3 4 5 6 
#
# 1 118.8086 -26.7403 21.6061 0.0000 0.0000 0.0000
# 2 -26.7403 55.9252 -12.9703 0.0000 0.0000 0.0000
# 3 21.6061 -12.9703 55.9833 0.0000 0.0000 0.0000
# 4 0.0000 0.0000 0.0000 22.0037 0.0000 0.0000
# 5 0.0000 0.0000 0.0000 0.0000 19.7872 0.0000
# 6 0.0000 0.0000 0.0000 0.0000 0.0000 7.0282
#
#
#
# Elastic Compliance Matrix: (Units=1/GPa)
#
#
# Indices 1 2 3 4 5 6 
#
# 1 0.009848 0.004045 -0.002864 0.000000 0.000000 0.000000
# 2 0.004045 0.020557 0.003202 0.000000 0.000000 0.000000
# 3 -0.002864 0.003202 0.019709 0.000000 0.000000 0.000000
# 4 0.000000 0.000000 0.000000 0.045447 0.000000 0.000000
# 5 0.000000 0.000000 0.000000 0.000000 0.050538 0.000000
# 6 0.000000 0.000000 0.000000 0.000000 0.000000 0.142284
#
#
# Mechanical properties :
#
#
# Convention : Reuss Voigt Hill
#
# Bulk Modulus (GPa) = 16.98355 21.61201 19.29778
# Shear Modulus (GPa) = 16.70871 26.35193 21.53032
#
# Velocity S-wave (km/s) = 2.73260 3.43172 3.10192
# Velocity P-wave (km/s) = 4.18881 5.03593 4.63178
#
# Compressibility (1/GPa) = 0.05888050
#
# Stress axis : x y z
#
# Youngs Moduli (GPa) = 101.54356 48.64406 50.73708
#
# Poissons Ratio (x) = -0.19675 0.14529
# Poissons Ratio (y) = -0.41070 -0.16245
# Poissons Ratio (z) = 0.29078 -0.15575
#
# Static dielectric constant tensor:
#      x y z
#    x 1.860250 0.000000 0.000000 
#    y 0.000000 1.932370 0.000000 
#    z 0.000000 0.000000 1.789520 
# 
# From -- ./inp_files/40364.got.cif
#   From: 2010.05.17/outbox.cif.g08.bks.cpg/sg64_21_cif.got.tgz:40364.got - 2010.06.03 16:29:19.
