data_PCOD9476978
_publ_section_title
;
Structure prediction by ZEFSAII (Michael W. Deem and Ramdas Pophale) SiO2 
 PCOD9476978
Probable space group: C M C A
;
_chemical_formula_sum "Si O2"
_cell_formula_units_Z 88
_cell_length_a 13.646616
_cell_length_b 16.492800
_cell_length_c 18.588626
_cell_angle_alpha 90.000000
_cell_angle_beta 90.000000
_cell_angle_gamma 90.000000
_cell_volume 4183.758939
_symmetry_space_group_name_H-M "C M C A"
_symmetry_group_IT_number 64
_symmetry_cell_setting 'orthorhombic'
loop_
_space_group_symop_operation_xyz
x,y,z
-x,1/2-y,1/2+z
x,-y,-z
-x,1/2+y,1/2-z
-x,-y,-z
x,1/2+y,1/2-z
-x,y,z
x,1/2-y,1/2+z
1/2+x,1/2+y,z
1/2-x,-y,1/2+z
1/2+x,1/2-y,-z
1/2-x,y,1/2-z
1/2-x,1/2-y,-z
1/2+x,y,1/2-z
1/2-x,1/2+y,z
1/2+x,-y,1/2+z
loop_
_atom_site_type_symbol
_atom_site_label
_atom_site_fract_x
_atom_site_fract_y
_atom_site_fract_z
Si Si1 0.192205 0.819245 0.090385
Si Si2 0.000000 0.013382 0.802502
Si Si3 0.500000 0.885046 0.822865
Si Si4 0.859724 0.919660 0.546221
Si Si5 0.000000 0.201979 0.813101
Si Si6 0.162703 0.001496 0.078932
Si Si7 0.112516 0.260851 0.050060
O O1 0.101357 0.800209 0.141896
O O2 0.213777 0.914521 0.092657
O O3 0.293653 0.770600 0.102748
O O4 0.147155 0.800961 0.011606
O O5 0.000000 0.109663 0.780363
O O6 0.090728 0.991734 0.854587
O O7 0.000000 0.955620 0.734939
O O8 0.588097 0.899607 0.878940
O O9 0.500000 0.795630 0.785901
O O10 0.883764 0.845297 0.494023
O O11 0.887250 0.000000 0.500000
O O12 0.747626 0.933503 0.569127
O O13 0.112577 0.000000 0.000000
O O14 0.000000 0.246200 0.074692
#
# Coordination Sequence:
#
# PCOD9476978 Si02
#       7
#    16   8   8  16   8  16  16
#     4  10  18  33  57  91 126 166 204 263 319 384
#     4  10  25  41  67  88 128 178 218 266 325 403
#     4  12  23  41  69  88 132 176 216 276 323 405
#     4  11  20  35  61  97 125 162 212 265 334 382
#     4  10  20  42  68  88 122 182 228 256 336 388
#     4  10  20  38  61  94 124 160 211 273 327 385
#     4  11  19  31  55  94 130 161 205 258 331 384
#
# _framework density 21.033715999999998
#
# number of rings (size 3 to 8) (size 9 to 14) (size 15 to 20)
#    0.000    1.455    7.273    0.545    0.000    0.727 
#    0.000    0.000    8.000    2.182    0.000    0.000 
#    0.000    0.000    0.000    0.000    0.000    0.000 
#
# Total GULP energy -245022.415937 kJ/mol
# GULP energy per Si atom -5568.691271 kJ/mol
# Density = 2.098584 g / cm^3
# Si number density = 21.033716 Si / 1000 Ang^3
#
#
#
# Elastic Constant Matrix: (Units=GPa)
#
#
# Indices 1 2 3 4 5 6 
#
# 1 143.7027 19.8479 2.8136 0.0000 0.0000 0.0000
# 2 19.8479 121.7918 29.5176 0.0000 0.0000 0.0000
# 3 2.8136 29.5176 39.3487 0.0000 0.0000 0.0000
# 4 0.0000 0.0000 0.0000 26.6528 0.0000 0.0000
# 5 0.0000 0.0000 0.0000 0.0000 2.6858 0.0000
# 6 0.0000 0.0000 0.0000 0.0000 0.0000 15.6903
#
#
#
# Elastic Compliance Matrix: (Units=1/GPa)
#
#
# Indices 1 2 3 4 5 6 
#
# 1 0.007125 -0.001268 0.000442 0.000000 0.000000 0.000000
# 2 -0.001268 0.010261 -0.007607 0.000000 0.000000 0.000000
# 3 0.000442 -0.007607 0.031088 0.000000 0.000000 0.000000
# 4 0.000000 0.000000 0.000000 0.037520 0.000000 0.000000
# 5 0.000000 0.000000 0.000000 0.000000 0.372326 0.000000
# 6 0.000000 0.000000 0.000000 0.000000 0.000000 0.063734
#
#
# Mechanical properties :
#
#
# Convention : Reuss Voigt Hill
#
# Bulk Modulus (GPa) = 31.63690 45.46684 38.55187
# Shear Modulus (GPa) = 9.09991 25.85005 17.47498
#
# Velocity S-wave (km/s) = 2.08224 3.50949 2.88550
# Velocity P-wave (km/s) = 4.56669 6.17131 5.42862
#
# Compressibility (1/GPa) = 0.03160866
#
# Stress axis : x y z
#
# Youngs Moduli (GPa) = 140.34435 97.45671 32.16639
#
# Poissons Ratio (x) = 0.12360 -0.01421
# Poissons Ratio (y) = 0.17800 0.24468
# Poissons Ratio (z) = -0.06202 0.74132
#
# Static dielectric constant tensor:
#      x y z
#    x 1.878450 0.000000 0.000000 
#    y 0.000000 1.815430 0.000000 
#    z 0.000000 0.000000 1.735560 
# 
# From -- ./inp_files/32202.got.cif
#   From: 2010.05.17/outbox.cif.g08.bks.cpg/sg64_17_cif.got.tgz:32202.got - 2010.06.03 16:29:19.
