data_PCOD9476204
_publ_section_title
;
Structure prediction by ZEFSAII (Michael W. Deem and Ramdas Pophale) SiO2 
 PCOD9476204
Probable space group: C M C M
;
_chemical_formula_sum "Si O2"
_cell_formula_units_Z 32
_cell_length_a 24.000000
_cell_length_b 9.000000
_cell_length_c 15.000000
_cell_angle_alpha 90.000000
_cell_angle_beta 90.000000
_cell_angle_gamma 90.000000
_cell_volume 3240.000000
_symmetry_space_group_name_H-M "C M C M"
_symmetry_group_IT_number 63
_symmetry_cell_setting 'orthorhombic'
loop_
_space_group_symop_operation_xyz
x,y,z
-x,-y,1/2+z
x,-y,-z
-x,y,1/2-z
-x,-y,-z
x,y,1/2-z
-x,y,z
x,-y,1/2+z
1/2+x,1/2+y,z
1/2-x,1/2-y,1/2+z
1/2+x,1/2-y,-z
1/2-x,1/2+y,1/2-z
1/2-x,1/2-y,-z
1/2+x,1/2+y,1/2-z
1/2-x,1/2+y,z
1/2+x,1/2-y,1/2+z
loop_
_atom_site_type_symbol
_atom_site_label
_atom_site_fract_x
_atom_site_fract_y
_atom_site_fract_z
Si Si1 0.897821 0.901864 0.639610
Si Si2 0.215392 0.726176 0.856231
Si Si3 0.067442 0.220113 0.947623
Si Si4 0.828865 0.393971 0.639667
O O1 0.910575 0.884093 0.750000
O O2 0.832784 0.851809 0.630870
O O3 0.925144 0.806463 0.555905
O O4 0.914349 0.068694 0.606904
O O5 0.222421 0.709962 0.750000
O O6 0.191203 0.563445 0.884688
O O7 0.276436 0.785445 0.887157
O O8 0.113487 0.339680 0.909004
O O9 0.000000 0.247542 0.932386
O O10 0.835727 0.388125 0.750000
#
# Coordination Sequence:
#
# PCOD9476204 Si02
#       4
#    16  16  16  16
#     4  10  21  40  63  87 118 154 200 255 302 353
#     4   9  19  37  64  95 123 158 201 249 309 359
#     4  11  24  39  60  90 121 163 207 240 295 363
#     4  10  20  37  62  93 128 159 198 251 299 355
#
# _framework density 9.8765429999999999
#
# number of rings (size 3 to 8) (size 9 to 14) (size 15 to 20)
#    0.000    2.000    0.000    3.750    0.000    9.500 
#    0.000    3.750    0.000    9.000    0.000    0.000 
#    0.000    0.000    0.000    0.000    0.000    0.000 
#
# Total GULP energy -178256.161978 kJ/mol
# GULP energy per Si atom -5570.505062 kJ/mol
# Density = 0.985406 g / cm^3
# Si number density = 9.876543 Si / 1000 Ang^3
#
#
#
# Elastic Constant Matrix: (Units=GPa)
#
#
# Indices 1 2 3 4 5 6 
#
# 1 192.3060 59.4512 33.6162 0.0000 0.0000 0.0000
# 2 59.4512 90.9950 11.5981 0.0000 0.0000 0.0000
# 3 33.6162 11.5981 108.5563 0.0000 0.0000 0.0000
# 4 0.0000 0.0000 0.0000 28.3291 0.0000 0.0000
# 5 0.0000 0.0000 0.0000 0.0000 40.1318 0.0000
# 6 0.0000 0.0000 0.0000 0.0000 0.0000 36.5285
#
#
#
# Elastic Compliance Matrix: (Units=1/GPa)
#
#
# Indices 1 2 3 4 5 6 
#
# 1 0.006797 -0.004230 -0.001653 0.000000 0.000000 0.000000
# 2 -0.004230 0.013774 -0.000162 0.000000 0.000000 0.000000
# 3 -0.001653 -0.000162 0.009741 0.000000 0.000000 0.000000
# 4 0.000000 0.000000 0.000000 0.035299 0.000000 0.000000
# 5 0.000000 0.000000 0.000000 0.000000 0.024918 0.000000
# 6 0.000000 0.000000 0.000000 0.000000 0.000000 0.027376
#
#
# Mechanical properties :
#
#
# Convention : Reuss Voigt Hill
#
# Bulk Modulus (GPa) = 54.87704 66.79870 60.83787
# Shear Modulus (GPa) = 36.74649 40.14401 38.44525
#
# Velocity S-wave (km/s) = 4.31779 4.51298 4.41646
# Velocity P-wave (km/s) = 7.25944 7.81321 7.54141
#
# Compressibility (1/GPa) = 0.01822256
#
# Stress axis : x y z
#
# Youngs Moduli (GPa) = 147.13193 72.60156 102.66000
#
# Poissons Ratio (x) = 0.30710 0.16967
# Poissons Ratio (y) = 0.62235 0.01660
# Poissons Ratio (z) = 0.24317 0.01174
#
# Static dielectric constant tensor:
#      x y z
#    x 1.700450 0.000000 0.000000 
#    y 0.000000 1.744010 0.000000 
#    z 0.000000 0.000000 1.753100 
# 
# From -- ./inp_files/36182.got.cif
#   From: 2010.05.17/outbox.ucp.g08.bks.cvg/sg63_19_cif.got.tgz:36182.got - 2010.06.11 16:32:19.
