data_PCOD9476317
_publ_section_title
;
Structure prediction by ZEFSAII (Michael W. Deem and Ramdas Pophale) SiO2 
 PCOD9476317
Probable space group: C M C A
;
_chemical_formula_sum "Si O2"
_cell_formula_units_Z 72
_cell_length_a 29.790842
_cell_length_b 5.268876
_cell_length_c 21.940947
_cell_angle_alpha 90.000000
_cell_angle_beta 90.000000
_cell_angle_gamma 90.000000
_cell_volume 3443.944344
_symmetry_space_group_name_H-M "C M C A"
_symmetry_group_IT_number 64
_symmetry_cell_setting 'orthorhombic'
loop_
_space_group_symop_operation_xyz
x,y,z
-x,1/2-y,1/2+z
x,-y,-z
-x,1/2+y,1/2-z
-x,-y,-z
x,1/2+y,1/2-z
-x,y,z
x,1/2-y,1/2+z
1/2+x,1/2+y,z
1/2-x,-y,1/2+z
1/2+x,1/2-y,-z
1/2-x,y,1/2-z
1/2-x,1/2-y,-z
1/2+x,y,1/2-z
1/2-x,1/2+y,z
1/2+x,-y,1/2+z
loop_
_atom_site_type_symbol
_atom_site_label
_atom_site_fract_x
_atom_site_fract_y
_atom_site_fract_z
Si Si1 0.778159 0.783602 0.418115
Si Si2 0.871588 0.577284 0.435361
Si Si3 0.094402 0.579788 0.072146
Si Si4 0.500000 0.251583 0.542662
Si Si5 0.300712 0.225878 0.276139
O O1 0.758316 0.061875 0.429670
O O2 0.823648 0.700803 0.451014
O O3 0.793539 0.766860 0.347461
O O4 0.893997 0.500000 0.500000
O O5 0.870273 0.295585 0.406658
O O6 0.897857 0.799625 0.400196
O O7 0.045898 0.709602 0.080139
O O8 0.099474 0.500000 0.000000
O O9 0.500000 0.500000 0.500000
O O10 0.500000 0.000000 0.500000
O O11 0.322852 0.962222 0.257583
O O12 0.250000 0.200372 0.250000
#
# Coordination Sequence:
#
# PCOD9476317 Si02
#       5
#    16  16  16   8  16
#     4  12  21  31  48  65  84 123 167 187 226 275
#     4  10  21  33  43  61  95 128 153 191 224 255
#     4   9  17  31  46  64  90 118 149 187 232 263
#     4  10  16  26  50  74  84 110 156 190 222 284
#     4  10  16  30  47  65  83 102 142 193 252 274
#
# _framework density 20.906258999999999
#
# number of rings (size 3 to 8) (size 9 to 14) (size 15 to 20)
#    0.000    1.778    4.444    4.667    0.000    0.889 
#    0.000    0.000    0.000    0.000    0.000    0.000 
#    0.000    0.000    0.000   20.000    0.000    2.222 
#
# Total GULP energy -200469.403212 kJ/mol
# GULP energy per Si atom -5568.594534 kJ/mol
# Density = 2.085868 g / cm^3
# Si number density = 20.906259 Si / 1000 Ang^3
#
#
#
# Elastic Constant Matrix: (Units=GPa)
#
#
# Indices 1 2 3 4 5 6 
#
# 1 87.9903 28.6734 -9.9929 0.0000 0.0000 0.0000
# 2 28.6734 173.0467 -21.0988 0.0000 0.0000 0.0000
# 3 -9.9929 -21.0988 28.7042 0.0000 0.0000 0.0000
# 4 0.0000 0.0000 0.0000 5.9932 0.0000 0.0000
# 5 0.0000 0.0000 0.0000 0.0000 -0.8754 0.0000
# 6 0.0000 0.0000 0.0000 0.0000 0.0000 24.4737
#
#
#
# Elastic Compliance Matrix: (Units=1/GPa)
#
#
# Indices 1 2 3 4 5 6 
#
# 1 0.012251 -0.001659 0.003046 0.000000 0.000000 0.000000
# 2 -0.001659 0.006572 0.004253 0.000000 0.000000 0.000000
# 3 0.003046 0.004253 0.039025 0.000000 0.000000 0.000000
# 4 0.000000 0.000000 0.000000 0.166854 0.000000 0.000000
# 5 0.000000 0.000000 0.000000 0.000000 -1.142285 0.000000
# 6 0.000000 0.000000 0.000000 0.000000 0.000000 0.040860
#
#
# Mechanical properties :
#
#
# Convention : Reuss Voigt Hill
#
# Bulk Modulus (GPa) = 14.46550 31.65606 23.06078
# Shear Modulus (GPa) = -5.78062 25.39560 9.80749
#
# Velocity S-wave (km/s) = -1.66464 3.48909 2.16826
# Velocity P-wave (km/s) = 1.79987 5.60414 4.16209
#
# Compressibility (1/GPa) = 0.06912999
#
# Stress axis : x y z
#
# Youngs Moduli (GPa) = 81.62387 152.15557 25.62462
#
# Poissons Ratio (x) = 0.25237 -0.07805
# Poissons Ratio (y) = 0.13538 -0.10899
# Poissons Ratio (z) = -0.24862 -0.64718
#
# Static dielectric constant tensor:
#      x y z
#    x 1.809280 0.000000 0.000000 
#    y 0.000000 1.968400 0.000000 
#    z 0.000000 0.000000 1.795610 
# 
# From -- ./inp_files/47015.got.cif
#   From: 2010.05.17/outbox.cif.g08.bks.cpg/sg64_24_cif.got.tgz:47015.got - 2010.06.03 16:29:19.
