data_PCOD9476311
_publ_section_title
;
Structure prediction by ZEFSAII (Michael W. Deem and Ramdas Pophale) SiO2 
 PCOD9476311
Probable space group: C M C A
;
_chemical_formula_sum "Si O2"
_cell_formula_units_Z 128
_cell_length_a 19.702059
_cell_length_b 14.269091
_cell_length_c 20.931428
_cell_angle_alpha 90.000000
_cell_angle_beta 90.000000
_cell_angle_gamma 90.000000
_cell_volume 5884.462249
_symmetry_space_group_name_H-M "C M C A"
_symmetry_group_IT_number 64
_symmetry_cell_setting 'orthorhombic'
loop_
_space_group_symop_operation_xyz
x,y,z
-x,1/2-y,1/2+z
x,-y,-z
-x,1/2+y,1/2-z
-x,-y,-z
x,1/2+y,1/2-z
-x,y,z
x,1/2-y,1/2+z
1/2+x,1/2+y,z
1/2-x,-y,1/2+z
1/2+x,1/2-y,-z
1/2-x,y,1/2-z
1/2-x,1/2-y,-z
1/2+x,y,1/2-z
1/2-x,1/2+y,z
1/2+x,-y,1/2+z
loop_
_atom_site_type_symbol
_atom_site_label
_atom_site_fract_x
_atom_site_fract_y
_atom_site_fract_z
Si Si1 0.309549 0.488738 0.924754
Si Si2 0.925266 0.500787 0.332010
Si Si3 0.312546 0.249946 0.580818
Si Si4 0.579545 0.962188 0.805998
Si Si5 0.342133 0.526713 0.427644
Si Si6 0.673983 0.717486 0.276799
Si Si7 0.336685 0.778205 0.554531
Si Si8 0.075652 0.731110 0.333182
O O1 0.366226 0.531261 0.879096
O O2 0.232097 0.515014 0.911115
O O3 0.321637 0.500000 0.000000
O O4 0.316985 0.377605 0.914618
O O5 0.914529 0.475661 0.257820
O O6 0.927432 0.615962 0.332326
O O7 0.000000 0.468486 0.352676
O O8 0.329556 0.360814 0.573017
O O9 0.323435 0.229781 0.655310
O O10 0.352622 0.208279 0.520141
O O11 0.234386 0.224655 0.563578
O O12 0.500000 0.932332 0.809052
O O13 0.603812 0.001038 0.873934
O O14 0.632577 0.877655 0.792997
O O15 0.360076 0.500000 0.500000
O O16 0.750000 0.700197 0.250000
O O17 0.629781 0.761157 0.219932
O O18 0.397160 0.739944 0.597250
O O19 0.000000 0.765360 0.319973
#
# Coordination Sequence:
#
# PCOD9476311 Si02
#       8
#    16  16  16  16  16  16  16  16
#     4   9  17  28  45  69  92 119 152 189 231 276
#     4   8  15  26  42  66  91 115 147 189 230 269
#     4   9  17  28  47  70  90 117 157 195 229 277
#     4   9  18  28  43  67  92 118 152 194 232 271
#     4   9  18  30  45  66  92 120 151 188 229 275
#     4  10  16  26  45  71  92 117 154 194 235 275
#     4   9  16  29  45  66  93 121 151 190 233 278
#     4   9  16  27  43  65  96 122 148 190 234 274
#
# _framework density 21.752199999999998
#
# number of rings (size 3 to 8) (size 9 to 14) (size 15 to 20)
#    0.000    3.000    1.250    1.125    5.250    0.500 
#    0.000    3.125    0.000    1.500    0.000    1.750 
#    0.000    0.000    0.000    0.000    0.000    0.000 
#
# Total GULP energy -356550.022435 kJ/mol
# GULP energy per Si atom -5571.094101 kJ/mol
# Density = 2.170269 g / cm^3
# Si number density = 21.752200 Si / 1000 Ang^3
#
#
#
# Elastic Constant Matrix: (Units=GPa)
#
#
# Indices 1 2 3 4 5 6 
#
# 1 148.7476 5.9273 104.3396 0.0000 0.0000 0.0000
# 2 5.9273 50.5378 -8.9027 0.0000 0.0000 0.0000
# 3 104.3396 -8.9027 166.3001 0.0000 0.0000 0.0000
# 4 0.0000 0.0000 0.0000 17.4844 0.0000 0.0000
# 5 0.0000 0.0000 0.0000 0.0000 35.9617 0.0000
# 6 0.0000 0.0000 0.0000 0.0000 0.0000 -0.8771
#
#
#
# Elastic Compliance Matrix: (Units=1/GPa)
#
#
# Indices 1 2 3 4 5 6 
#
# 1 0.012402 -0.002852 -0.007934 0.000000 0.000000 0.000000
# 2 -0.002852 0.020631 0.002894 0.000000 0.000000 0.000000
# 3 -0.007934 0.002894 0.011146 0.000000 0.000000 0.000000
# 4 0.000000 0.000000 0.000000 0.057194 0.000000 0.000000
# 5 0.000000 0.000000 0.000000 0.000000 0.027807 0.000000
# 6 0.000000 0.000000 0.000000 0.000000 0.000000 -1.140127
#
#
# Mechanical properties :
#
#
# Convention : Reuss Voigt Hill
#
# Bulk Modulus (GPa) = 35.21711 63.14596 49.18154
# Shear Modulus (GPa) = -5.07254 28.12856 11.52801
#
# Velocity S-wave (km/s) = -1.52874 3.59992 2.30460
# Velocity P-wave (km/s) = 3.62067 6.80970 5.45349
#
# Compressibility (1/GPa) = 0.02839529
#
# Stress axis : x y z
#
# Youngs Moduli (GPa) = 80.63537 48.46969 89.71963
#
# Poissons Ratio (x) = 0.13824 0.71180
# Poissons Ratio (y) = 0.22998 -0.25964
# Poissons Ratio (z) = 0.63973 -0.14027
#
# Static dielectric constant tensor:
#      x y z
#    x 1.790750 0.000000 0.000000 
#    y 0.000000 1.911430 0.000000 
#    z 0.000000 0.000000 1.822640 
# 
# From -- ./inp_files/33750.got.cif
#   From: 2010.05.17/outbox.cif.g08.bks.cpg/sg64_17_cif.got.tgz:33750.got - 2010.06.03 16:29:19.
