data_PCOD9476098
_publ_section_title
;
Structure prediction by ZEFSAII (Michael W. Deem and Ramdas Pophale) SiO2 
 PCOD9476098
Probable space group: C M C M
;
_chemical_formula_sum "Si O2"
_cell_formula_units_Z 40
_cell_length_a 27.000000
_cell_length_b 18.000000
_cell_length_c 9.000000
_cell_angle_alpha 90.000000
_cell_angle_beta 90.000000
_cell_angle_gamma 90.000000
_cell_volume 4374.000000
_symmetry_space_group_name_H-M "C M C M"
_symmetry_group_IT_number 63
_symmetry_cell_setting 'orthorhombic'
loop_
_space_group_symop_operation_xyz
x,y,z
-x,-y,1/2+z
x,-y,-z
-x,y,1/2-z
-x,-y,-z
x,y,1/2-z
-x,y,z
x,-y,1/2+z
1/2+x,1/2+y,z
1/2-x,1/2-y,1/2+z
1/2+x,1/2-y,-z
1/2-x,1/2+y,1/2-z
1/2-x,1/2-y,-z
1/2+x,1/2+y,1/2-z
1/2-x,1/2+y,z
1/2+x,1/2-y,1/2+z
loop_
_atom_site_type_symbol
_atom_site_label
_atom_site_fract_x
_atom_site_fract_y
_atom_site_fract_z
Si Si1 0.444673 0.377325 0.927734
Si Si2 0.098963 0.283071 0.425982
Si Si3 0.654645 0.429734 0.423593
Si Si4 0.698339 0.268480 0.074761
Si Si5 0.559444 0.926936 0.917863
O O1 0.441770 0.388666 0.750000
O O2 0.500000 0.397441 0.977930
O O3 0.433794 0.290248 0.957055
O O4 0.399569 0.418239 0.005956
O O5 0.104890 0.288100 0.250000
O O6 0.152333 0.273682 0.501031
O O7 0.072976 0.354718 0.490579
O O8 0.679159 0.500000 0.500000
O O9 0.649043 0.442595 0.250000
O O10 0.685293 0.355049 0.447470
O O11 0.699864 0.253383 0.250000
O O12 0.750000 0.250000 0.000000
O O13 0.578419 0.921826 0.750000
O O14 0.500000 0.932491 0.911040
O O15 0.578627 0.000000 0.000000
#
# Coordination Sequence:
#
# PCOD9476098 Si02
#       5
#    16  16  16  16  16
#     4   9  18  32  51  76 106 141 178 213 252 301
#     4  10  19  33  54  78 105 137 175 219 265 315
#     4  10  21  36  55  79 107 138 172 211 256 306
#     4  10  21  38  59  82 105 133 173 218 266 317
#     4  10  20  33  50  74 106 143 180 219 264 314
#
# _framework density 9.1449470000000002
#
# number of rings (size 3 to 8) (size 9 to 14) (size 15 to 20)
#    0.000    2.200    0.000    3.000    0.000    6.000 
#    0.000    1.000    0.000    2.400    0.000    0.000 
#    0.000    0.000    0.000    0.000    0.000    0.000 
#
# Total GULP energy -223193.915983 kJ/mol
# GULP energy per Si atom -5579.847900 kJ/mol
# Density = 0.912413 g / cm^3
# Si number density = 9.144947 Si / 1000 Ang^3
#
#
#
# Elastic Constant Matrix: (Units=GPa)
#
#
# Indices 1 2 3 4 5 6 
#
# 1 48.6566 -9.5666 44.1997 0.0000 0.0000 0.0000
# 2 -9.5666 73.0917 60.3708 0.0000 0.0000 0.0000
# 3 44.1997 60.3708 50.3989 0.0000 0.0000 0.0000
# 4 0.0000 0.0000 0.0000 27.6916 0.0000 0.0000
# 5 0.0000 0.0000 0.0000 0.0000 26.4883 0.0000
# 6 0.0000 0.0000 0.0000 0.0000 0.0000 -9.2646
#
#
#
# Elastic Compliance Matrix: (Units=1/GPa)
#
#
# Indices 1 2 3 4 5 6 
#
# 1 -0.000199 -0.016029 0.019374 0.000000 0.000000 0.000000
# 2 -0.016029 -0.002537 0.017096 0.000000 0.000000 0.000000
# 3 0.019374 0.017096 -0.017628 0.000000 0.000000 0.000000
# 4 0.000000 0.000000 0.000000 0.036112 0.000000 0.000000
# 5 0.000000 0.000000 0.000000 0.000000 0.037753 0.000000
# 6 0.000000 0.000000 0.000000 0.000000 0.000000 -0.107937
#
#
# Mechanical properties :
#
#
# Convention : Reuss Voigt Hill
#
# Bulk Modulus (GPa) = 48.73403 40.23944 44.48674
# Shear Modulus (GPa) = -56.51024 14.12593 -21.19215
#
# Velocity S-wave (km/s) = -5.56453 2.78211 -3.40763
# Velocity P-wave (km/s) = 3.81867 5.68936 2.98217
#
# Compressibility (1/GPa) = 0.02051954
#
# Stress axis : x y z
#
# Youngs Moduli (GPa) = -5025.18296 -394.19783 -56.72846
#
# Poissons Ratio (x) = -6.31841 1.09908
# Poissons Ratio (y) = -80.54632 0.96981
# Poissons Ratio (z) = 97.36003 6.73909
#
# Static dielectric constant tensor:
#      x y z
#    x 1.579160 0.000000 0.000000 
#    y 0.000000 1.654560 0.000000 
#    z 0.000000 0.000000 1.616060 
# 
# From -- ./inp_files/11977.got.cif
#   From: 2010.05.17/outbox.ucp.g08.bks.cvg/sg63_6_cif.got.tgz:11977.got - 2010.06.11 16:32:19.
