data_PCOD9476496
_publ_section_title
;
Structure prediction by ZEFSAII (Michael W. Deem and Ramdas Pophale) SiO2 
 PCOD9476496
Probable space group: C M C A
;
_chemical_formula_sum "Si O2"
_cell_formula_units_Z 128
_cell_length_a 18.052396
_cell_length_b 19.950571
_cell_length_c 21.867457
_cell_angle_alpha 90.000000
_cell_angle_beta 90.000000
_cell_angle_gamma 90.000000
_cell_volume 7875.687274
_symmetry_space_group_name_H-M "C M C A"
_symmetry_group_IT_number 64
_symmetry_cell_setting 'orthorhombic'
loop_
_space_group_symop_operation_xyz
x,y,z
-x,1/2-y,1/2+z
x,-y,-z
-x,1/2+y,1/2-z
-x,-y,-z
x,1/2+y,1/2-z
-x,y,z
x,1/2-y,1/2+z
1/2+x,1/2+y,z
1/2-x,-y,1/2+z
1/2+x,1/2-y,-z
1/2-x,y,1/2-z
1/2-x,1/2-y,-z
1/2+x,y,1/2-z
1/2-x,1/2+y,z
1/2+x,-y,1/2+z
loop_
_atom_site_type_symbol
_atom_site_label
_atom_site_fract_x
_atom_site_fract_y
_atom_site_fract_z
Si Si1 0.584573 0.143641 0.763413
Si Si2 0.586236 0.801851 0.539595
Si Si3 0.172514 0.294825 0.417430
Si Si4 0.412040 0.919274 0.359791
Si Si5 0.084145 0.779442 0.681107
Si Si6 0.825143 0.147613 0.221482
Si Si7 0.830021 0.222091 0.639893
Si Si8 0.086289 0.928491 0.880508
O O1 0.500000 0.132287 0.784575
O O2 0.604755 0.087199 0.713147
O O3 0.584063 0.211746 0.722501
O O4 0.638724 0.160864 0.819384
O O5 0.500000 0.793036 0.521241
O O6 0.644451 0.786566 0.486308
O O7 0.606264 0.754773 0.597425
O O8 0.595900 0.878899 0.561975
O O9 0.135739 0.363864 0.394018
O O10 0.135346 0.236648 0.376408
O O11 0.259174 0.295253 0.401423
O O12 0.500000 0.902977 0.365721
O O13 0.400031 0.992755 0.387235
O O14 0.117732 0.835775 0.724541
O O15 0.000000 0.792986 0.662803
O O16 0.750000 0.120834 0.250000
O O17 0.807836 0.218263 0.186977
O O18 0.861864 0.099715 0.172344
O O19 0.000000 0.920882 0.862094
#
# Coordination Sequence:
#
# PCOD9476496 Si02
#       8
#    16  16  16  16  16  16  16  16
#     4   8  15  28  47  68  93 123 156 192 235 287
#     4  10  20  33  50  69  95 131 165 195 235 285
#     4  11  19  30  46  71  99 126 158 202 238 282
#     4   9  18  32  49  71  97 125 160 198 232 281
#     4   9  16  26  44  67  92 122 156 193 236 287
#     4  10  17  30  46  68  93 124 152 195 244 289
#     4  10  19  30  47  69  99 124 155 195 244 284
#     4   9  19  34  49  68  95 127 162 196 232 282
#
# _framework density 16.252548999999998
#
# number of rings (size 3 to 8) (size 9 to 14) (size 15 to 20)
#    0.000    2.500    1.250    3.000    0.000    3.500 
#    2.250    1.875    0.000    0.000    0.000    0.000 
#    0.000    0.000    0.000   13.125    0.000    0.500 
#
# Total GULP energy -356527.866709 kJ/mol
# GULP energy per Si atom -5570.747917 kJ/mol
# Density = 1.621556 g / cm^3
# Si number density = 16.252549 Si / 1000 Ang^3
#
#
#
# Elastic Constant Matrix: (Units=GPa)
#
#
# Indices 1 2 3 4 5 6 
#
# 1 46.2138 1.0953 13.0313 0.0000 0.0000 0.0000
# 2 1.0953 25.5825 -1.9472 0.0000 0.0000 0.0000
# 3 13.0313 -1.9472 51.2570 0.0000 0.0000 0.0000
# 4 0.0000 0.0000 0.0000 10.4347 0.0000 0.0000
# 5 0.0000 0.0000 0.0000 0.0000 31.0246 0.0000
# 6 0.0000 0.0000 0.0000 0.0000 0.0000 12.3538
#
#
#
# Elastic Compliance Matrix: (Units=1/GPa)
#
#
# Indices 1 2 3 4 5 6 
#
# 1 0.023364 -0.001457 -0.005995 0.000000 0.000000 0.000000
# 2 -0.001457 0.039293 0.001863 0.000000 0.000000 0.000000
# 3 -0.005995 0.001863 0.021104 0.000000 0.000000 0.000000
# 4 0.000000 0.000000 0.000000 0.095834 0.000000 0.000000
# 5 0.000000 0.000000 0.000000 0.000000 0.032233 0.000000
# 6 0.000000 0.000000 0.000000 0.000000 0.000000 0.080947
#
#
# Mechanical properties :
#
#
# Convention : Reuss Voigt Hill
#
# Bulk Modulus (GPa) = 13.77715 16.37912 15.07814
# Shear Modulus (GPa) = 15.23705 18.15419 16.69562
#
# Velocity S-wave (km/s) = 3.06521 3.34579 3.20857
# Velocity P-wave (km/s) = 4.58505 5.00255 4.79834
#
# Compressibility (1/GPa) = 0.07258395
#
# Stress axis : x y z
#
# Youngs Moduli (GPa) = 42.80164 25.44958 47.38332
#
# Poissons Ratio (x) = 0.03707 0.28407
# Poissons Ratio (y) = 0.06235 -0.08828
# Poissons Ratio (z) = 0.25660 -0.04741
#
# Static dielectric constant tensor:
#      x y z
#    x 1.548420 0.000000 0.000000 
#    y 0.000000 1.537430 0.000000 
#    z 0.000000 0.000000 1.561020 
# 
# From -- ./inp_files/33780.got.cif
#   From: 2010.05.17/outbox.cif.g08.bks.cpg/sg64_17_cif.got.tgz:33780.got - 2010.06.03 16:29:19.
