data_PCOD9476288
_publ_section_title
;
Structure prediction by ZEFSAII (Michael W. Deem and Ramdas Pophale) SiO2 
 PCOD9476288
Probable space group: C M C M
;
_chemical_formula_sum "Si O2"
_cell_formula_units_Z 48
_cell_length_a 15.000000
_cell_length_b 21.000000
_cell_length_c 15.000000
_cell_angle_alpha 90.000000
_cell_angle_beta 90.000000
_cell_angle_gamma 90.000000
_cell_volume 4725.000000
_symmetry_space_group_name_H-M "C M C M"
_symmetry_group_IT_number 63
_symmetry_cell_setting 'orthorhombic'
loop_
_space_group_symop_operation_xyz
x,y,z
-x,-y,1/2+z
x,-y,-z
-x,y,1/2-z
-x,-y,-z
x,y,1/2-z
-x,y,z
x,-y,1/2+z
1/2+x,1/2+y,z
1/2-x,1/2-y,1/2+z
1/2+x,1/2-y,-z
1/2-x,1/2+y,1/2-z
1/2-x,1/2-y,-z
1/2+x,1/2+y,1/2-z
1/2-x,1/2+y,z
1/2+x,1/2-y,1/2+z
loop_
_atom_site_type_symbol
_atom_site_label
_atom_site_fract_x
_atom_site_fract_y
_atom_site_fract_z
Si Si1 0.106633 0.386986 0.147503
Si Si2 0.292068 0.986682 0.858745
Si Si3 0.392993 0.857407 0.644644
Si Si4 0.105255 0.824751 0.848381
Si Si5 0.107856 0.273522 0.486651
Si Si6 0.402575 0.522854 0.355192
O O1 0.134865 0.374167 0.250000
O O2 0.146756 0.453912 0.117451
O O3 0.130419 0.330429 0.081395
O O4 0.000000 0.391871 0.147653
O O5 0.288371 0.984074 0.750000
O O6 0.336639 0.919544 0.884088
O O7 0.191778 0.000233 0.891885
O O8 0.379586 0.846918 0.750000
O O9 0.500000 0.869508 0.631615
O O10 0.365111 0.797304 0.584380
O O11 0.144212 0.808959 0.750000
O O12 0.141801 0.789092 0.935344
O O13 0.106592 0.900529 0.858605
O O14 0.000000 0.807043 0.842922
O O15 0.000000 0.267872 0.492917
O O16 0.405166 0.505786 0.250000
O O17 0.500000 0.504481 0.392596
#
# Coordination Sequence:
#
# PCOD9476288 Si02
#       6
#    16  16  16  16  16  16
#     4   9  16  25  39  62  91 118 140 164 199 249
#     4   9  16  26  39  56  82 112 140 173 210 245
#     4   9  17  28  40  56  82 115 147 175 202 240
#     4   8  13  23  40  61  85 111 137 169 211 254
#     4   9  16  25  39  60  86 115 142 167 203 253
#     4   8  14  25  42  62  82 106 138 177 217 251
#
# _framework density 10.15873
#
# number of rings (size 3 to 8) (size 9 to 14) (size 15 to 20)
#    0.000    3.333    0.000    2.000    0.000    4.667 
#    0.000    3.333    0.000    0.000    0.000    2.333 
#    0.000    4.000    0.000   29.167    0.000    1.000 
#
# Total GULP energy -267393.757410 kJ/mol
# GULP energy per Si atom -5570.703279 kJ/mol
# Density = 1.013561 g / cm^3
# Si number density = 10.158730 Si / 1000 Ang^3
#
#
#
# Elastic Constant Matrix: (Units=GPa)
#
#
# Indices 1 2 3 4 5 6 
#
# 1 26.6436 -9.5480 8.6877 0.0000 0.0000 0.0000
# 2 -9.5480 -7.3078 -2.6872 0.0000 0.0000 0.0000
# 3 8.6877 -2.6872 49.8970 0.0000 0.0000 0.0000
# 4 0.0000 0.0000 0.0000 -10.4145 0.0000 0.0000
# 5 0.0000 0.0000 0.0000 0.0000 -0.6296 0.0000
# 6 0.0000 0.0000 0.0000 0.0000 0.0000 -14.9819
#
#
#
# Elastic Compliance Matrix: (Units=1/GPa)
#
#
# Indices 1 2 3 4 5 6 
#
# 1 0.027629 -0.033663 -0.006623 0.000000 0.000000 0.000000
# 2 -0.033663 -0.093168 0.000844 0.000000 0.000000 0.000000
# 3 -0.006623 0.000844 0.021240 0.000000 0.000000 0.000000
# 4 0.000000 0.000000 0.000000 -0.096020 0.000000 0.000000
# 5 0.000000 0.000000 0.000000 0.000000 -1.588388 0.000000
# 6 0.000000 0.000000 0.000000 0.000000 0.000000 -0.066747
#
#
# Mechanical properties :
#
#
# Convention : Reuss Voigt Hill
#
# Bulk Modulus (GPa) = -8.11792 6.90419 -0.60687
# Shear Modulus (GPa) = -2.84474 -0.35316 -1.59895
#
# Velocity S-wave (km/s) = -1.18456 -0.41737 -0.88808
# Velocity P-wave (km/s) = 2.42387 1.78137 1.16230
#
# Compressibility (1/GPa) = -0.12318421
#
# Stress axis : x y z
#
# Youngs Moduli (GPa) = 36.19421 -10.73334 47.08107
#
# Poissons Ratio (x) = -0.36131 0.31184
# Poissons Ratio (y) = 1.21840 -0.03972
# Poissons Ratio (z) = 0.23973 0.00905
#
# Static dielectric constant tensor:
#      x y z
#    x 1.768810 0.000000 0.000000 
#    y 0.000000 1.698460 0.000000 
#    z 0.000000 0.000000 1.798430 
# 
# From -- ./inp_files/31862.got.cif
#   From: 2010.05.17/outbox.ucp.g08.bks.cvg/sg63_16_cif.got.tgz:31862.got - 2010.06.11 16:32:19.
