data_PCOD9476304
_publ_section_title
;
Structure prediction by ZEFSAII (Michael W. Deem and Ramdas Pophale) SiO2 
 PCOD9476304
Probable space group: C M C A
;
_chemical_formula_sum "Si O2"
_cell_formula_units_Z 80
_cell_length_a 29.315127
_cell_length_b 25.412272
_cell_length_c 5.503328
_cell_angle_alpha 90.000000
_cell_angle_beta 90.000000
_cell_angle_gamma 90.000000
_cell_volume 4099.781136
_symmetry_space_group_name_H-M "C M C A"
_symmetry_group_IT_number 64
_symmetry_cell_setting 'orthorhombic'
loop_
_space_group_symop_operation_xyz
x,y,z
-x,1/2-y,1/2+z
x,-y,-z
-x,1/2+y,1/2-z
-x,-y,-z
x,1/2+y,1/2-z
-x,y,z
x,1/2-y,1/2+z
1/2+x,1/2+y,z
1/2-x,-y,1/2+z
1/2+x,1/2-y,-z
1/2-x,y,1/2-z
1/2-x,1/2-y,-z
1/2+x,y,1/2-z
1/2-x,1/2+y,z
1/2+x,-y,1/2+z
loop_
_atom_site_type_symbol
_atom_site_label
_atom_site_fract_x
_atom_site_fract_y
_atom_site_fract_z
Si Si1 0.946361 0.813920 0.602343
Si Si2 0.089971 0.695099 0.602110
Si Si3 0.802579 0.220368 0.913009
Si Si4 0.204004 0.397536 0.498653
Si Si5 0.806362 0.561508 0.000062
O O1 0.925188 0.833518 0.855781
O O2 0.937356 0.750660 0.607996
O O3 0.000000 0.823840 0.591684
O O4 0.921876 0.832532 0.355866
O O5 0.142812 0.710439 0.585810
O O6 0.792469 0.241182 0.640733
O O7 0.782799 0.163376 0.978695
O O8 0.178985 0.410406 0.750374
O O9 0.251161 0.430350 0.499562
O O10 0.177915 0.412591 0.252180
O O11 0.816747 0.500000 0.000000
#
# Coordination Sequence:
#
# PCOD9476304 Si02
#       5
#    16  16  16  16  16
#     4  10  16  25  41  60  76 106 172 210 218 244
#     4  10  16  27  38  55  82 120 155 193 222 249
#     4  12  21  34  44  62  99 139 164 185 212 277
#     4  10  20  32  53  75  88 120 161 186 234 296
#     4  10  19  38  57  74  92 106 145 210 259 290
#
# _framework density 19.513235999999999
#
# number of rings (size 3 to 8) (size 9 to 14) (size 15 to 20)
#    0.000    1.600    4.000    7.200    0.000    0.000 
#    0.000   12.000    0.000    0.000    0.000    0.000 
#    0.000    0.000    0.000    0.000    0.000  195.000 
#
# Total GULP energy -223228.503735 kJ/mol
# GULP energy per Si atom -5580.712593 kJ/mol
# Density = 1.946882 g / cm^3
# Si number density = 19.513236 Si / 1000 Ang^3
#
#
#
# Elastic Constant Matrix: (Units=GPa)
#
#
# Indices 1 2 3 4 5 6 
#
# 1 38.9914 -5.2775 17.7907 0.0000 0.0000 0.0000
# 2 -5.2775 85.8984 41.5775 0.0000 0.0000 0.0000
# 3 17.7907 41.5775 242.5328 0.0000 0.0000 0.0000
# 4 0.0000 0.0000 0.0000 18.3431 0.0000 0.0000
# 5 0.0000 0.0000 0.0000 0.0000 21.8872 0.0000
# 6 0.0000 0.0000 0.0000 0.0000 0.0000 -1.6150
#
#
#
# Elastic Compliance Matrix: (Units=1/GPa)
#
#
# Indices 1 2 3 4 5 6 
#
# 1 0.027169 0.002872 -0.002485 0.000000 0.000000 0.000000
# 2 0.002872 0.012999 -0.002439 0.000000 0.000000 0.000000
# 3 -0.002485 -0.002439 0.004724 0.000000 0.000000 0.000000
# 4 0.000000 0.000000 0.000000 0.054516 0.000000 0.000000
# 5 0.000000 0.000000 0.000000 0.000000 0.045689 0.000000
# 6 0.000000 0.000000 0.000000 0.000000 0.000000 -0.619195
#
#
# Mechanical properties :
#
#
# Convention : Reuss Voigt Hill
#
# Bulk Modulus (GPa) = 24.51737 52.84490 38.68114
# Shear Modulus (GPa) = -10.95535 28.61186 8.82826
#
# Velocity S-wave (km/s) = -2.37203 3.83336 2.12933
# Velocity P-wave (km/s) = 2.25605 6.83617 5.09033
#
# Compressibility (1/GPa) = 0.04078740
#
# Stress axis : x y z
#
# Youngs Moduli (GPa) = 36.80603 76.93071 211.70313
#
# Poissons Ratio (x) = -0.22097 0.52616
# Poissons Ratio (y) = -0.10572 0.51636
# Poissons Ratio (z) = 0.09148 0.18764
#
# Static dielectric constant tensor:
#      x y z
#    x 1.687380 0.000000 0.000000 
#    y 0.000000 1.647480 0.000000 
#    z 0.000000 0.000000 1.907730 
# 
# From -- ./inp_files/3270.got.cif
#   From: 2010.05.17/outbox.cif.g08.bks.cpg/sg64_2_cif.got.tgz:3270.got - 2010.06.03 16:29:19.
