data_PCOD9476172
_publ_section_title
;
Structure prediction by ZEFSAII (Michael W. Deem and Ramdas Pophale) SiO2 
 PCOD9476172
Probable space group: C M C M
;
_chemical_formula_sum "Si O2"
_cell_formula_units_Z 48
_cell_length_a 9.000000
_cell_length_b 27.000000
_cell_length_c 21.000000
_cell_angle_alpha 90.000000
_cell_angle_beta 90.000000
_cell_angle_gamma 90.000000
_cell_volume 5103.000000
_symmetry_space_group_name_H-M "C M C M"
_symmetry_group_IT_number 63
_symmetry_cell_setting 'orthorhombic'
loop_
_space_group_symop_operation_xyz
x,y,z
-x,-y,1/2+z
x,-y,-z
-x,y,1/2-z
-x,-y,-z
x,y,1/2-z
-x,y,z
x,-y,1/2+z
1/2+x,1/2+y,z
1/2-x,1/2-y,1/2+z
1/2+x,1/2-y,-z
1/2-x,1/2+y,1/2-z
1/2-x,1/2-y,-z
1/2+x,1/2+y,1/2-z
1/2-x,1/2+y,z
1/2+x,1/2-y,1/2+z
loop_
_atom_site_type_symbol
_atom_site_label
_atom_site_fract_x
_atom_site_fract_y
_atom_site_fract_z
Si Si1 0.165481 0.223022 0.944773
Si Si2 0.833919 0.112654 0.991773
Si Si3 0.822705 0.870155 0.636999
Si Si4 0.820508 0.268186 0.819682
Si Si5 0.677024 0.027404 0.563045
Si Si6 0.824486 0.465803 0.681182
O O1 0.156718 0.166823 0.963873
O O2 0.229537 0.231557 0.875168
O O3 0.000000 0.244699 0.944104
O O4 0.250000 0.250000 0.000000
O O5 0.728292 0.082467 0.946384
O O6 0.000000 0.090575 0.993232
O O7 0.779249 0.116868 0.064246
O O8 0.740382 0.821498 0.660446
O O9 0.768604 0.915957 0.678156
O O10 0.000000 0.863060 0.638562
O O11 0.764883 0.254753 0.750000
O O12 0.000000 0.269298 0.816926
O O13 0.500000 0.024322 0.563563
O O14 0.733486 0.000000 0.500000
O O15 0.731704 0.001073 0.625885
O O16 0.812109 0.489755 0.750000
O O17 0.000000 0.453892 0.670934
#
# Coordination Sequence:
#
# PCOD9476172 Si02
#       6
#    16  16  16  16  16  16
#     4  10  20  36  56  78 107 141 180 220 263 315
#     4  10  21  35  53  81 111 137 172 220 269 310
#     4  11  21  33  53  82 114 141 172 218 270 321
#     4  10  21  36  55  79 108 144 182 219 263 317
#     4  10  20  35  56  79 102 136 182 219 255 310
#     4  10  21  37  55  77 108 142 177 219 266 316
#
# _framework density 9.4062319999999993
#
# number of rings (size 3 to 8) (size 9 to 14) (size 15 to 20)
#    0.000    1.833    3.333    1.000    0.000    5.000 
#    0.000    0.833    0.000    1.000    0.000    0.000 
#    0.000    0.000    0.000    0.000    0.000    0.000 
#
# Total GULP energy -267294.698323 kJ/mol
# GULP energy per Si atom -5568.639548 kJ/mol
# Density = 0.938482 g / cm^3
# Si number density = 9.406232 Si / 1000 Ang^3
#
#
#
# Elastic Constant Matrix: (Units=GPa)
#
#
# Indices 1 2 3 4 5 6 
#
# 1 -17.5120 12.2014 11.3283 0.0000 0.0000 0.0000
# 2 12.2014 40.5526 40.4160 0.0000 0.0000 0.0000
# 3 11.3283 40.4160 72.5128 0.0000 0.0000 0.0000
# 4 0.0000 0.0000 0.0000 25.2394 0.0000 0.0000
# 5 0.0000 0.0000 0.0000 0.0000 9.2596 0.0000
# 6 0.0000 0.0000 0.0000 0.0000 0.0000 5.4118
#
#
#
# Elastic Compliance Matrix: (Units=1/GPa)
#
#
# Indices 1 2 3 4 5 6 
#
# 1 -0.047160 0.015402 -0.001217 0.000000 0.000000 0.000000
# 2 0.015402 0.050444 -0.030522 0.000000 0.000000 0.000000
# 3 -0.001217 -0.030522 0.030993 0.000000 0.000000 0.000000
# 4 0.000000 0.000000 0.000000 0.039621 0.000000 0.000000
# 5 0.000000 0.000000 0.000000 0.000000 0.107997 0.000000
# 6 0.000000 0.000000 0.000000 0.000000 0.000000 0.184783
#
#
# Mechanical properties :
#
#
# Convention : Reuss Voigt Hill
#
# Bulk Modulus (GPa) = 623.61471 24.82718 324.22094
# Shear Modulus (GPa) = 12.50359 10.08934 11.29646
#
# Velocity S-wave (km/s) = 2.58087 2.31835 2.45312
# Velocity P-wave (km/s) = 18.46865 4.51577 13.44402
#
# Compressibility (1/GPa) = 0.00160355
#
# Stress axis : x y z
#
# Youngs Moduli (GPa) = -21.20456 19.82389 32.26571
#
# Poissons Ratio (x) = -0.30534 0.03927
# Poissons Ratio (y) = 0.32660 0.98481
# Poissons Ratio (z) = -0.02581 0.60506
#
# Static dielectric constant tensor:
#      x y z
#    x 1.668530 0.000000 0.000000 
#    y 0.000000 1.620480 0.000000 
#    z 0.000000 0.000000 1.744330 
# 
# From -- ./inp_files/51246.got.cif
#   From: 2010.05.17/outbox.ucp.g08.bks.cvg/sg63_26_cif.got.tgz:51246.got - 2010.06.11 16:32:19.
