data_PCOD9476685
_publ_section_title
;
Structure prediction by ZEFSAII (Michael W. Deem and Ramdas Pophale) SiO2 
 PCOD9476685
Probable space group: C M C A
;
_chemical_formula_sum "Si O2"
_cell_formula_units_Z 112
_cell_length_a 7.453708
_cell_length_b 24.729024
_cell_length_c 29.263569
_cell_angle_alpha 90.000000
_cell_angle_beta 90.000000
_cell_angle_gamma 90.000000
_cell_volume 5393.946605
_symmetry_space_group_name_H-M "C M C A"
_symmetry_group_IT_number 64
_symmetry_cell_setting 'orthorhombic'
loop_
_space_group_symop_operation_xyz
x,y,z
-x,1/2-y,1/2+z
x,-y,-z
-x,1/2+y,1/2-z
-x,-y,-z
x,1/2+y,1/2-z
-x,y,z
x,1/2-y,1/2+z
1/2+x,1/2+y,z
1/2-x,-y,1/2+z
1/2+x,1/2-y,-z
1/2-x,y,1/2-z
1/2-x,1/2-y,-z
1/2+x,y,1/2-z
1/2-x,1/2+y,z
1/2+x,-y,1/2+z
loop_
_atom_site_type_symbol
_atom_site_label
_atom_site_fract_x
_atom_site_fract_y
_atom_site_fract_z
Si Si1 0.280434 0.404240 0.025939
Si Si2 0.716917 0.301945 0.618829
Si Si3 0.213563 0.783630 0.045321
Si Si4 0.713996 0.228913 0.697013
Si Si5 0.789225 0.918753 0.922549
Si Si6 0.784718 0.892595 0.196153
Si Si7 0.218804 0.528780 0.615555
O O1 0.500000 0.403930 0.024416
O O2 0.218032 0.344047 0.039040
O O3 0.230635 0.443137 0.067515
O O4 0.217240 0.418347 0.974666
O O5 0.500000 0.303792 0.617389
O O6 0.781507 0.253834 0.585789
O O7 0.777945 0.280017 0.667865
O O8 0.773507 0.360049 0.600314
O O9 0.000000 0.788813 0.052184
O O10 0.250000 0.750000 0.000000
O O11 0.500000 0.226341 0.689686
O O12 0.750000 0.236732 0.750000
O O13 0.782709 0.168404 0.685106
O O14 0.000000 0.930039 0.928067
O O15 0.719834 0.966830 0.890250
O O16 0.750000 0.903807 0.250000
O O17 0.718453 0.936782 0.159501
O O18 0.000000 0.890905 0.191593
O O19 0.000000 0.529790 0.618316
#
# Coordination Sequence:
#
# PCOD9476685 Si02
#       7
#    16  16  16  16  16  16  16
#     4   9  16  28  48  73  98 125 162 206 241 276
#     4  10  20  33  49  70 102 136 161 193 246 300
#     4  10  18  29  47  71  98 127 159 195 239 289
#     4   9  18  33  53  76  98 125 160 201 249 297
#     4  10  19  31  49  73  99 130 169 205 233 275
#     4   9  17  32  54  76  97 121 155 202 251 294
#     4   9  17  30  50  74  97 125 164 205 244 284
#
# _framework density 20.764018
#
# number of rings (size 3 to 8) (size 9 to 14) (size 15 to 20)
#    0.000    2.571    1.429    1.286    0.000    5.714 
#    0.000    1.429    0.000    9.429    0.000    0.000 
#    0.000    0.000    0.000    0.000    0.000    0.000 
#
# Total GULP energy -312367.835953 kJ/mol
# GULP energy per Si atom -5577.997071 kJ/mol
# Density = 2.071676 g / cm^3
# Si number density = 20.764018 Si / 1000 Ang^3
#
#
#
# Elastic Constant Matrix: (Units=GPa)
#
#
# Indices 1 2 3 4 5 6 
#
# 1 56.8989 -0.4603 -5.3751 0.0000 0.0000 0.0000
# 2 -0.4603 106.9735 79.5941 0.0000 0.0000 0.0000
# 3 -5.3751 79.5941 121.2427 0.0000 0.0000 0.0000
# 4 0.0000 0.0000 0.0000 29.3287 0.0000 0.0000
# 5 0.0000 0.0000 0.0000 0.0000 8.5676 0.0000
# 6 0.0000 0.0000 0.0000 0.0000 0.0000 -15.9050
#
#
#
# Elastic Compliance Matrix: (Units=1/GPa)
#
#
# Indices 1 2 3 4 5 6 
#
# 1 0.017703 -0.000993 0.001436 0.000000 0.000000 0.000000
# 2 -0.000993 0.018330 -0.012077 0.000000 0.000000 0.000000
# 3 0.001436 -0.012077 0.016240 0.000000 0.000000 0.000000
# 4 0.000000 0.000000 0.000000 0.034096 0.000000 0.000000
# 5 0.000000 0.000000 0.000000 0.000000 0.116719 0.000000
# 6 0.000000 0.000000 0.000000 0.000000 0.000000 -0.062873
#
#
# Mechanical properties :
#
#
# Convention : Reuss Voigt Hill
#
# Bulk Modulus (GPa) = 34.47580 48.07029 41.27305
# Shear Modulus (GPa) = 28.87654 18.48869 23.68262
#
# Velocity S-wave (km/s) = 3.73326 2.98723 3.38088
# Velocity P-wave (km/s) = 5.93486 5.92445 5.92966
#
# Compressibility (1/GPa) = 0.02900585
#
# Stress axis : x y z
#
# Youngs Moduli (GPa) = 56.48852 54.55490 61.57519
#
# Poissons Ratio (x) = 0.05415 -0.08845
# Poissons Ratio (y) = 0.05607 0.74367
# Poissons Ratio (z) = -0.08115 0.65889
#
# Static dielectric constant tensor:
#      x y z
#    x 1.742000 0.000000 0.000000 
#    y 0.000000 1.737340 0.000000 
#    z 0.000000 0.000000 1.747380 
# 
# From -- ./inp_files/44384.got.cif
#   From: 2010.05.17/outbox.cif.g08.bks.cpg/sg64_23_cif.got.tgz:44384.got - 2010.06.03 16:29:19.
