data_PCOD9476625
_publ_section_title
;
Structure prediction by ZEFSAII (Michael W. Deem and Ramdas Pophale) SiO2 
 PCOD9476625
Probable space group: C M C A
;
_chemical_formula_sum "Si O2"
_cell_formula_units_Z 96
_cell_length_a 8.762238
_cell_length_b 31.491168
_cell_length_c 21.979625
_cell_angle_alpha 90.000000
_cell_angle_beta 90.000000
_cell_angle_gamma 90.000000
_cell_volume 6064.906259
_symmetry_space_group_name_H-M "C M C A"
_symmetry_group_IT_number 64
_symmetry_cell_setting 'orthorhombic'
loop_
_space_group_symop_operation_xyz
x,y,z
-x,1/2-y,1/2+z
x,-y,-z
-x,1/2+y,1/2-z
-x,-y,-z
x,1/2+y,1/2-z
-x,y,z
x,1/2-y,1/2+z
1/2+x,1/2+y,z
1/2-x,-y,1/2+z
1/2+x,1/2-y,-z
1/2-x,y,1/2-z
1/2-x,1/2-y,-z
1/2+x,y,1/2-z
1/2-x,1/2+y,z
1/2+x,-y,1/2+z
loop_
_atom_site_type_symbol
_atom_site_label
_atom_site_fract_x
_atom_site_fract_y
_atom_site_fract_z
Si Si1 0.817026 0.401628 0.317246
Si Si2 0.815619 0.061846 0.046051
Si Si3 0.682089 0.652021 0.456607
Si Si4 0.183327 0.329541 0.098053
Si Si5 0.685159 0.471363 0.087822
Si Si6 0.317374 0.738237 0.066019
O O1 0.750000 0.401505 0.250000
O O2 0.764315 0.360506 0.355091
O O3 0.763274 0.442655 0.356202
O O4 0.000000 0.402416 0.314440
O O5 0.743604 0.106484 0.063800
O O6 0.000000 0.065145 0.047851
O O7 0.767730 0.020604 0.085036
O O8 0.771192 0.050483 0.976269
O O9 0.500000 0.653777 0.453366
O O10 0.725193 0.657880 0.528351
O O11 0.750905 0.691972 0.420217
O O12 0.221238 0.279587 0.106264
O O13 0.000000 0.334195 0.103317
O O14 0.500000 0.471575 0.088104
O O15 0.500000 0.735891 0.061967
O O16 0.250000 0.750000 0.000000
#
# Coordination Sequence:
#
# PCOD9476625 Si02
#       6
#    16  16  16  16  16  16
#     4  11  21  33  49  68  91 124 160 195 234 276
#     4   9  15  28  48  67  90 121 157 192 233 286
#     4  10  18  27  42  69  99 124 152 185 230 283
#     4   9  18  31  44  63  92 122 155 192 226 272
#     4   8  16  29  46  67  89 119 158 195 233 282
#     4   9  17  28  43  64  92 123 153 185 225 271
#
# _framework density 15.828768999999999
#
# number of rings (size 3 to 8) (size 9 to 14) (size 15 to 20)
#    0.000    2.667    1.667    3.500    0.000    3.333 
#    0.000    3.333    0.000    0.000    0.000    1.167 
#    0.000    2.667    0.000    0.000    0.000    0.000 
#
# Total GULP energy -267346.407376 kJ/mol
# GULP energy per Si atom -5569.716820 kJ/mol
# Density = 1.579274 g / cm^3
# Si number density = 15.828769 Si / 1000 Ang^3
#
#
#
# Elastic Constant Matrix: (Units=GPa)
#
#
# Indices 1 2 3 4 5 6 
#
# 1 34.5880 46.6120 25.3594 0.0000 0.0000 0.0000
# 2 46.6120 180.8407 52.0712 0.0000 0.0000 0.0000
# 3 25.3594 52.0712 64.4512 0.0000 0.0000 0.0000
# 4 0.0000 0.0000 0.0000 13.0331 0.0000 0.0000
# 5 0.0000 0.0000 0.0000 0.0000 14.0272 0.0000
# 6 0.0000 0.0000 0.0000 0.0000 0.0000 26.0664
#
#
#
# Elastic Compliance Matrix: (Units=1/GPa)
#
#
# Indices 1 2 3 4 5 6 
#
# 1 0.050782 -0.009560 -0.012258 0.000000 0.000000 0.000000
# 2 -0.009560 0.009006 -0.003514 0.000000 0.000000 0.000000
# 3 -0.012258 -0.003514 0.023178 0.000000 0.000000 0.000000
# 4 0.000000 0.000000 0.000000 0.076728 0.000000 0.000000
# 5 0.000000 0.000000 0.000000 0.000000 0.071290 0.000000
# 6 0.000000 0.000000 0.000000 0.000000 0.000000 0.038364
#
#
# Mechanical properties :
#
#
# Convention : Reuss Voigt Hill
#
# Bulk Modulus (GPa) = 30.95771 58.66279 44.81025
# Shear Modulus (GPa) = 15.11592 21.01450 18.06521
#
# Velocity S-wave (km/s) = 3.09360 3.64760 3.38196
# Velocity P-wave (km/s) = 5.68866 7.40819 6.60462
#
# Compressibility (1/GPa) = 0.03230213
#
# Stress axis : x y z
#
# Youngs Moduli (GPa) = 19.69211 111.04081 43.14454
#
# Poissons Ratio (x) = 1.06151 0.52884
# Poissons Ratio (y) = 0.18825 0.15163
# Poissons Ratio (z) = 0.24138 0.39025
#
# Static dielectric constant tensor:
#      x y z
#    x 1.525670 0.000000 0.000000 
#    y 0.000000 1.574810 0.000000 
#    z 0.000000 0.000000 1.494880 
# 
# From -- ./inp_files/43185.got.cif
#   From: 2010.05.17/outbox.cif.g08.bks.cpg/sg64_22_cif.got.tgz:43185.got - 2010.06.03 16:29:19.
