data_PCOD9476772
_publ_section_title
;
Structure prediction by ZEFSAII (Michael W. Deem and Ramdas Pophale) SiO2 
 PCOD9476772
Probable space group: C M C A
;
_chemical_formula_sum "Si O2"
_cell_formula_units_Z 96
_cell_length_a 19.573260
_cell_length_b 16.608586
_cell_length_c 17.500359
_cell_angle_alpha 90.000000
_cell_angle_beta 90.000000
_cell_angle_gamma 90.000000
_cell_volume 5689.089715
_symmetry_space_group_name_H-M "C M C A"
_symmetry_group_IT_number 64
_symmetry_cell_setting 'orthorhombic'
loop_
_space_group_symop_operation_xyz
x,y,z
-x,1/2-y,1/2+z
x,-y,-z
-x,1/2+y,1/2-z
-x,-y,-z
x,1/2+y,1/2-z
-x,y,z
x,1/2-y,1/2+z
1/2+x,1/2+y,z
1/2-x,-y,1/2+z
1/2+x,1/2-y,-z
1/2-x,y,1/2-z
1/2-x,1/2-y,-z
1/2+x,y,1/2-z
1/2-x,1/2+y,z
1/2+x,-y,1/2+z
loop_
_atom_site_type_symbol
_atom_site_label
_atom_site_fract_x
_atom_site_fract_y
_atom_site_fract_z
Si Si1 0.000000 0.054223 0.702779
Si Si2 0.250000 0.505515 0.250000
Si Si3 0.348817 0.367271 0.817074
Si Si4 0.146084 0.392163 0.165888
Si Si5 0.000000 0.617167 0.289003
Si Si6 0.000000 0.785258 0.192314
Si Si7 0.146542 0.733555 0.692566
Si Si8 0.223559 0.765821 0.415759
O O1 0.929067 0.070071 0.658501
O O2 0.000000 0.126892 0.766521
O O3 0.000000 0.962983 0.735416
O O4 0.301312 0.557098 0.198119
O O5 0.202127 0.455249 0.193461
O O6 0.427944 0.386611 0.832739
O O7 0.347059 0.318765 0.735980
O O8 0.316676 0.310233 0.880994
O O9 0.144501 0.328841 0.236825
O O10 0.173367 0.341870 0.094119
O O11 0.000000 0.707013 0.249862
O O12 0.926882 0.775571 0.151630
O O13 0.211115 0.719922 0.639306
O O14 0.250000 0.750000 0.500000
#
# Coordination Sequence:
#
# PCOD9476772 Si02
#       8
#     8   8  16  16   8   8  16  16
#     4  10  18  30  53  85 113 137 181 249 303 333
#     4  12  16  28  58  84 104 132 182 232 288 332
#     4  10  19  32  54  81 105 139 184 234 288 340
#     4  10  19  32  54  81 105 139 184 234 288 340
#     4  10  18  30  53  85 113 137 181 249 303 333
#     4   8  18  28  48  76 102 132 178 228 282 350
#     4   9  16  34  50  72  99 134 182 228 268 328
#     4  11  21  35  52  74 108 150 187 223 276 344
#
# _framework density 16.874403999999998
#
# number of rings (size 3 to 8) (size 9 to 14) (size 15 to 20)
#    0.000    2.000    5.000    2.000    0.000    0.000 
#    0.000    2.500    0.000    0.000    0.000    7.000 
#    0.000    0.000    0.000    0.000    0.000    0.000 
#
# Total GULP energy -267213.374706 kJ/mol
# GULP energy per Si atom -5566.945306 kJ/mol
# Density = 1.683600 g / cm^3
# Si number density = 16.874404 Si / 1000 Ang^3
#
#
#
# Elastic Constant Matrix: (Units=GPa)
#
#
# Indices 1 2 3 4 5 6 
#
# 1 139.3064 19.3912 14.3744 0.0000 0.0000 0.0000
# 2 19.3912 69.5117 -1.7275 0.0000 0.0000 0.0000
# 3 14.3744 -1.7275 32.8368 0.0000 0.0000 0.0000
# 4 0.0000 0.0000 0.0000 10.6046 0.0000 0.0000
# 5 0.0000 0.0000 0.0000 0.0000 8.8693 0.0000
# 6 0.0000 0.0000 0.0000 0.0000 0.0000 23.8425
#
#
#
# Elastic Compliance Matrix: (Units=1/GPa)
#
#
# Indices 1 2 3 4 5 6 
#
# 1 0.007864 -0.002282 -0.003562 0.000000 0.000000 0.000000
# 2 -0.002282 0.015067 0.001792 0.000000 0.000000 0.000000
# 3 -0.003562 0.001792 0.032107 0.000000 0.000000 0.000000
# 4 0.000000 0.000000 0.000000 0.094298 0.000000 0.000000
# 5 0.000000 0.000000 0.000000 0.000000 0.112748 0.000000
# 6 0.000000 0.000000 0.000000 0.000000 0.000000 0.041942
#
#
# Mechanical properties :
#
#
# Convention : Reuss Voigt Hill
#
# Bulk Modulus (GPa) = 21.30724 33.97014 27.63869
# Shear Modulus (GPa) = 15.25429 22.63774 18.94602
#
# Velocity S-wave (km/s) = 3.00990 3.66668 3.35441
# Velocity P-wave (km/s) = 4.97330 6.17260 5.60512
#
# Compressibility (1/GPa) = 0.04693241
#
# Stress axis : x y z
#
# Youngs Moduli (GPa) = 127.16672 66.36913 31.14552
#
# Poissons Ratio (x) = 0.15147 0.11095
# Poissons Ratio (y) = 0.29022 -0.05580
# Poissons Ratio (z) = 0.45302 -0.11891
#
# Static dielectric constant tensor:
#      x y z
#    x 1.628680 0.000000 0.000000 
#    y 0.000000 1.610670 0.000000 
#    z 0.000000 0.000000 1.521710 
# 
# From -- ./inp_files/26425.got.cif
#   From: 2010.05.17/outbox.cif.g08.bks.cpg/sg64_14_cif.got.tgz:26425.got - 2010.06.03 16:29:19.
