data_PCOD9476138
_publ_section_title
;
Structure prediction by ZEFSAII (Michael W. Deem and Ramdas Pophale) SiO2 
 PCOD9476138
Probable space group: C M C M
;
_chemical_formula_sum "Si O2"
_cell_formula_units_Z 40
_cell_length_a 9.000000
_cell_length_b 27.000000
_cell_length_c 18.000000
_cell_angle_alpha 90.000000
_cell_angle_beta 90.000000
_cell_angle_gamma 90.000000
_cell_volume 4374.000000
_symmetry_space_group_name_H-M "C M C M"
_symmetry_group_IT_number 63
_symmetry_cell_setting 'orthorhombic'
loop_
_space_group_symop_operation_xyz
x,y,z
-x,-y,1/2+z
x,-y,-z
-x,y,1/2-z
-x,-y,-z
x,y,1/2-z
-x,y,z
x,-y,1/2+z
1/2+x,1/2+y,z
1/2-x,1/2-y,1/2+z
1/2+x,1/2-y,-z
1/2-x,1/2+y,1/2-z
1/2-x,1/2-y,-z
1/2+x,1/2+y,1/2-z
1/2-x,1/2+y,z
1/2+x,1/2-y,1/2+z
loop_
_atom_site_type_symbol
_atom_site_label
_atom_site_fract_x
_atom_site_fract_y
_atom_site_fract_z
Si Si1 0.177086 0.048570 0.594438
Si Si2 0.678076 0.439913 0.919267
Si Si3 0.671574 0.740278 0.840673
Si Si4 0.166397 0.358052 0.160827
Si Si5 0.179340 0.651223 0.336440
O O1 0.207365 0.057533 0.507278
O O2 0.246558 0.092877 0.639732
O O3 0.000000 0.049252 0.603838
O O4 0.228486 0.992970 0.613533
O O5 0.500000 0.436272 0.909682
O O6 0.755951 0.393482 0.882829
O O7 0.673950 0.740857 0.750000
O O8 0.500000 0.735301 0.862808
O O9 0.759562 0.692511 0.867191
O O10 0.729449 0.794304 0.863437
O O11 0.162866 0.354398 0.250000
O O12 0.000000 0.361924 0.131900
O O13 0.222490 0.645595 0.250000
O O14 0.000000 0.651380 0.339288
#
# Coordination Sequence:
#
# PCOD9476138 Si02
#       5
#    16  16  16  16  16
#     4   9  19  36  53  69  95 131 167 201 241 290
#     4   9  19  35  53  72  95 127 167 206 241 282
#     4   8  15  30  50  70  96 131 163 191 234 290
#     4  10  20  32  49  76 103 125 158 204 245 283
#     4   9  18  32  51  76 103 129 159 197 242 292
#
# _framework density 9.1449470000000002
#
# number of rings (size 3 to 8) (size 9 to 14) (size 15 to 20)
#    0.000    3.000    0.000    3.000    0.000    4.800 
#    0.000    9.000    0.000    0.000    0.000    0.000 
#    0.000    0.000    0.000    0.000    0.000    0.000 
#
# Total GULP energy -222831.521331 kJ/mol
# GULP energy per Si atom -5570.788033 kJ/mol
# Density = 0.912413 g / cm^3
# Si number density = 9.144947 Si / 1000 Ang^3
#
#
#
# Elastic Constant Matrix: (Units=GPa)
#
#
# Indices 1 2 3 4 5 6 
#
# 1 15.7533 43.1693 20.2289 0.0000 0.0000 0.0000
# 2 43.1693 148.3075 23.5678 0.0000 0.0000 0.0000
# 3 20.2289 23.5678 -2.3492 0.0000 0.0000 0.0000
# 4 0.0000 0.0000 0.0000 40.9045 0.0000 0.0000
# 5 0.0000 0.0000 0.0000 0.0000 20.4061 0.0000
# 6 0.0000 0.0000 0.0000 0.0000 0.0000 15.3588
#
#
#
# Elastic Compliance Matrix: (Units=1/GPa)
#
#
# Indices 1 2 3 4 5 6 
#
# 1 0.030756 -0.019674 0.067468 0.000000 0.000000 0.000000
# 2 -0.019674 0.015184 -0.017082 0.000000 0.000000 0.000000
# 3 0.067468 -0.017082 -0.016087 0.000000 0.000000 0.000000
# 4 0.000000 0.000000 0.000000 0.024447 0.000000 0.000000
# 5 0.000000 0.000000 0.000000 0.000000 0.049005 0.000000
# 6 0.000000 0.000000 0.000000 0.000000 0.000000 0.065109
#
#
# Mechanical properties :
#
#
# Convention : Reuss Voigt Hill
#
# Bulk Modulus (GPa) = 10.95572 37.29373 24.12473
# Shear Modulus (GPa) = 36.38571 20.31693 28.35132
#
# Velocity S-wave (km/s) = 4.46509 3.33652 3.94141
# Velocity P-wave (km/s) = 5.70840 5.93951 5.82510
#
# Compressibility (1/GPa) = 0.09127654
#
# Stress axis : x y z
#
# Youngs Moduli (GPa) = 32.51385 65.85903 -62.16248
#
# Poissons Ratio (x) = 1.29570 4.19395
# Poissons Ratio (y) = 0.63967 -1.06186
# Poissons Ratio (z) = -2.19363 1.12501
#
# Static dielectric constant tensor:
#      x y z
#    x 1.621860 0.000000 0.000000 
#    y 0.000000 1.633650 0.000000 
#    z 0.000000 0.000000 1.608080 
# 
# From -- ./inp_files/40435.got.cif
#   From: 2010.05.17/outbox.ucp.g08.bks.cvg/sg63_21_cif.got.tgz:40435.got - 2010.06.11 16:32:19.
