data_PCOD9476310
_publ_section_title
;
Structure prediction by ZEFSAII (Michael W. Deem and Ramdas Pophale) SiO2 
 PCOD9476310
Probable space group: C M C A
;
_chemical_formula_sum "Si O2"
_cell_formula_units_Z 56
_cell_length_a 14.600548
_cell_length_b 32.618176
_cell_length_c 5.340990
_cell_angle_alpha 90.000000
_cell_angle_beta 90.000000
_cell_angle_gamma 90.000000
_cell_volume 2543.610406
_symmetry_space_group_name_H-M "C M C A"
_symmetry_group_IT_number 64
_symmetry_cell_setting 'orthorhombic'
loop_
_space_group_symop_operation_xyz
x,y,z
-x,1/2-y,1/2+z
x,-y,-z
-x,1/2+y,1/2-z
-x,-y,-z
x,1/2+y,1/2-z
-x,y,z
x,1/2-y,1/2+z
1/2+x,1/2+y,z
1/2-x,-y,1/2+z
1/2+x,1/2-y,-z
1/2-x,y,1/2-z
1/2-x,1/2-y,-z
1/2+x,y,1/2-z
1/2-x,1/2+y,z
1/2+x,-y,1/2+z
loop_
_atom_site_type_symbol
_atom_site_label
_atom_site_fract_x
_atom_site_fract_y
_atom_site_fract_z
Si Si1 0.750000 0.974886 0.250000
Si Si2 0.852002 0.100204 0.545892
Si Si3 0.888962 0.727038 0.342224
Si Si4 0.645521 0.633235 0.044750
O O1 0.831221 0.945208 0.351574
O O2 0.722918 0.000000 0.500000
O O3 0.750468 0.119271 0.498851
O O4 0.893883 0.105969 0.271922
O O5 0.896967 0.125220 0.771809
O O6 0.858141 0.745876 0.078793
O O7 0.859757 0.680314 0.379505
O O8 0.000000 0.727335 0.341593
#
# Coordination Sequence:
#
# PCOD9476310 Si02
#       4
#     8  16  16  16
#     4  10  16  26  44  68  96 116 136 170 212 260
#     4   9  18  29  44  66  91 116 142 172 213 266
#     4  10  20  32  46  64  85 113 152 194 225 249
#     4   9  16  31  44  59  90 118 141 181 218 255
#
# _framework density 22.015951999999999
#
# number of rings (size 3 to 8) (size 9 to 14) (size 15 to 20)
#    0.000    2.857    0.000    5.143    0.000    0.000 
#    0.000   17.143    0.000    0.000    0.000    0.000 
#    0.000  121.143    0.000    0.000    0.000    0.000 
#
# Total GULP energy -156125.666987 kJ/mol
# GULP energy per Si atom -5575.916678 kJ/mol
# Density = 2.196584 g / cm^3
# Si number density = 22.015952 Si / 1000 Ang^3
#
#
#
# Elastic Constant Matrix: (Units=GPa)
#
#
# Indices 1 2 3 4 5 6 
#
# 1 67.4168 13.1595 27.7429 0.0000 0.0000 0.0000
# 2 13.1595 109.8072 42.1243 0.0000 0.0000 0.0000
# 3 27.7429 42.1243 199.5289 0.0000 0.0000 0.0000
# 4 0.0000 0.0000 0.0000 54.8889 0.0000 0.0000
# 5 0.0000 0.0000 0.0000 0.0000 -12.1377 0.0000
# 6 0.0000 0.0000 0.0000 0.0000 0.0000 25.9007
#
#
#
# Elastic Compliance Matrix: (Units=1/GPa)
#
#
# Indices 1 2 3 4 5 6 
#
# 1 0.015865 -0.001148 -0.001964 0.000000 0.000000 0.000000
# 2 -0.001148 0.009993 -0.001950 0.000000 0.000000 0.000000
# 3 -0.001964 -0.001950 0.005696 0.000000 0.000000 0.000000
# 4 0.000000 0.000000 0.000000 0.018219 0.000000 0.000000
# 5 0.000000 0.000000 0.000000 0.000000 -0.082388 0.000000
# 6 0.000000 0.000000 0.000000 0.000000 0.000000 0.038609
#
#
# Mechanical properties :
#
#
# Convention : Reuss Voigt Hill
#
# Bulk Modulus (GPa) = 46.66128 60.31183 53.48656
# Shear Modulus (GPa) = 214.95662 33.31214 124.13438
#
# Velocity S-wave (km/s) = 9.89185 3.89407 7.51706
# Velocity P-wave (km/s) = 12.31687 6.90452 9.98443
#
# Compressibility (1/GPa) = 0.02143104
#
# Stress axis : x y z
#
# Youngs Moduli (GPa) = 63.03089 100.07499 175.54642
#
# Poissons Ratio (x) = 0.11489 0.34470
# Poissons Ratio (y) = 0.07236 0.34231
# Poissons Ratio (z) = 0.12376 0.19514
#
# Static dielectric constant tensor:
#      x y z
#    x 1.687270 0.000000 0.000000 
#    y 0.000000 1.784680 0.000000 
#    z 0.000000 0.000000 1.992130 
# 
# From -- ./inp_files/1212.got.cif
#   From: 2010.05.17/outbox.cif.g08.bks.cpg/sg64_1_cif.got.tgz:1212.got - 2010.06.03 16:29:19.
