data_PCOD9476358
_publ_section_title
;
Structure prediction by ZEFSAII (Michael W. Deem and Ramdas Pophale) SiO2 
 PCOD9476358
Probable space group: C M C A
;
_chemical_formula_sum "Si O2"
_cell_formula_units_Z 56
_cell_length_a 33.282194
_cell_length_b 14.729197
_cell_length_c 5.174473
_cell_angle_alpha 90.000000
_cell_angle_beta 90.000000
_cell_angle_gamma 90.000000
_cell_volume 2536.630113
_symmetry_space_group_name_H-M "C M C A"
_symmetry_group_IT_number 64
_symmetry_cell_setting 'orthorhombic'
loop_
_space_group_symop_operation_xyz
x,y,z
-x,1/2-y,1/2+z
x,-y,-z
-x,1/2+y,1/2-z
-x,-y,-z
x,1/2+y,1/2-z
-x,y,z
x,1/2-y,1/2+z
1/2+x,1/2+y,z
1/2-x,-y,1/2+z
1/2+x,1/2-y,-z
1/2-x,y,1/2-z
1/2-x,1/2-y,-z
1/2+x,y,1/2-z
1/2-x,1/2+y,z
1/2+x,-y,1/2+z
loop_
_atom_site_type_symbol
_atom_site_label
_atom_site_fract_x
_atom_site_fract_y
_atom_site_fract_z
Si Si1 0.000000 0.809231 0.395192
Si Si2 0.268468 0.852410 0.497679
Si Si3 0.862180 0.809576 0.019482
Si Si4 0.928320 0.057808 0.757437
O O1 0.038933 0.869841 0.338312
O O2 0.000000 0.727971 0.186272
O O3 0.250000 0.895768 0.750000
O O4 0.250000 0.750000 0.500000
O O5 0.316029 0.842139 0.478538
O O6 0.250000 0.898368 0.250000
O O7 0.868915 0.729992 0.232361
O O8 0.891024 0.889586 0.113103
O O9 0.917616 0.000000 0.500000
O O10 0.945322 0.000000 0.000000
#
# Coordination Sequence:
#
# PCOD9476358 Si02
#       4
#     8  16  16  16
#     4  12  24  46  74 100 124 162 232 280 312 384
#     4  10  16  30  52  90 118 150 204 273 316 350
#     4  12  21  36  63  94 123 160 224 276 307 376
#     4  12  26  44  63  94 138 179 205 258 348 409
#
# _framework density 22.076533000000001
#
# number of rings (size 3 to 8) (size 9 to 14) (size 15 to 20)
#    0.000    0.571    5.714    6.000    0.000    0.000 
#    0.000    0.000    0.000    3.429    0.000    0.000 
#    0.000    0.000    0.000    0.000    0.000    0.000 
#
# Total GULP energy -156545.416318 kJ/mol
# GULP energy per Si atom -5590.907726 kJ/mol
# Density = 2.202629 g / cm^3
# Si number density = 22.076533 Si / 1000 Ang^3
#
#
#
# Elastic Constant Matrix: (Units=GPa)
#
#
# Indices 1 2 3 4 5 6 
#
# 1 120.6044 29.2871 -5.6109 0.0000 0.0000 0.0000
# 2 29.2871 69.5262 9.4419 0.0000 0.0000 0.0000
# 3 -5.6109 9.4419 144.9885 0.0000 0.0000 0.0000
# 4 0.0000 0.0000 0.0000 -15.0100 0.0000 0.0000
# 5 0.0000 0.0000 0.0000 0.0000 28.8232 0.0000
# 6 0.0000 0.0000 0.0000 0.0000 0.0000 4.9594
#
#
#
# Elastic Compliance Matrix: (Units=1/GPa)
#
#
# Indices 1 2 3 4 5 6 
#
# 1 0.009291 -0.003998 0.000620 0.000000 0.000000 0.000000
# 2 -0.003998 0.016232 -0.001212 0.000000 0.000000 0.000000
# 3 0.000620 -0.001212 0.007000 0.000000 0.000000 0.000000
# 4 0.000000 0.000000 0.000000 -0.066622 0.000000 0.000000
# 5 0.000000 0.000000 0.000000 0.000000 0.034694 0.000000
# 6 0.000000 0.000000 0.000000 0.000000 0.000000 0.201637
#
#
# Mechanical properties :
#
#
# Convention : Reuss Voigt Hill
#
# Bulk Modulus (GPa) = 42.83887 44.59505 43.71696
# Shear Modulus (GPa) = 22.81098 23.88793 23.34945
#
# Velocity S-wave (km/s) = 3.21794 3.29302 3.25570
# Velocity P-wave (km/s) = 5.76660 5.89090 5.82908
#
# Compressibility (1/GPa) = 0.02334329
#
# Stress axis : x y z
#
# Youngs Moduli (GPa) = 107.62788 61.60768 142.85713
#
# Poissons Ratio (x) = 0.24631 -0.08856
# Poissons Ratio (y) = 0.43030 0.17311
# Poissons Ratio (z) = -0.06672 0.07465
#
# Static dielectric constant tensor:
#      x y z
#    x 2.018850 0.000000 0.000000 
#    y 0.000000 1.801590 0.000000 
#    z 0.000000 0.000000 1.786420 
# 
# From -- ./inp_files/3085.got.cif
#   From: 2010.05.17/outbox.cif.g08.bks.cpg/sg64_2_cif.got.tgz:3085.got - 2010.06.03 16:29:19.
