data_PCOD9476483
_publ_section_title
;
Structure prediction by ZEFSAII (Michael W. Deem and Ramdas Pophale) SiO2 
 PCOD9476483
Probable space group: C M C A
;
_chemical_formula_sum "Si O2"
_cell_formula_units_Z 112
_cell_length_a 17.930025
_cell_length_b 13.618588
_cell_length_c 17.072187
_cell_angle_alpha 90.000000
_cell_angle_beta 90.000000
_cell_angle_gamma 90.000000
_cell_volume 4168.714335
_symmetry_space_group_name_H-M "C M C A"
_symmetry_group_IT_number 64
_symmetry_cell_setting 'orthorhombic'
loop_
_space_group_symop_operation_xyz
x,y,z
-x,1/2-y,1/2+z
x,-y,-z
-x,1/2+y,1/2-z
-x,-y,-z
x,1/2+y,1/2-z
-x,y,z
x,1/2-y,1/2+z
1/2+x,1/2+y,z
1/2-x,-y,1/2+z
1/2+x,1/2-y,-z
1/2-x,y,1/2-z
1/2-x,1/2-y,-z
1/2+x,y,1/2-z
1/2-x,1/2+y,z
1/2+x,-y,1/2+z
loop_
_atom_site_type_symbol
_atom_site_label
_atom_site_fract_x
_atom_site_fract_y
_atom_site_fract_z
Si Si1 0.082635 0.235518 0.516244
Si Si2 0.784940 0.390660 0.165848
Si Si3 0.860736 0.571694 0.572434
Si Si4 0.416497 0.074447 0.741692
Si Si5 0.207652 0.666955 0.054600
Si Si6 0.087822 0.806750 0.694821
Si Si7 0.660497 0.827437 0.652482
O O1 0.102936 0.325455 0.456689
O O2 0.142397 0.147141 0.509518
O O3 0.093444 0.288985 0.598847
O O4 0.000000 0.201863 0.503177
O O5 0.750000 0.419758 0.250000
O O6 0.725572 0.412358 0.097832
O O7 0.865406 0.438629 0.181065
O O8 0.792794 0.272689 0.168103
O O9 0.872883 0.500000 0.500000
O O10 0.897078 0.536845 0.653756
O O11 0.500000 0.046798 0.760629
O O12 0.411901 0.192783 0.723456
O O13 0.148433 0.679586 0.126303
O O14 0.278464 0.616940 0.097888
O O15 0.250000 0.750000 0.000000
O O16 0.125982 0.864321 0.767303
O O17 0.000000 0.829629 0.679838
#
# Coordination Sequence:
#
# PCOD9476483 Si02
#       7
#    16  16  16  16  16  16  16
#     4  11  21  32  46  77 114 139 170 220 268 314
#     4   9  17  33  55  78 107 133 179 227 267 321
#     4  11  21  33  53  79 107 146 184 220 265 314
#     4   9  17  30  53  79 102 130 168 225 278 312
#     4  10  18  28  46  67  99 138 167 202 257 311
#     4  10  17  29  49  75 102 129 168 214 263 315
#     4  10  18  30  51  74 100 138 168 209 271 323
#
# _framework density 26.866796000000001
#
# number of rings (size 3 to 8) (size 9 to 14) (size 15 to 20)
#    0.000    2.000    2.857    3.429    0.000    1.714 
#    0.000    0.000    0.000   13.286    0.000    0.000 
#    0.000    0.000    0.000    0.000    0.000    0.000 
#
# Total GULP energy -312118.169831 kJ/mol
# GULP energy per Si atom -5573.538747 kJ/mol
# Density = 2.680565 g / cm^3
# Si number density = 26.866796 Si / 1000 Ang^3
#
#
#
# Elastic Constant Matrix: (Units=GPa)
#
#
# Indices 1 2 3 4 5 6 
#
# 1 199.4360 -3.7428 11.2533 0.0000 0.0000 0.0000
# 2 -3.7428 55.4779 14.9429 0.0000 0.0000 0.0000
# 3 11.2533 14.9429 105.2232 0.0000 0.0000 0.0000
# 4 0.0000 0.0000 0.0000 35.1227 0.0000 0.0000
# 5 0.0000 0.0000 0.0000 0.0000 45.3018 0.0000
# 6 0.0000 0.0000 0.0000 0.0000 0.0000 -7.9894
#
#
#
# Elastic Compliance Matrix: (Units=1/GPa)
#
#
# Indices 1 2 3 4 5 6 
#
# 1 0.005058 0.000506 -0.000613 0.000000 0.000000 0.000000
# 2 0.000506 0.018793 -0.002723 0.000000 0.000000 0.000000
# 3 -0.000613 -0.002723 0.009956 0.000000 0.000000 0.000000
# 4 0.000000 0.000000 0.000000 0.028472 0.000000 0.000000
# 5 0.000000 0.000000 0.000000 0.000000 0.022074 0.000000
# 6 0.000000 0.000000 0.000000 0.000000 0.000000 -0.125166
#
#
# Mechanical properties :
#
#
# Convention : Reuss Voigt Hill
#
# Bulk Modulus (GPa) = 35.52667 45.00488 40.26577
# Shear Modulus (GPa) = -194.01073 36.99927 -78.50573
#
# Velocity S-wave (km/s) = -8.50699 3.71501 -5.41145
# Velocity P-wave (km/s) = 9.12359 5.93205 4.90156
#
# Compressibility (1/GPa) = 0.02814787
#
# Stress axis : x y z
#
# Youngs Moduli (GPa) = 197.69785 53.21197 100.44357
#
# Poissons Ratio (x) = -0.02694 0.06156
# Poissons Ratio (y) = -0.10010 0.27350
# Poissons Ratio (z) = 0.12116 0.14489
#
# Static dielectric constant tensor:
#      x y z
#    x 2.143900 0.000000 0.000000 
#    y 0.000000 2.307470 0.000000 
#    z 0.000000 0.000000 2.215120 
# 
# From -- ./inp_files/33560.got.cif
#   From: 2010.05.17/outbox.cif.g08.bks.cpg/sg64_17_cif.got.tgz:33560.got - 2010.06.03 16:29:19.
