data_PCOD9476351
_publ_section_title
;
Structure prediction by ZEFSAII (Michael W. Deem and Ramdas Pophale) SiO2 
 PCOD9476351
Probable space group: C M C A
;
_chemical_formula_sum "Si O2"
_cell_formula_units_Z 64
_cell_length_a 37.643232
_cell_length_b 5.346585
_cell_length_c 14.237319
_cell_angle_alpha 90.000000
_cell_angle_beta 90.000000
_cell_angle_gamma 90.000000
_cell_volume 2865.441826
_symmetry_space_group_name_H-M "C M C A"
_symmetry_group_IT_number 64
_symmetry_cell_setting 'orthorhombic'
loop_
_space_group_symop_operation_xyz
x,y,z
-x,1/2-y,1/2+z
x,-y,-z
-x,1/2+y,1/2-z
-x,-y,-z
x,1/2+y,1/2-z
-x,y,z
x,1/2-y,1/2+z
1/2+x,1/2+y,z
1/2-x,-y,1/2+z
1/2+x,1/2-y,-z
1/2-x,y,1/2-z
1/2-x,1/2-y,-z
1/2+x,y,1/2-z
1/2-x,1/2+y,z
1/2+x,-y,1/2+z
loop_
_atom_site_type_symbol
_atom_site_label
_atom_site_fract_x
_atom_site_fract_y
_atom_site_fract_z
Si Si1 0.418515 0.000976 0.112592
Si Si2 0.659462 0.067618 0.807411
Si Si3 0.236027 0.581654 0.140734
Si Si4 0.540671 0.500690 0.114753
O O1 0.436445 0.260138 0.143638
O O2 0.377848 0.978407 0.142775
O O3 0.440817 0.758838 0.143672
O O4 0.419694 0.000000 0.000000
O O5 0.660789 0.355191 0.774027
O O6 0.695454 0.006876 0.862926
O O7 0.250000 0.609431 0.250000
O O8 0.259124 0.356427 0.100158
O O9 0.500000 0.484267 0.147214
O O10 0.539828 0.500000 0.000000
#
# Coordination Sequence:
#
# PCOD9476351 Si02
#       4
#    16  16  16  16
#     4  10  21  35  53  81 111 135 169 221 270 309
#     4  12  21  33  55  80 106 139 175 219 260 311
#     4  10  16  30  49  75  96 127 176 226 240 283
#     4   9  17  33  57  79 100 137 184 218 247 303
#
# _framework density 22.335122999999999
#
# number of rings (size 3 to 8) (size 9 to 14) (size 15 to 20)
#    0.000    1.750    5.000    2.250    0.000    3.000 
#    0.000    0.000    0.000   16.500    0.000    0.000 
#    0.000    0.000    0.000    0.000    0.000    0.000 
#
# Total GULP energy -178857.857841 kJ/mol
# GULP energy per Si atom -5589.308058 kJ/mol
# Density = 2.228429 g / cm^3
# Si number density = 22.335123 Si / 1000 Ang^3
#
#
#
# Elastic Constant Matrix: (Units=GPa)
#
#
# Indices 1 2 3 4 5 6 
#
# 1 128.0095 -2.9401 -3.1411 0.0000 0.0000 0.0000
# 2 -2.9401 103.7613 -5.2530 0.0000 0.0000 0.0000
# 3 -3.1411 -5.2530 51.1887 0.0000 0.0000 0.0000
# 4 0.0000 0.0000 0.0000 -8.3186 0.0000 0.0000
# 5 0.0000 0.0000 0.0000 0.0000 40.0090 0.0000
# 6 0.0000 0.0000 0.0000 0.0000 0.0000 36.1261
#
#
#
# Elastic Compliance Matrix: (Units=1/GPa)
#
#
# Indices 1 2 3 4 5 6 
#
# 1 0.007830 0.000247 0.000506 0.000000 0.000000 0.000000
# 2 0.000247 0.009696 0.001010 0.000000 0.000000 0.000000
# 3 0.000506 0.001010 0.019670 0.000000 0.000000 0.000000
# 4 0.000000 0.000000 0.000000 -0.120213 0.000000 0.000000
# 5 0.000000 0.000000 0.000000 0.000000 0.024994 0.000000
# 6 0.000000 0.000000 0.000000 0.000000 0.000000 0.027681
#
#
# Mechanical properties :
#
#
# Convention : Reuss Voigt Hill
#
# Bulk Modulus (GPa) = 24.55617 28.92122 26.73869
# Shear Modulus (GPa) = -246.37403 33.18290 -106.59557
#
# Velocity S-wave (km/s) = -10.51415 3.85864 -6.91586
# Velocity P-wave (km/s) = 11.67811 5.72966 7.19546
#
# Compressibility (1/GPa) = 0.04072297
#
# Stress axis : x y z
#
# Youngs Moduli (GPa) = 127.71364 103.13893 50.83816
#
# Poissons Ratio (x) = -0.02552 -0.02572
# Poissons Ratio (y) = -0.03161 -0.05135
# Poissons Ratio (z) = -0.06461 -0.10419
#
# Static dielectric constant tensor:
#      x y z
#    x 1.768970 0.000000 0.000000 
#    y 0.000000 1.825450 0.000000 
#    z 0.000000 0.000000 1.924540 
# 
# From -- ./inp_files/1316.got.cif
#   From: 2010.05.17/outbox.cif.g08.bks.cpg/sg64_1_cif.got.tgz:1316.got - 2010.06.03 16:29:19.
