data_PCOD9476974
_publ_section_title
;
Structure prediction by ZEFSAII (Michael W. Deem and Ramdas Pophale) SiO2 
 PCOD9476974
Probable space group: C M C A
;
_chemical_formula_sum "Si O2"
_cell_formula_units_Z 96
_cell_length_a 15.199587
_cell_length_b 26.213604
_cell_length_c 10.187454
_cell_angle_alpha 90.000000
_cell_angle_beta 90.000000
_cell_angle_gamma 90.000000
_cell_volume 4059.047959
_symmetry_space_group_name_H-M "C M C A"
_symmetry_group_IT_number 64
_symmetry_cell_setting 'orthorhombic'
loop_
_space_group_symop_operation_xyz
x,y,z
-x,1/2-y,1/2+z
x,-y,-z
-x,1/2+y,1/2-z
-x,-y,-z
x,1/2+y,1/2-z
-x,y,z
x,1/2-y,1/2+z
1/2+x,1/2+y,z
1/2-x,-y,1/2+z
1/2+x,1/2-y,-z
1/2-x,y,1/2-z
1/2-x,1/2-y,-z
1/2+x,y,1/2-z
1/2-x,1/2+y,z
1/2+x,-y,1/2+z
loop_
_atom_site_type_symbol
_atom_site_label
_atom_site_fract_x
_atom_site_fract_y
_atom_site_fract_z
Si Si1 0.639856 0.390338 0.529207
Si Si2 0.357139 0.534477 0.245595
Si Si3 0.642622 0.917432 0.260243
Si Si4 0.646794 0.619549 0.039662
Si Si5 0.594664 0.777903 0.944749
Si Si6 0.342044 0.775692 0.678252
O O1 0.615322 0.438428 0.619011
O O2 0.611700 0.396658 0.379192
O O3 0.746118 0.384287 0.536445
O O4 0.601429 0.337910 0.582865
O O5 0.250000 0.533355 0.250000
O O6 0.385330 0.476455 0.227454
O O7 0.383467 0.571905 0.127657
O O8 0.750000 0.916887 0.250000
O O9 0.616876 0.886537 0.389900
O O10 0.624122 0.672458 0.110481
O O11 0.500000 0.764578 0.001325
O O12 0.605448 0.753367 0.801966
O O13 0.662937 0.763626 0.058251
O O14 0.250000 0.787389 0.750000
#
# Coordination Sequence:
#
# PCOD9476974 Si02
#       6
#    16  16  16  16  16  16
#     4  10  19  34  55  85 125 161 206 248 314 373
#     4   9  15  30  51  84 125 161 200 252 313 363
#     4   9  18  27  52  89 127 158 197 258 307 364
#     4  10  18  33  56  92 120 157 203 259 313 365
#     4  12  27  44  64  92 127 167 211 265 330 387
#     4  12  24  44  67  94 122 166 217 269 321 386
#
# _framework density 23.650865
#
# number of rings (size 3 to 8) (size 9 to 14) (size 15 to 20)
#    0.000    1.667    3.333    2.500    2.333    4.667 
#    0.000    0.000    0.000    2.000    0.000    1.167 
#    0.000    0.000    0.000    0.000    0.000    0.000 
#
# Total GULP energy -268318.859463 kJ/mol
# GULP energy per Si atom -5589.976239 kJ/mol
# Density = 2.359703 g / cm^3
# Si number density = 23.650865 Si / 1000 Ang^3
#
#
#
# Elastic Constant Matrix: (Units=GPa)
#
#
# Indices 1 2 3 4 5 6 
#
# 1 45.5980 -2.0491 17.4664 0.0000 0.0000 0.0000
# 2 -2.0491 62.9462 29.2458 0.0000 0.0000 0.0000
# 3 17.4664 29.2458 184.2455 0.0000 0.0000 0.0000
# 4 0.0000 0.0000 0.0000 44.1450 0.0000 0.0000
# 5 0.0000 0.0000 0.0000 0.0000 2.9601 0.0000
# 6 0.0000 0.0000 0.0000 0.0000 0.0000 -12.1037
#
#
#
# Elastic Compliance Matrix: (Units=1/GPa)
#
#
# Indices 1 2 3 4 5 6 
#
# 1 0.022966 0.001899 -0.002479 0.000000 0.000000 0.000000
# 2 0.001899 0.017309 -0.002927 0.000000 0.000000 0.000000
# 3 -0.002479 -0.002927 0.006127 0.000000 0.000000 0.000000
# 4 0.000000 0.000000 0.000000 0.022653 0.000000 0.000000
# 5 0.000000 0.000000 0.000000 0.000000 0.337823 0.000000
# 6 0.000000 0.000000 0.000000 0.000000 0.000000 -0.082620
#
#
# Mechanical properties :
#
#
# Convention : Reuss Voigt Hill
#
# Bulk Modulus (GPa) = 25.38874 42.45732 33.92303
# Shear Modulus (GPa) = 14.51797 23.54208 19.03002
#
# Velocity S-wave (km/s) = 2.48028 3.15842 2.83966
# Velocity P-wave (km/s) = 4.35436 5.59388 5.01258
#
# Compressibility (1/GPa) = 0.03938754
#
# Stress axis : x y z
#
# Youngs Moduli (GPa) = 43.54351 57.77493 163.20681
#
# Poissons Ratio (x) = -0.10973 0.40452
# Poissons Ratio (y) = -0.08270 0.47778
# Poissons Ratio (z) = 0.10793 0.16913
#
# Static dielectric constant tensor:
#      x y z
#    x 2.007210 0.000000 0.000000 
#    y 0.000000 1.843800 0.000000 
#    z 0.000000 0.000000 1.878590 
# 
# From -- ./inp_files/8429.got.cif
#   From: 2010.05.17/outbox.cif.g08.bks.cpg/sg64_5_cif.got.tgz:8429.got - 2010.06.03 16:29:19.
