data_PCOD9476038
_publ_section_title
;
Structure prediction by ZEFSAII (Michael W. Deem and Ramdas Pophale) SiO2 
 PCOD9476038
Probable space group: C M C M
;
_chemical_formula_sum "Si O2"
_cell_formula_units_Z 64
_cell_length_a 21.000000
_cell_length_b 21.000000
_cell_length_c 18.000000
_cell_angle_alpha 90.000000
_cell_angle_beta 90.000000
_cell_angle_gamma 90.000000
_cell_volume 7938.000000
_symmetry_space_group_name_H-M "C M C M"
_symmetry_group_IT_number 63
_symmetry_cell_setting 'orthorhombic'
loop_
_space_group_symop_operation_xyz
x,y,z
-x,-y,1/2+z
x,-y,-z
-x,y,1/2-z
-x,-y,-z
x,y,1/2-z
-x,y,z
x,-y,1/2+z
1/2+x,1/2+y,z
1/2-x,1/2-y,1/2+z
1/2+x,1/2-y,-z
1/2-x,1/2+y,1/2-z
1/2-x,1/2-y,-z
1/2+x,1/2+y,1/2-z
1/2-x,1/2+y,z
1/2+x,1/2-y,1/2+z
loop_
_atom_site_type_symbol
_atom_site_label
_atom_site_fract_x
_atom_site_fract_y
_atom_site_fract_z
Si Si1 0.331091 0.161273 0.445002
Si Si2 0.426521 0.399732 0.163023
Si Si3 0.626779 0.066991 0.666280
Si Si4 0.233526 0.652636 0.596068
Si Si5 0.070953 0.567586 0.516351
Si Si6 0.220454 0.445776 0.836093
Si Si7 0.844542 0.227471 0.664855
Si Si8 0.679021 0.471155 0.081114
O O1 0.290264 0.180335 0.517564
O O2 0.389308 0.122496 0.479544
O O3 0.294418 0.112435 0.390726
O O4 0.355719 0.218312 0.394954
O O5 0.420846 0.416868 0.250000
O O6 0.500000 0.396228 0.142792
O O7 0.393126 0.331012 0.155470
O O8 0.387606 0.449827 0.114982
O O9 0.604901 0.073729 0.750000
O O10 0.676531 0.122165 0.643538
O O11 0.572889 0.071695 0.604756
O O12 0.665081 0.999950 0.659642
O O13 0.274822 0.700005 0.645404
O O14 0.277908 0.592277 0.576608
O O15 0.103720 0.500000 0.500000
O O16 0.000000 0.566450 0.486155
O O17 0.225355 0.426308 0.750000
O O18 0.283727 0.481019 0.864574
O O19 0.847896 0.249668 0.750000
O O20 0.673581 0.500000 0.000000
#
# Coordination Sequence:
#
# PCOD9476038 Si02
#       8
#    16  16  16  16  16  16  16  16
#     4  11  19  31  50  71  97 129 164 197 244 293
#     4   9  19  35  51  68  96 133 167 200 238 280
#     4   9  17  29  49  69  92 126 162 199 243 292
#     4   9  18  30  49  71 100 127 156 194 248 295
#     4  10  20  33  47  65  95 130 164 203 244 285
#     4  10  18  28  45  72 101 126 155 195 245 294
#     4  10  20  33  49  71  99 129 163 201 237 286
#     4  10  17  29  50  75  98 126 157 197 242 299
#
# _framework density 8.0624839999999995
#
# number of rings (size 3 to 8) (size 9 to 14) (size 15 to 20)
#    0.000    2.250    2.500    1.500    0.000    4.000 
#    0.000    0.000    0.000    1.125    0.000    0.000 
#    0.000    0.000    0.000    0.000    0.000    0.000 
#
# Total GULP energy -356467.392152 kJ/mol
# GULP energy per Si atom -5569.803002 kJ/mol
# Density = 0.804413 g / cm^3
# Si number density = 8.062484 Si / 1000 Ang^3
#
#
#
# Elastic Constant Matrix: (Units=GPa)
#
#
# Indices 1 2 3 4 5 6 
#
# 1 40.4522 -1.8482 6.4659 0.0000 0.0000 0.0000
# 2 -1.8482 13.5714 2.6829 0.0000 0.0000 0.0000
# 3 6.4659 2.6829 64.2169 0.0000 0.0000 0.0000
# 4 0.0000 0.0000 0.0000 9.0033 0.0000 0.0000
# 5 0.0000 0.0000 0.0000 0.0000 13.2351 0.0000
# 6 0.0000 0.0000 0.0000 0.0000 0.0000 1.3872
#
#
#
# Elastic Compliance Matrix: (Units=1/GPa)
#
#
# Indices 1 2 3 4 5 6 
#
# 1 0.025337 0.003988 -0.002718 0.000000 0.000000 0.000000
# 2 0.003988 0.074926 -0.003532 0.000000 0.000000 0.000000
# 3 -0.002718 -0.003532 0.015993 0.000000 0.000000 0.000000
# 4 0.000000 0.000000 0.000000 0.111070 0.000000 0.000000
# 5 0.000000 0.000000 0.000000 0.000000 0.075557 0.000000
# 6 0.000000 0.000000 0.000000 0.000000 0.000000 0.720867
#
#
# Mechanical properties :
#
#
# Convention : Reuss Voigt Hill
#
# Bulk Modulus (GPa) = 8.94992 14.76018 11.85505
# Shear Modulus (GPa) = 4.69255 12.12112 8.40683
#
# Velocity S-wave (km/s) = 1.70776 2.74469 2.28580
# Velocity P-wave (km/s) = 3.07424 4.38382 3.78608
#
# Compressibility (1/GPa) = 0.11173286
#
# Stress axis : x y z
#
# Youngs Moduli (GPa) = 39.46774 13.34652 62.52568
#
# Poissons Ratio (x) = -0.05322 0.16993
# Poissons Ratio (y) = -0.15739 0.22083
# Poissons Ratio (z) = 0.10726 0.04714
#
# Static dielectric constant tensor:
#      x y z
#    x 1.529580 0.000000 0.000000 
#    y 0.000000 1.539220 0.000000 
#    z 0.000000 0.000000 1.538600 
# 
# From -- ./inp_files/47568.got.cif
#   From: 2010.05.17/outbox.ucp.g08.bks.cvg/sg63_24_cif.got.tgz:47568.got - 2010.06.11 16:32:19.
