data_PCOD9476128
_publ_section_title
;
Structure prediction by ZEFSAII (Michael W. Deem and Ramdas Pophale) SiO2 
 PCOD9476128
Probable space group: C M C M
;
_chemical_formula_sum "Si O2"
_cell_formula_units_Z 56
_cell_length_a 15.000000
_cell_length_b 15.000000
_cell_length_c 27.000000
_cell_angle_alpha 90.000000
_cell_angle_beta 90.000000
_cell_angle_gamma 90.000000
_cell_volume 6075.000000
_symmetry_space_group_name_H-M "C M C M"
_symmetry_group_IT_number 63
_symmetry_cell_setting 'orthorhombic'
loop_
_space_group_symop_operation_xyz
x,y,z
-x,-y,1/2+z
x,-y,-z
-x,y,1/2-z
-x,-y,-z
x,y,1/2-z
-x,y,z
x,-y,1/2+z
1/2+x,1/2+y,z
1/2-x,1/2-y,1/2+z
1/2+x,1/2-y,-z
1/2-x,1/2+y,1/2-z
1/2-x,1/2-y,-z
1/2+x,1/2+y,1/2-z
1/2-x,1/2+y,z
1/2+x,1/2-y,1/2+z
loop_
_atom_site_type_symbol
_atom_site_label
_atom_site_fract_x
_atom_site_fract_y
_atom_site_fract_z
Si Si1 0.257620 0.897048 0.504286
Si Si2 0.601029 0.809729 0.060808
Si Si3 0.728299 0.124019 0.851616
Si Si4 0.894427 0.919886 0.078056
Si Si5 0.149060 0.879175 0.596077
Si Si6 0.747774 0.679410 0.191643
Si Si7 0.394745 0.036430 0.309216
O O1 0.334110 0.831239 0.485086
O O2 0.165744 0.893628 0.470748
O O3 0.236843 0.879060 0.561402
O O4 0.288053 0.000000 0.500000
O O5 0.500000 0.843153 0.054893
O O6 0.657530 0.853643 0.105106
O O7 0.597517 0.706346 0.075804
O O8 0.825205 0.106072 0.877237
O O9 0.742116 0.214294 0.819497
O O10 0.676936 0.040274 0.826144
O O11 0.000000 0.889772 0.077790
O O12 0.896292 0.027246 0.083523
O O13 0.177625 0.864893 0.652992
O O14 0.728379 0.664235 0.250000
O O15 0.843038 0.630513 0.180703
O O16 0.400951 0.028138 0.250000
O O17 0.500000 0.030651 0.327375
#
# Coordination Sequence:
#
# PCOD9476128 Si02
#       7
#    16  16  16  16  16  16  16
#     4   9  20  35  53  80 116 151 192 238 290 350
#     4  10  20  33  54  83 114 150 188 231 289 357
#     4  10  20  37  57  85 119 153 188 247 301 354
#     4  10  20  35  58  85 113 151 197 239 292 357
#     4  10  19  36  56  80 115 149 194 244 292 349
#     4  10  21  37  60  84 113 153 196 246 301 355
#     4  10  20  36  60  86 112 152 202 245 295 361
#
# _framework density 9.2181069999999998
#
# number of rings (size 3 to 8) (size 9 to 14) (size 15 to 20)
#    0.000    2.143    1.429    1.714    0.000    4.000 
#    0.000    0.714    0.000   11.571    0.000    0.000 
#    0.000    0.000    0.000    0.000    0.000    0.000 
#
# Total GULP energy -311746.924646 kJ/mol
# GULP energy per Si atom -5566.909369 kJ/mol
# Density = 0.919713 g / cm^3
# Si number density = 9.218107 Si / 1000 Ang^3
#
#
#
# Elastic Constant Matrix: (Units=GPa)
#
#
# Indices 1 2 3 4 5 6 
#
# 1 135.2179 35.4789 28.3373 0.0000 0.0000 0.0000
# 2 35.4789 68.2054 14.3665 0.0000 0.0000 0.0000
# 3 28.3373 14.3665 84.0847 0.0000 0.0000 0.0000
# 4 0.0000 0.0000 0.0000 22.1068 0.0000 0.0000
# 5 0.0000 0.0000 0.0000 0.0000 1.4205 0.0000
# 6 0.0000 0.0000 0.0000 0.0000 0.0000 409.2568
#
#
#
# Elastic Compliance Matrix: (Units=1/GPa)
#
#
# Indices 1 2 3 4 5 6 
#
# 1 0.008977 -0.004183 -0.002311 0.000000 0.000000 0.000000
# 2 -0.004183 0.017158 -0.001522 0.000000 0.000000 0.000000
# 3 -0.002311 -0.001522 0.012932 0.000000 0.000000 0.000000
# 4 0.000000 0.000000 0.000000 0.045235 0.000000 0.000000
# 5 0.000000 0.000000 0.000000 0.000000 0.703988 0.000000
# 6 0.000000 0.000000 0.000000 0.000000 0.000000 0.002443
#
#
# Mechanical properties :
#
#
# Convention : Reuss Voigt Hill
#
# Bulk Modulus (GPa) = 43.41100 49.31924 46.36512
# Shear Modulus (GPa) = 6.13917 100.51185 53.32551
#
# Velocity S-wave (km/s) = 1.82679 7.39169 5.38397
# Velocity P-wave (km/s) = 5.29597 9.98292 7.99081
#
# Compressibility (1/GPa) = 0.02303564
#
# Stress axis : x y z
#
# Youngs Moduli (GPa) = 111.39224 58.28156 77.33042
#
# Poissons Ratio (x) = 0.24380 0.17869
# Poissons Ratio (y) = 0.46596 0.11769
# Poissons Ratio (z) = 0.25740 0.08870
#
# Static dielectric constant tensor:
#      x y z
#    x 1.635550 0.000000 0.000000 
#    y 0.000000 1.683150 0.000000 
#    z 0.000000 0.000000 1.658010 
# 
# From -- ./inp_files/69428.got.cif
#   From: 2010.05.17/outbox.ucp.g08.bks.cvg/sg63_35_cif.got.tgz:69428.got - 2010.06.11 16:32:19.
