data_PCOD9476657
_publ_section_title
;
Structure prediction by ZEFSAII (Michael W. Deem and Ramdas Pophale) SiO2 
 PCOD9476657
Probable space group: C M C A
;
_chemical_formula_sum "Si O2"
_cell_formula_units_Z 80
_cell_length_a 8.980159
_cell_length_b 18.855850
_cell_length_c 27.087792
_cell_angle_alpha 90.000000
_cell_angle_beta 90.000000
_cell_angle_gamma 90.000000
_cell_volume 4586.736030
_symmetry_space_group_name_H-M "C M C A"
_symmetry_group_IT_number 64
_symmetry_cell_setting 'orthorhombic'
loop_
_space_group_symop_operation_xyz
x,y,z
-x,1/2-y,1/2+z
x,-y,-z
-x,1/2+y,1/2-z
-x,-y,-z
x,1/2+y,1/2-z
-x,y,z
x,1/2-y,1/2+z
1/2+x,1/2+y,z
1/2-x,-y,1/2+z
1/2+x,1/2-y,-z
1/2-x,y,1/2-z
1/2-x,1/2-y,-z
1/2+x,y,1/2-z
1/2-x,1/2+y,z
1/2+x,-y,1/2+z
loop_
_atom_site_type_symbol
_atom_site_label
_atom_site_fract_x
_atom_site_fract_y
_atom_site_fract_z
Si Si1 0.327587 0.333928 0.300475
Si Si2 0.670734 0.839008 0.700353
Si Si3 0.181467 0.326696 0.592499
Si Si4 0.679174 0.828788 0.402782
Si Si5 0.181071 0.580715 0.501948
O O1 0.500000 0.355104 0.302335
O O2 0.250000 0.358292 0.250000
O O3 0.324314 0.247370 0.299551
O O4 0.241459 0.354740 0.350118
O O5 0.500000 0.861294 0.703234
O O6 0.750000 0.863880 0.750000
O O7 0.728877 0.858199 0.645844
O O8 0.252281 0.248988 0.587749
O O9 0.225130 0.375005 0.546401
O O10 0.000000 0.319826 0.593729
O O11 0.500000 0.824065 0.400694
O O12 0.724102 0.879462 0.447865
O O13 0.234390 0.500000 0.500000
O O14 0.000000 0.579272 0.501571
#
# Coordination Sequence:
#
# PCOD9476657 Si02
#       5
#    16  16  16  16  16
#     4   9  16  27  44  68  98 126 154 190 232 279
#     4   8  14  23  38  62  89 115 142 178 224 269
#     4   9  17  30  48  69  93 122 157 198 240 280
#     4  10  18  28  47  73  97 123 157 196 238 284
#     4   9  18  32  49  68  91 123 164 204 241 284
#
# _framework density 17.441596000000001
#
# number of rings (size 3 to 8) (size 9 to 14) (size 15 to 20)
#    0.000    3.000    0.000    3.000    0.000    4.800 
#    0.000    1.000    0.000    6.600    0.000    2.800 
#    0.000    0.000    0.000    0.000    0.000    0.000 
#
# Total GULP energy -222780.596014 kJ/mol
# GULP energy per Si atom -5569.514900 kJ/mol
# Density = 1.740190 g / cm^3
# Si number density = 17.441596 Si / 1000 Ang^3
#
#
#
# Elastic Constant Matrix: (Units=GPa)
#
#
# Indices 1 2 3 4 5 6 
#
# 1 47.8692 24.2631 57.1773 0.0000 0.0000 0.0000
# 2 24.2631 58.2933 76.1704 0.0000 0.0000 0.0000
# 3 57.1773 76.1704 222.9027 0.0000 0.0000 0.0000
# 4 0.0000 0.0000 0.0000 -2.8512 0.0000 0.0000
# 5 0.0000 0.0000 0.0000 0.0000 26.9078 0.0000
# 6 0.0000 0.0000 0.0000 0.0000 0.0000 8.8357
#
#
#
# Elastic Compliance Matrix: (Units=1/GPa)
#
#
# Indices 1 2 3 4 5 6 
#
# 1 0.030759 -0.004504 -0.006351 0.000000 0.000000 0.000000
# 2 -0.004504 0.031654 -0.009661 0.000000 0.000000 0.000000
# 3 -0.006351 -0.009661 0.009417 0.000000 0.000000 0.000000
# 4 0.000000 0.000000 0.000000 -0.350734 0.000000 0.000000
# 5 0.000000 0.000000 0.000000 0.000000 0.037164 0.000000
# 6 0.000000 0.000000 0.000000 0.000000 0.000000 0.113178
#
#
# Mechanical properties :
#
#
# Convention : Reuss Voigt Hill
#
# Bulk Modulus (GPa) = 32.47093 71.58744 52.02918
# Shear Modulus (GPa) = -64.71246 18.00876 -23.35185
#
# Velocity S-wave (km/s) = -6.09778 3.21677 -3.66301
# Velocity P-wave (km/s) = 5.56056 7.41148 3.46483
#
# Compressibility (1/GPa) = 0.03079678
#
# Stress axis : x y z
#
# Youngs Moduli (GPa) = 32.51073 31.59202 106.19287
#
# Poissons Ratio (x) = 0.14229 0.67442
# Poissons Ratio (y) = 0.14643 1.02596
# Poissons Ratio (z) = 0.20647 0.30522
#
# Static dielectric constant tensor:
#      x y z
#    x 1.591210 0.000000 0.000000 
#    y 0.000000 1.562850 0.000000 
#    z 0.000000 0.000000 1.618690 
# 
# From -- ./inp_files/47890.got.cif
#   From: 2010.05.17/outbox.cif.g08.bks.cpg/sg64_24_cif.got.tgz:47890.got - 2010.06.03 16:29:19.
