data_PCOD9476490
_publ_section_title
;
Structure prediction by ZEFSAII (Michael W. Deem and Ramdas Pophale) SiO2 
 PCOD9476490
Probable space group: C M C A
;
_chemical_formula_sum "Si O2"
_cell_formula_units_Z 96
_cell_length_a 18.979727
_cell_length_b 22.376982
_cell_length_c 9.955115
_cell_angle_alpha 90.000000
_cell_angle_beta 90.000000
_cell_angle_gamma 90.000000
_cell_volume 4228.027031
_symmetry_space_group_name_H-M "C M C A"
_symmetry_group_IT_number 64
_symmetry_cell_setting 'orthorhombic'
loop_
_space_group_symop_operation_xyz
x,y,z
-x,1/2-y,1/2+z
x,-y,-z
-x,1/2+y,1/2-z
-x,-y,-z
x,1/2+y,1/2-z
-x,y,z
x,1/2-y,1/2+z
1/2+x,1/2+y,z
1/2-x,-y,1/2+z
1/2+x,1/2-y,-z
1/2-x,y,1/2-z
1/2-x,1/2-y,-z
1/2+x,y,1/2-z
1/2-x,1/2+y,z
1/2+x,-y,1/2+z
loop_
_atom_site_type_symbol
_atom_site_label
_atom_site_fract_x
_atom_site_fract_y
_atom_site_fract_z
Si Si1 0.077760 0.927374 0.305639
Si Si2 0.919176 0.065136 0.233599
Si Si3 0.635579 0.385400 0.025730
Si Si4 0.585470 0.819477 0.891330
Si Si5 0.774298 0.556057 0.899619
Si Si6 0.585180 0.234973 0.383261
O O1 0.089882 0.900055 0.157764
O O2 0.148116 0.916385 0.388334
O O3 0.000000 0.909913 0.357720
O O4 0.079526 0.999428 0.293333
O O5 0.891468 0.116147 0.333947
O O6 0.000000 0.081749 0.201472
O O7 0.879681 0.067202 0.092754
O O8 0.716888 0.394545 0.060950
O O9 0.614543 0.322364 0.962574
O O10 0.500000 0.821305 0.895254
O O11 0.605473 0.772638 0.772352
O O12 0.608147 0.793080 0.034043
O O13 0.750000 0.535147 0.750000
O O14 0.773690 0.500000 0.000000
O O15 0.500000 0.232461 0.387301
#
# Coordination Sequence:
#
# PCOD9476490 Si02
#       6
#    16  16  16  16  16  16
#     4  10  19  31  50  79 110 138 174 221 271 318
#     4   9  16  28  50  79 110 142 179 220 258 309
#     4  10  17  29  51  79 108 142 181 217 256 312
#     4   8  15  27  44  72 107 140 173 210 255 306
#     4  10  21  36  53  76 105 143 179 213 263 319
#     4   9  16  28  48  75 108 141 175 215 260 312
#
# _framework density 22.705625999999999
#
# number of rings (size 3 to 8) (size 9 to 14) (size 15 to 20)
#    0.000    2.667    0.000    5.000    0.000    1.667 
#    0.000    3.333    0.000    6.000    0.000   67.667 
#    0.000    0.000    0.000    0.000    0.000    0.000 
#
# Total GULP energy -268226.060988 kJ/mol
# GULP energy per Si atom -5588.042937 kJ/mol
# Density = 2.265395 g / cm^3
# Si number density = 22.705626 Si / 1000 Ang^3
#
#
#
# Elastic Constant Matrix: (Units=GPa)
#
#
# Indices 1 2 3 4 5 6 
#
# 1 118.4755 12.6275 29.4157 0.0000 0.0000 0.0000
# 2 12.6275 63.4115 23.2918 0.0000 0.0000 0.0000
# 3 29.4157 23.2918 103.5093 0.0000 0.0000 0.0000
# 4 0.0000 0.0000 0.0000 40.2985 0.0000 0.0000
# 5 0.0000 0.0000 0.0000 0.0000 -8.6871 0.0000
# 6 0.0000 0.0000 0.0000 0.0000 0.0000 11.6551
#
#
#
# Elastic Compliance Matrix: (Units=1/GPa)
#
#
# Indices 1 2 3 4 5 6 
#
# 1 0.009133 -0.000943 -0.002383 0.000000 0.000000 0.000000
# 2 -0.000943 0.017288 -0.003622 0.000000 0.000000 0.000000
# 3 -0.002383 -0.003622 0.011153 0.000000 0.000000 0.000000
# 4 0.000000 0.000000 0.000000 0.024815 0.000000 0.000000
# 5 0.000000 0.000000 0.000000 0.000000 -0.115113 0.000000
# 6 0.000000 0.000000 0.000000 0.000000 0.000000 0.085800
#
#
# Mechanical properties :
#
#
# Convention : Reuss Voigt Hill
#
# Bulk Modulus (GPa) = 42.23476 46.22959 44.23218
# Shear Modulus (GPa) = 91.13276 23.32406 57.22841
#
# Velocity S-wave (km/s) = 6.34222 3.20853 5.02586
# Velocity P-wave (km/s) = 8.50136 5.84216 7.29397
#
# Compressibility (1/GPa) = 0.02367718
#
# Stress axis : x y z
#
# Youngs Moduli (GPa) = 109.49547 57.84254 89.65973
#
# Poissons Ratio (x) = 0.05456 0.21367
# Poissons Ratio (y) = 0.10329 0.32476
# Poissons Ratio (z) = 0.26094 0.20952
#
# Static dielectric constant tensor:
#      x y z
#    x 1.900410 0.000000 0.000000 
#    y 0.000000 1.860820 0.000000 
#    z 0.000000 0.000000 1.890130 
# 
# From -- ./inp_files/16356.got.cif
#   From: 2010.05.17/outbox.cif.g08.bks.cpg/sg64_9_cif.got.tgz:16356.got - 2010.06.03 16:29:19.
