data_PCOD9476770
_publ_section_title
;
Structure prediction by ZEFSAII (Michael W. Deem and Ramdas Pophale) SiO2 
 PCOD9476770
Probable space group: C M C A
;
_chemical_formula_sum "Si O2"
_cell_formula_units_Z 96
_cell_length_a 11.456574
_cell_length_b 14.802594
_cell_length_c 26.937499
_cell_angle_alpha 90.000000
_cell_angle_beta 90.000000
_cell_angle_gamma 90.000000
_cell_volume 4568.250008
_symmetry_space_group_name_H-M "C M C A"
_symmetry_group_IT_number 64
_symmetry_cell_setting 'orthorhombic'
loop_
_space_group_symop_operation_xyz
x,y,z
-x,1/2-y,1/2+z
x,-y,-z
-x,1/2+y,1/2-z
-x,-y,-z
x,1/2+y,1/2-z
-x,y,z
x,1/2-y,1/2+z
1/2+x,1/2+y,z
1/2-x,-y,1/2+z
1/2+x,1/2-y,-z
1/2-x,y,1/2-z
1/2-x,1/2-y,-z
1/2+x,y,1/2-z
1/2-x,1/2+y,z
1/2+x,-y,1/2+z
loop_
_atom_site_type_symbol
_atom_site_label
_atom_site_fract_x
_atom_site_fract_y
_atom_site_fract_z
Si Si1 0.868962 0.649994 0.069928
Si Si2 0.128443 0.421639 0.341538
Si Si3 0.135139 0.389344 0.715681
Si Si4 0.274312 0.752315 0.138557
Si Si5 0.867738 0.678466 0.962377
Si Si6 0.693466 0.513713 0.947195
O O1 0.844411 0.704583 0.119774
O O2 0.771364 0.573177 0.066390
O O3 0.000000 0.612261 0.069829
O O4 0.859440 0.711600 0.019732
O O5 0.146612 0.511305 0.308936
O O6 0.232108 0.347871 0.338952
O O7 0.126144 0.455712 0.398583
O O8 0.000000 0.383833 0.328871
O O9 0.250000 0.378463 0.750000
O O10 0.152977 0.310810 0.674764
O O11 0.000000 0.383037 0.735300
O O12 0.340774 0.761898 0.085708
O O13 0.783636 0.593823 0.958270
O O14 0.000000 0.646929 0.957021
O O15 0.630797 0.500000 0.000000
#
# Coordination Sequence:
#
# PCOD9476770 Si02
#       6
#    16  16  16  16  16  16
#     4  10  18  30  52  86 127 170 215 259 308 375
#     4  10  22  41  62  92 132 168 210 269 329 388
#     4  11  26  49  72  96 127 166 217 275 335 394
#     4  11  21  38  64  91 124 164 214 263 326 386
#     4   9  18  31  51  83 125 169 210 257 310 376
#     4   9  17  32  54  84 123 169 217 260 307 377
#
# _framework density 21.014610000000001
#
# number of rings (size 3 to 8) (size 9 to 14) (size 15 to 20)
#    0.000    2.000    1.667    2.000    0.000    4.333 
#    0.000    3.333    0.000    0.000    0.000    0.000 
#    0.000    0.000    0.000    0.000    0.000    0.000 
#
# Total GULP energy -267482.264751 kJ/mol
# GULP energy per Si atom -5572.547182 kJ/mol
# Density = 2.096678 g / cm^3
# Si number density = 21.014610 Si / 1000 Ang^3
#
#
#
# Elastic Constant Matrix: (Units=GPa)
#
#
# Indices 1 2 3 4 5 6 
#
# 1 115.2205 21.3952 29.8450 0.0000 0.0000 0.0000
# 2 21.3952 69.3915 15.5309 0.0000 0.0000 0.0000
# 3 29.8450 15.5309 46.9390 0.0000 0.0000 0.0000
# 4 0.0000 0.0000 0.0000 27.5378 0.0000 0.0000
# 5 0.0000 0.0000 0.0000 0.0000 17.2536 0.0000
# 6 0.0000 0.0000 0.0000 0.0000 0.0000 -6.4167
#
#
#
# Elastic Compliance Matrix: (Units=1/GPa)
#
#
# Indices 1 2 3 4 5 6 
#
# 1 0.010618 -0.001904 -0.006121 0.000000 0.000000 0.000000
# 2 -0.001904 0.015905 -0.004052 0.000000 0.000000 0.000000
# 3 -0.006121 -0.004052 0.026537 0.000000 0.000000 0.000000
# 4 0.000000 0.000000 0.000000 0.036314 0.000000 0.000000
# 5 0.000000 0.000000 0.000000 0.000000 0.057959 0.000000
# 6 0.000000 0.000000 0.000000 0.000000 0.000000 -0.155844
#
#
# Mechanical properties :
#
#
# Convention : Reuss Voigt Hill
#
# Bulk Modulus (GPa) = 34.59525 40.56591 37.58058
# Shear Modulus (GPa) = 197.79683 18.66028 108.22855
#
# Velocity S-wave (km/s) = 9.71225 2.98311 7.18425
# Velocity P-wave (km/s) = 11.92764 5.58667 9.31342
#
# Compressibility (1/GPa) = 0.02890571
#
# Stress axis : x y z
#
# Youngs Moduli (GPa) = 94.17874 62.87379 37.68315
#
# Poissons Ratio (x) = 0.11970 0.23067
# Poissons Ratio (y) = 0.17930 0.15269
# Poissons Ratio (z) = 0.57650 0.25477
#
# Static dielectric constant tensor:
#      x y z
#    x 1.791030 0.000000 0.000000 
#    y 0.000000 1.782410 0.000000 
#    z 0.000000 0.000000 1.792930 
# 
# From -- ./inp_files/44215.got.cif
#   From: 2010.05.17/outbox.cif.g08.bks.cpg/sg64_23_cif.got.tgz:44215.got - 2010.06.03 16:29:19.
