data_PCOD9476774
_publ_section_title
;
Structure prediction by ZEFSAII (Michael W. Deem and Ramdas Pophale) SiO2 
 PCOD9476774
Probable space group: C M C A
;
_chemical_formula_sum "Si O2"
_cell_formula_units_Z 120
_cell_length_a 9.465448
_cell_length_b 28.597506
_cell_length_c 21.139780
_cell_angle_alpha 90.000000
_cell_angle_beta 90.000000
_cell_angle_gamma 90.000000
_cell_volume 5722.289123
_symmetry_space_group_name_H-M "C M C A"
_symmetry_group_IT_number 64
_symmetry_cell_setting 'orthorhombic'
loop_
_space_group_symop_operation_xyz
x,y,z
-x,1/2-y,1/2+z
x,-y,-z
-x,1/2+y,1/2-z
-x,-y,-z
x,1/2+y,1/2-z
-x,y,z
x,1/2-y,1/2+z
1/2+x,1/2+y,z
1/2-x,-y,1/2+z
1/2+x,1/2-y,-z
1/2-x,y,1/2-z
1/2-x,1/2-y,-z
1/2+x,y,1/2-z
1/2-x,1/2+y,z
1/2+x,-y,1/2+z
loop_
_atom_site_type_symbol
_atom_site_label
_atom_site_fract_x
_atom_site_fract_y
_atom_site_fract_z
Si Si1 0.166430 0.729260 0.374428
Si Si2 0.151003 0.360612 0.337012
Si Si3 0.663883 0.540904 0.871207
Si Si4 0.164129 0.047799 0.370642
Si Si5 0.667773 0.181397 0.943250
Si Si6 0.829879 0.085089 0.510055
Si Si7 0.750000 0.213413 0.750000
Si Si8 0.333671 0.150385 0.185081
O O1 0.217474 0.765465 0.429222
O O2 0.187026 0.755721 0.306699
O O3 0.262772 0.683878 0.367000
O O4 0.000000 0.718760 0.382724
O O5 0.168943 0.415153 0.323143
O O6 0.281457 0.344434 0.379364
O O7 0.144380 0.323580 0.281355
O O8 0.000000 0.357118 0.373071
O O9 0.500000 0.531742 0.885746
O O10 0.738444 0.494185 0.848100
O O11 0.745240 0.559665 0.933861
O O12 0.197201 0.059889 0.443802
O O13 0.180396 0.096318 0.333751
O O14 0.000000 0.033612 0.367166
O O15 0.500000 0.185732 0.947505
O O16 0.709979 0.140669 0.992627
O O17 0.000000 0.082796 0.521916
O O18 0.500000 0.161654 0.191598
O O19 0.250000 0.158016 0.250000
#
# Coordination Sequence:
#
# PCOD9476774 Si02
#       8
#    16  16  16  16  16  16   8  16
#     4  10  19  32  54  82 108 137 177 221 272 326
#     4   9  18  31  47  74 110 141 172 214 266 321
#     4  10  20  34  54  83 116 145 178 224 276 322
#     4  10  22  39  58  79 104 146 193 228 268 323
#     4   8  16  30  51  80 110 139 169 212 266 320
#     4   9  17  34  59  83 112 146 182 220 264 328
#     4  10  18  30  54  78 104 136 180 216 266 324
#     4  11  24  41  59  78 105 142 190 236 275 320
#
# _framework density 20.970628000000001
#
# number of rings (size 3 to 8) (size 9 to 14) (size 15 to 20)
#    0.000    2.400    0.667    1.600    0.000    6.400 
#    1.200    0.667    0.000    0.000    0.000    0.000 
#    0.000    0.000    0.000    0.000    0.000    0.000 
#
# Total GULP energy -334243.112750 kJ/mol
# GULP energy per Si atom -5570.718546 kJ/mol
# Density = 2.092290 g / cm^3
# Si number density = 20.970628 Si / 1000 Ang^3
#
#
#
# Elastic Constant Matrix: (Units=GPa)
#
#
# Indices 1 2 3 4 5 6 
#
# 1 61.6698 48.8988 15.2420 0.0000 0.0000 0.0000
# 2 48.8988 93.0299 29.6449 0.0000 0.0000 0.0000
# 3 15.2420 29.6449 17.8418 0.0000 0.0000 0.0000
# 4 0.0000 0.0000 0.0000 18.4031 0.0000 0.0000
# 5 0.0000 0.0000 0.0000 0.0000 3.8280 0.0000
# 6 0.0000 0.0000 0.0000 0.0000 0.0000 42.2378
#
#
#
# Elastic Compliance Matrix: (Units=1/GPa)
#
#
# Indices 1 2 3 4 5 6 
#
# 1 0.027814 -0.014979 0.001127 0.000000 0.000000 0.000000
# 2 -0.014979 0.030911 -0.038565 0.000000 0.000000 0.000000
# 3 0.001127 -0.038565 0.119163 0.000000 0.000000 0.000000
# 4 0.000000 0.000000 0.000000 0.054339 0.000000 0.000000
# 5 0.000000 0.000000 0.000000 0.000000 0.261234 0.000000
# 6 0.000000 0.000000 0.000000 0.000000 0.000000 0.023675
#
#
# Mechanical properties :
#
#
# Convention : Reuss Voigt Hill
#
# Bulk Modulus (GPa) = 13.68837 40.01255 26.85046
# Shear Modulus (GPa) = 7.73610 18.14417 12.94013
#
# Velocity S-wave (km/s) = 1.92276 2.94465 2.48676
# Velocity P-wave (km/s) = 3.38688 5.53922 4.59097
#
# Compressibility (1/GPa) = 0.07305474
#
# Stress axis : x y z
#
# Youngs Moduli (GPa) = 35.95365 32.35061 8.39187
#
# Poissons Ratio (x) = 0.48456 -0.00945
# Poissons Ratio (y) = 0.53853 0.32363
# Poissons Ratio (z) = -0.04051 1.24759
#
# Static dielectric constant tensor:
#      x y z
#    x 1.720870 0.000000 0.000000 
#    y 0.000000 1.803660 0.000000 
#    z 0.000000 0.000000 1.773780 
# 
# From -- ./inp_files/48727.got.cif
#   From: 2010.05.17/outbox.cif.g08.bks.cpg/sg64_25_cif.got.tgz:48727.got - 2010.06.03 16:29:19.
