data_PCOD9476190
_publ_section_title
;
Structure prediction by ZEFSAII (Michael W. Deem and Ramdas Pophale) SiO2 
 PCOD9476190
Probable space group: C M C M
;
_chemical_formula_sum "Si O2"
_cell_formula_units_Z 36
_cell_length_a 15.000000
_cell_length_b 27.000000
_cell_length_c 9.000000
_cell_angle_alpha 90.000000
_cell_angle_beta 90.000000
_cell_angle_gamma 90.000000
_cell_volume 3645.000000
_symmetry_space_group_name_H-M "C M C M"
_symmetry_group_IT_number 63
_symmetry_cell_setting 'orthorhombic'
loop_
_space_group_symop_operation_xyz
x,y,z
-x,-y,1/2+z
x,-y,-z
-x,y,1/2-z
-x,-y,-z
x,y,1/2-z
-x,y,z
x,-y,1/2+z
1/2+x,1/2+y,z
1/2-x,1/2-y,1/2+z
1/2+x,1/2-y,-z
1/2-x,1/2+y,1/2-z
1/2-x,1/2-y,-z
1/2+x,1/2+y,1/2-z
1/2-x,1/2+y,z
1/2+x,1/2-y,1/2+z
loop_
_atom_site_type_symbol
_atom_site_label
_atom_site_fract_x
_atom_site_fract_y
_atom_site_fract_z
Si Si1 0.827878 0.401206 0.926350
Si Si2 0.000000 0.246458 0.429443
Si Si3 0.500000 0.368365 0.930315
Si Si4 0.500000 0.054132 0.926061
Si Si5 0.321482 0.786192 0.927138
Si Si6 0.857087 0.051510 0.428191
O O1 0.847472 0.406309 0.750000
O O2 0.800975 0.344131 0.951302
O O3 0.745158 0.436415 0.963747
O O4 0.913466 0.416449 0.018824
O O5 0.085611 0.273163 0.496180
O O6 0.000000 0.248438 0.250000
O O7 0.000000 0.188556 0.477762
O O8 0.500000 0.366502 0.750000
O O9 0.584426 0.401353 0.976451
O O10 0.500000 0.048923 0.750000
O O11 0.500000 0.000000 0.000000
O O12 0.325579 0.778191 0.750000
O O13 0.250000 0.750000 0.000000
O O14 0.865863 0.047576 0.250000
O O15 0.885749 0.000000 0.500000
#
# Coordination Sequence:
#
# PCOD9476190 Si02
#       6
#    16   8   8   8  16  16
#     4  10  22  40  60  83 116 156 195 237 291 351
#     4  11  22  39  62  87 117 156 199 244 295 353
#     4   9  19  37  59  82 114 154 189 222 278 348
#     4  12  25  40  61  87 116 152 195 244 298 355
#     4  11  23  40  62  89 121 158 199 246 299 357
#     4  10  20  36  58  83 111 147 188 230 278 335
#
# _framework density 9.8765429999999999
#
# number of rings (size 3 to 8) (size 9 to 14) (size 15 to 20)
#    0.000    1.556    0.000    5.000    0.000   10.667 
#    0.000    4.444    0.000    0.000    0.000    0.000 
#    0.000    0.000    0.000    0.000    0.000    0.000 
#
# Total GULP energy -201231.483373 kJ/mol
# GULP energy per Si atom -5589.763427 kJ/mol
# Density = 0.985406 g / cm^3
# Si number density = 9.876543 Si / 1000 Ang^3
#
#
#
# Elastic Constant Matrix: (Units=GPa)
#
#
# Indices 1 2 3 4 5 6 
#
# 1 83.2856 3.2012 33.7775 0.0000 0.0000 0.0000
# 2 3.2012 82.2298 32.1566 0.0000 0.0000 0.0000
# 3 33.7775 32.1566 54.1271 0.0000 0.0000 0.0000
# 4 0.0000 0.0000 0.0000 37.1907 0.0000 0.0000
# 5 0.0000 0.0000 0.0000 0.0000 22.1545 0.0000
# 6 0.0000 0.0000 0.0000 0.0000 0.0000 33.3926
#
#
#
# Elastic Compliance Matrix: (Units=1/GPa)
#
#
# Indices 1 2 3 4 5 6 
#
# 1 0.017331 0.004630 -0.013566 0.000000 0.000000 0.000000
# 2 0.004630 0.017079 -0.013036 0.000000 0.000000 0.000000
# 3 -0.013566 -0.013036 0.034685 0.000000 0.000000 0.000000
# 4 0.000000 0.000000 0.000000 0.026888 0.000000 0.000000
# 5 0.000000 0.000000 0.000000 0.000000 0.045138 0.000000
# 6 0.000000 0.000000 0.000000 0.000000 0.000000 0.029947
#
#
# Mechanical properties :
#
#
# Convention : Reuss Voigt Hill
#
# Bulk Modulus (GPa) = 39.75869 39.76814 39.76342
# Shear Modulus (GPa) = 22.38196 28.58135 25.48165
#
# Velocity S-wave (km/s) = 3.36979 3.80798 3.59557
# Velocity P-wave (km/s) = 5.94240 6.28575 6.11648
#
# Compressibility (1/GPa) = 0.02515173
#
# Stress axis : x y z
#
# Youngs Moduli (GPa) = 57.70087 58.55304 28.83068
#
# Poissons Ratio (x) = -0.27112 0.39112
# Poissons Ratio (y) = -0.26718 0.37583
# Poissons Ratio (z) = 0.78277 0.76329
#
# Static dielectric constant tensor:
#      x y z
#    x 1.670340 0.000000 0.000000 
#    y 0.000000 1.654000 0.000000 
#    z 0.000000 0.000000 1.653430 
# 
# From -- ./inp_files/4720.got.cif
#   From: 2010.05.17/outbox.ucp.g08.bks.cvg/sg63_3_cif.got.tgz:4720.got - 2010.06.11 16:32:19.
