data_PCOD9476778
_publ_section_title
;
Structure prediction by ZEFSAII (Michael W. Deem and Ramdas Pophale) SiO2 
 PCOD9476778
Probable space group: C M C A
;
_chemical_formula_sum "Si O2"
_cell_formula_units_Z 80
_cell_length_a 26.227633
_cell_length_b 7.699479
_cell_length_c 16.840569
_cell_angle_alpha 90.000000
_cell_angle_beta 90.000000
_cell_angle_gamma 90.000000
_cell_volume 3400.769507
_symmetry_space_group_name_H-M "C M C A"
_symmetry_group_IT_number 64
_symmetry_cell_setting 'orthorhombic'
loop_
_space_group_symop_operation_xyz
x,y,z
-x,1/2-y,1/2+z
x,-y,-z
-x,1/2+y,1/2-z
-x,-y,-z
x,1/2+y,1/2-z
-x,y,z
x,1/2-y,1/2+z
1/2+x,1/2+y,z
1/2-x,-y,1/2+z
1/2+x,1/2-y,-z
1/2-x,y,1/2-z
1/2-x,1/2-y,-z
1/2+x,y,1/2-z
1/2-x,1/2+y,z
1/2+x,-y,1/2+z
loop_
_atom_site_type_symbol
_atom_site_label
_atom_site_fract_x
_atom_site_fract_y
_atom_site_fract_z
Si Si1 0.301328 0.183485 0.460832
Si Si2 0.000000 0.348315 0.391627
Si Si3 0.850054 0.453222 0.676051
Si Si4 0.891952 0.763855 0.565360
Si Si5 0.604416 0.913655 0.176282
Si Si6 0.500000 0.545967 0.254604
O O1 0.250000 0.250000 0.500000
O O2 0.301989 0.138987 0.367357
O O3 0.352409 0.276643 0.492356
O O4 0.308579 0.000000 0.500000
O O5 0.050738 0.311268 0.443245
O O6 0.000000 0.207450 0.317796
O O7 0.000000 0.530455 0.342314
O O8 0.867469 0.624444 0.627712
O O9 0.850176 0.515370 0.766342
O O10 0.889373 0.292186 0.668365
O O11 0.896697 0.953127 0.603863
O O12 0.551795 0.947737 0.221568
#
# Coordination Sequence:
#
# PCOD9476778 Si02
#       6
#    16   8  16  16  16   8
#     4  10  25  46  68  89 119 169 214 257 318 374
#     4  10  18  32  59  88 133 162 198 250 302 371
#     4  11  21  38  64  90 123 161 208 257 305 371
#     4  10  22  39  60  95 127 161 210 252 305 376
#     4  11  20  35  63  91 129 163 204 255 302 362
#     4  10  18  30  54  91 123 173 198 229 313 377
#
# _framework density 23.524086
#
# number of rings (size 3 to 8) (size 9 to 14) (size 15 to 20)
#    0.000    1.600    4.000    1.200    2.800    0.000 
#    0.000    7.500    0.000    3.600    0.000    0.000 
#    0.000    0.000    0.000    0.000    0.000    0.000 
#
# Total GULP energy -222773.302318 kJ/mol
# GULP energy per Si atom -5569.332558 kJ/mol
# Density = 2.347054 g / cm^3
# Si number density = 23.524086 Si / 1000 Ang^3
#
#
#
# Elastic Constant Matrix: (Units=GPa)
#
#
# Indices 1 2 3 4 5 6 
#
# 1 88.7128 -1.3890 23.9543 0.0000 0.0000 0.0000
# 2 -1.3890 102.1618 -4.5046 0.0000 0.0000 0.0000
# 3 23.9543 -4.5046 27.5307 0.0000 0.0000 0.0000
# 4 0.0000 0.0000 0.0000 30.9186 0.0000 0.0000
# 5 0.0000 0.0000 0.0000 0.0000 19.0395 0.0000
# 6 0.0000 0.0000 0.0000 0.0000 0.0000 21.9836
#
#
#
# Elastic Compliance Matrix: (Units=1/GPa)
#
#
# Indices 1 2 3 4 5 6 
#
# 1 0.014748 -0.000368 -0.012892 0.000000 0.000000 0.000000
# 2 -0.000368 0.009869 0.001935 0.000000 0.000000 0.000000
# 3 -0.012892 0.001935 0.047857 0.000000 0.000000 0.000000
# 4 0.000000 0.000000 0.000000 0.032343 0.000000 0.000000
# 5 0.000000 0.000000 0.000000 0.000000 0.052522 0.000000
# 6 0.000000 0.000000 0.000000 0.000000 0.000000 0.045488
#
#
# Mechanical properties :
#
#
# Convention : Reuss Voigt Hill
#
# Bulk Modulus (GPa) = 20.07100 28.28074 24.17587
# Shear Modulus (GPa) = 20.65388 27.74464 24.19926
#
# Velocity S-wave (km/s) = 2.96630 3.43799 3.21082
# Velocity P-wave (km/s) = 4.50362 5.27331 4.90359
#
# Compressibility (1/GPa) = 0.04982312
#
# Stress axis : x y z
#
# Youngs Moduli (GPa) = 67.80725 101.33041 20.89558
#
# Poissons Ratio (x) = 0.03728 0.26939
# Poissons Ratio (y) = 0.02495 -0.04043
# Poissons Ratio (z) = 0.87418 -0.19606
#
# Static dielectric constant tensor:
#      x y z
#    x 1.800970 0.000000 0.000000 
#    y 0.000000 1.908280 0.000000 
#    z 0.000000 0.000000 2.100290 
# 
# From -- ./inp_files/35403.got.cif
#   From: 2010.05.17/outbox.cif.g08.bks.cpg/sg64_18_cif.got.tgz:35403.got - 2010.06.03 16:29:19.
