data_PCOD9476588
_publ_section_title
;
Structure prediction by ZEFSAII (Michael W. Deem and Ramdas Pophale) SiO2 
 PCOD9476588
Probable space group: C M C A
;
_chemical_formula_sum "Si O2"
_cell_formula_units_Z 112
_cell_length_a 19.544713
_cell_length_b 14.636318
_cell_length_c 19.753814
_cell_angle_alpha 90.000000
_cell_angle_beta 90.000000
_cell_angle_gamma 90.000000
_cell_volume 5650.828078
_symmetry_space_group_name_H-M "C M C A"
_symmetry_group_IT_number 64
_symmetry_cell_setting 'orthorhombic'
loop_
_space_group_symop_operation_xyz
x,y,z
-x,1/2-y,1/2+z
x,-y,-z
-x,1/2+y,1/2-z
-x,-y,-z
x,1/2+y,1/2-z
-x,y,z
x,1/2-y,1/2+z
1/2+x,1/2+y,z
1/2-x,-y,1/2+z
1/2+x,1/2-y,-z
1/2-x,y,1/2-z
1/2-x,1/2-y,-z
1/2+x,y,1/2-z
1/2-x,1/2+y,z
1/2+x,-y,1/2+z
loop_
_atom_site_type_symbol
_atom_site_label
_atom_site_fract_x
_atom_site_fract_y
_atom_site_fract_z
Si Si1 0.186398 0.198314 0.534949
Si Si2 0.075505 0.463414 0.171958
Si Si3 0.321621 0.562720 0.785114
Si Si4 0.649239 0.608636 0.403616
Si Si5 0.671464 0.281282 0.731335
Si Si6 0.727098 0.978203 0.425240
Si Si7 0.919521 0.246328 0.142233
O O1 0.250000 0.250000 0.500000
O O2 0.139909 0.159669 0.474141
O O3 0.223737 0.112398 0.572364
O O4 0.137449 0.259188 0.582392
O O5 0.123315 0.480376 0.235880
O O6 0.098680 0.525021 0.109506
O O7 0.078505 0.356331 0.154432
O O8 0.000000 0.488764 0.191572
O O9 0.250000 0.537809 0.750000
O O10 0.327242 0.672184 0.780813
O O11 0.323560 0.534186 0.862995
O O12 0.648616 0.672621 0.338333
O O13 0.723715 0.562596 0.408652
O O14 0.750000 0.307785 0.750000
O O15 0.617564 0.297166 0.792107
O O16 0.698886 0.000000 0.500000
O O17 0.000000 0.218732 0.131938
#
# Coordination Sequence:
#
# PCOD9476588 Si02
#       7
#    16  16  16  16  16  16  16
#     4  11  21  38  59  89 122 159 201 243 303 369
#     4  10  21  35  56  85 117 152 198 249 304 357
#     4  10  17  35  57  77 112 154 193 237 299 360
#     4  11  21  33  57  86 120 151 197 252 303 349
#     4  10  21  34  58  85 112 153 200 247 295 359
#     4  10  20  33  54  87 118 147 191 251 297 349
#     4  10  21  40  60  84 122 165 197 240 308 369
#
# _framework density 19.820104000000001
#
# number of rings (size 3 to 8) (size 9 to 14) (size 15 to 20)
#    0.000    1.714    2.857    3.429    2.000    1.143 
#    0.000    1.429    0.000    3.000    0.000    0.000 
#    0.000    0.000    0.000    0.000    0.000    0.000 
#
# Total GULP energy -312550.746696 kJ/mol
# GULP energy per Si atom -5581.263334 kJ/mol
# Density = 1.977499 g / cm^3
# Si number density = 19.820104 Si / 1000 Ang^3
#
#
#
# Elastic Constant Matrix: (Units=GPa)
#
#
# Indices 1 2 3 4 5 6 
#
# 1 99.6822 1.6436 36.4349 0.0000 0.0000 0.0000
# 2 1.6436 30.4642 7.2478 0.0000 0.0000 0.0000
# 3 36.4349 7.2478 101.1793 0.0000 0.0000 0.0000
# 4 0.0000 0.0000 0.0000 47.4075 0.0000 0.0000
# 5 0.0000 0.0000 0.0000 0.0000 21.1475 0.0000
# 6 0.0000 0.0000 0.0000 0.0000 0.0000 12.2363
#
#
#
# Elastic Compliance Matrix: (Units=1/GPa)
#
#
# Indices 1 2 3 4 5 6 
#
# 1 0.011557 0.000373 -0.004188 0.000000 0.000000 0.000000
# 2 0.000373 0.033407 -0.002527 0.000000 0.000000 0.000000
# 3 -0.004188 -0.002527 0.011573 0.000000 0.000000 0.000000
# 4 0.000000 0.000000 0.000000 0.021094 0.000000 0.000000
# 5 0.000000 0.000000 0.000000 0.000000 0.047287 0.000000
# 6 0.000000 0.000000 0.000000 0.000000 0.000000 0.081724
#
#
# Mechanical properties :
#
#
# Convention : Reuss Voigt Hill
#
# Bulk Modulus (GPa) = 22.80474 35.77536 29.29005
# Shear Modulus (GPa) = 21.37275 28.55822 24.96549
#
# Velocity S-wave (km/s) = 3.28737 3.80000 3.55294
# Velocity P-wave (km/s) = 5.09312 6.11085 5.62505
#
# Compressibility (1/GPa) = 0.04385053
#
# Stress axis : x y z
#
# Youngs Moduli (GPa) = 86.53073 29.93427 86.41029
#
# Poissons Ratio (x) = -0.01116 0.36191
# Poissons Ratio (y) = -0.03227 0.21839
# Poissons Ratio (z) = 0.36241 0.07565
#
# Static dielectric constant tensor:
#      x y z
#    x 1.707420 0.000000 0.000000 
#    y 0.000000 1.745430 0.000000 
#    z 0.000000 0.000000 1.696790 
# 
# From -- ./inp_files/34493.got.cif
#   From: 2010.05.17/outbox.cif.g08.bks.cpg/sg64_18_cif.got.tgz:34493.got - 2010.06.03 16:29:19.
