data_PCOD9476945
_publ_section_title
;
Structure prediction by ZEFSAII (Michael W. Deem and Ramdas Pophale) SiO2 
 PCOD9476945
Probable space group: C M C A
;
_chemical_formula_sum "Si O2"
_cell_formula_units_Z 68
_cell_length_a 18.824714
_cell_length_b 23.827748
_cell_length_c 5.544414
_cell_angle_alpha 90.000000
_cell_angle_beta 90.000000
_cell_angle_gamma 90.000000
_cell_volume 2486.949901
_symmetry_space_group_name_H-M "C M C A"
_symmetry_group_IT_number 64
_symmetry_cell_setting 'orthorhombic'
loop_
_space_group_symop_operation_xyz
x,y,z
-x,1/2-y,1/2+z
x,-y,-z
-x,1/2+y,1/2-z
-x,-y,-z
x,1/2+y,1/2-z
-x,y,z
x,1/2-y,1/2+z
1/2+x,1/2+y,z
1/2-x,-y,1/2+z
1/2+x,1/2-y,-z
1/2-x,y,1/2-z
1/2-x,1/2-y,-z
1/2+x,y,1/2-z
1/2-x,1/2+y,z
1/2+x,-y,1/2+z
loop_
_atom_site_type_symbol
_atom_site_label
_atom_site_fract_x
_atom_site_fract_y
_atom_site_fract_z
Si Si1 0.170427 0.771655 0.444120
Si Si2 0.349891 0.898472 0.223226
Si Si3 0.121650 0.930798 0.771252
Si Si4 0.000000 0.336066 0.760061
Si Si5 0.500000 0.500000 0.000000
Si Si6 0.500000 0.652635 0.761773
O O1 0.138044 0.738088 0.213490
O O2 0.250000 0.750000 0.500000
O O3 0.173849 0.835522 0.350764
O O4 0.338575 0.934439 0.983594
O O5 0.434325 0.889665 0.261598
O O6 0.329805 0.920431 0.489470
O O7 0.063839 0.978704 0.816193
O O8 0.070108 0.876032 0.743563
O O9 0.000000 0.311149 0.023557
O O10 0.000000 0.310487 0.497929
#
# Coordination Sequence:
#
# PCOD9476945 Si02
#       6
#    16  16  16   8   4   8
#     4  10  21  37  57  79 106 138 188 249 293 340
#     4  10  18  33  50  75 109 148 186 226 285 334
#     4   9  18  28  48  73 109 149 184 223 265 328
#     4   7  12  23  36  59  86 127 168 195 232 289
#     4  10  20  34  52  84 120 162 200 224 264 332
#     4   8  14  24  42  61  90 129 166 196 244 318
#
# _framework density 27.342732000000002
#
# number of rings (size 3 to 8) (size 9 to 14) (size 15 to 20)
#    0.000    2.824    0.000    2.824    0.000    1.882 
#    0.000    1.176    0.000    0.000    0.000    0.000 
#    0.000   75.294    0.000    0.000    0.000    0.000 
#
# Total GULP energy -189312.025856 kJ/mol
# GULP energy per Si atom -5568.000760 kJ/mol
# Density = 2.728050 g / cm^3
# Si number density = 27.342732 Si / 1000 Ang^3
#
#
#
# Elastic Constant Matrix: (Units=GPa)
#
#
# Indices 1 2 3 4 5 6 
#
# 1 93.5859 16.1012 18.0569 0.0000 0.0000 0.0000
# 2 16.1012 92.2542 6.4984 0.0000 0.0000 0.0000
# 3 18.0569 6.4984 316.8230 0.0000 0.0000 0.0000
# 4 0.0000 0.0000 0.0000 28.3836 0.0000 0.0000
# 5 0.0000 0.0000 0.0000 0.0000 5.8458 0.0000
# 6 0.0000 0.0000 0.0000 0.0000 0.0000 -33.5041
#
#
#
# Elastic Compliance Matrix: (Units=1/GPa)
#
#
# Indices 1 2 3 4 5 6 
#
# 1 0.011127 -0.001900 -0.000595 0.000000 0.000000 0.000000
# 2 -0.001900 0.011180 -0.000121 0.000000 0.000000 0.000000
# 3 -0.000595 -0.000121 0.003193 0.000000 0.000000 0.000000
# 4 0.000000 0.000000 0.000000 0.035232 0.000000 0.000000
# 5 0.000000 0.000000 0.000000 0.000000 0.171064 0.000000
# 6 0.000000 0.000000 0.000000 0.000000 0.000000 -0.029847
#
#
# Mechanical properties :
#
#
# Convention : Reuss Voigt Hill
#
# Bulk Modulus (GPa) = 49.34134 64.88625 57.11379
# Shear Modulus (GPa) = 23.37140 30.94550 27.15845
#
# Velocity S-wave (km/s) = 2.92679 3.36782 3.15502
# Velocity P-wave (km/s) = 5.43196 6.23740 5.84856
#
# Compressibility (1/GPa) = 0.02026698
#
# Stress axis : x y z
#
# Youngs Moduli (GPa) = 89.87056 89.44734 313.21048
#
# Poissons Ratio (x) = 0.16996 0.18642
# Poissons Ratio (y) = 0.17076 0.03790
# Poissons Ratio (z) = 0.05349 0.01082
#
# Static dielectric constant tensor:
#      x y z
#    x 2.166930 0.000000 0.000000 
#    y 0.000000 2.174250 0.000000 
#    z 0.000000 0.000000 2.333630 
# 
# From -- ./inp_files/1864.got.cif
#   From: 2010.05.17/outbox.cif.g08.bks.cpg/sg64_1_cif.got.tgz:1864.got - 2010.06.03 16:29:19.
