data_PCOD9476009
_publ_section_title
;
Structure prediction by ZEFSAII (Michael W. Deem and Ramdas Pophale) SiO2 
 PCOD9476009
Probable space group: C M C M
;
_chemical_formula_sum "Si O2"
_cell_formula_units_Z 80
_cell_length_a 26.921334
_cell_length_b 20.143353
_cell_length_c 7.657603
_cell_angle_alpha 90.000000
_cell_angle_beta 90.000000
_cell_angle_gamma 90.000000
_cell_volume 4152.610395
_symmetry_space_group_name_H-M "C M C M"
_symmetry_group_IT_number 63
_symmetry_cell_setting 'orthorhombic'
loop_
_space_group_symop_operation_xyz
x,y,z
-x,-y,1/2+z
x,-y,-z
-x,y,1/2-z
-x,-y,-z
x,y,1/2-z
-x,y,z
x,-y,1/2+z
1/2+x,1/2+y,z
1/2-x,1/2-y,1/2+z
1/2+x,1/2-y,-z
1/2-x,1/2+y,1/2-z
1/2-x,1/2-y,-z
1/2+x,1/2+y,1/2-z
1/2-x,1/2+y,z
1/2+x,1/2-y,1/2+z
loop_
_atom_site_type_symbol
_atom_site_label
_atom_site_fract_x
_atom_site_fract_y
_atom_site_fract_z
Si Si1 0.138396 0.322928 0.455670
Si Si2 0.247337 0.328433 0.542834
Si Si3 0.144357 0.829156 0.964721
Si Si4 0.055741 0.076925 0.459798
Si Si5 0.443712 0.076031 0.960260
O O1 0.128527 0.316338 0.250000
O O2 0.194197 0.351510 0.473277
O O3 0.137849 0.247282 0.524653
O O4 0.096616 0.371778 0.528942
O O5 0.245483 0.336743 0.750000
O O6 0.250000 0.250000 0.500000
O O7 0.300868 0.354570 0.480056
O O8 0.144836 0.828599 0.750000
O O9 0.099184 0.875035 0.024071
O O10 0.054483 0.083847 0.250000
O O11 0.000000 0.092352 0.525749
O O12 0.066083 0.000000 0.500000
O O13 0.445036 0.081891 0.750000
O O14 0.500000 0.087711 0.025205
O O15 0.430182 0.000000 0.000000
#
# Coordination Sequence:
#
# PCOD9476009 Si02
#       5
#    16  16  16  16  16
#     4   9  17  30  48  70  93 117 152 193 229 269
#     4   9  16  28  46  67  93 122 151 185 228 274
#     4   8  15  28  46  67  89 114 146 183 220 262
#     4   9  17  30  47  65  87 116 147 180 221 266
#     4   9  18  32  49  68  92 122 153 188 232 280
#
# _framework density 19.264991999999999
#
# number of rings (size 3 to 8) (size 9 to 14) (size 15 to 20)
#    0.000    3.200    0.000    1.800    0.000    1.600 
#    0.000   10.000    0.000    4.800    0.000    5.600 
#    0.000    0.000    0.000    0.000    0.000    0.000 
#
# Total GULP energy -222760.480852 kJ/mol
# GULP energy per Si atom -5569.012021 kJ/mol
# Density = 1.922114 g / cm^3
# Si number density = 19.264992 Si / 1000 Ang^3
#
#
#
# Elastic Constant Matrix: (Units=GPa)
#
#
# Indices 1 2 3 4 5 6 
#
# 1 184.3533 104.2879 -3.1996 0.0000 0.0000 0.0000
# 2 104.2879 81.8853 -0.1563 0.0000 0.0000 0.0000
# 3 -3.1996 -0.1563 31.2642 0.0000 0.0000 0.0000
# 4 0.0000 0.0000 0.0000 17.5795 0.0000 0.0000
# 5 0.0000 0.0000 0.0000 0.0000 17.1129 0.0000
# 6 0.0000 0.0000 0.0000 0.0000 0.0000 -45.2476
#
#
#
# Elastic Compliance Matrix: (Units=1/GPa)
#
#
# Indices 1 2 3 4 5 6 
#
# 1 0.019514 -0.024849 0.001873 0.000000 0.000000 0.000000
# 2 -0.024849 0.043855 -0.002324 0.000000 0.000000 0.000000
# 3 0.001873 -0.002324 0.032166 0.000000 0.000000 0.000000
# 4 0.000000 0.000000 0.000000 0.056884 0.000000 0.000000
# 5 0.000000 0.000000 0.000000 0.000000 0.058435 0.000000
# 6 0.000000 0.000000 0.000000 0.000000 0.000000 -0.022101
#
#
# Mechanical properties :
#
#
# Convention : Reuss Voigt Hill
#
# Bulk Modulus (GPa) = 22.25460 55.48520 38.86990
# Shear Modulus (GPa) = 19.65942 10.99369 15.32656
#
# Velocity S-wave (km/s) = 3.19795 2.39143 2.82364
# Velocity P-wave (km/s) = 5.02123 6.04060 5.55435
#
# Compressibility (1/GPa) = 0.04493453
#
# Stress axis : x y z
#
# Youngs Moduli (GPa) = 51.24596 22.80251 31.08921
#
# Poissons Ratio (x) = 0.56662 -0.05822
# Poissons Ratio (y) = 1.27340 0.07224
# Poissons Ratio (z) = -0.09597 0.05299
#
# Static dielectric constant tensor:
#      x y z
#    x 1.713310 0.000000 0.000000 
#    y 0.000000 1.633820 0.000000 
#    z 0.000000 0.000000 1.726700 
# 
# From -- ./inp_files/11972.got.cif
#   From: 2010.05.17/outbox.cif.g08.bks.cpg/sg63_6_cif.got.tgz:11972.got - 2010.06.03 15:47:04.
