data_PCOD9476139
_publ_section_title
;
Structure prediction by ZEFSAII (Michael W. Deem and Ramdas Pophale) SiO2 
 PCOD9476139
Probable space group: C M C M
;
_chemical_formula_sum "Si O2"
_cell_formula_units_Z 56
_cell_length_a 27.000000
_cell_length_b 15.000000
_cell_length_c 15.000000
_cell_angle_alpha 90.000000
_cell_angle_beta 90.000000
_cell_angle_gamma 90.000000
_cell_volume 6075.000000
_symmetry_space_group_name_H-M "C M C M"
_symmetry_group_IT_number 63
_symmetry_cell_setting 'orthorhombic'
loop_
_space_group_symop_operation_xyz
x,y,z
-x,-y,1/2+z
x,-y,-z
-x,y,1/2-z
-x,-y,-z
x,y,1/2-z
-x,y,z
x,-y,1/2+z
1/2+x,1/2+y,z
1/2-x,1/2-y,1/2+z
1/2+x,1/2-y,-z
1/2-x,1/2+y,1/2-z
1/2-x,1/2-y,-z
1/2+x,1/2+y,1/2-z
1/2-x,1/2+y,z
1/2+x,1/2-y,1/2+z
loop_
_atom_site_type_symbol
_atom_site_label
_atom_site_fract_x
_atom_site_fract_y
_atom_site_fract_z
Si Si1 0.949110 0.354017 0.011966
Si Si2 0.822384 0.159584 0.656345
Si Si3 0.219422 0.229678 0.348880
Si Si4 0.278478 0.518427 0.103560
Si Si5 0.176363 0.560529 0.149148
Si Si6 0.567065 0.011573 0.146559
Si Si7 0.846552 0.281574 0.989085
O O1 0.950392 0.428896 0.088406
O O2 0.000000 0.301546 0.014453
O O3 0.945329 0.403335 0.915526
O O4 0.900096 0.300471 0.026418
O O5 0.847592 0.181904 0.750000
O O6 0.771804 0.218334 0.652387
O O7 0.850278 0.193244 0.570203
O O8 0.810854 0.055161 0.652597
O O9 0.197803 0.242105 0.250000
O O10 0.219435 0.122530 0.368312
O O11 0.190996 0.271011 0.431245
O O12 0.221466 0.497386 0.125371
O O13 0.287053 0.500000 0.000000
O O14 0.183279 0.596709 0.250000
O O15 0.126158 0.506381 0.147373
O O16 0.170037 0.638061 0.076336
O O17 0.551851 0.016983 0.250000
#
# Coordination Sequence:
#
# PCOD9476139 Si02
#       7
#    16  16  16  16  16  16  16
#     4  10  22  36  53  76 105 140 183 235 280 325
#     4  11  22  35  55  80 109 147 184 220 267 322
#     4  11  23  38  53  79 114 145 185 228 264 319
#     4  12  22  34  54  78 115 152 186 218 263 320
#     4  10  20  32  50  79 113 149 183 222 261 311
#     4   9  19  33  53  78 108 144 184 224 268 321
#     4  11  21  37  53  74 107 145 184 222 273 322
#
# _framework density 9.2181069999999998
#
# number of rings (size 3 to 8) (size 9 to 14) (size 15 to 20)
#    0.000    1.429    2.857    3.857    6.000    2.286 
#    0.000    0.000    0.000    0.000    0.000    2.000 
#    0.000    2.286    0.000    0.000    0.000    0.000 
#
# Total GULP energy -311991.919076 kJ/mol
# GULP energy per Si atom -5571.284269 kJ/mol
# Density = 0.919713 g / cm^3
# Si number density = 9.218107 Si / 1000 Ang^3
#
#
#
# Elastic Constant Matrix: (Units=GPa)
#
#
# Indices 1 2 3 4 5 6 
#
# 1 37.5598 6.8013 8.1701 0.0000 0.0000 0.0000
# 2 6.8013 50.2444 8.8998 0.0000 0.0000 0.0000
# 3 8.1701 8.8998 120.6060 0.0000 0.0000 0.0000
# 4 0.0000 0.0000 0.0000 -3.4834 0.0000 0.0000
# 5 0.0000 0.0000 0.0000 0.0000 19.2407 0.0000
# 6 0.0000 0.0000 0.0000 0.0000 0.0000 3841.1028
#
#
#
# Elastic Compliance Matrix: (Units=1/GPa)
#
#
# Indices 1 2 3 4 5 6 
#
# 1 0.027600 -0.003450 -0.001615 0.000000 0.000000 0.000000
# 2 -0.003450 0.020598 -0.001286 0.000000 0.000000 0.000000
# 3 -0.001615 -0.001286 0.008496 0.000000 0.000000 0.000000
# 4 0.000000 0.000000 0.000000 -0.287079 0.000000 0.000000
# 5 0.000000 0.000000 0.000000 0.000000 0.051973 0.000000
# 6 0.000000 0.000000 0.000000 0.000000 0.000000 0.000260
#
#
# Mechanical properties :
#
#
# Convention : Reuss Voigt Hill
#
# Bulk Modulus (GPa) = 22.73197 28.46139 25.59668
# Shear Modulus (GPa) = -33.15966 783.67463 375.25748
#
# Velocity S-wave (km/s) = -4.24561 20.63968 14.28235
# Velocity P-wave (km/s) = 3.41713 24.15505 16.90842
#
# Compressibility (1/GPa) = 0.04399090
#
# Stress axis : x y z
#
# Youngs Moduli (GPa) = 36.23156 48.54945 117.70538
#
# Poissons Ratio (x) = 0.16750 0.19011
# Poissons Ratio (y) = 0.12500 0.15140
# Poissons Ratio (z) = 0.05852 0.06245
#
# Static dielectric constant tensor:
#      x y z
#    x 1.678560 0.000000 0.000000 
#    y 0.000000 1.649720 0.000000 
#    z 0.000000 0.000000 1.676380 
# 
# From -- ./inp_files/37977.got.cif
#   From: 2010.05.17/outbox.ucp.g08.bks.cvg/sg63_19_cif.got.tgz:37977.got - 2010.06.11 16:32:19.
