data_PCOD9476731
_publ_section_title
;
Structure prediction by ZEFSAII (Michael W. Deem and Ramdas Pophale) SiO2 
 PCOD9476731
Probable space group: C M C A
;
_chemical_formula_sum "Si O2"
_cell_formula_units_Z 80
_cell_length_a 27.386582
_cell_length_b 17.817851
_cell_length_c 8.196684
_cell_angle_alpha 90.000000
_cell_angle_beta 90.000000
_cell_angle_gamma 90.000000
_cell_volume 3999.736199
_symmetry_space_group_name_H-M "C M C A"
_symmetry_group_IT_number 64
_symmetry_cell_setting 'orthorhombic'
loop_
_space_group_symop_operation_xyz
x,y,z
-x,1/2-y,1/2+z
x,-y,-z
-x,1/2+y,1/2-z
-x,-y,-z
x,1/2+y,1/2-z
-x,y,z
x,1/2-y,1/2+z
1/2+x,1/2+y,z
1/2-x,-y,1/2+z
1/2+x,1/2-y,-z
1/2-x,y,1/2-z
1/2-x,1/2-y,-z
1/2+x,y,1/2-z
1/2-x,1/2+y,z
1/2+x,-y,1/2+z
loop_
_atom_site_type_symbol
_atom_site_label
_atom_site_fract_x
_atom_site_fract_y
_atom_site_fract_z
Si Si1 0.555214 0.791789 0.530613
Si Si2 0.849466 0.121013 0.110096
Si Si3 0.719327 0.500000 0.500000
Si Si4 0.750000 0.380518 0.750000
Si Si5 0.354068 0.048575 0.736913
Si Si6 0.054056 0.636174 0.830271
O O1 0.500000 0.806972 0.597142
O O2 0.600934 0.830801 0.619537
O O3 0.555049 0.822152 0.346075
O O4 0.562168 0.702460 0.540577
O O5 0.802814 0.156224 0.208690
O O6 0.858848 0.037832 0.181518
O O7 0.841963 0.102407 0.916766
O O8 0.747857 0.437587 0.598329
O O9 0.687685 0.453920 0.370824
O O10 0.403494 0.076250 0.820726
O O11 0.000000 0.603787 0.852731
#
# Coordination Sequence:
#
# PCOD9476731 Si02
#       6
#    16  16   8   8  16  16
#     4   9  18  32  51  73  98 131 166 202 245 292
#     4   9  18  32  50  72 100 131 165 202 242 292
#     4  10  18  30  49  72  97 126 160 202 244 290
#     4  10  18  30  50  72  98 130 166 200 244 290
#     4   9  18  31  49  74 100 129 161 202 246 288
#     4   9  18  33  52  73  99 131 165 201 244 293
#
# _framework density 20.001318999999999
#
# number of rings (size 3 to 8) (size 9 to 14) (size 15 to 20)
#    0.000    2.800    0.000    2.400    0.000    4.000 
#    0.000    4.500    0.000   15.600    0.000    0.000 
#    0.000    0.000    0.000    0.000    0.000    0.000 
#
# Total GULP energy -222805.621339 kJ/mol
# GULP energy per Si atom -5570.140533 kJ/mol
# Density = 1.995579 g / cm^3
# Si number density = 20.001319 Si / 1000 Ang^3
#
#
#
# Elastic Constant Matrix: (Units=GPa)
#
#
# Indices 1 2 3 4 5 6 
#
# 1 102.0131 26.4594 14.6310 0.0000 0.0000 0.0000
# 2 26.4594 14.0828 4.3859 0.0000 0.0000 0.0000
# 3 14.6310 4.3859 25.5107 0.0000 0.0000 0.0000
# 4 0.0000 0.0000 0.0000 13.6163 0.0000 0.0000
# 5 0.0000 0.0000 0.0000 0.0000 26.2111 0.0000
# 6 0.0000 0.0000 0.0000 0.0000 0.0000 7.1849
#
#
#
# Elastic Compliance Matrix: (Units=1/GPa)
#
#
# Indices 1 2 3 4 5 6 
#
# 1 0.019760 -0.035497 -0.005230 0.000000 0.000000 0.000000
# 2 -0.035497 0.138792 -0.003504 0.000000 0.000000 0.000000
# 3 -0.005230 -0.003504 0.042801 0.000000 0.000000 0.000000
# 4 0.000000 0.000000 0.000000 0.073441 0.000000 0.000000
# 5 0.000000 0.000000 0.000000 0.000000 0.038152 0.000000
# 6 0.000000 0.000000 0.000000 0.000000 0.000000 0.139181
#
#
# Mechanical properties :
#
#
# Convention : Reuss Voigt Hill
#
# Bulk Modulus (GPa) = 8.85794 25.83991 17.34892
# Shear Modulus (GPa) = 8.64725 15.81114 12.22919
#
# Velocity S-wave (km/s) = 2.08152 2.81464 2.47537
# Velocity P-wave (km/s) = 3.19613 4.84872 4.10642
#
# Compressibility (1/GPa) = 0.11289309
#
# Stress axis : x y z
#
# Youngs Moduli (GPa) = 50.60838 7.20500 23.36391
#
# Poissons Ratio (x) = 0.25575 0.12219
# Poissons Ratio (y) = 1.79642 0.08186
# Poissons Ratio (z) = 0.26468 0.02524
#
# Static dielectric constant tensor:
#      x y z
#    x 1.773740 0.000000 0.000000 
#    y 0.000000 1.670400 0.000000 
#    z 0.000000 0.000000 1.778280 
# 
# From -- ./inp_files/10240.got.cif
#   From: 2010.05.17/outbox.cif.g08.bks.cpg/sg64_6_cif.got.tgz:10240.got - 2010.06.03 16:29:19.
