data_PCOD9476959
_publ_section_title
;
Structure prediction by ZEFSAII (Michael W. Deem and Ramdas Pophale) SiO2 
 PCOD9476959
Probable space group: C M C A
;
_chemical_formula_sum "Si O2"
_cell_formula_units_Z 112
_cell_length_a 24.742272
_cell_length_b 11.950070
_cell_length_c 23.100182
_cell_angle_alpha 90.000000
_cell_angle_beta 90.000000
_cell_angle_gamma 90.000000
_cell_volume 6830.074295
_symmetry_space_group_name_H-M "C M C A"
_symmetry_group_IT_number 64
_symmetry_cell_setting 'orthorhombic'
loop_
_space_group_symop_operation_xyz
x,y,z
-x,1/2-y,1/2+z
x,-y,-z
-x,1/2+y,1/2-z
-x,-y,-z
x,1/2+y,1/2-z
-x,y,z
x,1/2-y,1/2+z
1/2+x,1/2+y,z
1/2-x,-y,1/2+z
1/2+x,1/2-y,-z
1/2-x,y,1/2-z
1/2-x,1/2-y,-z
1/2+x,y,1/2-z
1/2-x,1/2+y,z
1/2+x,-y,1/2+z
loop_
_atom_site_type_symbol
_atom_site_label
_atom_site_fract_x
_atom_site_fract_y
_atom_site_fract_z
Si Si1 0.383812 0.515274 0.379690
Si Si2 0.181958 0.844017 0.702845
Si Si3 0.000000 0.313163 0.987259
Si Si4 0.691444 0.185624 0.917122
Si Si5 0.879134 0.781840 0.531779
Si Si6 0.687952 0.139319 0.620144
Si Si7 0.199793 0.604409 0.333966
Si Si8 0.000000 0.018670 0.595294
O O1 0.367477 0.593894 0.326968
O O2 0.342860 0.413721 0.388283
O O3 0.380641 0.596934 0.435988
O O4 0.443854 0.468640 0.372370
O O5 0.188391 0.719502 0.676953
O O6 0.178479 0.856135 0.771386
O O7 0.235858 0.904890 0.678391
O O8 0.000000 0.395362 0.042173
O O9 0.941029 0.254998 0.986906
O O10 0.000000 0.393210 0.930910
O O11 0.754544 0.150478 0.913515
O O12 0.688792 0.299093 0.880191
O O13 0.663148 0.206934 0.979014
O O14 0.856547 0.691394 0.577228
O O15 0.679567 0.013550 0.641739
#
# Coordination Sequence:
#
# PCOD9476959 Si02
#       8
#    16  16   8  16  16  16  16   8
#     4  10  18  33  55  81 104 135 175 224 266 294
#     4   9  20  34  53  74 104 137 175 221 255 307
#     4   9  16  30  52  78  99 138 178 213 262 291
#     4  11  20  32  51  80 109 140 172 208 264 312
#     4  10  20  34  53  78 111 139 171 220 260 315
#     4  10  21  35  49  77 111 142 168 208 271 314
#     4  10  21  33  52  78 105 141 175 206 259 323
#     4   9  16  28  54  79 102 129 177 228 254 298
#
# _framework density 16.398064999999999
#
# number of rings (size 3 to 8) (size 9 to 14) (size 15 to 20)
#    0.000    2.143    2.857    0.857    2.000    1.714 
#    2.571    0.000    0.000    5.143    0.000    0.000 
#    0.000    0.000    0.000    0.000    0.000    0.000 
#
# Total GULP energy -311957.597178 kJ/mol
# GULP energy per Si atom -5570.671378 kJ/mol
# Density = 1.636074 g / cm^3
# Si number density = 16.398065 Si / 1000 Ang^3
#
#
#
# Elastic Constant Matrix: (Units=GPa)
#
#
# Indices 1 2 3 4 5 6 
#
# 1 101.3599 24.5746 32.5929 0.0000 0.0000 0.0000
# 2 24.5746 73.2378 25.6668 0.0000 0.0000 0.0000
# 3 32.5929 25.6668 68.4367 0.0000 0.0000 0.0000
# 4 0.0000 0.0000 0.0000 12.3526 0.0000 0.0000
# 5 0.0000 0.0000 0.0000 0.0000 12.3684 0.0000
# 6 0.0000 0.0000 0.0000 0.0000 0.0000 21.0289
#
#
#
# Elastic Compliance Matrix: (Units=1/GPa)
#
#
# Indices 1 2 3 4 5 6 
#
# 1 0.011985 -0.002327 -0.004835 0.000000 0.000000 0.000000
# 2 -0.002327 0.016172 -0.004957 0.000000 0.000000 0.000000
# 3 -0.004835 -0.004957 0.018774 0.000000 0.000000 0.000000
# 4 0.000000 0.000000 0.000000 0.080955 0.000000 0.000000
# 5 0.000000 0.000000 0.000000 0.000000 0.080851 0.000000
# 6 0.000000 0.000000 0.000000 0.000000 0.000000 0.047553
#
#
# Mechanical properties :
#
#
# Convention : Reuss Voigt Hill
#
# Bulk Modulus (GPa) = 44.06710 45.41147 44.73928
# Shear Modulus (GPa) = 17.35553 19.82999 18.59276
#
# Velocity S-wave (km/s) = 3.25682 3.48125 3.37091
# Velocity P-wave (km/s) = 6.40891 6.62662 6.51868
#
# Compressibility (1/GPa) = 0.02269267
#
# Stress axis : x y z
#
# Youngs Moduli (GPa) = 83.43948 61.83452 53.26561
#
# Poissons Ratio (x) = 0.14389 0.25754
# Poissons Ratio (y) = 0.19416 0.26404
# Poissons Ratio (z) = 0.40343 0.30652
#
# Static dielectric constant tensor:
#      x y z
#    x 1.571760 0.000000 0.000000 
#    y 0.000000 1.542270 0.000000 
#    z 0.000000 0.000000 1.553550 
# 
# From -- ./inp_files/46712.got.cif
#   From: 2010.05.17/outbox.cif.g08.bks.cpg/sg64_24_cif.got.tgz:46712.got - 2010.06.03 16:29:19.
