data_PCOD9476196
_publ_section_title
;
Structure prediction by ZEFSAII (Michael W. Deem and Ramdas Pophale) SiO2 
 PCOD9476196
Probable space group: C M C M
;
_chemical_formula_sum "Si O2"
_cell_formula_units_Z 36
_cell_length_a 15.000000
_cell_length_b 30.000000
_cell_length_c 9.000000
_cell_angle_alpha 90.000000
_cell_angle_beta 90.000000
_cell_angle_gamma 90.000000
_cell_volume 4050.000000
_symmetry_space_group_name_H-M "C M C M"
_symmetry_group_IT_number 63
_symmetry_cell_setting 'orthorhombic'
loop_
_space_group_symop_operation_xyz
x,y,z
-x,-y,1/2+z
x,-y,-z
-x,y,1/2-z
-x,-y,-z
x,y,1/2-z
-x,y,z
x,-y,1/2+z
1/2+x,1/2+y,z
1/2-x,1/2-y,1/2+z
1/2+x,1/2-y,-z
1/2-x,1/2+y,1/2-z
1/2-x,1/2-y,-z
1/2+x,1/2+y,1/2-z
1/2-x,1/2+y,z
1/2+x,1/2-y,1/2+z
loop_
_atom_site_type_symbol
_atom_site_label
_atom_site_fract_x
_atom_site_fract_y
_atom_site_fract_z
Si Si1 0.609590 0.439755 0.750000
Si Si2 0.750179 0.588233 0.011874
Si Si3 0.898088 0.248754 0.428826
Si Si4 0.750187 0.482101 0.250000
Si Si5 0.109529 0.439241 0.750000
Si Si6 0.238447 0.188030 0.921271
O O1 0.500000 0.439965 0.750000
O O2 0.659842 0.416587 0.889683
O O3 0.659897 0.488013 0.750000
O O4 0.840571 0.584021 0.110133
O O5 0.750630 0.548487 0.894502
O O6 0.748662 0.635662 0.934624
O O7 0.901459 0.248279 0.250000
O O8 0.845823 0.205423 0.486180
O O9 0.829960 0.288239 0.474266
O O10 0.000000 0.252627 0.482943
O O11 0.839596 0.512629 0.250000
O O12 0.000000 0.439801 0.750000
O O13 0.224784 0.201296 0.750000
#
# Coordination Sequence:
#
# PCOD9476196 Si02
#       6
#     8  16  16   8   8  16
#     4  10  22  38  56  79 112 152 188 225 278 332
#     4  10  21  37  59  83 111 146 187 230 273 324
#     4   9  20  37  58  81 109 144 180 220 274 334
#     4  10  20  38  60  82 110 146 184 232 280 324
#     4  10  22  38  56  83 114 148 186 223 274 332
#     4  10  20  37  59  81 111 145 180 226 275 317
#
# _framework density 8.8888890000000007
#
# number of rings (size 3 to 8) (size 9 to 14) (size 15 to 20)
#    0.000    2.444    1.111    2.667    3.111    5.778 
#    0.000    0.000    0.000    0.000    0.000    0.000 
#    0.000    0.000    0.000    0.000    0.000    0.000 
#
# Total GULP energy -200422.695407 kJ/mol
# GULP energy per Si atom -5567.297095 kJ/mol
# Density = 0.886866 g / cm^3
# Si number density = 8.888889 Si / 1000 Ang^3
#
#
#
# Elastic Constant Matrix: (Units=GPa)
#
#
# Indices 1 2 3 4 5 6 
#
# 1 184.1257 20.9963 25.3214 0.0000 0.0000 0.0000
# 2 20.9963 65.9899 -2.2625 0.0000 0.0000 0.0000
# 3 25.3214 -2.2625 39.6281 0.0000 0.0000 0.0000
# 4 0.0000 0.0000 0.0000 9.0076 0.0000 0.0000
# 5 0.0000 0.0000 0.0000 0.0000 18.0741 0.0000
# 6 0.0000 0.0000 0.0000 0.0000 0.0000 8.9162
#
#
#
# Elastic Compliance Matrix: (Units=1/GPa)
#
#
# Indices 1 2 3 4 5 6 
#
# 1 0.006238 -0.002126 -0.004108 0.000000 0.000000 0.000000
# 2 -0.002126 0.015908 0.002267 0.000000 0.000000 0.000000
# 3 -0.004108 0.002267 0.027989 0.000000 0.000000 0.000000
# 4 0.000000 0.000000 0.000000 0.111018 0.000000 0.000000
# 5 0.000000 0.000000 0.000000 0.000000 0.055328 0.000000
# 6 0.000000 0.000000 0.000000 0.000000 0.000000 0.112155
#
#
# Mechanical properties :
#
#
# Convention : Reuss Voigt Hill
#
# Bulk Modulus (GPa) = 23.69587 41.98379 32.83983
# Shear Modulus (GPa) = 14.25978 23.57880 18.91929
#
# Velocity S-wave (km/s) = 2.83523 3.64580 3.26576
# Velocity P-wave (km/s) = 4.90672 6.43348 5.72126
#
# Compressibility (1/GPa) = 0.04220145
#
# Stress axis : x y z
#
# Youngs Moduli (GPa) = 160.29878 62.86187 35.72874
#
# Poissons Ratio (x) = 0.13363 0.14676
# Poissons Ratio (y) = 0.34075 -0.08098
# Poissons Ratio (z) = 0.65843 -0.14248
#
# Static dielectric constant tensor:
#      x y z
#    x 1.564730 0.000000 0.000000 
#    y 0.000000 1.623940 0.000000 
#    z 0.000000 0.000000 1.659610 
# 
# From -- ./inp_files/5002.got.cif
#   From: 2010.05.17/outbox.ucp.g08.bks.cvg/sg63_3_cif.got.tgz:5002.got - 2010.06.11 16:32:19.
