data_PCOD9476001
_publ_section_title
;
Structure prediction by ZEFSAII (Michael W. Deem and Ramdas Pophale) SiO2 
 PCOD9476001
Probable space group: C M C M
;
_chemical_formula_sum "Si O2"
_cell_formula_units_Z 64
_cell_length_a 13.188112
_cell_length_b 14.157961
_cell_length_c 12.591852
_cell_angle_alpha 90.000000
_cell_angle_beta 90.000000
_cell_angle_gamma 90.000000
_cell_volume 2351.110001
_symmetry_space_group_name_H-M "C M C M"
_symmetry_group_IT_number 63
_symmetry_cell_setting 'orthorhombic'
loop_
_space_group_symop_operation_xyz
x,y,z
-x,-y,1/2+z
x,-y,-z
-x,y,1/2-z
-x,-y,-z
x,y,1/2-z
-x,y,z
x,-y,1/2+z
1/2+x,1/2+y,z
1/2-x,1/2-y,1/2+z
1/2+x,1/2-y,-z
1/2-x,1/2+y,1/2-z
1/2-x,1/2-y,-z
1/2+x,1/2+y,1/2-z
1/2-x,1/2+y,z
1/2+x,1/2-y,1/2+z
loop_
_atom_site_type_symbol
_atom_site_label
_atom_site_fract_x
_atom_site_fract_y
_atom_site_fract_z
Si Si1 0.657491 0.997218 0.374302
Si Si2 0.173453 0.722321 0.359320
Si Si3 0.891775 0.194589 0.423978
Si Si4 0.614406 0.478300 0.374462
O O1 0.621820 0.966975 0.250000
O O2 0.662741 0.109869 0.359601
O O3 0.767627 0.946005 0.387725
O O4 0.615096 0.000000 0.500000
O O5 0.133473 0.764322 0.250000
O O6 0.118214 0.764863 0.458776
O O7 0.294113 0.734960 0.366695
O O8 0.885811 0.081114 0.431552
O O9 0.000000 0.220151 0.376877
O O10 0.615547 0.504758 0.250000
O O11 0.500000 0.437255 0.388135
#
# Coordination Sequence:
#
# PCOD9476001 Si02
#       4
#    16  16  16  16
#     4   9  17  30  46  63  88 125 164 199 237 281
#     4   9  18  31  46  67  96 127 157 192 241 294
#     4   9  16  28  48  71  91 115 153 194 233 286
#     4   8  14  26  44  65  91 122 152 186 235 293
#
# _framework density 27.221184999999998
#
# number of rings (size 3 to 8) (size 9 to 14) (size 15 to 20)
#    0.000    3.250    0.000    2.250    0.000    2.500 
#    0.000   12.500    0.000    2.250    0.000    0.000 
#    0.000    0.000    0.000    0.000    0.000    0.000 
#
# Total GULP energy -178194.519184 kJ/mol
# GULP energy per Si atom -5568.578724 kJ/mol
# Density = 2.715923 g / cm^3
# Si number density = 27.221185 Si / 1000 Ang^3
#
#
#
# Elastic Constant Matrix: (Units=GPa)
#
#
# Indices 1 2 3 4 5 6 
#
# 1 119.5300 31.7411 14.6714 0.0000 0.0000 0.0000
# 2 31.7411 87.7418 16.8201 0.0000 0.0000 0.0000
# 3 14.6714 16.8201 185.1081 0.0000 0.0000 0.0000
# 4 0.0000 0.0000 0.0000 32.1125 0.0000 0.0000
# 5 0.0000 0.0000 0.0000 0.0000 -35.8235 0.0000
# 6 0.0000 0.0000 0.0000 0.0000 0.0000 -54.0592
#
#
#
# Elastic Compliance Matrix: (Units=1/GPa)
#
#
# Indices 1 2 3 4 5 6 
#
# 1 0.009290 -0.003277 -0.000439 0.000000 0.000000 0.000000
# 2 -0.003277 0.012755 -0.000899 0.000000 0.000000 0.000000
# 3 -0.000439 -0.000899 0.005519 0.000000 0.000000 0.000000
# 4 0.000000 0.000000 0.000000 0.031141 0.000000 0.000000
# 5 0.000000 0.000000 0.000000 0.000000 -0.027915 0.000000
# 6 0.000000 0.000000 0.000000 0.000000 0.000000 -0.018498
#
#
# Mechanical properties :
#
#
# Convention : Reuss Voigt Hill
#
# Bulk Modulus (GPa) = 54.54180 57.64946 56.09563
# Shear Modulus (GPa) = 180.95116 10.38911 95.67014
#
# Velocity S-wave (km/s) = 8.16203 1.95572 5.93479
# Velocity P-wave (km/s) = 10.43575 5.13068 8.22280
#
# Compressibility (1/GPa) = 0.01833456
#
# Stress axis : x y z
#
# Youngs Moduli (GPa) = 107.64212 78.40178 181.20124
#
# Poissons Ratio (x) = 0.25690 0.07947
# Poissons Ratio (y) = 0.35271 0.16295
# Poissons Ratio (z) = 0.04721 0.07051
#
# Static dielectric constant tensor:
#      x y z
#    x 2.078140 0.000000 0.000000 
#    y 0.000000 2.102190 0.000000 
#    z 0.000000 0.000000 2.297800 
# 
# From -- ./inp_files/19097.got.cif
#   From: 2010.05.17/outbox.cif.g08.bks.cpg/sg63_10_cif.got.tgz:19097.got - 2010.06.03 15:47:04.
