data_PCOD9476015
_publ_section_title
;
Structure prediction by ZEFSAII (Michael W. Deem and Ramdas Pophale) SiO2 
 PCOD9476015
Probable space group: C M C M
;
_chemical_formula_sum "Si O2"
_cell_formula_units_Z 96
_cell_length_a 7.323567
_cell_length_b 31.221443
_cell_length_c 19.904957
_cell_angle_alpha 90.000000
_cell_angle_beta 90.000000
_cell_angle_gamma 90.000000
_cell_volume 4551.314790
_symmetry_space_group_name_H-M "C M C M"
_symmetry_group_IT_number 63
_symmetry_cell_setting 'orthorhombic'
loop_
_space_group_symop_operation_xyz
x,y,z
-x,-y,1/2+z
x,-y,-z
-x,y,1/2-z
-x,-y,-z
x,y,1/2-z
-x,y,z
x,-y,1/2+z
1/2+x,1/2+y,z
1/2-x,1/2-y,1/2+z
1/2+x,1/2-y,-z
1/2-x,1/2+y,1/2-z
1/2-x,1/2-y,-z
1/2+x,1/2+y,1/2-z
1/2-x,1/2+y,z
1/2+x,1/2-y,1/2+z
loop_
_atom_site_type_symbol
_atom_site_label
_atom_site_fract_x
_atom_site_fract_y
_atom_site_fract_z
Si Si1 0.722648 0.946395 0.672894
Si Si2 0.277621 0.019619 0.928319
Si Si3 0.216993 0.684867 0.826088
Si Si4 0.281563 0.217180 0.326526
Si Si5 0.776774 0.382446 0.436277
Si Si6 0.277198 0.863142 0.587951
O O1 0.782432 0.946044 0.750000
O O2 0.500000 0.946316 0.673383
O O3 0.778299 0.903946 0.632491
O O4 0.780244 0.988223 0.631368
O O5 0.500000 0.019565 0.928504
O O6 0.220143 0.068776 0.922185
O O7 0.221353 0.000000 0.000000
O O8 0.289943 0.680360 0.750000
O O9 0.244252 0.734092 0.847600
O O10 0.286483 0.650809 0.879837
O O11 0.000000 0.678143 0.822073
O O12 0.212619 0.211566 0.250000
O O13 0.500000 0.212588 0.323435
O O14 0.215406 0.180593 0.376731
O O15 0.719473 0.368892 0.511081
O O16 0.000000 0.382138 0.436294
O O17 0.500000 0.863061 0.587392
#
# Coordination Sequence:
#
# PCOD9476015 Si02
#       6
#    16  16  16  16  16  16
#     4   9  15  21  32  52  77 105 137 173 211 252
#     4   9  14  22  34  50  76 109 140 167 201 250
#     4   9  18  31  44  60  85 115 145 176 210 251
#     4   9  17  29  45  63  84 111 142 178 217 252
#     4   9  16  25  39  56  79 112 143 171 208 252
#     4   9  15  24  38  57  80 106 137 174 214 254
#
# _framework density 21.092804999999998
#
# number of rings (size 3 to 8) (size 9 to 14) (size 15 to 20)
#    0.000    3.000    1.667    0.500    0.000    3.333 
#    0.000    3.333    0.000    0.000    0.000    0.000 
#    0.000    2.000    0.000    9.000    0.000    9.000 
#
# Total GULP energy -268052.244206 kJ/mol
# GULP energy per Si atom -5584.421754 kJ/mol
# Density = 2.104480 g / cm^3
# Si number density = 21.092805 Si / 1000 Ang^3
#
#
#
# Elastic Constant Matrix: (Units=GPa)
#
#
# Indices 1 2 3 4 5 6 
#
# 1 83.8240 2.9312 7.2699 0.0000 0.0000 0.0000
# 2 2.9312 244.8238 160.9041 0.0000 0.0000 0.0000
# 3 7.2699 160.9041 192.9285 0.0000 0.0000 0.0000
# 4 0.0000 0.0000 0.0000 32.2595 0.0000 0.0000
# 5 0.0000 0.0000 0.0000 0.0000 -14.7367 0.0000
# 6 0.0000 0.0000 0.0000 0.0000 0.0000 6.7919
#
#
#
# Elastic Compliance Matrix: (Units=1/GPa)
#
#
# Indices 1 2 3 4 5 6 
#
# 1 0.011982 0.000339 -0.000734 0.000000 0.000000 0.000000
# 2 0.000339 0.009049 -0.007560 0.000000 0.000000 0.000000
# 3 -0.000734 -0.007560 0.011516 0.000000 0.000000 0.000000
# 4 0.000000 0.000000 0.000000 0.030999 0.000000 0.000000
# 5 0.000000 0.000000 0.000000 0.000000 -0.067858 0.000000
# 6 0.000000 0.000000 0.000000 0.000000 0.000000 0.147235
#
#
# Mechanical properties :
#
#
# Convention : Reuss Voigt Hill
#
# Bulk Modulus (GPa) = 60.10850 95.97631 78.04241
# Shear Modulus (GPa) = 30.41790 28.22767 29.32279
#
# Velocity S-wave (km/s) = 3.80162 3.66219 3.73256
# Velocity P-wave (km/s) = 6.91583 7.96762 7.46028
#
# Compressibility (1/GPa) = 0.01663658
#
# Stress axis : x y z
#
# Youngs Moduli (GPa) = 83.46136 110.51098 86.83770
#
# Poissons Ratio (x) = -0.03749 0.06377
# Poissons Ratio (y) = -0.02831 0.65646
# Poissons Ratio (z) = 0.06129 0.83542
#
# Static dielectric constant tensor:
#      x y z
#    x 1.878780 0.000000 0.000000 
#    y 0.000000 1.708860 0.000000 
#    z 0.000000 0.000000 1.716550 
# 
# From -- ./inp_files/42679.got.cif
#   From: 2010.05.17/outbox.cif.g08.bks.cpg/sg63_22_cif.got.tgz:42679.got - 2010.06.03 15:47:04.
