data_PCOD9476193
_publ_section_title
;
Structure prediction by ZEFSAII (Michael W. Deem and Ramdas Pophale) SiO2 
 PCOD9476193
Probable space group: C M C M
;
_chemical_formula_sum "Si O2"
_cell_formula_units_Z 56
_cell_length_a 30.000000
_cell_length_b 12.000000
_cell_length_c 15.000000
_cell_angle_alpha 90.000000
_cell_angle_beta 90.000000
_cell_angle_gamma 90.000000
_cell_volume 5400.000000
_symmetry_space_group_name_H-M "C M C M"
_symmetry_group_IT_number 63
_symmetry_cell_setting 'orthorhombic'
loop_
_space_group_symop_operation_xyz
x,y,z
-x,-y,1/2+z
x,-y,-z
-x,y,1/2-z
-x,-y,-z
x,y,1/2-z
-x,y,z
x,-y,1/2+z
1/2+x,1/2+y,z
1/2-x,1/2-y,1/2+z
1/2+x,1/2-y,-z
1/2-x,1/2+y,1/2-z
1/2-x,1/2-y,-z
1/2+x,1/2+y,1/2-z
1/2-x,1/2+y,z
1/2+x,1/2-y,1/2+z
loop_
_atom_site_type_symbol
_atom_site_label
_atom_site_fract_x
_atom_site_fract_y
_atom_site_fract_z
Si Si1 0.623669 0.062756 0.358415
Si Si2 0.548118 0.224613 0.355955
Si Si3 0.448362 0.868047 0.358472
Si Si4 0.785604 0.390903 0.966064
Si Si5 0.789698 0.763480 0.859900
Si Si6 0.451646 0.484854 0.394086
Si Si7 0.388125 0.329045 0.648583
O O1 0.632547 0.061658 0.250000
O O2 0.593013 0.167035 0.386683
O O3 0.669147 0.072048 0.414558
O O4 0.589443 0.961083 0.377957
O O5 0.546922 0.201504 0.250000
O O6 0.500000 0.184085 0.392205
O O7 0.550295 0.355745 0.370808
O O8 0.452213 0.867475 0.250000
O O9 0.500000 0.882775 0.389792
O O10 0.424759 0.754721 0.393955
O O11 0.754656 0.326116 0.894975
O O12 0.760008 0.500000 0.000000
O O13 0.794256 0.329758 0.061326
O O14 0.786841 0.738865 0.750000
O O15 0.836400 0.828207 0.876788
O O16 0.450561 0.500000 0.500000
O O17 0.500000 0.528511 0.361557
O O18 0.410406 0.551210 0.355721
O O19 0.386398 0.288703 0.750000
#
# Coordination Sequence:
#
# PCOD9476193 Si02
#       7
#    16  16  16  16  16  16  16
#     4  10  20  36  62  95 131 169 210 257 315 382
#     4   9  18  34  56  83 120 166 212 255 303 367
#     4   9  17  31  57  93 129 167 209 254 309 373
#     4  11  24  43  69  96 126 164 208 263 326 383
#     4  10  24  45  66  94 126 162 210 263 321 385
#     4  10  21  34  52  80 118 162 204 254 310 364
#     4  10  20  36  60  86 117 157 204 256 309 373
#
# _framework density 10.370369999999999
#
# number of rings (size 3 to 8) (size 9 to 14) (size 15 to 20)
#    0.000    2.143    0.000    2.571    2.000    6.000 
#    2.571    0.000    0.000    1.714    0.000    0.000 
#    0.000    0.000    0.000    0.000    0.000    0.000 
#
# Total GULP energy -311826.119059 kJ/mol
# GULP energy per Si atom -5568.323555 kJ/mol
# Density = 1.034677 g / cm^3
# Si number density = 10.370370 Si / 1000 Ang^3
#
#
#
# Elastic Constant Matrix: (Units=GPa)
#
#
# Indices 1 2 3 4 5 6 
#
# 1 137.5803 44.3364 32.2079 0.0000 0.0000 0.0000
# 2 44.3364 53.6310 14.2465 0.0000 0.0000 0.0000
# 3 32.2079 14.2465 88.7645 0.0000 0.0000 0.0000
# 4 0.0000 0.0000 0.0000 19.2662 0.0000 0.0000
# 5 0.0000 0.0000 0.0000 0.0000 7.9098 0.0000
# 6 0.0000 0.0000 0.0000 0.0000 0.0000 -27.6294
#
#
#
# Elastic Compliance Matrix: (Units=1/GPa)
#
#
# Indices 1 2 3 4 5 6 
#
# 1 0.010415 -0.007945 -0.002504 0.000000 0.000000 0.000000
# 2 -0.007945 0.025537 -0.001216 0.000000 0.000000 0.000000
# 3 -0.002504 -0.001216 0.012369 0.000000 0.000000 0.000000
# 4 0.000000 0.000000 0.000000 0.051904 0.000000 0.000000
# 5 0.000000 0.000000 0.000000 0.000000 0.126426 0.000000
# 6 0.000000 0.000000 0.000000 0.000000 0.000000 -0.036193
#
#
# Mechanical properties :
#
#
# Convention : Reuss Voigt Hill
#
# Bulk Modulus (GPa) = 40.01272 51.28417 45.64845
# Shear Modulus (GPa) = 22.51055 12.52165 17.51610
#
# Velocity S-wave (km/s) = 3.29801 2.45974 2.90923
# Velocity P-wave (km/s) = 5.81689 5.73124 5.77422
#
# Compressibility (1/GPa) = 0.02499205
#
# Stress axis : x y z
#
# Youngs Moduli (GPa) = 96.01588 39.15910 80.84443
#
# Poissons Ratio (x) = 0.31111 0.20243
# Poissons Ratio (y) = 0.76283 0.09830
# Poissons Ratio (z) = 0.24041 0.04761
#
# Static dielectric constant tensor:
#      x y z
#    x 1.738530 0.000000 0.000000 
#    y 0.000000 1.803540 0.000000 
#    z 0.000000 0.000000 1.761650 
# 
# From -- ./inp_files/38523.got.cif
#   From: 2010.05.17/outbox.ucp.g08.bks.cvg/sg63_20_cif.got.tgz:38523.got - 2010.06.11 16:32:19.
