data_PCOD9476539
_publ_section_title
;
Structure prediction by ZEFSAII (Michael W. Deem and Ramdas Pophale) SiO2 
 PCOD9476539
Probable space group: C M C A
;
_chemical_formula_sum "Si O2"
_cell_formula_units_Z 116
_cell_length_a 7.828234
_cell_length_b 20.283134
_cell_length_c 30.606613
_cell_angle_alpha 90.000000
_cell_angle_beta 90.000000
_cell_angle_gamma 90.000000
_cell_volume 4859.752267
_symmetry_space_group_name_H-M "C M C A"
_symmetry_group_IT_number 64
_symmetry_cell_setting 'orthorhombic'
loop_
_space_group_symop_operation_xyz
x,y,z
-x,1/2-y,1/2+z
x,-y,-z
-x,1/2+y,1/2-z
-x,-y,-z
x,1/2+y,1/2-z
-x,y,z
x,1/2-y,1/2+z
1/2+x,1/2+y,z
1/2-x,-y,1/2+z
1/2+x,1/2-y,-z
1/2-x,y,1/2-z
1/2-x,1/2-y,-z
1/2+x,y,1/2-z
1/2-x,1/2+y,z
1/2+x,-y,1/2+z
loop_
_atom_site_type_symbol
_atom_site_label
_atom_site_fract_x
_atom_site_fract_y
_atom_site_fract_z
Si Si1 0.296360 0.768821 0.550347
Si Si2 0.303012 0.924807 0.799536
Si Si3 0.500000 0.500000 0.000000
Si Si4 0.808844 0.411307 0.967432
Si Si5 0.295691 0.284261 0.698487
Si Si6 0.306246 0.354732 0.300172
Si Si7 0.296387 0.372120 0.061768
Si Si8 0.690894 0.037928 0.639038
O O1 0.500000 0.770344 0.554553
O O2 0.250000 0.750000 0.500000
O O3 0.227372 0.842778 0.558938
O O4 0.222849 0.704467 0.575111
O O5 0.500000 0.909643 0.793750
O O6 0.250000 0.944910 0.750000
O O7 0.227633 0.855318 0.816085
O O8 0.281061 0.978777 0.836498
O O9 0.653634 0.536393 0.030407
O O10 0.000000 0.436099 0.956732
O O11 0.803917 0.385704 0.017596
O O12 0.500000 0.275514 0.692744
O O13 0.250000 0.286325 0.750000
O O14 0.207893 0.218807 0.681086
O O15 0.500000 0.378804 0.303463
O O16 0.250000 0.352468 0.250000
O O17 0.186802 0.404296 0.325263
O O18 0.500000 0.385653 0.052155
O O19 0.235084 0.423786 0.097693
O O20 0.500000 0.016199 0.628283
#
# Coordination Sequence:
#
# PCOD9476539 Si02
#       8
#    16  16   4  16  16  16  16  16
#     4  10  17  31  56  87 115 142 186 236 275 331
#     4  10  20  34  54  79 108 142 192 245 291 351
#     4  12  22  40  60  94 132 152 202 230 284 346
#     4  11  21  37  63  91 122 159 194 240 288 341
#     4   9  17  31  52  75 100 133 173 223 279 337
#     4  11  21  34  54  78 108 141 186 238 289 344
#     4  10  20  37  58  84 116 148 192 243 293 351
#     4  11  23  36  55  79 113 151 187 239 293 343
#
# _framework density 23.869527999999999
#
# number of rings (size 3 to 8) (size 9 to 14) (size 15 to 20)
#    0.000    1.655    1.379    7.241    0.000    3.862 
#    0.000    0.000    3.034    0.000    0.000    0.000 
#    0.000    0.000    0.000    0.000    0.000    0.000 
#
# Total GULP energy -323334.023216 kJ/mol
# GULP energy per Si atom -5574.724538 kJ/mol
# Density = 2.381520 g / cm^3
# Si number density = 23.869528 Si / 1000 Ang^3
#
#
#
# Elastic Constant Matrix: (Units=GPa)
#
#
# Indices 1 2 3 4 5 6 
#
# 1 133.0663 5.9975 -7.7991 0.0000 0.0000 0.0000
# 2 5.9975 86.0009 4.2393 0.0000 0.0000 0.0000
# 3 -7.7991 4.2393 39.8151 0.0000 0.0000 0.0000
# 4 0.0000 0.0000 0.0000 54.6377 0.0000 0.0000
# 5 0.0000 0.0000 0.0000 0.0000 12.5327 0.0000
# 6 0.0000 0.0000 0.0000 0.0000 0.0000 33.5332
#
#
#
# Elastic Compliance Matrix: (Units=1/GPa)
#
#
# Indices 1 2 3 4 5 6 
#
# 1 0.007634 -0.000609 0.001560 0.000000 0.000000 0.000000
# 2 -0.000609 0.011738 -0.001369 0.000000 0.000000 0.000000
# 3 0.001560 -0.001369 0.025568 0.000000 0.000000 0.000000
# 4 0.000000 0.000000 0.000000 0.018302 0.000000 0.000000
# 5 0.000000 0.000000 0.000000 0.000000 0.079791 0.000000
# 6 0.000000 0.000000 0.000000 0.000000 0.000000 0.029821
#
#
# Mechanical properties :
#
#
# Convention : Reuss Voigt Hill
#
# Bulk Modulus (GPa) = 22.67425 29.30641 25.99033
# Shear Modulus (GPa) = 26.54047 37.23702 31.88875
#
# Velocity S-wave (km/s) = 3.33813 3.95400 3.65904
# Velocity P-wave (km/s) = 4.93734 5.75759 5.36317
#
# Compressibility (1/GPa) = 0.04410289
#
# Stress axis : x y z
#
# Youngs Moduli (GPa) = 130.99366 85.19506 39.11211
#
# Poissons Ratio (x) = 0.05191 -0.06102
# Poissons Ratio (y) = 0.07981 0.05355
# Poissons Ratio (z) = -0.20438 0.11664
#
# Static dielectric constant tensor:
#      x y z
#    x 1.879250 0.000000 0.000000 
#    y 0.000000 2.109190 0.000000 
#    z 0.000000 0.000000 2.204550 
# 
# From -- ./inp_files/52261.got.cif
#   From: 2010.05.17/outbox.cif.g08.bks.cpg/sg64_27_cif.got.tgz:52261.got - 2010.06.03 16:29:19.
