data_PCOD9476127
_publ_section_title
;
Structure prediction by ZEFSAII (Michael W. Deem and Ramdas Pophale) SiO2 
 PCOD9476127
Probable space group: C M C M
;
_chemical_formula_sum "Si O2"
_cell_formula_units_Z 48
_cell_length_a 21.000000
_cell_length_b 15.000000
_cell_length_c 15.000000
_cell_angle_alpha 90.000000
_cell_angle_beta 90.000000
_cell_angle_gamma 90.000000
_cell_volume 4725.000000
_symmetry_space_group_name_H-M "C M C M"
_symmetry_group_IT_number 63
_symmetry_cell_setting 'orthorhombic'
loop_
_space_group_symop_operation_xyz
x,y,z
-x,-y,1/2+z
x,-y,-z
-x,y,1/2-z
-x,-y,-z
x,y,1/2-z
-x,y,z
x,-y,1/2+z
1/2+x,1/2+y,z
1/2-x,1/2-y,1/2+z
1/2+x,1/2-y,-z
1/2-x,1/2+y,1/2-z
1/2-x,1/2-y,-z
1/2+x,1/2+y,1/2-z
1/2-x,1/2+y,z
1/2+x,1/2-y,1/2+z
loop_
_atom_site_type_symbol
_atom_site_label
_atom_site_fract_x
_atom_site_fract_y
_atom_site_fract_z
Si Si1 0.096414 0.160226 0.148116
Si Si2 0.157248 0.339111 0.859763
Si Si3 0.722259 0.225393 0.853821
Si Si4 0.362316 0.461548 0.354380
Si Si5 0.786446 0.472390 0.357428
Si Si6 0.929171 0.201474 0.949716
O O1 0.072647 0.179016 0.250000
O O2 0.166947 0.202056 0.146093
O O3 0.098686 0.053344 0.137185
O O4 0.068412 0.200759 0.057441
O O5 0.152381 0.336426 0.750000
O O6 0.215394 0.274134 0.889867
O O7 0.174195 0.440717 0.887559
O O8 0.097864 0.292589 0.907610
O O9 0.737832 0.206721 0.750000
O O10 0.700824 0.128912 0.890892
O O11 0.365268 0.433642 0.250000
O O12 0.288808 0.484775 0.374710
O O13 0.386674 0.381736 0.415762
O O14 0.795493 0.472891 0.250000
O O15 0.000000 0.185469 0.915104
#
# Coordination Sequence:
#
# PCOD9476127 Si02
#       6
#    16  16  16  16  16  16
#     4  10  22  40  60  82 115 160 209 263 310 352
#     4  10  19  35  61  92 127 160 193 245 309 368
#     4   9  16  32  60  90 120 152 198 255 309 362
#     4  10  19  36  61  90 124 159 194 244 309 367
#     4   9  16  31  58  92 128 158 189 242 308 371
#     4  12  26  40  56  87 128 168 210 245 291 370
#
# _framework density 10.15873
#
# number of rings (size 3 to 8) (size 9 to 14) (size 15 to 20)
#    0.000    2.000    3.333    1.000    0.000    3.667 
#    0.000    2.500    0.000    2.000    0.000    4.667 
#    0.000    0.000    0.000    0.000    0.000    0.000 
#
# Total GULP energy -267741.381252 kJ/mol
# GULP energy per Si atom -5577.945443 kJ/mol
# Density = 1.013561 g / cm^3
# Si number density = 10.158730 Si / 1000 Ang^3
#
#
#
# Elastic Constant Matrix: (Units=GPa)
#
#
# Indices 1 2 3 4 5 6 
#
# 1 44.8297 17.4208 15.0054 0.0000 0.0000 0.0000
# 2 17.4208 123.5638 17.7330 0.0000 0.0000 0.0000
# 3 15.0054 17.7330 61.7190 0.0000 0.0000 0.0000
# 4 0.0000 0.0000 0.0000 18.9259 0.0000 0.0000
# 5 0.0000 0.0000 0.0000 0.0000 3.8004 0.0000
# 6 0.0000 0.0000 0.0000 0.0000 0.0000 -16.5099
#
#
#
# Elastic Compliance Matrix: (Units=1/GPa)
#
#
# Indices 1 2 3 4 5 6 
#
# 1 0.025169 -0.002785 -0.005319 0.000000 0.000000 0.000000
# 2 -0.002785 0.008749 -0.001837 0.000000 0.000000 0.000000
# 3 -0.005319 -0.001837 0.018023 0.000000 0.000000 0.000000
# 4 0.000000 0.000000 0.000000 0.052838 0.000000 0.000000
# 5 0.000000 0.000000 0.000000 0.000000 0.263127 0.000000
# 6 0.000000 0.000000 0.000000 0.000000 0.000000 -0.060570
#
#
# Mechanical properties :
#
#
# Convention : Reuss Voigt Hill
#
# Bulk Modulus (GPa) = 31.19137 36.71454 33.95296
# Shear Modulus (GPa) = 14.79704 13.24019 14.01862
#
# Velocity S-wave (km/s) = 2.70162 2.55554 2.62959
# Velocity P-wave (km/s) = 5.01168 5.17855 5.09580
#
# Compressibility (1/GPa) = 0.03206015
#
# Stress axis : x y z
#
# Youngs Moduli (GPa) = 39.73088 114.29562 55.48353
#
# Poissons Ratio (x) = 0.31833 0.29512
# Poissons Ratio (y) = 0.11066 0.10191
# Poissons Ratio (z) = 0.21133 0.20992
#
# Static dielectric constant tensor:
#      x y z
#    x 1.724940 0.000000 0.000000 
#    y 0.000000 1.718930 0.000000 
#    z 0.000000 0.000000 1.759000 
# 
# From -- ./inp_files/35381.got.cif
#   From: 2010.05.17/outbox.ucp.g08.bks.cvg/sg63_18_cif.got.tgz:35381.got - 2010.06.11 16:32:19.
