data_PCOD9476764
_publ_section_title
;
Structure prediction by ZEFSAII (Michael W. Deem and Ramdas Pophale) SiO2 
 PCOD9476764
Probable space group: C M C A
;
_chemical_formula_sum "Si O2"
_cell_formula_units_Z 104
_cell_length_a 26.868733
_cell_length_b 22.234706
_cell_length_c 8.909939
_cell_angle_alpha 90.000000
_cell_angle_beta 90.000000
_cell_angle_gamma 90.000000
_cell_volume 5322.961313
_symmetry_space_group_name_H-M "C M C A"
_symmetry_group_IT_number 64
_symmetry_cell_setting 'orthorhombic'
loop_
_space_group_symop_operation_xyz
x,y,z
-x,1/2-y,1/2+z
x,-y,-z
-x,1/2+y,1/2-z
-x,-y,-z
x,1/2+y,1/2-z
-x,y,z
x,1/2-y,1/2+z
1/2+x,1/2+y,z
1/2-x,-y,1/2+z
1/2+x,1/2-y,-z
1/2-x,y,1/2-z
1/2-x,1/2-y,-z
1/2+x,y,1/2-z
1/2-x,1/2+y,z
1/2+x,-y,1/2+z
loop_
_atom_site_type_symbol
_atom_site_label
_atom_site_fract_x
_atom_site_fract_y
_atom_site_fract_z
Si Si1 0.891472 0.554655 0.680557
Si Si2 0.607122 0.678897 0.681463
Si Si3 0.336449 0.240437 0.559005
Si Si4 0.801196 0.667183 0.290864
Si Si5 0.000000 0.399900 0.752804
Si Si6 0.000000 0.462029 0.243553
Si Si7 0.500000 0.156851 0.938123
Si Si8 0.387839 0.419570 0.841019
O O1 0.881102 0.607934 0.797188
O O2 0.879395 0.486418 0.726636
O O3 0.872834 0.572087 0.515683
O O4 0.951133 0.550416 0.660989
O O5 0.620734 0.708591 0.841461
O O6 0.639450 0.712773 0.557373
O O7 0.549857 0.684695 0.631260
O O8 0.306099 0.192866 0.459291
O O9 0.303473 0.276878 0.676659
O O10 0.750000 0.634271 0.250000
O O11 0.850650 0.627805 0.267729
O O12 0.000000 0.349566 0.882549
O O13 0.945535 0.397994 0.672807
O O14 0.000000 0.469468 0.809343
O O15 0.000000 0.412754 0.114561
#
# Coordination Sequence:
#
# PCOD9476764 Si02
#       8
#    16  16  16  16   8   8   8  16
#     4   9  17  33  56  83 117 156 188 237 286 349
#     4  10  20  37  57  83 117 152 195 236 291 343
#     4  10  22  39  60  81 109 151 196 248 284 342
#     4  11  22  40  63  86 112 148 196 244 293 346
#     4  10  18  30  51  88 117 152 191 230 282 345
#     4   8  16  28  49  79 112 154 195 222 269 334
#     4  10  19  30  50  79 121 154 186 234 288 340
#     4  10  19  33  59  85 120 153 191 237 294 354
#
# _framework density 19.537996
#
# number of rings (size 3 to 8) (size 9 to 14) (size 15 to 20)
#    0.000    2.154    1.538    2.077    0.000    2.462 
#    0.000    5.385    6.769    0.000    0.000    0.000 
#    0.000    0.000    0.000    0.000    0.000    0.000 
#
# Total GULP energy -289691.575216 kJ/mol
# GULP energy per Si atom -5570.991831 kJ/mol
# Density = 1.949353 g / cm^3
# Si number density = 19.537996 Si / 1000 Ang^3
#
#
#
# Elastic Constant Matrix: (Units=GPa)
#
#
# Indices 1 2 3 4 5 6 
#
# 1 84.6869 23.9606 23.5740 0.0000 0.0000 0.0000
# 2 23.9606 59.1512 20.9728 0.0000 0.0000 0.0000
# 3 23.5740 20.9728 78.4224 0.0000 0.0000 0.0000
# 4 0.0000 0.0000 0.0000 26.0120 0.0000 0.0000
# 5 0.0000 0.0000 0.0000 0.0000 16.6388 0.0000
# 6 0.0000 0.0000 0.0000 0.0000 0.0000 2.0832
#
#
#
# Elastic Compliance Matrix: (Units=1/GPa)
#
#
# Indices 1 2 3 4 5 6 
#
# 1 0.013932 -0.004594 -0.002959 0.000000 0.000000 0.000000
# 2 -0.004594 0.020192 -0.004019 0.000000 0.000000 0.000000
# 3 -0.002959 -0.004019 0.014716 0.000000 0.000000 0.000000
# 4 0.000000 0.000000 0.000000 0.038444 0.000000 0.000000
# 5 0.000000 0.000000 0.000000 0.000000 0.060101 0.000000
# 6 0.000000 0.000000 0.000000 0.000000 0.000000 0.480024
#
#
# Mechanical properties :
#
#
# Convention : Reuss Voigt Hill
#
# Bulk Modulus (GPa) = 38.91868 39.91947 39.41907
# Shear Modulus (GPa) = 7.58590 19.19700 13.39145
#
# Velocity S-wave (km/s) = 1.97258 3.13796 2.62087
# Velocity P-wave (km/s) = 5.01506 5.79699 5.42015
#
# Compressibility (1/GPa) = 0.02569461
#
# Stress axis : x y z
#
# Youngs Moduli (GPa) = 71.77819 49.52512 67.95404
#
# Poissons Ratio (x) = 0.22753 0.20110
# Poissons Ratio (y) = 0.32976 0.27310
# Poissons Ratio (z) = 0.21241 0.19904
#
# Static dielectric constant tensor:
#      x y z
#    x 1.700570 0.000000 0.000000 
#    y 0.000000 1.718640 0.000000 
#    z 0.000000 0.000000 1.718940 
# 
# From -- ./inp_files/11287.got.cif
#   From: 2010.05.17/outbox.cif.g08.bks.cpg/sg64_6_cif.got.tgz:11287.got - 2010.06.03 16:29:19.
