data_PCOD9476234
_publ_section_title
;
Structure prediction by ZEFSAII (Michael W. Deem and Ramdas Pophale) SiO2 
 PCOD9476234
Probable space group: C M C M
;
_chemical_formula_sum "Si O2"
_cell_formula_units_Z 56
_cell_length_a 15.000000
_cell_length_b 24.000000
_cell_length_c 15.000000
_cell_angle_alpha 90.000000
_cell_angle_beta 90.000000
_cell_angle_gamma 90.000000
_cell_volume 5400.000000
_symmetry_space_group_name_H-M "C M C M"
_symmetry_group_IT_number 63
_symmetry_cell_setting 'orthorhombic'
loop_
_space_group_symop_operation_xyz
x,y,z
-x,-y,1/2+z
x,-y,-z
-x,y,1/2-z
-x,-y,-z
x,y,1/2-z
-x,y,z
x,-y,1/2+z
1/2+x,1/2+y,z
1/2-x,1/2-y,1/2+z
1/2+x,1/2-y,-z
1/2-x,1/2+y,1/2-z
1/2-x,1/2-y,-z
1/2+x,1/2+y,1/2-z
1/2-x,1/2+y,z
1/2+x,1/2-y,1/2+z
loop_
_atom_site_type_symbol
_atom_site_label
_atom_site_fract_x
_atom_site_fract_y
_atom_site_fract_z
Si Si1 0.894172 0.630848 0.857115
Si Si2 0.726358 0.973565 0.094936
Si Si3 0.600074 0.076021 0.144250
Si Si4 0.163182 0.302308 0.851304
Si Si5 0.598866 0.303226 0.040845
Si Si6 0.894591 0.091600 0.647897
Si Si7 0.636233 0.738025 0.350467
O O1 0.885584 0.621048 0.750000
O O2 0.835569 0.582395 0.903276
O O3 0.863178 0.695254 0.871763
O O4 0.000000 0.627389 0.879653
O O5 0.820444 0.957004 0.140191
O O6 0.664641 0.023301 0.133104
O O7 0.749826 0.000000 0.000000
O O8 0.592035 0.082948 0.250000
O O9 0.500000 0.066260 0.107174
O O10 0.637970 0.136216 0.113556
O O11 0.126246 0.295408 0.750000
O O12 0.134434 0.253230 0.916575
O O13 0.267783 0.290850 0.844820
O O14 0.500000 0.308217 0.077323
O O15 0.639149 0.360496 0.078986
O O16 0.596107 0.293932 0.935118
O O17 0.890631 0.113158 0.750000
O O18 0.000000 0.076041 0.631159
O O19 0.597421 0.733844 0.250000
#
# Coordination Sequence:
#
# PCOD9476234 Si02
#       7
#    16  16  16  16  16  16  16
#     4  10  21  39  62  90 128 176 225 267 313 376
#     4  12  26  39  63  92 125 167 213 271 329 389
#     4  10  22  40  61  89 128 172 216 263 319 384
#     4  10  21  37  60  91 129 169 214 265 322 381
#     4  11  22  36  64  96 127 162 205 262 324 387
#     4  10  23  45  71  97 124 162 219 279 333 389
#     4  10  22  39  63  93 132 176 216 260 317 388
#
# _framework density 10.370369999999999
#
# number of rings (size 3 to 8) (size 9 to 14) (size 15 to 20)
#    0.000    1.571    0.000    4.286    4.000    6.000 
#    0.000    0.000    0.000    0.000    0.000    0.000 
#    0.000    0.000    0.000    0.000    0.000    0.000 
#
# Total GULP energy -312212.509907 kJ/mol
# GULP energy per Si atom -5575.223391 kJ/mol
# Density = 1.034677 g / cm^3
# Si number density = 10.370370 Si / 1000 Ang^3
#
#
#
# Elastic Constant Matrix: (Units=GPa)
#
#
# Indices 1 2 3 4 5 6 
#
# 1 119.0773 72.4842 23.8948 0.0000 0.0000 0.0000
# 2 72.4842 109.0745 29.0452 0.0000 0.0000 0.0000
# 3 23.8948 29.0452 86.9600 0.0000 0.0000 0.0000
# 4 0.0000 0.0000 0.0000 58.5767 0.0000 0.0000
# 5 0.0000 0.0000 0.0000 0.0000 -28.6690 0.0000
# 6 0.0000 0.0000 0.0000 0.0000 0.0000 29.0046
#
#
#
# Elastic Compliance Matrix: (Units=1/GPa)
#
#
# Indices 1 2 3 4 5 6 
#
# 1 0.014156 -0.009189 -0.000821 0.000000 0.000000 0.000000
# 2 -0.009189 0.016027 -0.002828 0.000000 0.000000 0.000000
# 3 -0.000821 -0.002828 0.012670 0.000000 0.000000 0.000000
# 4 0.000000 0.000000 0.000000 0.017072 0.000000 0.000000
# 5 0.000000 0.000000 0.000000 0.000000 -0.034881 0.000000
# 6 0.000000 0.000000 0.000000 0.000000 0.000000 0.034477
#
#
# Mechanical properties :
#
#
# Convention : Reuss Voigt Hill
#
# Bulk Modulus (GPa) = 58.21525 62.88446 60.54985
# Shear Modulus (GPa) = 54.99211 24.42829 39.71020
#
# Velocity S-wave (km/s) = 5.15477 3.43562 4.38036
# Velocity P-wave (km/s) = 7.97232 6.79140 7.40543
#
# Compressibility (1/GPa) = 0.01717763
#
# Stress axis : x y z
#
# Youngs Moduli (GPa) = 70.64242 62.39335 78.92809
#
# Poissons Ratio (x) = 0.57330 0.06478
# Poissons Ratio (y) = 0.64910 0.22324
# Poissons Ratio (z) = 0.05798 0.17647
#
# Static dielectric constant tensor:
#      x y z
#    x 1.839400 0.000000 0.000000 
#    y 0.000000 1.746420 0.000000 
#    z 0.000000 0.000000 1.526580 
# 
# From -- ./inp_files/32329.got.cif
#   From: 2010.05.17/outbox.ucp.g08.bks.cvg/sg63_17_cif.got.tgz:32329.got - 2010.06.11 16:32:19.
