data_PCOD9476125
_publ_section_title
;
Structure prediction by ZEFSAII (Michael W. Deem and Ramdas Pophale) SiO2 
 PCOD9476125
Probable space group: C M C M
;
_chemical_formula_sum "Si O2"
_cell_formula_units_Z 42
_cell_length_a 21.000000
_cell_length_b 15.000000
_cell_length_c 15.000000
_cell_angle_alpha 90.000000
_cell_angle_beta 90.000000
_cell_angle_gamma 90.000000
_cell_volume 4725.000000
_symmetry_space_group_name_H-M "C M C M"
_symmetry_group_IT_number 63
_symmetry_cell_setting 'orthorhombic'
loop_
_space_group_symop_operation_xyz
x,y,z
-x,-y,1/2+z
x,-y,-z
-x,y,1/2-z
-x,-y,-z
x,y,1/2-z
-x,y,z
x,-y,1/2+z
1/2+x,1/2+y,z
1/2-x,1/2-y,1/2+z
1/2+x,1/2-y,-z
1/2-x,1/2+y,1/2-z
1/2-x,1/2-y,-z
1/2+x,1/2+y,1/2-z
1/2-x,1/2+y,z
1/2+x,1/2-y,1/2+z
loop_
_atom_site_type_symbol
_atom_site_label
_atom_site_fract_x
_atom_site_fract_y
_atom_site_fract_z
Si Si1 0.767733 0.638385 0.350887
Si Si2 0.606008 0.756920 0.592927
Si Si3 0.798192 0.427963 0.351797
Si Si4 0.000000 0.246138 0.750000
Si Si5 0.815480 0.894964 0.013819
Si Si6 0.928670 0.405140 0.051496
O O1 0.746142 0.653970 0.250000
O O2 0.827726 0.699749 0.373233
O O3 0.791771 0.535615 0.357862
O O4 0.711451 0.646491 0.422256
O O5 0.555797 0.748079 0.671926
O O6 0.626286 0.662276 0.550945
O O7 0.579546 0.825365 0.518957
O O8 0.785787 0.401539 0.250000
O O9 0.744373 0.390931 0.417885
O O10 0.868942 0.401836 0.382099
O O11 0.830048 0.000000 0.000000
O O12 0.000000 0.401639 0.091362
O O13 0.923654 0.500000 0.000000
#
# Coordination Sequence:
#
# PCOD9476125 Si02
#       6
#    16  16  16   4  16  16
#     4  10  19  35  59  91 124 153 196 251 299 363
#     4  12  22  39  60  88 121 159 199 256 305 360
#     4  10  20  34  55  88 124 160 201 244 288 366
#     4  12  28  40  60  96 122 146 222 260 296 380
#     4  10  22  40  61  88 123 158 203 257 314 357
#     4  11  21  36  55  80 122 166 198 238 303 365
#
# _framework density 8.8888890000000007
#
# number of rings (size 3 to 8) (size 9 to 14) (size 15 to 20)
#    0.000    1.333    5.714    1.143    1.333    0.381 
#    0.000    0.476    0.000    0.000    0.000    0.000 
#    0.000    0.000    0.000    0.000    0.000    0.000 
#
# Total GULP energy -234057.523319 kJ/mol
# GULP energy per Si atom -5572.798174 kJ/mol
# Density = 0.886866 g / cm^3
# Si number density = 8.888889 Si / 1000 Ang^3
#
#
#
# Elastic Constant Matrix: (Units=GPa)
#
#
# Indices 1 2 3 4 5 6 
#
# 1 51.2090 37.1902 17.2806 0.0000 0.0000 0.0000
# 2 37.1902 63.8296 26.1615 0.0000 0.0000 0.0000
# 3 17.2806 26.1615 86.3228 0.0000 0.0000 0.0000
# 4 0.0000 0.0000 0.0000 6.8150 0.0000 0.0000
# 5 0.0000 0.0000 0.0000 0.0000 40.2446 0.0000
# 6 0.0000 0.0000 0.0000 0.0000 0.0000 5.3190
#
#
#
# Elastic Compliance Matrix: (Units=1/GPa)
#
#
# Indices 1 2 3 4 5 6 
#
# 1 0.033915 -0.019386 -0.000914 0.000000 0.000000 0.000000
# 2 -0.019386 0.028970 -0.004899 0.000000 0.000000 0.000000
# 3 -0.000914 -0.004899 0.013252 0.000000 0.000000 0.000000
# 4 0.000000 0.000000 0.000000 0.146735 0.000000 0.000000
# 5 0.000000 0.000000 0.000000 0.000000 0.024848 0.000000
# 6 0.000000 0.000000 0.000000 0.000000 0.000000 0.188005
#
#
# Mechanical properties :
#
#
# Convention : Reuss Voigt Hill
#
# Bulk Modulus (GPa) = 38.85147 40.29178 39.57163
# Shear Modulus (GPa) = 10.10706 18.52433 14.31570
#
# Velocity S-wave (km/s) = 2.38696 3.23149 2.84079
# Velocity P-wave (km/s) = 5.43122 6.05283 5.75043
#
# Compressibility (1/GPa) = 0.02573905
#
# Stress axis : x y z
#
# Youngs Moduli (GPa) = 29.48524 34.51858 75.45962
#
# Poissons Ratio (x) = 0.66918 0.06898
# Poissons Ratio (y) = 0.57160 0.36968
# Poissons Ratio (z) = 0.02695 0.16911
#
# Static dielectric constant tensor:
#      x y z
#    x 1.573370 0.000000 0.000000 
#    y 0.000000 1.622030 0.000000 
#    z 0.000000 0.000000 1.616650 
# 
# From -- ./inp_files/35205.got.cif
#   From: 2010.05.17/outbox.ucp.g08.bks.cvg/sg63_18_cif.got.tgz:35205.got - 2010.06.11 16:32:19.
