data_PCOD9476946
_publ_section_title
;
Structure prediction by ZEFSAII (Michael W. Deem and Ramdas Pophale) SiO2 
 PCOD9476946
Probable space group: C M C A
;
_chemical_formula_sum "Si O2"
_cell_formula_units_Z 112
_cell_length_a 20.222366
_cell_length_b 17.839534
_cell_length_c 18.262205
_cell_angle_alpha 90.000000
_cell_angle_beta 90.000000
_cell_angle_gamma 90.000000
_cell_volume 6588.228988
_symmetry_space_group_name_H-M "C M C A"
_symmetry_group_IT_number 64
_symmetry_cell_setting 'orthorhombic'
loop_
_space_group_symop_operation_xyz
x,y,z
-x,1/2-y,1/2+z
x,-y,-z
-x,1/2+y,1/2-z
-x,-y,-z
x,1/2+y,1/2-z
-x,y,z
x,1/2-y,1/2+z
1/2+x,1/2+y,z
1/2-x,-y,1/2+z
1/2+x,1/2-y,-z
1/2-x,y,1/2-z
1/2-x,1/2-y,-z
1/2+x,y,1/2-z
1/2-x,1/2+y,z
1/2+x,-y,1/2+z
loop_
_atom_site_type_symbol
_atom_site_label
_atom_site_fract_x
_atom_site_fract_y
_atom_site_fract_z
Si Si1 0.681125 0.809668 0.461747
Si Si2 0.180932 0.121579 0.704619
Si Si3 0.575497 0.027776 0.712093
Si Si4 0.802415 0.933301 0.815231
Si Si5 0.765745 0.957545 0.428530
Si Si6 0.573653 0.071119 0.542838
Si Si7 0.716694 0.232214 0.377824
O O1 0.729347 0.882192 0.455524
O O2 0.611205 0.850414 0.459601
O O3 0.687825 0.768990 0.539623
O O4 0.707128 0.757178 0.395477
O O5 0.250000 0.111107 0.750000
O O6 0.118337 0.094339 0.750780
O O7 0.182791 0.069782 0.632264
O O8 0.184177 0.206108 0.674684
O O9 0.500000 0.018296 0.739946
O O10 0.570145 0.047800 0.626866
O O11 0.624960 0.956197 0.713844
O O12 0.750000 0.943865 0.750000
O O13 0.794026 0.849289 0.844456
O O14 0.783129 0.989022 0.881844
O O15 0.791043 0.000000 0.500000
O O16 0.500000 0.080279 0.511586
O O17 0.604825 0.000000 0.500000
#
# Coordination Sequence:
#
# PCOD9476946 Si02
#       7
#    16  16  16  16  16  16  16
#     4  10  18  33  50  83 111 140 180 231 287 337
#     4  11  20  39  54  81 112 150 182 225 280 340
#     4  11  21  35  57  81 110 151 191 226 274 335
#     4  12  20  35  55  87 108 141 186 237 284 332
#     4  11  18  31  60  81 110 139 186 233 275 332
#     4  10  19  31  53  81 111 148 188 230 275 330
#     4  10  22  31  55  80 111 141 179 233 287 337
#
# _framework density 17.000015999999999
#
# number of rings (size 3 to 8) (size 9 to 14) (size 15 to 20)
#    0.000    1.286    5.714    2.571    0.000    0.000 
#    0.000    1.429    0.000    1.286    0.000    0.000 
#    0.000    0.000    0.000    0.000    0.000    0.000 
#
# Total GULP energy -311948.939568 kJ/mol
# GULP energy per Si atom -5570.516778 kJ/mol
# Density = 1.696132 g / cm^3
# Si number density = 17.000016 Si / 1000 Ang^3
#
#
#
# Elastic Constant Matrix: (Units=GPa)
#
#
# Indices 1 2 3 4 5 6 
#
# 1 102.1077 42.3147 27.8554 0.0000 0.0000 0.0000
# 2 42.3147 115.2367 31.9234 0.0000 0.0000 0.0000
# 3 27.8554 31.9234 83.5820 0.0000 0.0000 0.0000
# 4 0.0000 0.0000 0.0000 42.0996 0.0000 0.0000
# 5 0.0000 0.0000 0.0000 0.0000 17.7881 0.0000
# 6 0.0000 0.0000 0.0000 0.0000 0.0000 7.8462
#
#
#
# Elastic Compliance Matrix: (Units=1/GPa)
#
#
# Indices 1 2 3 4 5 6 
#
# 1 0.012036 -0.003700 -0.002598 0.000000 0.000000 0.000000
# 2 -0.003700 0.010842 -0.002908 0.000000 0.000000 0.000000
# 3 -0.002598 -0.002908 0.013941 0.000000 0.000000 0.000000
# 4 0.000000 0.000000 0.000000 0.023753 0.000000 0.000000
# 5 0.000000 0.000000 0.000000 0.000000 0.056217 0.000000
# 6 0.000000 0.000000 0.000000 0.000000 0.000000 0.127450
#
#
# Mechanical properties :
#
#
# Convention : Reuss Voigt Hill
#
# Bulk Modulus (GPa) = 54.32755 56.12370 55.22563
# Shear Modulus (GPa) = 18.60218 26.80232 22.70225
#
# Velocity S-wave (km/s) = 3.31153 3.97496 3.65831
# Velocity P-wave (km/s) = 6.82996 7.35885 7.09933
#
# Compressibility (1/GPa) = 0.01840687
#
# Stress axis : x y z
#
# Youngs Moduli (GPa) = 83.08731 92.23482 71.73187
#
# Poissons Ratio (x) = 0.34124 0.18636
# Poissons Ratio (y) = 0.30740 0.20859
# Poissons Ratio (z) = 0.21586 0.26821
#
# Static dielectric constant tensor:
#      x y z
#    x 1.615970 0.000000 0.000000 
#    y 0.000000 1.595670 0.000000 
#    z 0.000000 0.000000 1.600600 
# 
# From -- ./inp_files/34473.got.cif
#   From: 2010.05.17/outbox.cif.g08.bks.cpg/sg64_18_cif.got.tgz:34473.got - 2010.06.03 16:29:19.
