data_PCOD9476846
_publ_section_title
;
Structure prediction by ZEFSAII (Michael W. Deem and Ramdas Pophale) SiO2 
 PCOD9476846
Probable space group: C M C A
;
_chemical_formula_sum "Si O2"
_cell_formula_units_Z 80
_cell_length_a 14.600473
_cell_length_b 22.482045
_cell_length_c 14.595658
_cell_angle_alpha 90.000000
_cell_angle_beta 90.000000
_cell_angle_gamma 90.000000
_cell_volume 4791.002714
_symmetry_space_group_name_H-M "C M C A"
_symmetry_group_IT_number 64
_symmetry_cell_setting 'orthorhombic'
loop_
_space_group_symop_operation_xyz
x,y,z
-x,1/2-y,1/2+z
x,-y,-z
-x,1/2+y,1/2-z
-x,-y,-z
x,1/2+y,1/2-z
-x,y,z
x,1/2-y,1/2+z
1/2+x,1/2+y,z
1/2-x,-y,1/2+z
1/2+x,1/2-y,-z
1/2-x,y,1/2-z
1/2-x,1/2-y,-z
1/2+x,y,1/2-z
1/2-x,1/2+y,z
1/2+x,-y,1/2+z
loop_
_atom_site_type_symbol
_atom_site_label
_atom_site_fract_x
_atom_site_fract_y
_atom_site_fract_z
Si Si1 0.808506 0.144804 0.661605
Si Si2 0.227056 0.181505 0.020547
Si Si3 0.500000 0.583934 0.596815
Si Si4 0.895306 0.774075 0.833485
Si Si5 0.834927 0.628970 0.189721
Si Si6 0.500000 0.057784 0.115915
O O1 0.750000 0.124320 0.750000
O O2 0.742021 0.145178 0.572493
O O3 0.905228 0.111857 0.637758
O O4 0.836274 0.214186 0.675622
O O5 0.132535 0.187954 0.076325
O O6 0.296351 0.154816 0.095066
O O7 0.250000 0.250000 0.000000
O O8 0.500000 0.513092 0.611837
O O9 0.500000 0.588023 0.485525
O O10 0.876446 0.816476 0.747555
O O11 0.000000 0.756245 0.838782
O O12 0.750000 0.605802 0.250000
O O13 0.910922 0.580820 0.168541
#
# Coordination Sequence:
#
# PCOD9476846 Si02
#       6
#    16  16   8  16  16   8
#     4  11  21  38  54  79 116 147 185 230 283 339
#     4   9  18  32  50  78 113 143 170 216 276 333
#     4  11  24  39  58  79 105 156 202 233 271 326
#     4  10  18  31  55  87 114 144 177 218 285 349
#     4  10  19  34  58  85 110 139 179 232 282 332
#     4  11  22  39  60  81 105 146 204 235 269 330
#
# _framework density 16.697966000000001
#
# number of rings (size 3 to 8) (size 9 to 14) (size 15 to 20)
#    0.000    1.800    4.000    3.000    0.000    0.800 
#    1.800    0.000    0.000    0.000    0.000    2.800 
#    0.000    0.000    0.000    0.000    0.000    0.000 
#
# Total GULP energy -222748.812253 kJ/mol
# GULP energy per Si atom -5568.720306 kJ/mol
# Density = 1.665996 g / cm^3
# Si number density = 16.697966 Si / 1000 Ang^3
#
#
#
# Elastic Constant Matrix: (Units=GPa)
#
#
# Indices 1 2 3 4 5 6 
#
# 1 86.8331 27.4787 40.2492 0.0000 0.0000 0.0000
# 2 27.4787 54.0558 28.5460 0.0000 0.0000 0.0000
# 3 40.2492 28.5460 123.6606 0.0000 0.0000 0.0000
# 4 0.0000 0.0000 0.0000 20.0234 0.0000 0.0000
# 5 0.0000 0.0000 0.0000 0.0000 13.5696 0.0000
# 6 0.0000 0.0000 0.0000 0.0000 0.0000 7.6761
#
#
#
# Elastic Compliance Matrix: (Units=1/GPa)
#
#
# Indices 1 2 3 4 5 6 
#
# 1 0.014978 -0.005739 -0.003550 0.000000 0.000000 0.000000
# 2 -0.005739 0.023267 -0.003503 0.000000 0.000000 0.000000
# 3 -0.003550 -0.003503 0.010051 0.000000 0.000000 0.000000
# 4 0.000000 0.000000 0.000000 0.049942 0.000000 0.000000
# 5 0.000000 0.000000 0.000000 0.000000 0.073694 0.000000
# 6 0.000000 0.000000 0.000000 0.000000 0.000000 0.130274
#
#
# Mechanical properties :
#
#
# Convention : Reuss Voigt Hill
#
# Bulk Modulus (GPa) = 44.03163 50.78859 47.41011
# Shear Modulus (GPa) = 14.90931 19.47218 17.19074
#
# Velocity S-wave (km/s) = 2.99135 3.41859 3.21208
# Velocity P-wave (km/s) = 6.19335 6.78707 6.49700
#
# Compressibility (1/GPa) = 0.02271095
#
# Stress axis : x y z
#
# Youngs Moduli (GPa) = 66.76382 42.97994 99.49435
#
# Poissons Ratio (x) = 0.24667 0.35323
# Poissons Ratio (y) = 0.38317 0.34852
# Poissons Ratio (z) = 0.23703 0.15056
#
# Static dielectric constant tensor:
#      x y z
#    x 1.569920 0.000000 0.000000 
#    y 0.000000 1.553490 0.000000 
#    z 0.000000 0.000000 1.569550 
# 
# From -- ./inp_files/14485.got.cif
#   From: 2010.05.17/outbox.cif.g08.bks.cpg/sg64_8_cif.got.tgz:14485.got - 2010.06.03 16:29:19.
