data_PCOD9476853
_publ_section_title
;
Structure prediction by ZEFSAII (Michael W. Deem and Ramdas Pophale) SiO2 
 PCOD9476853
Probable space group: C M C A
;
_chemical_formula_sum "Si O2"
_cell_formula_units_Z 96
_cell_length_a 15.774015
_cell_length_b 25.494649
_cell_length_c 12.857181
_cell_angle_alpha 90.000000
_cell_angle_beta 90.000000
_cell_angle_gamma 90.000000
_cell_volume 5170.553599
_symmetry_space_group_name_H-M "C M C A"
_symmetry_group_IT_number 64
_symmetry_cell_setting 'orthorhombic'
loop_
_space_group_symop_operation_xyz
x,y,z
-x,1/2-y,1/2+z
x,-y,-z
-x,1/2+y,1/2-z
-x,-y,-z
x,1/2+y,1/2-z
-x,y,z
x,1/2-y,1/2+z
1/2+x,1/2+y,z
1/2-x,-y,1/2+z
1/2+x,1/2-y,-z
1/2-x,y,1/2-z
1/2-x,1/2-y,-z
1/2+x,y,1/2-z
1/2-x,1/2+y,z
1/2+x,-y,1/2+z
loop_
_atom_site_type_symbol
_atom_site_label
_atom_site_fract_x
_atom_site_fract_y
_atom_site_fract_z
Si Si1 0.398708 0.603761 0.863619
Si Si2 0.646590 0.789696 0.758812
Si Si3 0.902448 0.178652 0.680980
Si Si4 0.696218 0.696323 0.474844
Si Si5 0.842005 0.622316 0.401398
Si Si6 0.902076 0.489459 0.623988
O O1 0.500000 0.600111 0.854650
O O2 0.368506 0.645340 0.778753
O O3 0.366929 0.545106 0.836775
O O4 0.383080 0.620439 0.983163
O O5 0.750000 0.782249 0.750000
O O6 0.602330 0.739155 0.712815
O O7 0.630722 0.792012 0.881922
O O8 0.621741 0.839412 0.688022
O O9 0.846279 0.175232 0.578608
O O10 0.000000 0.163609 0.660657
O O11 0.750000 0.750000 0.500000
O O12 0.753071 0.649695 0.427324
O O13 0.847727 0.562892 0.360431
O O14 0.906351 0.500000 0.500000
O O15 0.000000 0.480189 0.658437
#
# Coordination Sequence:
#
# PCOD9476853 Si02
#       6
#    16  16  16  16  16  16
#     4   9  19  34  56  85 117 146 183 238 287 330
#     4  10  21  36  55  79 111 152 185 232 286 326
#     4  11  23  36  56  84 114 153 193 224 276 350
#     4  11  21  38  56  77 116 154 182 231 283 332
#     4  10  18  31  59  81 110 146 184 230 286 330
#     4   8  15  31  54  82 113 143 183 235 283 321
#
# _framework density 18.566678
#
# number of rings (size 3 to 8) (size 9 to 14) (size 15 to 20)
#    0.000    2.167    3.333    2.500    0.000    2.000 
#    0.000    0.000   33.000    0.000    0.000    3.500 
#    0.000    0.000    0.000    0.000    0.000    0.000 
#
# Total GULP energy -267235.912107 kJ/mol
# GULP energy per Si atom -5567.414836 kJ/mol
# Density = 1.852442 g / cm^3
# Si number density = 18.566678 Si / 1000 Ang^3
#
#
#
# Elastic Constant Matrix: (Units=GPa)
#
#
# Indices 1 2 3 4 5 6 
#
# 1 22.7227 5.4384 -0.4588 0.0000 0.0000 0.0000
# 2 5.4384 101.4883 30.0465 0.0000 0.0000 0.0000
# 3 -0.4588 30.0465 102.4301 0.0000 0.0000 0.0000
# 4 0.0000 0.0000 0.0000 30.2994 0.0000 0.0000
# 5 0.0000 0.0000 0.0000 0.0000 18.3675 0.0000
# 6 0.0000 0.0000 0.0000 0.0000 0.0000 18.0011
#
#
#
# Elastic Compliance Matrix: (Units=1/GPa)
#
#
# Indices 1 2 3 4 5 6 
#
# 1 0.044672 -0.002686 0.000988 0.000000 0.000000 0.000000
# 2 -0.002686 0.010952 -0.003225 0.000000 0.000000 0.000000
# 3 0.000988 -0.003225 0.010713 0.000000 0.000000 0.000000
# 4 0.000000 0.000000 0.000000 0.033004 0.000000 0.000000
# 5 0.000000 0.000000 0.000000 0.000000 0.054444 0.000000
# 6 0.000000 0.000000 0.000000 0.000000 0.000000 0.055552
#
#
# Mechanical properties :
#
#
# Convention : Reuss Voigt Hill
#
# Bulk Modulus (GPa) = 17.70191 32.96592 25.33391
# Shear Modulus (GPa) = 21.00724 26.10792 23.55758
#
# Velocity S-wave (km/s) = 3.36735 3.75396 3.56590
# Velocity P-wave (km/s) = 4.96726 6.04844 5.53431
#
# Compressibility (1/GPa) = 0.05649108
#
# Stress axis : x y z
#
# Youngs Moduli (GPa) = 22.38549 91.30753 93.34368
#
# Poissons Ratio (x) = 0.24528 -0.09223
# Poissons Ratio (y) = 0.06014 0.30100
# Poissons Ratio (z) = -0.02212 0.29444
#
# Static dielectric constant tensor:
#      x y z
#    x 1.680920 0.000000 0.000000 
#    y 0.000000 1.679660 0.000000 
#    z 0.000000 0.000000 1.682980 
# 
# From -- ./inp_files/16343.got.cif
#   From: 2010.05.17/outbox.cif.g08.bks.cpg/sg64_9_cif.got.tgz:16343.got - 2010.06.03 16:29:19.
