data_PCOD9476598
_publ_section_title
;
Structure prediction by ZEFSAII (Michael W. Deem and Ramdas Pophale) SiO2 
 PCOD9476598
Probable space group: C M C A
;
_chemical_formula_sum "Si O2"
_cell_formula_units_Z 88
_cell_length_a 21.854730
_cell_length_b 20.146052
_cell_length_c 7.838270
_cell_angle_alpha 90.000000
_cell_angle_beta 90.000000
_cell_angle_gamma 90.000000
_cell_volume 3451.084676
_symmetry_space_group_name_H-M "C M C A"
_symmetry_group_IT_number 64
_symmetry_cell_setting 'orthorhombic'
loop_
_space_group_symop_operation_xyz
x,y,z
-x,1/2-y,1/2+z
x,-y,-z
-x,1/2+y,1/2-z
-x,-y,-z
x,1/2+y,1/2-z
-x,y,z
x,1/2-y,1/2+z
1/2+x,1/2+y,z
1/2-x,-y,1/2+z
1/2+x,1/2-y,-z
1/2-x,y,1/2-z
1/2-x,1/2-y,-z
1/2+x,y,1/2-z
1/2-x,1/2+y,z
1/2+x,-y,1/2+z
loop_
_atom_site_type_symbol
_atom_site_label
_atom_site_fract_x
_atom_site_fract_y
_atom_site_fract_z
Si Si1 0.363085 0.540809 0.735225
Si Si2 0.190975 0.834831 0.366393
Si Si3 0.000000 0.122190 0.041364
Si Si4 0.500000 0.191759 0.118746
Si Si5 0.633092 0.408483 0.890866
Si Si6 0.000000 0.585937 0.827391
Si Si7 0.865803 0.276728 0.822709
O O1 0.328071 0.589125 0.607018
O O2 0.345271 0.464648 0.759959
O O3 0.435554 0.547388 0.692272
O O4 0.345550 0.574104 0.919082
O O5 0.250000 0.829733 0.250000
O O6 0.187348 0.796010 0.544116
O O7 0.140661 0.795385 0.255666
O O8 0.939817 0.081845 0.088164
O O9 0.000000 0.182044 0.175334
O O10 0.000000 0.134786 0.839269
O O11 0.432390 0.220183 0.088832
O O12 0.500000 0.124703 0.005752
O O13 0.640547 0.334348 0.821106
#
# Coordination Sequence:
#
# PCOD9476598 Si02
#       7
#    16  16   8   8  16   8  16
#     4  10  20  38  66  96 131 171 213 268 337 404
#     4  12  26  45  64  88 125 178 229 274 329 394
#     4   8  17  32  58  96 139 175 199 254 331 427
#     4  10  20  39  63 104 131 164 219 270 338 401
#     4   9  19  38  63  98 133 167 210 265 336 407
#     4  10  17  35  64  94 136 173 209 262 342 401
#     4  11  24  43  66  95 130 169 221 273 336 402
#
# _framework density 25.499231000000002
#
# number of rings (size 3 to 8) (size 9 to 14) (size 15 to 20)
#    0.000    1.818    1.818    2.182    0.000    4.364 
#    0.000    8.182    0.000    0.000    0.000    0.000 
#    0.000    0.000    0.000    0.000    0.000    0.000 
#
# Total GULP energy -245922.636186 kJ/mol
# GULP energy per Si atom -5589.150822 kJ/mol
# Density = 2.544119 g / cm^3
# Si number density = 25.499231 Si / 1000 Ang^3
#
#
#
# Elastic Constant Matrix: (Units=GPa)
#
#
# Indices 1 2 3 4 5 6 
#
# 1 48.0773 -1.7953 15.8163 0.0000 0.0000 0.0000
# 2 -1.7953 99.9443 18.2701 0.0000 0.0000 0.0000
# 3 15.8163 18.2701 101.0066 0.0000 0.0000 0.0000
# 4 0.0000 0.0000 0.0000 38.7417 0.0000 0.0000
# 5 0.0000 0.0000 0.0000 0.0000 1.3879 0.0000
# 6 0.0000 0.0000 0.0000 0.0000 0.0000 -15.7449
#
#
#
# Elastic Compliance Matrix: (Units=1/GPa)
#
#
# Indices 1 2 3 4 5 6 
#
# 1 0.022038 0.001062 -0.003643 0.000000 0.000000 0.000000
# 2 0.001062 0.010399 -0.002047 0.000000 0.000000 0.000000
# 3 -0.003643 -0.002047 0.010841 0.000000 0.000000 0.000000
# 4 0.000000 0.000000 0.000000 0.025812 0.000000 0.000000
# 5 0.000000 0.000000 0.000000 0.000000 0.720520 0.000000
# 6 0.000000 0.000000 0.000000 0.000000 0.000000 -0.063513
#
#
# Mechanical properties :
#
#
# Convention : Reuss Voigt Hill
#
# Bulk Modulus (GPa) = 29.39341 34.84560 32.11950
# Shear Modulus (GPa) = 6.69618 19.32608 13.01113
#
# Velocity S-wave (km/s) = 1.62226 2.75600 2.26133
# Velocity P-wave (km/s) = 3.88087 4.88082 4.40928
#
# Compressibility (1/GPa) = 0.03402123
#
# Stress axis : x y z
#
# Youngs Moduli (GPa) = 45.37636 96.16414 92.24179
#
# Poissons Ratio (x) = -0.10211 0.33603
# Poissons Ratio (y) = -0.04818 0.18884
# Poissons Ratio (z) = 0.16530 0.19687
#
# Static dielectric constant tensor:
#      x y z
#    x 1.995990 0.000000 0.000000 
#    y 0.000000 1.993140 0.000000 
#    z 0.000000 0.000000 2.043980 
# 
# From -- ./inp_files/9370.got.cif
#   From: 2010.05.17/outbox.cif.g08.bks.cpg/sg64_5_cif.got.tgz:9370.got - 2010.06.03 16:29:19.
