data_PCOD9476018
_publ_section_title
;
Structure prediction by ZEFSAII (Michael W. Deem and Ramdas Pophale) SiO2 
 PCOD9476018
Probable space group: C M C M
;
_chemical_formula_sum "Si O2"
_cell_formula_units_Z 96
_cell_length_a 7.420331
_cell_length_b 24.680884
_cell_length_c 27.199228
_cell_angle_alpha 90.000000
_cell_angle_beta 90.000000
_cell_angle_gamma 90.000000
_cell_volume 4981.275555
_symmetry_space_group_name_H-M "C M C M"
_symmetry_group_IT_number 63
_symmetry_cell_setting 'orthorhombic'
loop_
_space_group_symop_operation_xyz
x,y,z
-x,-y,1/2+z
x,-y,-z
-x,y,1/2-z
-x,-y,-z
x,y,1/2-z
-x,y,z
x,-y,1/2+z
1/2+x,1/2+y,z
1/2-x,1/2-y,1/2+z
1/2+x,1/2-y,-z
1/2-x,1/2+y,1/2-z
1/2-x,1/2-y,-z
1/2+x,1/2+y,1/2-z
1/2-x,1/2+y,z
1/2+x,1/2-y,1/2+z
loop_
_atom_site_type_symbol
_atom_site_label
_atom_site_fract_x
_atom_site_fract_y
_atom_site_fract_z
Si Si1 0.715363 0.338053 0.194524
Si Si2 0.293750 0.242252 0.126310
Si Si3 0.718332 0.177649 0.959083
Si Si4 0.720161 0.022732 0.446255
Si Si5 0.215251 0.420262 0.110127
Si Si6 0.779052 0.353511 0.566731
O O1 0.784329 0.341979 0.250000
O O2 0.500000 0.331388 0.196776
O O3 0.787387 0.285402 0.164769
O O4 0.743743 0.391686 0.161761
O O5 0.500000 0.233073 0.141953
O O6 0.292981 0.274762 0.074653
O O7 0.216029 0.183772 0.112015
O O8 0.500000 0.181182 0.957663
O O9 0.773805 0.122256 0.931719
O O10 0.776240 0.173923 0.015200
O O11 0.500000 0.024105 0.447125
O O12 0.778063 0.083993 0.435382
O O13 0.773969 0.000000 0.500000
O O14 0.780056 0.979617 0.405020
O O15 0.000000 0.422544 0.107090
O O16 0.000000 0.353017 0.567471
#
# Coordination Sequence:
#
# PCOD9476018 Si02
#       6
#    16  16  16  16  16  16
#     4   9  18  32  47  60  79 110 143 177 222 266
#     4   9  17  27  40  60  83 107 140 178 210 245
#     4   9  15  24  39  60  86 114 140 166 201 246
#     4   9  14  23  40  63  91 120 144 165 199 253
#     4   9  16  26  44  68  88 108 141 181 209 242
#     4   9  15  23  38  60  87 116 143 166 197 247
#
# _framework density 19.272171
#
# number of rings (size 3 to 8) (size 9 to 14) (size 15 to 20)
#    0.000    3.000    1.667    0.500    0.000    0.333 
#    0.000    0.000    0.000    3.500    0.000    4.667 
#    0.000    0.000    0.000    0.000    0.000    0.000 
#
# Total GULP energy -267531.582995 kJ/mol
# GULP energy per Si atom -5573.574646 kJ/mol
# Density = 1.922831 g / cm^3
# Si number density = 19.272171 Si / 1000 Ang^3
#
#
#
# Elastic Constant Matrix: (Units=GPa)
#
#
# Indices 1 2 3 4 5 6 
#
# 1 59.1103 -2.6902 -2.3899 0.0000 0.0000 0.0000
# 2 -2.6902 111.2643 66.7345 0.0000 0.0000 0.0000
# 3 -2.3899 66.7345 125.9556 0.0000 0.0000 0.0000
# 4 0.0000 0.0000 0.0000 11.3734 0.0000 0.0000
# 5 0.0000 0.0000 0.0000 0.0000 14.9304 0.0000
# 6 0.0000 0.0000 0.0000 0.0000 0.0000 21.6940
#
#
#
# Elastic Compliance Matrix: (Units=1/GPa)
#
#
# Indices 1 2 3 4 5 6 
#
# 1 0.016938 0.000318 0.000153 0.000000 0.000000 0.000000
# 2 0.000318 0.013180 -0.006977 0.000000 0.000000 0.000000
# 3 0.000153 -0.006977 0.011639 0.000000 0.000000 0.000000
# 4 0.000000 0.000000 0.000000 0.087925 0.000000 0.000000
# 5 0.000000 0.000000 0.000000 0.000000 0.066977 0.000000
# 6 0.000000 0.000000 0.000000 0.000000 0.000000 0.046096
#
#
# Mechanical properties :
#
#
# Convention : Reuss Voigt Hill
#
# Bulk Modulus (GPa) = 34.78931 46.62654 40.70793
# Shear Modulus (GPa) = 18.84311 25.24461 22.04386
#
# Velocity S-wave (km/s) = 3.13027 3.62318 3.38571
# Velocity P-wave (km/s) = 5.58172 6.46138 6.03759
#
# Compressibility (1/GPa) = 0.02874446
#
# Stress axis : x y z
#
# Youngs Moduli (GPa) = 59.03823 75.87227 85.91906
#
# Poissons Ratio (x) = -0.02411 -0.01315
# Poissons Ratio (y) = -0.01876 0.59947
# Poissons Ratio (z) = -0.00904 0.52937
#
# Static dielectric constant tensor:
#      x y z
#    x 1.753450 0.000000 0.000000 
#    y 0.000000 1.705130 0.000000 
#    z 0.000000 0.000000 1.656020 
# 
# From -- ./inp_files/53057.got.cif
#   From: 2010.05.17/outbox.cif.g08.bks.cpg/sg63_27_cif.got.tgz:53057.got - 2010.06.03 15:47:04.
