data_PCOD9476497
_publ_section_title
;
Structure prediction by ZEFSAII (Michael W. Deem and Ramdas Pophale) SiO2 
 PCOD9476497
Probable space group: C M C A
;
_chemical_formula_sum "Si O2"
_cell_formula_units_Z 80
_cell_length_a 32.021066
_cell_length_b 18.596673
_cell_length_c 5.532165
_cell_angle_alpha 90.000000
_cell_angle_beta 90.000000
_cell_angle_gamma 90.000000
_cell_volume 3294.322899
_symmetry_space_group_name_H-M "C M C A"
_symmetry_group_IT_number 64
_symmetry_cell_setting 'orthorhombic'
loop_
_space_group_symop_operation_xyz
x,y,z
-x,1/2-y,1/2+z
x,-y,-z
-x,1/2+y,1/2-z
-x,-y,-z
x,1/2+y,1/2-z
-x,y,z
x,1/2-y,1/2+z
1/2+x,1/2+y,z
1/2-x,-y,1/2+z
1/2+x,1/2-y,-z
1/2-x,y,1/2-z
1/2-x,1/2-y,-z
1/2+x,y,1/2-z
1/2-x,1/2+y,z
1/2+x,-y,1/2+z
loop_
_atom_site_type_symbol
_atom_site_label
_atom_site_fract_x
_atom_site_fract_y
_atom_site_fract_z
Si Si1 0.408910 0.838801 0.051615
Si Si2 0.211447 0.330285 0.361425
Si Si3 0.624129 0.821811 0.552261
Si Si4 0.250000 0.069100 0.250000
Si Si5 0.000000 0.202532 0.505966
Si Si6 0.166741 0.974053 0.260603
O O1 0.400534 0.752835 0.070536
O O2 0.383512 0.859514 0.809134
O O3 0.458068 0.844922 0.010701
O O4 0.394408 0.863875 0.318836
O O5 0.250000 0.284258 0.250000
O O6 0.172645 0.297492 0.511563
O O7 0.239865 0.379864 0.529681
O O8 0.183918 0.391841 0.222568
O O9 0.209346 0.020939 0.267500
O O10 0.000000 0.250279 0.756072
O O11 0.142784 0.000000 0.500000
O O12 0.149006 0.000000 0.000000
#
# Coordination Sequence:
#
# PCOD9476497 Si02
#       6
#    16  16  16   8   8  16
#     4  10  20  38  50  76 102 132 158 207 256 296
#     4  11  21  31  49  70  94 140 181 206 258 289
#     4  10  21  33  50  69 107 130 166 212 252 283
#     4  10  18  32  46  68  90 122 180 216 254 286
#     4  12  16  32  64  82  90 130 170 188 260 334
#     4  10  17  30  47  65  90 113 169 216 254 287
#
# _framework density 24.284203000000002
#
# number of rings (size 3 to 8) (size 9 to 14) (size 15 to 20)
#    0.000    1.600    7.000    0.600    2.800    0.000 
#    0.000    4.000    0.000    0.000    0.000    0.000 
#    0.000    0.000    0.000  131.400    0.000    0.000 
#
# Total GULP energy -222893.060830 kJ/mol
# GULP energy per Si atom -5572.326521 kJ/mol
# Density = 2.422893 g / cm^3
# Si number density = 24.284203 Si / 1000 Ang^3
#
#
#
# Elastic Constant Matrix: (Units=GPa)
#
#
# Indices 1 2 3 4 5 6 
#
# 1 148.7224 10.7434 26.3989 0.0000 0.0000 0.0000
# 2 10.7434 33.5257 14.7977 0.0000 0.0000 0.0000
# 3 26.3989 14.7977 214.9162 0.0000 0.0000 0.0000
# 4 0.0000 0.0000 0.0000 23.5005 0.0000 0.0000
# 5 0.0000 0.0000 0.0000 0.0000 35.0338 0.0000
# 6 0.0000 0.0000 0.0000 0.0000 0.0000 38.4675
#
#
#
# Elastic Compliance Matrix: (Units=1/GPa)
#
#
# Indices 1 2 3 4 5 6 
#
# 1 0.006992 -0.001920 -0.000727 0.000000 0.000000 0.000000
# 2 -0.001920 0.031290 -0.001919 0.000000 0.000000 0.000000
# 3 -0.000727 -0.001919 0.004874 0.000000 0.000000 0.000000
# 4 0.000000 0.000000 0.000000 0.042552 0.000000 0.000000
# 5 0.000000 0.000000 0.000000 0.000000 0.028544 0.000000
# 6 0.000000 0.000000 0.000000 0.000000 0.000000 0.025996
#
#
# Mechanical properties :
#
#
# Convention : Reuss Voigt Hill
#
# Bulk Modulus (GPa) = 29.38941 55.67159 42.53050
# Shear Modulus (GPa) = 31.11001 42.41530 36.76266
#
# Velocity S-wave (km/s) = 3.58310 4.18379 3.89504
# Velocity P-wave (km/s) = 5.40802 6.80541 6.14656
#
# Compressibility (1/GPa) = 0.03402586
#
# Stress axis : x y z
#
# Youngs Moduli (GPa) = 143.02884 31.95920 205.15635
#
# Poissons Ratio (x) = 0.06135 0.14907
# Poissons Ratio (y) = 0.27458 0.39361
# Poissons Ratio (z) = 0.10393 0.06132
#
# Static dielectric constant tensor:
#      x y z
#    x 1.979020 0.000000 0.000000 
#    y 0.000000 2.195480 0.000000 
#    z 0.000000 0.000000 2.330660 
# 
# From -- ./inp_files/3285.got.cif
#   From: 2010.05.17/outbox.cif.g08.bks.cpg/sg64_2_cif.got.tgz:3285.got - 2010.06.03 16:29:19.
