data_PCOD9476913
_publ_section_title
;
Structure prediction by ZEFSAII (Michael W. Deem and Ramdas Pophale) SiO2 
 PCOD9476913
Probable space group: C M C A
;
_chemical_formula_sum "Si O2"
_cell_formula_units_Z 64
_cell_length_a 8.691045
_cell_length_b 25.368475
_cell_length_c 14.853624
_cell_angle_alpha 90.000000
_cell_angle_beta 90.000000
_cell_angle_gamma 90.000000
_cell_volume 3274.905598
_symmetry_space_group_name_H-M "C M C A"
_symmetry_group_IT_number 64
_symmetry_cell_setting 'orthorhombic'
loop_
_space_group_symop_operation_xyz
x,y,z
-x,1/2-y,1/2+z
x,-y,-z
-x,1/2+y,1/2-z
-x,-y,-z
x,1/2+y,1/2-z
-x,y,z
x,1/2-y,1/2+z
1/2+x,1/2+y,z
1/2-x,-y,1/2+z
1/2+x,1/2-y,-z
1/2-x,y,1/2-z
1/2-x,1/2-y,-z
1/2+x,y,1/2-z
1/2-x,1/2+y,z
1/2+x,-y,1/2+z
loop_
_atom_site_type_symbol
_atom_site_label
_atom_site_fract_x
_atom_site_fract_y
_atom_site_fract_z
Si Si1 0.317191 0.639946 0.149462
Si Si2 0.183613 0.858329 0.350166
Si Si3 0.184752 0.438951 0.992981
Si Si4 0.683711 0.250933 0.648045
O O1 0.500000 0.645160 0.154874
O O2 0.250000 0.633231 0.250000
O O3 0.247185 0.694332 0.109743
O O4 0.267551 0.591561 0.087495
O O5 0.250000 0.866577 0.250000
O O6 0.218308 0.906917 0.415569
O O7 0.254784 0.804256 0.389525
O O8 0.000000 0.851659 0.343719
O O9 0.000000 0.436293 0.978215
O O10 0.228907 0.500000 0.000000
O O11 0.500000 0.251506 0.648697
O O12 0.750000 0.250699 0.750000
#
# Coordination Sequence:
#
# PCOD9476913 Si02
#       4
#    16  16  16  16
#     4  11  22  38  61  87 117 151 189 234 286 342
#     4  10  20  36  59  85 116 150 186 232 285 340
#     4  10  23  42  60  82 114 152 196 242 284 332
#     4  10  18  32  56  85 117 148 184 229 281 342
#
# _framework density 19.542546999999999
#
# number of rings (size 3 to 8) (size 9 to 14) (size 15 to 20)
#    0.000    1.750    0.000    8.250    0.000    4.500 
#    0.000    2.500    0.000    0.000    0.000    0.000 
#    0.000    0.000    0.000    0.000    0.000    0.000 
#
# Total GULP energy -178819.394943 kJ/mol
# GULP energy per Si atom -5588.106092 kJ/mol
# Density = 1.949807 g / cm^3
# Si number density = 19.542547 Si / 1000 Ang^3
#
#
#
# Elastic Constant Matrix: (Units=GPa)
#
#
# Indices 1 2 3 4 5 6 
#
# 1 135.8034 94.0032 61.7061 0.0000 0.0000 0.0000
# 2 94.0032 207.8400 75.1018 0.0000 0.0000 0.0000
# 3 61.7061 75.1018 104.7182 0.0000 0.0000 0.0000
# 4 0.0000 0.0000 0.0000 32.3005 0.0000 0.0000
# 5 0.0000 0.0000 0.0000 0.0000 54.3127 0.0000
# 6 0.0000 0.0000 0.0000 0.0000 0.0000 29.7048
#
#
#
# Elastic Compliance Matrix: (Units=1/GPa)
#
#
# Indices 1 2 3 4 5 6 
#
# 1 0.011995 -0.003875 -0.004289 0.000000 0.000000 0.000000
# 2 -0.003875 0.007747 -0.003272 0.000000 0.000000 0.000000
# 3 -0.004289 -0.003272 0.014423 0.000000 0.000000 0.000000
# 4 0.000000 0.000000 0.000000 0.030959 0.000000 0.000000
# 5 0.000000 0.000000 0.000000 0.000000 0.018412 0.000000
# 6 0.000000 0.000000 0.000000 0.000000 0.000000 0.033665
#
#
# Mechanical properties :
#
#
# Convention : Reuss Voigt Hill
#
# Bulk Modulus (GPa) = 88.55582 101.10930 94.83256
# Shear Modulus (GPa) = 34.76164 37.76696 36.26430
#
# Velocity S-wave (km/s) = 4.22212 4.40085 4.31241
# Velocity P-wave (km/s) = 8.31752 8.81326 8.56898
#
# Compressibility (1/GPa) = 0.01129231
#
# Stress axis : x y z
#
# Youngs Moduli (GPa) = 83.36921 129.09031 69.33260
#
# Poissons Ratio (x) = 0.50028 0.29735
# Poissons Ratio (y) = 0.32309 0.22686
# Poissons Ratio (z) = 0.35755 0.42239
#
# Static dielectric constant tensor:
#      x y z
#    x 1.652990 0.000000 0.000000 
#    y 0.000000 1.699420 0.000000 
#    z 0.000000 0.000000 2.181650 
# 
# From -- ./inp_files/20869.got.cif
#   From: 2010.05.17/outbox.cif.g08.bks.cpg/sg64_11_cif.got.tgz:20869.got - 2010.06.03 16:29:19.
