data_PCOD9476907
_publ_section_title
;
Structure prediction by ZEFSAII (Michael W. Deem and Ramdas Pophale) SiO2 
 PCOD9476907
Probable space group: C M C A
;
_chemical_formula_sum "Si O2"
_cell_formula_units_Z 64
_cell_length_a 20.985772
_cell_length_b 17.286164
_cell_length_c 8.267828
_cell_angle_alpha 90.000000
_cell_angle_beta 90.000000
_cell_angle_gamma 90.000000
_cell_volume 2999.266193
_symmetry_space_group_name_H-M "C M C A"
_symmetry_group_IT_number 64
_symmetry_cell_setting 'orthorhombic'
loop_
_space_group_symop_operation_xyz
x,y,z
-x,1/2-y,1/2+z
x,-y,-z
-x,1/2+y,1/2-z
-x,-y,-z
x,1/2+y,1/2-z
-x,y,z
x,1/2-y,1/2+z
1/2+x,1/2+y,z
1/2-x,-y,1/2+z
1/2+x,1/2-y,-z
1/2-x,y,1/2-z
1/2-x,1/2-y,-z
1/2+x,y,1/2-z
1/2-x,1/2+y,z
1/2+x,-y,1/2+z
loop_
_atom_site_type_symbol
_atom_site_label
_atom_site_fract_x
_atom_site_fract_y
_atom_site_fract_z
Si Si1 0.366140 0.861747 0.063853
Si Si2 0.130795 0.191698 0.933893
Si Si3 0.000000 0.692026 0.391382
Si Si4 0.500000 0.363356 0.520460
Si Si5 0.235762 0.079843 0.061336
O O1 0.367966 0.833172 0.248106
O O2 0.363499 0.784140 0.953463
O O3 0.432815 0.902562 0.019386
O O4 0.302479 0.909021 0.031662
O O5 0.064381 0.167289 0.017692
O O6 0.189390 0.150548 0.021992
O O7 0.000000 0.665004 0.206451
O O8 0.000000 0.785569 0.408273
O O9 0.250000 0.076089 0.250000
O O10 0.205315 0.000000 0.000000
#
# Coordination Sequence:
#
# PCOD9476907 Si02
#       5
#    16  16   8   8  16
#     4  11  21  37  60  88 117 151 190 235 283 336
#     4  11  21  37  60  88 117 151 190 235 283 336
#     4  10  18  32  55  86 117 148 185 234 284 334
#     4  10  18  32  55  86 117 148 185 234 284 334
#     4  12  25  42  59  82 114 152 192 236 285 340
#
# _framework density 21.338553000000001
#
# number of rings (size 3 to 8) (size 9 to 14) (size 15 to 20)
#    0.000    1.000    0.000   12.750    0.000    0.000 
#    0.000    1.250    0.000    0.000    0.000    0.000 
#    0.000    0.000    0.000    0.000    0.000    0.000 
#
# Total GULP energy -179068.385677 kJ/mol
# GULP energy per Si atom -5595.887052 kJ/mol
# Density = 2.128999 g / cm^3
# Si number density = 21.338553 Si / 1000 Ang^3
#
#
#
# Elastic Constant Matrix: (Units=GPa)
#
#
# Indices 1 2 3 4 5 6 
#
# 1 112.2042 11.8660 -8.2905 0.0000 0.0000 0.0000
# 2 11.8660 44.3028 -2.7788 0.0000 0.0000 0.0000
# 3 -8.2905 -2.7788 112.9442 0.0000 0.0000 0.0000
# 4 0.0000 0.0000 0.0000 20.0350 0.0000 0.0000
# 5 0.0000 0.0000 0.0000 0.0000 16.9792 0.0000
# 6 0.0000 0.0000 0.0000 0.0000 0.0000 -25.3895
#
#
#
# Elastic Compliance Matrix: (Units=1/GPa)
#
#
# Indices 1 2 3 4 5 6 
#
# 1 0.009215 -0.002429 0.000617 0.000000 0.000000 0.000000
# 2 -0.002429 0.023247 0.000394 0.000000 0.000000 0.000000
# 3 0.000617 0.000394 0.008909 0.000000 0.000000 0.000000
# 4 0.000000 0.000000 0.000000 0.049913 0.000000 0.000000
# 5 0.000000 0.000000 0.000000 0.000000 0.058895 0.000000
# 6 0.000000 0.000000 0.000000 0.000000 0.000000 -0.039386
#
#
# Mechanical properties :
#
#
# Convention : Reuss Voigt Hill
#
# Bulk Modulus (GPa) = 25.95198 30.11607 28.03403
# Shear Modulus (GPa) = 39.53339 20.23523 29.88431
#
# Velocity S-wave (km/s) = 4.30894 3.08278 3.74636
# Velocity P-wave (km/s) = 6.07819 5.17837 5.64623
#
# Compressibility (1/GPa) = 0.03853271
#
# Stress axis : x y z
#
# Youngs Moduli (GPa) = 108.52104 43.01568 112.24757
#
# Poissons Ratio (x) = 0.10450 -0.06921
# Poissons Ratio (y) = 0.26364 -0.04418
# Poissons Ratio (z) = -0.06692 -0.01693
#
# Static dielectric constant tensor:
#      x y z
#    x 1.806030 0.000000 0.000000 
#    y 0.000000 1.742970 0.000000 
#    z 0.000000 0.000000 1.741190 
# 
# From -- ./inp_files/7800.got.cif
#   From: 2010.05.17/outbox.cif.g08.bks.cpg/sg64_4_cif.got.tgz:7800.got - 2010.06.03 16:29:19.
