data_PCOD9476997
_publ_section_title
;
Structure prediction by ZEFSAII (Michael W. Deem and Ramdas Pophale) SiO2 
 PCOD9476997
Probable space group: C M C A
;
_chemical_formula_sum "Si O2"
_cell_formula_units_Z 72
_cell_length_a 18.257641
_cell_length_b 7.977643
_cell_length_c 21.259543
_cell_angle_alpha 90.000000
_cell_angle_beta 90.000000
_cell_angle_gamma 90.000000
_cell_volume 3096.514982
_symmetry_space_group_name_H-M "C M C A"
_symmetry_group_IT_number 64
_symmetry_cell_setting 'orthorhombic'
loop_
_space_group_symop_operation_xyz
x,y,z
-x,1/2-y,1/2+z
x,-y,-z
-x,1/2+y,1/2-z
-x,-y,-z
x,1/2+y,1/2-z
-x,y,z
x,1/2-y,1/2+z
1/2+x,1/2+y,z
1/2-x,-y,1/2+z
1/2+x,1/2-y,-z
1/2-x,y,1/2-z
1/2-x,1/2-y,-z
1/2+x,y,1/2-z
1/2-x,1/2+y,z
1/2+x,-y,1/2+z
loop_
_atom_site_type_symbol
_atom_site_label
_atom_site_fract_x
_atom_site_fract_y
_atom_site_fract_z
Si Si1 0.500000 0.657718 0.570437
Si Si2 0.500000 0.978467 0.399217
Si Si3 0.157018 0.485672 0.181650
Si Si4 0.129196 0.500000 0.500000
Si Si5 0.000000 0.131890 0.332687
Si Si6 0.750000 0.732867 0.250000
Si Si7 0.658630 0.155071 0.959345
O O1 0.500000 0.479574 0.603784
O O2 0.428687 0.672832 0.529479
O O3 0.500000 0.820879 0.617601
O O4 0.573727 0.960529 0.441643
O O5 0.500000 0.829933 0.348075
O O6 0.180845 0.343972 0.230632
O O7 0.220976 0.622145 0.192120
O O8 0.162768 0.399563 0.113442
O O9 0.077617 0.567496 0.195357
O O10 0.179017 0.341758 0.520056
O O11 0.683297 0.000000 0.000000
#
# Coordination Sequence:
#
# PCOD9476997 Si02
#       7
#     8   8  16   8   8   8  16
#     4   8  16  29  50  93 142 170 198 248 332 400
#     4   9  16  28  50  93 142 174 192 250 337 391
#     4  10  23  45  71  93 128 172 228 265 331 388
#     4   9  16  28  52  94 150 170 196 249 342 405
#     4  10  19  37  67 106 118 158 219 297 305 365
#     4  10  24  52  66  84 126 192 220 264 330 410
#     4  10  18  33  59  99 131 171 208 269 328 398
#
# _framework density 23.251944000000002
#
# number of rings (size 3 to 8) (size 9 to 14) (size 15 to 20)
#    0.000    2.444    0.000    3.667    0.000    0.889 
#   32.000    1.111    0.000    0.000    0.000    0.000 
#    0.000    0.000    0.000    0.000    0.000    0.000 
#
# Total GULP energy -200659.466696 kJ/mol
# GULP energy per Si atom -5573.874075 kJ/mol
# Density = 2.319902 g / cm^3
# Si number density = 23.251944 Si / 1000 Ang^3
#
#
#
# Elastic Constant Matrix: (Units=GPa)
#
#
# Indices 1 2 3 4 5 6 
#
# 1 129.4844 65.1182 21.8615 0.0000 0.0000 0.0000
# 2 65.1182 175.0566 50.9933 0.0000 0.0000 0.0000
# 3 21.8615 50.9933 58.3499 0.0000 0.0000 0.0000
# 4 0.0000 0.0000 0.0000 24.7410 0.0000 0.0000
# 5 0.0000 0.0000 0.0000 0.0000 29.9016 0.0000
# 6 0.0000 0.0000 0.0000 0.0000 0.0000 39.3308
#
#
#
# Elastic Compliance Matrix: (Units=1/GPa)
#
#
# Indices 1 2 3 4 5 6 
#
# 1 0.009518 -0.003356 -0.000633 0.000000 0.000000 0.000000
# 2 -0.003356 0.008847 -0.006474 0.000000 0.000000 0.000000
# 3 -0.000633 -0.006474 0.023033 0.000000 0.000000 0.000000
# 4 0.000000 0.000000 0.000000 0.040419 0.000000 0.000000
# 5 0.000000 0.000000 0.000000 0.000000 0.033443 0.000000
# 6 0.000000 0.000000 0.000000 0.000000 0.000000 0.025425
#
#
# Mechanical properties :
#
#
# Convention : Reuss Voigt Hill
#
# Bulk Modulus (GPa) = 48.84899 70.98186 59.91542
# Shear Modulus (GPa) = 29.68525 33.78919 31.73722
#
# Velocity S-wave (km/s) = 3.57694 3.81619 3.69850
# Velocity P-wave (km/s) = 6.17361 7.07187 6.63795
#
# Compressibility (1/GPa) = 0.02047125
#
# Stress axis : x y z
#
# Youngs Moduli (GPa) = 105.06910 113.03734 43.41621
#
# Poissons Ratio (x) = 0.37935 0.02748
# Poissons Ratio (y) = 0.35261 0.28107
# Poissons Ratio (z) = 0.06651 0.73179
#
# Static dielectric constant tensor:
#      x y z
#    x 1.906330 0.000000 0.000000 
#    y 0.000000 1.985320 0.000000 
#    z 0.000000 0.000000 1.859830 
# 
# From -- ./inp_files/40742.got.cif
#   From: 2010.05.17/outbox.cif.g08.bks.cpg/sg64_21_cif.got.tgz:40742.got - 2010.06.03 16:29:19.
