data_PCOD9476206
_publ_section_title
;
Structure prediction by ZEFSAII (Michael W. Deem and Ramdas Pophale) SiO2 
 PCOD9476206
Probable space group: C M C M
;
_chemical_formula_sum "Si O2"
_cell_formula_units_Z 44
_cell_length_a 18.000000
_cell_length_b 30.000000
_cell_length_c 9.000000
_cell_angle_alpha 90.000000
_cell_angle_beta 90.000000
_cell_angle_gamma 90.000000
_cell_volume 4860.000000
_symmetry_space_group_name_H-M "C M C M"
_symmetry_group_IT_number 63
_symmetry_cell_setting 'orthorhombic'
loop_
_space_group_symop_operation_xyz
x,y,z
-x,-y,1/2+z
x,-y,-z
-x,y,1/2-z
-x,-y,-z
x,y,1/2-z
-x,y,z
x,-y,1/2+z
1/2+x,1/2+y,z
1/2-x,1/2-y,1/2+z
1/2+x,1/2-y,-z
1/2-x,1/2+y,1/2-z
1/2-x,1/2-y,-z
1/2+x,1/2+y,1/2-z
1/2-x,1/2+y,z
1/2+x,1/2-y,1/2+z
loop_
_atom_site_type_symbol
_atom_site_label
_atom_site_fract_x
_atom_site_fract_y
_atom_site_fract_z
Si Si1 0.810675 0.716871 0.570642
Si Si2 0.088052 0.547962 0.573028
Si Si3 0.801746 0.618693 0.071685
Si Si4 0.417210 0.293739 0.929834
Si Si5 0.367233 0.608390 0.070974
Si Si6 0.500000 0.449978 0.069945
O O1 0.802365 0.714017 0.750000
O O2 0.750000 0.750000 0.500000
O O3 0.807718 0.668019 0.499649
O O4 0.884088 0.745618 0.533650
O O5 0.105121 0.500000 0.500000
O O6 0.101681 0.546464 0.750000
O O7 0.136969 0.586215 0.497565
O O8 0.000000 0.556372 0.550197
O O9 0.809579 0.622456 0.250000
O O10 0.719339 0.598582 0.042267
O O11 0.417434 0.295181 0.750000
O O12 0.500000 0.297739 0.987366
O O13 0.376229 0.339376 0.974287
O O14 0.380625 0.605108 0.250000
O O15 0.427496 0.577469 0.988803
O O16 0.500000 0.452245 0.250000
O O17 0.500000 0.500000 0.000000
#
# Coordination Sequence:
#
# PCOD9476206 Si02
#       6
#    16  16  16  16  16   8
#     4  11  21  35  56  86 121 160 204 249 299 357
#     4  10  22  42  67  93 122 159 200 248 309 374
#     4  11  23  39  62  93 126 163 206 254 307 362
#     4   9  17  33  58  82 109 153 202 241 288 350
#     4  10  20  39  63  85 115 159 203 247 302 363
#     4  12  26  42  62  90 120 156 202 256 311 362
#
# _framework density 9.0534979999999994
#
# number of rings (size 3 to 8) (size 9 to 14) (size 15 to 20)
#    0.000    1.636    2.727    2.455    0.000    4.000 
#    0.000    1.818    0.000    0.000    0.000    0.000 
#    0.000    0.000    0.000    0.000    0.000    0.000 
#
# Total GULP energy -245468.868004 kJ/mol
# GULP energy per Si atom -5578.837909 kJ/mol
# Density = 0.903289 g / cm^3
# Si number density = 9.053498 Si / 1000 Ang^3
#
#
#
# Elastic Constant Matrix: (Units=GPa)
#
#
# Indices 1 2 3 4 5 6 
#
# 1 98.8408 76.6020 55.8782 0.0000 0.0000 0.0000
# 2 76.6020 162.3808 70.5277 0.0000 0.0000 0.0000
# 3 55.8782 70.5277 104.2604 0.0000 0.0000 0.0000
# 4 0.0000 0.0000 0.0000 39.4453 0.0000 0.0000
# 5 0.0000 0.0000 0.0000 0.0000 29.8678 0.0000
# 6 0.0000 0.0000 0.0000 0.0000 0.0000 39.0432
#
#
#
# Elastic Compliance Matrix: (Units=1/GPa)
#
#
# Indices 1 2 3 4 5 6 
#
# 1 0.017933 -0.006068 -0.005506 0.000000 0.000000 0.000000
# 2 -0.006068 0.010774 -0.004036 0.000000 0.000000 0.000000
# 3 -0.005506 -0.004036 0.015273 0.000000 0.000000 0.000000
# 4 0.000000 0.000000 0.000000 0.025352 0.000000 0.000000
# 5 0.000000 0.000000 0.000000 0.000000 0.033481 0.000000
# 6 0.000000 0.000000 0.000000 0.000000 0.000000 0.025613
#
#
# Mechanical properties :
#
#
# Convention : Reuss Voigt Hill
#
# Bulk Modulus (GPa) = 78.37736 85.72200 82.04968
# Shear Modulus (GPa) = 30.50672 32.50286 31.50479
#
# Velocity S-wave (km/s) = 4.10909 4.24139 4.17576
# Velocity P-wave (km/s) = 8.11742 8.45166 8.28622
#
# Compressibility (1/GPa) = 0.01275879
#
# Stress axis : x y z
#
# Youngs Moduli (GPa) = 55.76288 92.81684 65.47698
#
# Poissons Ratio (x) = 0.56323 0.36054
# Poissons Ratio (y) = 0.33838 0.26425
# Poissons Ratio (z) = 0.30705 0.37459
#
# Static dielectric constant tensor:
#      x y z
#    x 1.680470 0.000000 0.000000 
#    y 0.000000 1.611120 0.000000 
#    z 0.000000 0.000000 1.610830 
# 
# From -- ./inp_files/6855.got.cif
#   From: 2010.05.17/outbox.ucp.g08.bks.cvg/sg63_4_cif.got.tgz:6855.got - 2010.06.11 16:32:19.
