data_PCOD9476386
_publ_section_title
;
Structure prediction by ZEFSAII (Michael W. Deem and Ramdas Pophale) SiO2 
 PCOD9476386
Probable space group: C M C A
;
_chemical_formula_sum "Si O2"
_cell_formula_units_Z 88
_cell_length_a 9.005210
_cell_length_b 20.254636
_cell_length_c 25.441653
_cell_angle_alpha 90.000000
_cell_angle_beta 90.000000
_cell_angle_gamma 90.000000
_cell_volume 4640.487559
_symmetry_space_group_name_H-M "C M C A"
_symmetry_group_IT_number 64
_symmetry_cell_setting 'orthorhombic'
loop_
_space_group_symop_operation_xyz
x,y,z
-x,1/2-y,1/2+z
x,-y,-z
-x,1/2+y,1/2-z
-x,-y,-z
x,1/2+y,1/2-z
-x,y,z
x,1/2-y,1/2+z
1/2+x,1/2+y,z
1/2-x,-y,1/2+z
1/2+x,1/2-y,-z
1/2-x,y,1/2-z
1/2-x,1/2-y,-z
1/2+x,y,1/2-z
1/2-x,1/2+y,z
1/2+x,-y,1/2+z
loop_
_atom_site_type_symbol
_atom_site_label
_atom_site_fract_x
_atom_site_fract_y
_atom_site_fract_z
Si Si1 0.167177 0.038047 0.615254
Si Si2 0.821989 0.081114 0.305951
Si Si3 0.831290 0.148423 0.015342
Si Si4 0.321711 0.827362 0.399720
Si Si5 0.679408 0.304145 0.871419
Si Si6 0.249588 0.500000 0.000000
O O1 0.276806 0.099876 0.619403
O O2 0.166823 0.013734 0.554707
O O3 0.000000 0.059512 0.628823
O O4 0.209667 0.977538 0.652639
O O5 0.750000 0.065466 0.250000
O O6 0.749350 0.147622 0.328575
O O7 0.000000 0.087977 0.301919
O O8 0.765944 0.169453 0.071075
O O9 0.833072 0.068927 0.010327
O O10 0.000000 0.172772 0.016184
O O11 0.765049 0.175183 0.960808
O O12 0.500000 0.819753 0.398879
O O13 0.240720 0.769882 0.368101
O O14 0.500000 0.306656 0.868925
#
# Coordination Sequence:
#
# PCOD9476386 Si02
#       6
#    16  16  16  16  16   8
#     4  10  21  37  59  88 121 155 196 246 302 363
#     4  11  24  43  64  89 117 154 202 251 299 353
#     4   9  18  30  51  84 122 160 196 239 292 354
#     4  10  21  36  56  86 123 161 198 241 295 359
#     4  11  21  37  59  86 119 159 201 246 297 351
#     4  10  16  32  54  88 121 156 195 240 301 360
#
# _framework density 18.963526000000002
#
# number of rings (size 3 to 8) (size 9 to 14) (size 15 to 20)
#    0.000    1.818    1.818    2.727    0.000    2.182 
#    0.000    2.727    0.000    2.182    0.000    0.000 
#    0.000    0.000    0.000    0.000    0.000    0.000 
#
# Total GULP energy -245397.171658 kJ/mol
# GULP energy per Si atom -5577.208447 kJ/mol
# Density = 1.892036 g / cm^3
# Si number density = 18.963526 Si / 1000 Ang^3
#
#
#
# Elastic Constant Matrix: (Units=GPa)
#
#
# Indices 1 2 3 4 5 6 
#
# 1 73.1421 44.8252 38.6918 0.0000 0.0000 0.0000
# 2 44.8252 100.5548 52.0299 0.0000 0.0000 0.0000
# 3 38.6918 52.0299 91.2927 0.0000 0.0000 0.0000
# 4 0.0000 0.0000 0.0000 25.5872 0.0000 0.0000
# 5 0.0000 0.0000 0.0000 0.0000 18.7656 0.0000
# 6 0.0000 0.0000 0.0000 0.0000 0.0000 22.1640
#
#
#
# Elastic Compliance Matrix: (Units=1/GPa)
#
#
# Indices 1 2 3 4 5 6 
#
# 1 0.020231 -0.006498 -0.004871 0.000000 0.000000 0.000000
# 2 -0.006498 0.016191 -0.006474 0.000000 0.000000 0.000000
# 3 -0.004871 -0.006474 0.016708 0.000000 0.000000 0.000000
# 4 0.000000 0.000000 0.000000 0.039082 0.000000 0.000000
# 5 0.000000 0.000000 0.000000 0.000000 0.053289 0.000000
# 6 0.000000 0.000000 0.000000 0.000000 0.000000 0.045118
#
#
# Mechanical properties :
#
#
# Convention : Reuss Voigt Hill
#
# Bulk Modulus (GPa) = 57.32493 59.56483 58.44488
# Shear Modulus (GPa) = 21.54060 21.93288 21.73674
#
# Velocity S-wave (km/s) = 3.37396 3.40455 3.38929
# Velocity P-wave (km/s) = 6.74336 6.85076 6.79727
#
# Compressibility (1/GPa) = 0.01744442
#
# Stress axis : x y z
#
# Youngs Moduli (GPa) = 49.42866 61.76154 59.85275
#
# Poissons Ratio (x) = 0.40135 0.29154
# Poissons Ratio (y) = 0.32120 0.38747
# Poissons Ratio (z) = 0.24076 0.39982
#
# Static dielectric constant tensor:
#      x y z
#    x 1.663600 0.000000 0.000000 
#    y 0.000000 1.653990 0.000000 
#    z 0.000000 0.000000 1.666330 
# 
# From -- ./inp_files/42825.got.cif
#   From: 2010.05.17/outbox.cif.g08.bks.cpg/sg64_22_cif.got.tgz:42825.got - 2010.06.03 16:29:19.
