data_PCOD9476759
_publ_section_title
;
Structure prediction by ZEFSAII (Michael W. Deem and Ramdas Pophale) SiO2 
 PCOD9476759
Probable space group: C M C A
;
_chemical_formula_sum "Si O2"
_cell_formula_units_Z 80
_cell_length_a 8.643212
_cell_length_b 26.325714
_cell_length_c 20.354046
_cell_angle_alpha 90.000000
_cell_angle_beta 90.000000
_cell_angle_gamma 90.000000
_cell_volume 4631.333719
_symmetry_space_group_name_H-M "C M C A"
_symmetry_group_IT_number 64
_symmetry_cell_setting 'orthorhombic'
loop_
_space_group_symop_operation_xyz
x,y,z
-x,1/2-y,1/2+z
x,-y,-z
-x,1/2+y,1/2-z
-x,-y,-z
x,1/2+y,1/2-z
-x,y,z
x,1/2-y,1/2+z
1/2+x,1/2+y,z
1/2-x,-y,1/2+z
1/2+x,1/2-y,-z
1/2-x,y,1/2-z
1/2-x,1/2-y,-z
1/2+x,y,1/2-z
1/2-x,1/2+y,z
1/2+x,-y,1/2+z
loop_
_atom_site_type_symbol
_atom_site_label
_atom_site_fract_x
_atom_site_fract_y
_atom_site_fract_z
Si Si1 0.684266 0.442466 0.822205
Si Si2 0.686435 0.651146 0.400263
Si Si3 0.685958 0.260403 0.072745
Si Si4 0.186380 0.130078 0.952811
Si Si5 0.814586 0.978715 0.427716
O O1 0.500000 0.442211 0.820913
O O2 0.750000 0.452039 0.750000
O O3 0.745224 0.388527 0.849157
O O4 0.743204 0.484985 0.872916
O O5 0.500000 0.646996 0.401001
O O6 0.731700 0.710098 0.387013
O O7 0.748587 0.636596 0.472980
O O8 0.500000 0.259882 0.070195
O O9 0.731340 0.318542 0.087009
O O10 0.750000 0.250000 0.000000
O O11 0.254048 0.078677 0.923357
O O12 0.000000 0.126968 0.956072
O O13 0.000000 0.979825 0.422702
O O14 0.771796 0.000000 0.500000
#
# Coordination Sequence:
#
# PCOD9476759 Si02
#       5
#    16  16  16  16  16
#     4  12  25  40  58  80 109 145 186 230 280 337
#     4  10  18  32  52  77 110 144 178 221 272 324
#     4   8  16  28  46  74 108 140 172 214 263 316
#     4  10  18  30  51  81 111 143 182 225 274 322
#     4  11  22  36  56  81 112 147 186 231 280 330
#
# _framework density 17.273643
#
# number of rings (size 3 to 8) (size 9 to 14) (size 15 to 20)
#    0.000    1.800    2.000    3.600    0.000    2.400 
#    0.000    0.000    0.000    1.200    0.000    5.600 
#    0.000    0.000    0.000    0.000    0.000    0.000 
#
# Total GULP energy -223093.972206 kJ/mol
# GULP energy per Si atom -5577.349305 kJ/mol
# Density = 1.723433 g / cm^3
# Si number density = 17.273643 Si / 1000 Ang^3
#
#
#
# Elastic Constant Matrix: (Units=GPa)
#
#
# Indices 1 2 3 4 5 6 
#
# 1 77.4934 58.2005 43.1336 0.0000 0.0000 0.0000
# 2 58.2005 190.1652 68.0954 0.0000 0.0000 0.0000
# 3 43.1336 68.0954 91.4502 0.0000 0.0000 0.0000
# 4 0.0000 0.0000 0.0000 16.9319 0.0000 0.0000
# 5 0.0000 0.0000 0.0000 0.0000 23.4485 0.0000
# 6 0.0000 0.0000 0.0000 0.0000 0.0000 26.6007
#
#
#
# Elastic Compliance Matrix: (Units=1/GPa)
#
#
# Indices 1 2 3 4 5 6 
#
# 1 0.019131 -0.003578 -0.006359 0.000000 0.000000 0.000000
# 2 -0.003578 0.007840 -0.004150 0.000000 0.000000 0.000000
# 3 -0.006359 -0.004150 0.017024 0.000000 0.000000 0.000000
# 4 0.000000 0.000000 0.000000 0.059060 0.000000 0.000000
# 5 0.000000 0.000000 0.000000 0.000000 0.042647 0.000000
# 6 0.000000 0.000000 0.000000 0.000000 0.000000 0.037593
#
#
# Mechanical properties :
#
#
# Convention : Reuss Voigt Hill
#
# Bulk Modulus (GPa) = 63.20729 77.55196 70.37962
# Shear Modulus (GPa) = 23.06878 26.04149 24.55514
#
# Velocity S-wave (km/s) = 3.65840 3.88698 3.77442
# Velocity P-wave (km/s) = 7.38352 8.07083 7.73482
#
# Compressibility (1/GPa) = 0.01582096
#
# Stress axis : x y z
#
# Youngs Moduli (GPa) = 52.27086 127.55631 58.73909
#
# Poissons Ratio (x) = 0.45639 0.37353
# Poissons Ratio (y) = 0.18702 0.24376
# Poissons Ratio (z) = 0.33240 0.52935
#
# Static dielectric constant tensor:
#      x y z
#    x 1.579790 0.000000 0.000000 
#    y 0.000000 1.635580 0.000000 
#    z 0.000000 0.000000 1.545370 
# 
# From -- ./inp_files/29801.got.cif
#   From: 2010.05.17/outbox.cif.g08.bks.cpg/sg64_15_cif.got.tgz:29801.got - 2010.06.03 16:29:19.
