data_PCOD9476744
_publ_section_title
;
Structure prediction by ZEFSAII (Michael W. Deem and Ramdas Pophale) SiO2 
 PCOD9476744
Probable space group: C M C A
;
_chemical_formula_sum "Si O2"
_cell_formula_units_Z 88
_cell_length_a 7.412127
_cell_length_b 24.863473
_cell_length_c 21.527359
_cell_angle_alpha 90.000000
_cell_angle_beta 90.000000
_cell_angle_gamma 90.000000
_cell_volume 3967.303244
_symmetry_space_group_name_H-M "C M C A"
_symmetry_group_IT_number 64
_symmetry_cell_setting 'orthorhombic'
loop_
_space_group_symop_operation_xyz
x,y,z
-x,1/2-y,1/2+z
x,-y,-z
-x,1/2+y,1/2-z
-x,-y,-z
x,1/2+y,1/2-z
-x,y,z
x,1/2-y,1/2+z
1/2+x,1/2+y,z
1/2-x,-y,1/2+z
1/2+x,1/2-y,-z
1/2-x,y,1/2-z
1/2-x,1/2-y,-z
1/2+x,y,1/2-z
1/2-x,1/2+y,z
1/2+x,-y,1/2+z
loop_
_atom_site_type_symbol
_atom_site_label
_atom_site_fract_x
_atom_site_fract_y
_atom_site_fract_z
Si Si1 0.216598 0.401713 0.460302
Si Si2 0.213162 0.173186 0.651058
Si Si3 0.750000 0.410819 0.250000
Si Si4 0.215155 0.793177 0.822760
Si Si5 0.720466 0.013650 0.642169
Si Si6 0.779386 0.603504 0.397985
O O1 0.270103 0.351307 0.417489
O O2 0.267416 0.454870 0.421364
O O3 0.282151 0.398877 0.530594
O O4 0.000000 0.402313 0.463175
O O5 0.312501 0.133220 0.698640
O O6 0.279816 0.233952 0.657474
O O7 0.000000 0.170666 0.668606
O O8 0.811127 0.454405 0.198462
O O9 0.250000 0.801127 0.750000
O O10 0.283893 0.843132 0.862870
O O11 0.000000 0.791793 0.832067
O O12 0.500000 0.017753 0.650818
O O13 0.770555 0.951617 0.636427
O O14 0.000000 0.604100 0.398592
#
# Coordination Sequence:
#
# PCOD9476744 Si02
#       6
#    16  16   8  16  16  16
#     4   9  18  33  55  79 101 133 174 213 253 301
#     4  10  20  34  52  76 106 135 168 214 259 300
#     4  10  18  30  50  76 100 138 172 212 250 314
#     4  10  21  36  54  75 104 138 170 210 257 303
#     4   9  17  29  50  76 101 132 173 216 251 296
#     4   9  18  33  52  75 103 135 173 212 253 303
#
# _framework density 22.181315000000001
#
# number of rings (size 3 to 8) (size 9 to 14) (size 15 to 20)
#    0.000    2.545    0.909    1.091    1.273    4.364 
#    0.000    0.909    0.000    9.818    0.000    0.000 
#    0.000    0.000    0.000    0.000    0.000    0.000 
#
# Total GULP energy -245260.988825 kJ/mol
# GULP energy per Si atom -5574.113382 kJ/mol
# Density = 2.213083 g / cm^3
# Si number density = 22.181315 Si / 1000 Ang^3
#
#
#
# Elastic Constant Matrix: (Units=GPa)
#
#
# Indices 1 2 3 4 5 6 
#
# 1 86.0125 21.6415 10.3354 0.0000 0.0000 0.0000
# 2 21.6415 235.8497 127.4479 0.0000 0.0000 0.0000
# 3 10.3354 127.4479 89.0390 0.0000 0.0000 0.0000
# 4 0.0000 0.0000 0.0000 22.5338 0.0000 0.0000
# 5 0.0000 0.0000 0.0000 0.0000 -62.1230 0.0000
# 6 0.0000 0.0000 0.0000 0.0000 0.0000 1266.2397
#
#
#
# Elastic Compliance Matrix: (Units=1/GPa)
#
#
# Indices 1 2 3 4 5 6 
#
# 1 0.011914 -0.001527 0.000803 0.000000 0.000000 0.000000
# 2 -0.001527 0.018914 -0.026895 0.000000 0.000000 0.000000
# 3 0.000803 -0.026895 0.049635 0.000000 0.000000 0.000000
# 4 0.000000 0.000000 0.000000 0.044378 0.000000 0.000000
# 5 0.000000 0.000000 0.000000 0.000000 -0.016097 0.000000
# 6 0.000000 0.000000 0.000000 0.000000 0.000000 0.000790
#
#
# Mechanical properties :
#
#
# Convention : Reuss Voigt Hill
#
# Bulk Modulus (GPa) = 39.64527 81.08344 60.36435
# Shear Modulus (GPa) = 28.87160 262.09519 145.48340
#
# Velocity S-wave (km/s) = 3.61171 10.88195 8.10744
# Velocity P-wave (km/s) = 5.94177 13.94716 10.71979
#
# Compressibility (1/GPa) = 0.02522369
#
# Stress axis : x y z
#
# Youngs Moduli (GPa) = 83.93511 52.87145 20.14699
#
# Poissons Ratio (x) = 0.08074 -0.01618
# Poissons Ratio (y) = 0.12817 0.54186
# Poissons Ratio (z) = -0.06739 1.42200
#
# Static dielectric constant tensor:
#      x y z
#    x 1.944170 0.000000 0.000000 
#    y 0.000000 1.774880 0.000000 
#    z 0.000000 0.000000 1.760600 
# 
# From -- ./inp_files/36770.got.cif
#   From: 2010.05.17/outbox.cif.g08.bks.cpg/sg64_19_cif.got.tgz:36770.got - 2010.06.03 16:29:19.
