data_PCOD9476269
_publ_section_title
;
Structure prediction by ZEFSAII (Michael W. Deem and Ramdas Pophale) SiO2 
 PCOD9476269
Probable space group: C M C M
;
_chemical_formula_sum "Si O2"
_cell_formula_units_Z 58
_cell_length_a 18.000000
_cell_length_b 18.000000
_cell_length_c 18.000000
_cell_angle_alpha 90.000000
_cell_angle_beta 90.000000
_cell_angle_gamma 90.000000
_cell_volume 5832.000000
_symmetry_space_group_name_H-M "C M C M"
_symmetry_group_IT_number 63
_symmetry_cell_setting 'orthorhombic'
loop_
_space_group_symop_operation_xyz
x,y,z
-x,-y,1/2+z
x,-y,-z
-x,y,1/2-z
-x,-y,-z
x,y,1/2-z
-x,y,z
x,-y,1/2+z
1/2+x,1/2+y,z
1/2-x,1/2-y,1/2+z
1/2+x,1/2-y,-z
1/2-x,1/2+y,1/2-z
1/2-x,1/2-y,-z
1/2+x,1/2+y,1/2-z
1/2-x,1/2+y,z
1/2+x,1/2-y,1/2+z
loop_
_atom_site_type_symbol
_atom_site_label
_atom_site_fract_x
_atom_site_fract_y
_atom_site_fract_z
Si Si1 0.084942 0.557401 0.338861
Si Si2 0.913423 0.715598 0.969039
Si Si3 0.500000 0.681253 0.250000
Si Si4 0.192388 0.689535 0.107445
Si Si5 0.371199 0.346725 0.876753
Si Si6 0.685393 0.359019 0.162641
Si Si7 0.912160 0.012472 0.911579
Si Si8 0.361207 0.108913 0.838380
O O1 0.080478 0.556601 0.250000
O O2 0.143130 0.622296 0.358783
O O3 0.113949 0.474826 0.359730
O O4 0.000000 0.569188 0.367506
O O5 0.900885 0.802079 0.948743
O O6 0.900377 0.667160 0.893819
O O7 0.000000 0.704819 0.994060
O O8 0.845726 0.693969 0.024978
O O9 0.568186 0.678543 0.314219
O O10 0.281359 0.673315 0.122358
O O11 0.177806 0.772169 0.140376
O O12 0.379458 0.435806 0.878094
O O13 0.667362 0.366914 0.250000
O O14 0.633866 0.416100 0.116651
O O15 0.772387 0.380941 0.153201
O O16 0.000000 0.019067 0.892267
O O17 0.906576 0.000000 0.000000
O O18 0.379241 0.121312 0.750000
#
# Coordination Sequence:
#
# PCOD9476269 Si02
#       8
#    16  16   4  16  16  16  16  16
#     4  10  22  43  67  96 135 184 237 291 350 419
#     4  12  25  43  70 105 143 187 234 289 358 434
#     4  12  28  44  78 108 142 182 244 312 348 422
#     4  12  26  44  70 100 145 189 232 293 356 435
#     4  12  26  45  71 104 142 183 237 295 364 419
#     4  11  25  43  69 101 136 183 241 290 353 429
#     4  11  25  45  69 100 143 187 232 295 363 427
#     4  10  23  43  67 101 137 182 237 299 354 413
#
# _framework density 9.9451300000000007
#
# number of rings (size 3 to 8) (size 9 to 14) (size 15 to 20)
#    0.000    0.828    2.759    3.310    5.793    3.862 
#    0.000    1.379    0.000    0.000    0.000    0.000 
#    0.000    0.000    0.000    0.000    0.000    0.000 
#
# Total GULP energy -323264.190164 kJ/mol
# GULP energy per Si atom -5573.520520 kJ/mol
# Density = 0.992249 g / cm^3
# Si number density = 9.945130 Si / 1000 Ang^3
#
#
#
# Elastic Constant Matrix: (Units=GPa)
#
#
# Indices 1 2 3 4 5 6 
#
# 1 167.9734 54.0119 44.9064 0.0000 0.0000 0.0000
# 2 54.0119 143.8829 29.0876 0.0000 0.0000 0.0000
# 3 44.9064 29.0876 72.3119 0.0000 0.0000 0.0000
# 4 0.0000 0.0000 0.0000 33.6795 0.0000 0.0000
# 5 0.0000 0.0000 0.0000 0.0000 33.8127 0.0000
# 6 0.0000 0.0000 0.0000 0.0000 0.0000 38.8480
#
#
#
# Elastic Compliance Matrix: (Units=1/GPa)
#
#
# Indices 1 2 3 4 5 6 
#
# 1 0.007674 -0.002087 -0.003926 0.000000 0.000000 0.000000
# 2 -0.002087 0.008133 -0.001975 0.000000 0.000000 0.000000
# 3 -0.003926 -0.001975 0.017062 0.000000 0.000000 0.000000
# 4 0.000000 0.000000 0.000000 0.029692 0.000000 0.000000
# 5 0.000000 0.000000 0.000000 0.000000 0.029575 0.000000
# 6 0.000000 0.000000 0.000000 0.000000 0.000000 0.025741
#
#
# Mechanical properties :
#
#
# Convention : Reuss Voigt Hill
#
# Bulk Modulus (GPa) = 59.20119 71.13110 65.16614
# Shear Modulus (GPa) = 35.84639 38.34552 37.09595
#
# Velocity S-wave (km/s) = 4.24985 4.39550 4.32329
# Velocity P-wave (km/s) = 7.34235 7.84856 7.59967
#
# Compressibility (1/GPa) = 0.01689155
#
# Stress axis : x y z
#
# Youngs Moduli (GPa) = 130.30956 122.95751 58.61053
#
# Poissons Ratio (x) = 0.25662 0.23011
# Poissons Ratio (y) = 0.27196 0.11578
# Poissons Ratio (z) = 0.51161 0.24289
#
# Static dielectric constant tensor:
#      x y z
#    x 1.692180 0.000000 0.000000 
#    y 0.000000 1.699610 0.000000 
#    z 0.000000 0.000000 1.745690 
# 
# From -- ./inp_files/45893.got.cif
#   From: 2010.05.17/outbox.ucp.g08.bks.cvg/sg63_23_cif.got.tgz:45893.got - 2010.06.11 16:32:19.
