data_PCOD9476308
_publ_section_title
;
Structure prediction by ZEFSAII (Michael W. Deem and Ramdas Pophale) SiO2 
 PCOD9476308
Probable space group: C M C A
;
_chemical_formula_sum "Si O2"
_cell_formula_units_Z 56
_cell_length_a 30.368263
_cell_length_b 5.284459
_cell_length_c 13.777959
_cell_angle_alpha 90.000000
_cell_angle_beta 90.000000
_cell_angle_gamma 90.000000
_cell_volume 2211.084666
_symmetry_space_group_name_H-M "C M C A"
_symmetry_group_IT_number 64
_symmetry_cell_setting 'orthorhombic'
loop_
_space_group_symop_operation_xyz
x,y,z
-x,1/2-y,1/2+z
x,-y,-z
-x,1/2+y,1/2-z
-x,-y,-z
x,1/2+y,1/2-z
-x,y,z
x,1/2-y,1/2+z
1/2+x,1/2+y,z
1/2-x,-y,1/2+z
1/2+x,1/2-y,-z
1/2-x,y,1/2-z
1/2-x,1/2-y,-z
1/2+x,y,1/2-z
1/2-x,1/2+y,z
1/2+x,-y,1/2+z
loop_
_atom_site_type_symbol
_atom_site_label
_atom_site_fract_x
_atom_site_fract_y
_atom_site_fract_z
Si Si1 0.000000 0.253231 0.568185
Si Si2 0.731198 0.873971 0.859730
Si Si3 0.368817 0.542809 0.383946
Si Si4 0.409470 0.047249 0.383911
O O1 0.000000 0.500000 0.500000
O O2 0.044598 0.300654 0.628112
O O3 0.000000 0.000000 0.500000
O O4 0.750000 0.893450 0.750000
O O5 0.756323 0.640079 0.905050
O O6 0.679013 0.845992 0.862205
O O7 0.373716 0.500000 0.500000
O O8 0.374037 0.253467 0.348000
O O9 0.403679 0.757554 0.349593
O O10 0.404106 0.000000 0.500000
#
# Coordination Sequence:
#
# PCOD9476308 Si02
#       4
#     8  16  16  16
#     4  10  16  26  44  68 104 144 172 196 237 294
#     4  10  21  36  52  70  96 127 170 217 260 312
#     4  10  19  31  48  72 102 133 167 210 256 298
#     4   9  17  28  44  70 103 137 168 200 243 296
#
# _framework density 25.326936
#
# number of rings (size 3 to 8) (size 9 to 14) (size 15 to 20)
#    0.000    2.286    0.000    6.000    0.000    1.143 
#    0.000    0.000    0.000    0.000    0.000    0.000 
#    0.000   91.429    0.000    0.000    0.000    0.000 
#
# Total GULP energy -156249.336663 kJ/mol
# GULP energy per Si atom -5580.333452 kJ/mol
# Density = 2.526929 g / cm^3
# Si number density = 25.326936 Si / 1000 Ang^3
#
#
#
# Elastic Constant Matrix: (Units=GPa)
#
#
# Indices 1 2 3 4 5 6 
#
# 1 91.3496 39.4261 -23.7311 0.0000 0.0000 0.0000
# 2 39.4261 173.3993 -7.8397 0.0000 0.0000 0.0000
# 3 -23.7311 -7.8397 97.4829 0.0000 0.0000 0.0000
# 4 0.0000 0.0000 0.0000 -26.8898 0.0000 0.0000
# 5 0.0000 0.0000 0.0000 0.0000 49.9182 0.0000
# 6 0.0000 0.0000 0.0000 0.0000 0.0000 43.9571
#
#
#
# Elastic Compliance Matrix: (Units=1/GPa)
#
#
# Indices 1 2 3 4 5 6 
#
# 1 0.012916 -0.002805 0.002919 0.000000 0.000000 0.000000
# 2 -0.002805 0.006397 -0.000168 0.000000 0.000000 0.000000
# 3 0.002919 -0.000168 0.010955 0.000000 0.000000 0.000000
# 4 0.000000 0.000000 0.000000 -0.037189 0.000000 0.000000
# 5 0.000000 0.000000 0.000000 0.000000 0.020033 0.000000
# 6 0.000000 0.000000 0.000000 0.000000 0.000000 0.022749
#
#
# Mechanical properties :
#
#
# Convention : Reuss Voigt Hill
#
# Bulk Modulus (GPa) = 33.15739 41.99359 37.57549
# Shear Modulus (GPa) = 108.64074 37.02219 72.83147
#
# Velocity S-wave (km/s) = 6.55656 3.82746 5.36833
# Velocity P-wave (km/s) = 8.39274 6.01242 7.30025
#
# Compressibility (1/GPa) = 0.03015919
#
# Stress axis : x y z
#
# Youngs Moduli (GPa) = 77.42539 156.31996 91.28105
#
# Poissons Ratio (x) = 0.43843 -0.26641
# Poissons Ratio (y) = 0.21715 0.01536
# Poissons Ratio (z) = -0.22598 0.02631
#
# Static dielectric constant tensor:
#      x y z
#    x 2.154080 0.000000 0.000000 
#    y 0.000000 2.142870 0.000000 
#    z 0.000000 0.000000 2.109200 
# 
# From -- ./inp_files/41682.got.cif
#   From: 2010.05.17/outbox.cif.g08.bks.cpg/sg64_21_cif.got.tgz:41682.got - 2010.06.03 16:29:19.
