data_PCOD9476481
_publ_section_title
;
Structure prediction by ZEFSAII (Michael W. Deem and Ramdas Pophale) SiO2 
 PCOD9476481
Probable space group: C M C A
;
_chemical_formula_sum "Si O2"
_cell_formula_units_Z 104
_cell_length_a 19.492327
_cell_length_b 14.634031
_cell_length_c 20.775294
_cell_angle_alpha 90.000000
_cell_angle_beta 90.000000
_cell_angle_gamma 90.000000
_cell_volume 5926.179987
_symmetry_space_group_name_H-M "C M C A"
_symmetry_group_IT_number 64
_symmetry_cell_setting 'orthorhombic'
loop_
_space_group_symop_operation_xyz
x,y,z
-x,1/2-y,1/2+z
x,-y,-z
-x,1/2+y,1/2-z
-x,-y,-z
x,1/2+y,1/2-z
-x,y,z
x,1/2-y,1/2+z
1/2+x,1/2+y,z
1/2-x,-y,1/2+z
1/2+x,1/2-y,-z
1/2-x,y,1/2-z
1/2-x,1/2-y,-z
1/2+x,y,1/2-z
1/2-x,1/2+y,z
1/2+x,-y,1/2+z
loop_
_atom_site_type_symbol
_atom_site_label
_atom_site_fract_x
_atom_site_fract_y
_atom_site_fract_z
Si Si1 0.167874 0.280694 0.764964
Si Si2 0.702735 0.364486 0.603113
Si Si3 0.313851 0.912027 0.295651
Si Si4 0.703315 0.500000 0.500000
Si Si5 0.922964 0.608098 0.486030
Si Si6 0.144604 0.905921 0.849350
Si Si7 0.292352 0.162002 0.563886
O O1 0.250000 0.281172 0.750000
O O2 0.160952 0.331020 0.833919
O O3 0.148018 0.174540 0.764875
O O4 0.133617 0.333846 0.706927
O O5 0.668814 0.443630 0.558921
O O6 0.775675 0.403361 0.627651
O O7 0.721987 0.270574 0.565201
O O8 0.250000 0.941396 0.250000
O O9 0.286262 0.868200 0.361871
O O10 0.361796 0.994775 0.317123
O O11 0.748816 0.583284 0.528291
O O12 0.921774 0.500000 0.500000
O O13 0.899306 0.615369 0.412110
O O14 0.868086 0.652847 0.533689
O O15 0.000000 0.642689 0.495344
#
# Coordination Sequence:
#
# PCOD9476481 Si02
#       7
#    16  16  16   8  16  16  16
#     4   8  18  29  42  70  98 135 163 197 254 327
#     4  10  19  29  49  74 108 136 167 203 269 333
#     4  10  17  29  49  70 103 138 162 198 260 318
#     4  12  18  28  43  78 109 140 156 208 258 328
#     4  11  21  35  53  75 101 142 189 225 263 303
#     4  11  18  33  49  73 105 137 170 220 261 316
#     4  11  19  33  48  76 110 138 166 216 264 320
#
# _framework density 17.549247000000001
#
# number of rings (size 3 to 8) (size 9 to 14) (size 15 to 20)
#    0.000    1.692    5.385    2.769    0.000    0.000 
#    0.000    0.000    0.000    4.615    0.000    0.538 
#    0.000    0.000    0.000    0.000    0.000    0.000 
#
# Total GULP energy -289502.742282 kJ/mol
# GULP energy per Si atom -5567.360429 kJ/mol
# Density = 1.750930 g / cm^3
# Si number density = 17.549247 Si / 1000 Ang^3
#
#
#
# Elastic Constant Matrix: (Units=GPa)
#
#
# Indices 1 2 3 4 5 6 
#
# 1 22.4178 3.5166 14.0416 0.0000 0.0000 0.0000
# 2 3.5166 97.8185 29.4698 0.0000 0.0000 0.0000
# 3 14.0416 29.4698 100.3371 0.0000 0.0000 0.0000
# 4 0.0000 0.0000 0.0000 41.7012 0.0000 0.0000
# 5 0.0000 0.0000 0.0000 0.0000 7.5668 0.0000
# 6 0.0000 0.0000 0.0000 0.0000 0.0000 0.6128
#
#
#
# Elastic Compliance Matrix: (Units=1/GPa)
#
#
# Indices 1 2 3 4 5 6 
#
# 1 0.048903 0.000333 -0.006942 0.000000 0.000000 0.000000
# 2 0.000333 0.011218 -0.003341 0.000000 0.000000 0.000000
# 3 -0.006942 -0.003341 0.011919 0.000000 0.000000 0.000000
# 4 0.000000 0.000000 0.000000 0.023980 0.000000 0.000000
# 5 0.000000 0.000000 0.000000 0.000000 0.132156 0.000000
# 6 0.000000 0.000000 0.000000 0.000000 0.000000 1.631842
#
#
# Mechanical properties :
#
#
# Convention : Reuss Voigt Hill
#
# Bulk Modulus (GPa) = 19.17892 34.95881 27.06887
# Shear Modulus (GPa) = 2.63533 21.54586 12.09059
#
# Velocity S-wave (km/s) = 1.22676 3.50771 2.62764
# Velocity P-wave (km/s) = 3.59985 6.03067 4.96628
#
# Compressibility (1/GPa) = 0.05214058
#
# Stress axis : x y z
#
# Youngs Moduli (GPa) = 20.44859 89.14492 83.89810
#
# Poissons Ratio (x) = -0.02970 0.58239
# Poissons Ratio (y) = -0.00681 0.28033
# Poissons Ratio (z) = 0.14195 0.29786
#
# Static dielectric constant tensor:
#      x y z
#    x 1.567560 0.000000 0.000000 
#    y 0.000000 1.646980 0.000000 
#    z 0.000000 0.000000 1.696850 
# 
# From -- ./inp_files/40999.got.cif
#   From: 2010.05.17/outbox.cif.g08.bks.cpg/sg64_21_cif.got.tgz:40999.got - 2010.06.03 16:29:19.
