data_PCOD9476874
_publ_section_title
;
Structure prediction by ZEFSAII (Michael W. Deem and Ramdas Pophale) SiO2 
 PCOD9476874
Probable space group: C M C A
;
_chemical_formula_sum "Si O2"
_cell_formula_units_Z 120
_cell_length_a 22.081488
_cell_length_b 24.414306
_cell_length_c 13.890930
_cell_angle_alpha 90.000000
_cell_angle_beta 90.000000
_cell_angle_gamma 90.000000
_cell_volume 7488.658774
_symmetry_space_group_name_H-M "C M C A"
_symmetry_group_IT_number 64
_symmetry_cell_setting 'orthorhombic'
loop_
_space_group_symop_operation_xyz
x,y,z
-x,1/2-y,1/2+z
x,-y,-z
-x,1/2+y,1/2-z
-x,-y,-z
x,1/2+y,1/2-z
-x,y,z
x,1/2-y,1/2+z
1/2+x,1/2+y,z
1/2-x,-y,1/2+z
1/2+x,1/2-y,-z
1/2-x,y,1/2-z
1/2-x,1/2-y,-z
1/2+x,y,1/2-z
1/2-x,1/2+y,z
1/2+x,-y,1/2+z
loop_
_atom_site_type_symbol
_atom_site_label
_atom_site_fract_x
_atom_site_fract_y
_atom_site_fract_z
Si Si1 0.149471 0.212782 0.111528
Si Si2 0.750000 0.750000 0.250000
Si Si3 0.071257 0.322536 0.110295
Si Si4 0.927589 0.116103 0.802571
Si Si5 0.071257 0.177464 0.389705
Si Si6 0.649471 0.212782 0.611528
Si Si7 0.573547 0.500000 0.888369
Si Si8 0.927589 0.883897 0.802571
O O1 0.206877 0.214479 0.181366
O O2 0.111335 0.268680 0.128404
O O3 0.106808 0.161724 0.135638
O O4 0.167605 0.211755 1.000000
O O5 0.706877 0.785521 0.318634
O O6 0.083768 0.367892 0.191185
O O7 0.000000 0.307623 0.118705
O O8 0.081674 0.340567 1.000000
O O9 0.893192 0.161724 0.864362
O O10 0.908025 0.055537 0.834165
O O11 0.000000 0.120524 0.818801
O O12 0.111335 0.231320 0.371596
O O13 0.083768 0.132108 0.308815
O O14 0.000000 0.192377 0.381295
O O15 0.500000 0.500000 0.889133
O O16 0.591975 0.444463 0.834165
O O17 0.593330 0.500000 0.000000
O O18 0.000000 0.879476 0.818801
#
# Coordination Sequence:
#
# PCOD9476874 Si02
#       8
#    16   8  16  16  16  16  16  16
#     4  11  21  33  51  74 100 132 165 203 250 296
#     4  12  22  36  46  72 104 132 170 206 238 294
#     4   9  17  30  50  76 101 127 161 201 249 305
#     4  10  18  32  52  76 104 131 159 201 251 298
#     4   9  17  30  50  76 101 127 161 201 249 305
#     4  11  21  33  51  74 100 132 165 203 250 296
#     4   9  18  30  47  74 103 129 160 198 244 299
#     4  10  18  32  52  76 104 131 159 201 251 298
#
# _framework density 16.024231
#
# number of rings (size 3 to 8) (size 9 to 14) (size 15 to 20)
#    0.000    2.000    2.667    2.000    0.000    4.800 
#    0.000    0.667    0.000    4.800    0.000    0.000 
#    0.000    0.000    0.000    0.000    0.000    0.000 
#
# Total GULP energy -334587.005559 kJ/mol
# GULP energy per Si atom -5576.450093 kJ/mol
# Density = 1.598776 g / cm^3
# Si number density = 16.024231 Si / 1000 Ang^3
#
#
#
# Elastic Constant Matrix: (Units=GPa)
#
#
# Indices 1 2 3 4 5 6 
#
# 1 42.1001 40.0645 50.5024 0.0000 0.0000 0.0000
# 2 40.0645 130.4066 78.8839 0.0000 0.0000 0.0000
# 3 50.5024 78.8839 136.1664 0.0000 0.0000 0.0000
# 4 0.0000 0.0000 0.0000 22.5014 0.0000 0.0000
# 5 0.0000 0.0000 0.0000 0.0000 23.2957 0.0000
# 6 0.0000 0.0000 0.0000 0.0000 0.0000 2.1808
#
#
#
# Elastic Compliance Matrix: (Units=1/GPa)
#
#
# Indices 1 2 3 4 5 6 
#
# 1 0.045474 -0.005802 -0.013505 0.000000 0.000000 0.000000
# 2 -0.005802 0.012546 -0.005116 0.000000 0.000000 0.000000
# 3 -0.013505 -0.005116 0.015317 0.000000 0.000000 0.000000
# 4 0.000000 0.000000 0.000000 0.044442 0.000000 0.000000
# 5 0.000000 0.000000 0.000000 0.000000 0.042926 0.000000
# 6 0.000000 0.000000 0.000000 0.000000 0.000000 0.458557
#
#
# Mechanical properties :
#
#
# Convention : Reuss Voigt Hill
#
# Bulk Modulus (GPa) = 40.83118 71.95276 56.39197
# Shear Modulus (GPa) = 7.39350 18.87706 13.13528
#
# Velocity S-wave (km/s) = 2.15034 3.43597 2.86617
# Velocity P-wave (km/s) = 5.63041 7.79366 6.79863
#
# Compressibility (1/GPa) = 0.02449109
#
# Stress axis : x y z
#
# Youngs Moduli (GPa) = 21.99049 79.70956 65.28901
#
# Poissons Ratio (x) = 0.46246 0.88171
# Poissons Ratio (y) = 0.12758 0.33402
# Poissons Ratio (z) = 0.29697 0.40780
#
# Static dielectric constant tensor:
#      x y z
#    x 1.525250 0.000000 0.000000 
#    y 0.000000 1.501450 0.000000 
#    z 0.000000 0.000000 1.568000 
# 
# From -- ./inp_files/26723.got.cif
#   From: 2010.05.17/outbox.cif.g08.bks.cpg/sg64_14_cif.got.tgz:26723.got - 2010.06.03 16:29:19.
