data_PCOD9476702
_publ_section_title
;
Structure prediction by ZEFSAII (Michael W. Deem and Ramdas Pophale) SiO2 
 PCOD9476702
Probable space group: C M C A
;
_chemical_formula_sum "Si O2"
_cell_formula_units_Z 112
_cell_length_a 13.914433
_cell_length_b 29.493028
_cell_length_c 14.430825
_cell_angle_alpha 90.000000
_cell_angle_beta 90.000000
_cell_angle_gamma 90.000000
_cell_volume 5922.104099
_symmetry_space_group_name_H-M "C M C A"
_symmetry_group_IT_number 64
_symmetry_cell_setting 'orthorhombic'
loop_
_space_group_symop_operation_xyz
x,y,z
-x,1/2-y,1/2+z
x,-y,-z
-x,1/2+y,1/2-z
-x,-y,-z
x,1/2+y,1/2-z
-x,y,z
x,1/2-y,1/2+z
1/2+x,1/2+y,z
1/2-x,-y,1/2+z
1/2+x,1/2-y,-z
1/2-x,y,1/2-z
1/2-x,1/2-y,-z
1/2+x,y,1/2-z
1/2-x,1/2+y,z
1/2+x,-y,1/2+z
loop_
_atom_site_type_symbol
_atom_site_label
_atom_site_fract_x
_atom_site_fract_y
_atom_site_fract_z
Si Si1 0.615655 0.883581 0.818557
Si Si2 0.390163 0.640066 0.804459
Si Si3 0.693828 0.625065 0.607200
Si Si4 0.210492 0.190784 0.454587
Si Si5 0.116239 0.549742 0.032466
Si Si6 0.112419 0.247204 0.823956
Si Si7 0.613495 0.680725 0.161170
O O1 0.500000 0.880548 0.821795
O O2 0.657163 0.845421 0.886974
O O3 0.640642 0.865890 0.715775
O O4 0.642651 0.931774 0.864286
O O5 0.500000 0.630319 0.831346
O O6 0.367682 0.624084 0.700406
O O7 0.306133 0.619843 0.867865
O O8 0.375744 0.694447 0.803813
O O9 0.684260 0.673720 0.555959
O O10 0.658389 0.586404 0.538335
O O11 0.172717 0.237781 0.413661
O O12 0.322072 0.185785 0.429062
O O13 0.000000 0.550817 0.027127
O O14 0.147709 0.500000 0.000000
O O15 0.135875 0.278467 0.734163
O O16 0.000000 0.256089 0.843614
O O17 0.500000 0.681442 0.142469
#
# Coordination Sequence:
#
# PCOD9476702 Si02
#       7
#    16  16  16  16  16  16  16
#     4   8  14  26  46  75 103 134 167 202 259 313
#     4  10  22  39  54  71 106 145 181 222 264 316
#     4  10  22  35  56  79 102 139 183 219 274 326
#     4  10  18  29  51  74 103 136 175 226 260 303
#     4   9  17  32  57  85 109 130 166 223 269 310
#     4   9  18  32  49  72 102 142 183 219 257 301
#     4   9  17  28  46  71 106 144 174 210 261 316
#
# _framework density 18.912196999999999
#
# number of rings (size 3 to 8) (size 9 to 14) (size 15 to 20)
#    0.000    2.714    0.000    3.429    4.000    2.857 
#    0.000    0.000   12.571    0.429    0.000    0.000 
#    0.000    0.000    0.000    0.000    0.000    0.000 
#
# Total GULP energy -312251.919337 kJ/mol
# GULP energy per Si atom -5575.927131 kJ/mol
# Density = 1.886915 g / cm^3
# Si number density = 18.912197 Si / 1000 Ang^3
#
#
#
# Elastic Constant Matrix: (Units=GPa)
#
#
# Indices 1 2 3 4 5 6 
#
# 1 36.0697 11.0436 -3.4907 0.0000 0.0000 0.0000
# 2 11.0436 77.0453 10.0217 0.0000 0.0000 0.0000
# 3 -3.4907 10.0217 31.9366 0.0000 0.0000 0.0000
# 4 0.0000 0.0000 0.0000 18.2412 0.0000 0.0000
# 5 0.0000 0.0000 0.0000 0.0000 12.1340 0.0000
# 6 0.0000 0.0000 0.0000 0.0000 0.0000 17.9328
#
#
#
# Elastic Compliance Matrix: (Units=1/GPa)
#
#
# Indices 1 2 3 4 5 6 
#
# 1 0.029679 -0.004875 0.004774 0.000000 0.000000 0.000000
# 2 -0.004875 0.014332 -0.005030 0.000000 0.000000 0.000000
# 3 0.004774 -0.005030 0.033412 0.000000 0.000000 0.000000
# 4 0.000000 0.000000 0.000000 0.054821 0.000000 0.000000
# 5 0.000000 0.000000 0.000000 0.000000 0.082413 0.000000
# 6 0.000000 0.000000 0.000000 0.000000 0.000000 0.055764
#
#
# Mechanical properties :
#
#
# Convention : Reuss Voigt Hill
#
# Bulk Modulus (GPa) = 14.88980 20.02230 17.45605
# Shear Modulus (GPa) = 16.49778 18.16007 17.32893
#
# Velocity S-wave (km/s) = 2.95674 3.10212 3.03030
# Velocity P-wave (km/s) = 4.42115 4.84157 4.63613
#
# Compressibility (1/GPa) = 0.06716006
#
# Stress axis : x y z
#
# Youngs Moduli (GPa) = 33.69417 69.77154 29.92911
#
# Poissons Ratio (x) = 0.34014 -0.14287
# Poissons Ratio (y) = 0.16426 0.15055
# Poissons Ratio (z) = -0.16085 0.35098
#
# Static dielectric constant tensor:
#      x y z
#    x 1.665140 0.000000 0.000000 
#    y 0.000000 1.668110 0.000000 
#    z 0.000000 0.000000 1.688370 
# 
# From -- ./inp_files/24384.got.cif
#   From: 2010.05.17/outbox.cif.g08.bks.cpg/sg64_13_cif.got.tgz:24384.got - 2010.06.03 16:29:19.
