data_PCOD9476019
_publ_section_title
;
Structure prediction by ZEFSAII (Michael W. Deem and Ramdas Pophale) SiO2 
 PCOD9476019
Probable space group: C M C M
;
_chemical_formula_sum "Si O2"
_cell_formula_units_Z 128
_cell_length_a 14.682305
_cell_length_b 22.732267
_cell_length_c 19.731073
_cell_angle_alpha 90.000000
_cell_angle_beta 90.000000
_cell_angle_gamma 90.000000
_cell_volume 6585.483915
_symmetry_space_group_name_H-M "C M C M"
_symmetry_group_IT_number 63
_symmetry_cell_setting 'orthorhombic'
loop_
_space_group_symop_operation_xyz
x,y,z
-x,-y,1/2+z
x,-y,-z
-x,y,1/2-z
-x,-y,-z
x,y,1/2-z
-x,y,z
x,-y,1/2+z
1/2+x,1/2+y,z
1/2-x,1/2-y,1/2+z
1/2+x,1/2-y,-z
1/2-x,1/2+y,1/2-z
1/2-x,1/2-y,-z
1/2+x,1/2+y,1/2-z
1/2-x,1/2+y,z
1/2+x,1/2-y,1/2+z
loop_
_atom_site_type_symbol
_atom_site_label
_atom_site_fract_x
_atom_site_fract_y
_atom_site_fract_z
Si Si1 0.366511 0.260647 0.065810
Si Si2 0.697867 0.076854 0.568650
Si Si3 0.848824 0.707568 0.923336
Si Si4 0.802604 0.551686 0.407149
Si Si5 0.902639 0.076540 0.407059
Si Si6 0.903012 0.103027 0.566480
Si Si7 0.365602 0.692544 0.326650
Si Si8 0.649002 0.834793 0.672986
O O1 0.257618 0.273083 0.070227
O O2 0.404074 0.326281 0.068120
O O3 0.392244 0.216315 0.126009
O O4 0.388674 0.229200 0.994831
O O5 0.648041 0.137656 0.585745
O O6 0.696465 0.071378 0.486317
O O7 0.803706 0.083567 0.592132
O O8 0.661385 0.014898 0.596440
O O9 0.885924 0.745271 0.861140
O O10 0.694896 0.549780 0.387169
O O11 0.852619 0.601595 0.363524
O O12 0.902489 0.081721 0.488347
O O13 0.900901 0.141492 0.375388
O O14 0.000000 0.049229 0.386886
O O15 0.000000 0.083112 0.596865
O O16 0.398313 0.687485 0.250000
O O17 0.256554 0.681840 0.324528
O O18 0.615002 0.836455 0.750000
#
# Coordination Sequence:
#
# PCOD9476019 Si02
#       8
#    16  16  16  16  16  16  16  16
#     4   9  14  24  42  58  77 105 134 172 217 252
#     4   9  16  25  40  58  83 114 142 169 204 246
#     4   9  14  24  40  58  77 104 139 171 210 255
#     4   9  16  26  38  58  83 111 144 173 200 239
#     4   9  16  25  37  55  83 116 145 172 201 233
#     4   9  16  25  39  61  85 110 141 174 205 241
#     4   9  16  25  38  57  80 105 135 174 214 251
#     4   9  16  26  41  60  79 100 133 177 219 251
#
# _framework density 19.436688
#
# number of rings (size 3 to 8) (size 9 to 14) (size 15 to 20)
#    0.000    3.000    2.500    0.000    0.000    0.750 
#    0.000    3.125    0.000    1.125    0.000    0.000 
#    0.000    3.000    0.000    0.500    0.000    0.000 
#
# Total GULP energy -356416.872244 kJ/mol
# GULP energy per Si atom -5569.013629 kJ/mol
# Density = 1.939245 g / cm^3
# Si number density = 19.436688 Si / 1000 Ang^3
#
#
#
# Elastic Constant Matrix: (Units=GPa)
#
#
# Indices 1 2 3 4 5 6 
#
# 1 27.0988 -6.8833 -6.8813 0.0000 0.0000 0.0000
# 2 -6.8833 146.7126 19.6666 0.0000 0.0000 0.0000
# 3 -6.8813 19.6666 32.1776 0.0000 0.0000 0.0000
# 4 0.0000 0.0000 0.0000 13.8404 0.0000 0.0000
# 5 0.0000 0.0000 0.0000 0.0000 0.4278 0.0000
# 6 0.0000 0.0000 0.0000 0.0000 0.0000 -29.9274
#
#
#
# Elastic Compliance Matrix: (Units=1/GPa)
#
#
# Indices 1 2 3 4 5 6 
#
# 1 0.039102 0.000777 0.007887 0.000000 0.000000 0.000000
# 2 0.000777 0.007440 -0.004381 0.000000 0.000000 0.000000
# 3 0.007887 -0.004381 0.035442 0.000000 0.000000 0.000000
# 4 0.000000 0.000000 0.000000 0.072252 0.000000 0.000000
# 5 0.000000 0.000000 0.000000 0.000000 2.337600 0.000000
# 6 0.000000 0.000000 0.000000 0.000000 0.000000 -0.033414
#
#
# Mechanical properties :
#
#
# Convention : Reuss Voigt Hill
#
# Bulk Modulus (GPa) = 11.04351 24.19919 17.62135
# Shear Modulus (GPa) = 2.01610 10.20729 6.11169
#
# Velocity S-wave (km/s) = 1.01957 2.29411 1.77517
# Velocity P-wave (km/s) = 2.66085 4.41527 3.64518
#
# Compressibility (1/GPa) = 0.09055093
#
# Stress axis : x y z
#
# Youngs Moduli (GPa) = 25.57397 134.41283 28.21532
#
# Poissons Ratio (x) = -0.10448 -0.22254
# Poissons Ratio (y) = -0.01988 0.12361
# Poissons Ratio (z) = -0.20171 0.58884
#
# Static dielectric constant tensor:
#      x y z
#    x 2.282740 0.000000 0.000000 
#    y 0.000000 1.681130 0.000000 
#    z 0.000000 0.000000 1.650990 
# 
# From -- ./inp_files/47602.got.cif
#   From: 2010.05.17/outbox.cif.g08.bks.cpg/sg63_24_cif.got.tgz:47602.got - 2010.06.03 15:47:04.
