data_PCOD9476834
_publ_section_title
;
Structure prediction by ZEFSAII (Michael W. Deem and Ramdas Pophale) SiO2 
 PCOD9476834
Probable space group: C M C A
;
_chemical_formula_sum "Si O2"
_cell_formula_units_Z 112
_cell_length_a 21.201741
_cell_length_b 12.482647
_cell_length_c 19.768258
_cell_angle_alpha 90.000000
_cell_angle_beta 90.000000
_cell_angle_gamma 90.000000
_cell_volume 5231.745562
_symmetry_space_group_name_H-M "C M C A"
_symmetry_group_IT_number 64
_symmetry_cell_setting 'orthorhombic'
loop_
_space_group_symop_operation_xyz
x,y,z
-x,1/2-y,1/2+z
x,-y,-z
-x,1/2+y,1/2-z
-x,-y,-z
x,1/2+y,1/2-z
-x,y,z
x,1/2-y,1/2+z
1/2+x,1/2+y,z
1/2-x,-y,1/2+z
1/2+x,1/2-y,-z
1/2-x,y,1/2-z
1/2-x,1/2-y,-z
1/2+x,y,1/2-z
1/2-x,1/2+y,z
1/2+x,-y,1/2+z
loop_
_atom_site_type_symbol
_atom_site_label
_atom_site_fract_x
_atom_site_fract_y
_atom_site_fract_z
Si Si1 0.300749 0.318838 0.115436
Si Si2 0.631365 0.125734 0.487014
Si Si3 0.279481 0.982714 0.683220
Si Si4 0.347251 0.092675 0.122867
Si Si5 0.927652 0.401027 0.156118
Si Si6 0.430481 0.842650 0.996762
Si Si7 0.667652 0.724616 0.156785
O O1 0.322514 0.428005 0.150275
O O2 0.340014 0.217257 0.141016
O O3 0.228395 0.293876 0.134309
O O4 0.310754 0.339265 0.035820
O O5 0.578574 0.213858 0.507165
O O6 0.646462 0.157454 0.409903
O O7 0.618047 0.000000 0.500000
O O8 0.250000 0.032692 0.750000
O O9 0.223196 0.954310 0.630689
O O10 0.310949 0.871440 0.704986
O O11 0.376718 0.101968 0.047845
O O12 0.392873 0.014459 0.164414
O O13 0.885361 0.303926 0.183986
O O14 0.000000 0.401488 0.178279
O O15 0.926295 0.376146 0.075006
O O16 0.500000 0.872941 0.970824
#
# Coordination Sequence:
#
# PCOD9476834 Si02
#       7
#    16  16  16  16  16  16  16
#     4  10  20  35  53  84 116 148 183 236 298 349
#     4  10  18  31  53  81 121 151 179 230 295 363
#     4  11  23  39  59  82 111 153 199 246 295 343
#     4  10  20  35  55  84 112 148 190 236 286 339
#     4  10  19  35  60  89 122 156 189 228 281 351
#     4   9  19  33  54  86 119 153 190 229 278 347
#     4  10  20  36  55  86 114 147 193 233 292 352
#
# _framework density 21.407768000000001
#
# number of rings (size 3 to 8) (size 9 to 14) (size 15 to 20)
#    0.000    2.000    2.857    1.286    0.000    4.857 
#    5.143    0.000    0.000    1.714    0.000    0.000 
#    0.000    0.000    0.000    0.000    0.000    0.000 
#
# Total GULP energy -312370.538291 kJ/mol
# GULP energy per Si atom -5578.045327 kJ/mol
# Density = 2.135904 g / cm^3
# Si number density = 21.407768 Si / 1000 Ang^3
#
#
#
# Elastic Constant Matrix: (Units=GPa)
#
#
# Indices 1 2 3 4 5 6 
#
# 1 89.4996 46.2606 -3.0543 0.0000 0.0000 0.0000
# 2 46.2606 164.4170 3.6958 0.0000 0.0000 0.0000
# 3 -3.0543 3.6958 32.8973 0.0000 0.0000 0.0000
# 4 0.0000 0.0000 0.0000 16.6126 0.0000 0.0000
# 5 0.0000 0.0000 0.0000 0.0000 1.0785 0.0000
# 6 0.0000 0.0000 0.0000 0.0000 0.0000 22.0534
#
#
#
# Elastic Compliance Matrix: (Units=1/GPa)
#
#
# Indices 1 2 3 4 5 6 
#
# 1 0.013163 -0.003740 0.001642 0.000000 0.000000 0.000000
# 2 -0.003740 0.007160 -0.001152 0.000000 0.000000 0.000000
# 3 0.001642 -0.001152 0.030679 0.000000 0.000000 0.000000
# 4 0.000000 0.000000 0.000000 0.060195 0.000000 0.000000
# 5 0.000000 0.000000 0.000000 0.000000 0.927199 0.000000
# 6 0.000000 0.000000 0.000000 0.000000 0.000000 0.045345
#
#
# Mechanical properties :
#
#
# Convention : Reuss Voigt Hill
#
# Bulk Modulus (GPa) = 22.47046 42.29091 32.38069
# Shear Modulus (GPa) = 4.52458 23.94300 14.23379
#
# Velocity S-wave (km/s) = 1.45537 3.34792 2.58134
# Velocity P-wave (km/s) = 3.65285 5.89428 4.90336
#
# Compressibility (1/GPa) = 0.04450287
#
# Stress axis : x y z
#
# Youngs Moduli (GPa) = 75.97277 139.65733 32.59508
#
# Poissons Ratio (x) = 0.52237 -0.05353
# Poissons Ratio (y) = 0.28417 0.03754
# Poissons Ratio (z) = -0.12477 0.16084
#
# Static dielectric constant tensor:
#      x y z
#    x 1.791480 0.000000 0.000000 
#    y 0.000000 1.832200 0.000000 
#    z 0.000000 0.000000 1.842890 
# 
# From -- ./inp_files/46330.got.cif
#   From: 2010.05.17/outbox.cif.g08.bks.cpg/sg64_24_cif.got.tgz:46330.got - 2010.06.03 16:29:19.
