data_PCOD9476136
_publ_section_title
;
Structure prediction by ZEFSAII (Michael W. Deem and Ramdas Pophale) SiO2 
 PCOD9476136
Probable space group: C M C M
;
_chemical_formula_sum "Si O2"
_cell_formula_units_Z 40
_cell_length_a 18.000000
_cell_length_b 27.000000
_cell_length_c 9.000000
_cell_angle_alpha 90.000000
_cell_angle_beta 90.000000
_cell_angle_gamma 90.000000
_cell_volume 4374.000000
_symmetry_space_group_name_H-M "C M C M"
_symmetry_group_IT_number 63
_symmetry_cell_setting 'orthorhombic'
loop_
_space_group_symop_operation_xyz
x,y,z
-x,-y,1/2+z
x,-y,-z
-x,y,1/2-z
-x,-y,-z
x,y,1/2-z
-x,y,z
x,-y,1/2+z
1/2+x,1/2+y,z
1/2-x,1/2-y,1/2+z
1/2+x,1/2-y,-z
1/2-x,1/2+y,1/2-z
1/2-x,1/2-y,-z
1/2+x,1/2+y,1/2-z
1/2-x,1/2+y,z
1/2+x,1/2-y,1/2+z
loop_
_atom_site_type_symbol
_atom_site_label
_atom_site_fract_x
_atom_site_fract_y
_atom_site_fract_z
Si Si1 0.710278 0.600785 0.419903
Si Si2 0.865012 0.551488 0.426410
Si Si3 0.708293 0.794115 0.578579
Si Si4 0.414817 0.850099 0.082099
Si Si5 0.915944 0.051507 0.925319
O O1 0.687152 0.591349 0.250000
O O2 0.778071 0.563639 0.455304
O O3 0.743509 0.655586 0.429157
O O4 0.641779 0.592592 0.526191
O O5 0.886756 0.500000 0.500000
O O6 0.875909 0.549946 0.250000
O O7 0.906732 0.598395 0.494778
O O8 0.694786 0.782691 0.750000
O O9 0.750000 0.750000 0.500000
O O10 0.632886 0.808418 0.497006
O O11 0.387014 0.857903 0.250000
O O12 0.500000 0.835775 0.086252
O O13 0.915686 0.045138 0.750000
O O14 0.000000 0.062473 0.974885
O O15 0.892737 0.000000 0.000000
#
# Coordination Sequence:
#
# PCOD9476136 Si02
#       5
#    16  16  16  16  16
#     4   9  19  34  52  75 101 132 171 214 259 307
#     4  10  20  33  51  77 108 142 180 218 259 311
#     4  10  21  38  60  83 106 135 173 217 266 317
#     4  10  21  37  57  81 109 141 177 217 262 312
#     4  10  20  32  48  72 102 137 174 211 255 306
#
# _framework density 9.1449470000000002
#
# number of rings (size 3 to 8) (size 9 to 14) (size 15 to 20)
#    0.000    2.200    0.000    4.200    0.000    9.600 
#    0.000    1.000    0.000    1.200    0.000    0.000 
#    0.000    0.000    0.000    0.000    0.000    0.000 
#
# Total GULP energy -223144.386124 kJ/mol
# GULP energy per Si atom -5578.609653 kJ/mol
# Density = 0.912413 g / cm^3
# Si number density = 9.144947 Si / 1000 Ang^3
#
#
#
# Elastic Constant Matrix: (Units=GPa)
#
#
# Indices 1 2 3 4 5 6 
#
# 1 58.8075 36.8278 63.3650 0.0000 0.0000 0.0000
# 2 36.8278 52.0365 38.6900 0.0000 0.0000 0.0000
# 3 63.3650 38.6900 67.4749 0.0000 0.0000 0.0000
# 4 0.0000 0.0000 0.0000 32.4372 0.0000 0.0000
# 5 0.0000 0.0000 0.0000 0.0000 25.1121 0.0000
# 6 0.0000 0.0000 0.0000 0.0000 0.0000 41.6847
#
#
#
# Elastic Compliance Matrix: (Units=1/GPa)
#
#
# Indices 1 2 3 4 5 6 
#
# 1 -1.416077 0.023452 1.316377 0.000000 0.000000 0.000000
# 2 0.023452 0.033111 -0.041009 0.000000 0.000000 0.000000
# 3 1.316377 -0.041009 -1.197863 0.000000 0.000000 0.000000
# 4 0.000000 0.000000 0.000000 0.030829 0.000000 0.000000
# 5 0.000000 0.000000 0.000000 0.000000 0.039821 0.000000
# 6 0.000000 0.000000 0.000000 0.000000 0.000000 0.023990
#
#
# Mechanical properties :
#
#
# Convention : Reuss Voigt Hill
#
# Bulk Modulus (GPa) = 59.48399 50.67606 55.08003
# Shear Modulus (GPa) = -0.98460 22.47586 10.74563
#
# Velocity S-wave (km/s) = -0.73450 3.50932 2.42651
# Velocity P-wave (km/s) = 5.64572 6.64739 6.16692
#
# Compressibility (1/GPa) = 0.01681125
#
# Stress axis : x y z
#
# Youngs Moduli (GPa) = -0.70618 30.20186 -0.83482
#
# Poissons Ratio (x) = -0.70829 1.09894
# Poissons Ratio (y) = 0.01656 -0.03424
# Poissons Ratio (z) = 0.92959 1.23855
#
# Static dielectric constant tensor:
#      x y z
#    x 1.644850 0.000000 0.000000 
#    y 0.000000 1.598010 0.000000 
#    z 0.000000 0.000000 1.633340 
# 
# From -- ./inp_files/6365.got.cif
#   From: 2010.05.17/outbox.ucp.g08.bks.cvg/sg63_4_cif.got.tgz:6365.got - 2010.06.11 16:32:19.
