data_PCOD9476437
_publ_section_title
;
Structure prediction by ZEFSAII (Michael W. Deem and Ramdas Pophale) SiO2 
 PCOD9476437
Probable space group: C M C A
;
_chemical_formula_sum "Si O2"
_cell_formula_units_Z 80
_cell_length_a 8.273606
_cell_length_b 14.229320
_cell_length_c 30.900213
_cell_angle_alpha 90.000000
_cell_angle_beta 90.000000
_cell_angle_gamma 90.000000
_cell_volume 3637.813704
_symmetry_space_group_name_H-M "C M C A"
_symmetry_group_IT_number 64
_symmetry_cell_setting 'orthorhombic'
loop_
_space_group_symop_operation_xyz
x,y,z
-x,1/2-y,1/2+z
x,-y,-z
-x,1/2+y,1/2-z
-x,-y,-z
x,1/2+y,1/2-z
-x,y,z
x,1/2-y,1/2+z
1/2+x,1/2+y,z
1/2-x,-y,1/2+z
1/2+x,1/2-y,-z
1/2-x,y,1/2-z
1/2-x,1/2-y,-z
1/2+x,y,1/2-z
1/2-x,1/2+y,z
1/2+x,-y,1/2+z
loop_
_atom_site_type_symbol
_atom_site_label
_atom_site_fract_x
_atom_site_fract_y
_atom_site_fract_z
Si Si1 0.694592 0.548524 0.856162
Si Si2 0.188650 0.096038 0.947752
Si Si3 0.812180 0.612204 0.037825
Si Si4 0.691644 0.299464 0.297841
Si Si5 0.304591 0.833157 0.625044
O O1 0.500000 0.553387 0.856906
O O2 0.754608 0.604899 0.898954
O O3 0.758056 0.596811 0.813134
O O4 0.739491 0.439992 0.861564
O O5 0.000000 0.121421 0.949422
O O6 0.207014 0.982496 0.954734
O O7 0.277363 0.141606 0.988571
O O8 0.767759 0.681088 0.077092
O O9 0.000000 0.586679 0.041329
O O10 0.500000 0.291593 0.298121
O O11 0.750000 0.276581 0.250000
O O12 0.755529 0.232392 0.336169
O O13 0.500000 0.826976 0.621825
#
# Coordination Sequence:
#
# PCOD9476437 Si02
#       5
#    16  16  16  16  16
#     4   9  19  37  60  84 112 146 186 227 273 326
#     4   9  16  29  50  76 112 154 186 219 268 327
#     4  10  17  26  48  82 114 145 185 230 268 315
#     4  11  24  41  61  83 110 142 182 232 284 335
#     4   9  20  39  59  81 112 151 186 222 274 333
#
# _framework density 21.991230999999999
#
# number of rings (size 3 to 8) (size 9 to 14) (size 15 to 20)
#    0.000    2.400    0.000    5.400    0.000    6.400 
#    0.000    3.000    0.000    0.000    0.000    0.000 
#    0.000    0.000    0.000    0.000    0.000    0.000 
#
# Total GULP energy -223405.020309 kJ/mol
# GULP energy per Si atom -5585.125508 kJ/mol
# Density = 2.194118 g / cm^3
# Si number density = 21.991231 Si / 1000 Ang^3
#
#
#
# Elastic Constant Matrix: (Units=GPa)
#
#
# Indices 1 2 3 4 5 6 
#
# 1 33.7768 0.2676 15.9173 0.0000 0.0000 0.0000
# 2 0.2676 50.9880 35.1971 0.0000 0.0000 0.0000
# 3 15.9173 35.1971 154.5044 0.0000 0.0000 0.0000
# 4 0.0000 0.0000 0.0000 33.7514 0.0000 0.0000
# 5 0.0000 0.0000 0.0000 0.0000 23.1020 0.0000
# 6 0.0000 0.0000 0.0000 0.0000 0.0000 3.9883
#
#
#
# Elastic Compliance Matrix: (Units=1/GPa)
#
#
# Indices 1 2 3 4 5 6 
#
# 1 0.031373 0.002452 -0.003791 0.000000 0.000000 0.000000
# 2 0.002452 0.023464 -0.005598 0.000000 0.000000 0.000000
# 3 -0.003791 -0.005598 0.008138 0.000000 0.000000 0.000000
# 4 0.000000 0.000000 0.000000 0.029628 0.000000 0.000000
# 5 0.000000 0.000000 0.000000 0.000000 0.043286 0.000000
# 6 0.000000 0.000000 0.000000 0.000000 0.000000 0.250736
#
#
# Mechanical properties :
#
#
# Convention : Reuss Voigt Hill
#
# Bulk Modulus (GPa) = 20.36576 38.00368 29.18472
# Shear Modulus (GPa) = 11.99428 24.69417 18.34423
#
# Velocity S-wave (km/s) = 2.33794 3.35462 2.89132
# Velocity P-wave (km/s) = 4.07049 5.68537 4.94431
#
# Compressibility (1/GPa) = 0.04910203
#
# Stress axis : x y z
#
# Youngs Moduli (GPa) = 31.87450 42.61885 122.87955
#
# Poissons Ratio (x) = -0.10451 0.46580
# Poissons Ratio (y) = -0.07816 0.68786
# Poissons Ratio (z) = 0.12083 0.23857
#
# Static dielectric constant tensor:
#      x y z
#    x 1.737860 0.000000 0.000000 
#    y 0.000000 1.856420 0.000000 
#    z 0.000000 0.000000 1.832980 
# 
# From -- ./inp_files/47884.got.cif
#   From: 2010.05.17/outbox.cif.g08.bks.cpg/sg64_24_cif.got.tgz:47884.got - 2010.06.03 16:29:19.
