data_PCOD9476626
_publ_section_title
;
Structure prediction by ZEFSAII (Michael W. Deem and Ramdas Pophale) SiO2 
 PCOD9476626
Probable space group: C M C A
;
_chemical_formula_sum "Si O2"
_cell_formula_units_Z 96
_cell_length_a 7.545912
_cell_length_b 20.089448
_cell_length_c 31.950528
_cell_angle_alpha 90.000000
_cell_angle_beta 90.000000
_cell_angle_gamma 90.000000
_cell_volume 4843.482996
_symmetry_space_group_name_H-M "C M C A"
_symmetry_group_IT_number 64
_symmetry_cell_setting 'orthorhombic'
loop_
_space_group_symop_operation_xyz
x,y,z
-x,1/2-y,1/2+z
x,-y,-z
-x,1/2+y,1/2-z
-x,-y,-z
x,1/2+y,1/2-z
-x,y,z
x,1/2-y,1/2+z
1/2+x,1/2+y,z
1/2-x,-y,1/2+z
1/2+x,1/2-y,-z
1/2-x,y,1/2-z
1/2-x,1/2-y,-z
1/2+x,y,1/2-z
1/2-x,1/2+y,z
1/2+x,-y,1/2+z
loop_
_atom_site_type_symbol
_atom_site_label
_atom_site_fract_x
_atom_site_fract_y
_atom_site_fract_z
Si Si1 0.710674 0.646509 0.608459
Si Si2 0.216717 0.998288 0.368762
Si Si3 0.713007 0.211858 0.139863
Si Si4 0.715974 0.610802 0.432156
Si Si5 0.712102 0.599901 0.298752
Si Si6 0.712759 0.675258 0.515353
O O1 0.500000 0.637726 0.603948
O O2 0.779527 0.577176 0.626897
O O3 0.736327 0.711586 0.636661
O O4 0.782781 0.661642 0.561863
O O5 0.000000 0.997951 0.367807
O O6 0.268725 0.043021 0.408928
O O7 0.276125 0.038652 0.327587
O O8 0.500000 0.209985 0.139737
O O9 0.771694 0.171517 0.098314
O O10 0.776325 0.168226 0.179295
O O11 0.500000 0.610961 0.432722
O O12 0.777510 0.625437 0.479028
O O13 0.500000 0.600302 0.302972
O O14 0.750000 0.594652 0.250000
O O15 0.500000 0.668565 0.517068
O O16 0.750000 0.750000 0.500000
#
# Coordination Sequence:
#
# PCOD9476626 Si02
#       6
#    16  16  16  16  16  16
#     4  10  19  29  46  74 101 125 159 204 241 271
#     4   8  16  31  48  69  98 127 156 195 242 285
#     4   9  17  31  50  69  94 127 157 188 235 289
#     4   8  14  27  46  65  90 128 165 193 226 274
#     4   9  18  34  56  75  92 120 157 195 237 288
#     4  10  18  27  44  70  96 128 167 203 237 271
#
# _framework density 19.820447000000001
#
# number of rings (size 3 to 8) (size 9 to 14) (size 15 to 20)
#    0.000    3.000    1.667    2.000    0.000    1.333 
#    0.000    5.000    0.000    6.000    0.000    2.333 
#    0.000    0.000    0.000    0.000    0.000    0.000 
#
# Total GULP energy -267643.742286 kJ/mol
# GULP energy per Si atom -5575.911298 kJ/mol
# Density = 1.977533 g / cm^3
# Si number density = 19.820447 Si / 1000 Ang^3
#
#
#
# Elastic Constant Matrix: (Units=GPa)
#
#
# Indices 1 2 3 4 5 6 
#
# 1 45.4506 3.7114 6.5139 0.0000 0.0000 0.0000
# 2 3.7114 197.3543 95.6812 0.0000 0.0000 0.0000
# 3 6.5139 95.6812 150.2448 0.0000 0.0000 0.0000
# 4 0.0000 0.0000 0.0000 17.1357 0.0000 0.0000
# 5 0.0000 0.0000 0.0000 0.0000 10.6205 0.0000
# 6 0.0000 0.0000 0.0000 0.0000 0.0000 16.1766
#
#
#
# Elastic Compliance Matrix: (Units=1/GPa)
#
#
# Indices 1 2 3 4 5 6 
#
# 1 0.022140 0.000071 -0.001005 0.000000 0.000000 0.000000
# 2 0.000071 0.007330 -0.004671 0.000000 0.000000 0.000000
# 3 -0.001005 -0.004671 0.009674 0.000000 0.000000 0.000000
# 4 0.000000 0.000000 0.000000 0.058358 0.000000 0.000000
# 5 0.000000 0.000000 0.000000 0.000000 0.094158 0.000000
# 6 0.000000 0.000000 0.000000 0.000000 0.000000 0.061818
#
#
# Mechanical properties :
#
#
# Convention : Reuss Voigt Hill
#
# Bulk Modulus (GPa) = 35.79885 67.20699 51.50292
# Shear Modulus (GPa) = 18.24815 27.92943 23.08879
#
# Velocity S-wave (km/s) = 3.03755 3.75790 3.41676
# Velocity P-wave (km/s) = 5.51390 7.26709 6.45034
#
# Compressibility (1/GPa) = 0.02793386
#
# Stress axis : x y z
#
# Youngs Moduli (GPa) = 45.16678 136.41694 103.36692
#
# Poissons Ratio (x) = -0.00967 0.10389
# Poissons Ratio (y) = -0.00320 0.48287
# Poissons Ratio (z) = 0.04540 0.63725
#
# Static dielectric constant tensor:
#      x y z
#    x 1.785900 0.000000 0.000000 
#    y 0.000000 1.693450 0.000000 
#    z 0.000000 0.000000 1.697160 
# 
# From -- ./inp_files/44199.got.cif
#   From: 2010.05.17/outbox.cif.g08.bks.cpg/sg64_23_cif.got.tgz:44199.got - 2010.06.03 16:29:19.
