data_PCOD9476831
_publ_section_title
;
Structure prediction by ZEFSAII (Michael W. Deem and Ramdas Pophale) SiO2 
 PCOD9476831
Probable space group: C M C A
;
_chemical_formula_sum "Si O2"
_cell_formula_units_Z 64
_cell_length_a 13.973107
_cell_length_b 20.524147
_cell_length_c 8.611850
_cell_angle_alpha 90.000000
_cell_angle_beta 90.000000
_cell_angle_gamma 90.000000
_cell_volume 2469.758893
_symmetry_space_group_name_H-M "C M C A"
_symmetry_group_IT_number 64
_symmetry_cell_setting 'orthorhombic'
loop_
_space_group_symop_operation_xyz
x,y,z
-x,1/2-y,1/2+z
x,-y,-z
-x,1/2+y,1/2-z
-x,-y,-z
x,1/2+y,1/2-z
-x,y,z
x,1/2-y,1/2+z
1/2+x,1/2+y,z
1/2-x,-y,1/2+z
1/2+x,1/2-y,-z
1/2-x,y,1/2-z
1/2-x,1/2-y,-z
1/2+x,y,1/2-z
1/2-x,1/2+y,z
1/2+x,-y,1/2+z
loop_
_atom_site_type_symbol
_atom_site_label
_atom_site_fract_x
_atom_site_fract_y
_atom_site_fract_z
Si Si1 0.191798 0.163281 0.575447
Si Si2 0.890307 0.468994 0.173213
Si Si3 0.604350 0.206854 0.509844
Si Si4 0.389183 0.105235 0.233911
O O1 0.163149 0.098951 0.669328
O O2 0.297797 0.192531 0.602014
O O3 0.120289 0.224386 0.575985
O O4 0.177694 0.137138 0.396648
O O5 0.859934 0.531103 0.275388
O O6 0.000000 0.454195 0.212190
O O7 0.884660 0.500000 0.000000
O O8 0.500000 0.207688 0.588232
O O9 0.604788 0.150218 0.382596
O O10 0.500000 0.101542 0.171226
#
# Coordination Sequence:
#
# PCOD9476831 Si02
#       4
#    16  16  16  16
#     4  10  18  31  53  78 107 144 180 215 261 319
#     4   8  14  27  51  78  99 129 175 220 258 302
#     4  10  20  31  49  81 114 143 176 218 268 316
#     4   9  17  31  53  80 108 136 173 221 265 310
#
# _framework density 25.913460000000001
#
# number of rings (size 3 to 8) (size 9 to 14) (size 15 to 20)
#    0.000    2.750    0.000    4.500    0.000    0.000 
#    0.000    0.000    0.000   42.750    0.000   21.000 
#    0.000    0.000    0.000    0.000    0.000    0.500 
#
# Total GULP energy -179016.236641 kJ/mol
# GULP energy per Si atom -5594.257395 kJ/mol
# Density = 2.585448 g / cm^3
# Si number density = 25.913460 Si / 1000 Ang^3
#
#
#
# Elastic Constant Matrix: (Units=GPa)
#
#
# Indices 1 2 3 4 5 6 
#
# 1 210.2414 65.6989 13.0686 0.0000 0.0000 0.0000
# 2 65.6989 235.9313 31.0102 0.0000 0.0000 0.0000
# 3 13.0686 31.0102 31.3715 0.0000 0.0000 0.0000
# 4 0.0000 0.0000 0.0000 37.5410 0.0000 0.0000
# 5 0.0000 0.0000 0.0000 0.0000 33.4104 0.0000
# 6 0.0000 0.0000 0.0000 0.0000 0.0000 38.5664
#
#
#
# Elastic Compliance Matrix: (Units=1/GPa)
#
#
# Indices 1 2 3 4 5 6 
#
# 1 0.005229 -0.001345 -0.000849 0.000000 0.000000 0.000000
# 2 -0.001345 0.005217 -0.004597 0.000000 0.000000 0.000000
# 3 -0.000849 -0.004597 0.036774 0.000000 0.000000 0.000000
# 4 0.000000 0.000000 0.000000 0.026638 0.000000 0.000000
# 5 0.000000 0.000000 0.000000 0.000000 0.029931 0.000000
# 6 0.000000 0.000000 0.000000 0.000000 0.000000 0.025929
#
#
# Mechanical properties :
#
#
# Convention : Reuss Voigt Hill
#
# Bulk Modulus (GPa) = 29.72770 77.45551 53.59160
# Shear Modulus (GPa) = 32.35980 46.42132 39.39056
#
# Velocity S-wave (km/s) = 3.53762 4.23708 3.90305
# Velocity P-wave (km/s) = 5.30878 7.34113 6.40606
#
# Compressibility (1/GPa) = 0.03363866
#
# Stress axis : x y z
#
# Youngs Moduli (GPa) = 191.22639 191.67542 27.19324
#
# Poissons Ratio (x) = 0.25772 0.02310
# Poissons Ratio (y) = 0.25712 0.12501
# Poissons Ratio (z) = 0.16242 0.88112
#
# Static dielectric constant tensor:
#      x y z
#    x 2.075360 0.000000 0.000000 
#    y 0.000000 2.001500 0.000000 
#    z 0.000000 0.000000 2.145880 
# 
# From -- ./inp_files/14032.got.cif
#   From: 2010.05.17/outbox.cif.g08.bks.cpg/sg64_8_cif.got.tgz:14032.got - 2010.06.03 16:29:19.
