data_PCOD9476900
_publ_section_title
;
Structure prediction by ZEFSAII (Michael W. Deem and Ramdas Pophale) SiO2 
 PCOD9476900
Probable space group: C M C A
;
_chemical_formula_sum "Si O2"
_cell_formula_units_Z 88
_cell_length_a 7.892674
_cell_length_b 21.062545
_cell_length_c 25.963486
_cell_angle_alpha 90.000000
_cell_angle_beta 90.000000
_cell_angle_gamma 90.000000
_cell_volume 4316.164754
_symmetry_space_group_name_H-M "C M C A"
_symmetry_group_IT_number 64
_symmetry_cell_setting 'orthorhombic'
loop_
_space_group_symop_operation_xyz
x,y,z
-x,1/2-y,1/2+z
x,-y,-z
-x,1/2+y,1/2-z
-x,-y,-z
x,1/2+y,1/2-z
-x,y,z
x,1/2-y,1/2+z
1/2+x,1/2+y,z
1/2-x,-y,1/2+z
1/2+x,1/2-y,-z
1/2-x,y,1/2-z
1/2-x,1/2-y,-z
1/2+x,y,1/2-z
1/2-x,1/2+y,z
1/2+x,-y,1/2+z
loop_
_atom_site_type_symbol
_atom_site_label
_atom_site_fract_x
_atom_site_fract_y
_atom_site_fract_z
Si Si1 0.206982 0.031357 0.612105
Si Si2 0.796847 0.077364 0.309463
Si Si3 0.192922 0.134570 0.011013
Si Si4 0.201498 0.825253 0.402132
Si Si5 0.798771 0.309590 0.881520
Si Si6 0.246135 0.500000 0.000000
O O1 0.243033 0.105580 0.621118
O O2 0.000000 0.025207 0.603066
O O3 0.256542 0.984399 0.657856
O O4 0.300687 0.010744 0.559584
O O5 0.750000 0.075089 0.250000
O O6 0.734987 0.140644 0.338905
O O7 0.000000 0.078421 0.311971
O O8 0.220588 0.172129 0.063307
O O9 0.000000 0.109087 0.010158
O O10 0.220854 0.175137 0.959659
O O11 0.314586 0.073102 0.007854
O O12 0.261115 0.763941 0.371189
O O13 0.000000 0.821697 0.407560
O O14 0.000000 0.317540 0.886384
#
# Coordination Sequence:
#
# PCOD9476900 Si02
#       6
#    16  16  16  16  16   8
#     4   9  18  35  59  85 115 150 190 234 286 348
#     4  10  22  41  62  86 111 148 196 243 289 341
#     4  11  21  33  52  83 121 155 190 231 285 345
#     4  10  21  36  57  84 117 154 190 231 286 347
#     4  11  22  38  58  81 114 152 194 239 285 339
#     4  10  18  32  54  86 119 150 189 236 291 340
#
# _framework density 20.388470000000002
#
# number of rings (size 3 to 8) (size 9 to 14) (size 15 to 20)
#    0.000    1.818    1.818    2.727    0.000    2.909 
#    0.000    2.727    0.000    4.364    0.000    0.000 
#    0.000    0.000    0.000    0.000    0.000    0.000 
#
# Total GULP energy -245137.348743 kJ/mol
# GULP energy per Si atom -5571.303381 kJ/mol
# Density = 2.034206 g / cm^3
# Si number density = 20.388470 Si / 1000 Ang^3
#
#
#
# Elastic Constant Matrix: (Units=GPa)
#
#
# Indices 1 2 3 4 5 6 
#
# 1 62.3576 19.1341 16.6859 0.0000 0.0000 0.0000
# 2 19.1341 164.0017 108.6488 0.0000 0.0000 0.0000
# 3 16.6859 108.6488 130.3092 0.0000 0.0000 0.0000
# 4 0.0000 0.0000 0.0000 23.0240 0.0000 0.0000
# 5 0.0000 0.0000 0.0000 0.0000 13.4227 0.0000
# 6 0.0000 0.0000 0.0000 0.0000 0.0000 4.0141
#
#
#
# Elastic Compliance Matrix: (Units=1/GPa)
#
#
# Indices 1 2 3 4 5 6 
#
# 1 0.016709 -0.001188 -0.001149 0.000000 0.000000 0.000000
# 2 -0.001188 0.013706 -0.011276 0.000000 0.000000 0.000000
# 3 -0.001149 -0.011276 0.017223 0.000000 0.000000 0.000000
# 4 0.000000 0.000000 0.000000 0.043433 0.000000 0.000000
# 5 0.000000 0.000000 0.000000 0.000000 0.074501 0.000000
# 6 0.000000 0.000000 0.000000 0.000000 0.000000 0.249122
#
#
# Mechanical properties :
#
#
# Convention : Reuss Voigt Hill
#
# Bulk Modulus (GPa) = 48.99135 71.73399 60.36267
# Shear Modulus (GPa) = 11.14275 22.23879 16.69077
#
# Velocity S-wave (km/s) = 2.34032 3.30624 2.86429
# Velocity P-wave (km/s) = 5.60213 7.05939 6.37255
#
# Compressibility (1/GPa) = 0.02041177
#
# Stress axis : x y z
#
# Youngs Moduli (GPa) = 59.84954 72.96005 58.06350
#
# Poissons Ratio (x) = 0.08671 0.06669
# Poissons Ratio (y) = 0.07113 0.65471
# Poissons Ratio (z) = 0.06874 0.82267
#
# Static dielectric constant tensor:
#      x y z
#    x 1.847430 0.000000 0.000000 
#    y 0.000000 1.757970 0.000000 
#    z 0.000000 0.000000 1.671360 
# 
# From -- ./inp_files/42824.got.cif
#   From: 2010.05.17/outbox.cif.g08.bks.cpg/sg64_22_cif.got.tgz:42824.got - 2010.06.03 16:29:19.
