data_PCOD9476520
_publ_section_title
;
Structure prediction by ZEFSAII (Michael W. Deem and Ramdas Pophale) SiO2 
 PCOD9476520
Probable space group: C M C A
;
_chemical_formula_sum "Si O2"
_cell_formula_units_Z 72
_cell_length_a 10.165009
_cell_length_b 11.959379
_cell_length_c 24.615756
_cell_angle_alpha 90.000000
_cell_angle_beta 90.000000
_cell_angle_gamma 90.000000
_cell_volume 2992.468414
_symmetry_space_group_name_H-M "C M C A"
_symmetry_group_IT_number 64
_symmetry_cell_setting 'orthorhombic'
loop_
_space_group_symop_operation_xyz
x,y,z
-x,1/2-y,1/2+z
x,-y,-z
-x,1/2+y,1/2-z
-x,-y,-z
x,1/2+y,1/2-z
-x,y,z
x,1/2-y,1/2+z
1/2+x,1/2+y,z
1/2-x,-y,1/2+z
1/2+x,1/2-y,-z
1/2-x,y,1/2-z
1/2-x,1/2-y,-z
1/2+x,y,1/2-z
1/2-x,1/2+y,z
1/2+x,-y,1/2+z
loop_
_atom_site_type_symbol
_atom_site_label
_atom_site_fract_x
_atom_site_fract_y
_atom_site_fract_z
Si Si1 0.500000 0.127906 0.281015
Si Si2 0.000000 0.054429 0.557833
Si Si3 0.500000 0.991879 0.831209
Si Si4 0.500000 0.862257 0.507297
Si Si5 0.287389 0.354666 0.078054
Si Si6 0.000000 0.469180 0.610343
Si Si7 0.793965 0.686297 0.810344
O O1 0.500000 0.094171 0.218300
O O2 0.500000 0.029165 0.324386
O O3 0.622485 0.203185 0.298473
O O4 0.864055 0.123382 0.563348
O O5 0.000000 0.000000 0.500000
O O6 0.000000 0.960681 0.605667
O O7 0.378282 0.077029 0.825270
O O8 0.626028 0.817230 0.473959
O O9 0.500000 0.856879 0.573001
O O10 0.500000 0.000000 0.500000
O O11 0.365918 0.467937 0.094068
O O12 0.292176 0.289377 0.135827
O O13 0.750000 0.656420 0.750000
#
# Coordination Sequence:
#
# PCOD9476520 Si02
#       7
#     8   8   8   8  16   8  16
#     4  11  23  37  56  85 117 152 198 243 293 361
#     4  10  17  30  57  91 116 143 189 243 293 347
#     4   9  21  38  55  80 117 156 189 237 302 358
#     4   8  16  32  56  86 113 157 205 236 287 361
#     4   9  18  34  58  83 113 152 195 241 290 344
#     4  10  19  35  60  86 118 160 200 239 294 361
#     4  10  21  36  56  81 112 151 198 246 294 346
#
# _framework density 24.060403000000001
#
# number of rings (size 3 to 8) (size 9 to 14) (size 15 to 20)
#    0.000    2.667    0.000    4.000    0.000    7.111 
#    0.000    1.111    0.000   10.667    0.000    0.000 
#    0.000    0.000    0.000    0.000    0.000    0.000 
#
# Total GULP energy -200551.632272 kJ/mol
# GULP energy per Si atom -5570.878674 kJ/mol
# Density = 2.400564 g / cm^3
# Si number density = 24.060403 Si / 1000 Ang^3
#
#
#
# Elastic Constant Matrix: (Units=GPa)
#
#
# Indices 1 2 3 4 5 6 
#
# 1 130.6666 13.7079 38.7829 0.0000 0.0000 0.0000
# 2 13.7079 42.5542 31.6132 0.0000 0.0000 0.0000
# 3 38.7829 31.6132 198.2562 0.0000 0.0000 0.0000
# 4 0.0000 0.0000 0.0000 19.4679 0.0000 0.0000
# 5 0.0000 0.0000 0.0000 0.0000 26.1632 0.0000
# 6 0.0000 0.0000 0.0000 0.0000 0.0000 15.7664
#
#
#
# Elastic Compliance Matrix: (Units=1/GPa)
#
#
# Indices 1 2 3 4 5 6 
#
# 1 0.008226 -0.001650 -0.001346 0.000000 0.000000 0.000000
# 2 -0.001650 0.026988 -0.003981 0.000000 0.000000 0.000000
# 3 -0.001346 -0.003981 0.005942 0.000000 0.000000 0.000000
# 4 0.000000 0.000000 0.000000 0.051367 0.000000 0.000000
# 5 0.000000 0.000000 0.000000 0.000000 0.038222 0.000000
# 6 0.000000 0.000000 0.000000 0.000000 0.000000 0.063426
#
#
# Mechanical properties :
#
#
# Convention : Reuss Voigt Hill
#
# Bulk Modulus (GPa) = 36.76091 59.96499 48.36295
# Shear Modulus (GPa) = 23.02125 31.43770 27.22947
#
# Velocity S-wave (km/s) = 3.09659 3.61864 3.36774
# Velocity P-wave (km/s) = 5.30065 6.51430 5.93856
#
# Compressibility (1/GPa) = 0.02720281
#
# Stress axis : x y z
#
# Youngs Moduli (GPa) = 121.57096 37.05339 168.29242
#
# Poissons Ratio (x) = 0.06113 0.22653
# Poissons Ratio (y) = 0.20056 0.66992
# Poissons Ratio (z) = 0.16364 0.14750
#
# Static dielectric constant tensor:
#      x y z
#    x 1.954950 0.000000 0.000000 
#    y 0.000000 1.966060 0.000000 
#    z 0.000000 0.000000 2.409580 
# 
# From -- ./inp_files/43889.got.cif
#   From: 2010.05.17/outbox.cif.g08.bks.cpg/sg64_22_cif.got.tgz:43889.got - 2010.06.03 16:29:19.
