data_PCOD9476391
_publ_section_title
;
Structure prediction by ZEFSAII (Michael W. Deem and Ramdas Pophale) SiO2 
 PCOD9476391
Probable space group: C M C A
;
_chemical_formula_sum "Si O2"
_cell_formula_units_Z 56
_cell_length_a 38.210801
_cell_length_b 5.314490
_cell_length_c 13.091227
_cell_angle_alpha 90.000000
_cell_angle_beta 90.000000
_cell_angle_gamma 90.000000
_cell_volume 2658.447508
_symmetry_space_group_name_H-M "C M C A"
_symmetry_group_IT_number 64
_symmetry_cell_setting 'orthorhombic'
loop_
_space_group_symop_operation_xyz
x,y,z
-x,1/2-y,1/2+z
x,-y,-z
-x,1/2+y,1/2-z
-x,-y,-z
x,1/2+y,1/2-z
-x,y,z
x,1/2-y,1/2+z
1/2+x,1/2+y,z
1/2-x,-y,1/2+z
1/2+x,1/2-y,-z
1/2-x,y,1/2-z
1/2-x,1/2-y,-z
1/2+x,y,1/2-z
1/2-x,1/2+y,z
1/2+x,-y,1/2+z
loop_
_atom_site_type_symbol
_atom_site_label
_atom_site_fract_x
_atom_site_fract_y
_atom_site_fract_z
Si Si1 0.236344 0.920135 0.133882
Si Si2 0.396175 0.000000 0.500000
Si Si3 0.943010 0.000000 0.500000
Si Si4 0.658376 0.549845 0.182675
Si Si5 0.500000 0.518617 0.679225
O O1 0.250000 0.882105 0.250000
O O2 0.239403 0.640726 0.091361
O O3 0.196892 0.018876 0.133836
O O4 0.419771 0.750707 0.493806
O O5 0.371357 0.020019 0.401512
O O6 0.967071 0.984454 0.398465
O O7 0.655778 0.820328 0.236885
O O8 0.500000 0.770069 0.749065
#
# Coordination Sequence:
#
# PCOD9476391 Si02
#       5
#    16   8   8  16   8
#     4  10  16  32  59  81 111 160 214 286 342 358
#     4  12  28  43  62 101 142 177 218 255 338 399
#     4  11  26  48  66 103 150 165 206 289 298 373
#     4  12  23  40  64  88 126 177 223 273 335 402
#     4  11  24  45  82 108 128 175 228 247 318 388
#
# _framework density 21.064924999999999
#
# number of rings (size 3 to 8) (size 9 to 14) (size 15 to 20)
#    0.000    0.857    5.714    3.429    0.000    9.143 
#    0.000    1.429    0.000    0.000    0.000    0.000 
#    0.000    0.000    0.000    0.000    0.000    0.000 
#
# Total GULP energy -156588.407109 kJ/mol
# GULP energy per Si atom -5592.443111 kJ/mol
# Density = 2.101698 g / cm^3
# Si number density = 21.064925 Si / 1000 Ang^3
#
#
#
# Elastic Constant Matrix: (Units=GPa)
#
#
# Indices 1 2 3 4 5 6 
#
# 1 111.9165 3.4740 18.8956 0.0000 0.0000 0.0000
# 2 3.4740 103.8609 7.3316 0.0000 0.0000 0.0000
# 3 18.8956 7.3316 82.9520 0.0000 0.0000 0.0000
# 4 0.0000 0.0000 0.0000 42.5115 0.0000 0.0000
# 5 0.0000 0.0000 0.0000 0.0000 25.1449 0.0000
# 6 0.0000 0.0000 0.0000 0.0000 0.0000 32.1839
#
#
#
# Elastic Compliance Matrix: (Units=1/GPa)
#
#
# Indices 1 2 3 4 5 6 
#
# 1 0.009295 -0.000162 -0.002103 0.000000 0.000000 0.000000
# 2 -0.000162 0.009692 -0.000820 0.000000 0.000000 0.000000
# 3 -0.002103 -0.000820 0.012607 0.000000 0.000000 0.000000
# 4 0.000000 0.000000 0.000000 0.023523 0.000000 0.000000
# 5 0.000000 0.000000 0.000000 0.000000 0.039770 0.000000
# 6 0.000000 0.000000 0.000000 0.000000 0.000000 0.031071
#
#
# Mechanical properties :
#
#
# Convention : Reuss Voigt Hill
#
# Bulk Modulus (GPa) = 39.33377 39.79240 39.56308
# Shear Modulus (GPa) = 35.56135 37.90328 36.73232
#
# Velocity S-wave (km/s) = 4.11320 4.24648 4.18037
# Velocity P-wave (km/s) = 6.42426 6.55552 6.49022
#
# Compressibility (1/GPa) = 0.02542345
#
# Stress axis : x y z
#
# Youngs Moduli (GPa) = 107.58080 103.18267 79.32325
#
# Poissons Ratio (x) = 0.01676 0.16682
# Poissons Ratio (y) = 0.01748 0.06501
# Poissons Ratio (z) = 0.22624 0.08456
#
# Static dielectric constant tensor:
#      x y z
#    x 1.726840 0.000000 0.000000 
#    y 0.000000 1.762000 0.000000 
#    z 0.000000 0.000000 1.361710 
# 
# From -- ./inp_files/28231.got.cif
#   From: 2010.05.17/outbox.cif.g08.bks.cpg/sg64_15_cif.got.tgz:28231.got - 2010.06.03 16:29:19.
