data_PCOD9476704
_publ_section_title
;
Structure prediction by ZEFSAII (Michael W. Deem and Ramdas Pophale) SiO2 
 PCOD9476704
Probable space group: C M C A
;
_chemical_formula_sum "Si O2"
_cell_formula_units_Z 88
_cell_length_a 21.373768
_cell_length_b 14.487735
_cell_length_c 17.952353
_cell_angle_alpha 90.000000
_cell_angle_beta 90.000000
_cell_angle_gamma 90.000000
_cell_volume 5559.080511
_symmetry_space_group_name_H-M "C M C A"
_symmetry_group_IT_number 64
_symmetry_cell_setting 'orthorhombic'
loop_
_space_group_symop_operation_xyz
x,y,z
-x,1/2-y,1/2+z
x,-y,-z
-x,1/2+y,1/2-z
-x,-y,-z
x,1/2+y,1/2-z
-x,y,z
x,1/2-y,1/2+z
1/2+x,1/2+y,z
1/2-x,-y,1/2+z
1/2+x,1/2-y,-z
1/2-x,y,1/2-z
1/2-x,1/2-y,-z
1/2+x,y,1/2-z
1/2-x,1/2+y,z
1/2+x,-y,1/2+z
loop_
_atom_site_type_symbol
_atom_site_label
_atom_site_fract_x
_atom_site_fract_y
_atom_site_fract_z
Si Si1 0.865782 0.061334 0.856318
Si Si2 0.000000 0.409254 0.408791
Si Si3 0.815545 0.742690 0.707138
Si Si4 0.874546 0.346819 0.663680
Si Si5 0.710950 0.000000 0.500000
Si Si6 0.500000 0.632457 0.075215
Si Si7 0.250318 0.318987 0.569221
O O1 0.828312 0.135343 0.808320
O O2 0.934727 0.104297 0.866954
O O3 0.868646 0.957652 0.823704
O O4 0.833506 0.046894 0.937509
O O5 0.000000 0.353406 0.486387
O O6 0.000000 0.520531 0.420895
O O7 0.750000 0.752915 0.750000
O O8 0.866855 0.791342 0.759507
O O9 0.803820 0.791807 0.627823
O O10 0.938419 0.333216 0.617916
O O11 0.816564 0.316365 0.611588
O O12 0.752813 0.077318 0.461283
O O13 0.250000 0.250000 0.500000
#
# Coordination Sequence:
#
# PCOD9476704 Si02
#       7
#    16   8  16  16   8   8  16
#     4  10  18  31  51  72 102 125 168 207 252 288
#     4   9  16  27  50  80  89 123 167 214 238 287
#     4  10  21  33  47  73 104 131 163 201 245 307
#     4   9  20  33  48  73 100 133 157 203 257 295
#     4  10  18  29  52  74  94 135 158 208 250 280
#     4   9  16  31  52  70 103 121 164 204 253 290
#     4  10  18  32  50  74 102 127 168 203 240 298
#
# _framework density 15.829955999999999
#
# number of rings (size 3 to 8) (size 9 to 14) (size 15 to 20)
#    0.000    2.364    1.818    3.273    0.000    4.364 
#    0.000    0.000    0.000    0.000    0.000    0.000 
#    0.000    3.636    0.000    0.000    0.000    0.000 
#
# Total GULP energy -245017.234365 kJ/mol
# GULP energy per Si atom -5568.573508 kJ/mol
# Density = 1.579393 g / cm^3
# Si number density = 15.829956 Si / 1000 Ang^3
#
#
#
# Elastic Constant Matrix: (Units=GPa)
#
#
# Indices 1 2 3 4 5 6 
#
# 1 45.8661 17.8260 19.8449 0.0000 0.0000 0.0000
# 2 17.8260 60.2737 39.5346 0.0000 0.0000 0.0000
# 3 19.8449 39.5346 87.0048 0.0000 0.0000 0.0000
# 4 0.0000 0.0000 0.0000 34.6291 0.0000 0.0000
# 5 0.0000 0.0000 0.0000 0.0000 13.7954 0.0000
# 6 0.0000 0.0000 0.0000 0.0000 0.0000 11.1403
#
#
#
# Elastic Compliance Matrix: (Units=1/GPa)
#
#
# Indices 1 2 3 4 5 6 
#
# 1 0.025313 -0.005270 -0.003379 0.000000 0.000000 0.000000
# 2 -0.005270 0.024733 -0.010036 0.000000 0.000000 0.000000
# 3 -0.003379 -0.010036 0.016825 0.000000 0.000000 0.000000
# 4 0.000000 0.000000 0.000000 0.028877 0.000000 0.000000
# 5 0.000000 0.000000 0.000000 0.000000 0.072488 0.000000
# 6 0.000000 0.000000 0.000000 0.000000 0.000000 0.089765
#
#
# Mechanical properties :
#
#
# Convention : Reuss Voigt Hill
#
# Bulk Modulus (GPa) = 33.89871 38.61727 36.25799
# Shear Modulus (GPa) = 16.38250 19.64223 18.01236
#
# Velocity S-wave (km/s) = 3.22048 3.52636 3.37689
# Velocity P-wave (km/s) = 5.94049 6.40533 6.17729
#
# Compressibility (1/GPa) = 0.02949965
#
# Stress axis : x y z
#
# Youngs Moduli (GPa) = 39.50584 40.43249 59.43616
#
# Poissons Ratio (x) = 0.21308 0.20083
# Poissons Ratio (y) = 0.20819 0.59652
# Poissons Ratio (z) = 0.13349 0.40579
#
# Static dielectric constant tensor:
#      x y z
#    x 1.537770 0.000000 0.000000 
#    y 0.000000 1.517530 0.000000 
#    z 0.000000 0.000000 1.546540 
# 
# From -- ./inp_files/34284.got.cif
#   From: 2010.05.17/outbox.cif.g08.bks.cpg/sg64_18_cif.got.tgz:34284.got - 2010.06.03 16:29:19.
