data_PCOD9476741
_publ_section_title
;
Structure prediction by ZEFSAII (Michael W. Deem and Ramdas Pophale) SiO2 
 PCOD9476741
Probable space group: C M C A
;
_chemical_formula_sum "Si O2"
_cell_formula_units_Z 80
_cell_length_a 17.203404
_cell_length_b 13.570353
_cell_length_c 14.698938
_cell_angle_alpha 90.000000
_cell_angle_beta 90.000000
_cell_angle_gamma 90.000000
_cell_volume 3431.559166
_symmetry_space_group_name_H-M "C M C A"
_symmetry_group_IT_number 64
_symmetry_cell_setting 'orthorhombic'
loop_
_space_group_symop_operation_xyz
x,y,z
-x,1/2-y,1/2+z
x,-y,-z
-x,1/2+y,1/2-z
-x,-y,-z
x,1/2+y,1/2-z
-x,y,z
x,1/2-y,1/2+z
1/2+x,1/2+y,z
1/2-x,-y,1/2+z
1/2+x,1/2-y,-z
1/2-x,y,1/2-z
1/2-x,1/2-y,-z
1/2+x,y,1/2-z
1/2-x,1/2+y,z
1/2+x,-y,1/2+z
loop_
_atom_site_type_symbol
_atom_site_label
_atom_site_fract_x
_atom_site_fract_y
_atom_site_fract_z
Si Si1 0.809177 0.632842 0.426140
Si Si2 0.415316 0.609795 0.542787
Si Si3 0.300190 0.479506 0.332965
Si Si4 0.907526 0.153792 0.248483
Si Si5 0.658184 0.261432 0.095125
O O1 0.759423 0.537149 0.398667
O O2 0.879017 0.650101 0.355529
O O3 0.744771 0.716951 0.405250
O O4 0.837230 0.643277 0.530238
O O5 0.416569 0.500000 0.500000
O O6 0.500000 0.631215 0.581823
O O7 0.348427 0.602669 0.616266
O O8 0.393991 0.686607 0.465281
O O9 0.250000 0.439851 0.250000
O O10 0.360458 0.562148 0.294704
O O11 0.877819 0.249952 0.304780
O O12 0.000000 0.143511 0.257192
#
# Coordination Sequence:
#
# PCOD9476741 Si02
#       5
#    16  16  16  16  16
#     4   9  19  33  50  71 103 138 173 210 252 317
#     4  11  19  30  54  84 108 129 167 226 276 307
#     4   9  18  34  51  74 105 141 178 210 256 319
#     4  10  18  30  50  73 100 134 174 215 255 302
#     4  10  19  33  52  76 104 137 171 215 267 312
#
# _framework density 23.313018
#
# number of rings (size 3 to 8) (size 9 to 14) (size 15 to 20)
#    0.000    2.200    4.000    3.000    0.000    1.600 
#    0.000    7.000    0.000    0.000    0.000   12.600 
#    0.000    0.000    0.000    0.000    0.000    0.000 
#
# Total GULP energy -223649.561011 kJ/mol
# GULP energy per Si atom -5591.239025 kJ/mol
# Density = 2.325996 g / cm^3
# Si number density = 23.313018 Si / 1000 Ang^3
#
#
#
# Elastic Constant Matrix: (Units=GPa)
#
#
# Indices 1 2 3 4 5 6 
#
# 1 153.8884 35.8975 49.1278 0.0000 0.0000 0.0000
# 2 35.8975 54.7734 25.2529 0.0000 0.0000 0.0000
# 3 49.1278 25.2529 88.3138 0.0000 0.0000 0.0000
# 4 0.0000 0.0000 0.0000 22.4579 0.0000 0.0000
# 5 0.0000 0.0000 0.0000 0.0000 31.5016 0.0000
# 6 0.0000 0.0000 0.0000 0.0000 0.0000 15.5898
#
#
#
# Elastic Compliance Matrix: (Units=1/GPa)
#
#
# Indices 1 2 3 4 5 6 
#
# 1 0.008582 -0.003943 -0.003647 0.000000 0.000000 0.000000
# 2 -0.003943 0.022841 -0.004338 0.000000 0.000000 0.000000
# 3 -0.003647 -0.004338 0.014592 0.000000 0.000000 0.000000
# 4 0.000000 0.000000 0.000000 0.044528 0.000000 0.000000
# 5 0.000000 0.000000 0.000000 0.000000 0.031744 0.000000
# 6 0.000000 0.000000 0.000000 0.000000 0.000000 0.064144
#
#
# Mechanical properties :
#
#
# Convention : Reuss Voigt Hill
#
# Bulk Modulus (GPa) = 45.12569 57.50355 51.31462
# Shear Modulus (GPa) = 22.97007 26.35636 24.66322
#
# Velocity S-wave (km/s) = 3.14234 3.36600 3.25609
# Velocity P-wave (km/s) = 5.70650 6.31079 6.01624
#
# Compressibility (1/GPa) = 0.02216033
#
# Stress axis : x y z
#
# Youngs Moduli (GPa) = 116.51977 43.78025 68.52998
#
# Poissons Ratio (x) = 0.17264 0.24990
# Poissons Ratio (y) = 0.45948 0.29726
# Poissons Ratio (z) = 0.42490 0.18991
#
# Static dielectric constant tensor:
#      x y z
#    x 1.828100 0.000000 0.000000 
#    y 0.000000 1.926480 0.000000 
#    z 0.000000 0.000000 1.954130 
# 
# From -- ./inp_files/25305.got.cif
#   From: 2010.05.17/outbox.cif.g08.bks.cpg/sg64_13_cif.got.tgz:25305.got - 2010.06.03 16:29:19.
