data_PCOD9476074
_publ_section_title
;
Structure prediction by ZEFSAII (Michael W. Deem and Ramdas Pophale) SiO2 
 PCOD9476074
Probable space group: C M C M
;
_chemical_formula_sum "Si O2"
_cell_formula_units_Z 48
_cell_length_a 9.000000
_cell_length_b 24.000000
_cell_length_c 24.000000
_cell_angle_alpha 90.000000
_cell_angle_beta 90.000000
_cell_angle_gamma 90.000000
_cell_volume 5184.000000
_symmetry_space_group_name_H-M "C M C M"
_symmetry_group_IT_number 63
_symmetry_cell_setting 'orthorhombic'
loop_
_space_group_symop_operation_xyz
x,y,z
-x,-y,1/2+z
x,-y,-z
-x,y,1/2-z
-x,-y,-z
x,y,1/2-z
-x,y,z
x,-y,1/2+z
1/2+x,1/2+y,z
1/2-x,1/2-y,1/2+z
1/2+x,1/2-y,-z
1/2-x,1/2+y,1/2-z
1/2-x,1/2-y,-z
1/2+x,1/2+y,1/2-z
1/2-x,1/2+y,z
1/2+x,1/2-y,1/2+z
loop_
_atom_site_type_symbol
_atom_site_label
_atom_site_fract_x
_atom_site_fract_y
_atom_site_fract_z
Si Si1 0.676854 0.527111 0.413005
Si Si2 0.680996 0.401323 0.405776
Si Si3 0.820609 0.860790 0.523627
Si Si4 0.825475 0.893686 0.814640
Si Si5 0.818739 0.183166 0.814336
Si Si6 0.677282 0.794551 0.619793
O O1 0.500000 0.523136 0.424676
O O2 0.736123 0.464372 0.416544
O O3 0.728504 0.578423 0.451833
O O4 0.698133 0.551039 0.350992
O O5 0.500000 0.404442 0.404243
O O6 0.718043 0.362534 0.458639
O O7 0.728253 0.371735 0.348651
O O8 0.750239 0.812379 0.561099
O O9 0.000000 0.857810 0.529234
O O10 0.798281 0.902580 0.750000
O O11 0.726047 0.844420 0.839038
O O12 0.000000 0.878347 0.822628
O O13 0.768416 0.185544 0.750000
O O14 0.774314 0.237124 0.850795
O O15 0.000000 0.183488 0.813028
O O16 0.500000 0.792834 0.613225
#
# Coordination Sequence:
#
# PCOD9476074 Si02
#       6
#    16  16  16  16  16  16
#     4   8  14  25  43  68  95 120 147 184 231 278
#     4   9  16  27  46  69  94 125 154 185 231 280
#     4   9  17  30  49  73  96 118 151 194 235 276
#     4   9  17  29  47  72  97 120 153 197 237 275
#     4   9  18  30  43  64  94 124 155 190 227 273
#     4  10  19  31  47  67  93 125 158 193 234 275
#
# _framework density 9.2592590000000001
#
# number of rings (size 3 to 8) (size 9 to 14) (size 15 to 20)
#    0.000    3.000    0.000    2.500    0.000    4.333 
#    0.000    3.333    0.000    9.000    0.000    0.000 
#    0.000    0.000    0.000    0.000    0.000    0.000 
#
# Total GULP energy -267367.481542 kJ/mol
# GULP energy per Si atom -5570.155865 kJ/mol
# Density = 0.923818 g / cm^3
# Si number density = 9.259259 Si / 1000 Ang^3
#
#
#
# Elastic Constant Matrix: (Units=GPa)
#
#
# Indices 1 2 3 4 5 6 
#
# 1 9.1032 3.2273 6.8378 0.0000 0.0000 0.0000
# 2 3.2273 50.9031 27.4057 0.0000 0.0000 0.0000
# 3 6.8378 27.4057 82.4393 0.0000 0.0000 0.0000
# 4 0.0000 0.0000 0.0000 16.0710 0.0000 0.0000
# 5 0.0000 0.0000 0.0000 0.0000 18.1459 0.0000
# 6 0.0000 0.0000 0.0000 0.0000 0.0000 13.5250
#
#
#
# Elastic Compliance Matrix: (Units=1/GPa)
#
#
# Indices 1 2 3 4 5 6 
#
# 1 0.117450 -0.002682 -0.008850 0.000000 0.000000 0.000000
# 2 -0.002682 0.023989 -0.007752 0.000000 0.000000 0.000000
# 3 -0.008850 -0.007752 0.015441 0.000000 0.000000 0.000000
# 4 0.000000 0.000000 0.000000 0.062224 0.000000 0.000000
# 5 0.000000 0.000000 0.000000 0.000000 0.055109 0.000000
# 6 0.000000 0.000000 0.000000 0.000000 0.000000 0.073937
#
#
# Mechanical properties :
#
#
# Convention : Reuss Voigt Hill
#
# Bulk Modulus (GPa) = 8.45224 24.15415 16.30319
# Shear Modulus (GPa) = 11.73280 16.54671 14.13975
#
# Velocity S-wave (km/s) = 2.51981 2.99243 2.76623
# Velocity P-wave (km/s) = 3.61110 5.00110 4.36183
#
# Compressibility (1/GPa) = 0.11831186
#
# Stress axis : x y z
#
# Youngs Moduli (GPa) = 8.51426 41.68585 64.76112
#
# Poissons Ratio (x) = 0.11179 0.57315
# Poissons Ratio (y) = 0.02283 0.50205
# Poissons Ratio (z) = 0.07535 0.32316
#
# Static dielectric constant tensor:
#      x y z
#    x 1.627100 0.000000 0.000000 
#    y 0.000000 1.644860 0.000000 
#    z 0.000000 0.000000 1.663460 
# 
# From -- ./inp_files/59923.got.cif
#   From: 2010.05.17/outbox.ucp.g08.bks.cvg/sg63_30_cif.got.tgz:59923.got - 2010.06.11 16:32:19.
