data_PCOD9476334
_publ_section_title
;
Structure prediction by ZEFSAII (Michael W. Deem and Ramdas Pophale) SiO2 
 PCOD9476334
Probable space group: C M C A
;
_chemical_formula_sum "Si O2"
_cell_formula_units_Z 108
_cell_length_a 23.489360
_cell_length_b 15.383485
_cell_length_c 14.871798
_cell_angle_alpha 90.000000
_cell_angle_beta 90.000000
_cell_angle_gamma 90.000000
_cell_volume 5373.897694
_symmetry_space_group_name_H-M "C M C A"
_symmetry_group_IT_number 64
_symmetry_cell_setting 'orthorhombic'
loop_
_space_group_symop_operation_xyz
x,y,z
-x,1/2-y,1/2+z
x,-y,-z
-x,1/2+y,1/2-z
-x,-y,-z
x,1/2+y,1/2-z
-x,y,z
x,1/2-y,1/2+z
1/2+x,1/2+y,z
1/2-x,-y,1/2+z
1/2+x,1/2-y,-z
1/2-x,y,1/2-z
1/2-x,1/2-y,-z
1/2+x,y,1/2-z
1/2-x,1/2+y,z
1/2+x,-y,1/2+z
loop_
_atom_site_type_symbol
_atom_site_label
_atom_site_fract_x
_atom_site_fract_y
_atom_site_fract_z
Si Si1 0.753830 0.615660 0.150615
Si Si2 0.568482 0.451538 0.318043
Si Si3 0.632110 0.331197 0.843201
Si Si4 0.000000 0.500000 0.500000
Si Si5 0.114732 0.645658 0.148856
Si Si6 0.066550 0.200408 0.538401
Si Si7 0.701537 0.500000 0.000000
Si Si8 0.607116 0.036193 0.624488
O O1 0.750000 0.572051 0.250000
O O2 0.700310 0.681709 0.154847
O O3 0.817112 0.649894 0.137194
O O4 0.739628 0.552030 0.069600
O O5 0.500000 0.460410 0.305146
O O6 0.594440 0.545366 0.343350
O O7 0.578121 0.383981 0.398955
O O8 0.597022 0.423843 0.223018
O O9 0.605051 0.310584 0.746019
O O10 0.601955 0.278218 0.919865
O O11 0.620927 0.433856 0.856785
O O12 0.949977 0.461101 0.433166
O O13 0.083247 0.685216 0.064209
O O14 0.000000 0.220224 0.545541
O O15 0.659980 0.438487 0.060473
#
# Coordination Sequence:
#
# PCOD9476334 Si02
#       8
#    16  16  16   4  16  16   8  16
#     4   9  19  38  64  84 115 159 201 242 299 359
#     4  10  20  37  59  88 123 153 199 255 295 357
#     4   9  21  41  57  80 120 159 196 241 297 366
#     4  10  16  28  56  84 102 156 200 228 292 358
#     4  10  21  39  66  83 116 161 201 244 306 358
#     4  11  24  38  57  92 121 154 202 250 299 361
#     4   9  18  33  56  92 115 142 197 248 284 358
#     4   9  18  34  56  82 117 153 193 242 301 349
#
# _framework density 20.097144
#
# number of rings (size 3 to 8) (size 9 to 14) (size 15 to 20)
#    0.000    2.370    0.741    1.778    3.111    2.963 
#    8.000    0.000    0.000    0.000    0.000    0.000 
#    0.000    0.000    0.000    0.000    0.000    0.000 
#
# Total GULP energy -300704.750164 kJ/mol
# GULP energy per Si atom -5568.606485 kJ/mol
# Density = 2.005140 g / cm^3
# Si number density = 20.097144 Si / 1000 Ang^3
#
#
#
# Elastic Constant Matrix: (Units=GPa)
#
#
# Indices 1 2 3 4 5 6 
#
# 1 48.3818 1.9796 1.9958 0.0000 0.0000 0.0000
# 2 1.9796 23.1530 7.3073 0.0000 0.0000 0.0000
# 3 1.9958 7.3073 116.8265 0.0000 0.0000 0.0000
# 4 0.0000 0.0000 0.0000 -20.2026 0.0000 0.0000
# 5 0.0000 0.0000 0.0000 0.0000 37.8261 0.0000
# 6 0.0000 0.0000 0.0000 0.0000 0.0000 12.1251
#
#
#
# Elastic Compliance Matrix: (Units=1/GPa)
#
#
# Indices 1 2 3 4 5 6 
#
# 1 0.020749 -0.001696 -0.000248 0.000000 0.000000 0.000000
# 2 -0.001696 0.044199 -0.002736 0.000000 0.000000 0.000000
# 3 -0.000248 -0.002736 0.008735 0.000000 0.000000 0.000000
# 4 0.000000 0.000000 0.000000 -0.049499 0.000000 0.000000
# 5 0.000000 0.000000 0.000000 0.000000 0.026437 0.000000
# 6 0.000000 0.000000 0.000000 0.000000 0.000000 0.082474
#
#
# Mechanical properties :
#
#
# Convention : Reuss Voigt Hill
#
# Bulk Modulus (GPa) = 15.54636 23.43627 19.49131
# Shear Modulus (GPa) = 30.50729 17.75497 24.13113
#
# Velocity S-wave (km/s) = 3.90037 2.97553 3.46891
# Velocity P-wave (km/s) = 5.29492 4.84684 5.07583
#
# Compressibility (1/GPa) = 0.06432376
#
# Stress axis : x y z
#
# Youngs Moduli (GPa) = 48.19612 22.62476 114.48125
#
# Poissons Ratio (x) = 0.03836 0.02844
# Poissons Ratio (y) = 0.08172 0.31318
# Poissons Ratio (z) = 0.01197 0.06189
#
# Static dielectric constant tensor:
#      x y z
#    x 1.705000 0.000000 0.000000 
#    y 0.000000 1.715280 0.000000 
#    z 0.000000 0.000000 1.746600 
# 
# From -- ./inp_files/27460.got.cif
#   From: 2010.05.17/outbox.cif.g08.bks.cpg/sg64_14_cif.got.tgz:27460.got - 2010.06.03 16:29:19.
