data_PCOD9476440
_publ_section_title
;
Structure prediction by ZEFSAII (Michael W. Deem and Ramdas Pophale) SiO2 
 PCOD9476440
Probable space group: C M C A
;
_chemical_formula_sum "Si O2"
_cell_formula_units_Z 116
_cell_length_a 17.725985
_cell_length_b 39.527359
_cell_length_c 6.950026
_cell_angle_alpha 90.000000
_cell_angle_beta 90.000000
_cell_angle_gamma 90.000000
_cell_volume 4869.614758
_symmetry_space_group_name_H-M "C M C A"
_symmetry_group_IT_number 64
_symmetry_cell_setting 'orthorhombic'
loop_
_space_group_symop_operation_xyz
x,y,z
-x,1/2-y,1/2+z
x,-y,-z
-x,1/2+y,1/2-z
-x,-y,-z
x,1/2+y,1/2-z
-x,y,z
x,1/2-y,1/2+z
1/2+x,1/2+y,z
1/2-x,-y,1/2+z
1/2+x,1/2-y,-z
1/2-x,y,1/2-z
1/2-x,1/2-y,-z
1/2+x,y,1/2-z
1/2-x,1/2+y,z
1/2+x,-y,1/2+z
loop_
_atom_site_type_symbol
_atom_site_label
_atom_site_fract_x
_atom_site_fract_y
_atom_site_fract_z
Si Si1 0.092030 0.652820 0.270675
Si Si2 0.413385 0.203718 0.725905
Si Si3 0.773527 0.039452 0.029330
Si Si4 0.909902 0.865238 0.340571
Si Si5 0.500000 0.500000 0.500000
Si Si6 0.413128 0.919796 0.613450
Si Si7 0.387551 0.439901 0.435203
Si Si8 0.413145 0.776616 0.827231
O O1 0.118949 0.642038 0.057240
O O2 0.108793 0.619803 0.396752
O O3 0.117330 0.691836 0.298958
O O4 0.000000 0.654125 0.267113
O O5 0.500000 0.202473 0.650197
O O6 0.379683 0.165934 0.710253
O O7 0.416763 0.209515 0.956680
O O8 0.377223 0.239355 0.661777
O O9 0.750000 0.045901 0.250000
O O10 0.853122 0.057433 0.005323
O O11 0.700554 0.052274 0.917402
O O12 0.782850 0.000000 0.000000
O O13 0.902465 0.905404 0.317534
O O14 0.000000 0.859481 0.339178
O O15 0.434674 0.474261 0.408106
O O16 0.500000 0.924387 0.555578
O O17 0.409140 0.930339 0.840979
O O18 0.500000 0.770714 0.762726
#
# Coordination Sequence:
#
# PCOD9476440 Si02
#       8
#    16  16  16  16   4  16  16  16
#     4   7  11  20  37  56  78 106 145 179 211 255
#     4   8  13  19  32  52  80 107 138 170 214 253
#     4  10  21  33  48  70  94 116 150 192 229 270
#     4   8  12  21  35  56  82 110 142 181 219 261
#     4  12  16  24  48  68  92 120 156 188 238 272
#     4   9  16  29  46  66  90 121 152 187 230 270
#     4  10  17  27  44  69  92 119 154 191 231 272
#     4   8  12  19  31  54  77 106 134 173 210 252
#
# _framework density 23.821186999999998
#
# number of rings (size 3 to 8) (size 9 to 14) (size 15 to 20)
#    0.000    3.310    2.069    2.483    0.000    0.276 
#    0.000    0.000    0.000    1.655    0.000    2.897 
#    0.000    0.000    0.000    0.000    0.000    0.000 
#
# Total GULP energy -322895.779405 kJ/mol
# GULP energy per Si atom -5567.168610 kJ/mol
# Density = 2.376697 g / cm^3
# Si number density = 23.821187 Si / 1000 Ang^3
#
#
#
# Elastic Constant Matrix: (Units=GPa)
#
#
# Indices 1 2 3 4 5 6 
#
# 1 81.2781 58.3990 22.3941 0.0000 0.0000 0.0000
# 2 58.3990 191.2202 22.3968 0.0000 0.0000 0.0000
# 3 22.3941 22.3968 54.2187 0.0000 0.0000 0.0000
# 4 0.0000 0.0000 0.0000 -262.6128 0.0000 0.0000
# 5 0.0000 0.0000 0.0000 0.0000 16.3984 0.0000
# 6 0.0000 0.0000 0.0000 0.0000 0.0000 -5.6267
#
#
#
# Elastic Compliance Matrix: (Units=1/GPa)
#
#
# Indices 1 2 3 4 5 6 
#
# 1 0.017020 -0.004597 -0.005131 0.000000 0.000000 0.000000
# 2 -0.004597 0.006737 -0.000884 0.000000 0.000000 0.000000
# 3 -0.005131 -0.000884 0.020928 0.000000 0.000000 0.000000
# 4 0.000000 0.000000 0.000000 -0.003808 0.000000 0.000000
# 5 0.000000 0.000000 0.000000 0.000000 0.060982 0.000000
# 6 0.000000 0.000000 0.000000 0.000000 0.000000 -0.177724
#
#
# Mechanical properties :
#
#
# Convention : Reuss Voigt Hill
#
# Bulk Modulus (GPa) = 42.62368 59.23298 50.92833
# Shear Modulus (GPa) = -106.79086 -35.46640 -71.12863
#
# Velocity S-wave (km/s) = -6.70280 -3.86276 -5.47030
# Velocity P-wave (km/s) = 6.47853 2.24167 4.29804
#
# Compressibility (1/GPa) = 0.02346114
#
# Stress axis : x y z
#
# Youngs Moduli (GPa) = 58.75403 148.43243 47.78216
#
# Poissons Ratio (x) = 0.68234 0.24517
# Poissons Ratio (y) = 0.27009 0.04225
# Poissons Ratio (z) = 0.30146 0.13125
#
# Static dielectric constant tensor:
#      x y z
#    x 1.843310 0.000000 0.000000 
#    y 0.000000 1.977170 0.000000 
#    z 0.000000 0.000000 2.074690 
# 
# From -- ./inp_files/16552.got.cif
#   From: 2010.05.17/outbox.cif.g08.bks.cpg/sg64_9_cif.got.tgz:16552.got - 2010.06.03 16:29:19.
