data_PCOD9476976
_publ_section_title
;
Structure prediction by ZEFSAII (Michael W. Deem and Ramdas Pophale) SiO2 
 PCOD9476976
Probable space group: C M C A
;
_chemical_formula_sum "Si O2"
_cell_formula_units_Z 112
_cell_length_a 18.238446
_cell_length_b 19.713092
_cell_length_c 17.054550
_cell_angle_alpha 90.000000
_cell_angle_beta 90.000000
_cell_angle_gamma 90.000000
_cell_volume 6131.727485
_symmetry_space_group_name_H-M "C M C A"
_symmetry_group_IT_number 64
_symmetry_cell_setting 'orthorhombic'
loop_
_space_group_symop_operation_xyz
x,y,z
-x,1/2-y,1/2+z
x,-y,-z
-x,1/2+y,1/2-z
-x,-y,-z
x,1/2+y,1/2-z
-x,y,z
x,1/2-y,1/2+z
1/2+x,1/2+y,z
1/2-x,-y,1/2+z
1/2+x,1/2-y,-z
1/2-x,y,1/2-z
1/2-x,1/2-y,-z
1/2+x,y,1/2-z
1/2-x,1/2+y,z
1/2+x,-y,1/2+z
loop_
_atom_site_type_symbol
_atom_site_label
_atom_site_fract_x
_atom_site_fract_y
_atom_site_fract_z
Si Si1 0.306908 0.243481 0.071444
Si Si2 0.414659 0.364582 0.496456
Si Si3 0.584449 0.845097 0.740827
Si Si4 0.724793 0.632249 0.161614
Si Si5 0.355016 0.552882 0.373456
Si Si6 0.912630 0.410612 0.175711
Si Si7 0.086828 0.694580 0.685556
O O1 0.368837 0.193792 0.037667
O O2 0.258983 0.203292 0.135342
O O3 0.353504 0.302138 0.115158
O O4 0.250000 0.250000 0.000000
O O5 0.500000 0.351676 0.506616
O O6 0.393765 0.432753 0.543738
O O7 0.398436 0.369324 0.404404
O O8 0.500000 0.855653 0.721463
O O9 0.637851 0.862595 0.668355
O O10 0.607109 0.893567 0.813301
O O11 0.593937 0.767340 0.769668
O O12 0.750000 0.619460 0.250000
O O13 0.769774 0.574550 0.115655
O O14 0.367929 0.479858 0.335841
O O15 0.897558 0.365280 0.252144
O O16 0.000000 0.427168 0.176254
O O17 0.000000 0.689563 0.661778
#
# Coordination Sequence:
#
# PCOD9476976 Si02
#       7
#    16  16  16  16  16  16  16
#     4  11  22  34  53  77 112 154 191 234 292 343
#     4  10  19  34  55  82 115 150 194 236 291 356
#     4  10  18  33  59  79 104 151 192 228 279 337
#     4   9  18  34  54  75 109 141 186 232 269 341
#     4  10  18  33  57  83 117 153 183 235 295 347
#     4  10  21  33  55  90 120 144 186 241 294 355
#     4  10  20  37  57  81 115 152 189 239 294 351
#
# _framework density 18.265651999999999
#
# number of rings (size 3 to 8) (size 9 to 14) (size 15 to 20)
#    0.000    2.000    4.286    2.143    2.000    1.143 
#    0.000    5.000    0.000    0.000    0.000    0.000 
#    0.000   19.429    0.000    0.000    0.000    0.000 
#
# Total GULP energy -311818.926250 kJ/mol
# GULP energy per Si atom -5568.195112 kJ/mol
# Density = 1.822408 g / cm^3
# Si number density = 18.265652 Si / 1000 Ang^3
#
#
#
# Elastic Constant Matrix: (Units=GPa)
#
#
# Indices 1 2 3 4 5 6 
#
# 1 107.6979 16.7364 42.0616 0.0000 0.0000 0.0000
# 2 16.7364 43.4054 18.1774 0.0000 0.0000 0.0000
# 3 42.0616 18.1774 59.1794 0.0000 0.0000 0.0000
# 4 0.0000 0.0000 0.0000 22.4340 0.0000 0.0000
# 5 0.0000 0.0000 0.0000 0.0000 34.9230 0.0000
# 6 0.0000 0.0000 0.0000 0.0000 0.0000 7.3259
#
#
#
# Elastic Compliance Matrix: (Units=1/GPa)
#
#
# Indices 1 2 3 4 5 6 
#
# 1 0.012917 -0.001304 -0.008780 0.000000 0.000000 0.000000
# 2 -0.001304 0.026571 -0.007235 0.000000 0.000000 0.000000
# 3 -0.008780 -0.007235 0.025361 0.000000 0.000000 0.000000
# 4 0.000000 0.000000 0.000000 0.044575 0.000000 0.000000
# 5 0.000000 0.000000 0.000000 0.000000 0.028634 0.000000
# 6 0.000000 0.000000 0.000000 0.000000 0.000000 0.136501
#
#
# Mechanical properties :
#
#
# Convention : Reuss Voigt Hill
#
# Bulk Modulus (GPa) = 33.10055 40.47041 36.78548
# Shear Modulus (GPa) = 15.66084 21.82374 18.74229
#
# Velocity S-wave (km/s) = 2.93130 3.46033 3.20675
# Velocity P-wave (km/s) = 5.44223 6.17818 5.82184
#
# Compressibility (1/GPa) = 0.03021097
#
# Stress axis : x y z
#
# Youngs Moduli (GPa) = 77.41753 37.63484 39.43119
#
# Poissons Ratio (x) = 0.04906 0.34622
# Poissons Ratio (y) = 0.10092 0.28529
# Poissons Ratio (z) = 0.67975 0.27229
#
# Static dielectric constant tensor:
#      x y z
#    x 1.688700 0.000000 0.000000 
#    y 0.000000 1.646410 0.000000 
#    z 0.000000 0.000000 1.664900 
# 
# From -- ./inp_files/33565.got.cif
#   From: 2010.05.17/outbox.cif.g08.bks.cpg/sg64_17_cif.got.tgz:33565.got - 2010.06.03 16:29:19.
