data_PCOD9476873
_publ_section_title
;
Structure prediction by ZEFSAII (Michael W. Deem and Ramdas Pophale) SiO2 
 PCOD9476873
Probable space group: C M C A
;
_chemical_formula_sum "Si O2"
_cell_formula_units_Z 80
_cell_length_a 8.528999
_cell_length_b 26.025309
_cell_length_c 21.355894
_cell_angle_alpha 90.000000
_cell_angle_beta 90.000000
_cell_angle_gamma 90.000000
_cell_volume 4740.364255
_symmetry_space_group_name_H-M "C M C A"
_symmetry_group_IT_number 64
_symmetry_cell_setting 'orthorhombic'
loop_
_space_group_symop_operation_xyz
x,y,z
-x,1/2-y,1/2+z
x,-y,-z
-x,1/2+y,1/2-z
-x,-y,-z
x,1/2+y,1/2-z
-x,y,z
x,1/2-y,1/2+z
1/2+x,1/2+y,z
1/2-x,-y,1/2+z
1/2+x,1/2-y,-z
1/2-x,y,1/2-z
1/2-x,1/2-y,-z
1/2+x,y,1/2-z
1/2-x,1/2+y,z
1/2+x,-y,1/2+z
loop_
_atom_site_type_symbol
_atom_site_label
_atom_site_fract_x
_atom_site_fract_y
_atom_site_fract_z
Si Si1 0.188669 0.712681 0.587591
Si Si2 0.688697 0.622213 0.820382
Si Si3 0.311066 0.818546 0.552692
Si Si4 0.687523 0.566918 0.053017
Si Si5 0.814096 0.540057 0.916234
O O1 0.238869 0.673230 0.641215
O O2 0.249577 0.770711 0.592522
O O3 0.241042 0.691581 0.519339
O O4 0.000000 0.713694 0.586997
O O5 0.500000 0.619972 0.821014
O O6 0.750000 0.623263 0.750000
O O7 0.754959 0.573753 0.858586
O O8 0.500000 0.817512 0.552874
O O9 0.262236 0.875745 0.572233
O O10 0.500000 0.562345 0.059489
O O11 0.768918 0.519895 0.088441
O O12 0.730315 0.559971 0.979652
O O13 0.000000 0.545166 0.924031
#
# Coordination Sequence:
#
# PCOD9476873 Si02
#       5
#    16  16  16  16  16
#     4   9  18  32  49  73 104 135 169 210 257 306
#     4  11  22  38  55  75 104 140 177 214 257 305
#     4   9  17  30  50  76 104 135 167 207 260 309
#     4  10  18  32  52  75 107 140 167 213 267 312
#     4  11  21  32  49  77 105 136 176 215 258 311
#
# _framework density 16.876341
#
# number of rings (size 3 to 8) (size 9 to 14) (size 15 to 20)
#    0.000    2.000    2.000    4.200    0.000    3.200 
#    0.000    0.000    0.000    1.200    0.000    2.800 
#    0.000    0.000    0.000    0.000    0.000    0.000 
#
# Total GULP energy -223171.367548 kJ/mol
# GULP energy per Si atom -5579.284189 kJ/mol
# Density = 1.683793 g / cm^3
# Si number density = 16.876341 Si / 1000 Ang^3
#
#
#
# Elastic Constant Matrix: (Units=GPa)
#
#
# Indices 1 2 3 4 5 6 
#
# 1 22.5297 11.7048 8.7206 0.0000 0.0000 0.0000
# 2 11.7048 161.9090 56.7486 0.0000 0.0000 0.0000
# 3 8.7206 56.7486 80.9725 0.0000 0.0000 0.0000
# 4 0.0000 0.0000 0.0000 20.5159 0.0000 0.0000
# 5 0.0000 0.0000 0.0000 0.0000 22.9590 0.0000
# 6 0.0000 0.0000 0.0000 0.0000 0.0000 29.5471
#
#
#
# Elastic Compliance Matrix: (Units=1/GPa)
#
#
# Indices 1 2 3 4 5 6 
#
# 1 0.046873 -0.002146 -0.003544 0.000000 0.000000 0.000000
# 2 -0.002146 0.008286 -0.005576 0.000000 0.000000 0.000000
# 3 -0.003544 -0.005576 0.016639 0.000000 0.000000 0.000000
# 4 0.000000 0.000000 0.000000 0.048743 0.000000 0.000000
# 5 0.000000 0.000000 0.000000 0.000000 0.043556 0.000000
# 6 0.000000 0.000000 0.000000 0.000000 0.000000 0.033844
#
#
# Mechanical properties :
#
#
# Convention : Reuss Voigt Hill
#
# Bulk Modulus (GPa) = 20.29812 46.63989 33.46901
# Shear Modulus (GPa) = 21.10644 27.15357 24.13001
#
# Velocity S-wave (km/s) = 3.54029 4.01555 3.78539
# Velocity P-wave (km/s) = 5.36332 7.01397 6.24344
#
# Compressibility (1/GPa) = 0.04926565
#
# Stress axis : x y z
#
# Youngs Moduli (GPa) = 21.33439 120.68865 60.09881
#
# Poissons Ratio (x) = 0.25905 0.21298
# Poissons Ratio (y) = 0.04579 0.33510
# Poissons Ratio (z) = 0.07560 0.67294
#
# Static dielectric constant tensor:
#      x y z
#    x 1.570980 0.000000 0.000000 
#    y 0.000000 1.596410 0.000000 
#    z 0.000000 0.000000 1.533480 
# 
# From -- ./inp_files/29744.got.cif
#   From: 2010.05.17/outbox.cif.g08.bks.cpg/sg64_15_cif.got.tgz:29744.got - 2010.06.03 16:29:19.
