data_PCOD9476363
_publ_section_title
;
Structure prediction by ZEFSAII (Michael W. Deem and Ramdas Pophale) SiO2 
 PCOD9476363
Probable space group: C M C A
;
_chemical_formula_sum "Si O2"
_cell_formula_units_Z 64
_cell_length_a 11.031417
_cell_length_b 15.512579
_cell_length_c 16.308249
_cell_angle_alpha 90.000000
_cell_angle_beta 90.000000
_cell_angle_gamma 90.000000
_cell_volume 2790.760978
_symmetry_space_group_name_H-M "C M C A"
_symmetry_group_IT_number 64
_symmetry_cell_setting 'orthorhombic'
loop_
_space_group_symop_operation_xyz
x,y,z
-x,1/2-y,1/2+z
x,-y,-z
-x,1/2+y,1/2-z
-x,-y,-z
x,1/2+y,1/2-z
-x,y,z
x,1/2-y,1/2+z
1/2+x,1/2+y,z
1/2-x,-y,1/2+z
1/2+x,1/2-y,-z
1/2-x,y,1/2-z
1/2-x,1/2-y,-z
1/2+x,y,1/2-z
1/2-x,1/2+y,z
1/2+x,-y,1/2+z
loop_
_atom_site_type_symbol
_atom_site_label
_atom_site_fract_x
_atom_site_fract_y
_atom_site_fract_z
Si Si1 0.000000 0.760110 0.565561
Si Si2 0.500000 0.082101 0.937935
Si Si3 0.000000 0.018995 0.902426
Si Si4 0.758779 0.184794 0.346008
Si Si5 0.740878 0.513531 0.598855
Si Si6 0.500000 0.675520 0.089262
O O1 0.877217 0.770817 0.616063
O O2 0.000000 0.675214 0.509697
O O3 0.000000 0.835571 0.496404
O O4 0.377186 0.071004 0.886727
O O5 0.500000 0.000000 0.000000
O O6 0.000000 0.919138 0.870705
O O7 0.130430 0.053414 0.874876
O O8 0.000000 0.000000 0.000000
O O9 0.750000 0.198738 0.250000
O O10 0.630368 0.213098 0.385390
O O11 0.774312 0.082087 0.364444
O O12 0.749418 0.500000 0.500000
#
# Coordination Sequence:
#
# PCOD9476363 Si02
#       6
#     8   8   8  16  16   8
#     4  12  21  37  58  86 114 152 200 247 273 370
#     4  10  16  30  55  82 106 142 183 227 276 324
#     4   8  16  29  51  76 111 133 174 241 269 319
#     4  11  21  36  58  87 116 150 192 254 296 338
#     4   9  15  30  51  82 110 138 185 227 275 338
#     4  10  23  36  54  90 109 153 204 235 293 348
#
# _framework density 22.932814
#
# number of rings (size 3 to 8) (size 9 to 14) (size 15 to 20)
#    0.000    2.000    5.000    1.500    0.000    0.000 
#    0.000    0.000    0.000    1.500   26.000    0.000 
#    0.000    0.000    0.000    0.000    0.000    0.000 
#
# Total GULP energy -178611.899898 kJ/mol
# GULP energy per Si atom -5581.621872 kJ/mol
# Density = 2.288062 g / cm^3
# Si number density = 22.932814 Si / 1000 Ang^3
#
#
#
# Elastic Constant Matrix: (Units=GPa)
#
#
# Indices 1 2 3 4 5 6 
#
# 1 301.7324 30.1496 68.9233 0.0000 0.0000 0.0000
# 2 30.1496 81.1760 13.5904 0.0000 0.0000 0.0000
# 3 68.9233 13.5904 92.9913 0.0000 0.0000 0.0000
# 4 0.0000 0.0000 0.0000 18.2963 0.0000 0.0000
# 5 0.0000 0.0000 0.0000 0.0000 19.8722 0.0000
# 6 0.0000 0.0000 0.0000 0.0000 0.0000 -62.1900
#
#
#
# Elastic Compliance Matrix: (Units=1/GPa)
#
#
# Indices 1 2 3 4 5 6 
#
# 1 0.004072 -0.001032 -0.002867 0.000000 0.000000 0.000000
# 2 -0.001032 0.012890 -0.001119 0.000000 0.000000 0.000000
# 3 -0.002867 -0.001119 0.013042 0.000000 0.000000 0.000000
# 4 0.000000 0.000000 0.000000 0.054656 0.000000 0.000000
# 5 0.000000 0.000000 0.000000 0.000000 0.050322 0.000000
# 6 0.000000 0.000000 0.000000 0.000000 0.000000 -0.016080
#
#
# Mechanical properties :
#
#
# Convention : Reuss Voigt Hill
#
# Bulk Modulus (GPa) = 50.08128 77.91404 63.99766
# Shear Modulus (GPa) = 36.87456 19.41147 28.14301
#
# Velocity S-wave (km/s) = 4.01426 2.91254 3.50693
# Velocity P-wave (km/s) = 6.58570 6.73492 6.66073
#
# Compressibility (1/GPa) = 0.01996754
#
# Stress axis : x y z
#
# Youngs Moduli (GPa) = 245.55784 77.58171 76.67261
#
# Poissons Ratio (x) = 0.08010 0.21986
# Poissons Ratio (y) = 0.25353 0.08576
# Poissons Ratio (z) = 0.70413 0.08678
#
# Static dielectric constant tensor:
#      x y z
#    x 1.954310 0.000000 0.000000 
#    y 0.000000 1.955210 0.000000 
#    z 0.000000 0.000000 1.798180 
# 
# From -- ./inp_files/22052.got.cif
#   From: 2010.05.17/outbox.cif.g08.bks.cpg/sg64_12_cif.got.tgz:22052.got - 2010.06.03 16:29:19.
