data_PCOD9476809
_publ_section_title
;
Structure prediction by ZEFSAII (Michael W. Deem and Ramdas Pophale) SiO2 
 PCOD9476809
Probable space group: C M C A
;
_chemical_formula_sum "Si O2"
_cell_formula_units_Z 80
_cell_length_a 8.686119
_cell_length_b 26.558413
_cell_length_c 19.505854
_cell_angle_alpha 90.000000
_cell_angle_beta 90.000000
_cell_angle_gamma 90.000000
_cell_volume 4499.796404
_symmetry_space_group_name_H-M "C M C A"
_symmetry_group_IT_number 64
_symmetry_cell_setting 'orthorhombic'
loop_
_space_group_symop_operation_xyz
x,y,z
-x,1/2-y,1/2+z
x,-y,-z
-x,1/2+y,1/2-z
-x,-y,-z
x,1/2+y,1/2-z
-x,y,z
x,1/2-y,1/2+z
1/2+x,1/2+y,z
1/2-x,-y,1/2+z
1/2+x,1/2-y,-z
1/2-x,y,1/2-z
1/2-x,1/2-y,-z
1/2+x,y,1/2-z
1/2-x,1/2+y,z
1/2+x,-y,1/2+z
loop_
_atom_site_type_symbol
_atom_site_label
_atom_site_fract_x
_atom_site_fract_y
_atom_site_fract_z
Si Si1 0.816154 0.998314 0.172369
Si Si2 0.682818 0.692114 0.920127
Si Si3 0.815214 0.307272 0.929050
Si Si4 0.684496 0.897389 0.826736
Si Si5 0.317230 0.105638 0.826648
O O1 0.750000 0.998287 0.250000
O O2 0.753876 0.945955 0.142504
O O3 0.000000 0.998339 0.173705
O O4 0.753310 0.050737 0.142875
O O5 0.500000 0.685269 0.911652
O O6 0.721355 0.750567 0.904513
O O7 0.770497 0.653091 0.872159
O O8 0.730391 0.684031 0.999112
O O9 0.776380 0.349764 0.873819
O O10 0.000000 0.308974 0.941153
O O11 0.500000 0.902204 0.822542
O O12 0.750000 0.890750 0.750000
O O13 0.500000 0.100104 0.822087
O O14 0.250000 0.111999 0.750000
#
# Coordination Sequence:
#
# PCOD9476809 Si02
#       5
#    16  16  16  16  16
#     4  10  18  31  51  76 105 136 171 210 258 309
#     4  10  20  36  56  78 105 138 176 216 261 312
#     4   9  20  37  55  76 105 141 176 213 260 312
#     4  10  19  33  53  78 107 137 173 213 256 306
#     4  11  21  35  55  79 107 138 174 215 260 308
#
# _framework density 17.778582
#
# number of rings (size 3 to 8) (size 9 to 14) (size 15 to 20)
#    0.000    2.000    0.000    7.200    0.000    3.200 
#    0.000    3.000    0.000    6.000    0.000    0.000 
#    0.000    0.000    0.000    0.000    0.000    0.000 
#
# Total GULP energy -223223.960227 kJ/mol
# GULP energy per Si atom -5580.599006 kJ/mol
# Density = 1.773812 g / cm^3
# Si number density = 17.778582 Si / 1000 Ang^3
#
#
#
# Elastic Constant Matrix: (Units=GPa)
#
#
# Indices 1 2 3 4 5 6 
#
# 1 117.7181 75.5751 38.9918 0.0000 0.0000 0.0000
# 2 75.5751 164.1663 69.1931 0.0000 0.0000 0.0000
# 3 38.9918 69.1931 47.1631 0.0000 0.0000 0.0000
# 4 0.0000 0.0000 0.0000 -55.7160 0.0000 0.0000
# 5 0.0000 0.0000 0.0000 0.0000 27.0596 0.0000
# 6 0.0000 0.0000 0.0000 0.0000 0.0000 28.7864
#
#
#
# Elastic Compliance Matrix: (Units=1/GPa)
#
#
# Indices 1 2 3 4 5 6 
#
# 1 0.012485 -0.003661 -0.004951 0.000000 0.000000 0.000000
# 2 -0.003661 0.017034 -0.021965 0.000000 0.000000 0.000000
# 3 -0.004951 -0.021965 0.057521 0.000000 0.000000 0.000000
# 4 0.000000 0.000000 0.000000 -0.017948 0.000000 0.000000
# 5 0.000000 0.000000 0.000000 0.000000 0.036955 0.000000
# 6 0.000000 0.000000 0.000000 0.000000 0.000000 0.034739
#
#
# Mechanical properties :
#
#
# Convention : Reuss Voigt Hill
#
# Bulk Modulus (GPa) = 38.62955 77.39637 58.01296
# Shear Modulus (GPa) = 23.74529 9.71184 16.72857
#
# Velocity S-wave (km/s) = 3.65857 2.33977 3.07080
# Velocity P-wave (km/s) = 6.29461 7.13634 6.72865
#
# Compressibility (1/GPa) = 0.02588692
#
# Stress axis : x y z
#
# Youngs Moduli (GPa) = 80.09565 58.70522 17.38503
#
# Poissons Ratio (x) = 0.21490 0.08608
# Poissons Ratio (y) = 0.29321 0.38185
# Poissons Ratio (z) = 0.39658 1.28943
#
# Static dielectric constant tensor:
#      x y z
#    x 1.598570 0.000000 0.000000 
#    y 0.000000 1.642470 0.000000 
#    z 0.000000 0.000000 1.577380 
# 
# From -- ./inp_files/29745.got.cif
#   From: 2010.05.17/outbox.cif.g08.bks.cpg/sg64_15_cif.got.tgz:29745.got - 2010.06.03 16:29:19.
