data_PCOD9476680
_publ_section_title
;
Structure prediction by ZEFSAII (Michael W. Deem and Ramdas Pophale) SiO2 
 PCOD9476680
Probable space group: C M C A
;
_chemical_formula_sum "Si O2"
_cell_formula_units_Z 96
_cell_length_a 8.624422
_cell_length_b 24.742714
_cell_length_c 26.344747
_cell_angle_alpha 90.000000
_cell_angle_beta 90.000000
_cell_angle_gamma 90.000000
_cell_volume 5621.747897
_symmetry_space_group_name_H-M "C M C A"
_symmetry_group_IT_number 64
_symmetry_cell_setting 'orthorhombic'
loop_
_space_group_symop_operation_xyz
x,y,z
-x,1/2-y,1/2+z
x,-y,-z
-x,1/2+y,1/2-z
-x,-y,-z
x,1/2+y,1/2-z
-x,y,z
x,1/2-y,1/2+z
1/2+x,1/2+y,z
1/2-x,-y,1/2+z
1/2+x,1/2-y,-z
1/2-x,y,1/2-z
1/2-x,1/2-y,-z
1/2+x,y,1/2-z
1/2-x,1/2+y,z
1/2+x,-y,1/2+z
loop_
_atom_site_type_symbol
_atom_site_label
_atom_site_fract_x
_atom_site_fract_y
_atom_site_fract_z
Si Si1 0.813063 0.744519 0.113730
Si Si2 0.186459 0.483036 0.556716
Si Si3 0.182211 0.829887 0.459086
Si Si4 0.682282 0.134492 0.074268
Si Si5 0.183973 0.414515 0.382639
Si Si6 0.184466 0.169896 0.693434
O O1 0.743417 0.774257 0.064267
O O2 0.765630 0.681585 0.112837
O O3 0.754737 0.780543 0.160621
O O4 0.000000 0.746891 0.111230
O O5 0.243789 0.500000 0.500000
O O6 0.234110 0.422801 0.571841
O O7 0.238501 0.526740 0.598714
O O8 0.000000 0.486244 0.554806
O O9 0.198118 0.838666 0.518626
O O10 0.280030 0.875760 0.430416
O O11 0.000000 0.835737 0.445937
O O12 0.500000 0.124215 0.082859
O O13 0.266621 0.385028 0.335847
O O14 0.000000 0.415485 0.372929
O O15 0.250000 0.170271 0.750000
O O16 0.000000 0.174494 0.693781
#
# Coordination Sequence:
#
# PCOD9476680 Si02
#       6
#    16  16  16  16  16  16
#     4  10  20  34  50  74 105 137 173 216 263 312
#     4  10  20  33  50  74 106 147 186 217 255 304
#     4  10  18  29  46  72 103 140 179 215 254 302
#     4  10  21  32  47  72 106 145 181 214 255 304
#     4  10  19  33  52  77 107 139 177 220 261 305
#     4  11  22  38  60  83 103 130 168 216 273 321
#
# _framework density 17.076540000000001
#
# number of rings (size 3 to 8) (size 9 to 14) (size 15 to 20)
#    0.000    1.833    1.667    5.500    0.000    3.667 
#    0.000    0.000    0.000    1.000    0.000    7.000 
#    0.000    0.000    0.000    0.000    0.000    0.000 
#
# Total GULP energy -267751.835458 kJ/mol
# GULP energy per Si atom -5578.163239 kJ/mol
# Density = 1.703767 g / cm^3
# Si number density = 17.076540 Si / 1000 Ang^3
#
#
#
# Elastic Constant Matrix: (Units=GPa)
#
#
# Indices 1 2 3 4 5 6 
#
# 1 32.9722 11.7179 12.9268 0.0000 0.0000 0.0000
# 2 11.7179 134.0961 39.4790 0.0000 0.0000 0.0000
# 3 12.9268 39.4790 63.3190 0.0000 0.0000 0.0000
# 4 0.0000 0.0000 0.0000 9.0406 0.0000 0.0000
# 5 0.0000 0.0000 0.0000 0.0000 20.8397 0.0000
# 6 0.0000 0.0000 0.0000 0.0000 0.0000 21.9804
#
#
#
# Elastic Compliance Matrix: (Units=1/GPa)
#
#
# Indices 1 2 3 4 5 6 
#
# 1 0.033101 -0.001106 -0.006068 0.000000 0.000000 0.000000
# 2 -0.001106 0.009171 -0.005492 0.000000 0.000000 0.000000
# 3 -0.006068 -0.005492 0.020456 0.000000 0.000000 0.000000
# 4 0.000000 0.000000 0.000000 0.110612 0.000000 0.000000
# 5 0.000000 0.000000 0.000000 0.000000 0.047985 0.000000
# 6 0.000000 0.000000 0.000000 0.000000 0.000000 0.045495
#
#
# Mechanical properties :
#
#
# Convention : Reuss Voigt Hill
#
# Bulk Modulus (GPa) = 26.74134 39.84830 33.29482
# Shear Modulus (GPa) = 16.41399 21.45637 18.93518
#
# Velocity S-wave (km/s) = 3.10369 3.54853 3.33354
# Velocity P-wave (km/s) = 5.34205 6.33839 5.86143
#
# Compressibility (1/GPa) = 0.03739529
#
# Stress axis : x y z
#
# Youngs Moduli (GPa) = 30.21089 109.03998 48.88486
#
# Poissons Ratio (x) = 0.12060 0.29664
# Poissons Ratio (y) = 0.03341 0.26849
# Poissons Ratio (z) = 0.18332 0.59887
#
# Static dielectric constant tensor:
#      x y z
#    x 1.577140 0.000000 0.000000 
#    y 0.000000 1.599720 0.000000 
#    z 0.000000 0.000000 1.564340 
# 
# From -- ./inp_files/48376.got.cif
#   From: 2010.05.17/outbox.cif.g08.bks.cpg/sg64_25_cif.got.tgz:48376.got - 2010.06.03 16:29:19.
