data_PCOD9476320
_publ_section_title
;
Structure prediction by ZEFSAII (Michael W. Deem and Ramdas Pophale) SiO2 
 PCOD9476320
Probable space group: C M C A
;
_chemical_formula_sum "Si O2"
_cell_formula_units_Z 64
_cell_length_a 9.640374
_cell_length_b 12.341016
_cell_length_c 22.048615
_cell_angle_alpha 90.000000
_cell_angle_beta 90.000000
_cell_angle_gamma 90.000000
_cell_volume 2623.168039
_symmetry_space_group_name_H-M "C M C A"
_symmetry_group_IT_number 64
_symmetry_cell_setting 'orthorhombic'
loop_
_space_group_symop_operation_xyz
x,y,z
-x,1/2-y,1/2+z
x,-y,-z
-x,1/2+y,1/2-z
-x,-y,-z
x,1/2+y,1/2-z
-x,y,z
x,1/2-y,1/2+z
1/2+x,1/2+y,z
1/2-x,-y,1/2+z
1/2+x,1/2-y,-z
1/2-x,y,1/2-z
1/2-x,1/2-y,-z
1/2+x,y,1/2-z
1/2-x,1/2+y,z
1/2+x,-y,1/2+z
loop_
_atom_site_type_symbol
_atom_site_label
_atom_site_fract_x
_atom_site_fract_y
_atom_site_fract_z
Si Si1 0.189100 0.439157 0.560052
Si Si2 0.750000 0.192691 0.750000
Si Si3 0.000000 0.907529 0.571705
Si Si4 0.500000 0.162380 0.831885
Si Si5 0.000000 0.156432 0.290504
Si Si6 0.500000 0.738672 0.542394
Si Si7 0.500000 0.427909 0.832563
O O1 0.138389 0.500000 0.500000
O O2 0.350738 0.456497 0.560296
O O3 0.133815 0.316208 0.551843
O O4 0.126467 0.469514 0.626076
O O5 0.644115 0.133579 0.797097
O O6 0.638700 0.270000 0.716037
O O7 0.000000 0.806569 0.524930
O O8 0.000000 0.886086 0.642578
O O9 0.500000 0.148433 0.904367
O O10 0.500000 0.295876 0.831351
O O11 0.000000 0.060843 0.239558
#
# Coordination Sequence:
#
# PCOD9476320 Si02
#       7
#    16   8   8   8   8   8   8
#     4  10  20  35  53  77 106 141 177 215 263 318
#     4   8  14  24  42  64  94 126 162 212 252 292
#     4  12  21  30  51  85 109 131 173 228 263 296
#     4   8  14  26  42  67  97 124 160 208 258 291
#     4  10  16  27  45  75 101 123 167 220 259 287
#     4  10  20  34  50  74 109 144 174 211 262 319
#     4   8  16  31  51  71  98 134 174 215 251 307
#
# _framework density 24.39798
#
# number of rings (size 3 to 8) (size 9 to 14) (size 15 to 20)
#    0.000    3.000    0.000    7.125    0.000    0.000 
#    0.000    0.000    0.000    0.000    0.000   80.500 
#    0.000    0.000    0.000    0.000    0.000    0.000 
#
# Total GULP energy -178334.637682 kJ/mol
# GULP energy per Si atom -5572.957428 kJ/mol
# Density = 2.434245 g / cm^3
# Si number density = 24.397980 Si / 1000 Ang^3
#
#
#
# Elastic Constant Matrix: (Units=GPa)
#
#
# Indices 1 2 3 4 5 6 
#
# 1 233.3889 46.1497 72.4352 0.0000 0.0000 0.0000
# 2 46.1497 42.4598 42.3069 0.0000 0.0000 0.0000
# 3 72.4352 42.3069 238.2445 0.0000 0.0000 0.0000
# 4 0.0000 0.0000 0.0000 19.0926 0.0000 0.0000
# 5 0.0000 0.0000 0.0000 0.0000 -270.4862 0.0000
# 6 0.0000 0.0000 0.0000 0.0000 0.0000 -8.3353
#
#
#
# Elastic Compliance Matrix: (Units=1/GPa)
#
#
# Indices 1 2 3 4 5 6 
#
# 1 0.005566 -0.005302 -0.000751 0.000000 0.000000 0.000000
# 2 -0.005302 0.033664 -0.004366 0.000000 0.000000 0.000000
# 3 -0.000751 -0.004366 0.005201 0.000000 0.000000 0.000000
# 4 0.000000 0.000000 0.000000 0.052376 0.000000 0.000000
# 5 0.000000 0.000000 0.000000 0.000000 -0.003697 0.000000
# 6 0.000000 0.000000 0.000000 0.000000 0.000000 -0.119971
#
#
# Mechanical properties :
#
#
# Convention : Reuss Voigt Hill
#
# Bulk Modulus (GPa) = 42.38324 92.87520 67.62922
# Shear Modulus (GPa) = 2715.39615 -28.39902 1343.49856
#
# Velocity S-wave (km/s) = 33.39724 -3.41543 23.49160
# Velocity P-wave (km/s) = 38.78887 4.75351 27.63306
#
# Compressibility (1/GPa) = 0.02359423
#
# Stress axis : x y z
#
# Youngs Moduli (GPa) = 179.66057 29.70494 192.27120
#
# Poissons Ratio (x) = 0.15748 0.14436
# Poissons Ratio (y) = 0.95249 0.83949
# Poissons Ratio (z) = 0.13490 0.12970
#
# Static dielectric constant tensor:
#      x y z
#    x 1.917820 0.000000 0.000000 
#    y 0.000000 2.004350 0.000000 
#    z 0.000000 0.000000 1.372980 
# 
# From -- ./inp_files/36497.got.cif
#   From: 2010.05.17/outbox.cif.g08.bks.cpg/sg64_19_cif.got.tgz:36497.got - 2010.06.03 16:29:19.
