data_PCOD9476840
_publ_section_title
;
Structure prediction by ZEFSAII (Michael W. Deem and Ramdas Pophale) SiO2 
 PCOD9476840
Probable space group: C M C A
;
_chemical_formula_sum "Si O2"
_cell_formula_units_Z 64
_cell_length_a 25.455206
_cell_length_b 13.820125
_cell_length_c 7.899420
_cell_angle_alpha 90.000000
_cell_angle_beta 90.000000
_cell_angle_gamma 90.000000
_cell_volume 2778.969577
_symmetry_space_group_name_H-M "C M C A"
_symmetry_group_IT_number 64
_symmetry_cell_setting 'orthorhombic'
loop_
_space_group_symop_operation_xyz
x,y,z
-x,1/2-y,1/2+z
x,-y,-z
-x,1/2+y,1/2-z
-x,-y,-z
x,1/2+y,1/2-z
-x,y,z
x,1/2-y,1/2+z
1/2+x,1/2+y,z
1/2-x,-y,1/2+z
1/2+x,1/2-y,-z
1/2-x,y,1/2-z
1/2-x,1/2-y,-z
1/2+x,y,1/2-z
1/2-x,1/2+y,z
1/2+x,-y,1/2+z
loop_
_atom_site_type_symbol
_atom_site_label
_atom_site_fract_x
_atom_site_fract_y
_atom_site_fract_z
Si Si1 0.111633 0.599710 0.193973
Si Si2 0.500000 0.102947 0.130865
Si Si3 0.891148 0.306787 0.434852
Si Si4 0.691760 0.549369 0.814255
Si Si5 0.500000 0.685375 0.748877
O O1 0.054702 0.550811 0.168015
O O2 0.114032 0.690667 0.067371
O O3 0.110980 0.650274 0.377892
O O4 0.158955 0.524727 0.196645
O O5 0.500000 0.197135 0.252542
O O6 0.500000 0.143942 0.939861
O O7 0.843104 0.354858 0.334535
O O8 0.946381 0.336708 0.349189
O O9 0.750000 0.567520 0.750000
O O10 0.694679 0.500000 0.000000
#
# Coordination Sequence:
#
# PCOD9476840 Si02
#       5
#    16   8  16  16   8
#     4  10  20  37  58  83 112 146 181 223 274 327
#     4  10  18  31  54  85 114 144 178 221 271 327
#     4  10  20  37  58  83 112 146 181 223 274 327
#     4  10  24  41  58  79 109 146 188 230 273 322
#     4  10  18  31  54  85 114 144 178 221 271 327
#
# _framework density 23.030118000000002
#
# number of rings (size 3 to 8) (size 9 to 14) (size 15 to 20)
#    0.000    2.000    0.000    6.750    0.000    6.000 
#    0.000   10.000    0.000    0.000    0.000    0.000 
#    0.000    0.000    0.000    0.000    0.000    0.000 
#
# Total GULP energy -179132.890687 kJ/mol
# GULP energy per Si atom -5597.902834 kJ/mol
# Density = 2.297770 g / cm^3
# Si number density = 23.030118 Si / 1000 Ang^3
#
#
#
# Elastic Constant Matrix: (Units=GPa)
#
#
# Indices 1 2 3 4 5 6 
#
# 1 192.8501 35.8179 23.5688 0.0000 0.0000 0.0000
# 2 35.8179 70.0746 7.0343 0.0000 0.0000 0.0000
# 3 23.5688 7.0343 82.2225 0.0000 0.0000 0.0000
# 4 0.0000 0.0000 0.0000 29.5572 0.0000 0.0000
# 5 0.0000 0.0000 0.0000 0.0000 381.3916 0.0000
# 6 0.0000 0.0000 0.0000 0.0000 0.0000 25.4035
#
#
#
# Elastic Compliance Matrix: (Units=1/GPa)
#
#
# Indices 1 2 3 4 5 6 
#
# 1 0.005895 -0.002868 -0.001444 0.000000 0.000000 0.000000
# 2 -0.002868 0.015790 -0.000529 0.000000 0.000000 0.000000
# 3 -0.001444 -0.000529 0.012621 0.000000 0.000000 0.000000
# 4 0.000000 0.000000 0.000000 0.033833 0.000000 0.000000
# 5 0.000000 0.000000 0.000000 0.000000 0.002622 0.000000
# 6 0.000000 0.000000 0.000000 0.000000 0.000000 0.039365
#
#
# Mechanical properties :
#
#
# Convention : Reuss Voigt Hill
#
# Bulk Modulus (GPa) = 40.61167 53.10989 46.86078
# Shear Modulus (GPa) = 39.05804 105.85220 72.45512
#
# Velocity S-wave (km/s) = 4.12266 6.78692 5.61510
# Velocity P-wave (km/s) = 6.35093 9.19388 7.90132
#
# Compressibility (1/GPa) = 0.02462346
#
# Stress axis : x y z
#
# Youngs Moduli (GPa) = 169.64831 63.33318 79.23083
#
# Poissons Ratio (x) = 0.18164 0.11443
# Poissons Ratio (y) = 0.48654 0.04189
# Poissons Ratio (z) = 0.24502 0.03349
#
# Static dielectric constant tensor:
#      x y z
#    x 1.834910 0.000000 0.000000 
#    y 0.000000 1.892790 0.000000 
#    z 0.000000 0.000000 1.886650 
# 
# From -- ./inp_files/8980.got.cif
#   From: 2010.05.17/outbox.cif.g08.bks.cpg/sg64_5_cif.got.tgz:8980.got - 2010.06.03 16:29:19.
