data_PCOD9476502
_publ_section_title
;
Structure prediction by ZEFSAII (Michael W. Deem and Ramdas Pophale) SiO2 
 PCOD9476502
Probable space group: C M C A
;
_chemical_formula_sum "Si O2"
_cell_formula_units_Z 88
_cell_length_a 13.641365
_cell_length_b 21.649266
_cell_length_c 15.023712
_cell_angle_alpha 90.000000
_cell_angle_beta 90.000000
_cell_angle_gamma 90.000000
_cell_volume 4436.885852
_symmetry_space_group_name_H-M "C M C A"
_symmetry_group_IT_number 64
_symmetry_cell_setting 'orthorhombic'
loop_
_space_group_symop_operation_xyz
x,y,z
-x,1/2-y,1/2+z
x,-y,-z
-x,1/2+y,1/2-z
-x,-y,-z
x,1/2+y,1/2-z
-x,y,z
x,1/2-y,1/2+z
1/2+x,1/2+y,z
1/2-x,-y,1/2+z
1/2+x,1/2-y,-z
1/2-x,y,1/2-z
1/2-x,1/2-y,-z
1/2+x,y,1/2-z
1/2-x,1/2+y,z
1/2+x,-y,1/2+z
loop_
_atom_site_type_symbol
_atom_site_label
_atom_site_fract_x
_atom_site_fract_y
_atom_site_fract_z
Si Si1 0.616017 0.107260 0.295231
Si Si2 0.882906 0.656155 0.643048
Si Si3 0.253658 0.867231 0.531581
Si Si4 0.745220 0.500000 0.000000
Si Si5 0.116116 0.024645 0.825162
Si Si6 0.383951 0.206230 0.143873
O O1 0.500000 0.112140 0.313160
O O2 0.673858 0.123172 0.384670
O O3 0.639251 0.155331 0.218220
O O4 0.636509 0.036035 0.266397
O O5 0.819022 0.648368 0.553999
O O6 0.862841 0.595210 0.703094
O O7 0.861598 0.724726 0.677867
O O8 0.000000 0.654769 0.622740
O O9 0.202443 0.934434 0.516481
O O10 0.177935 0.814032 0.558115
O O11 0.675667 0.487304 0.084633
O O12 0.000000 0.022476 0.844250
O O13 0.500000 0.203255 0.125195
#
# Coordination Sequence:
#
# PCOD9476502 Si02
#       6
#    16  16  16   8  16  16
#     4   9  17  29  48  72  94 118 152 192 238 287
#     4   9  17  29  48  73  97 120 153 198 240 276
#     4  10  17  30  49  68  92 123 157 195 235 274
#     4   8  15  24  43  70  88 108 150 196 230 268
#     4   8  13  24  44  69  93 113 139 187 243 281
#     4  10  20  31  44  67  99 132 161 190 229 280
#
# _framework density 19.833732000000001
#
# number of rings (size 3 to 8) (size 9 to 14) (size 15 to 20)
#    0.000    2.909    0.000    1.909    0.000    4.364 
#    0.000    0.455    0.000   15.273    0.000    5.091 
#    0.000    0.000    0.000    0.000    0.000    0.000 
#
# Total GULP energy -245018.932257 kJ/mol
# GULP energy per Si atom -5568.612097 kJ/mol
# Density = 1.978859 g / cm^3
# Si number density = 19.833732 Si / 1000 Ang^3
#
#
#
# Elastic Constant Matrix: (Units=GPa)
#
#
# Indices 1 2 3 4 5 6 
#
# 1 49.6351 18.6132 3.0244 0.0000 0.0000 0.0000
# 2 18.6132 202.1499 29.6739 0.0000 0.0000 0.0000
# 3 3.0244 29.6739 22.8791 0.0000 0.0000 0.0000
# 4 0.0000 0.0000 0.0000 27.3603 0.0000 0.0000
# 5 0.0000 0.0000 0.0000 0.0000 16.2442 0.0000
# 6 0.0000 0.0000 0.0000 0.0000 0.0000 -5.8017
#
#
#
# Elastic Compliance Matrix: (Units=1/GPa)
#
#
# Indices 1 2 3 4 5 6 
#
# 1 0.020870 -0.001873 -0.000329 0.000000 0.000000 0.000000
# 2 -0.001873 0.006278 -0.007895 0.000000 0.000000 0.000000
# 3 -0.000329 -0.007895 0.053992 0.000000 0.000000 0.000000
# 4 0.000000 0.000000 0.000000 0.036549 0.000000 0.000000
# 5 0.000000 0.000000 0.000000 0.000000 0.061560 0.000000
# 6 0.000000 0.000000 0.000000 0.000000 0.000000 -0.172365
#
#
# Mechanical properties :
#
#
# Convention : Reuss Voigt Hill
#
# Bulk Modulus (GPa) = 16.40848 41.92079 29.16463
# Shear Modulus (GPa) = 105.49757 22.45074 63.97415
#
# Velocity S-wave (km/s) = 7.30113 3.36809 5.68553
# Velocity P-wave (km/s) = 8.90877 6.02556 7.60505
#
# Compressibility (1/GPa) = 0.06094412
#
# Stress axis : x y z
#
# Youngs Moduli (GPa) = 47.91669 159.27996 18.52141
#
# Poissons Ratio (x) = 0.29837 0.00610
# Poissons Ratio (y) = 0.08976 0.14623
# Poissons Ratio (z) = 0.01577 1.25755
#
# Static dielectric constant tensor:
#      x y z
#    x 1.689340 0.000000 0.000000 
#    y 0.000000 1.798590 0.000000 
#    z 0.000000 0.000000 1.674560 
# 
# From -- ./inp_files/23768.got.cif
#   From: 2010.05.17/outbox.cif.g08.bks.cpg/sg64_12_cif.got.tgz:23768.got - 2010.06.03 16:29:19.
