data_PCOD9476753
_publ_section_title
;
Structure prediction by ZEFSAII (Michael W. Deem and Ramdas Pophale) SiO2 
 PCOD9476753
Probable space group: C M C A
;
_chemical_formula_sum "Si O2"
_cell_formula_units_Z 84
_cell_length_a 24.401144
_cell_length_b 10.059446
_cell_length_c 13.310390
_cell_angle_alpha 90.000000
_cell_angle_beta 90.000000
_cell_angle_gamma 90.000000
_cell_volume 3267.194822
_symmetry_space_group_name_H-M "C M C A"
_symmetry_group_IT_number 64
_symmetry_cell_setting 'orthorhombic'
loop_
_space_group_symop_operation_xyz
x,y,z
-x,1/2-y,1/2+z
x,-y,-z
-x,1/2+y,1/2-z
-x,-y,-z
x,1/2+y,1/2-z
-x,y,z
x,1/2-y,1/2+z
1/2+x,1/2+y,z
1/2-x,-y,1/2+z
1/2+x,1/2-y,-z
1/2-x,y,1/2-z
1/2-x,1/2-y,-z
1/2+x,y,1/2-z
1/2-x,1/2+y,z
1/2+x,-y,1/2+z
loop_
_atom_site_type_symbol
_atom_site_label
_atom_site_fract_x
_atom_site_fract_y
_atom_site_fract_z
Si Si1 0.878160 0.859705 0.461099
Si Si2 0.728129 0.243530 0.884479
Si Si3 0.811569 0.476883 0.376772
Si Si4 0.500000 0.141371 0.873671
Si Si5 0.087808 0.667172 0.627510
Si Si6 0.500000 0.144071 0.233826
Si Si7 0.500000 0.500000 0.000000
O O1 0.833829 0.812690 0.381662
O O2 0.876925 0.756813 0.552281
O O3 0.941829 0.874351 0.428532
O O4 0.858310 0.000000 0.500000
O O5 0.773644 0.145002 0.844827
O O6 0.719490 0.390640 0.845130
O O7 0.750000 0.250000 0.000000
O O8 0.818371 0.500000 0.500000
O O9 0.870811 0.443161 0.329062
O O10 0.500000 0.302388 0.848141
O O11 0.500000 0.012374 0.795126
O O12 0.052701 0.773225 0.692365
O O13 0.046552 0.584329 0.561065
#
# Coordination Sequence:
#
# PCOD9476753 Si02
#       7
#    16  16  16   8  16   8   4
#     4  12  21  37  66  91 122 156 210 262 313 369
#     4  10  19  31  54  93 132 157 192 256 319 370
#     4  10  18  31  51  90 128 155 199 245 318 365
#     4  12  27  43  61  90 122 173 213 257 321 376
#     4  11  20  36  62  86 122 158 209 262 307 371
#     4  11  27  44  58  85 128 170 211 263 313 376
#     4  10  18  30  50  84 110 154 198 254 306 348
#
# _framework density 25.710128999999998
#
# number of rings (size 3 to 8) (size 9 to 14) (size 15 to 20)
#    0.000    1.143    6.667    3.143    0.000    4.571 
#    0.000    0.000    0.000    1.143    0.000    5.333 
#    0.000    0.000    0.000    0.000    0.000    0.000 
#
# Total GULP energy -234248.465577 kJ/mol
# GULP energy per Si atom -5577.344418 kJ/mol
# Density = 2.565161 g / cm^3
# Si number density = 25.710129 Si / 1000 Ang^3
#
#
#
# Elastic Constant Matrix: (Units=GPa)
#
#
# Indices 1 2 3 4 5 6 
#
# 1 151.6698 36.3633 12.3228 0.0000 0.0000 0.0000
# 2 36.3633 145.9980 -12.0703 0.0000 0.0000 0.0000
# 3 12.3228 -12.0703 51.2181 0.0000 0.0000 0.0000
# 4 0.0000 0.0000 0.0000 9.7448 0.0000 0.0000
# 5 0.0000 0.0000 0.0000 0.0000 19.8473 0.0000
# 6 0.0000 0.0000 0.0000 0.0000 0.0000 12.1641
#
#
#
# Elastic Compliance Matrix: (Units=1/GPa)
#
#
# Indices 1 2 3 4 5 6 
#
# 1 0.007250 -0.001989 -0.002213 0.000000 0.000000 0.000000
# 2 -0.001989 0.007531 0.002253 0.000000 0.000000 0.000000
# 3 -0.002213 0.002253 0.020588 0.000000 0.000000 0.000000
# 4 0.000000 0.000000 0.000000 0.102619 0.000000 0.000000
# 5 0.000000 0.000000 0.000000 0.000000 0.050385 0.000000
# 6 0.000000 0.000000 0.000000 0.000000 0.000000 0.082209
#
#
# Mechanical properties :
#
#
# Convention : Reuss Voigt Hill
#
# Bulk Modulus (GPa) = 31.77434 46.90197 39.33815
# Shear Modulus (GPa) = 17.54579 29.16924 23.35752
#
# Velocity S-wave (km/s) = 2.61520 3.37195 3.01739
# Velocity P-wave (km/s) = 4.63730 5.78293 5.24151
#
# Compressibility (1/GPa) = 0.03147194
#
# Stress axis : x y z
#
# Youngs Moduli (GPa) = 137.93389 132.78448 48.57255
#
# Poissons Ratio (x) = 0.26406 0.10749
# Poissons Ratio (y) = 0.27430 -0.10945
# Poissons Ratio (z) = 0.30524 -0.29920
#
# Static dielectric constant tensor:
#      x y z
#    x 1.948120 0.000000 0.000000 
#    y 0.000000 2.016820 0.000000 
#    z 0.000000 0.000000 2.135740 
# 
# From -- ./inp_files/34909.got.cif
#   From: 2010.05.17/outbox.cif.g08.bks.cpg/sg64_18_cif.got.tgz:34909.got - 2010.06.03 16:29:19.
