data_PCOD9476640
_publ_section_title
;
Structure prediction by ZEFSAII (Michael W. Deem and Ramdas Pophale) SiO2 
 PCOD9476640
Probable space group: C M C A
;
_chemical_formula_sum "Si O2"
_cell_formula_units_Z 116
_cell_length_a 7.684515
_cell_length_b 31.333023
_cell_length_c 29.328939
_cell_angle_alpha 90.000000
_cell_angle_beta 90.000000
_cell_angle_gamma 90.000000
_cell_volume 7061.795103
_symmetry_space_group_name_H-M "C M C A"
_symmetry_group_IT_number 64
_symmetry_cell_setting 'orthorhombic'
loop_
_space_group_symop_operation_xyz
x,y,z
-x,1/2-y,1/2+z
x,-y,-z
-x,1/2+y,1/2-z
-x,-y,-z
x,1/2+y,1/2-z
-x,y,z
x,1/2-y,1/2+z
1/2+x,1/2+y,z
1/2-x,-y,1/2+z
1/2+x,1/2-y,-z
1/2-x,y,1/2-z
1/2-x,1/2-y,-z
1/2+x,y,1/2-z
1/2-x,1/2+y,z
1/2+x,-y,1/2+z
loop_
_atom_site_type_symbol
_atom_site_label
_atom_site_fract_x
_atom_site_fract_y
_atom_site_fract_z
Si Si1 0.293035 0.353789 0.198689
Si Si2 0.296991 0.618734 0.603678
Si Si3 0.788214 0.842831 0.529806
Si Si4 0.710189 0.707230 0.558389
Si Si5 0.790505 0.243964 0.801371
Si Si6 0.200652 0.209051 0.388734
Si Si7 0.500000 0.000000 0.000000
Si Si8 0.693713 0.430956 0.018672
O O1 0.500000 0.352252 0.194136
O O2 0.250000 0.367762 0.250000
O O3 0.224508 0.382926 0.157826
O O4 0.224204 0.304899 0.193605
O O5 0.500000 0.616062 0.591610
O O6 0.238263 0.666192 0.588784
O O7 0.205392 0.584654 0.571432
O O8 0.739671 0.806592 0.492630
O O9 0.724668 0.828391 0.579612
O O10 0.722513 0.887790 0.511000
O O11 0.000000 0.844345 0.530040
O O12 0.500000 0.712157 0.560486
O O13 0.793963 0.749121 0.579126
O O14 0.750000 0.257899 0.750000
O O15 0.721277 0.274916 0.840955
O O16 0.000000 0.242032 0.806309
O O17 0.000000 0.197381 0.379637
O O18 0.346665 0.963647 0.008300
O O19 0.500000 0.447370 0.009559
#
# Coordination Sequence:
#
# PCOD9476640 Si02
#       8
#    16  16  16  16  16  16   4  16
#     4  10  18  28  43  65  95 137 185 225 261 304
#     4  10  18  32  48  70 105 139 176 220 261 299
#     4   9  18  33  46  67 102 132 164 214 257 294
#     4   9  17  26  40  62  93 133 174 207 249 291
#     4   9  18  29  40  60  89 131 183 226 262 299
#     4  10  18  28  44  63  92 135 175 217 258 293
#     4  12  22  44  60  82 112 128 166 208 256 318
#     4  11  22  37  60  82 104 141 167 205 260 323
#
# _framework density 16.426418000000002
#
# number of rings (size 3 to 8) (size 9 to 14) (size 15 to 20)
#    0.000    2.207    2.759    2.276    0.000    3.862 
#    0.000    0.000    0.000    0.000    0.000    0.000 
#    0.000    1.103    4.966    0.276    0.000    0.138 
#
# Total GULP energy -322899.073815 kJ/mol
# GULP energy per Si atom -5567.225411 kJ/mol
# Density = 1.638903 g / cm^3
# Si number density = 16.426418 Si / 1000 Ang^3
#
#
#
# Elastic Constant Matrix: (Units=GPa)
#
#
# Indices 1 2 3 4 5 6 
#
# 1 67.7563 15.5450 15.0277 0.0000 0.0000 0.0000
# 2 15.5450 56.2955 49.2734 0.0000 0.0000 0.0000
# 3 15.0277 49.2734 99.3005 0.0000 0.0000 0.0000
# 4 0.0000 0.0000 0.0000 1.4952 0.0000 0.0000
# 5 0.0000 0.0000 0.0000 0.0000 14.1383 0.0000
# 6 0.0000 0.0000 0.0000 0.0000 0.0000 11.5019
#
#
#
# Elastic Compliance Matrix: (Units=1/GPa)
#
#
# Indices 1 2 3 4 5 6 
#
# 1 0.015766 -0.004004 -0.000399 0.000000 0.000000 0.000000
# 2 -0.004004 0.032418 -0.015480 0.000000 0.000000 0.000000
# 3 -0.000399 -0.015480 0.017812 0.000000 0.000000 0.000000
# 4 0.000000 0.000000 0.000000 0.668799 0.000000 0.000000
# 5 0.000000 0.000000 0.000000 0.000000 0.070730 0.000000
# 6 0.000000 0.000000 0.000000 0.000000 0.000000 0.086942
#
#
# Mechanical properties :
#
#
# Convention : Reuss Voigt Hill
#
# Bulk Modulus (GPa) = 38.12485 42.56049 40.34267
# Shear Modulus (GPa) = 5.31362 14.99416 10.15389
#
# Velocity S-wave (km/s) = 1.80051 3.02455 2.48895
# Velocity P-wave (km/s) = 5.25188 6.17764 5.73348
#
# Compressibility (1/GPa) = 0.02622961
#
# Stress axis : x y z
#
# Youngs Moduli (GPa) = 63.42786 30.84673 56.14144
#
# Poissons Ratio (x) = 0.12352 0.02240
# Poissons Ratio (y) = 0.25398 0.86908
# Poissons Ratio (z) = 0.02531 0.47751
#
# Static dielectric constant tensor:
#      x y z
#    x 1.594810 0.000000 0.000000 
#    y 0.000000 1.519380 0.000000 
#    z 0.000000 0.000000 1.593430 
# 
# From -- ./inp_files/52372.got.cif
#   From: 2010.05.17/outbox.cif.g08.bks.cpg/sg64_27_cif.got.tgz:52372.got - 2010.06.03 16:29:19.
