data_PCOD9476845
_publ_section_title
;
Structure prediction by ZEFSAII (Michael W. Deem and Ramdas Pophale) SiO2 
 PCOD9476845
Probable space group: C M C A
;
_chemical_formula_sum "Si O2"
_cell_formula_units_Z 112
_cell_length_a 16.116532
_cell_length_b 21.320618
_cell_length_c 18.968069
_cell_angle_alpha 90.000000
_cell_angle_beta 90.000000
_cell_angle_gamma 90.000000
_cell_volume 6517.702071
_symmetry_space_group_name_H-M "C M C A"
_symmetry_group_IT_number 64
_symmetry_cell_setting 'orthorhombic'
loop_
_space_group_symop_operation_xyz
x,y,z
-x,1/2-y,1/2+z
x,-y,-z
-x,1/2+y,1/2-z
-x,-y,-z
x,1/2+y,1/2-z
-x,y,z
x,1/2-y,1/2+z
1/2+x,1/2+y,z
1/2-x,-y,1/2+z
1/2+x,1/2-y,-z
1/2-x,y,1/2-z
1/2-x,1/2-y,-z
1/2+x,y,1/2-z
1/2-x,1/2+y,z
1/2+x,-y,1/2+z
loop_
_atom_site_type_symbol
_atom_site_label
_atom_site_fract_x
_atom_site_fract_y
_atom_site_fract_z
Si Si1 0.591731 0.586300 0.664950
Si Si2 0.367081 0.523573 0.423001
Si Si3 0.800157 0.666644 0.943303
Si Si4 0.702186 0.738657 0.825975
Si Si5 0.099404 0.389106 0.319660
Si Si6 0.305450 0.954851 0.442883
Si Si7 0.900567 0.670747 0.081869
O O1 0.500000 0.613989 0.668035
O O2 0.589043 0.516289 0.636513
O O3 0.643245 0.626396 0.609814
O O4 0.626355 0.586601 0.743063
O O5 0.396107 0.500000 0.500000
O O6 0.271551 0.499605 0.419645
O O7 0.384540 0.596269 0.416030
O O8 0.761679 0.719482 0.892153
O O9 0.734503 0.612237 0.968685
O O10 0.854462 0.690917 0.008788
O O11 0.750000 0.745398 0.750000
O O12 0.640062 0.679447 0.822923
O O13 0.646771 0.796661 0.852915
O O14 0.137052 0.433419 0.379388
O O15 0.000000 0.386711 0.325426
O O16 0.348576 0.000000 0.500000
O O17 0.000000 0.683114 0.080733
#
# Coordination Sequence:
#
# PCOD9476845 Si02
#       7
#    16  16  16  16  16  16  16
#     4  10  18  31  55  86 111 141 188 240 289 333
#     4  10  19  34  55  84 112 146 179 231 293 354
#     4  10  19  35  60  83 110 151 196 237 286 351
#     4  11  23  41  57  80 116 160 200 236 291 359
#     4  10  21  36  59  85 112 151 200 244 280 334
#     4   9  17  34  56  84 116 148 189 228 286 346
#     4  12  23  37  58  88 117 145 189 250 302 351
#
# _framework density 17.183971
#
# number of rings (size 3 to 8) (size 9 to 14) (size 15 to 20)
#    0.000    1.714    5.714    1.714    0.000    0.857 
#    2.571    0.000    0.000    0.000    0.000    0.000 
#    0.000    0.000    0.000    0.000    0.000    0.000 
#
# Total GULP energy -311794.614930 kJ/mol
# GULP energy per Si atom -5567.760981 kJ/mol
# Density = 1.714486 g / cm^3
# Si number density = 17.183971 Si / 1000 Ang^3
#
#
#
# Elastic Constant Matrix: (Units=GPa)
#
#
# Indices 1 2 3 4 5 6 
#
# 1 62.6997 26.7243 45.5068 0.0000 0.0000 0.0000
# 2 26.7243 84.6176 53.8113 0.0000 0.0000 0.0000
# 3 45.5068 53.8113 114.0857 0.0000 0.0000 0.0000
# 4 0.0000 0.0000 0.0000 32.7906 0.0000 0.0000
# 5 0.0000 0.0000 0.0000 0.0000 45.6007 0.0000
# 6 0.0000 0.0000 0.0000 0.0000 0.0000 21.4019
#
#
#
# Elastic Compliance Matrix: (Units=1/GPa)
#
#
# Indices 1 2 3 4 5 6 
#
# 1 0.022686 -0.002014 -0.008099 0.000000 0.000000 0.000000
# 2 -0.002014 0.017060 -0.007243 0.000000 0.000000 0.000000
# 3 -0.008099 -0.007243 0.015412 0.000000 0.000000 0.000000
# 4 0.000000 0.000000 0.000000 0.030497 0.000000 0.000000
# 5 0.000000 0.000000 0.000000 0.000000 0.021929 0.000000
# 6 0.000000 0.000000 0.000000 0.000000 0.000000 0.046725
#
#
# Mechanical properties :
#
#
# Convention : Reuss Voigt Hill
#
# Bulk Modulus (GPa) = 48.91129 57.05420 52.98275
# Shear Modulus (GPa) = 25.53137 28.98269 27.25703
#
# Velocity S-wave (km/s) = 3.85875 4.11129 3.98702
# Velocity P-wave (km/s) = 6.95545 7.47068 7.21767
#
# Compressibility (1/GPa) = 0.02044518
#
# Stress axis : x y z
#
# Youngs Moduli (GPa) = 44.08076 58.61514 64.88304
#
# Poissons Ratio (x) = 0.11807 0.52547
# Poissons Ratio (y) = 0.08880 0.46998
# Poissons Ratio (z) = 0.35700 0.42458
#
# Static dielectric constant tensor:
#      x y z
#    x 1.632860 0.000000 0.000000 
#    y 0.000000 1.581570 0.000000 
#    z 0.000000 0.000000 1.617550 
# 
# From -- ./inp_files/33612.got.cif
#   From: 2010.05.17/outbox.cif.g08.bks.cpg/sg64_17_cif.got.tgz:33612.got - 2010.06.03 16:29:19.
