data_PCOD9476586
_publ_section_title
;
Structure prediction by ZEFSAII (Michael W. Deem and Ramdas Pophale) SiO2 
 PCOD9476586
Probable space group: C M C A
;
_chemical_formula_sum "Si O2"
_cell_formula_units_Z 88
_cell_length_a 24.037767
_cell_length_b 12.054814
_cell_length_c 13.892321
_cell_angle_alpha 90.000000
_cell_angle_beta 90.000000
_cell_angle_gamma 90.000000
_cell_volume 4025.589111
_symmetry_space_group_name_H-M "C M C A"
_symmetry_group_IT_number 64
_symmetry_cell_setting 'orthorhombic'
loop_
_space_group_symop_operation_xyz
x,y,z
-x,1/2-y,1/2+z
x,-y,-z
-x,1/2+y,1/2-z
-x,-y,-z
x,1/2+y,1/2-z
-x,y,z
x,1/2-y,1/2+z
1/2+x,1/2+y,z
1/2-x,-y,1/2+z
1/2+x,1/2-y,-z
1/2-x,y,1/2-z
1/2-x,1/2-y,-z
1/2+x,y,1/2-z
1/2-x,1/2+y,z
1/2+x,-y,1/2+z
loop_
_atom_site_type_symbol
_atom_site_label
_atom_site_fract_x
_atom_site_fract_y
_atom_site_fract_z
Si Si1 0.901315 0.211945 0.657750
Si Si2 0.063364 0.246350 0.938976
Si Si3 0.000000 0.872495 0.809345
Si Si4 0.396593 0.477997 0.114767
Si Si5 0.890237 0.966348 0.607979
Si Si6 0.315299 0.374672 0.766145
O O1 0.908874 0.242863 0.544266
O O2 0.843247 0.261354 0.695055
O O3 0.951602 0.276556 0.706785
O O4 0.906471 0.079508 0.660915
O O5 0.096046 0.154623 0.878358
O O6 0.062875 0.371755 0.898663
O O7 0.000000 0.207730 0.954647
O O8 0.950117 0.960520 0.840194
O O9 0.341587 0.531494 0.162524
O O10 0.396782 0.500000 0.000000
O O11 0.841248 0.906591 0.663534
O O12 0.875055 0.000000 0.500000
O O13 0.250000 0.370566 0.750000
#
# Coordination Sequence:
#
# PCOD9476586 Si02
#       6
#    16  16   8  16  16  16
#     4  10  21  41  67  98 137 180 231 284 348 420
#     4  11  20  40  71 105 142 179 214 285 364 432
#     4  10  17  34  67 100 142 168 219 289 346 418
#     4  11  19  38  69 106 137 174 235 292 348 417
#     4  10  26  45  63 100 144 185 232 282 361 426
#     4  11  26  46  67  95 135 186 248 302 339 401
#
# _framework density 21.860154000000001
#
# number of rings (size 3 to 8) (size 9 to 14) (size 15 to 20)
#    0.000    1.455    5.455    0.273    3.818    2.545 
#    6.545    1.818    0.000    0.000    0.000    0.000 
#    0.000    0.000    0.000    0.000    0.000    0.000 
#
# Total GULP energy -244997.254453 kJ/mol
# GULP energy per Si atom -5568.119419 kJ/mol
# Density = 2.181040 g / cm^3
# Si number density = 21.860154 Si / 1000 Ang^3
#
#
#
# Elastic Constant Matrix: (Units=GPa)
#
#
# Indices 1 2 3 4 5 6 
#
# 1 179.7146 54.2592 45.3799 0.0000 0.0000 0.0000
# 2 54.2592 165.6701 52.8144 0.0000 0.0000 0.0000
# 3 45.3799 52.8144 93.0729 0.0000 0.0000 0.0000
# 4 0.0000 0.0000 0.0000 35.9784 0.0000 0.0000
# 5 0.0000 0.0000 0.0000 0.0000 15.7580 0.0000
# 6 0.0000 0.0000 0.0000 0.0000 0.0000 4.7692
#
#
#
# Elastic Compliance Matrix: (Units=1/GPa)
#
#
# Indices 1 2 3 4 5 6 
#
# 1 0.006596 -0.001386 -0.002430 0.000000 0.000000 0.000000
# 2 -0.001386 0.007660 -0.003671 0.000000 0.000000 0.000000
# 3 -0.002430 -0.003671 0.014012 0.000000 0.000000 0.000000
# 4 0.000000 0.000000 0.000000 0.027794 0.000000 0.000000
# 5 0.000000 0.000000 0.000000 0.000000 0.063460 0.000000
# 6 0.000000 0.000000 0.000000 0.000000 0.000000 0.209679
#
#
# Mechanical properties :
#
#
# Convention : Reuss Voigt Hill
#
# Bulk Modulus (GPa) = 75.21483 82.59606 78.90545
# Shear Modulus (GPa) = 14.34277 30.36805 22.35541
#
# Velocity S-wave (km/s) = 2.56425 3.73124 3.20137
# Velocity P-wave (km/s) = 6.57641 7.51190 7.05967
#
# Compressibility (1/GPa) = 0.01329525
#
# Stress axis : x y z
#
# Youngs Moduli (GPa) = 151.59945 130.54321 71.36629
#
# Poissons Ratio (x) = 0.18090 0.17341
# Poissons Ratio (y) = 0.21008 0.26200
# Poissons Ratio (z) = 0.36836 0.47925
#
# Static dielectric constant tensor:
#      x y z
#    x 1.728530 0.000000 0.000000 
#    y 0.000000 1.874800 0.000000 
#    z 0.000000 0.000000 1.954310 
# 
# From -- ./inp_files/27208.got.cif
#   From: 2010.05.17/outbox.cif.g08.bks.cpg/sg64_14_cif.got.tgz:27208.got - 2010.06.03 16:29:19.
