data_PCOD9476819
_publ_section_title
;
Structure prediction by ZEFSAII (Michael W. Deem and Ramdas Pophale) SiO2 
 PCOD9476819
Probable space group: C M C A
;
_chemical_formula_sum "Si O2"
_cell_formula_units_Z 80
_cell_length_a 14.053216
_cell_length_b 24.696356
_cell_length_c 12.773832
_cell_angle_alpha 90.000000
_cell_angle_beta 90.000000
_cell_angle_gamma 90.000000
_cell_volume 4433.327333
_symmetry_space_group_name_H-M "C M C A"
_symmetry_group_IT_number 64
_symmetry_cell_setting 'orthorhombic'
loop_
_space_group_symop_operation_xyz
x,y,z
-x,1/2-y,1/2+z
x,-y,-z
-x,1/2+y,1/2-z
-x,-y,-z
x,1/2+y,1/2-z
-x,y,z
x,1/2-y,1/2+z
1/2+x,1/2+y,z
1/2-x,-y,1/2+z
1/2+x,1/2-y,-z
1/2-x,y,1/2-z
1/2-x,1/2-y,-z
1/2+x,y,1/2-z
1/2-x,1/2+y,z
1/2+x,-y,1/2+z
loop_
_atom_site_type_symbol
_atom_site_label
_atom_site_fract_x
_atom_site_fract_y
_atom_site_fract_z
Si Si1 0.744732 0.302815 0.070236
Si Si2 0.889458 0.053155 0.640030
Si Si3 0.386546 0.495279 0.845362
Si Si4 0.389424 0.828580 0.235474
Si Si5 0.715300 0.077017 0.502583
O O1 0.668291 0.306724 0.164982
O O2 0.845347 0.304057 0.130436
O O3 0.722849 0.358324 0.007649
O O4 0.750000 0.250000 0.000000
O O5 0.875136 0.107519 0.710493
O O6 0.818258 0.056853 0.543316
O O7 0.000000 0.051231 0.608827
O O8 0.868589 0.005866 0.722970
O O9 0.500000 0.487011 0.859245
O O10 0.355222 0.548543 0.912242
O O11 0.324517 0.447250 0.895141
O O12 0.500000 0.818464 0.249029
#
# Coordination Sequence:
#
# PCOD9476819 Si02
#       5
#    16  16  16  16  16
#     4  10  20  33  54  81 107 138 182 223 271 319
#     4   9  17  32  55  78 103 138 181 221 261 315
#     4  10  19  31  53  84 109 136 180 223 264 321
#     4   9  18  34  55  79 104 136 182 226 264 314
#     4  10  18  31  52  79 107 138 176 224 270 308
#
# _framework density 18.045135999999999
#
# number of rings (size 3 to 8) (size 9 to 14) (size 15 to 20)
#    0.000    2.400    2.000    1.800    0.000    1.600 
#    0.000    2.000   17.600    2.400    0.000    0.000 
#    0.000    0.000    0.000    0.000    0.000    0.000 
#
# Total GULP energy -222863.477064 kJ/mol
# GULP energy per Si atom -5571.586927 kJ/mol
# Density = 1.800406 g / cm^3
# Si number density = 18.045136 Si / 1000 Ang^3
#
#
#
# Elastic Constant Matrix: (Units=GPa)
#
#
# Indices 1 2 3 4 5 6 
#
# 1 109.1609 43.1460 45.9408 0.0000 0.0000 0.0000
# 2 43.1460 128.7583 55.8040 0.0000 0.0000 0.0000
# 3 45.9408 55.8040 53.8146 0.0000 0.0000 0.0000
# 4 0.0000 0.0000 0.0000 40.4438 0.0000 0.0000
# 5 0.0000 0.0000 0.0000 0.0000 22.5857 0.0000
# 6 0.0000 0.0000 0.0000 0.0000 0.0000 17.5194
#
#
#
# Elastic Compliance Matrix: (Units=1/GPa)
#
#
# Indices 1 2 3 4 5 6 
#
# 1 0.014356 0.000910 -0.013199 0.000000 0.000000 0.000000
# 2 0.000910 0.014164 -0.015464 0.000000 0.000000 0.000000
# 3 -0.013199 -0.015464 0.045886 0.000000 0.000000 0.000000
# 4 0.000000 0.000000 0.000000 0.024726 0.000000 0.000000
# 5 0.000000 0.000000 0.000000 0.000000 0.044276 0.000000
# 6 0.000000 0.000000 0.000000 0.000000 0.000000 0.057080
#
#
# Mechanical properties :
#
#
# Convention : Reuss Voigt Hill
#
# Bulk Modulus (GPa) = 52.91241 64.61283 58.76262
# Shear Modulus (GPa) = 19.06263 25.89931 22.48097
#
# Velocity S-wave (km/s) = 3.25374 3.79258 3.53345
# Velocity P-wave (km/s) = 6.59558 7.42039 7.02011
#
# Compressibility (1/GPa) = 0.01889916
#
# Stress axis : x y z
#
# Youngs Moduli (GPa) = 69.65701 70.60267 21.79311
#
# Poissons Ratio (x) = -0.06424 0.28765
# Poissons Ratio (y) = -0.06338 0.33701
# Poissons Ratio (z) = 0.91941 1.09181
#
# Static dielectric constant tensor:
#      x y z
#    x 1.642960 0.000000 0.000000 
#    y 0.000000 1.640420 0.000000 
#    z 0.000000 0.000000 1.676790 
# 
# From -- ./inp_files/14715.got.cif
#   From: 2010.05.17/outbox.cif.g08.bks.cpg/sg64_8_cif.got.tgz:14715.got - 2010.06.03 16:29:19.
