data_PCOD9476191
_publ_section_title
;
Structure prediction by ZEFSAII (Michael W. Deem and Ramdas Pophale) SiO2 
 PCOD9476191
Probable space group: C M C M
;
_chemical_formula_sum "Si O2"
_cell_formula_units_Z 32
_cell_length_a 21.000000
_cell_length_b 18.000000
_cell_length_c 9.000000
_cell_angle_alpha 90.000000
_cell_angle_beta 90.000000
_cell_angle_gamma 90.000000
_cell_volume 3402.000000
_symmetry_space_group_name_H-M "C M C M"
_symmetry_group_IT_number 63
_symmetry_cell_setting 'orthorhombic'
loop_
_space_group_symop_operation_xyz
x,y,z
-x,-y,1/2+z
x,-y,-z
-x,y,1/2-z
-x,-y,-z
x,y,1/2-z
-x,y,z
x,-y,1/2+z
1/2+x,1/2+y,z
1/2-x,1/2-y,1/2+z
1/2+x,1/2-y,-z
1/2-x,1/2+y,1/2-z
1/2-x,1/2-y,-z
1/2+x,1/2+y,1/2-z
1/2-x,1/2+y,z
1/2+x,1/2-y,1/2+z
loop_
_atom_site_type_symbol
_atom_site_label
_atom_site_fract_x
_atom_site_fract_y
_atom_site_fract_z
Si Si1 0.500000 0.079612 0.076352
Si Si2 0.886860 0.338096 0.078107
Si Si3 0.500000 0.580413 0.573545
Si Si4 0.245596 0.168341 0.572641
Si Si5 0.618452 0.658822 0.075687
O O1 0.500000 0.069291 0.250000
O O2 0.438396 0.125360 0.025645
O O3 0.500000 0.000000 0.000000
O O4 0.902953 0.354162 0.250000
O O5 0.815152 0.366161 0.048632
O O6 0.885973 0.248558 0.062731
O O7 0.500000 0.500000 0.500000
O O8 0.500000 0.575086 0.750000
O O9 0.438539 0.623645 0.514967
O O10 0.235756 0.174880 0.750000
O O11 0.250000 0.250000 0.500000
O O12 0.185358 0.132439 0.493086
O O13 0.614331 0.640631 0.250000
#
# Coordination Sequence:
#
# PCOD9476191 Si02
#       5
#     8  16   8  16  16
#     4  12  25  38  55  77 107 145 185 228 273 324
#     4   9  19  36  58  83 113 144 178 222 271 322
#     4  12  25  40  57  79 111 149 189 232 275 328
#     4   9  17  31  54  84 114 144 179 225 275 324
#     4  10  20  36  59  86 115 146 180 225 276 328
#
# _framework density 9.4062319999999993
#
# number of rings (size 3 to 8) (size 9 to 14) (size 15 to 20)
#    0.000    2.000    0.000    6.000    0.000    9.000 
#    0.000    1.250    0.000    6.000    0.000    0.000 
#    0.000    0.000    0.000    0.000    0.000    0.000 
#
# Total GULP energy -178578.063155 kJ/mol
# GULP energy per Si atom -5580.564474 kJ/mol
# Density = 0.938482 g / cm^3
# Si number density = 9.406232 Si / 1000 Ang^3
#
#
#
# Elastic Constant Matrix: (Units=GPa)
#
#
# Indices 1 2 3 4 5 6 
#
# 1 147.9540 36.5539 114.5837 0.0000 0.0000 0.0000
# 2 36.5539 21.0117 49.2338 0.0000 0.0000 0.0000
# 3 114.5837 49.2338 175.3425 0.0000 0.0000 0.0000
# 4 0.0000 0.0000 0.0000 27.7835 0.0000 0.0000
# 5 0.0000 0.0000 0.0000 0.0000 34.8619 0.0000
# 6 0.0000 0.0000 0.0000 0.0000 0.0000 -64.5837
#
#
#
# Elastic Compliance Matrix: (Units=1/GPa)
#
#
# Indices 1 2 3 4 5 6 
#
# 1 0.014203 -0.008656 -0.006851 0.000000 0.000000 0.000000
# 2 -0.008656 0.144405 -0.034890 0.000000 0.000000 0.000000
# 3 -0.006851 -0.034890 0.019977 0.000000 0.000000 0.000000
# 4 0.000000 0.000000 0.000000 0.035993 0.000000 0.000000
# 5 0.000000 0.000000 0.000000 0.000000 0.028685 0.000000
# 6 0.000000 0.000000 0.000000 0.000000 0.000000 -0.015484
#
#
# Mechanical properties :
#
#
# Convention : Reuss Voigt Hill
#
# Bulk Modulus (GPa) = 12.85507 82.78344 47.81926
# Shear Modulus (GPa) = 14.10419 9.20813 11.65616
#
# Velocity S-wave (km/s) = 2.74108 2.21480 2.49187
# Velocity P-wave (km/s) = 4.10684 7.11622 5.80976
#
# Compressibility (1/GPa) = 0.07779030
#
# Stress axis : x y z
#
# Youngs Moduli (GPa) = 70.40559 6.92496 50.05752
#
# Poissons Ratio (x) = 0.05994 0.34295
# Poissons Ratio (y) = 0.60944 1.74652
# Poissons Ratio (z) = 0.48236 0.24161
#
# Static dielectric constant tensor:
#      x y z
#    x 1.672340 0.000000 0.000000 
#    y 0.000000 1.608500 0.000000 
#    z 0.000000 0.000000 1.617860 
# 
# From -- ./inp_files/7507.got.cif
#   From: 2010.05.17/outbox.ucp.g08.bks.cvg/sg63_4_cif.got.tgz:7507.got - 2010.06.11 16:32:19.
