data_PCOD9476830
_publ_section_title
;
Structure prediction by ZEFSAII (Michael W. Deem and Ramdas Pophale) SiO2 
 PCOD9476830
Probable space group: C M C A
;
_chemical_formula_sum "Si O2"
_cell_formula_units_Z 112
_cell_length_a 17.974929
_cell_length_b 19.136848
_cell_length_c 19.538539
_cell_angle_alpha 90.000000
_cell_angle_beta 90.000000
_cell_angle_gamma 90.000000
_cell_volume 6720.934719
_symmetry_space_group_name_H-M "C M C A"
_symmetry_group_IT_number 64
_symmetry_cell_setting 'orthorhombic'
loop_
_space_group_symop_operation_xyz
x,y,z
-x,1/2-y,1/2+z
x,-y,-z
-x,1/2+y,1/2-z
-x,-y,-z
x,1/2+y,1/2-z
-x,y,z
x,1/2-y,1/2+z
1/2+x,1/2+y,z
1/2-x,-y,1/2+z
1/2+x,1/2-y,-z
1/2-x,y,1/2-z
1/2-x,1/2-y,-z
1/2+x,y,1/2-z
1/2-x,1/2+y,z
1/2+x,-y,1/2+z
loop_
_atom_site_type_symbol
_atom_site_label
_atom_site_fract_x
_atom_site_fract_y
_atom_site_fract_z
Si Si1 0.872338 0.472919 0.750587
Si Si2 0.759563 0.514356 0.138791
Si Si3 0.086102 0.130117 0.772540
Si Si4 0.842381 0.924714 0.968039
Si Si5 0.703529 0.862437 0.394649
Si Si6 0.081374 0.354763 0.656933
Si Si7 0.307390 0.731459 0.688120
O O1 0.836307 0.465550 0.825389
O O2 0.803919 0.476288 0.696529
O O3 0.911329 0.547908 0.745720
O O4 0.917163 0.407967 0.721062
O O5 0.733164 0.559288 0.074361
O O6 0.751446 0.433025 0.119498
O O7 0.133119 0.137709 0.842929
O O8 0.134488 0.173962 0.717676
O O9 0.000000 0.152637 0.777463
O O10 0.900821 0.897658 0.912273
O O11 0.826471 0.870774 0.028757
O O12 0.865127 0.000000 0.000000
O O13 0.757519 0.799719 0.373073
O O14 0.146026 0.298673 0.667136
O O15 0.000000 0.321763 0.652307
O O16 0.250000 0.747084 0.750000
#
# Coordination Sequence:
#
# PCOD9476830 Si02
#       7
#    16  16  16  16  16  16  16
#     4   9  16  28  51  74 100 132 170 209 257 304
#     4   8  14  28  50  76 100 125 168 219 248 290
#     4  10  18  31  53  78 104 133 168 215 266 309
#     4   9  19  32  53  78 103 132 170 213 262 303
#     4   9  17  33  51  77 101 134 176 209 248 311
#     4  11  23  34  49  79 113 137 166 214 268 314
#     4  10  21  35  53  75 103 139 180 218 252 301
#
# _framework density 16.664349000000001
#
# number of rings (size 3 to 8) (size 9 to 14) (size 15 to 20)
#    0.000    2.571    1.429    1.714    4.000    1.429 
#    0.000    0.000    0.000    0.000    0.000    4.000 
#    0.000    0.000    0.000    0.000    0.000    0.000 
#
# Total GULP energy -311867.559355 kJ/mol
# GULP energy per Si atom -5569.063560 kJ/mol
# Density = 1.662642 g / cm^3
# Si number density = 16.664349 Si / 1000 Ang^3
#
#
#
# Elastic Constant Matrix: (Units=GPa)
#
#
# Indices 1 2 3 4 5 6 
#
# 1 95.2639 27.8375 16.4232 0.0000 0.0000 0.0000
# 2 27.8375 47.3764 0.6052 0.0000 0.0000 0.0000
# 3 16.4232 0.6052 28.1615 0.0000 0.0000 0.0000
# 4 0.0000 0.0000 0.0000 19.2494 0.0000 0.0000
# 5 0.0000 0.0000 0.0000 0.0000 10.3593 0.0000
# 6 0.0000 0.0000 0.0000 0.0000 0.0000 3.2792
#
#
#
# Elastic Compliance Matrix: (Units=1/GPa)
#
#
# Indices 1 2 3 4 5 6 
#
# 1 0.014340 -0.008321 -0.008184 0.000000 0.000000 0.000000
# 2 -0.008321 0.025942 0.004295 0.000000 0.000000 0.000000
# 3 -0.008184 0.004295 0.040190 0.000000 0.000000 0.000000
# 4 0.000000 0.000000 0.000000 0.051950 0.000000 0.000000
# 5 0.000000 0.000000 0.000000 0.000000 0.096531 0.000000
# 6 0.000000 0.000000 0.000000 0.000000 0.000000 0.304952
#
#
# Mechanical properties :
#
#
# Convention : Reuss Voigt Hill
#
# Bulk Modulus (GPa) = 17.84053 28.94817 23.39435
# Shear Modulus (GPa) = 8.66539 14.97332 11.81936
#
# Velocity S-wave (km/s) = 2.28282 3.00079 2.66608
# Velocity P-wave (km/s) = 4.20445 5.42359 4.85246
#
# Compressibility (1/GPa) = 0.05605216
#
# Stress axis : x y z
#
# Youngs Moduli (GPa) = 69.73717 38.54746 24.88195
#
# Poissons Ratio (x) = 0.32076 0.20363
# Poissons Ratio (y) = 0.58029 -0.10687
# Poissons Ratio (z) = 0.57071 -0.16557
#
# Static dielectric constant tensor:
#      x y z
#    x 1.564360 0.000000 0.000000 
#    y 0.000000 1.575210 0.000000 
#    z 0.000000 0.000000 1.567380 
# 
# From -- ./inp_files/40412.got.cif
#   From: 2010.05.17/outbox.cif.g08.bks.cpg/sg64_21_cif.got.tgz:40412.got - 2010.06.03 16:29:19.
