data_PCOD9476507
_publ_section_title
;
Structure prediction by ZEFSAII (Michael W. Deem and Ramdas Pophale) SiO2 
 PCOD9476507
Probable space group: C M C A
;
_chemical_formula_sum "Si O2"
_cell_formula_units_Z 104
_cell_length_a 22.036561
_cell_length_b 27.445888
_cell_length_c 9.773043
_cell_angle_alpha 90.000000
_cell_angle_beta 90.000000
_cell_angle_gamma 90.000000
_cell_volume 5910.863310
_symmetry_space_group_name_H-M "C M C A"
_symmetry_group_IT_number 64
_symmetry_cell_setting 'orthorhombic'
loop_
_space_group_symop_operation_xyz
x,y,z
-x,1/2-y,1/2+z
x,-y,-z
-x,1/2+y,1/2-z
-x,-y,-z
x,1/2+y,1/2-z
-x,y,z
x,1/2-y,1/2+z
1/2+x,1/2+y,z
1/2-x,-y,1/2+z
1/2+x,1/2-y,-z
1/2-x,y,1/2-z
1/2-x,1/2-y,-z
1/2+x,y,1/2-z
1/2-x,1/2+y,z
1/2+x,-y,1/2+z
loop_
_atom_site_type_symbol
_atom_site_label
_atom_site_fract_x
_atom_site_fract_y
_atom_site_fract_z
Si Si1 0.292395 0.090049 0.498103
Si Si2 0.569119 0.461869 0.371720
Si Si3 0.328679 0.712662 0.388007
Si Si4 0.250000 0.467361 0.250000
Si Si5 0.648853 0.108203 0.035025
Si Si6 0.854606 0.033115 0.241026
Si Si7 0.316895 0.801817 0.572933
O O1 0.287164 0.066322 0.646690
O O2 0.221314 0.098872 0.463557
O O3 0.325515 0.052101 0.398343
O O4 0.323674 0.142573 0.477620
O O5 0.572262 0.500000 0.500000
O O6 0.500000 0.445540 0.357698
O O7 0.614172 0.418136 0.411582
O O8 0.591661 0.494062 0.243808
O O9 0.359613 0.665881 0.457877
O O10 0.342155 0.763386 0.463001
O O11 0.341102 0.708910 0.225819
O O12 0.255966 0.705874 0.410173
O O13 0.199998 0.503148 0.183816
O O14 0.627331 0.080414 0.171858
#
# Coordination Sequence:
#
# PCOD9476507 Si02
#       7
#    16  16  16   8  16  16  16
#     4  11  20  31  47  76 107 139 176 218 284 334
#     4   9  19  33  51  79 109 141 184 229 266 323
#     4   9  17  30  46  68  99 139 174 208 269 330
#     4  12  22  28  48  76 110 140 180 228 268 350
#     4  10  17  30  51  72 101 139 174 221 271 329
#     4  11  19  31  49  73 106 142 176 219 277 326
#     4   9  18  30  46  67 103 140 168 213 265 337
#
# _framework density 17.594722000000001
#
# number of rings (size 3 to 8) (size 9 to 14) (size 15 to 20)
#    0.000    2.000    4.615    0.462    0.000    3.692 
#    0.000    0.000    0.000    1.846    0.000    2.154 
#    0.000    0.000    0.000    0.000    0.000    0.000 
#
# Total GULP energy -289545.023527 kJ/mol
# GULP energy per Si atom -5568.173529 kJ/mol
# Density = 1.755468 g / cm^3
# Si number density = 17.594722 Si / 1000 Ang^3
#
#
#
# Elastic Constant Matrix: (Units=GPa)
#
#
# Indices 1 2 3 4 5 6 
#
# 1 39.0682 32.3095 21.7851 0.0000 0.0000 0.0000
# 2 32.3095 151.9499 72.0464 0.0000 0.0000 0.0000
# 3 21.7851 72.0464 77.3550 0.0000 0.0000 0.0000
# 4 0.0000 0.0000 0.0000 25.9524 0.0000 0.0000
# 5 0.0000 0.0000 0.0000 0.0000 11.9707 0.0000
# 6 0.0000 0.0000 0.0000 0.0000 0.0000 9.3508
#
#
#
# Elastic Compliance Matrix: (Units=1/GPa)
#
#
# Indices 1 2 3 4 5 6 
#
# 1 0.032020 -0.004536 -0.004793 0.000000 0.000000 0.000000
# 2 -0.004536 0.012428 -0.010298 0.000000 0.000000 0.000000
# 3 -0.004793 -0.010298 0.023869 0.000000 0.000000 0.000000
# 4 0.000000 0.000000 0.000000 0.038532 0.000000 0.000000
# 5 0.000000 0.000000 0.000000 0.000000 0.083537 0.000000
# 6 0.000000 0.000000 0.000000 0.000000 0.000000 0.106943
#
#
# Mechanical properties :
#
#
# Convention : Reuss Voigt Hill
#
# Bulk Modulus (GPa) = 34.40788 57.85057 46.12923
# Shear Modulus (GPa) = 14.43956 18.93692 16.68824
#
# Velocity S-wave (km/s) = 2.86785 3.28424 3.08308
# Velocity P-wave (km/s) = 5.52850 6.87986 6.24087
#
# Compressibility (1/GPa) = 0.02906311
#
# Stress axis : x y z
#
# Youngs Moduli (GPa) = 31.23036 80.46107 41.89614
#
# Poissons Ratio (x) = 0.36497 0.20081
# Poissons Ratio (y) = 0.14166 0.43145
# Poissons Ratio (z) = 0.14969 0.82859
#
# Static dielectric constant tensor:
#      x y z
#    x 1.611200 0.000000 0.000000 
#    y 0.000000 1.614950 0.000000 
#    z 0.000000 0.000000 1.655320 
# 
# From -- ./inp_files/9763.got.cif
#   From: 2010.05.17/outbox.cif.g08.bks.cpg/sg64_5_cif.got.tgz:9763.got - 2010.06.03 16:29:19.
