data_PCOD9476454
_publ_section_title
;
Structure prediction by ZEFSAII (Michael W. Deem and Ramdas Pophale) SiO2 
 PCOD9476454
Probable space group: C M C A
;
_chemical_formula_sum "Si O2"
_cell_formula_units_Z 80
_cell_length_a 34.249440
_cell_length_b 5.571693
_cell_length_c 18.306501
_cell_angle_alpha 90.000000
_cell_angle_beta 90.000000
_cell_angle_gamma 90.000000
_cell_volume 3493.381350
_symmetry_space_group_name_H-M "C M C A"
_symmetry_group_IT_number 64
_symmetry_cell_setting 'orthorhombic'
loop_
_space_group_symop_operation_xyz
x,y,z
-x,1/2-y,1/2+z
x,-y,-z
-x,1/2+y,1/2-z
-x,-y,-z
x,1/2+y,1/2-z
-x,y,z
x,1/2-y,1/2+z
1/2+x,1/2+y,z
1/2-x,-y,1/2+z
1/2+x,1/2-y,-z
1/2-x,y,1/2-z
1/2-x,1/2-y,-z
1/2+x,y,1/2-z
1/2-x,1/2+y,z
1/2+x,-y,1/2+z
loop_
_atom_site_type_symbol
_atom_site_label
_atom_site_fract_x
_atom_site_fract_y
_atom_site_fract_z
Si Si1 0.117169 0.126664 0.893817
Si Si2 0.265077 0.739335 0.583175
Si Si3 0.045859 0.306854 0.293934
Si Si4 0.326490 0.590834 0.753695
Si Si5 0.644100 0.871198 0.094183
O O1 0.074833 0.184693 0.862095
O O2 0.147578 0.096016 0.826193
O O3 0.132805 0.364776 0.933766
O O4 0.118529 0.859827 0.926835
O O5 0.250000 0.750000 0.500000
O O6 0.245128 0.500295 0.615846
O O7 0.310995 0.692289 0.579170
O O8 0.053184 0.556209 0.249397
O O9 0.000000 0.307224 0.313249
O O10 0.304154 0.341023 0.749386
O O11 0.355583 0.597694 0.683475
#
# Coordination Sequence:
#
# PCOD9476454 Si02
#       5
#    16  16  16  16  16
#     4  10  17  28  45  67  95 129 169 201 223 271
#     4  10  21  37  54  71  92 118 146 194 261 314
#     4  10  18  27  41  65  99 139 177 209 239 267
#     4   8  14  23  39  59  83 112 150 187 212 247
#     4  10  18  29  49  68  87 122 162 195 241 290
#
# _framework density 22.900447
#
# number of rings (size 3 to 8) (size 9 to 14) (size 15 to 20)
#    0.000    2.400    0.000    6.000    0.000    0.000 
#    0.000    0.000    0.000   32.400    0.000    0.000 
#    0.000    0.000    0.000   72.000    0.000    4.800 
#
# Total GULP energy -223340.779071 kJ/mol
# GULP energy per Si atom -5583.519477 kJ/mol
# Density = 2.284832 g / cm^3
# Si number density = 22.900447 Si / 1000 Ang^3
#
#
#
# Elastic Constant Matrix: (Units=GPa)
#
#
# Indices 1 2 3 4 5 6 
#
# 1 104.4262 34.5803 4.1379 0.0000 0.0000 0.0000
# 2 34.5803 259.4873 13.4781 0.0000 0.0000 0.0000
# 3 4.1379 13.4781 51.1511 0.0000 0.0000 0.0000
# 4 0.0000 0.0000 0.0000 37.1034 0.0000 0.0000
# 5 0.0000 0.0000 0.0000 0.0000 18.8614 0.0000
# 6 0.0000 0.0000 0.0000 0.0000 0.0000 29.9560
#
#
#
# Elastic Compliance Matrix: (Units=1/GPa)
#
#
# Indices 1 2 3 4 5 6 
#
# 1 0.010029 -0.001312 -0.000466 0.000000 0.000000 0.000000
# 2 -0.001312 0.004079 -0.000969 0.000000 0.000000 0.000000
# 3 -0.000466 -0.000969 0.019843 0.000000 0.000000 0.000000
# 4 0.000000 0.000000 0.000000 0.026952 0.000000 0.000000
# 5 0.000000 0.000000 0.000000 0.000000 0.053018 0.000000
# 6 0.000000 0.000000 0.000000 0.000000 0.000000 0.033382
#
#
# Mechanical properties :
#
#
# Convention : Reuss Voigt Hill
#
# Bulk Modulus (GPa) = 35.13958 57.71748 46.42853
# Shear Modulus (GPa) = 30.81052 41.37537 36.09294
#
# Velocity S-wave (km/s) = 3.67196 4.25520 3.97429
# Velocity P-wave (km/s) = 5.77543 7.02856 6.43258
#
# Compressibility (1/GPa) = 0.02845794
#
# Stress axis : x y z
#
# Youngs Moduli (GPa) = 99.70918 245.16091 50.39609
#
# Poissons Ratio (x) = 0.32174 0.02346
# Poissons Ratio (y) = 0.13085 0.04882
# Poissons Ratio (z) = 0.04642 0.23747
#
# Static dielectric constant tensor:
#      x y z
#    x 1.759030 0.000000 0.000000 
#    y 0.000000 1.989060 0.000000 
#    z 0.000000 0.000000 1.944480 
# 
# From -- ./inp_files/47037.got.cif
#   From: 2010.05.17/outbox.cif.g08.bks.cpg/sg64_24_cif.got.tgz:47037.got - 2010.06.03 16:29:19.
