data_PCOD9476707
_publ_section_title
;
Structure prediction by ZEFSAII (Michael W. Deem and Ramdas Pophale) SiO2 
 PCOD9476707
Probable space group: C M C A
;
_chemical_formula_sum "Si O2"
_cell_formula_units_Z 96
_cell_length_a 10.798645
_cell_length_b 14.200132
_cell_length_c 27.262726
_cell_angle_alpha 90.000000
_cell_angle_beta 90.000000
_cell_angle_gamma 90.000000
_cell_volume 4180.525958
_symmetry_space_group_name_H-M "C M C A"
_symmetry_group_IT_number 64
_symmetry_cell_setting 'orthorhombic'
loop_
_space_group_symop_operation_xyz
x,y,z
-x,1/2-y,1/2+z
x,-y,-z
-x,1/2+y,1/2-z
-x,-y,-z
x,1/2+y,1/2-z
-x,y,z
x,1/2-y,1/2+z
1/2+x,1/2+y,z
1/2-x,-y,1/2+z
1/2+x,1/2-y,-z
1/2-x,y,1/2-z
1/2-x,1/2-y,-z
1/2+x,y,1/2-z
1/2-x,1/2+y,z
1/2+x,-y,1/2+z
loop_
_atom_site_type_symbol
_atom_site_label
_atom_site_fract_x
_atom_site_fract_y
_atom_site_fract_z
Si Si1 0.724289 0.737519 0.366942
Si Si2 0.000000 0.484599 0.127562
Si Si3 0.773514 0.463633 0.639135
Si Si4 0.860437 0.116659 0.788099
Si Si5 0.000000 0.344495 0.927698
Si Si6 0.500000 0.171512 0.499131
Si Si7 0.760751 0.401597 0.447784
Si Si8 0.500000 0.658098 0.549711
O O1 0.807374 0.646109 0.355559
O O2 0.674472 0.789746 0.318927
O O3 0.616319 0.684218 0.395507
O O4 0.750514 0.820429 0.405860
O O5 0.128892 0.511097 0.153306
O O6 0.000000 0.379749 0.106544
O O7 0.000000 0.544029 0.076157
O O8 0.854894 0.530793 0.673211
O O9 0.782685 0.503280 0.583119
O O10 0.750000 0.102252 0.750000
O O11 0.000000 0.123962 0.767646
O O12 0.000000 0.271148 0.971430
O O13 0.376148 0.118914 0.516436
O O14 0.500000 0.226563 0.447874
O O15 0.627517 0.386757 0.472566
#
# Coordination Sequence:
#
# PCOD9476707 Si02
#       8
#    16   8  16  16   8   8  16   8
#     4   9  17  37  59  81 105 148 189 232 269 328
#     4   8  16  31  53  80 107 139 184 239 269 317
#     4   9  19  35  61  82 108 145 192 230 276 324
#     4  11  24  40  59  86 119 146 181 227 281 339
#     4   8  14  29  55  78  99 137 194 229 267 309
#     4  10  18  29  53  73 110 152 184 226 281 337
#     4   9  19  33  54  79 110 143 192 233 274 325
#     4  10  18  31  45  79 112 148 180 230 287 331
#
# _framework density 22.963616999999999
#
# number of rings (size 3 to 8) (size 9 to 14) (size 15 to 20)
#    0.000    2.667    0.833    0.500    4.667    1.000 
#    3.000    1.667    0.000    4.000    0.000    0.000 
#    0.000    0.000    0.000    0.000    0.000    0.000 
#
# Total GULP energy -267284.118524 kJ/mol
# GULP energy per Si atom -5568.419136 kJ/mol
# Density = 2.291135 g / cm^3
# Si number density = 22.963617 Si / 1000 Ang^3
#
#
#
# Elastic Constant Matrix: (Units=GPa)
#
#
# Indices 1 2 3 4 5 6 
#
# 1 126.0581 16.3522 28.4960 0.0000 0.0000 0.0000
# 2 16.3522 106.5869 23.3260 0.0000 0.0000 0.0000
# 3 28.4960 23.3260 35.6553 0.0000 0.0000 0.0000
# 4 0.0000 0.0000 0.0000 10.2562 0.0000 0.0000
# 5 0.0000 0.0000 0.0000 0.0000 23.7026 0.0000
# 6 0.0000 0.0000 0.0000 0.0000 0.0000 20.1354
#
#
#
# Elastic Compliance Matrix: (Units=1/GPa)
#
#
# Indices 1 2 3 4 5 6 
#
# 1 0.009687 0.000243 -0.007901 0.000000 0.000000 0.000000
# 2 0.000243 0.010956 -0.007361 0.000000 0.000000 0.000000
# 3 -0.007901 -0.007361 0.039177 0.000000 0.000000 0.000000
# 4 0.000000 0.000000 0.000000 0.097502 0.000000 0.000000
# 5 0.000000 0.000000 0.000000 0.000000 0.042189 0.000000
# 6 0.000000 0.000000 0.000000 0.000000 0.000000 0.049664
#
#
# Mechanical properties :
#
#
# Convention : Reuss Voigt Hill
#
# Bulk Modulus (GPa) = 33.57889 44.96096 39.26993
# Shear Modulus (GPa) = 17.29254 24.16058 20.72656
#
# Velocity S-wave (km/s) = 2.74714 3.24717 3.00756
# Velocity P-wave (km/s) = 4.97159 5.80349 5.40357
#
# Compressibility (1/GPa) = 0.02978061
#
# Stress axis : x y z
#
# Youngs Moduli (GPa) = 103.22647 91.27612 25.52524
#
# Poissons Ratio (x) = -0.02217 0.20168
# Poissons Ratio (y) = -0.02508 0.18790
# Poissons Ratio (z) = 0.81561 0.67193
#
# Static dielectric constant tensor:
#      x y z
#    x 1.895570 0.000000 0.000000 
#    y 0.000000 1.908490 0.000000 
#    z 0.000000 0.000000 2.186020 
# 
# From -- ./inp_files/52809.got.cif
#   From: 2010.05.17/outbox.cif.g08.bks.cpg/sg64_27_cif.got.tgz:52809.got - 2010.06.03 16:29:19.
