data_PCOD9476783
_publ_section_title
;
Structure prediction by ZEFSAII (Michael W. Deem and Ramdas Pophale) SiO2 
 PCOD9476783
Probable space group: C M C A
;
_chemical_formula_sum "Si O2"
_cell_formula_units_Z 56
_cell_length_a 21.856202
_cell_length_b 14.125973
_cell_length_c 7.408469
_cell_angle_alpha 90.000000
_cell_angle_beta 90.000000
_cell_angle_gamma 90.000000
_cell_volume 2287.291603
_symmetry_space_group_name_H-M "C M C A"
_symmetry_group_IT_number 64
_symmetry_cell_setting 'orthorhombic'
loop_
_space_group_symop_operation_xyz
x,y,z
-x,1/2-y,1/2+z
x,-y,-z
-x,1/2+y,1/2-z
-x,-y,-z
x,1/2+y,1/2-z
-x,y,z
x,1/2-y,1/2+z
1/2+x,1/2+y,z
1/2-x,-y,1/2+z
1/2+x,1/2-y,-z
1/2-x,y,1/2-z
1/2-x,1/2-y,-z
1/2+x,y,1/2-z
1/2-x,1/2+y,z
1/2+x,-y,1/2+z
loop_
_atom_site_type_symbol
_atom_site_label
_atom_site_fract_x
_atom_site_fract_y
_atom_site_fract_z
Si Si1 0.865141 0.846613 0.729052
Si Si2 0.500000 0.398631 0.167256
Si Si3 0.892246 0.000000 0.000000
Si Si4 0.206569 0.324495 0.104740
Si Si5 0.500000 0.199550 0.276791
O O1 0.828563 0.878839 0.552476
O O2 0.936809 0.833696 0.689327
O O3 0.856704 0.917164 0.898294
O O4 0.841284 0.742867 0.789467
O O5 0.561727 0.459079 0.154294
O O6 0.500000 0.312311 0.301396
O O7 0.500000 0.345858 0.974020
O O8 0.250000 0.624203 0.750000
O O9 0.250000 0.250000 0.000000
#
# Coordination Sequence:
#
# PCOD9476783 Si02
#       5
#    16   8   8  16   8
#     4  10  18  33  58  86 121 159 212 262 314 375
#     4   9  18  32  50  79 122 160 204 245 306 381
#     4   9  18  30  52  84 120 162 198 257 326 376
#     4   9  19  35  59  84 111 162 223 262 295 364
#     4  10  18  30  56  88 116 160 206 251 302 369
#
# _framework density 24.483103
#
# number of rings (size 3 to 8) (size 9 to 14) (size 15 to 20)
#    0.000    2.571    0.000    4.286    0.000    0.000 
#    0.000    0.000    0.000   84.000    0.000    0.000 
#    0.000    0.000    0.000    5.143    0.000   41.143 
#
# Total GULP energy -156497.902172 kJ/mol
# GULP energy per Si atom -5589.210792 kJ/mol
# Density = 2.442738 g / cm^3
# Si number density = 24.483103 Si / 1000 Ang^3
#
#
#
# Elastic Constant Matrix: (Units=GPa)
#
#
# Indices 1 2 3 4 5 6 
#
# 1 119.6019 9.4394 58.3395 0.0000 0.0000 0.0000
# 2 9.4394 74.7015 15.0443 0.0000 0.0000 0.0000
# 3 58.3395 15.0443 94.4504 0.0000 0.0000 0.0000
# 4 0.0000 0.0000 0.0000 32.7230 0.0000 0.0000
# 5 0.0000 0.0000 0.0000 0.0000 30.9079 0.0000
# 6 0.0000 0.0000 0.0000 0.0000 0.0000 13.2270
#
#
#
# Elastic Compliance Matrix: (Units=1/GPa)
#
#
# Indices 1 2 3 4 5 6 
#
# 1 0.011966 -0.000024 -0.007387 0.000000 0.000000 0.000000
# 2 -0.000024 0.013830 -0.002188 0.000000 0.000000 0.000000
# 3 -0.007387 -0.002188 0.015499 0.000000 0.000000 0.000000
# 4 0.000000 0.000000 0.000000 0.030560 0.000000 0.000000
# 5 0.000000 0.000000 0.000000 0.000000 0.032354 0.000000
# 6 0.000000 0.000000 0.000000 0.000000 0.000000 0.075603
#
#
# Mechanical properties :
#
#
# Convention : Reuss Voigt Hill
#
# Bulk Modulus (GPa) = 45.25612 50.48892 47.87252
# Shear Modulus (GPa) = 24.22747 29.10030 26.66388
#
# Velocity S-wave (km/s) = 3.14914 3.45133 3.30369
# Velocity P-wave (km/s) = 5.63449 6.04557 5.84365
#
# Compressibility (1/GPa) = 0.02209646
#
# Stress axis : x y z
#
# Youngs Moduli (GPa) = 83.56689 72.30492 64.51979
#
# Poissons Ratio (x) = 0.00176 0.47664
# Poissons Ratio (y) = 0.00203 0.14116
# Poissons Ratio (z) = 0.61735 0.15820
#
# Static dielectric constant tensor:
#      x y z
#    x 1.993970 0.000000 0.000000 
#    y 0.000000 2.045360 0.000000 
#    z 0.000000 0.000000 1.998310 
# 
# From -- ./inp_files/7646.got.cif
#   From: 2010.05.17/outbox.cif.g08.bks.cpg/sg64_4_cif.got.tgz:7646.got - 2010.06.03 16:29:19.
