data_PCOD9476938
_publ_section_title
;
Structure prediction by ZEFSAII (Michael W. Deem and Ramdas Pophale) SiO2 
 PCOD9476938
Probable space group: C M C A
;
_chemical_formula_sum "Si O2"
_cell_formula_units_Z 112
_cell_length_a 24.818527
_cell_length_b 15.336333
_cell_length_c 14.215215
_cell_angle_alpha 90.000000
_cell_angle_beta 90.000000
_cell_angle_gamma 90.000000
_cell_volume 5410.668976
_symmetry_space_group_name_H-M "C M C A"
_symmetry_group_IT_number 64
_symmetry_cell_setting 'orthorhombic'
loop_
_space_group_symop_operation_xyz
x,y,z
-x,1/2-y,1/2+z
x,-y,-z
-x,1/2+y,1/2-z
-x,-y,-z
x,1/2+y,1/2-z
-x,y,z
x,1/2-y,1/2+z
1/2+x,1/2+y,z
1/2-x,-y,1/2+z
1/2+x,1/2-y,-z
1/2-x,y,1/2-z
1/2-x,1/2-y,-z
1/2+x,y,1/2-z
1/2-x,1/2+y,z
1/2+x,-y,1/2+z
loop_
_atom_site_type_symbol
_atom_site_label
_atom_site_fract_x
_atom_site_fract_y
_atom_site_fract_z
Si Si1 0.939812 0.903953 0.452504
Si Si2 0.564854 0.096391 0.469555
Si Si3 0.808658 0.930244 0.634806
Si Si4 0.615954 0.345371 0.776827
Si Si5 0.177149 0.387981 0.077347
Si Si6 0.726317 0.770323 0.655590
Si Si7 0.061560 0.751193 0.105459
O O1 0.886004 0.885057 0.390601
O O2 0.939643 0.830335 0.533524
O O3 0.000000 0.898547 0.406552
O O4 0.936825 0.000000 0.500000
O O5 0.500000 0.098873 0.474881
O O6 0.580126 0.119189 0.362030
O O7 0.585599 0.168909 0.544335
O O8 0.583346 0.000000 0.500000
O O9 0.854588 0.917833 0.712562
O O10 0.831073 0.909277 0.531980
O O11 0.762194 0.857363 0.645075
O O12 0.793693 0.031369 0.628867
O O13 0.665661 0.298737 0.826195
O O14 0.589563 0.280389 0.700931
O O15 0.216784 0.305513 0.081004
O O16 0.750000 0.727335 0.750000
O O17 0.000000 0.773735 0.129408
#
# Coordination Sequence:
#
# PCOD9476938 Si02
#       7
#    16  16  16  16  16  16  16
#     4  10  18  32  59  96 126 158 208 271 337 402
#     4  10  23  43  64  94 137 182 225 276 343 418
#     4  10  22  39  61  91 124 163 220 272 328 399
#     4  11  21  39  64  91 130 167 219 277 335 396
#     4  11  19  40  65  88 126 174 209 274 344 383
#     4  10  24  39  58  90 124 167 220 278 321 398
#     4  10  20  37  62  91 126 172 221 267 330 405
#
# _framework density 20.699843999999999
#
# number of rings (size 3 to 8) (size 9 to 14) (size 15 to 20)
#    0.000    1.714    2.857    1.714    0.000    2.857 
#    2.571    2.857    0.000    5.143    0.000    0.000 
#    0.000    0.000    0.000    0.000    0.000    0.000 
#
# Total GULP energy -311835.050449 kJ/mol
# GULP energy per Si atom -5568.483044 kJ/mol
# Density = 2.065273 g / cm^3
# Si number density = 20.699844 Si / 1000 Ang^3
#
#
#
# Elastic Constant Matrix: (Units=GPa)
#
#
# Indices 1 2 3 4 5 6 
#
# 1 80.1343 49.9068 15.1157 0.0000 0.0000 0.0000
# 2 49.9068 118.8152 59.8873 0.0000 0.0000 0.0000
# 3 15.1157 59.8873 84.7701 0.0000 0.0000 0.0000
# 4 0.0000 0.0000 0.0000 29.2059 0.0000 0.0000
# 5 0.0000 0.0000 0.0000 0.0000 29.9082 0.0000
# 6 0.0000 0.0000 0.0000 0.0000 0.0000 -20.7061
#
#
#
# Elastic Compliance Matrix: (Units=1/GPa)
#
#
# Indices 1 2 3 4 5 6 
#
# 1 0.017444 -0.008944 0.003208 0.000000 0.000000 0.000000
# 2 -0.008944 0.017657 -0.010879 0.000000 0.000000 0.000000
# 3 0.003208 -0.010879 0.018910 0.000000 0.000000 0.000000
# 4 0.000000 0.000000 0.000000 0.034240 0.000000 0.000000
# 5 0.000000 0.000000 0.000000 0.000000 0.033436 0.000000
# 6 0.000000 0.000000 0.000000 0.000000 0.000000 -0.048295
#
#
# Mechanical properties :
#
#
# Convention : Reuss Voigt Hill
#
# Bulk Modulus (GPa) = 48.12049 59.28214 53.70131
# Shear Modulus (GPa) = 44.03378 18.26892 31.15135
#
# Velocity S-wave (km/s) = 4.61722 2.97402 3.88352
# Velocity P-wave (km/s) = 7.19181 6.36350 6.79030
#
# Compressibility (1/GPa) = 0.02078117
#
# Stress axis : x y z
#
# Youngs Moduli (GPa) = 57.32521 56.63511 52.88137
#
# Poissons Ratio (x) = 0.50657 -0.16966
# Poissons Ratio (y) = 0.51274 0.57530
# Poissons Ratio (z) = -0.18392 0.61614
#
# Static dielectric constant tensor:
#      x y z
#    x 1.838410 0.000000 0.000000 
#    y 0.000000 1.823300 0.000000 
#    z 0.000000 0.000000 1.782150 
# 
# From -- ./inp_files/27418.got.cif
#   From: 2010.05.17/outbox.cif.g08.bks.cpg/sg64_14_cif.got.tgz:27418.got - 2010.06.03 16:29:19.
