data_PCOD9476390
_publ_section_title
;
Structure prediction by ZEFSAII (Michael W. Deem and Ramdas Pophale) SiO2 
 PCOD9476390
Probable space group: C M C A
;
_chemical_formula_sum "Si O2"
_cell_formula_units_Z 92
_cell_length_a 26.529952
_cell_length_b 20.897892
_cell_length_c 7.110954
_cell_angle_alpha 90.000000
_cell_angle_beta 90.000000
_cell_angle_gamma 90.000000
_cell_volume 3942.455626
_symmetry_space_group_name_H-M "C M C A"
_symmetry_group_IT_number 64
_symmetry_cell_setting 'orthorhombic'
loop_
_space_group_symop_operation_xyz
x,y,z
-x,1/2-y,1/2+z
x,-y,-z
-x,1/2+y,1/2-z
-x,-y,-z
x,1/2+y,1/2-z
-x,y,z
x,1/2-y,1/2+z
1/2+x,1/2+y,z
1/2-x,-y,1/2+z
1/2+x,1/2-y,-z
1/2-x,y,1/2-z
1/2-x,1/2-y,-z
1/2+x,y,1/2-z
1/2-x,1/2+y,z
1/2+x,-y,1/2+z
loop_
_atom_site_type_symbol
_atom_site_label
_atom_site_fract_x
_atom_site_fract_y
_atom_site_fract_z
Si Si1 0.000000 0.500000 0.500000
Si Si2 0.152030 0.801944 0.119315
Si Si3 0.240830 0.386189 0.474648
Si Si4 0.651249 0.155919 0.052485
Si Si5 0.828176 0.500000 0.500000
Si Si6 0.585049 0.910378 0.407587
Si Si7 0.555937 0.923157 0.989183
O O1 0.955252 0.553558 0.464597
O O2 0.205008 0.823454 0.028789
O O3 0.150533 0.830081 0.328921
O O4 0.107897 0.843472 0.022184
O O5 0.145855 0.726683 0.135170
O O6 0.250000 0.401713 0.250000
O O7 0.293323 0.373011 0.576167
O O8 0.209374 0.444241 0.563199
O O9 0.605152 0.109116 0.100750
O O10 0.867223 0.541519 0.625139
O O11 0.557658 0.902500 0.208426
O O12 0.500000 0.906659 0.917586
O O13 0.559718 0.000000 0.000000
#
# Coordination Sequence:
#
# PCOD9476390 Si02
#       7
#     4  16  16  16   8  16  16
#     4  10  16  32  58  84 100 148 184 210 300 326
#     4   9  19  37  54  80 111 149 186 226 282 334
#     4   9  18  34  55  77 116 151 179 227 286 337
#     4  10  20  37  58  78 112 151 188 229 282 341
#     4   9  18  33  54  88 111 140 187 230 278 338
#     4   9  18  35  58  79 116 143 178 238 281 336
#     4  10  21  39  58  79 111 150 188 233 291 335
#
# _framework density 23.335712000000001
#
# number of rings (size 3 to 8) (size 9 to 14) (size 15 to 20)
#    0.000    2.609    0.870    1.565    1.217    0.000 
#   10.957    0.000    0.000    0.000    0.000    0.000 
#    0.000    0.000    0.000    0.000    0.000    0.000 
#
# Total GULP energy -256287.312610 kJ/mol
# GULP energy per Si atom -5571.463318 kJ/mol
# Density = 2.328260 g / cm^3
# Si number density = 23.335712 Si / 1000 Ang^3
#
#
#
# Elastic Constant Matrix: (Units=GPa)
#
#
# Indices 1 2 3 4 5 6 
#
# 1 237.0575 103.3392 18.7651 0.0000 0.0000 0.0000
# 2 103.3392 122.8990 14.2284 0.0000 0.0000 0.0000
# 3 18.7651 14.2284 54.6583 0.0000 0.0000 0.0000
# 4 0.0000 0.0000 0.0000 16.5406 0.0000 0.0000
# 5 0.0000 0.0000 0.0000 0.0000 5.5156 0.0000
# 6 0.0000 0.0000 0.0000 0.0000 0.0000 27.7814
#
#
#
# Elastic Compliance Matrix: (Units=1/GPa)
#
#
# Indices 1 2 3 4 5 6 
#
# 1 0.006698 -0.005533 -0.000859 0.000000 0.000000 0.000000
# 2 -0.005533 0.012960 -0.001474 0.000000 0.000000 0.000000
# 3 -0.000859 -0.001474 0.018974 0.000000 0.000000 0.000000
# 4 0.000000 0.000000 0.000000 0.060457 0.000000 0.000000
# 5 0.000000 0.000000 0.000000 0.000000 0.181304 0.000000
# 6 0.000000 0.000000 0.000000 0.000000 0.000000 0.035995
#
#
# Mechanical properties :
#
#
# Convention : Reuss Voigt Hill
#
# Bulk Modulus (GPa) = 43.66868 76.36445 60.01656
# Shear Modulus (GPa) = 14.71651 28.51965 21.61808
#
# Velocity S-wave (km/s) = 2.51399 3.49971 3.04698
# Velocity P-wave (km/s) = 5.21351 7.00899 6.17684
#
# Compressibility (1/GPa) = 0.02289971
#
# Stress axis : x y z
#
# Youngs Moduli (GPa) = 149.29250 77.16291 52.70304
#
# Poissons Ratio (x) = 0.42692 0.04529
# Poissons Ratio (y) = 0.82599 0.07769
# Poissons Ratio (z) = 0.12830 0.11375
#
# Static dielectric constant tensor:
#      x y z
#    x 1.881020 0.000000 0.000000 
#    y 0.000000 1.884510 0.000000 
#    z 0.000000 0.000000 2.002940 
# 
# From -- ./inp_files/10398.got.cif
#   From: 2010.05.17/outbox.cif.g08.bks.cpg/sg64_6_cif.got.tgz:10398.got - 2010.06.03 16:29:19.
