data_PCOD9476518
_publ_section_title
;
Structure prediction by ZEFSAII (Michael W. Deem and Ramdas Pophale) SiO2 
 PCOD9476518
Probable space group: C M C A
;
_chemical_formula_sum "Si O2"
_cell_formula_units_Z 112
_cell_length_a 26.932572
_cell_length_b 12.983377
_cell_length_c 15.512026
_cell_angle_alpha 90.000000
_cell_angle_beta 90.000000
_cell_angle_gamma 90.000000
_cell_volume 5424.179106
_symmetry_space_group_name_H-M "C M C A"
_symmetry_group_IT_number 64
_symmetry_cell_setting 'orthorhombic'
loop_
_space_group_symop_operation_xyz
x,y,z
-x,1/2-y,1/2+z
x,-y,-z
-x,1/2+y,1/2-z
-x,-y,-z
x,1/2+y,1/2-z
-x,y,z
x,1/2-y,1/2+z
1/2+x,1/2+y,z
1/2-x,-y,1/2+z
1/2+x,1/2-y,-z
1/2-x,y,1/2-z
1/2-x,1/2-y,-z
1/2+x,y,1/2-z
1/2-x,1/2+y,z
1/2+x,-y,1/2+z
loop_
_atom_site_type_symbol
_atom_site_label
_atom_site_fract_x
_atom_site_fract_y
_atom_site_fract_z
Si Si1 0.736841 0.861460 0.160118
Si Si2 0.894069 0.399381 0.678912
Si Si3 0.603009 0.743551 0.018352
Si Si4 0.500000 0.837691 0.468634
Si Si5 0.500000 0.967089 0.649283
Si Si6 0.164824 0.568147 0.575560
Si Si7 0.313043 0.878595 0.992456
Si Si8 0.199055 0.582598 0.197764
O O1 0.750000 0.805728 0.250000
O O2 0.790456 0.905041 0.136055
O O3 0.700316 0.958582 0.179964
O O4 0.714975 0.818445 0.070203
O O5 0.896746 0.299817 0.616251
O O6 0.875142 0.494571 0.620061
O O7 0.851211 0.388074 0.750784
O O8 0.950406 0.432813 0.700061
O O9 0.549307 0.729966 0.976607
O O10 0.638556 0.665905 0.965346
O O11 0.629344 0.852329 0.007997
O O12 0.500000 0.905426 0.557419
O O13 0.500000 0.914956 0.386443
O O14 0.187876 0.500000 0.500000
O O15 0.298924 0.857479 0.893264
O O16 0.303546 0.000000 0.000000
O O17 0.250000 0.596542 0.250000
#
# Coordination Sequence:
#
# PCOD9476518 Si02
#       8
#    16  16  16   8   8  16  16  16
#     4  10  19  35  58  82 115 157 193 233 291 350
#     4  10  18  33  58  90 120 144 188 242 309 351
#     4  10  21  35  57  87 115 151 195 250 295 353
#     4   9  16  32  58  87 115 143 189 241 309 347
#     4   9  16  30  57  91 116 147 178 247 304 354
#     4  10  17  30  56  86 118 145 178 233 299 357
#     4  10  23  41  56  78 117 160 203 237 287 349
#     4  10  19  36  59  82 118 163 192 234 290 353
#
# _framework density 20.648284
#
# number of rings (size 3 to 8) (size 9 to 14) (size 15 to 20)
#    0.000    2.143    4.286    1.286    2.000    0.571 
#    2.571    1.071    0.000    2.571    0.000    0.000 
#    0.000    0.000    0.000    0.000    0.000    0.000 
#
# Total GULP energy -312136.943305 kJ/mol
# GULP energy per Si atom -5573.873988 kJ/mol
# Density = 2.060129 g / cm^3
# Si number density = 20.648284 Si / 1000 Ang^3
#
#
#
# Elastic Constant Matrix: (Units=GPa)
#
#
# Indices 1 2 3 4 5 6 
#
# 1 149.5629 14.2694 55.3343 0.0000 0.0000 0.0000
# 2 14.2694 22.8701 9.8185 0.0000 0.0000 0.0000
# 3 55.3343 9.8185 134.8027 0.0000 0.0000 0.0000
# 4 0.0000 0.0000 0.0000 9.1103 0.0000 0.0000
# 5 0.0000 0.0000 0.0000 0.0000 23.8114 0.0000
# 6 0.0000 0.0000 0.0000 0.0000 0.0000 -9.0990
#
#
#
# Elastic Compliance Matrix: (Units=1/GPa)
#
#
# Indices 1 2 3 4 5 6 
#
# 1 0.008189 -0.003785 -0.003086 0.000000 0.000000 0.000000
# 2 -0.003785 0.046886 -0.001861 0.000000 0.000000 0.000000
# 3 -0.003086 -0.001861 0.008820 0.000000 0.000000 0.000000
# 4 0.000000 0.000000 0.000000 0.109766 0.000000 0.000000
# 5 0.000000 0.000000 0.000000 0.000000 0.041997 0.000000
# 6 0.000000 0.000000 0.000000 0.000000 0.000000 -0.109902
#
#
# Mechanical properties :
#
#
# Convention : Reuss Voigt Hill
#
# Bulk Modulus (GPa) = 21.53707 51.78669 36.66188
# Shear Modulus (GPa) = 36.04984 19.95209 28.00097
#
# Velocity S-wave (km/s) = 4.18293 3.11188 3.68651
# Velocity P-wave (km/s) = 5.81225 6.16819 5.99287
#
# Compressibility (1/GPa) = 0.04643157
#
# Stress axis : x y z
#
# Youngs Moduli (GPa) = 122.11703 21.32842 113.37257
#
# Poissons Ratio (x) = 0.08072 0.34984
# Poissons Ratio (y) = 0.46216 0.21104
# Poissons Ratio (z) = 0.37682 0.03970
#
# Static dielectric constant tensor:
#      x y z
#    x 1.732730 0.000000 0.000000 
#    y 0.000000 1.781220 0.000000 
#    z 0.000000 0.000000 1.808770 
# 
# From -- ./inp_files/28128.got.cif
#   From: 2010.05.17/outbox.cif.g08.bks.cpg/sg64_15_cif.got.tgz:28128.got - 2010.06.03 16:29:19.
