data_PCOD9476589
_publ_section_title
;
Structure prediction by ZEFSAII (Michael W. Deem and Ramdas Pophale) SiO2 
 PCOD9476589
Probable space group: C M C A
;
_chemical_formula_sum "Si O2"
_cell_formula_units_Z 104
_cell_length_a 17.516220
_cell_length_b 9.314942
_cell_length_c 24.361967
_cell_angle_alpha 90.000000
_cell_angle_beta 90.000000
_cell_angle_gamma 90.000000
_cell_volume 3974.961228
_symmetry_space_group_name_H-M "C M C A"
_symmetry_group_IT_number 64
_symmetry_cell_setting 'orthorhombic'
loop_
_space_group_symop_operation_xyz
x,y,z
-x,1/2-y,1/2+z
x,-y,-z
-x,1/2+y,1/2-z
-x,-y,-z
x,1/2+y,1/2-z
-x,y,z
x,1/2-y,1/2+z
1/2+x,1/2+y,z
1/2-x,-y,1/2+z
1/2+x,1/2-y,-z
1/2-x,y,1/2-z
1/2-x,1/2-y,-z
1/2+x,y,1/2-z
1/2-x,1/2+y,z
1/2+x,-y,1/2+z
loop_
_atom_site_type_symbol
_atom_site_label
_atom_site_fract_x
_atom_site_fract_y
_atom_site_fract_z
Si Si1 0.500000 0.728045 0.218499
Si Si2 0.232384 0.959586 0.304781
Si Si3 0.702656 0.841843 0.078421
Si Si4 0.623471 0.613882 0.954000
Si Si5 0.126734 0.100203 0.134906
Si Si6 0.418535 0.084081 0.070783
Si Si7 0.085338 0.645796 0.199819
O O1 0.566519 0.683398 0.172415
O O2 0.430048 0.783863 0.263294
O O3 0.250000 0.874169 0.250000
O O4 0.302476 0.051944 0.327751
O O5 0.161302 0.060557 0.289463
O O6 0.213735 0.863549 0.356419
O O7 0.784921 0.854140 0.050577
O O8 0.659703 0.690941 0.082409
O O9 0.649099 0.973408 0.061453
O O10 0.598308 0.544421 0.895701
O O11 0.588692 0.770505 0.962776
O O12 0.603479 0.500000 0.000000
O O13 0.500000 0.011012 0.062717
O O14 0.417601 0.137276 0.134517
O O15 0.000000 0.584064 0.223435
#
# Coordination Sequence:
#
# PCOD9476589 Si02
#       7
#     8  16  16  16  16  16  16
#     4  10  20  38  59  96 138 182 221 270 330 402
#     4  10  17  35  57  89 132 175 223 272 329 398
#     4  10  23  40  65  98 131 170 224 284 345 408
#     4  11  25  47  75  95 128 179 238 290 346 404
#     4  11  24  40  64 101 135 173 231 291 329 407
#     4  10  22  43  66  98 137 176 223 278 344 417
#     4   8  16  34  58  87 130 180 216 259 328 403
#
# _framework density 26.163778000000001
#
# number of rings (size 3 to 8) (size 9 to 14) (size 15 to 20)
#    0.462    1.538    1.538    2.769    2.154    3.385 
#    5.538    3.077    0.000    1.385    0.000    0.000 
#    0.000    0.000    0.000    0.000    0.000    0.000 
#
# Total GULP energy -289649.485033 kJ/mol
# GULP energy per Si atom -5570.182404 kJ/mol
# Density = 2.610423 g / cm^3
# Si number density = 26.163778 Si / 1000 Ang^3
#
#
#
# Elastic Constant Matrix: (Units=GPa)
#
#
# Indices 1 2 3 4 5 6 
#
# 1 112.3518 1.6487 8.1426 0.0000 0.0000 0.0000
# 2 1.6487 40.4266 15.8896 0.0000 0.0000 0.0000
# 3 8.1426 15.8896 118.5167 0.0000 0.0000 0.0000
# 4 0.0000 0.0000 0.0000 12.4520 0.0000 0.0000
# 5 0.0000 0.0000 0.0000 0.0000 -47.7424 0.0000
# 6 0.0000 0.0000 0.0000 0.0000 0.0000 -13.9375
#
#
#
# Elastic Compliance Matrix: (Units=1/GPa)
#
#
# Indices 1 2 3 4 5 6 
#
# 1 0.008946 -0.000130 -0.000597 0.000000 0.000000 0.000000
# 2 -0.000130 0.026114 -0.003492 0.000000 0.000000 0.000000
# 3 -0.000597 -0.003492 0.008947 0.000000 0.000000 0.000000
# 4 0.000000 0.000000 0.000000 0.080309 0.000000 0.000000
# 5 0.000000 0.000000 0.000000 0.000000 -0.020946 0.000000
# 6 0.000000 0.000000 0.000000 0.000000 0.000000 -0.071749
#
#
# Mechanical properties :
#
#
# Convention : Reuss Voigt Hill
#
# Bulk Modulus (GPa) = 28.11533 35.85077 31.98305
# Shear Modulus (GPa) = 96.31019 6.52869 51.41944
#
# Velocity S-wave (km/s) = 6.07375 1.58137 4.43797
# Velocity P-wave (km/s) = 7.74315 4.13116 6.20576
#
# Compressibility (1/GPa) = 0.03556779
#
# Stress axis : x y z
#
# Youngs Moduli (GPa) = 111.78427 38.29347 111.77104
#
# Poissons Ratio (x) = 0.00498 0.06675
# Poissons Ratio (y) = 0.01455 0.39033
# Poissons Ratio (z) = 0.06675 0.13373
#
# Static dielectric constant tensor:
#      x y z
#    x 2.117210 0.000000 0.000000 
#    y 0.000000 2.206110 0.000000 
#    z 0.000000 0.000000 2.102110 
# 
# From -- ./inp_files/53770.got.cif
#   From: 2010.05.17/outbox.cif.g08.bks.cpg/sg64_27_cif.got.tgz:53770.got - 2010.06.03 16:29:19.
