data_PCOD9476116
_publ_section_title
;
Structure prediction by ZEFSAII (Michael W. Deem and Ramdas Pophale) SiO2 
 PCOD9476116
Probable space group: C M C M
;
_chemical_formula_sum "Si O2"
_cell_formula_units_Z 40
_cell_length_a 12.000000
_cell_length_b 21.000000
_cell_length_c 18.000000
_cell_angle_alpha 90.000000
_cell_angle_beta 90.000000
_cell_angle_gamma 90.000000
_cell_volume 4536.000000
_symmetry_space_group_name_H-M "C M C M"
_symmetry_group_IT_number 63
_symmetry_cell_setting 'orthorhombic'
loop_
_space_group_symop_operation_xyz
x,y,z
-x,-y,1/2+z
x,-y,-z
-x,y,1/2-z
-x,-y,-z
x,y,1/2-z
-x,y,z
x,-y,1/2+z
1/2+x,1/2+y,z
1/2-x,1/2-y,1/2+z
1/2+x,1/2-y,-z
1/2-x,1/2+y,1/2-z
1/2-x,1/2-y,-z
1/2+x,1/2+y,1/2-z
1/2-x,1/2+y,z
1/2+x,1/2-y,1/2+z
loop_
_atom_site_type_symbol
_atom_site_label
_atom_site_fract_x
_atom_site_fract_y
_atom_site_fract_z
Si Si1 0.292980 0.834149 0.062400
Si Si2 0.500000 0.875833 0.337398
Si Si3 0.000000 0.472450 0.663097
Si Si4 0.128317 0.073416 0.476080
Si Si5 0.369009 0.777568 0.594855
Si Si6 0.277880 0.096961 0.337603
O O1 0.389408 0.853046 0.119612
O O2 0.207486 0.784468 0.098920
O O3 0.214725 0.889798 0.029412
O O4 0.351384 0.803238 0.989592
O O5 0.500000 0.857802 0.250000
O O6 0.500000 0.952281 0.342073
O O7 0.115442 0.443984 0.633593
O O8 0.000000 0.453471 0.750000
O O9 0.175177 0.082629 0.392365
O O10 0.000000 0.097171 0.481736
O O11 0.128691 0.000000 0.500000
O O12 0.500000 0.767578 0.608557
O O13 0.318584 0.830970 0.649133
O O14 0.256689 0.084575 0.250000
#
# Coordination Sequence:
#
# PCOD9476116 Si02
#       6
#    16   8   8  16  16  16
#     4  10  21  36  56  81 115 150 191 235 285 344
#     4  11  22  37  57  85 116 147 185 240 298 343
#     4   9  18  33  55  81 113 143 179 232 292 345
#     4  10  21  37  58  84 114 154 201 240 283 350
#     4  10  19  35  57  79 110 153 193 229 282 346
#     4  10  20  35  57  87 116 148 192 246 300 341
#
# _framework density 8.8183419999999995
#
# number of rings (size 3 to 8) (size 9 to 14) (size 15 to 20)
#    0.000    2.000    2.000    1.800    0.000    1.200 
#    1.800    3.000    0.000    3.000    0.000    0.000 
#    0.000    0.000    0.000    0.000    0.000    0.000 
#
# Total GULP energy -223110.949504 kJ/mol
# GULP energy per Si atom -5577.773738 kJ/mol
# Density = 0.879827 g / cm^3
# Si number density = 8.818342 Si / 1000 Ang^3
#
#
#
# Elastic Constant Matrix: (Units=GPa)
#
#
# Indices 1 2 3 4 5 6 
#
# 1 150.8011 47.1757 57.9161 0.0000 0.0000 0.0000
# 2 47.1757 60.5513 29.1755 0.0000 0.0000 0.0000
# 3 57.9161 29.1755 91.5324 0.0000 0.0000 0.0000
# 4 0.0000 0.0000 0.0000 22.3945 0.0000 0.0000
# 5 0.0000 0.0000 0.0000 0.0000 16.3655 0.0000
# 6 0.0000 0.0000 0.0000 0.0000 0.0000 21.5814
#
#
#
# Elastic Compliance Matrix: (Units=1/GPa)
#
#
# Indices 1 2 3 4 5 6 
#
# 1 0.010197 -0.005713 -0.004631 0.000000 0.000000 0.000000
# 2 -0.005713 0.022713 -0.003625 0.000000 0.000000 0.000000
# 3 -0.004631 -0.003625 0.015011 0.000000 0.000000 0.000000
# 4 0.000000 0.000000 0.000000 0.044654 0.000000 0.000000
# 5 0.000000 0.000000 0.000000 0.000000 0.061104 0.000000
# 6 0.000000 0.000000 0.000000 0.000000 0.000000 0.046336
#
#
# Mechanical properties :
#
#
# Convention : Reuss Voigt Hill
#
# Bulk Modulus (GPa) = 50.04334 63.49106 56.76720
# Shear Modulus (GPa) = 21.31171 23.30946 22.31059
#
# Velocity S-wave (km/s) = 3.47994 3.63939 3.56056
# Velocity P-wave (km/s) = 6.67704 7.33061 7.01144
#
# Compressibility (1/GPa) = 0.01998268
#
# Stress axis : x y z
#
# Youngs Moduli (GPa) = 98.06682 44.02855 66.61939
#
# Poissons Ratio (x) = 0.25155 0.30852
# Poissons Ratio (y) = 0.56028 0.24146
# Poissons Ratio (z) = 0.45415 0.15958
#
# Static dielectric constant tensor:
#      x y z
#    x 1.592020 0.000000 0.000000 
#    y 0.000000 1.615000 0.000000 
#    z 0.000000 0.000000 1.588740 
# 
# From -- ./inp_files/42177.got.cif
#   From: 2010.05.17/outbox.ucp.g08.bks.cvg/sg63_22_cif.got.tgz:42177.got - 2010.06.11 16:32:19.
