data_PCOD9476452
_publ_section_title
;
Structure prediction by ZEFSAII (Michael W. Deem and Ramdas Pophale) SiO2 
 PCOD9476452
Probable space group: C M C A
;
_chemical_formula_sum "Si O2"
_cell_formula_units_Z 80
_cell_length_a 10.168211
_cell_length_b 23.394825
_cell_length_c 15.270057
_cell_angle_alpha 90.000000
_cell_angle_beta 90.000000
_cell_angle_gamma 90.000000
_cell_volume 3632.494863
_symmetry_space_group_name_H-M "C M C A"
_symmetry_group_IT_number 64
_symmetry_cell_setting 'orthorhombic'
loop_
_space_group_symop_operation_xyz
x,y,z
-x,1/2-y,1/2+z
x,-y,-z
-x,1/2+y,1/2-z
-x,-y,-z
x,1/2+y,1/2-z
-x,y,z
x,1/2-y,1/2+z
1/2+x,1/2+y,z
1/2-x,-y,1/2+z
1/2+x,1/2-y,-z
1/2-x,y,1/2-z
1/2-x,1/2-y,-z
1/2+x,y,1/2-z
1/2-x,1/2+y,z
1/2+x,-y,1/2+z
loop_
_atom_site_type_symbol
_atom_site_label
_atom_site_fract_x
_atom_site_fract_y
_atom_site_fract_z
Si Si1 0.302170 0.468254 0.912361
Si Si2 0.000000 0.029432 0.788390
Si Si3 0.500000 0.625457 0.059871
Si Si4 0.000000 0.762628 0.411415
Si Si5 0.720981 0.762507 0.394959
Si Si6 0.500000 0.144297 0.633689
Si Si7 0.000000 0.452981 0.880949
Si Si8 0.500000 0.820165 0.894684
O O1 0.368175 0.506392 0.836707
O O2 0.371662 0.406185 0.902577
O O3 0.145548 0.462417 0.920127
O O4 0.346052 0.500000 0.000000
O O5 0.000000 0.097948 0.790193
O O6 0.000000 0.997896 0.697119
O O7 0.500000 0.694133 0.066920
O O8 0.500000 0.610470 0.957545
O O9 0.133832 0.772349 0.359141
O O10 0.000000 0.802621 0.499920
O O11 0.750000 0.750000 0.500000
O O12 0.628351 0.816095 0.375423
O O13 0.633449 0.709925 0.362352
O O14 0.000000 0.385031 0.866893
#
# Coordination Sequence:
#
# PCOD9476452 Si02
#       8
#    16   8   8   8  16   8   8   8
#     4  11  23  39  63  91 119 166 229 281 319 382
#     4  11  24  44  60  83 129 188 221 250 329 415
#     4  11  17  34  62  91 130 164 208 263 324 402
#     4  10  17  27  52  95 137 147 193 265 341 378
#     4   9  16  28  51  92 130 159 199 259 330 390
#     4  11  18  33  58  84 130 177 210 247 320 403
#     4  12  25  38  59  93 133 167 219 285 331 362
#     4   9  18  29  49  82 125 163 195 240 320 386
#
# _framework density 22.023432
#
# number of rings (size 3 to 8) (size 9 to 14) (size 15 to 20)
#    0.000    1.600    6.000    2.700    2.800    0.000 
#    0.000    1.000    0.000    0.000    0.000   72.800 
#    0.000    0.000    0.000    0.000    0.000    0.000 
#
# Total GULP energy -222895.993564 kJ/mol
# GULP energy per Si atom -5572.399839 kJ/mol
# Density = 2.197331 g / cm^3
# Si number density = 22.023432 Si / 1000 Ang^3
#
#
#
# Elastic Constant Matrix: (Units=GPa)
#
#
# Indices 1 2 3 4 5 6 
#
# 1 214.0645 50.9809 2.5608 0.0000 0.0000 0.0000
# 2 50.9809 151.4415 24.8104 0.0000 0.0000 0.0000
# 3 2.5608 24.8104 10.9499 0.0000 0.0000 0.0000
# 4 0.0000 0.0000 0.0000 23.9115 0.0000 0.0000
# 5 0.0000 0.0000 0.0000 0.0000 11.1903 0.0000
# 6 0.0000 0.0000 0.0000 0.0000 0.0000 12.0664
#
#
#
# Elastic Compliance Matrix: (Units=1/GPa)
#
#
# Indices 1 2 3 4 5 6 
#
# 1 0.005207 -0.002471 0.004380 0.000000 0.000000 0.000000
# 2 -0.002471 0.011674 -0.025872 0.000000 0.000000 0.000000
# 3 0.004380 -0.025872 0.148923 0.000000 0.000000 0.000000
# 4 0.000000 0.000000 0.000000 0.041821 0.000000 0.000000
# 5 0.000000 0.000000 0.000000 0.000000 0.089364 0.000000
# 6 0.000000 0.000000 0.000000 0.000000 0.000000 0.082875
#
#
# Mechanical properties :
#
#
# Convention : Reuss Voigt Hill
#
# Bulk Modulus (GPa) = 8.48331 59.24001 33.86166
# Shear Modulus (GPa) = 10.70476 29.30723 20.00600
#
# Velocity S-wave (km/s) = 2.20707 3.65187 3.01723
# Velocity P-wave (km/s) = 3.21795 6.68869 5.24851
#
# Compressibility (1/GPa) = 0.11787851
#
# Stress axis : x y z
#
# Youngs Moduli (GPa) = 192.03122 85.66376 6.71487
#
# Poissons Ratio (x) = 0.21164 -0.02941
# Poissons Ratio (y) = 0.47444 0.17373
# Poissons Ratio (z) = -0.84112 2.21633
#
# Static dielectric constant tensor:
#      x y z
#    x 1.866670 0.000000 0.000000 
#    y 0.000000 1.837930 0.000000 
#    z 0.000000 0.000000 1.863760 
# 
# From -- ./inp_files/30904.got.cif
#   From: 2010.05.17/outbox.cif.g08.bks.cpg/sg64_16_cif.got.tgz:30904.got - 2010.06.03 16:29:19.
