data_PCOD9476123
_publ_section_title
;
Structure prediction by ZEFSAII (Michael W. Deem and Ramdas Pophale) SiO2 
 PCOD9476123
Probable space group: C M C M
;
_chemical_formula_sum "Si O2"
_cell_formula_units_Z 36
_cell_length_a 18.000000
_cell_length_b 24.000000
_cell_length_c 9.000000
_cell_angle_alpha 90.000000
_cell_angle_beta 90.000000
_cell_angle_gamma 90.000000
_cell_volume 3888.000000
_symmetry_space_group_name_H-M "C M C M"
_symmetry_group_IT_number 63
_symmetry_cell_setting 'orthorhombic'
loop_
_space_group_symop_operation_xyz
x,y,z
-x,-y,1/2+z
x,-y,-z
-x,y,1/2-z
-x,-y,-z
x,y,1/2-z
-x,y,z
x,-y,1/2+z
1/2+x,1/2+y,z
1/2-x,1/2-y,1/2+z
1/2+x,1/2-y,-z
1/2-x,1/2+y,1/2-z
1/2-x,1/2-y,-z
1/2+x,1/2+y,1/2-z
1/2-x,1/2+y,z
1/2+x,1/2-y,1/2+z
loop_
_atom_site_type_symbol
_atom_site_label
_atom_site_fract_x
_atom_site_fract_y
_atom_site_fract_z
Si Si1 0.916004 0.060628 0.572890
Si Si2 0.584683 0.733139 0.571431
Si Si3 0.000000 0.561005 0.068853
Si Si4 0.695413 0.353183 0.929196
Si Si5 0.867283 0.358471 0.571173
O O1 0.903762 0.058029 0.750000
O O2 0.853589 0.096663 0.493575
O O3 0.000000 0.083513 0.550302
O O4 0.914913 0.000000 0.500000
O O5 0.590510 0.723979 0.750000
O O6 0.500000 0.717749 0.527499
O O7 0.650575 0.699973 0.491528
O O8 0.597135 0.798295 0.541061
O O9 0.925570 0.594572 0.020661
O O10 0.000000 0.558753 0.250000
O O11 0.000000 0.500000 0.000000
O O12 0.694275 0.352412 0.750000
O O13 0.781376 0.358529 0.980112
O O14 0.863558 0.363932 0.750000
#
# Coordination Sequence:
#
# PCOD9476123 Si02
#       5
#    16  16   8  16  16
#     4  10  21  38  58  79 107 146 188 228 273 331
#     4  10  19  35  59  82 108 150 195 231 276 337
#     4  10  20  40  64  84 108 146 193 238 283 340
#     4  11  22  34  53  85 118 147 182 230 285 339
#     4   9  19  37  59  80 108 148 190 231 280 338
#
# _framework density 9.2592590000000001
#
# number of rings (size 3 to 8) (size 9 to 14) (size 15 to 20)
#    0.000    2.000    1.111    2.667    0.000    5.333 
#    0.000    6.667    0.000    0.000    0.000    0.000 
#    0.000    0.000    0.000    0.000    0.000    0.000 
#
# Total GULP energy -200863.357970 kJ/mol
# GULP energy per Si atom -5579.537721 kJ/mol
# Density = 0.923818 g / cm^3
# Si number density = 9.259259 Si / 1000 Ang^3
#
#
#
# Elastic Constant Matrix: (Units=GPa)
#
#
# Indices 1 2 3 4 5 6 
#
# 1 190.7186 86.6733 44.9623 0.0000 0.0000 0.0000
# 2 86.6733 120.8386 31.5403 0.0000 0.0000 0.0000
# 3 44.9623 31.5403 45.4798 0.0000 0.0000 0.0000
# 4 0.0000 0.0000 0.0000 33.1931 0.0000 0.0000
# 5 0.0000 0.0000 0.0000 0.0000 22.3194 0.0000
# 6 0.0000 0.0000 0.0000 0.0000 0.0000 -85.4178
#
#
#
# Elastic Compliance Matrix: (Units=1/GPa)
#
#
# Indices 1 2 3 4 5 6 
#
# 1 0.008684 -0.004869 -0.005208 0.000000 0.000000 0.000000
# 2 -0.004869 0.012835 -0.004087 0.000000 0.000000 0.000000
# 3 -0.005208 -0.004087 0.029971 0.000000 0.000000 0.000000
# 4 0.000000 0.000000 0.000000 0.030127 0.000000 0.000000
# 5 0.000000 0.000000 0.000000 0.000000 0.044804 0.000000
# 6 0.000000 0.000000 0.000000 0.000000 0.000000 -0.011707
#
#
# Mechanical properties :
#
#
# Convention : Reuss Voigt Hill
#
# Bulk Modulus (GPa) = 43.17666 75.93210 59.55438
# Shear Modulus (GPa) = 33.16446 6.94302 20.05374
#
# Velocity S-wave (km/s) = 4.23647 1.93839 3.29432
# Velocity P-wave (km/s) = 6.87723 6.78986 6.83368
#
# Compressibility (1/GPa) = 0.02316066
#
# Stress axis : x y z
#
# Youngs Moduli (GPa) = 115.15250 77.91259 33.36527
#
# Poissons Ratio (x) = 0.37939 0.17378
# Poissons Ratio (y) = 0.56072 0.13637
# Poissons Ratio (z) = 0.59976 0.31843
#
# Static dielectric constant tensor:
#      x y z
#    x 1.635560 0.000000 0.000000 
#    y 0.000000 1.690090 0.000000 
#    z 0.000000 0.000000 1.616420 
# 
# From -- ./inp_files/6108.got.cif
#   From: 2010.05.17/outbox.ucp.g08.bks.cvg/sg63_4_cif.got.tgz:6108.got - 2010.06.11 16:32:19.
