data_PCOD9476332
_publ_section_title
;
Structure prediction by ZEFSAII (Michael W. Deem and Ramdas Pophale) SiO2 
 PCOD9476332
Probable space group: C M C A
;
_chemical_formula_sum "Si O2"
_cell_formula_units_Z 128
_cell_length_a 18.012309
_cell_length_b 17.466118
_cell_length_c 23.451477
_cell_angle_alpha 90.000000
_cell_angle_beta 90.000000
_cell_angle_gamma 90.000000
_cell_volume 7377.954606
_symmetry_space_group_name_H-M "C M C A"
_symmetry_group_IT_number 64
_symmetry_cell_setting 'orthorhombic'
loop_
_space_group_symop_operation_xyz
x,y,z
-x,1/2-y,1/2+z
x,-y,-z
-x,1/2+y,1/2-z
-x,-y,-z
x,1/2+y,1/2-z
-x,y,z
x,1/2-y,1/2+z
1/2+x,1/2+y,z
1/2-x,-y,1/2+z
1/2+x,1/2-y,-z
1/2-x,y,1/2-z
1/2-x,1/2-y,-z
1/2+x,y,1/2-z
1/2-x,1/2+y,z
1/2+x,-y,1/2+z
loop_
_atom_site_type_symbol
_atom_site_label
_atom_site_fract_x
_atom_site_fract_y
_atom_site_fract_z
Si Si1 0.585779 0.531505 0.315674
Si Si2 0.409814 0.642397 0.111619
Si Si3 0.588442 0.909417 0.487547
Si Si4 0.414424 0.292516 0.673253
Si Si5 0.838396 0.644464 0.628222
Si Si6 0.299688 0.905268 0.193055
Si Si7 0.585559 0.501512 0.818593
Si Si8 0.086716 0.230491 0.700649
O O1 0.500000 0.510545 0.331677
O O2 0.599788 0.617896 0.336178
O O3 0.652951 0.475765 0.331716
O O4 0.588071 0.525331 0.246599
O O5 0.500000 0.640121 0.116219
O O6 0.380621 0.565660 0.142630
O O7 0.388328 0.716744 0.147745
O O8 0.392406 0.636662 0.045150
O O9 0.500000 0.899707 0.475525
O O10 0.636106 0.880229 0.434559
O O11 0.599355 0.000000 0.500000
O O12 0.500000 0.276092 0.657071
O O13 0.363117 0.230530 0.642632
O O14 0.408939 0.279144 0.741291
O O15 0.753805 0.629814 0.645168
O O16 0.880226 0.583716 0.669410
O O17 0.250000 0.923434 0.250000
O O18 0.360734 0.841697 0.208288
O O19 0.500000 0.509013 0.835415
O O20 0.000000 0.208202 0.693148
#
# Coordination Sequence:
#
# PCOD9476332 Si02
#       8
#    16  16  16  16  16  16  16  16
#     4  10  20  36  55  78 110 151 197 232 272 336
#     4   9  17  31  55  84 105 139 189 228 276 334
#     4  10  19  33  57  85 113 148 189 236 285 340
#     4  10  19  33  55  81 111 150 187 230 281 334
#     4  12  22  34  49  83 122 148 178 228 291 345
#     4  12  23  36  49  81 113 151 191 227 288 347
#     4  10  16  28  52  79 109 143 178 220 271 335
#     4  10  19  36  57  77 108 148 194 238 276 338
#
# _framework density 17.348981999999999
#
# number of rings (size 3 to 8) (size 9 to 14) (size 15 to 20)
#    0.000    1.625    5.000    1.500    0.000    2.000 
#    4.500    0.625    0.000    0.000    0.000    0.000 
#    0.000    6.000    0.000    0.000    0.000    0.000 
#
# Total GULP energy -356842.142345 kJ/mol
# GULP energy per Si atom -5575.658474 kJ/mol
# Density = 1.730949 g / cm^3
# Si number density = 17.348982 Si / 1000 Ang^3
#
#
#
# Elastic Constant Matrix: (Units=GPa)
#
#
# Indices 1 2 3 4 5 6 
#
# 1 78.9417 52.6578 24.2099 0.0000 0.0000 0.0000
# 2 52.6578 95.1901 16.0927 0.0000 0.0000 0.0000
# 3 24.2099 16.0927 64.1513 0.0000 0.0000 0.0000
# 4 0.0000 0.0000 0.0000 23.9114 0.0000 0.0000
# 5 0.0000 0.0000 0.0000 0.0000 476.2292 0.0000
# 6 0.0000 0.0000 0.0000 0.0000 0.0000 8.1949
#
#
#
# Elastic Compliance Matrix: (Units=1/GPa)
#
#
# Indices 1 2 3 4 5 6 
#
# 1 0.021740 -0.011111 -0.005417 0.000000 0.000000 0.000000
# 2 -0.011111 0.016649 0.000017 0.000000 0.000000 0.000000
# 3 -0.005417 0.000017 0.017628 0.000000 0.000000 0.000000
# 4 0.000000 0.000000 0.000000 0.041821 0.000000 0.000000
# 5 0.000000 0.000000 0.000000 0.000000 0.002100 0.000000
# 6 0.000000 0.000000 0.000000 0.000000 0.000000 0.122028
#
#
# Mechanical properties :
#
#
# Convention : Reuss Voigt Hill
#
# Bulk Modulus (GPa) = 43.48828 47.13376 45.31102
# Shear Modulus (GPa) = 19.03650 111.35528 65.19589
#
# Velocity S-wave (km/s) = 3.31610 8.02028 6.13683
# Velocity P-wave (km/s) = 6.30739 10.62984 8.74004
#
# Compressibility (1/GPa) = 0.02299470
#
# Stress axis : x y z
#
# Youngs Moduli (GPa) = 45.99767 60.06482 56.72660
#
# Poissons Ratio (x) = 0.66735 0.30731
# Poissons Ratio (y) = 0.51106 -0.00094
# Poissons Ratio (z) = 0.24919 -0.00100
#
# Static dielectric constant tensor:
#      x y z
#    x 1.612730 0.000000 0.000000 
#    y 0.000000 1.604390 0.000000 
#    z 0.000000 0.000000 1.588500 
# 
# From -- ./inp_files/46004.got.cif
#   From: 2010.05.17/outbox.cif.g08.bks.cpg/sg64_24_cif.got.tgz:46004.got - 2010.06.03 16:29:19.
