data_PCOD9476742
_publ_section_title
;
Structure prediction by ZEFSAII (Michael W. Deem and Ramdas Pophale) SiO2 
 PCOD9476742
Probable space group: C M C A
;
_chemical_formula_sum "Si O2"
_cell_formula_units_Z 112
_cell_length_a 14.521635
_cell_length_b 19.615012
_cell_length_c 19.057633
_cell_angle_alpha 90.000000
_cell_angle_beta 90.000000
_cell_angle_gamma 90.000000
_cell_volume 5428.415152
_symmetry_space_group_name_H-M "C M C A"
_symmetry_group_IT_number 64
_symmetry_cell_setting 'orthorhombic'
loop_
_space_group_symop_operation_xyz
x,y,z
-x,1/2-y,1/2+z
x,-y,-z
-x,1/2+y,1/2-z
-x,-y,-z
x,1/2+y,1/2-z
-x,y,z
x,1/2-y,1/2+z
1/2+x,1/2+y,z
1/2-x,-y,1/2+z
1/2+x,1/2-y,-z
1/2-x,y,1/2-z
1/2-x,1/2-y,-z
1/2+x,y,1/2-z
1/2-x,1/2+y,z
1/2+x,-y,1/2+z
loop_
_atom_site_type_symbol
_atom_site_label
_atom_site_fract_x
_atom_site_fract_y
_atom_site_fract_z
Si Si1 0.388915 0.789260 0.949132
Si Si2 0.651437 0.147700 0.786615
Si Si3 0.891700 0.991148 0.708495
Si Si4 0.611852 0.054136 0.057236
Si Si5 0.346702 0.770481 0.793114
Si Si6 0.603354 0.383341 0.807365
Si Si7 0.112383 0.258521 0.599476
O O1 0.500000 0.783954 0.938656
O O2 0.367449 0.868518 0.963005
O O3 0.341791 0.769694 0.876174
O O4 0.364030 0.746565 0.017885
O O5 0.750000 0.136219 0.750000
O O6 0.612412 0.072647 0.793548
O O7 0.605121 0.201651 0.733602
O O8 0.649403 0.192079 0.858317
O O9 0.000000 0.973115 0.709906
O O10 0.852988 0.962984 0.635154
O O11 0.852894 0.953165 0.778067
O O12 0.500000 0.048308 0.059328
O O13 0.645341 0.000000 0.000000
O O14 0.250000 0.773054 0.750000
O O15 0.397692 0.836508 0.763128
O O16 0.500000 0.398147 0.832607
O O17 0.642228 0.330133 0.864764
O O18 0.000000 0.254790 0.606014
#
# Coordination Sequence:
#
# PCOD9476742 Si02
#       7
#    16  16  16  16  16  16  16
#     4  10  18  32  56  84 109 137 176 226 280 328
#     4  10  21  35  49  75 109 147 185 224 266 318
#     4  10  18  30  50  75 104 141 177 221 275 322
#     4   9  16  26  45  77 111 133 160 211 276 334
#     4  10  20  34  51  77 108 141 180 217 264 325
#     4   9  17  32  52  76 105 136 177 221 266 326
#     4   9  18  33  57  84 109 136 174 229 281 326
#
# _framework density 20.632173000000002
#
# number of rings (size 3 to 8) (size 9 to 14) (size 15 to 20)
#    0.000    2.429    1.429    1.714    0.000    4.571 
#    0.000    6.429    0.000    0.857    0.000    4.000 
#    0.000    0.000    0.000    0.000    0.000    0.000 
#
# Total GULP energy -312009.430367 kJ/mol
# GULP energy per Si atom -5571.596971 kJ/mol
# Density = 2.058521 g / cm^3
# Si number density = 20.632173 Si / 1000 Ang^3
#
#
#
# Elastic Constant Matrix: (Units=GPa)
#
#
# Indices 1 2 3 4 5 6 
#
# 1 54.2360 -6.4913 16.0729 0.0000 0.0000 0.0000
# 2 -6.4913 98.0993 40.0783 0.0000 0.0000 0.0000
# 3 16.0729 40.0783 160.0866 0.0000 0.0000 0.0000
# 4 0.0000 0.0000 0.0000 31.0567 0.0000 0.0000
# 5 0.0000 0.0000 0.0000 0.0000 21.5645 0.0000
# 6 0.0000 0.0000 0.0000 0.0000 0.0000 15.2323
#
#
#
# Elastic Compliance Matrix: (Units=1/GPa)
#
#
# Indices 1 2 3 4 5 6 
#
# 1 0.019468 0.002324 -0.002537 0.000000 0.000000 0.000000
# 2 0.002324 0.011633 -0.003146 0.000000 0.000000 0.000000
# 3 -0.002537 -0.003146 0.007289 0.000000 0.000000 0.000000
# 4 0.000000 0.000000 0.000000 0.032199 0.000000 0.000000
# 5 0.000000 0.000000 0.000000 0.000000 0.046372 0.000000
# 6 0.000000 0.000000 0.000000 0.000000 0.000000 0.065650
#
#
# Mechanical properties :
#
#
# Convention : Reuss Voigt Hill
#
# Bulk Modulus (GPa) = 31.57169 45.74908 38.66038
# Shear Modulus (GPa) = 25.01446 31.08817 28.05131
#
# Velocity S-wave (km/s) = 3.48573 3.88594 3.69126
# Velocity P-wave (km/s) = 5.61568 6.50814 6.07831
#
# Compressibility (1/GPa) = 0.03167395
#
# Stress axis : x y z
#
# Youngs Moduli (GPa) = 51.36675 85.96433 137.19633
#
# Poissons Ratio (x) = -0.19982 0.34800
# Poissons Ratio (y) = -0.11940 0.43158
# Poissons Ratio (z) = 0.13029 0.27042
#
# Static dielectric constant tensor:
#      x y z
#    x 1.623850 0.000000 0.000000 
#    y 0.000000 1.769910 0.000000 
#    z 0.000000 0.000000 1.753100 
# 
# From -- ./inp_files/34490.got.cif
#   From: 2010.05.17/outbox.cif.g08.bks.cpg/sg64_18_cif.got.tgz:34490.got - 2010.06.03 16:29:19.
