data_PCOD9476403
_publ_section_title
;
Structure prediction by ZEFSAII (Michael W. Deem and Ramdas Pophale) SiO2 
 PCOD9476403
Probable space group: C M C A
;
_chemical_formula_sum "Si O2"
_cell_formula_units_Z 64
_cell_length_a 18.378533
_cell_length_b 16.015153
_cell_length_c 11.530729
_cell_angle_alpha 90.000000
_cell_angle_beta 90.000000
_cell_angle_gamma 90.000000
_cell_volume 3393.897327
_symmetry_space_group_name_H-M "C M C A"
_symmetry_group_IT_number 64
_symmetry_cell_setting 'orthorhombic'
loop_
_space_group_symop_operation_xyz
x,y,z
-x,1/2-y,1/2+z
x,-y,-z
-x,1/2+y,1/2-z
-x,-y,-z
x,1/2+y,1/2-z
-x,y,z
x,1/2-y,1/2+z
1/2+x,1/2+y,z
1/2-x,-y,1/2+z
1/2+x,1/2-y,-z
1/2-x,y,1/2-z
1/2-x,1/2-y,-z
1/2+x,y,1/2-z
1/2-x,1/2+y,z
1/2+x,-y,1/2+z
loop_
_atom_site_type_symbol
_atom_site_label
_atom_site_fract_x
_atom_site_fract_y
_atom_site_fract_z
Si Si1 0.500000 0.845385 0.436809
Si Si2 0.377381 0.717460 0.362326
Si Si3 0.750000 0.174110 0.750000
Si Si4 0.347342 0.913524 0.061372
Si Si5 0.000000 0.885584 0.317194
Si Si6 0.000000 0.317800 0.690624
O O1 0.429848 0.786683 0.419177
O O2 0.500000 0.902726 0.321648
O O3 0.500000 0.869424 0.571618
O O4 0.311918 0.766244 0.302631
O O5 0.351922 0.655849 0.461597
O O6 0.428243 0.669919 0.268613
O O7 0.711503 0.116767 0.845775
O O8 0.426665 0.918033 0.123037
O O9 0.329392 0.000000 0.000000
O O10 0.000000 0.783604 0.332617
#
# Coordination Sequence:
#
# PCOD9476403 Si02
#       6
#     8  16   8  16   8   8
#     4  10  16  34  61  91 114 148 209 257 288 340
#     4  10  20  36  62  87 118 156 209 245 299 364
#     4  12  22  40  60  88 120 168 208 244 302 368
#     4  12  24  39  62  91 126 158 199 257 311 360
#     4  10  18  36  59  87 114 160 196 250 301 359
#     4  10  17  34  64  95 114 147 212 256 290 342
#
# _framework density 18.857375999999999
#
# number of rings (size 3 to 8) (size 9 to 14) (size 15 to 20)
#    0.000    1.500    7.500    1.875    0.000    1.000 
#    0.000    0.000    0.000    1.500    0.000    0.875 
#    0.000    0.000    0.000    0.000    0.000    0.000 
#
# Total GULP energy -178663.082884 kJ/mol
# GULP energy per Si atom -5583.221340 kJ/mol
# Density = 1.881446 g / cm^3
# Si number density = 18.857376 Si / 1000 Ang^3
#
#
#
# Elastic Constant Matrix: (Units=GPa)
#
#
# Indices 1 2 3 4 5 6 
#
# 1 133.0326 59.7385 81.5106 0.0000 0.0000 0.0000
# 2 59.7385 57.0356 63.5978 0.0000 0.0000 0.0000
# 3 81.5106 63.5978 184.5335 0.0000 0.0000 0.0000
# 4 0.0000 0.0000 0.0000 13.7238 0.0000 0.0000
# 5 0.0000 0.0000 0.0000 0.0000 54.6453 0.0000
# 6 0.0000 0.0000 0.0000 0.0000 0.0000 31.1160
#
#
#
# Elastic Compliance Matrix: (Units=1/GPa)
#
#
# Indices 1 2 3 4 5 6 
#
# 1 0.014597 -0.013154 -0.001914 0.000000 0.000000 0.000000
# 2 -0.013154 0.040330 -0.008089 0.000000 0.000000 0.000000
# 3 -0.001914 -0.008089 0.009052 0.000000 0.000000 0.000000
# 4 0.000000 0.000000 0.000000 0.072866 0.000000 0.000000
# 5 0.000000 0.000000 0.000000 0.000000 0.018300 0.000000
# 6 0.000000 0.000000 0.000000 0.000000 0.000000 0.032138
#
#
# Mechanical properties :
#
#
# Convention : Reuss Voigt Hill
#
# Bulk Modulus (GPa) = 56.61021 87.14394 71.87708
# Shear Modulus (GPa) = 20.87810 31.21400 26.04605
#
# Velocity S-wave (km/s) = 3.33101 4.07291 3.72050
# Velocity P-wave (km/s) = 6.69922 8.27228 7.52696
#
# Compressibility (1/GPa) = 0.01766466
#
# Stress axis : x y z
#
# Youngs Moduli (GPa) = 68.50932 24.79534 110.46817
#
# Poissons Ratio (x) = 0.32616 0.21144
# Poissons Ratio (y) = 0.90117 0.89359
# Poissons Ratio (z) = 0.13113 0.20057
#
# Static dielectric constant tensor:
#      x y z
#    x 1.777600 0.000000 0.000000 
#    y 0.000000 1.630660 0.000000 
#    z 0.000000 0.000000 1.687230 
# 
# From -- ./inp_files/15593.got.cif
#   From: 2010.05.17/outbox.cif.g08.bks.cpg/sg64_8_cif.got.tgz:15593.got - 2010.06.03 16:29:19.
