data_PCOD9476501
_publ_section_title
;
Structure prediction by ZEFSAII (Michael W. Deem and Ramdas Pophale) SiO2 
 PCOD9476501
Probable space group: C M C A
;
_chemical_formula_sum "Si O2"
_cell_formula_units_Z 88
_cell_length_a 25.207502
_cell_length_b 5.499504
_cell_length_c 24.396012
_cell_angle_alpha 90.000000
_cell_angle_beta 90.000000
_cell_angle_gamma 90.000000
_cell_volume 3381.988846
_symmetry_space_group_name_H-M "C M C A"
_symmetry_group_IT_number 64
_symmetry_cell_setting 'orthorhombic'
loop_
_space_group_symop_operation_xyz
x,y,z
-x,1/2-y,1/2+z
x,-y,-z
-x,1/2+y,1/2-z
-x,-y,-z
x,1/2+y,1/2-z
-x,y,z
x,1/2-y,1/2+z
1/2+x,1/2+y,z
1/2-x,-y,1/2+z
1/2+x,1/2-y,-z
1/2-x,y,1/2-z
1/2-x,1/2-y,-z
1/2+x,y,1/2-z
1/2-x,1/2+y,z
1/2+x,-y,1/2+z
loop_
_atom_site_type_symbol
_atom_site_label
_atom_site_fract_x
_atom_site_fract_y
_atom_site_fract_z
Si Si1 0.088386 0.441425 0.862682
Si Si2 0.442358 0.934220 0.690630
Si Si3 0.870670 0.351457 0.454157
Si Si4 0.209039 0.500000 0.000000
Si Si5 0.728335 0.019966 0.613818
Si Si6 0.663031 0.572129 0.267314
O O1 0.061195 0.196533 0.838575
O O2 0.143949 0.456274 0.829449
O O3 0.062318 0.701376 0.849897
O O4 0.098683 0.368235 0.924959
O O5 0.500000 0.916444 0.718256
O O6 0.392948 0.916828 0.732107
O O7 0.903199 0.500000 0.500000
O O8 0.827649 0.232060 0.494214
O O9 0.834327 0.467471 0.404054
O O10 0.240572 0.484275 0.055846
O O11 0.752163 0.267221 0.640371
O O12 0.688946 0.830220 0.255767
#
# Coordination Sequence:
#
# PCOD9476501 Si02
#       6
#    16  16  16   8  16  16
#     4  10  22  31  51  82 103 128 170 205 261 314
#     4  10  20  37  57  76  99 126 164 220 269 306
#     4  11  20  32  50  73 111 141 167 207 255 288
#     4  10  18  32  50  74  99 142 169 212 242 288
#     4  10  17  30  48  72  98 133 165 209 246 285
#     4   8  16  31  49  75 102 120 152 205 262 311
#
# _framework density 26.020192000000002
#
# number of rings (size 3 to 8) (size 9 to 14) (size 15 to 20)
#    0.000    2.182    2.727    1.636    2.545    6.545 
#    0.000    0.000    0.000    3.273    0.000    0.000 
#    0.000  157.091    0.000    0.000    0.000    0.000 
#
# Total GULP energy -245759.789069 kJ/mol
# GULP energy per Si atom -5585.449752 kJ/mol
# Density = 2.596097 g / cm^3
# Si number density = 26.020192 Si / 1000 Ang^3
#
#
#
# Elastic Constant Matrix: (Units=GPa)
#
#
# Indices 1 2 3 4 5 6 
#
# 1 80.3127 14.8650 19.3948 0.0000 0.0000 0.0000
# 2 14.8650 214.3725 15.7421 0.0000 0.0000 0.0000
# 3 19.3948 15.7421 73.0192 0.0000 0.0000 0.0000
# 4 0.0000 0.0000 0.0000 37.7928 0.0000 0.0000
# 5 0.0000 0.0000 0.0000 0.0000 15.8845 0.0000
# 6 0.0000 0.0000 0.0000 0.0000 0.0000 13.3987
#
#
#
# Elastic Compliance Matrix: (Units=1/GPa)
#
#
# Indices 1 2 3 4 5 6 
#
# 1 0.013401 -0.000679 -0.003413 0.000000 0.000000 0.000000
# 2 -0.000679 0.004774 -0.000849 0.000000 0.000000 0.000000
# 3 -0.003413 -0.000849 0.014785 0.000000 0.000000 0.000000
# 4 0.000000 0.000000 0.000000 0.026460 0.000000 0.000000
# 5 0.000000 0.000000 0.000000 0.000000 0.062954 0.000000
# 6 0.000000 0.000000 0.000000 0.000000 0.000000 0.074634
#
#
# Mechanical properties :
#
#
# Convention : Reuss Voigt Hill
#
# Bulk Modulus (GPa) = 43.33069 51.96759 47.64914
# Shear Modulus (GPa) = 23.30103 34.59538 28.94820
#
# Velocity S-wave (km/s) = 2.99573 3.65027 3.33908
# Velocity P-wave (km/s) = 5.35301 6.14665 5.76351
#
# Compressibility (1/GPa) = 0.02307833
#
# Stress axis : x y z
#
# Youngs Moduli (GPa) = 74.62015 209.46010 67.63767
#
# Poissons Ratio (x) = 0.14214 0.23086
# Poissons Ratio (y) = 0.05064 0.05742
# Poissons Ratio (z) = 0.25470 0.17783
#
# Static dielectric constant tensor:
#      x y z
#    x 2.111920 0.000000 0.000000 
#    y 0.000000 2.277890 0.000000 
#    z 0.000000 0.000000 2.061160 
# 
# From -- ./inp_files/47083.got.cif
#   From: 2010.05.17/outbox.cif.g08.bks.cpg/sg64_24_cif.got.tgz:47083.got - 2010.06.03 16:29:19.
