data_PCOD9476215
_publ_section_title
;
Structure prediction by ZEFSAII (Michael W. Deem and Ramdas Pophale) SiO2 
 PCOD9476215
Probable space group: C M C M
;
_chemical_formula_sum "Si O2"
_cell_formula_units_Z 48
_cell_length_a 24.000000
_cell_length_b 12.000000
_cell_length_c 18.000000
_cell_angle_alpha 90.000000
_cell_angle_beta 90.000000
_cell_angle_gamma 90.000000
_cell_volume 5184.000000
_symmetry_space_group_name_H-M "C M C M"
_symmetry_group_IT_number 63
_symmetry_cell_setting 'orthorhombic'
loop_
_space_group_symop_operation_xyz
x,y,z
-x,-y,1/2+z
x,-y,-z
-x,y,1/2-z
-x,-y,-z
x,y,1/2-z
-x,y,z
x,-y,1/2+z
1/2+x,1/2+y,z
1/2-x,1/2-y,1/2+z
1/2+x,1/2-y,-z
1/2-x,1/2+y,1/2-z
1/2-x,1/2-y,-z
1/2+x,1/2+y,1/2-z
1/2-x,1/2+y,z
1/2+x,1/2-y,1/2+z
loop_
_atom_site_type_symbol
_atom_site_label
_atom_site_fract_x
_atom_site_fract_y
_atom_site_fract_z
Si Si1 0.271682 0.194997 0.160503
Si Si2 0.154578 0.493154 0.912819
Si Si3 0.435160 0.426129 0.659199
Si Si4 0.852166 0.733698 0.838967
Si Si5 0.362340 0.366799 0.336040
Si Si6 0.434488 0.144964 0.165687
O O1 0.279430 0.189170 0.250000
O O2 0.206430 0.204893 0.145019
O O3 0.306537 0.305253 0.134182
O O4 0.299058 0.085713 0.125203
O O5 0.151166 0.615308 0.878263
O O6 0.096908 0.431479 0.892740
O O7 0.164098 0.500000 0.000000
O O8 0.436103 0.432761 0.750000
O O9 0.500000 0.434791 0.635211
O O10 0.404629 0.310479 0.639249
O O11 0.394012 0.525448 0.632212
O O12 0.854810 0.717188 0.750000
O O13 0.349083 0.395608 0.250000
O O14 0.407556 0.267369 0.337145
O O15 0.423568 0.102311 0.250000
O O16 0.500000 0.150104 0.154454
#
# Coordination Sequence:
#
# PCOD9476215 Si02
#       6
#    16  16  16  16  16  16
#     4   9  19  35  58  82 106 137 187 237 274 324
#     4  11  23  37  53  77 113 148 182 224 278 348
#     4   9  17  29  49  81 114 139 169 218 284 339
#     4  10  21  35  56  81 108 142 182 232 279 329
#     4   8  14  27  50  81 108 133 169 223 278 322
#     4   9  17  32  56  81 105 139 186 235 275 319
#
# _framework density 9.2592590000000001
#
# number of rings (size 3 to 8) (size 9 to 14) (size 15 to 20)
#    0.000    2.667    0.000    3.000    2.333    3.667 
#    0.000    1.667    0.000    0.000    0.000    5.833 
#    0.000    0.000    0.000    0.000    0.000    0.000 
#
# Total GULP energy -267548.616651 kJ/mol
# GULP energy per Si atom -5573.929514 kJ/mol
# Density = 0.923818 g / cm^3
# Si number density = 9.259259 Si / 1000 Ang^3
#
#
#
# Elastic Constant Matrix: (Units=GPa)
#
#
# Indices 1 2 3 4 5 6 
#
# 1 70.7185 19.2804 13.3231 0.0000 0.0000 0.0000
# 2 19.2804 87.5194 24.4150 0.0000 0.0000 0.0000
# 3 13.3231 24.4150 16.3237 0.0000 0.0000 0.0000
# 4 0.0000 0.0000 0.0000 -18.3785 0.0000 0.0000
# 5 0.0000 0.0000 0.0000 0.0000 3.2115 0.0000
# 6 0.0000 0.0000 0.0000 0.0000 0.0000 14.1422
#
#
#
# Elastic Compliance Matrix: (Units=1/GPa)
#
#
# Indices 1 2 3 4 5 6 
#
# 1 0.016712 0.000212 -0.013957 0.000000 0.000000 0.000000
# 2 0.000212 0.019610 -0.029503 0.000000 0.000000 0.000000
# 3 -0.013957 -0.029503 0.116779 0.000000 0.000000 0.000000
# 4 0.000000 0.000000 0.000000 -0.054411 0.000000 0.000000
# 5 0.000000 0.000000 0.000000 0.000000 0.311377 0.000000
# 6 0.000000 0.000000 0.000000 0.000000 0.000000 0.070710
#
#
# Mechanical properties :
#
#
# Convention : Reuss Voigt Hill
#
# Bulk Modulus (GPa) = 15.01395 32.06650 23.54023
# Shear Modulus (GPa) = 8.48214 7.63126 8.05670
#
# Velocity S-wave (km/s) = 2.14250 2.03220 2.08808
# Velocity P-wave (km/s) = 3.77433 4.78121 4.30729
#
# Compressibility (1/GPa) = 0.06660472
#
# Stress axis : x y z
#
# Youngs Moduli (GPa) = 59.83620 50.99550 8.56321
#
# Poissons Ratio (x) = -0.01081 0.11952
# Poissons Ratio (y) = -0.01268 0.25264
# Poissons Ratio (z) = 0.83515 1.50450
#
# Static dielectric constant tensor:
#      x y z
#    x 1.644410 0.000000 0.000000 
#    y 0.000000 1.641680 0.000000 
#    z 0.000000 0.000000 1.616550 
# 
# From -- ./inp_files/47991.got.cif
#   From: 2010.05.17/outbox.ucp.g08.bks.cvg/sg63_24_cif.got.tgz:47991.got - 2010.06.11 16:32:19.
