data_PCOD9476602
_publ_section_title
;
Structure prediction by ZEFSAII (Michael W. Deem and Ramdas Pophale) SiO2 
 PCOD9476602
Probable space group: C M C A
;
_chemical_formula_sum "Si O2"
_cell_formula_units_Z 112
_cell_length_a 25.542689
_cell_length_b 20.122200
_cell_length_c 10.366096
_cell_angle_alpha 90.000000
_cell_angle_beta 90.000000
_cell_angle_gamma 90.000000
_cell_volume 5327.915193
_symmetry_space_group_name_H-M "C M C A"
_symmetry_group_IT_number 64
_symmetry_cell_setting 'orthorhombic'
loop_
_space_group_symop_operation_xyz
x,y,z
-x,1/2-y,1/2+z
x,-y,-z
-x,1/2+y,1/2-z
-x,-y,-z
x,1/2+y,1/2-z
-x,y,z
x,1/2-y,1/2+z
1/2+x,1/2+y,z
1/2-x,-y,1/2+z
1/2+x,1/2-y,-z
1/2-x,y,1/2-z
1/2-x,1/2-y,-z
1/2+x,y,1/2-z
1/2-x,1/2+y,z
1/2+x,-y,1/2+z
loop_
_atom_site_type_symbol
_atom_site_label
_atom_site_fract_x
_atom_site_fract_y
_atom_site_fract_z
Si Si1 0.291050 0.162330 0.131136
Si Si2 0.560030 0.953880 0.616515
Si Si3 0.875268 0.231374 0.788025
Si Si4 0.187176 0.602917 0.748986
Si Si5 0.653845 0.961677 0.784041
Si Si6 0.938554 0.798599 0.949905
Si Si7 0.213564 0.426838 0.518580
O O1 0.250000 0.166522 0.250000
O O2 0.328296 0.225066 0.148070
O O3 0.330008 0.098991 0.127002
O O4 0.250660 0.138105 0.021486
O O5 0.500000 0.971793 0.640656
O O6 0.594072 0.963900 0.743614
O O7 0.563059 0.877613 0.573509
O O8 0.579307 0.000000 0.500000
O O9 0.847001 0.167246 0.724399
O O10 0.905758 0.267362 0.670159
O O11 0.913340 0.216282 0.909547
O O12 0.250000 0.611430 0.750000
O O13 0.172749 0.534863 0.821007
O O14 0.175099 0.585451 0.599148
O O15 0.684234 0.937635 0.653274
O O16 0.000000 0.777751 0.946328
O O17 0.238856 0.500000 0.500000
#
# Coordination Sequence:
#
# PCOD9476602 Si02
#       7
#    16  16  16  16  16  16  16
#     4  10  21  35  58  86 125 166 210 252 313 381
#     4  10  19  34  62  93 117 152 216 279 318 361
#     4  12  25  41  65  95 127 171 208 264 316 380
#     4  11  23  35  57  91 131 166 209 255 312 382
#     4  10  17  36  57  86 119 165 206 259 319 368
#     4  11  25  46  67  94 127 167 214 268 328 377
#     4   9  18  33  55  81 121 166 209 253 306 378
#
# _framework density 21.021355
#
# number of rings (size 3 to 8) (size 9 to 14) (size 15 to 20)
#    0.000    1.571    1.429    6.000    4.000    0.571 
#    0.000    0.714    0.000    0.000    0.000    1.000 
#    0.000    0.000    0.000    0.000    0.000    0.000 
#
# Total GULP energy -312206.648633 kJ/mol
# GULP energy per Si atom -5575.118726 kJ/mol
# Density = 2.097351 g / cm^3
# Si number density = 21.021355 Si / 1000 Ang^3
#
#
#
# Elastic Constant Matrix: (Units=GPa)
#
#
# Indices 1 2 3 4 5 6 
#
# 1 106.1530 28.5690 7.0198 0.0000 0.0000 0.0000
# 2 28.5690 82.7473 -5.4053 0.0000 0.0000 0.0000
# 3 7.0198 -5.4053 30.3939 0.0000 0.0000 0.0000
# 4 0.0000 0.0000 0.0000 12.0156 0.0000 0.0000
# 5 0.0000 0.0000 0.0000 0.0000 16.4861 0.0000
# 6 0.0000 0.0000 0.0000 0.0000 0.0000 31.8826
#
#
#
# Elastic Compliance Matrix: (Units=1/GPa)
#
#
# Indices 1 2 3 4 5 6 
#
# 1 0.010677 -0.003893 -0.003158 0.000000 0.000000 0.000000
# 2 -0.003893 0.013646 0.003326 0.000000 0.000000 0.000000
# 3 -0.003158 0.003326 0.034222 0.000000 0.000000 0.000000
# 4 0.000000 0.000000 0.000000 0.083225 0.000000 0.000000
# 5 0.000000 0.000000 0.000000 0.000000 0.060657 0.000000
# 6 0.000000 0.000000 0.000000 0.000000 0.000000 0.031365
#
#
# Mechanical properties :
#
#
# Convention : Reuss Voigt Hill
#
# Bulk Modulus (GPa) = 19.57120 31.07347 25.32234
# Shear Modulus (GPa) = 19.35928 24.68423 22.02175
#
# Velocity S-wave (km/s) = 3.03798 3.43044 3.24016
# Velocity P-wave (km/s) = 4.65147 5.52309 5.10591
#
# Compressibility (1/GPa) = 0.05109550
#
# Stress axis : x y z
#
# Youngs Moduli (GPa) = 93.66084 73.28063 29.22080
#
# Poissons Ratio (x) = 0.28525 0.09228
# Poissons Ratio (y) = 0.36458 -0.09719
# Poissons Ratio (z) = 0.29580 -0.24372
#
# Static dielectric constant tensor:
#      x y z
#    x 1.785450 0.000000 0.000000 
#    y 0.000000 1.838190 0.000000 
#    z 0.000000 0.000000 1.880160 
# 
# From -- ./inp_files/18550.got.cif
#   From: 2010.05.17/outbox.cif.g08.bks.cpg/sg64_10_cif.got.tgz:18550.got - 2010.06.03 16:29:19.
