data_PCOD9476377
_publ_section_title
;
Structure prediction by ZEFSAII (Michael W. Deem and Ramdas Pophale) SiO2 
 PCOD9476377
Probable space group: C M C A
;
_chemical_formula_sum "Si O2"
_cell_formula_units_Z 56
_cell_length_a 14.248052
_cell_length_b 22.279155
_cell_length_c 8.787517
_cell_angle_alpha 90.000000
_cell_angle_beta 90.000000
_cell_angle_gamma 90.000000
_cell_volume 2789.461583
_symmetry_space_group_name_H-M "C M C A"
_symmetry_group_IT_number 64
_symmetry_cell_setting 'orthorhombic'
loop_
_space_group_symop_operation_xyz
x,y,z
-x,1/2-y,1/2+z
x,-y,-z
-x,1/2+y,1/2-z
-x,-y,-z
x,1/2+y,1/2-z
-x,y,z
x,1/2-y,1/2+z
1/2+x,1/2+y,z
1/2-x,-y,1/2+z
1/2+x,1/2-y,-z
1/2-x,y,1/2-z
1/2-x,1/2-y,-z
1/2+x,y,1/2-z
1/2-x,1/2+y,z
1/2+x,-y,1/2+z
loop_
_atom_site_type_symbol
_atom_site_label
_atom_site_fract_x
_atom_site_fract_y
_atom_site_fract_z
Si Si1 0.750000 0.871716 0.750000
Si Si2 0.895168 0.428570 0.516619
Si Si3 0.863389 0.167744 0.769026
Si Si4 0.649565 0.279356 0.544567
O O1 0.809538 0.907235 0.876472
O O2 0.674317 0.828982 0.831107
O O3 0.888654 0.500000 0.500000
O O4 0.888799 0.393589 0.354847
O O5 0.000000 0.414768 0.579569
O O6 0.750000 0.166405 0.750000
O O7 0.896512 0.221588 0.879083
O O8 0.894082 0.187615 0.600421
O O9 0.750000 0.250000 0.500000
#
# Coordination Sequence:
#
# PCOD9476377 Si02
#       4
#     8  16  16  16
#     4  12  20  38  70  88 128 168 208 250 330 368
#     4  11  26  43  60  91 130 165 215 265 300 367
#     4  10  17  35  62  89 121 161 197 253 317 360
#     4  10  16  31  65  95 119 156 202 258 306 379
#
# _framework density 20.075558999999998
#
# number of rings (size 3 to 8) (size 9 to 14) (size 15 to 20)
#    0.000    1.429   10.000    0.000    2.000    0.000 
#    0.000    7.143    0.000    4.286    0.000    0.000 
#    0.000    0.000    0.000    0.000    0.000    0.000 
#
# Total GULP energy -156001.176906 kJ/mol
# GULP energy per Si atom -5571.470604 kJ/mol
# Density = 2.002987 g / cm^3
# Si number density = 20.075559 Si / 1000 Ang^3
#
#
#
# Elastic Constant Matrix: (Units=GPa)
#
#
# Indices 1 2 3 4 5 6 
#
# 1 92.4711 21.7054 1.1272 0.0000 0.0000 0.0000
# 2 21.7054 148.4522 70.1326 0.0000 0.0000 0.0000
# 3 1.1272 70.1326 116.3624 0.0000 0.0000 0.0000
# 4 0.0000 0.0000 0.0000 20.4157 0.0000 0.0000
# 5 0.0000 0.0000 0.0000 0.0000 0.6069 0.0000
# 6 0.0000 0.0000 0.0000 0.0000 0.0000 20.9724
#
#
#
# Elastic Compliance Matrix: (Units=1/GPa)
#
#
# Indices 1 2 3 4 5 6 
#
# 1 0.011325 -0.002243 0.001242 0.000000 0.000000 0.000000
# 2 -0.002243 0.009862 -0.005922 0.000000 0.000000 0.000000
# 3 0.001242 -0.005922 0.012151 0.000000 0.000000 0.000000
# 4 0.000000 0.000000 0.000000 0.048982 0.000000 0.000000
# 5 0.000000 0.000000 0.000000 0.000000 1.647607 0.000000
# 6 0.000000 0.000000 0.000000 0.000000 0.000000 0.047682
#
#
# Mechanical properties :
#
#
# Convention : Reuss Voigt Hill
#
# Bulk Modulus (GPa) = 51.30091 60.35736 55.82914
# Shear Modulus (GPa) = 2.78094 26.02037 14.40066
#
# Velocity S-wave (km/s) = 1.17824 3.60407 2.68119
# Velocity P-wave (km/s) = 5.24027 6.88836 6.12004
#
# Compressibility (1/GPa) = 0.01949283
#
# Stress axis : x y z
#
# Youngs Moduli (GPa) = 88.29666 101.40121 82.29713
#
# Poissons Ratio (x) = 0.22741 -0.10221
# Poissons Ratio (y) = 0.19802 0.48737
# Poissons Ratio (z) = -0.10966 0.60051
#
# Static dielectric constant tensor:
#      x y z
#    x 1.762460 0.000000 0.000000 
#    y 0.000000 1.691180 0.000000 
#    z 0.000000 0.000000 1.747870 
# 
# From -- ./inp_files/6440.got.cif
#   From: 2010.05.17/outbox.cif.g08.bks.cpg/sg64_4_cif.got.tgz:6440.got - 2010.06.03 16:29:19.
