data_PCOD9476306
_publ_section_title
;
Structure prediction by ZEFSAII (Michael W. Deem and Ramdas Pophale) SiO2 
 PCOD9476306
Probable space group: C M C A
;
_chemical_formula_sum "Si O2"
_cell_formula_units_Z 120
_cell_length_a 27.449352
_cell_length_b 11.511733
_cell_length_c 14.549511
_cell_angle_alpha 90.000000
_cell_angle_beta 90.000000
_cell_angle_gamma 90.000000
_cell_volume 4597.494325
_symmetry_space_group_name_H-M "C M C A"
_symmetry_group_IT_number 64
_symmetry_cell_setting 'orthorhombic'
loop_
_space_group_symop_operation_xyz
x,y,z
-x,1/2-y,1/2+z
x,-y,-z
-x,1/2+y,1/2-z
-x,-y,-z
x,1/2+y,1/2-z
-x,y,z
x,1/2-y,1/2+z
1/2+x,1/2+y,z
1/2-x,-y,1/2+z
1/2+x,1/2-y,-z
1/2-x,y,1/2-z
1/2-x,1/2-y,-z
1/2+x,y,1/2-z
1/2-x,1/2+y,z
1/2+x,-y,1/2+z
loop_
_atom_site_type_symbol
_atom_site_label
_atom_site_fract_x
_atom_site_fract_y
_atom_site_fract_z
Si Si1 0.056126 0.490504 0.389561
Si Si2 0.854221 0.855054 0.178014
Si Si3 0.750000 0.578004 0.250000
Si Si4 0.946250 0.997344 0.388373
Si Si5 0.148471 0.275633 0.986980
Si Si6 0.554045 0.739942 0.089494
Si Si7 0.296918 0.068481 0.416614
Si Si8 0.162241 0.049484 0.640520
O O1 0.063604 0.500000 0.500000
O O2 0.091661 0.396874 0.347164
O O3 0.067583 0.622739 0.356380
O O4 0.000000 0.465107 0.370599
O O5 0.848337 0.848055 0.285827
O O6 0.822965 0.964743 0.139409
O O7 0.839730 0.743088 0.119343
O O8 0.726135 0.643787 0.165340
O O9 0.789715 0.507450 0.186094
O O10 0.948687 0.861716 0.358828
O O11 0.889317 0.024195 0.362242
O O12 0.000000 0.049204 0.359595
O O13 0.947425 0.000000 0.500000
O O14 0.091388 0.266316 0.008104
O O15 0.168631 0.158065 0.032449
O O16 0.167741 0.386075 0.042563
O O17 0.500000 0.715690 0.052132
O O18 0.270231 0.000000 0.500000
#
# Coordination Sequence:
#
# PCOD9476306 Si02
#       8
#    16  16   8  16  16  16  16  16
#     4  10  16  25  51  84 113 149 196 253 306 353
#     4  10  18  34  54  82 116 155 200 258 317 369
#     4  10  22  40  56  84 122 158 212 276 324 396
#     4   9  19  38  62  86 126 178 212 251 317 396
#     4  10  18  35  58  83 114 155 200 255 319 384
#     4   9  16  28  53  87 117 152 203 250 297 362
#     4   9  18  35  58  78 104 146 193 251 325 377
#     4  10  23  38  59  88 125 162 213 267 321 395
#
# _framework density 26.101171999999998
#
# number of rings (size 3 to 8) (size 9 to 14) (size 15 to 20)
#    0.000    2.400    2.667    0.400    0.000    1.600 
#    0.000   12.667    0.000    0.000    0.000    0.000 
#    0.000    0.000    0.000    0.000    0.000    0.000 
#
# Total GULP energy -334374.340120 kJ/mol
# GULP energy per Si atom -5572.905669 kJ/mol
# Density = 2.604176 g / cm^3
# Si number density = 26.101172 Si / 1000 Ang^3
#
#
#
# Elastic Constant Matrix: (Units=GPa)
#
#
# Indices 1 2 3 4 5 6 
#
# 1 115.8090 24.6257 16.3632 0.0000 0.0000 0.0000
# 2 24.6257 84.8603 22.2454 0.0000 0.0000 0.0000
# 3 16.3632 22.2454 91.6446 0.0000 0.0000 0.0000
# 4 0.0000 0.0000 0.0000 15.7401 0.0000 0.0000
# 5 0.0000 0.0000 0.0000 0.0000 11.2267 0.0000
# 6 0.0000 0.0000 0.0000 0.0000 0.0000 30.5996
#
#
#
# Elastic Compliance Matrix: (Units=1/GPa)
#
#
# Indices 1 2 3 4 5 6 
#
# 1 0.009301 -0.002417 -0.001074 0.000000 0.000000 0.000000
# 2 -0.002417 0.013213 -0.002776 0.000000 0.000000 0.000000
# 3 -0.001074 -0.002776 0.011777 0.000000 0.000000 0.000000
# 4 0.000000 0.000000 0.000000 0.063532 0.000000 0.000000
# 5 0.000000 0.000000 0.000000 0.000000 0.089074 0.000000
# 6 0.000000 0.000000 0.000000 0.000000 0.000000 0.032680
#
#
# Mechanical properties :
#
#
# Convention : Reuss Voigt Hill
#
# Bulk Modulus (GPa) = 45.96195 46.53141 46.24668
# Shear Modulus (GPa) = 20.88874 26.78525 23.83699
#
# Velocity S-wave (km/s) = 2.83202 3.20692 3.02529
# Velocity P-wave (km/s) = 5.32365 5.61948 5.47356
#
# Compressibility (1/GPa) = 0.02175713
#
# Stress axis : x y z
#
# Youngs Moduli (GPa) = 107.51893 75.68178 84.90981
#
# Poissons Ratio (x) = 0.18296 0.09118
# Poissons Ratio (y) = 0.25993 0.23568
# Poissons Ratio (z) = 0.11546 0.21007
#
# Static dielectric constant tensor:
#      x y z
#    x 2.176440 0.000000 0.000000 
#    y 0.000000 2.104450 0.000000 
#    z 0.000000 0.000000 2.090170 
# 
# From -- ./inp_files/28510.got.cif
#   From: 2010.05.17/outbox.cif.g08.bks.cpg/sg64_15_cif.got.tgz:28510.got - 2010.06.03 16:29:19.
