data_PCOD9476050
_publ_section_title
;
Structure prediction by ZEFSAII (Michael W. Deem and Ramdas Pophale) SiO2 
 PCOD9476050
Probable space group: C M C M
;
_chemical_formula_sum "Si O2"
_cell_formula_units_Z 40
_cell_length_a 27.000000
_cell_length_b 18.000000
_cell_length_c 9.000000
_cell_angle_alpha 90.000000
_cell_angle_beta 90.000000
_cell_angle_gamma 90.000000
_cell_volume 4374.000000
_symmetry_space_group_name_H-M "C M C M"
_symmetry_group_IT_number 63
_symmetry_cell_setting 'orthorhombic'
loop_
_space_group_symop_operation_xyz
x,y,z
-x,-y,1/2+z
x,-y,-z
-x,y,1/2-z
-x,-y,-z
x,y,1/2-z
-x,y,z
x,-y,1/2+z
1/2+x,1/2+y,z
1/2-x,1/2-y,1/2+z
1/2+x,1/2-y,-z
1/2-x,1/2+y,1/2-z
1/2-x,1/2-y,-z
1/2+x,1/2+y,1/2-z
1/2-x,1/2+y,z
1/2+x,1/2-y,1/2+z
loop_
_atom_site_type_symbol
_atom_site_label
_atom_site_fract_x
_atom_site_fract_y
_atom_site_fract_z
Si Si1 0.697486 0.582432 0.570457
Si Si2 0.396619 0.339234 0.575168
Si Si3 0.390693 0.159755 0.578293
Si Si4 0.500000 0.333620 0.427547
Si Si5 0.500000 0.827437 0.427686
Si Si6 0.799697 0.418246 0.928102
O O1 0.693364 0.500000 0.500000
O O2 0.699499 0.579800 0.750000
O O3 0.649907 0.627187 0.512448
O O4 0.749281 0.613228 0.503055
O O5 0.395367 0.359917 0.750000
O O6 0.393033 0.249395 0.567885
O O7 0.449028 0.362657 0.501512
O O8 0.378915 0.140302 0.750000
O O9 0.447205 0.133258 0.546251
O O10 0.348255 0.127884 0.473387
O O11 0.500000 0.343448 0.250000
O O12 0.500000 0.246178 0.471649
O O13 0.500000 0.805900 0.250000
O O14 0.793988 0.422796 0.750000
O O15 0.805720 0.500000 0.000000
#
# Coordination Sequence:
#
# PCOD9476050 Si02
#       6
#    16  16  16   8   8  16
#     4  11  22  38  58  79 106 140 178 219 266 319
#     4  10  20  36  57  81 110 143 178 218 264 313
#     4   9  18  34  56  81 108 139 177 220 264 311
#     4  10  18  30  51  80 111 142 177 216 261 312
#     4   8  16  32  53  76 107 144 176 214 265 316
#     4  11  22  37  56  77 105 141 179 219 267 320
#
# _framework density 9.1449470000000002
#
# number of rings (size 3 to 8) (size 9 to 14) (size 15 to 20)
#    0.000    2.000    0.000    7.500    0.000    4.800 
#    0.000    1.000    0.000    0.000    0.000    0.000 
#    0.000    0.000    0.000    0.000    0.000    0.000 
#
# Total GULP energy -223195.620724 kJ/mol
# GULP energy per Si atom -5579.890518 kJ/mol
# Density = 0.912413 g / cm^3
# Si number density = 9.144947 Si / 1000 Ang^3
#
#
#
# Elastic Constant Matrix: (Units=GPa)
#
#
# Indices 1 2 3 4 5 6 
#
# 1 187.9336 33.2309 91.5414 0.0000 0.0000 0.0000
# 2 33.2309 16.6098 23.1507 0.0000 0.0000 0.0000
# 3 91.5414 23.1507 184.2257 0.0000 0.0000 0.0000
# 4 0.0000 0.0000 0.0000 25.2115 0.0000 0.0000
# 5 0.0000 0.0000 0.0000 0.0000 39.8286 0.0000
# 6 0.0000 0.0000 0.0000 0.0000 0.0000 -2.8704
#
#
#
# Elastic Compliance Matrix: (Units=1/GPa)
#
#
# Indices 1 2 3 4 5 6 
#
# 1 0.009260 -0.014685 -0.002756 0.000000 0.000000 0.000000
# 2 -0.014685 0.096279 -0.004802 0.000000 0.000000 0.000000
# 3 -0.002756 -0.004802 0.007401 0.000000 0.000000 0.000000
# 4 0.000000 0.000000 0.000000 0.039664 0.000000 0.000000
# 5 0.000000 0.000000 0.000000 0.000000 0.025108 0.000000
# 6 0.000000 0.000000 0.000000 0.000000 0.000000 -0.348389
#
#
# Mechanical properties :
#
#
# Convention : Reuss Voigt Hill
#
# Bulk Modulus (GPa) = 14.60836 76.06832 45.33834
# Shear Modulus (GPa) = -48.36833 28.49036 -9.93898
#
# Velocity S-wave (km/s) = -5.14809 3.95107 -2.33365
# Velocity P-wave (km/s) = 5.22806 7.90539 4.19301
#
# Compressibility (1/GPa) = 0.06845397
#
# Stress axis : x y z
#
# Youngs Moduli (GPa) = 107.99010 10.38649 135.11809
#
# Poissons Ratio (x) = 0.15253 0.37237
# Poissons Ratio (y) = 1.58587 0.64880
# Poissons Ratio (z) = 0.29761 0.04987
#
# Static dielectric constant tensor:
#      x y z
#    x 1.661740 0.000000 0.000000 
#    y 0.000000 1.630670 0.000000 
#    z 0.000000 0.000000 1.611410 
# 
# From -- ./inp_files/12119.got.cif
#   From: 2010.05.17/outbox.ucp.g08.bks.cvg/sg63_7_cif.got.tgz:12119.got - 2010.06.11 16:32:19.
