data_PCOD9476624
_publ_section_title
;
Structure prediction by ZEFSAII (Michael W. Deem and Ramdas Pophale) SiO2 
 PCOD9476624
Probable space group: C M C A
;
_chemical_formula_sum "Si O2"
_cell_formula_units_Z 112
_cell_length_a 7.416227
_cell_length_b 19.739397
_cell_length_c 35.149868
_cell_angle_alpha 90.000000
_cell_angle_beta 90.000000
_cell_angle_gamma 90.000000
_cell_volume 5145.654168
_symmetry_space_group_name_H-M "C M C A"
_symmetry_group_IT_number 64
_symmetry_cell_setting 'orthorhombic'
loop_
_space_group_symop_operation_xyz
x,y,z
-x,1/2-y,1/2+z
x,-y,-z
-x,1/2+y,1/2-z
-x,-y,-z
x,1/2+y,1/2-z
-x,y,z
x,1/2-y,1/2+z
1/2+x,1/2+y,z
1/2-x,-y,1/2+z
1/2+x,1/2-y,-z
1/2-x,y,1/2-z
1/2-x,1/2-y,-z
1/2+x,y,1/2-z
1/2-x,1/2+y,z
1/2+x,-y,1/2+z
loop_
_atom_site_type_symbol
_atom_site_label
_atom_site_fract_x
_atom_site_fract_y
_atom_site_fract_z
Si Si1 0.782271 0.088273 0.337383
Si Si2 0.215349 0.214975 0.293520
Si Si3 0.720367 0.044352 0.963379
Si Si4 0.787304 0.961622 0.378554
Si Si5 0.718506 0.179188 0.089521
Si Si6 0.282570 0.305055 0.135943
Si Si7 0.785214 0.171463 0.493735
O O1 0.716091 0.139520 0.304668
O O2 0.740062 0.128719 0.376292
O O3 0.000000 0.085136 0.332474
O O4 0.715970 0.012458 0.346033
O O5 0.250000 0.232288 0.250000
O O6 0.280148 0.269475 0.324767
O O7 0.000000 0.213340 0.298452
O O8 0.500000 0.040900 0.961929
O O9 0.784977 0.025352 0.921259
O O10 0.780059 0.120612 0.973945
O O11 0.773874 0.000000 0.000000
O O12 0.770005 0.882576 0.369061
O O13 0.000000 0.976578 0.381005
O O14 0.500000 0.181101 0.087460
O O15 0.778509 0.254326 0.102223
O O16 0.784789 0.155699 0.048568
O O17 0.500000 0.303805 0.135752
O O18 0.750000 0.250000 0.500000
O O19 0.000000 0.161534 0.492948
#
# Coordination Sequence:
#
# PCOD9476624 Si02
#       7
#    16  16  16  16  16  16  16
#     4   8  15  29  49  70  90 117 154 188 220 266
#     4   9  18  34  55  75  94 119 152 189 228 275
#     4   9  17  28  44  68  95 124 162 206 243 272
#     4  10  18  29  48  72  97 125 159 199 237 276
#     4   8  14  27  46  63  83 120 163 192 220 270
#     4   9  18  32  49  69  95 126 156 188 232 285
#     4  10  18  27  42  64  89 118 154 196 237 272
#
# _framework density 21.765941000000002
#
# number of rings (size 3 to 8) (size 9 to 14) (size 15 to 20)
#    0.000    3.000    0.000    3.429    0.000    4.000 
#    0.000    1.429    0.000    9.429    0.000    0.000 
#    0.000    0.000    0.000    0.000    0.000    0.000 
#
# Total GULP energy -312336.798538 kJ/mol
# GULP energy per Si atom -5577.442831 kJ/mol
# Density = 2.171640 g / cm^3
# Si number density = 21.765941 Si / 1000 Ang^3
#
#
#
# Elastic Constant Matrix: (Units=GPa)
#
#
# Indices 1 2 3 4 5 6 
#
# 1 65.6189 -6.7303 0.2113 0.0000 0.0000 0.0000
# 2 -6.7303 100.6874 10.4788 0.0000 0.0000 0.0000
# 3 0.2113 10.4788 81.3337 0.0000 0.0000 0.0000
# 4 0.0000 0.0000 0.0000 23.7625 0.0000 0.0000
# 5 0.0000 0.0000 0.0000 0.0000 -2.8806 0.0000
# 6 0.0000 0.0000 0.0000 0.0000 0.0000 18.9993
#
#
#
# Elastic Compliance Matrix: (Units=1/GPa)
#
#
# Indices 1 2 3 4 5 6 
#
# 1 0.015347 0.001044 -0.000174 0.000000 0.000000 0.000000
# 2 0.001044 0.010138 -0.001309 0.000000 0.000000 0.000000
# 3 -0.000174 -0.001309 0.012464 0.000000 0.000000 0.000000
# 4 0.000000 0.000000 0.000000 0.042083 0.000000 0.000000
# 5 0.000000 0.000000 0.000000 0.000000 -0.347152 0.000000
# 6 0.000000 0.000000 0.000000 0.000000 0.000000 0.052633
#
#
# Mechanical properties :
#
#
# Convention : Reuss Voigt Hill
#
# Bulk Modulus (GPa) = 26.97557 28.39552 27.68555
# Shear Modulus (GPa) = -24.84463 24.22159 -0.31152
#
# Velocity S-wave (km/s) = -3.38219 3.33952 -0.37873
# Velocity P-wave (km/s) = 1.68283 5.28621 3.54345
#
# Compressibility (1/GPa) = 0.03707058
#
# Stress axis : x y z
#
# Youngs Moduli (GPa) = 65.15868 98.64143 80.23037
#
# Poissons Ratio (x) = -0.10298 0.01399
# Poissons Ratio (y) = -0.06803 0.10501
# Poissons Ratio (z) = 0.01136 0.12911
#
# Static dielectric constant tensor:
#      x y z
#    x 1.948920 0.000000 0.000000 
#    y 0.000000 1.808220 0.000000 
#    z 0.000000 0.000000 1.769360 
# 
# From -- ./inp_files/52856.got.cif
#   From: 2010.05.17/outbox.cif.g08.bks.cpg/sg64_27_cif.got.tgz:52856.got - 2010.06.03 16:29:19.
