data_PCOD9476487
_publ_section_title
;
Structure prediction by ZEFSAII (Michael W. Deem and Ramdas Pophale) SiO2 
 PCOD9476487
Probable space group: C M C A
;
_chemical_formula_sum "Si O2"
_cell_formula_units_Z 128
_cell_length_a 22.686313
_cell_length_b 12.227033
_cell_length_c 25.837050
_cell_angle_alpha 90.000000
_cell_angle_beta 90.000000
_cell_angle_gamma 90.000000
_cell_volume 7166.843643
_symmetry_space_group_name_H-M "C M C A"
_symmetry_group_IT_number 64
_symmetry_cell_setting 'orthorhombic'
loop_
_space_group_symop_operation_xyz
x,y,z
-x,1/2-y,1/2+z
x,-y,-z
-x,1/2+y,1/2-z
-x,-y,-z
x,1/2+y,1/2-z
-x,y,z
x,1/2-y,1/2+z
1/2+x,1/2+y,z
1/2-x,-y,1/2+z
1/2+x,1/2-y,-z
1/2-x,y,1/2-z
1/2-x,1/2-y,-z
1/2+x,y,1/2-z
1/2-x,1/2+y,z
1/2+x,-y,1/2+z
loop_
_atom_site_type_symbol
_atom_site_label
_atom_site_fract_x
_atom_site_fract_y
_atom_site_fract_z
Si Si1 0.180861 0.501694 0.387082
Si Si2 0.891778 0.595595 0.699676
Si Si3 0.306188 0.903286 0.147276
Si Si4 0.436116 0.283455 0.628735
Si Si5 0.814572 0.236164 0.239839
Si Si6 0.808280 0.238591 0.064624
Si Si7 0.393974 0.946987 0.788509
Si Si8 0.330774 0.781701 0.445643
O O1 0.135161 0.489584 0.340494
O O2 0.244519 0.462797 0.365276
O O3 0.178635 0.622820 0.409050
O O4 0.165478 0.409608 0.429993
O O5 0.930444 0.677689 0.665979
O O6 0.836546 0.667753 0.721329
O O7 0.920309 0.536085 0.748943
O O8 0.306059 0.798084 0.185541
O O9 0.329115 0.847323 0.094611
O O10 0.346288 0.989990 0.176599
O O11 0.500000 0.283908 0.602405
O O12 0.431887 0.383014 0.669341
O O13 0.380497 0.277600 0.589420
O O14 0.750000 0.188963 0.250000
O O15 0.861760 0.142361 0.251791
O O16 0.736531 0.245971 0.066494
O O17 0.834137 0.236788 0.006865
#
# Coordination Sequence:
#
# PCOD9476487 Si02
#       8
#    16  16  16  16  16  16  16  16
#     4  10  17  29  50  75 107 141 169 204 266 334
#     4   9  19  32  47  79 108 136 175 215 257 319
#     4  10  20  29  46  77 109 145 171 207 265 323
#     4  10  21  39  58  73 101 143 187 232 263 312
#     4  10  18  28  45  74 115 148 169 202 259 327
#     4  10  19  32  53  75 108 138 164 222 278 331
#     4  10  21  31  50  77 107 141 183 216 257 323
#     4   9  20  35  50  78 103 133 182 219 270 328
#
# _framework density 17.860023999999999
#
# number of rings (size 3 to 8) (size 9 to 14) (size 15 to 20)
#    0.000    2.250    1.250    1.875    5.250    0.500 
#    0.000    1.875    0.000    7.500    0.000    0.000 
#    0.000    0.000    0.000    0.000    0.000    0.000 
#
# Total GULP energy -356319.246997 kJ/mol
# GULP energy per Si atom -5567.488234 kJ/mol
# Density = 1.781937 g / cm^3
# Si number density = 17.860024 Si / 1000 Ang^3
#
#
#
# Elastic Constant Matrix: (Units=GPa)
#
#
# Indices 1 2 3 4 5 6 
#
# 1 46.9538 2.1273 22.9334 0.0000 0.0000 0.0000
# 2 2.1273 53.4159 23.8243 0.0000 0.0000 0.0000
# 3 22.9334 23.8243 80.2603 0.0000 0.0000 0.0000
# 4 0.0000 0.0000 0.0000 28.4297 0.0000 0.0000
# 5 0.0000 0.0000 0.0000 0.0000 8.5145 0.0000
# 6 0.0000 0.0000 0.0000 0.0000 0.0000 0.3805
#
#
#
# Elastic Compliance Matrix: (Units=1/GPa)
#
#
# Indices 1 2 3 4 5 6 
#
# 1 0.025045 0.002529 -0.007907 0.000000 0.000000 0.000000
# 2 0.002529 0.021833 -0.007204 0.000000 0.000000 0.000000
# 3 -0.007907 -0.007204 0.016857 0.000000 0.000000 0.000000
# 4 0.000000 0.000000 0.000000 0.035174 0.000000 0.000000
# 5 0.000000 0.000000 0.000000 0.000000 0.117446 0.000000
# 6 0.000000 0.000000 0.000000 0.000000 0.000000 2.627934
#
#
# Mechanical properties :
#
#
# Convention : Reuss Voigt Hill
#
# Bulk Modulus (GPa) = 25.92528 30.93335 28.42932
# Shear Modulus (GPa) = 1.73472 16.24795 8.99134
#
# Velocity S-wave (km/s) = 0.98661 3.01946 2.24617
# Velocity P-wave (km/s) = 3.98060 5.43265 4.76229
#
# Compressibility (1/GPa) = 0.03857239
#
# Stress axis : x y z
#
# Youngs Moduli (GPa) = 39.92823 45.80171 59.32207
#
# Poissons Ratio (x) = -0.11585 0.46906
# Poissons Ratio (y) = -0.10099 0.42734
# Poissons Ratio (z) = 0.31572 0.32994
#
# Static dielectric constant tensor:
#      x y z
#    x 1.606860 0.000000 0.000000 
#    y 0.000000 1.624440 0.000000 
#    z 0.000000 0.000000 1.641030 
# 
# From -- ./inp_files/51150.got.cif
#   From: 2010.05.17/outbox.cif.g08.bks.cpg/sg64_26_cif.got.tgz:51150.got - 2010.06.03 16:29:19.
