data_PCOD9476424
_publ_section_title
;
Structure prediction by ZEFSAII (Michael W. Deem and Ramdas Pophale) SiO2 
 PCOD9476424
Probable space group: C M C A
;
_chemical_formula_sum "Si O2"
_cell_formula_units_Z 112
_cell_length_a 7.482654
_cell_length_b 28.405143
_cell_length_c 29.511958
_cell_angle_alpha 90.000000
_cell_angle_beta 90.000000
_cell_angle_gamma 90.000000
_cell_volume 6272.644402
_symmetry_space_group_name_H-M "C M C A"
_symmetry_group_IT_number 64
_symmetry_cell_setting 'orthorhombic'
loop_
_space_group_symop_operation_xyz
x,y,z
-x,1/2-y,1/2+z
x,-y,-z
-x,1/2+y,1/2-z
-x,-y,-z
x,1/2+y,1/2-z
-x,y,z
x,1/2-y,1/2+z
1/2+x,1/2+y,z
1/2-x,-y,1/2+z
1/2+x,1/2-y,-z
1/2-x,y,1/2-z
1/2-x,1/2-y,-z
1/2+x,y,1/2-z
1/2-x,1/2+y,z
1/2+x,-y,1/2+z
loop_
_atom_site_type_symbol
_atom_site_label
_atom_site_fract_x
_atom_site_fract_y
_atom_site_fract_z
Si Si1 0.783801 0.603108 0.395060
Si Si2 0.216512 0.301076 0.552023
Si Si3 0.214202 0.712231 0.892215
Si Si4 0.287035 0.355485 0.033709
Si Si5 0.714061 0.634778 0.199124
Si Si6 0.713842 0.742846 0.199194
Si Si7 0.781106 0.051038 0.016450
O O1 0.743416 0.654718 0.415483
O O2 0.719934 0.603901 0.343222
O O3 0.722598 0.565818 0.432796
O O4 0.000000 0.598984 0.394407
O O5 0.284353 0.253405 0.574435
O O6 0.282532 0.316706 0.502542
O O7 0.000000 0.297429 0.550005
O O8 0.252465 0.662695 0.915966
O O9 0.279801 0.724612 0.841834
O O10 0.000000 0.716199 0.891035
O O11 0.500000 0.356677 0.027896
O O12 0.223778 0.406584 0.017081
O O13 0.500000 0.637366 0.194524
O O14 0.750000 0.617710 0.250000
O O15 0.782280 0.688864 0.195503
O O16 0.500000 0.739786 0.194695
O O17 0.750000 0.759938 0.250000
O O18 0.000000 0.050588 0.016560
O O19 0.721622 0.000000 0.000000
#
# Coordination Sequence:
#
# PCOD9476424 Si02
#       7
#    16  16  16  16  16  16  16
#     4   8  12  21  38  57  78 107 136 161 196 240
#     4   8  13  23  37  54  79 109 135 157 187 230
#     4  10  17  26  40  56  79 110 138 160 190 237
#     4   9  17  26  39  60  82 103 131 167 201 231
#     4   9  15  24  38  56  79 107 136 163 194 233
#     4   9  17  27  39  55  77 108 141 168 194 230
#     4   8  14  25  42  63  83 102 132 173 208 240
#
# _framework density 17.855308000000001
#
# number of rings (size 3 to 8) (size 9 to 14) (size 15 to 20)
#    0.000    3.286    1.429    2.143    0.000    0.571 
#    0.000    0.000    0.000    3.857    0.000    1.000 
#    0.000    4.571    0.000    0.000    0.000    0.000 
#
# Total GULP energy -311920.393924 kJ/mol
# GULP energy per Si atom -5570.007034 kJ/mol
# Density = 1.781467 g / cm^3
# Si number density = 17.855308 Si / 1000 Ang^3
#
#
#
# Elastic Constant Matrix: (Units=GPa)
#
#
# Indices 1 2 3 4 5 6 
#
# 1 48.4993 3.8203 2.4860 0.0000 0.0000 0.0000
# 2 3.8203 86.7046 87.9437 0.0000 0.0000 0.0000
# 3 2.4860 87.9437 168.1484 0.0000 0.0000 0.0000
# 4 0.0000 0.0000 0.0000 17.9759 0.0000 0.0000
# 5 0.0000 0.0000 0.0000 0.0000 12.3262 0.0000
# 6 0.0000 0.0000 0.0000 0.0000 0.0000 -17.2333
#
#
#
# Elastic Compliance Matrix: (Units=1/GPa)
#
#
# Indices 1 2 3 4 5 6 
#
# 1 0.020701 -0.001282 0.000364 0.000000 0.000000 0.000000
# 2 -0.001282 0.024644 -0.012870 0.000000 0.000000 0.000000
# 3 0.000364 -0.012870 0.012673 0.000000 0.000000 0.000000
# 4 0.000000 0.000000 0.000000 0.055630 0.000000 0.000000
# 5 0.000000 0.000000 0.000000 0.000000 0.081128 0.000000
# 6 0.000000 0.000000 0.000000 0.000000 0.000000 -0.058027
#
#
# Mechanical properties :
#
#
# Convention : Reuss Voigt Hill
#
# Bulk Modulus (GPa) = 32.84814 54.65027 43.74920
# Shear Modulus (GPa) = 28.65795 16.55391 22.60593
#
# Velocity S-wave (km/s) = 4.01060 3.04816 3.56204
# Velocity P-wave (km/s) = 6.31533 6.56217 6.43993
#
# Compressibility (1/GPa) = 0.03044312
#
# Stress axis : x y z
#
# Youngs Moduli (GPa) = 48.30657 40.57781 78.90782
#
# Poissons Ratio (x) = 0.05200 -0.02874
# Poissons Ratio (y) = 0.06191 1.01556
# Poissons Ratio (z) = -0.01759 0.52224
#
# Static dielectric constant tensor:
#      x y z
#    x 1.690900 0.000000 0.000000 
#    y 0.000000 1.583330 0.000000 
#    z 0.000000 0.000000 1.662250 
# 
# From -- ./inp_files/44522.got.cif
#   From: 2010.05.17/outbox.cif.g08.bks.cpg/sg64_23_cif.got.tgz:44522.got - 2010.06.03 16:29:19.
