data_PCOD9476647
_publ_section_title
;
Structure prediction by ZEFSAII (Michael W. Deem and Ramdas Pophale) SiO2 
 PCOD9476647
Probable space group: C M C A
;
_chemical_formula_sum "Si O2"
_cell_formula_units_Z 80
_cell_length_a 7.566795
_cell_length_b 28.686235
_cell_length_c 18.827448
_cell_angle_alpha 90.000000
_cell_angle_beta 90.000000
_cell_angle_gamma 90.000000
_cell_volume 4086.739701
_symmetry_space_group_name_H-M "C M C A"
_symmetry_group_IT_number 64
_symmetry_cell_setting 'orthorhombic'
loop_
_space_group_symop_operation_xyz
x,y,z
-x,1/2-y,1/2+z
x,-y,-z
-x,1/2+y,1/2-z
-x,-y,-z
x,1/2+y,1/2-z
-x,y,z
x,1/2-y,1/2+z
1/2+x,1/2+y,z
1/2-x,-y,1/2+z
1/2+x,1/2-y,-z
1/2-x,y,1/2-z
1/2-x,1/2-y,-z
1/2+x,y,1/2-z
1/2-x,1/2+y,z
1/2+x,-y,1/2+z
loop_
_atom_site_type_symbol
_atom_site_label
_atom_site_fract_x
_atom_site_fract_y
_atom_site_fract_z
Si Si1 0.715659 0.897579 0.038980
Si Si2 0.711723 0.301547 0.526263
Si Si3 0.711170 0.343587 0.671031
Si Si4 0.715577 0.059068 0.110528
Si Si5 0.712072 0.459478 0.332453
O O1 0.500000 0.897005 0.040044
O O2 0.776865 0.920417 0.112267
O O3 0.775172 0.844824 0.022256
O O4 0.765254 0.929411 0.970885
O O5 0.500000 0.305633 0.527577
O O6 0.750000 0.250000 0.500000
O O7 0.777354 0.311943 0.606192
O O8 0.500000 0.345461 0.664744
O O9 0.750000 0.327419 0.750000
O O10 0.775039 0.396451 0.656792
O O11 0.500000 0.058084 0.111721
O O12 0.778482 0.010153 0.141642
O O13 0.500000 0.460703 0.339417
O O14 0.750000 0.451175 0.250000
#
# Coordination Sequence:
#
# PCOD9476647 Si02
#       5
#    16  16  16  16  16
#     4   8  15  29  48  67  87 116 154 188 217 260
#     4   9  18  33  51  69  89 116 153 193 230 269
#     4   9  17  29  46  70  96 117 143 185 231 272
#     4   8  14  26  46  69  90 116 152 186 215 257
#     4  10  18  28  45  68  94 123 151 180 216 260
#
# _framework density 19.575506000000001
#
# number of rings (size 3 to 8) (size 9 to 14) (size 15 to 20)
#    0.000    3.200    0.000    3.600    0.000    3.200 
#    0.000    2.000    0.000    9.600    0.000    0.000 
#    0.000    0.000    0.000    0.000    0.000    0.000 
#
# Total GULP energy -223018.753705 kJ/mol
# GULP energy per Si atom -5575.468843 kJ/mol
# Density = 1.953095 g / cm^3
# Si number density = 19.575506 Si / 1000 Ang^3
#
#
#
# Elastic Constant Matrix: (Units=GPa)
#
#
# Indices 1 2 3 4 5 6 
#
# 1 41.7510 6.8491 1.3137 0.0000 0.0000 0.0000
# 2 6.8491 148.4431 120.7474 0.0000 0.0000 0.0000
# 3 1.3137 120.7474 182.9348 0.0000 0.0000 0.0000
# 4 0.0000 0.0000 0.0000 18.3033 0.0000 0.0000
# 5 0.0000 0.0000 0.0000 0.0000 20.5011 0.0000
# 6 0.0000 0.0000 0.0000 0.0000 0.0000 15.5416
#
#
#
# Elastic Compliance Matrix: (Units=1/GPa)
#
#
# Indices 1 2 3 4 5 6 
#
# 1 0.024259 -0.002111 0.001219 0.000000 0.000000 0.000000
# 2 -0.002111 0.014731 -0.009708 0.000000 0.000000 0.000000
# 3 0.001219 -0.009708 0.011865 0.000000 0.000000 0.000000
# 4 0.000000 0.000000 0.000000 0.054635 0.000000 0.000000
# 5 0.000000 0.000000 0.000000 0.000000 0.048778 0.000000
# 6 0.000000 0.000000 0.000000 0.000000 0.000000 0.064343
#
#
# Mechanical properties :
#
#
# Convention : Reuss Voigt Hill
#
# Bulk Modulus (GPa) = 33.71993 70.10547 51.91270
# Shear Modulus (GPa) = 20.02428 27.15044 23.58736
#
# Velocity S-wave (km/s) = 3.20179 3.72823 3.47499
# Velocity P-wave (km/s) = 5.56162 7.37723 6.53281
#
# Compressibility (1/GPa) = 0.02965605
#
# Stress axis : x y z
#
# Youngs Moduli (GPa) = 41.22100 67.88567 84.27838
#
# Poissons Ratio (x) = 0.14331 -0.10275
# Poissons Ratio (y) = 0.08702 0.81817
# Poissons Ratio (z) = -0.05026 0.65903
#
# Static dielectric constant tensor:
#      x y z
#    x 1.766140 0.000000 0.000000 
#    y 0.000000 1.674390 0.000000 
#    z 0.000000 0.000000 1.694340 
# 
# From -- ./inp_files/22331.got.cif
#   From: 2010.05.17/outbox.cif.g08.bks.cpg/sg64_12_cif.got.tgz:22331.got - 2010.06.03 16:29:19.
