data_PCOD9476118
_publ_section_title
;
Structure prediction by ZEFSAII (Michael W. Deem and Ramdas Pophale) SiO2 
 PCOD9476118
Probable space group: C M C M
;
_chemical_formula_sum "Si O2"
_cell_formula_units_Z 52
_cell_length_a 30.000000
_cell_length_b 21.000000
_cell_length_c 9.000000
_cell_angle_alpha 90.000000
_cell_angle_beta 90.000000
_cell_angle_gamma 90.000000
_cell_volume 5670.000000
_symmetry_space_group_name_H-M "C M C M"
_symmetry_group_IT_number 63
_symmetry_cell_setting 'orthorhombic'
loop_
_space_group_symop_operation_xyz
x,y,z
-x,-y,1/2+z
x,-y,-z
-x,y,1/2-z
-x,-y,-z
x,y,1/2-z
-x,y,z
x,-y,1/2+z
1/2+x,1/2+y,z
1/2-x,1/2-y,1/2+z
1/2+x,1/2-y,-z
1/2-x,1/2+y,1/2-z
1/2-x,1/2-y,-z
1/2+x,1/2+y,1/2-z
1/2-x,1/2+y,z
1/2+x,1/2-y,1/2+z
loop_
_atom_site_type_symbol
_atom_site_label
_atom_site_fract_x
_atom_site_fract_y
_atom_site_fract_z
Si Si1 0.807028 0.708704 0.921577
Si Si2 0.500000 0.430912 0.574101
Si Si3 0.342997 0.568632 0.927153
Si Si4 0.412670 0.804733 0.076812
Si Si5 0.553767 0.933795 0.922229
Si Si6 0.083801 0.840961 0.929363
Si Si7 0.227458 0.850612 0.924913
O O1 0.792545 0.699318 0.750000
O O2 0.859081 0.695349 0.931808
O O3 0.797241 0.782912 0.956289
O O4 0.777757 0.664424 0.026995
O O5 0.500000 0.500000 0.500000
O O6 0.500000 0.442081 0.750000
O O7 0.457619 0.387092 0.539465
O O8 0.346081 0.564048 0.750000
O O9 0.353414 0.500000 0.000000
O O10 0.375723 0.623491 0.989823
O O11 0.294834 0.593409 0.981179
O O12 0.426328 0.809569 0.250000
O O13 0.425205 0.732605 0.025445
O O14 0.430436 0.867135 0.993763
O O15 0.567184 0.935539 0.750000
O O16 0.500000 0.933667 0.930258
O O17 0.568950 0.000000 0.000000
O O18 0.092349 0.839380 0.750000
O O19 0.223124 0.863857 0.750000
#
# Coordination Sequence:
#
# PCOD9476118 Si02
#       7
#    16   8  16  16  16  16  16
#     4   9  18  34  56  84 115 148 185 231 283 341
#     4  10  22  38  58  80 113 156 199 242 293 346
#     4  12  24  38  58  83 115 156 199 247 295 344
#     4  10  20  36  61  89 120 153 190 239 290 346
#     4  10  22  40  61  87 118 152 192 237 287 348
#     4  10  21  39  59  85 116 153 199 243 290 348
#     4  10  19  35  57  82 113 149 190 236 282 339
#
# _framework density 9.1710759999999993
#
# number of rings (size 3 to 8) (size 9 to 14) (size 15 to 20)
#    0.000    1.846    1.538    2.769    1.077    4.615 
#    0.000    0.769    0.000    3.692    0.000    0.000 
#    0.000    0.000    0.000    0.000    0.000    0.000 
#
# Total GULP energy -290160.276470 kJ/mol
# GULP energy per Si atom -5580.005317 kJ/mol
# Density = 0.915020 g / cm^3
# Si number density = 9.171076 Si / 1000 Ang^3
#
#
#
# Elastic Constant Matrix: (Units=GPa)
#
#
# Indices 1 2 3 4 5 6 
#
# 1 42.8266 35.1374 29.1198 0.0000 0.0000 0.0000
# 2 35.1374 172.8100 73.6169 0.0000 0.0000 0.0000
# 3 29.1198 73.6169 80.3353 0.0000 0.0000 0.0000
# 4 0.0000 0.0000 0.0000 36.4234 0.0000 0.0000
# 5 0.0000 0.0000 0.0000 0.0000 26.2697 0.0000
# 6 0.0000 0.0000 0.0000 0.0000 0.0000 61.2995
#
#
#
# Elastic Compliance Matrix: (Units=1/GPa)
#
#
# Indices 1 2 3 4 5 6 
#
# 1 0.031652 -0.002540 -0.009146 0.000000 0.000000 0.000000
# 2 -0.002540 0.009696 -0.007965 0.000000 0.000000 0.000000
# 3 -0.009146 -0.007965 0.023061 0.000000 0.000000 0.000000
# 4 0.000000 0.000000 0.000000 0.027455 0.000000 0.000000
# 5 0.000000 0.000000 0.000000 0.000000 0.038067 0.000000
# 6 0.000000 0.000000 0.000000 0.000000 0.000000 0.016313
#
#
# Mechanical properties :
#
#
# Convention : Reuss Voigt Hill
#
# Bulk Modulus (GPa) = 39.82557 63.52445 51.67501
# Shear Modulus (GPa) = 25.78447 35.33837 30.56142
#
# Velocity S-wave (km/s) = 3.75340 4.39409 4.08632
# Velocity P-wave (km/s) = 6.36740 7.77511 7.10620
#
# Compressibility (1/GPa) = 0.02510950
#
# Stress axis : x y z
#
# Youngs Moduli (GPa) = 31.59309 103.13561 43.36234
#
# Poissons Ratio (x) = 0.26193 0.39659
# Poissons Ratio (y) = 0.08024 0.34536
# Poissons Ratio (z) = 0.28895 0.82142
#
# Static dielectric constant tensor:
#      x y z
#    x 1.811170 0.000000 0.000000 
#    y 0.000000 1.610250 0.000000 
#    z 0.000000 0.000000 1.630570 
# 
# From -- ./inp_files/14448.got.cif
#   From: 2010.05.17/outbox.ucp.g08.bks.cvg/sg63_8_cif.got.tgz:14448.got - 2010.06.11 16:32:19.
