data_PCOD9476554
_publ_section_title
;
Structure prediction by ZEFSAII (Michael W. Deem and Ramdas Pophale) SiO2 
 PCOD9476554
Probable space group: C M C A
;
_chemical_formula_sum "Si O2"
_cell_formula_units_Z 112
_cell_length_a 14.439998
_cell_length_b 25.809902
_cell_length_c 13.101151
_cell_angle_alpha 90.000000
_cell_angle_beta 90.000000
_cell_angle_gamma 90.000000
_cell_volume 4882.732598
_symmetry_space_group_name_H-M "C M C A"
_symmetry_group_IT_number 64
_symmetry_cell_setting 'orthorhombic'
loop_
_space_group_symop_operation_xyz
x,y,z
-x,1/2-y,1/2+z
x,-y,-z
-x,1/2+y,1/2-z
-x,-y,-z
x,1/2+y,1/2-z
-x,y,z
x,1/2-y,1/2+z
1/2+x,1/2+y,z
1/2-x,-y,1/2+z
1/2+x,1/2-y,-z
1/2-x,y,1/2-z
1/2-x,1/2-y,-z
1/2+x,y,1/2-z
1/2-x,1/2+y,z
1/2+x,-y,1/2+z
loop_
_atom_site_type_symbol
_atom_site_label
_atom_site_fract_x
_atom_site_fract_y
_atom_site_fract_z
Si Si1 0.603231 0.897629 0.604973
Si Si2 0.607539 0.008001 0.623311
Si Si3 0.645414 0.169282 0.214219
Si Si4 0.211551 0.391636 0.396007
Si Si5 0.606540 0.744052 0.580251
Si Si6 0.601740 0.125594 0.993156
Si Si7 0.681100 0.276603 0.132972
O O1 0.500000 0.907920 0.563832
O O2 0.596680 0.852168 0.685970
O O3 0.667190 0.886354 0.509318
O O4 0.633419 0.950681 0.661988
O O5 0.500000 0.018028 0.646932
O O6 0.667387 0.057504 0.653467
O O7 0.617712 0.000000 0.500000
O O8 0.750000 0.161890 0.250000
O O9 0.625376 0.135984 0.112670
O O10 0.627733 0.230001 0.190540
O O11 0.318770 0.399878 0.424659
O O12 0.186579 0.337445 0.339638
O O13 0.500000 0.756592 0.613780
O O14 0.599290 0.683818 0.550115
O O15 0.631677 0.775147 0.477244
O O16 0.711262 0.743038 0.630538
O O17 0.500000 0.101643 0.985225
#
# Coordination Sequence:
#
# PCOD9476554 Si02
#       7
#    16  16  16  16  16  16  16
#     4  10  20  34  54  79 109 147 187 230 286 335
#     4   8  16  31  52  80 105 129 175 233 280 327
#     4  11  20  34  49  74 114 153 180 225 273 332
#     4  10  17  32  54  79 107 142 183 239 283 321
#     4   8  15  28  45  67 104 145 180 220 263 314
#     4   9  17  30  48  74 110 147 184 224 271 325
#     4   9  19  30  46  75 108 140 186 222 267 333
#
# _framework density 22.937975000000002
#
# number of rings (size 3 to 8) (size 9 to 14) (size 15 to 20)
#    0.000    2.714    1.429    2.571    0.000    1.714 
#    0.000    0.714    0.000    4.714    0.000    0.000 
#    0.000    0.571    0.857    0.000    0.000    1.429 
#
# Total GULP energy -311978.199393 kJ/mol
# GULP energy per Si atom -5571.039275 kJ/mol
# Density = 2.288577 g / cm^3
# Si number density = 22.937975 Si / 1000 Ang^3
#
#
#
# Elastic Constant Matrix: (Units=GPa)
#
#
# Indices 1 2 3 4 5 6 
#
# 1 121.1279 49.3674 10.8673 0.0000 0.0000 0.0000
# 2 49.3674 122.8191 26.3450 0.0000 0.0000 0.0000
# 3 10.8673 26.3450 34.3282 0.0000 0.0000 0.0000
# 4 0.0000 0.0000 0.0000 20.2932 0.0000 0.0000
# 5 0.0000 0.0000 0.0000 0.0000 19.6832 0.0000
# 6 0.0000 0.0000 0.0000 0.0000 0.0000 30.2438
#
#
#
# Elastic Compliance Matrix: (Units=1/GPa)
#
#
# Indices 1 2 3 4 5 6 
#
# 1 0.009873 -0.003948 -0.000096 0.000000 0.000000 0.000000
# 2 -0.003948 0.011325 -0.007442 0.000000 0.000000 0.000000
# 3 -0.000096 -0.007442 0.034872 0.000000 0.000000 0.000000
# 4 0.000000 0.000000 0.000000 0.049278 0.000000 0.000000
# 5 0.000000 0.000000 0.000000 0.000000 0.050805 0.000000
# 6 0.000000 0.000000 0.000000 0.000000 0.000000 0.033065
#
#
# Mechanical properties :
#
#
# Convention : Reuss Voigt Hill
#
# Bulk Modulus (GPa) = 30.21178 50.15942 40.18560
# Shear Modulus (GPa) = 22.39926 26.82374 24.61150
#
# Velocity S-wave (km/s) = 3.12831 3.42336 3.27916
# Velocity P-wave (km/s) = 5.12329 6.12705 5.64752
#
# Compressibility (1/GPa) = 0.03309967
#
# Stress axis : x y z
#
# Youngs Moduli (GPa) = 101.28187 88.29806 28.67639
#
# Poissons Ratio (x) = 0.34861 0.00274
# Poissons Ratio (y) = 0.39987 0.21340
# Poissons Ratio (z) = 0.00969 0.65708
#
# Static dielectric constant tensor:
#      x y z
#    x 1.812880 0.000000 0.000000 
#    y 0.000000 1.924100 0.000000 
#    z 0.000000 0.000000 1.960920 
# 
# From -- ./inp_files/24380.got.cif
#   From: 2010.05.17/outbox.cif.g08.bks.cpg/sg64_13_cif.got.tgz:24380.got - 2010.06.03 16:29:19.
