data_PCOD9476037
_publ_section_title
;
Structure prediction by ZEFSAII (Michael W. Deem and Ramdas Pophale) SiO2 
 PCOD9476037
Probable space group: C M C M
;
_chemical_formula_sum "Si O2"
_cell_formula_units_Z 58
_cell_length_a 18.000000
_cell_length_b 18.000000
_cell_length_c 18.000000
_cell_angle_alpha 90.000000
_cell_angle_beta 90.000000
_cell_angle_gamma 90.000000
_cell_volume 5832.000000
_symmetry_space_group_name_H-M "C M C M"
_symmetry_group_IT_number 63
_symmetry_cell_setting 'orthorhombic'
loop_
_space_group_symop_operation_xyz
x,y,z
-x,-y,1/2+z
x,-y,-z
-x,y,1/2-z
-x,-y,-z
x,y,1/2-z
-x,y,z
x,-y,1/2+z
1/2+x,1/2+y,z
1/2-x,1/2-y,1/2+z
1/2+x,1/2-y,-z
1/2-x,1/2+y,1/2-z
1/2-x,1/2-y,-z
1/2+x,1/2+y,1/2-z
1/2-x,1/2+y,z
1/2+x,1/2-y,1/2+z
loop_
_atom_site_type_symbol
_atom_site_label
_atom_site_fract_x
_atom_site_fract_y
_atom_site_fract_z
Si Si1 0.860975 0.956907 0.161079
Si Si2 0.306850 0.999197 0.159744
Si Si3 0.801907 0.332697 0.661792
Si Si4 0.631342 0.296461 0.626698
Si Si5 0.085251 0.933768 0.949942
Si Si6 0.585187 0.294228 0.159001
Si Si7 0.911392 0.636105 0.660305
Si Si8 0.000000 0.177491 0.250000
O O1 0.865455 0.957808 0.250000
O O2 0.775134 0.969781 0.139993
O O3 0.907871 0.025553 0.129825
O O4 0.890998 0.877121 0.134859
O O5 0.308735 0.002263 0.250000
O O6 0.368832 0.939035 0.138311
O O7 0.315642 0.083781 0.131955
O O8 0.816231 0.336522 0.750000
O O9 0.715513 0.311280 0.652930
O O10 0.857236 0.268789 0.632792
O O11 0.620479 0.352883 0.557780
O O12 0.619794 0.208196 0.617959
O O13 0.566101 0.317485 0.685220
O O14 0.000000 0.924462 0.972512
O O15 0.119308 0.000000 0.000000
O O16 0.587483 0.295190 0.250000
O O17 0.500000 0.279313 0.137312
O O18 0.899011 0.648409 0.750000
O O19 0.000000 0.630833 0.650450
#
# Coordination Sequence:
#
# PCOD9476037 Si02
#       8
#    16  16  16  16  16  16  16   4
#     4  10  19  33  54  78 103 136 178 217 252 306
#     4   9  18  28  45  75 106 138 173 214 263 304
#     4  10  18  29  48  74 107 139 174 218 259 305
#     4  12  19  32  51  76 106 135 178 212 260 306
#     4  11  24  36  50  76 111 141 167 209 267 319
#     4   9  18  31  47  74 107 142 177 213 260 306
#     4  10  17  28  45  74 109 139 173 214 261 309
#     4  12  20  28  54  84 106 136 176 222 244 318
#
# _framework density 9.9451300000000007
#
# number of rings (size 3 to 8) (size 9 to 14) (size 15 to 20)
#    0.000    1.793    4.138    1.241    0.966    3.586 
#    0.000    2.759    0.000    3.310    0.000    0.000 
#    0.000    1.103    0.000    0.000    0.000    0.000 
#
# Total GULP energy -323039.955630 kJ/mol
# GULP energy per Si atom -5569.654407 kJ/mol
# Density = 0.992249 g / cm^3
# Si number density = 9.945130 Si / 1000 Ang^3
#
#
#
# Elastic Constant Matrix: (Units=GPa)
#
#
# Indices 1 2 3 4 5 6 
#
# 1 85.9784 75.2027 -0.8666 0.0000 0.0000 0.0000
# 2 75.2027 151.8458 -3.5378 0.0000 0.0000 0.0000
# 3 -0.8666 -3.5378 -1.3009 0.0000 0.0000 0.0000
# 4 0.0000 0.0000 0.0000 -66.9769 0.0000 0.0000
# 5 0.0000 0.0000 0.0000 0.0000 9.2224 0.0000
# 6 0.0000 0.0000 0.0000 0.0000 0.0000 29.1066
#
#
#
# Elastic Compliance Matrix: (Units=1/GPa)
#
#
# Indices 1 2 3 4 5 6 
#
# 1 0.020284 -0.009743 0.012985 0.000000 0.000000 0.000000
# 2 -0.009743 0.010873 -0.023080 0.000000 0.000000 0.000000
# 3 0.012985 -0.023080 -0.714593 0.000000 0.000000 0.000000
# 4 0.000000 0.000000 0.000000 -0.014931 0.000000 0.000000
# 5 0.000000 0.000000 0.000000 0.000000 0.108432 0.000000
# 6 0.000000 0.000000 0.000000 0.000000 0.000000 0.034356
#
#
# Mechanical properties :
#
#
# Convention : Reuss Voigt Hill
#
# Bulk Modulus (GPa) = -1.38291 42.01332 20.31521
# Shear Modulus (GPa) = -6.60554 5.31873 -0.64341
#
# Velocity S-wave (km/s) = -1.82434 1.63702 -0.56937
# Velocity P-wave (km/s) = 2.26592 4.97409 3.13107
#
# Compressibility (1/GPa) = -0.72311247
#
# Stress axis : x y z
#
# Youngs Moduli (GPa) = 49.30059 91.96887 -1.39940
#
# Poissons Ratio (x) = 0.89606 0.01817
# Poissons Ratio (y) = 0.48034 -0.03230
# Poissons Ratio (z) = -0.64018 2.12266
#
# Static dielectric constant tensor:
#      x y z
#    x 1.678310 0.000000 0.000000 
#    y 0.000000 1.728670 0.000000 
#    z 0.000000 0.000000 1.767390 
# 
# From -- ./inp_files/45908.got.cif
#   From: 2010.05.17/outbox.ucp.g08.bks.cvg/sg63_23_cif.got.tgz:45908.got - 2010.06.11 16:32:19.
