data_PCOD9476153
_publ_section_title
;
Structure prediction by ZEFSAII (Michael W. Deem and Ramdas Pophale) SiO2 
 PCOD9476153
Probable space group: C M C M
;
_chemical_formula_sum "Si O2"
_cell_formula_units_Z 64
_cell_length_a 24.000000
_cell_length_b 12.000000
_cell_length_c 24.000000
_cell_angle_alpha 90.000000
_cell_angle_beta 90.000000
_cell_angle_gamma 90.000000
_cell_volume 6912.000000
_symmetry_space_group_name_H-M "C M C M"
_symmetry_group_IT_number 63
_symmetry_cell_setting 'orthorhombic'
loop_
_space_group_symop_operation_xyz
x,y,z
-x,-y,1/2+z
x,-y,-z
-x,y,1/2-z
-x,-y,-z
x,y,1/2-z
-x,y,z
x,-y,1/2+z
1/2+x,1/2+y,z
1/2-x,1/2-y,1/2+z
1/2+x,1/2-y,-z
1/2-x,1/2+y,1/2-z
1/2-x,1/2-y,-z
1/2+x,1/2+y,1/2-z
1/2-x,1/2+y,z
1/2+x,1/2-y,1/2+z
loop_
_atom_site_type_symbol
_atom_site_label
_atom_site_fract_x
_atom_site_fract_y
_atom_site_fract_z
Si Si1 0.934609 0.184168 0.374856
Si Si2 0.660464 0.879889 0.883698
Si Si3 0.725484 0.310748 0.316667
Si Si4 0.873639 0.025927 0.816628
Si Si5 0.658981 0.135101 0.872885
Si Si6 0.589901 0.631415 0.501385
Si Si7 0.561100 0.283669 0.379233
Si Si8 0.310982 0.799641 0.498402
O O1 0.897813 0.295064 0.363008
O O2 0.935394 0.167903 0.442084
O O3 0.000000 0.184689 0.356272
O O4 0.897756 0.083115 0.348099
O O5 0.698969 0.795528 0.848200
O O6 0.600449 0.822366 0.882380
O O7 0.656030 0.004054 0.861378
O O8 0.680463 0.878192 0.948087
O O9 0.722262 0.296646 0.250000
O O10 0.687994 0.422067 0.330540
O O11 0.788713 0.320708 0.337329
O O12 0.875941 0.008777 0.750000
O O13 0.913228 0.125751 0.837497
O O14 0.674484 0.149973 0.938346
O O15 0.596620 0.500000 0.500000
O O16 0.559674 0.664013 0.558617
O O17 0.648050 0.695173 0.506306
O O18 0.500000 0.253062 0.360938
O O19 0.250000 0.750000 0.500000
#
# Coordination Sequence:
#
# PCOD9476153 Si02
#       8
#    16  16  16  16  16  16  16  16
#     4  11  24  39  58  91 127 163 204 245 300 366
#     4  10  22  40  59  88 120 153 199 242 295 359
#     4  10  23  42  64  89 117 152 202 255 304 357
#     4  10  22  39  61  89 118 152 199 257 306 349
#     4  11  24  39  62  88 122 163 197 242 304 366
#     4  10  20  33  56  87 120 157 197 246 300 351
#     4  10  20  36  60  87 116 155 198 242 293 348
#     4  10  20  36  56  88 121 155 195 245 301 363
#
# _framework density 9.2592590000000001
#
# number of rings (size 3 to 8) (size 9 to 14) (size 15 to 20)
#    0.000    1.750    2.500    1.125    1.750    4.000 
#    0.000    0.000    0.000    4.500    0.000    3.500 
#    0.000    0.000    0.000    0.000    0.000    0.000 
#
# Total GULP energy -356978.850597 kJ/mol
# GULP energy per Si atom -5577.794541 kJ/mol
# Density = 0.923818 g / cm^3
# Si number density = 9.259259 Si / 1000 Ang^3
#
#
#
# Elastic Constant Matrix: (Units=GPa)
#
#
# Indices 1 2 3 4 5 6 
#
# 1 87.7624 34.8524 15.5244 0.0000 0.0000 0.0000
# 2 34.8524 100.3293 1.5270 0.0000 0.0000 0.0000
# 3 15.5244 1.5270 46.8305 0.0000 0.0000 0.0000
# 4 0.0000 0.0000 0.0000 14.9210 0.0000 0.0000
# 5 0.0000 0.0000 0.0000 0.0000 -15.8993 0.0000
# 6 0.0000 0.0000 0.0000 0.0000 0.0000 1.2870
#
#
#
# Elastic Compliance Matrix: (Units=1/GPa)
#
#
# Indices 1 2 3 4 5 6 
#
# 1 0.014114 -0.004834 -0.004521 0.000000 0.000000 0.000000
# 2 -0.004834 0.011628 0.001223 0.000000 0.000000 0.000000
# 3 -0.004521 0.001223 0.022812 0.000000 0.000000 0.000000
# 4 0.000000 0.000000 0.000000 0.067019 0.000000 0.000000
# 5 0.000000 0.000000 0.000000 0.000000 -0.062896 0.000000
# 6 0.000000 0.000000 0.000000 0.000000 0.000000 0.776994
#
#
# Mechanical properties :
#
#
# Convention : Reuss Voigt Hill
#
# Bulk Modulus (GPa) = 30.96890 37.63663 34.30277
# Shear Modulus (GPa) = 5.83635 12.26297 9.04966
#
# Velocity S-wave (km/s) = 1.77721 2.57612 2.21301
# Velocity P-wave (km/s) = 4.57939 5.40522 5.00935
#
# Compressibility (1/GPa) = 0.03229046
#
# Stress axis : x y z
#
# Youngs Moduli (GPa) = 70.85229 86.00072 43.83562
#
# Poissons Ratio (x) = 0.41573 0.19819
# Poissons Ratio (y) = 0.34250 -0.05363
# Poissons Ratio (z) = 0.32033 -0.10521
#
# Static dielectric constant tensor:
#      x y z
#    x 1.628570 0.000000 0.000000 
#    y 0.000000 1.622550 0.000000 
#    z 0.000000 0.000000 1.653590 
# 
# From -- ./inp_files/65182.got.cif
#   From: 2010.05.17/outbox.ucp.g08.bks.cvg/sg63_33_cif.got.tgz:65182.got - 2010.06.11 16:32:19.
