data_PCOD9476895
_publ_section_title
;
Structure prediction by ZEFSAII (Michael W. Deem and Ramdas Pophale) SiO2 
 PCOD9476895
Probable space group: C M C A
;
_chemical_formula_sum "Si O2"
_cell_formula_units_Z 80
_cell_length_a 8.579304
_cell_length_b 16.015649
_cell_length_c 29.911173
_cell_angle_alpha 90.000000
_cell_angle_beta 90.000000
_cell_angle_gamma 90.000000
_cell_volume 4109.888539
_symmetry_space_group_name_H-M "C M C A"
_symmetry_group_IT_number 64
_symmetry_cell_setting 'orthorhombic'
loop_
_space_group_symop_operation_xyz
x,y,z
-x,1/2-y,1/2+z
x,-y,-z
-x,1/2+y,1/2-z
-x,-y,-z
x,1/2+y,1/2-z
-x,y,z
x,1/2-y,1/2+z
1/2+x,1/2+y,z
1/2-x,-y,1/2+z
1/2+x,1/2-y,-z
1/2-x,y,1/2-z
1/2-x,1/2-y,-z
1/2+x,y,1/2-z
1/2-x,1/2+y,z
1/2+x,-y,1/2+z
loop_
_atom_site_type_symbol
_atom_site_label
_atom_site_fract_x
_atom_site_fract_y
_atom_site_fract_z
Si Si1 0.190035 0.411644 0.607044
Si Si2 0.186777 0.347565 0.703062
Si Si3 0.813603 0.841470 0.203458
Si Si4 0.813272 0.751952 0.949925
Si Si5 0.811960 0.403524 0.393998
O O1 0.237740 0.394895 0.658306
O O2 0.242410 0.335099 0.576214
O O3 0.239013 0.503729 0.591966
O O4 0.000000 0.411084 0.606822
O O5 0.250000 0.381660 0.750000
O O6 0.245143 0.252019 0.699228
O O7 0.000000 0.347392 0.704695
O O8 0.750000 0.877596 0.250000
O O9 0.772888 0.890219 0.158323
O O10 0.000000 0.835883 0.206448
O O11 0.759715 0.670590 0.922780
O O12 0.000000 0.754249 0.950911
O O13 0.750000 0.750000 0.000000
O O14 0.000000 0.398353 0.397872
#
# Coordination Sequence:
#
# PCOD9476895 Si02
#       5
#    16  16  16  16  16
#     4   9  20  38  60  83 115 154 189 227 284 348
#     4  10  18  32  54  81 114 153 194 230 275 333
#     4  10  19  31  53  82 115 151 190 231 275 327
#     4  11  23  42  64  86 113 148 187 237 293 347
#     4  10  21  39  61  86 114 151 194 234 279 340
#
# _framework density 19.465247999999999
#
# number of rings (size 3 to 8) (size 9 to 14) (size 15 to 20)
#    0.000    2.000    2.000    3.000    0.000    2.400 
#    0.000    8.000    0.000    0.000    0.000    0.000 
#    0.000    0.000    0.000    0.000    0.000    0.000 
#
# Total GULP energy -223364.146346 kJ/mol
# GULP energy per Si atom -5584.103659 kJ/mol
# Density = 1.942094 g / cm^3
# Si number density = 19.465248 Si / 1000 Ang^3
#
#
#
# Elastic Constant Matrix: (Units=GPa)
#
#
# Indices 1 2 3 4 5 6 
#
# 1 37.3275 32.2914 42.4069 0.0000 0.0000 0.0000
# 2 32.2914 154.9018 88.8692 0.0000 0.0000 0.0000
# 3 42.4069 88.8692 155.8425 0.0000 0.0000 0.0000
# 4 0.0000 0.0000 0.0000 6.6351 0.0000 0.0000
# 5 0.0000 0.0000 0.0000 0.0000 25.1842 0.0000
# 6 0.0000 0.0000 0.0000 0.0000 0.0000 19.6132
#
#
#
# Elastic Compliance Matrix: (Units=1/GPa)
#
#
# Indices 1 2 3 4 5 6 
#
# 1 0.039750 -0.003093 -0.009053 0.000000 0.000000 0.000000
# 2 -0.003093 0.009835 -0.004767 0.000000 0.000000 0.000000
# 3 -0.009053 -0.004767 0.011599 0.000000 0.000000 0.000000
# 4 0.000000 0.000000 0.000000 0.150714 0.000000 0.000000
# 5 0.000000 0.000000 0.000000 0.000000 0.039707 0.000000
# 6 0.000000 0.000000 0.000000 0.000000 0.000000 0.050986
#
#
# Mechanical properties :
#
#
# Convention : Reuss Voigt Hill
#
# Bulk Modulus (GPa) = 36.55135 75.02297 55.78716
# Shear Modulus (GPa) = 14.47026 22.58679 18.52852
#
# Velocity S-wave (km/s) = 2.72947 3.41011 3.08860
# Velocity P-wave (km/s) = 5.36208 7.35736 6.43750
#
# Compressibility (1/GPa) = 0.02735877
#
# Stress axis : x y z
#
# Youngs Moduli (GPa) = 25.15705 101.67434 86.21739
#
# Poissons Ratio (x) = 0.31444 0.78053
# Poissons Ratio (y) = 0.07780 0.41100
# Poissons Ratio (z) = 0.22775 0.48469
#
# Static dielectric constant tensor:
#      x y z
#    x 1.666490 0.000000 0.000000 
#    y 0.000000 1.685400 0.000000 
#    z 0.000000 0.000000 1.673520 
# 
# From -- ./inp_files/47845.got.cif
#   From: 2010.05.17/outbox.cif.g08.bks.cpg/sg64_24_cif.got.tgz:47845.got - 2010.06.03 16:29:19.
