data_PCOD9476500
_publ_section_title
;
Structure prediction by ZEFSAII (Michael W. Deem and Ramdas Pophale) SiO2 
 PCOD9476500
Probable space group: C M C A
;
_chemical_formula_sum "Si O2"
_cell_formula_units_Z 104
_cell_length_a 26.775240
_cell_length_b 9.544787
_cell_length_c 22.861368
_cell_angle_alpha 90.000000
_cell_angle_beta 90.000000
_cell_angle_gamma 90.000000
_cell_volume 5842.541798
_symmetry_space_group_name_H-M "C M C A"
_symmetry_group_IT_number 64
_symmetry_cell_setting 'orthorhombic'
loop_
_space_group_symop_operation_xyz
x,y,z
-x,1/2-y,1/2+z
x,-y,-z
-x,1/2+y,1/2-z
-x,-y,-z
x,1/2+y,1/2-z
-x,y,z
x,1/2-y,1/2+z
1/2+x,1/2+y,z
1/2-x,-y,1/2+z
1/2+x,1/2-y,-z
1/2-x,y,1/2-z
1/2-x,1/2-y,-z
1/2+x,y,1/2-z
1/2-x,1/2+y,z
1/2+x,-y,1/2+z
loop_
_atom_site_type_symbol
_atom_site_label
_atom_site_fract_x
_atom_site_fract_y
_atom_site_fract_z
Si Si1 0.130395 0.000000 0.000000
Si Si2 0.939348 0.749416 0.283457
Si Si3 0.942356 0.143229 0.092386
Si Si4 0.285854 0.199727 0.553465
Si Si5 0.907063 0.447505 0.066232
Si Si6 0.297678 0.004759 0.929211
Si Si7 0.560027 0.060159 0.180206
O O1 0.095147 0.941972 0.948463
O O2 0.166680 0.121262 0.974368
O O3 0.927631 0.650581 0.339114
O O4 0.921594 0.681715 0.223061
O O5 0.000000 0.755245 0.282057
O O6 0.922601 0.907836 0.296063
O O7 0.938531 0.306397 0.073256
O O8 0.000000 0.095910 0.087094
O O9 0.250000 0.250000 0.500000
O O10 0.298878 0.341478 0.587977
O O11 0.251717 0.088657 0.588368
O O12 0.849514 0.419016 0.084198
O O13 0.925500 0.563034 0.112357
O O14 0.908922 0.500000 0.000000
O O15 0.296897 0.000000 0.000000
O O16 0.500000 0.061160 0.183001
#
# Coordination Sequence:
#
# PCOD9476500 Si02
#       7
#     8  16  16  16  16  16  16
#     4  12  19  30  52  72 108 136 173 210 272 316
#     4   8  16  33  51  68  94 134 182 216 249 293
#     4  10  21  34  48  72 111 150 174 210 261 315
#     4  10  17  30  48  70 101 134 168 212 257 313
#     4  10  19  32  51  77 111 136 177 210 268 320
#     4   9  17  29  47  71 102 127 167 212 258 311
#     4   9  17  32  53  72  98 138 176 219 254 298
#
# _framework density 17.800471999999999
#
# number of rings (size 3 to 8) (size 9 to 14) (size 15 to 20)
#    0.000    2.462    2.308    4.385    0.000    1.231 
#    5.538    0.000    0.000    0.000    0.000    1.077 
#    4.615    0.000    0.000    0.000    0.000    0.000 
#
# Total GULP energy -289481.938502 kJ/mol
# GULP energy per Si atom -5566.960356 kJ/mol
# Density = 1.775996 g / cm^3
# Si number density = 17.800472 Si / 1000 Ang^3
#
#
#
# Elastic Constant Matrix: (Units=GPa)
#
#
# Indices 1 2 3 4 5 6 
#
# 1 63.1466 18.5800 8.6151 0.0000 0.0000 0.0000
# 2 18.5800 48.6344 14.5943 0.0000 0.0000 0.0000
# 3 8.6151 14.5943 75.0504 0.0000 0.0000 0.0000
# 4 0.0000 0.0000 0.0000 22.9437 0.0000 0.0000
# 5 0.0000 0.0000 0.0000 0.0000 -1.2975 0.0000
# 6 0.0000 0.0000 0.0000 0.0000 0.0000 26.9830
#
#
#
# Elastic Compliance Matrix: (Units=1/GPa)
#
#
# Indices 1 2 3 4 5 6 
#
# 1 0.017883 -0.006601 -0.000769 0.000000 0.000000 0.000000
# 2 -0.006601 0.024273 -0.003962 0.000000 0.000000 0.000000
# 3 -0.000769 -0.003962 0.014183 0.000000 0.000000 0.000000
# 4 0.000000 0.000000 0.000000 0.043585 0.000000 0.000000
# 5 0.000000 0.000000 0.000000 0.000000 -0.770688 0.000000
# 6 0.000000 0.000000 0.000000 0.000000 0.000000 0.037060
#
#
# Mechanical properties :
#
#
# Convention : Reuss Voigt Hill
#
# Bulk Modulus (GPa) = 29.69678 30.04558 29.87118
# Shear Modulus (GPa) = -8.33592 19.39529 5.52969
#
# Velocity S-wave (km/s) = -2.16637 3.30448 1.76443
# Velocity P-wave (km/s) = 3.23448 5.61028 4.57914
#
# Compressibility (1/GPa) = 0.03367369
#
# Stress axis : x y z
#
# Youngs Moduli (GPa) = 55.91763 41.19886 70.50606
#
# Poissons Ratio (x) = 0.27197 0.05423
# Poissons Ratio (y) = 0.36913 0.27936
# Poissons Ratio (z) = 0.04301 0.16324
#
# Static dielectric constant tensor:
#      x y z
#    x 1.668120 0.000000 0.000000 
#    y 0.000000 1.700910 0.000000 
#    z 0.000000 0.000000 1.615710 
# 
# From -- ./inp_files/46886.got.cif
#   From: 2010.05.17/outbox.cif.g08.bks.cpg/sg64_24_cif.got.tgz:46886.got - 2010.06.03 16:29:19.
