data_PCOD9476714
_publ_section_title
;
Structure prediction by ZEFSAII (Michael W. Deem and Ramdas Pophale) SiO2 
 PCOD9476714
Probable space group: C M C A
;
_chemical_formula_sum "Si O2"
_cell_formula_units_Z 96
_cell_length_a 8.629521
_cell_length_b 28.077353
_cell_length_c 24.504476
_cell_angle_alpha 90.000000
_cell_angle_beta 90.000000
_cell_angle_gamma 90.000000
_cell_volume 5937.290138
_symmetry_space_group_name_H-M "C M C A"
_symmetry_group_IT_number 64
_symmetry_cell_setting 'orthorhombic'
loop_
_space_group_symop_operation_xyz
x,y,z
-x,1/2-y,1/2+z
x,-y,-z
-x,1/2+y,1/2-z
-x,-y,-z
x,1/2+y,1/2-z
-x,y,z
x,1/2-y,1/2+z
1/2+x,1/2+y,z
1/2-x,-y,1/2+z
1/2+x,1/2-y,-z
1/2-x,y,1/2-z
1/2-x,1/2-y,-z
1/2+x,y,1/2-z
1/2-x,1/2+y,z
1/2+x,-y,1/2+z
loop_
_atom_site_type_symbol
_atom_site_label
_atom_site_fract_x
_atom_site_fract_y
_atom_site_fract_z
Si Si1 0.184959 0.822544 0.481329
Si Si2 0.184806 0.771104 0.914517
Si Si3 0.687433 0.074350 0.526873
Si Si4 0.313471 0.076044 0.309018
Si Si5 0.811835 0.978951 0.915985
Si Si6 0.184271 0.182368 0.308531
O O1 0.226253 0.780910 0.438377
O O2 0.263583 0.808138 0.538569
O O3 0.240056 0.874395 0.463346
O O4 0.000000 0.821595 0.488538
O O5 0.265620 0.784085 0.858057
O O6 0.000000 0.773760 0.907733
O O7 0.500000 0.078037 0.528094
O O8 0.732471 0.054943 0.466686
O O9 0.735669 0.032638 0.568754
O O10 0.500000 0.076747 0.307565
O O11 0.250000 0.061000 0.250000
O O12 0.260308 0.042378 0.358517
O O13 0.254502 0.129773 0.318878
O O14 0.000000 0.979178 0.915583
O O15 0.250000 0.198483 0.250000
O O16 0.000000 0.178487 0.305230
#
# Coordination Sequence:
#
# PCOD9476714 Si02
#       6
#    16  16  16  16  16  16
#     4  10  20  32  48  73 100 125 157 197 241 285
#     4  10  20  34  50  69  97 130 161 195 236 283
#     4   9  16  30  50  69  91 122 158 194 236 282
#     4  10  18  30  47  69  97 127 158 191 231 278
#     4   8  16  29  47  69  92 122 158 193 231 279
#     4  11  21  33  50  73  99 126 159 196 238 285
#
# _framework density 16.168993
#
# number of rings (size 3 to 8) (size 9 to 14) (size 15 to 20)
#    0.000    2.333    0.000    6.000    0.000    3.333 
#    0.000    4.167    0.000    1.000    0.000    4.667 
#    0.000    0.000    0.000    0.000    0.000    0.000 
#
# Total GULP energy -267781.549680 kJ/mol
# GULP energy per Si atom -5578.782285 kJ/mol
# Density = 1.613219 g / cm^3
# Si number density = 16.168993 Si / 1000 Ang^3
#
#
#
# Elastic Constant Matrix: (Units=GPa)
#
#
# Indices 1 2 3 4 5 6 
#
# 1 55.2196 25.8135 36.6760 0.0000 0.0000 0.0000
# 2 25.8135 88.3308 58.6067 0.0000 0.0000 0.0000
# 3 36.6760 58.6067 125.9151 0.0000 0.0000 0.0000
# 4 0.0000 0.0000 0.0000 20.0213 0.0000 0.0000
# 5 0.0000 0.0000 0.0000 0.0000 25.3481 0.0000
# 6 0.0000 0.0000 0.0000 0.0000 0.0000 24.8934
#
#
#
# Elastic Compliance Matrix: (Units=1/GPa)
#
#
# Indices 1 2 3 4 5 6 
#
# 1 0.023103 -0.003308 -0.005189 0.000000 0.000000 0.000000
# 2 -0.003308 0.016853 -0.006881 0.000000 0.000000 0.000000
# 3 -0.005189 -0.006881 0.012656 0.000000 0.000000 0.000000
# 4 0.000000 0.000000 0.000000 0.049947 0.000000 0.000000
# 5 0.000000 0.000000 0.000000 0.000000 0.039451 0.000000
# 6 0.000000 0.000000 0.000000 0.000000 0.000000 0.040171
#
#
# Mechanical properties :
#
#
# Convention : Reuss Voigt Hill
#
# Bulk Modulus (GPa) = 45.75580 56.85089 51.30334
# Shear Modulus (GPa) = 22.70431 23.94383 23.32407
#
# Velocity S-wave (km/s) = 3.75132 3.85235 3.80217
# Velocity P-wave (km/s) = 6.86462 7.41784 7.14658
#
# Compressibility (1/GPa) = 0.02185515
#
# Stress axis : x y z
#
# Youngs Moduli (GPa) = 43.28478 59.33622 79.01427
#
# Poissons Ratio (x) = 0.19631 0.41004
# Poissons Ratio (y) = 0.14320 0.54366
# Poissons Ratio (z) = 0.22462 0.40827
#
# Static dielectric constant tensor:
#      x y z
#    x 1.547300 0.000000 0.000000 
#    y 0.000000 1.530180 0.000000 
#    z 0.000000 0.000000 1.534490 
# 
# From -- ./inp_files/43158.got.cif
#   From: 2010.05.17/outbox.cif.g08.bks.cpg/sg64_22_cif.got.tgz:43158.got - 2010.06.03 16:29:19.
