data_PCOD9476794
_publ_section_title
;
Structure prediction by ZEFSAII (Michael W. Deem and Ramdas Pophale) SiO2 
 PCOD9476794
Probable space group: C M C A
;
_chemical_formula_sum "Si O2"
_cell_formula_units_Z 80
_cell_length_a 15.128497
_cell_length_b 12.599783
_cell_length_c 18.099000
_cell_angle_alpha 90.000000
_cell_angle_beta 90.000000
_cell_angle_gamma 90.000000
_cell_volume 3449.954990
_symmetry_space_group_name_H-M "C M C A"
_symmetry_group_IT_number 64
_symmetry_cell_setting 'orthorhombic'
loop_
_space_group_symop_operation_xyz
x,y,z
-x,1/2-y,1/2+z
x,-y,-z
-x,1/2+y,1/2-z
-x,-y,-z
x,1/2+y,1/2-z
-x,y,z
x,1/2-y,1/2+z
1/2+x,1/2+y,z
1/2-x,-y,1/2+z
1/2+x,1/2-y,-z
1/2-x,y,1/2-z
1/2-x,1/2-y,-z
1/2+x,y,1/2-z
1/2-x,1/2+y,z
1/2+x,-y,1/2+z
loop_
_atom_site_type_symbol
_atom_site_label
_atom_site_fract_x
_atom_site_fract_y
_atom_site_fract_z
Si Si1 0.000000 0.176305 0.013344
Si Si2 0.652906 0.941093 0.722702
Si Si3 0.500000 0.521722 0.876142
Si Si4 0.331071 0.674080 0.522608
Si Si5 0.264102 0.222155 0.832510
Si Si6 0.897635 0.858837 0.622593
O O1 0.000000 0.117132 0.934266
O O2 0.000000 0.084010 0.074055
O O3 0.084658 0.249507 0.024869
O O4 0.750000 0.973327 0.750000
O O5 0.589132 0.013435 0.673223
O O6 0.675326 0.829505 0.679058
O O7 0.604975 0.921930 0.800882
O O8 0.250000 0.750000 0.500000
O O9 0.306890 0.644787 0.606832
O O10 0.353029 0.597774 0.453246
O O11 0.250000 0.183361 0.750000
O O12 0.167401 0.260510 0.859376
O O13 0.000000 0.837320 0.607549
#
# Coordination Sequence:
#
# PCOD9476794 Si02
#       6
#     8  16   8  16  16  16
#     4  11  22  31  50  86 112 151 182 238 319 319
#     4   9  17  30  49  75 104 146 194 229 283 343
#     4  11  20  33  52  78 120 143 193 249 271 367
#     4  10  18  31  48  75 116 141 181 238 283 351
#     4   8  16  27  42  67 104 145 176 219 289 339
#     4   9  15  24  45  72 100 136 181 231 276 333
#
# _framework density 23.188708999999999
#
# number of rings (size 3 to 8) (size 9 to 14) (size 15 to 20)
#    0.000    3.000    4.000    0.000    0.000    0.000 
#    0.000    0.000    0.000   10.800    0.000    0.000 
#    0.000   11.200    0.000    0.000    0.000    0.000 
#
# Total GULP energy -222887.363901 kJ/mol
# GULP energy per Si atom -5572.184098 kJ/mol
# Density = 2.313593 g / cm^3
# Si number density = 23.188709 Si / 1000 Ang^3
#
#
#
# Elastic Constant Matrix: (Units=GPa)
#
#
# Indices 1 2 3 4 5 6 
#
# 1 152.6779 3.4104 69.0231 0.0000 0.0000 0.0000
# 2 3.4104 32.0176 14.8245 0.0000 0.0000 0.0000
# 3 69.0231 14.8245 199.9650 0.0000 0.0000 0.0000
# 4 0.0000 0.0000 0.0000 24.4987 0.0000 0.0000
# 5 0.0000 0.0000 0.0000 0.0000 52.4186 0.0000
# 6 0.0000 0.0000 0.0000 0.0000 0.0000 -13.4720
#
#
#
# Elastic Compliance Matrix: (Units=1/GPa)
#
#
# Indices 1 2 3 4 5 6 
#
# 1 0.007766 0.000429 -0.002713 0.000000 0.000000 0.000000
# 2 0.000429 0.032367 -0.002547 0.000000 0.000000 0.000000
# 3 -0.002713 -0.002547 0.006126 0.000000 0.000000 0.000000
# 4 0.000000 0.000000 0.000000 0.040818 0.000000 0.000000
# 5 0.000000 0.000000 0.000000 0.000000 0.019077 0.000000
# 6 0.000000 0.000000 0.000000 0.000000 0.000000 -0.074228
#
#
# Mechanical properties :
#
#
# Convention : Reuss Voigt Hill
#
# Bulk Modulus (GPa) = 27.32506 62.13071 44.72788
# Shear Modulus (GPa) = 92.95642 32.51588 62.73615
#
# Velocity S-wave (km/s) = 6.33829 3.74870 5.20705
# Velocity P-wave (km/s) = 8.08546 6.75194 7.44860
#
# Compressibility (1/GPa) = 0.03659644
#
# Stress axis : x y z
#
# Youngs Moduli (GPa) = 128.75863 30.89598 163.23730
#
# Poissons Ratio (x) = -0.01324 0.44279
# Poissons Ratio (y) = -0.05520 0.41584
# Poissons Ratio (z) = 0.34927 0.07871
#
# Static dielectric constant tensor:
#      x y z
#    x 1.818640 0.000000 0.000000 
#    y 0.000000 1.917030 0.000000 
#    z 0.000000 0.000000 2.033840 
# 
# From -- ./inp_files/32096.got.cif
#   From: 2010.05.17/outbox.cif.g08.bks.cpg/sg64_17_cif.got.tgz:32096.got - 2010.06.03 16:29:19.
