data_PCOD9476115
_publ_section_title
;
Structure prediction by ZEFSAII (Michael W. Deem and Ramdas Pophale) SiO2 
 PCOD9476115
Probable space group: C M C M
;
_chemical_formula_sum "Si O2"
_cell_formula_units_Z 44
_cell_length_a 18.000000
_cell_length_b 30.000000
_cell_length_c 9.000000
_cell_angle_alpha 90.000000
_cell_angle_beta 90.000000
_cell_angle_gamma 90.000000
_cell_volume 4860.000000
_symmetry_space_group_name_H-M "C M C M"
_symmetry_group_IT_number 63
_symmetry_cell_setting 'orthorhombic'
loop_
_space_group_symop_operation_xyz
x,y,z
-x,-y,1/2+z
x,-y,-z
-x,y,1/2-z
-x,-y,-z
x,y,1/2-z
-x,y,z
x,-y,1/2+z
1/2+x,1/2+y,z
1/2-x,1/2-y,1/2+z
1/2+x,1/2-y,-z
1/2-x,1/2+y,1/2-z
1/2-x,1/2-y,-z
1/2+x,1/2+y,1/2-z
1/2-x,1/2+y,z
1/2+x,1/2-y,1/2+z
loop_
_atom_site_type_symbol
_atom_site_label
_atom_site_fract_x
_atom_site_fract_y
_atom_site_fract_z
Si Si1 0.362451 0.100534 0.429166
Si Si2 0.090486 0.206875 0.578276
Si Si3 0.000000 0.548859 0.928015
Si Si4 0.413826 0.196109 0.069497
Si Si5 0.085492 0.884563 0.928827
Si Si6 0.711601 0.548358 0.428522
O O1 0.374839 0.097579 0.250000
O O2 0.427977 0.074863 0.512469
O O3 0.367225 0.152654 0.470962
O O4 0.284440 0.077483 0.463287
O O5 0.113342 0.201983 0.750000
O O6 0.114051 0.255407 0.518349
O O7 0.112404 0.163311 0.487827
O O8 0.000000 0.208698 0.576405
O O9 0.000000 0.546037 0.750000
O O10 0.000000 0.500000 0.000000
O O11 0.414994 0.198817 0.250000
O O12 0.500000 0.189397 0.022830
O O13 0.086448 0.883367 0.750000
O O14 0.139348 0.924039 0.978469
O O15 0.000000 0.891125 0.977309
O O16 0.716095 0.500000 0.500000
O O17 0.708403 0.543623 0.250000
#
# Coordination Sequence:
#
# PCOD9476115 Si02
#       6
#    16  16   8  16  16  16
#     4  10  19  35  56  76 102 137 176 215 258 304
#     4   8  14  26  48  77 102 129 169 208 244 297
#     4  12  24  36  52  76 104 136 178 220 259 308
#     4   8  13  25  49  76 101 132 170 206 243 293
#     4   9  18  34  53  74 103 136 169 209 262 319
#     4  10  22  37  54  75  99 133 174 217 266 317
#
# _framework density 9.0534979999999994
#
# number of rings (size 3 to 8) (size 9 to 14) (size 15 to 20)
#    0.000    2.727    0.909    2.455    0.000    3.273 
#    0.000    1.818    0.000    0.000    0.000    0.000 
#    0.000    0.000    0.000    0.000    0.000    0.000 
#
# Total GULP energy -245265.595048 kJ/mol
# GULP energy per Si atom -5574.218069 kJ/mol
# Density = 0.903289 g / cm^3
# Si number density = 9.053498 Si / 1000 Ang^3
#
#
#
# Elastic Constant Matrix: (Units=GPa)
#
#
# Indices 1 2 3 4 5 6 
#
# 1 82.8101 70.9809 28.0559 0.0000 0.0000 0.0000
# 2 70.9809 137.7097 20.7068 0.0000 0.0000 0.0000
# 3 28.0559 20.7068 15.8604 0.0000 0.0000 0.0000
# 4 0.0000 0.0000 0.0000 23.6353 0.0000 0.0000
# 5 0.0000 0.0000 0.0000 0.0000 7.2110 0.0000
# 6 0.0000 0.0000 0.0000 0.0000 0.0000 33.0256
#
#
#
# Elastic Compliance Matrix: (Units=1/GPa)
#
#
# Indices 1 2 3 4 5 6 
#
# 1 0.044407 -0.013783 -0.060558 0.000000 0.000000 0.000000
# 2 -0.013783 0.013314 0.007000 0.000000 0.000000 0.000000
# 3 -0.060558 0.007000 0.161035 0.000000 0.000000 0.000000
# 4 0.000000 0.000000 0.000000 0.042310 0.000000 0.000000
# 5 0.000000 0.000000 0.000000 0.000000 0.138676 0.000000
# 6 0.000000 0.000000 0.000000 0.000000 0.000000 0.030280
#
#
# Mechanical properties :
#
#
# Convention : Reuss Voigt Hill
#
# Bulk Modulus (GPa) = 11.89453 52.87417 32.38435
# Shear Modulus (GPa) = 8.43556 20.55015 14.49286
#
# Velocity S-wave (km/s) = 2.16075 3.37253 2.83220
# Velocity P-wave (km/s) = 3.57888 6.66555 5.34967
#
# Compressibility (1/GPa) = 0.08407229
#
# Stress axis : x y z
#
# Youngs Moduli (GPa) = 22.51880 75.11135 6.20983
#
# Poissons Ratio (x) = 1.03529 0.37606
# Poissons Ratio (y) = 0.31038 -0.04347
# Poissons Ratio (z) = 1.36370 -0.52578
#
# Static dielectric constant tensor:
#      x y z
#    x 1.620230 0.000000 0.000000 
#    y 0.000000 1.631100 0.000000 
#    z 0.000000 0.000000 1.609550 
# 
# From -- ./inp_files/6897.got.cif
#   From: 2010.05.17/outbox.ucp.g08.bks.cvg/sg63_4_cif.got.tgz:6897.got - 2010.06.11 16:32:19.
