data_PCOD9476703
_publ_section_title
;
Structure prediction by ZEFSAII (Michael W. Deem and Ramdas Pophale) SiO2 
 PCOD9476703
Probable space group: C M C A
;
_chemical_formula_sum "Si O2"
_cell_formula_units_Z 104
_cell_length_a 18.306336
_cell_length_b 17.886083
_cell_length_c 18.429214
_cell_angle_alpha 90.000000
_cell_angle_beta 90.000000
_cell_angle_gamma 90.000000
_cell_volume 6034.252571
_symmetry_space_group_name_H-M "C M C A"
_symmetry_group_IT_number 64
_symmetry_cell_setting 'orthorhombic'
loop_
_space_group_symop_operation_xyz
x,y,z
-x,1/2-y,1/2+z
x,-y,-z
-x,1/2+y,1/2-z
-x,-y,-z
x,1/2+y,1/2-z
-x,y,z
x,1/2-y,1/2+z
1/2+x,1/2+y,z
1/2-x,-y,1/2+z
1/2+x,1/2-y,-z
1/2-x,y,1/2-z
1/2-x,1/2-y,-z
1/2+x,y,1/2-z
1/2-x,1/2+y,z
1/2+x,-y,1/2+z
loop_
_atom_site_type_symbol
_atom_site_label
_atom_site_fract_x
_atom_site_fract_y
_atom_site_fract_z
Si Si1 0.192057 0.358861 0.512903
Si Si2 0.667428 0.214067 0.069509
Si Si3 0.086841 0.833289 0.866067
Si Si4 0.710235 0.000000 0.000000
Si Si5 0.084475 0.495975 0.113614
Si Si6 0.585967 0.861493 0.796838
Si Si7 0.084402 0.670239 0.925385
O O1 0.249149 0.312158 0.562864
O O2 0.166134 0.302431 0.449564
O O3 0.126751 0.376091 0.568427
O O4 0.236575 0.430249 0.485230
O O5 0.629328 0.186516 0.142893
O O6 0.629034 0.175305 0.999741
O O7 0.112667 0.851567 0.785136
O O8 0.099267 0.745001 0.880532
O O9 0.000000 0.847023 0.869317
O O10 0.652561 0.018999 0.063377
O O11 0.089732 0.551053 0.181438
O O12 0.094410 0.406590 0.118567
O O13 0.000000 0.507370 0.085592
O O14 0.500000 0.839673 0.800153
O O15 0.000000 0.672512 0.947565
#
# Coordination Sequence:
#
# PCOD9476703 Si02
#       7
#    16  16  16   8  16  16  16
#     4  10  21  33  53  73 107 142 174 213 260 312
#     4  10  18  32  50  79 104 135 172 212 257 313
#     4   9  20  37  53  72 103 145 182 213 259 317
#     4  12  19  34  51  78 108 136 168 218 267 322
#     4  10  18  29  51  82 108 130 162 218 276 319
#     4  10  19  33  55  81 107 135 174 220 266 318
#     4   9  16  30  53  78 106 135 166 211 269 317
#
# _framework density 17.234943000000001
#
# number of rings (size 3 to 8) (size 9 to 14) (size 15 to 20)
#    0.000    2.154    3.077    0.692    0.000    3.692 
#    0.000    1.923    0.000    1.846    0.000    0.000 
#    0.000    0.000    0.000    0.000    0.000    0.000 
#
# Total GULP energy -289482.699866 kJ/mol
# GULP energy per Si atom -5566.974997 kJ/mol
# Density = 1.719572 g / cm^3
# Si number density = 17.234943 Si / 1000 Ang^3
#
#
#
# Elastic Constant Matrix: (Units=GPa)
#
#
# Indices 1 2 3 4 5 6 
#
# 1 56.3540 32.5013 27.7781 0.0000 0.0000 0.0000
# 2 32.5013 78.3715 18.6628 0.0000 0.0000 0.0000
# 3 27.7781 18.6628 55.7035 0.0000 0.0000 0.0000
# 4 0.0000 0.0000 0.0000 17.9431 0.0000 0.0000
# 5 0.0000 0.0000 0.0000 0.0000 -12.2760 0.0000
# 6 0.0000 0.0000 0.0000 0.0000 0.0000 20.6709
#
#
#
# Elastic Compliance Matrix: (Units=1/GPa)
#
#
# Indices 1 2 3 4 5 6 
#
# 1 0.028537 -0.009178 -0.011156 0.000000 0.000000 0.000000
# 2 -0.009178 0.016818 -0.001058 0.000000 0.000000 0.000000
# 3 -0.011156 -0.001058 0.023870 0.000000 0.000000 0.000000
# 4 0.000000 0.000000 0.000000 0.055732 0.000000 0.000000
# 5 0.000000 0.000000 0.000000 0.000000 -0.081460 0.000000
# 6 0.000000 0.000000 0.000000 0.000000 0.000000 0.048377
#
#
# Mechanical properties :
#
#
# Convention : Reuss Voigt Hill
#
# Bulk Modulus (GPa) = 37.81931 38.70147 38.26039
# Shear Modulus (GPa) = 34.85030 12.70006 23.77518
#
# Velocity S-wave (km/s) = 4.50162 2.71750 3.71816
# Velocity P-wave (km/s) = 7.00075 5.68774 6.37812
#
# Compressibility (1/GPa) = 0.02644152
#
# Stress axis : x y z
#
# Youngs Moduli (GPa) = 35.04196 59.46072 41.89397
#
# Poissons Ratio (x) = 0.54573 0.46736
# Poissons Ratio (y) = 0.32162 0.04431
# Poissons Ratio (z) = 0.39092 0.06289
#
# Static dielectric constant tensor:
#      x y z
#    x 1.611400 0.000000 0.000000 
#    y 0.000000 1.618900 0.000000 
#    z 0.000000 0.000000 1.559550 
# 
# From -- ./inp_files/33432.got.cif
#   From: 2010.05.17/outbox.cif.g08.bks.cpg/sg64_17_cif.got.tgz:33432.got - 2010.06.03 16:29:19.
