data_PCOD9476627
_publ_section_title
;
Structure prediction by ZEFSAII (Michael W. Deem and Ramdas Pophale) SiO2 
 PCOD9476627
Probable space group: C M C A
;
_chemical_formula_sum "Si O2"
_cell_formula_units_Z 96
_cell_length_a 9.556861
_cell_length_b 24.431792
_cell_length_c 26.177653
_cell_angle_alpha 90.000000
_cell_angle_beta 90.000000
_cell_angle_gamma 90.000000
_cell_volume 6112.252663
_symmetry_space_group_name_H-M "C M C A"
_symmetry_group_IT_number 64
_symmetry_cell_setting 'orthorhombic'
loop_
_space_group_symop_operation_xyz
x,y,z
-x,1/2-y,1/2+z
x,-y,-z
-x,1/2+y,1/2-z
-x,-y,-z
x,1/2+y,1/2-z
-x,y,z
x,1/2-y,1/2+z
1/2+x,1/2+y,z
1/2-x,-y,1/2+z
1/2+x,1/2-y,-z
1/2-x,y,1/2-z
1/2-x,1/2-y,-z
1/2+x,y,1/2-z
1/2-x,1/2+y,z
1/2+x,-y,1/2+z
loop_
_atom_site_type_symbol
_atom_site_label
_atom_site_fract_x
_atom_site_fract_y
_atom_site_fract_z
Si Si1 0.335204 0.086998 0.107507
Si Si2 0.167811 0.253473 0.389497
Si Si3 0.665706 0.524810 0.555399
Si Si4 0.837444 0.365967 0.427224
Si Si5 0.163556 0.827433 0.957170
Si Si6 0.334820 0.833818 0.801969
O O1 0.500000 0.098759 0.096069
O O2 0.237378 0.120601 0.069219
O O3 0.307726 0.112270 0.163274
O O4 0.313620 0.023172 0.096972
O O5 0.202945 0.317723 0.387936
O O6 0.252414 0.223875 0.434690
O O7 0.198099 0.217867 0.338905
O O8 0.000000 0.249229 0.399024
O O9 0.709596 0.500000 0.500000
O O10 0.500000 0.536435 0.551253
O O11 0.746198 0.579623 0.570190
O O12 0.827299 0.336745 0.482527
O O13 0.000000 0.380678 0.418952
O O14 0.000000 0.823686 0.943314
O O15 0.500000 0.832074 0.791075
O O16 0.250000 0.833337 0.750000
#
# Coordination Sequence:
#
# PCOD9476627 Si02
#       6
#    16  16  16  16  16  16
#     4   9  18  33  49  69  98 131 161 194 240 287
#     4   9  19  34  48  66  96 131 159 192 243 295
#     4  10  19  31  49  70  96 134 171 195 225 282
#     4  10  20  31  45  68 100 133 163 194 235 279
#     4  10  18  27  44  71  98 126 161 200 230 271
#     4   9  18  33  54  73  92 118 154 202 250 293
#
# _framework density 15.706156999999999
#
# number of rings (size 3 to 8) (size 9 to 14) (size 15 to 20)
#    0.000    2.500    1.667    2.000    0.000    5.000 
#    0.000    0.000    0.000    1.000    0.000    7.000 
#    0.000    0.000    0.000    0.000    0.000    0.000 
#
# Total GULP energy -267439.993759 kJ/mol
# GULP energy per Si atom -5571.666537 kJ/mol
# Density = 1.567041 g / cm^3
# Si number density = 15.706157 Si / 1000 Ang^3
#
#
#
# Elastic Constant Matrix: (Units=GPa)
#
#
# Indices 1 2 3 4 5 6 
#
# 1 49.4605 60.2038 36.9759 0.0000 0.0000 0.0000
# 2 60.2038 142.8478 49.1690 0.0000 0.0000 0.0000
# 3 36.9759 49.1690 75.4725 0.0000 0.0000 0.0000
# 4 0.0000 0.0000 0.0000 8.7002 0.0000 0.0000
# 5 0.0000 0.0000 0.0000 0.0000 23.9525 0.0000
# 6 0.0000 0.0000 0.0000 0.0000 0.0000 25.5427
#
#
#
# Elastic Compliance Matrix: (Units=1/GPa)
#
#
# Indices 1 2 3 4 5 6 
#
# 1 0.051085 -0.016649 -0.014182 0.000000 0.000000 0.000000
# 2 -0.016649 0.014450 -0.001257 0.000000 0.000000 0.000000
# 3 -0.014182 -0.001257 0.021017 0.000000 0.000000 0.000000
# 4 0.000000 0.000000 0.000000 0.114941 0.000000 0.000000
# 5 0.000000 0.000000 0.000000 0.000000 0.041749 0.000000
# 6 0.000000 0.000000 0.000000 0.000000 0.000000 0.039150
#
#
# Mechanical properties :
#
#
# Convention : Reuss Voigt Hill
#
# Bulk Modulus (GPa) = 44.68913 62.27538 53.48225
# Shear Modulus (GPa) = 14.12330 19.73455 16.92892
#
# Velocity S-wave (km/s) = 3.00195 3.54854 3.28663
# Velocity P-wave (km/s) = 6.36637 7.51837 6.96622
#
# Compressibility (1/GPa) = 0.02237681
#
# Stress axis : x y z
#
# Youngs Moduli (GPa) = 19.57527 69.20496 47.58095
#
# Poissons Ratio (x) = 1.15216 0.67477
# Poissons Ratio (y) = 0.32590 0.05982
# Poissons Ratio (z) = 0.27761 0.08701
#
# Static dielectric constant tensor:
#      x y z
#    x 1.521650 0.000000 0.000000 
#    y 0.000000 1.538330 0.000000 
#    z 0.000000 0.000000 1.511810 
# 
# From -- ./inp_files/42967.got.cif
#   From: 2010.05.17/outbox.cif.g08.bks.cpg/sg64_22_cif.got.tgz:42967.got - 2010.06.03 16:29:19.
