data_PCOD9476636
_publ_section_title
;
Structure prediction by ZEFSAII (Michael W. Deem and Ramdas Pophale) SiO2 
 PCOD9476636
Probable space group: C M C A
;
_chemical_formula_sum "Si O2"
_cell_formula_units_Z 96
_cell_length_a 8.666919
_cell_length_b 23.636031
_cell_length_c 27.308749
_cell_angle_alpha 90.000000
_cell_angle_beta 90.000000
_cell_angle_gamma 90.000000
_cell_volume 5594.240002
_symmetry_space_group_name_H-M "C M C A"
_symmetry_group_IT_number 64
_symmetry_cell_setting 'orthorhombic'
loop_
_space_group_symop_operation_xyz
x,y,z
-x,1/2-y,1/2+z
x,-y,-z
-x,1/2+y,1/2-z
-x,-y,-z
x,1/2+y,1/2-z
-x,y,z
x,1/2-y,1/2+z
1/2+x,1/2+y,z
1/2-x,-y,1/2+z
1/2+x,1/2-y,-z
1/2-x,y,1/2-z
1/2-x,1/2-y,-z
1/2+x,y,1/2-z
1/2-x,1/2+y,z
1/2+x,-y,1/2+z
loop_
_atom_site_type_symbol
_atom_site_label
_atom_site_fract_x
_atom_site_fract_y
_atom_site_fract_z
Si Si1 0.313475 0.194503 0.196693
Si Si2 0.818402 0.918230 0.136726
Si Si3 0.684004 0.679045 0.697518
Si Si4 0.173477 0.491483 0.798020
Si Si5 0.814162 0.991108 0.944366
Si Si6 0.674167 0.395941 0.619505
O O1 0.500000 0.191436 0.198289
O O2 0.250000 0.175225 0.250000
O O3 0.257247 0.258874 0.190873
O O4 0.260645 0.157533 0.149683
O O5 0.731844 0.861437 0.152676
O O6 0.784237 0.959985 0.181933
O O7 0.000000 0.907068 0.131355
O O8 0.763233 0.956115 0.090304
O O9 0.500000 0.683105 0.701283
O O10 0.750000 0.657516 0.750000
O O11 0.250000 0.467102 0.750000
O O12 0.164473 0.443137 0.838204
O O13 0.000000 0.513501 0.789794
O O14 0.761555 0.930523 0.922737
O O15 0.000000 0.991934 0.942991
O O16 0.761897 0.000000 0.000000
O O17 0.500000 0.382206 0.602775
#
# Coordination Sequence:
#
# PCOD9476636 Si02
#       6
#    16  16  16  16  16  16
#     4  10  19  32  49  72 102 135 170 201 236 282
#     4  10  19  32  49  69  95 126 159 197 242 289
#     4  11  21  33  49  71 100 134 170 202 237 281
#     4  10  18  28  42  65  96 126 157 191 232 282
#     4   9  19  35  55  77  98 123 158 202 252 300
#     4   9  19  32  48  71  98 128 160 197 240 289
#
# _framework density 17.160508
#
# number of rings (size 3 to 8) (size 9 to 14) (size 15 to 20)
#    0.000    2.167    0.000    5.000    0.000    3.000 
#    0.000    0.000    0.000    1.000    0.000    0.000 
#    0.000    0.000    0.000    0.000    0.000    0.000 
#
# Total GULP energy -267374.487549 kJ/mol
# GULP energy per Si atom -5570.301824 kJ/mol
# Density = 1.712145 g / cm^3
# Si number density = 17.160508 Si / 1000 Ang^3
#
#
#
# Elastic Constant Matrix: (Units=GPa)
#
#
# Indices 1 2 3 4 5 6 
#
# 1 48.7122 13.7930 31.3992 0.0000 0.0000 0.0000
# 2 13.7930 82.8663 44.0973 0.0000 0.0000 0.0000
# 3 31.3992 44.0973 85.9234 0.0000 0.0000 0.0000
# 4 0.0000 0.0000 0.0000 23.4675 0.0000 0.0000
# 5 0.0000 0.0000 0.0000 0.0000 18.6022 0.0000
# 6 0.0000 0.0000 0.0000 0.0000 0.0000 20.6051
#
#
#
# Elastic Compliance Matrix: (Units=1/GPa)
#
#
# Indices 1 2 3 4 5 6 
#
# 1 0.026919 0.001038 -0.010370 0.000000 0.000000 0.000000
# 2 0.001038 0.016642 -0.008920 0.000000 0.000000 0.000000
# 3 -0.010370 -0.008920 0.020006 0.000000 0.000000 0.000000
# 4 0.000000 0.000000 0.000000 0.042612 0.000000 0.000000
# 5 0.000000 0.000000 0.000000 0.000000 0.053757 0.000000
# 6 0.000000 0.000000 0.000000 0.000000 0.000000 0.048532
#
#
# Mechanical properties :
#
#
# Convention : Reuss Voigt Hill
#
# Bulk Modulus (GPa) = 36.95183 44.00901 40.48042
# Shear Modulus (GPa) = 19.68568 21.08245 20.38407
#
# Velocity S-wave (km/s) = 3.39063 3.50886 3.45026
# Velocity P-wave (km/s) = 6.07522 6.48979 6.28592
#
# Compressibility (1/GPa) = 0.02706226
#
# Stress axis : x y z
#
# Youngs Moduli (GPa) = 37.14844 60.09010 49.98623
#
# Poissons Ratio (x) = -0.06234 0.51833
# Poissons Ratio (y) = -0.03854 0.44587
# Poissons Ratio (z) = 0.38521 0.53600
#
# Static dielectric constant tensor:
#      x y z
#    x 1.603350 0.000000 0.000000 
#    y 0.000000 1.599900 0.000000 
#    z 0.000000 0.000000 1.605740 
# 
# From -- ./inp_files/48347.got.cif
#   From: 2010.05.17/outbox.cif.g08.bks.cpg/sg64_25_cif.got.tgz:48347.got - 2010.06.03 16:29:19.
