data_PCOD9476651
_publ_section_title
;
Structure prediction by ZEFSAII (Michael W. Deem and Ramdas Pophale) SiO2 
 PCOD9476651
Probable space group: C M C A
;
_chemical_formula_sum "Si O2"
_cell_formula_units_Z 128
_cell_length_a 25.195635
_cell_length_b 23.990080
_cell_length_c 12.588198
_cell_angle_alpha 90.000000
_cell_angle_beta 90.000000
_cell_angle_gamma 90.000000
_cell_volume 7608.877108
_symmetry_space_group_name_H-M "C M C A"
_symmetry_group_IT_number 64
_symmetry_cell_setting 'orthorhombic'
loop_
_space_group_symop_operation_xyz
x,y,z
-x,1/2-y,1/2+z
x,-y,-z
-x,1/2+y,1/2-z
-x,-y,-z
x,1/2+y,1/2-z
-x,y,z
x,1/2-y,1/2+z
1/2+x,1/2+y,z
1/2-x,-y,1/2+z
1/2+x,1/2-y,-z
1/2-x,y,1/2-z
1/2-x,1/2-y,-z
1/2+x,y,1/2-z
1/2-x,1/2+y,z
1/2+x,-y,1/2+z
loop_
_atom_site_type_symbol
_atom_site_label
_atom_site_fract_x
_atom_site_fract_y
_atom_site_fract_z
Si Si1 0.121003 0.803368 0.253463
Si Si2 0.696300 0.112044 0.188664
Si Si3 0.244043 0.814245 0.973416
Si Si4 0.863178 0.561391 0.002826
Si Si5 0.364917 0.180841 0.349336
Si Si6 0.936814 0.289639 0.466027
Si Si7 0.209987 0.614757 0.834252
Si Si8 0.937922 0.335886 0.037249
O O1 0.133186 0.739385 0.285674
O O2 0.096103 0.807874 0.137093
O O3 0.173164 0.840437 0.272857
O O4 0.079172 0.825615 0.340957
O O5 0.750000 0.094396 0.250000
O O6 0.715760 0.165164 0.118418
O O7 0.674714 0.067804 0.104889
O O8 0.649502 0.132083 0.266863
O O9 0.185145 0.820704 0.928734
O O10 0.250000 0.750000 0.000000
O O11 0.257925 0.851307 0.075436
O O12 0.887307 0.500000 0.000000
O O13 0.827692 0.572891 0.898303
O O14 0.904060 0.612769 0.006599
O O15 0.415883 0.180726 0.426394
O O16 0.926168 0.223237 0.480839
O O17 0.000000 0.297133 0.452714
O O18 0.250000 0.588621 0.750000
O O19 0.000000 0.346848 0.028222
#
# Coordination Sequence:
#
# PCOD9476651 Si02
#       8
#    16  16  16  16  16  16  16  16
#     4  10  18  28  47  70 102 135 160 193 236 291
#     4   9  20  33  48  73 100 133 163 195 240 287
#     4  10  18  28  46  72 104 134 164 192 232 290
#     4  10  21  37  53  70  94 126 168 215 251 281
#     4  10  19  29  47  68 102 136 167 194 234 288
#     4  10  20  32  48  72 103 138 163 189 240 302
#     4  10  20  30  47  75 102 129 167 201 239 291
#     4   9  19  34  49  70  96 123 164 207 245 294
#
# _framework density 16.822455999999999
#
# number of rings (size 3 to 8) (size 9 to 14) (size 15 to 20)
#    0.000    2.250    1.250    1.875    5.250    1.250 
#    0.000    0.625    0.000    0.000    0.000    0.000 
#    0.000    5.000    0.000    0.000    0.000    0.000 
#
# Total GULP energy -356815.785099 kJ/mol
# GULP energy per Si atom -5575.246642 kJ/mol
# Density = 1.678417 g / cm^3
# Si number density = 16.822456 Si / 1000 Ang^3
#
#
#
# Elastic Constant Matrix: (Units=GPa)
#
#
# Indices 1 2 3 4 5 6 
#
# 1 54.5728 6.7988 34.6214 0.0000 0.0000 0.0000
# 2 6.7988 24.7286 7.6449 0.0000 0.0000 0.0000
# 3 34.6214 7.6449 82.3055 0.0000 0.0000 0.0000
# 4 0.0000 0.0000 0.0000 4.3294 0.0000 0.0000
# 5 0.0000 0.0000 0.0000 0.0000 23.3478 0.0000
# 6 0.0000 0.0000 0.0000 0.0000 0.0000 11.0395
#
#
#
# Elastic Compliance Matrix: (Units=1/GPa)
#
#
# Indices 1 2 3 4 5 6 
#
# 1 0.025332 -0.003779 -0.010305 0.000000 0.000000 0.000000
# 2 -0.003779 0.042198 -0.002330 0.000000 0.000000 0.000000
# 3 -0.010305 -0.002330 0.016701 0.000000 0.000000 0.000000
# 4 0.000000 0.000000 0.000000 0.230977 0.000000 0.000000
# 5 0.000000 0.000000 0.000000 0.000000 0.042831 0.000000
# 6 0.000000 0.000000 0.000000 0.000000 0.000000 0.090583
#
#
# Mechanical properties :
#
#
# Convention : Reuss Voigt Hill
#
# Bulk Modulus (GPa) = 19.45375 28.85967 24.15671
# Shear Modulus (GPa) = 10.02837 15.24615 12.63726
#
# Velocity S-wave (km/s) = 2.44423 3.01374 2.74380
# Velocity P-wave (km/s) = 4.42209 5.41321 4.94256
#
# Compressibility (1/GPa) = 0.05140397
#
# Stress axis : x y z
#
# Youngs Moduli (GPa) = 39.47499 23.69761 59.87663
#
# Poissons Ratio (x) = 0.08955 0.61703
# Poissons Ratio (y) = 0.14918 0.13951
# Poissons Ratio (z) = 0.40679 0.05521
#
# Static dielectric constant tensor:
#      x y z
#    x 1.585030 0.000000 0.000000 
#    y 0.000000 1.546190 0.000000 
#    z 0.000000 0.000000 1.602620 
# 
# From -- ./inp_files/19409.got.cif
#   From: 2010.05.17/outbox.cif.g08.bks.cpg/sg64_10_cif.got.tgz:19409.got - 2010.06.03 16:29:19.
