data_PCOD9476447
_publ_section_title
;
Structure prediction by ZEFSAII (Michael W. Deem and Ramdas Pophale) SiO2 
 PCOD9476447
Probable space group: C M C A
;
_chemical_formula_sum "Si O2"
_cell_formula_units_Z 112
_cell_length_a 16.907068
_cell_length_b 20.339480
_cell_length_c 15.904595
_cell_angle_alpha 90.000000
_cell_angle_beta 90.000000
_cell_angle_gamma 90.000000
_cell_volume 5469.287579
_symmetry_space_group_name_H-M "C M C A"
_symmetry_group_IT_number 64
_symmetry_cell_setting 'orthorhombic'
loop_
_space_group_symop_operation_xyz
x,y,z
-x,1/2-y,1/2+z
x,-y,-z
-x,1/2+y,1/2-z
-x,-y,-z
x,1/2+y,1/2-z
-x,y,z
x,1/2-y,1/2+z
1/2+x,1/2+y,z
1/2-x,-y,1/2+z
1/2+x,1/2-y,-z
1/2-x,y,1/2-z
1/2-x,1/2-y,-z
1/2+x,y,1/2-z
1/2-x,1/2+y,z
1/2+x,-y,1/2+z
loop_
_atom_site_type_symbol
_atom_site_label
_atom_site_fract_x
_atom_site_fract_y
_atom_site_fract_z
Si Si1 0.840118 0.625378 0.719578
Si Si2 0.410077 0.623240 0.596662
Si Si3 0.160531 0.518312 0.288026
Si Si4 0.813886 0.339900 0.673093
Si Si5 0.824293 0.844460 0.559728
Si Si6 0.407368 0.240893 0.197059
Si Si7 0.410653 0.469879 0.609552
O O1 0.750000 0.629890 0.750000
O O2 0.890784 0.628124 0.805412
O O3 0.852127 0.554774 0.675202
O O4 0.864126 0.691333 0.673231
O O5 0.500000 0.644088 0.580240
O O6 0.349404 0.661554 0.536806
O O7 0.404073 0.544750 0.578122
O O8 0.250000 0.515436 0.250000
O O9 0.153517 0.586103 0.338463
O O10 0.101269 0.525632 0.209799
O O11 0.750000 0.344104 0.750000
O O12 0.762263 0.323188 0.591069
O O13 0.875063 0.288851 0.714143
O O14 0.885230 0.809052 0.622735
O O15 0.841308 0.921319 0.580594
O O16 0.500000 0.250716 0.203048
O O17 0.500000 0.445992 0.590886
#
# Coordination Sequence:
#
# PCOD9476447 Si02
#       7
#    16  16  16  16  16  16  16
#     4  10  21  36  55  75 107 150 187 222 271 336
#     4  10  21  34  52  85 121 146 176 231 294 346
#     4   9  15  30  50  72 103 144 179 219 263 325
#     4   9  17  31  52  77 108 143 184 227 267 334
#     4  11  19  32  54  81 114 143 179 226 287 341
#     4  11  21  35  54  78 108 147 193 240 280 325
#     4  10  17  27  47  79 113 141 170 216 282 340
#
# _framework density 20.477986999999999
#
# number of rings (size 3 to 8) (size 9 to 14) (size 15 to 20)
#    0.000    2.000    4.286    3.429    0.000    1.714 
#    0.000    2.857    0.000    0.000    0.000    1.000 
#    0.000    3.429    0.000    0.286    0.000    0.000 
#
# Total GULP energy -312162.198778 kJ/mol
# GULP energy per Si atom -5574.324978 kJ/mol
# Density = 2.043138 g / cm^3
# Si number density = 20.477987 Si / 1000 Ang^3
#
#
#
# Elastic Constant Matrix: (Units=GPa)
#
#
# Indices 1 2 3 4 5 6 
#
# 1 42.4466 8.4387 -11.0954 0.0000 0.0000 0.0000
# 2 8.4387 69.8915 -16.9297 0.0000 0.0000 0.0000
# 3 -11.0954 -16.9297 11.9923 0.0000 0.0000 0.0000
# 4 0.0000 0.0000 0.0000 7.2705 0.0000 0.0000
# 5 0.0000 0.0000 0.0000 0.0000 23.6418 0.0000
# 6 0.0000 0.0000 0.0000 0.0000 0.0000 43.3343
#
#
#
# Elastic Compliance Matrix: (Units=1/GPa)
#
#
# Indices 1 2 3 4 5 6 
#
# 1 0.032210 0.005060 0.036944 0.000000 0.000000 0.000000
# 2 0.005060 0.022538 0.036498 0.000000 0.000000 0.000000
# 3 0.036944 0.036498 0.169092 0.000000 0.000000 0.000000
# 4 0.000000 0.000000 0.000000 0.137542 0.000000 0.000000
# 5 0.000000 0.000000 0.000000 0.000000 0.042298 0.000000
# 6 0.000000 0.000000 0.000000 0.000000 0.000000 0.023076
#
#
# Mechanical properties :
#
#
# Convention : Reuss Voigt Hill
#
# Bulk Modulus (GPa) = 2.62575 9.46197 6.04386
# Shear Modulus (GPa) = 12.60397 24.44376 18.52387
#
# Velocity S-wave (km/s) = 2.48360 3.45869 3.01088
# Velocity P-wave (km/s) = 3.08372 4.53659 3.87879
#
# Compressibility (1/GPa) = 0.38084391
#
# Stress axis : x y z
#
# Youngs Moduli (GPa) = 31.04622 44.36977 5.91393
#
# Poissons Ratio (x) = -0.22450 -0.21848
# Poissons Ratio (y) = -0.15709 -0.21585
# Poissons Ratio (z) = -1.14697 -1.61942
#
# Static dielectric constant tensor:
#      x y z
#    x 1.739290 0.000000 0.000000 
#    y 0.000000 1.781390 0.000000 
#    z 0.000000 0.000000 1.780110 
# 
# From -- ./inp_files/33585.got.cif
#   From: 2010.05.17/outbox.cif.g08.bks.cpg/sg64_17_cif.got.tgz:33585.got - 2010.06.03 16:29:19.
