data_PCOD9476580
_publ_section_title
;
Structure prediction by ZEFSAII (Michael W. Deem and Ramdas Pophale) SiO2 
 PCOD9476580
Probable space group: C M C A
;
_chemical_formula_sum "Si O2"
_cell_formula_units_Z 104
_cell_length_a 20.718788
_cell_length_b 17.997778
_cell_length_c 14.134617
_cell_angle_alpha 90.000000
_cell_angle_beta 90.000000
_cell_angle_gamma 90.000000
_cell_volume 5270.687678
_symmetry_space_group_name_H-M "C M C A"
_symmetry_group_IT_number 64
_symmetry_cell_setting 'orthorhombic'
loop_
_space_group_symop_operation_xyz
x,y,z
-x,1/2-y,1/2+z
x,-y,-z
-x,1/2+y,1/2-z
-x,-y,-z
x,1/2+y,1/2-z
-x,y,z
x,1/2-y,1/2+z
1/2+x,1/2+y,z
1/2-x,-y,1/2+z
1/2+x,1/2-y,-z
1/2-x,y,1/2-z
1/2-x,1/2-y,-z
1/2+x,y,1/2-z
1/2-x,1/2+y,z
1/2+x,-y,1/2+z
loop_
_atom_site_type_symbol
_atom_site_label
_atom_site_fract_x
_atom_site_fract_y
_atom_site_fract_z
Si Si1 0.653766 0.674041 0.179319
Si Si2 0.123610 0.413773 0.011897
Si Si3 0.074791 0.926108 0.944194
Si Si4 0.075887 0.674456 0.814898
Si Si5 0.000000 0.334739 0.930894
Si Si6 0.704773 0.306882 0.610109
Si Si7 0.599102 0.196897 0.600998
O O1 0.619211 0.600120 0.142009
O O2 0.605256 0.743622 0.167103
O O3 0.674329 0.668831 0.288553
O O4 0.718878 0.692370 0.122646
O O5 0.180347 0.363488 0.968607
O O6 0.057680 0.393861 0.956498
O O7 0.138175 0.500000 0.000000
O O8 0.110120 0.385241 0.118486
O O9 0.000000 0.934580 0.914524
O O10 0.080619 0.859390 0.019250
O O11 0.094771 0.000000 0.000000
O O12 0.085593 0.661591 0.703569
O O13 0.000000 0.676060 0.840328
O O14 0.944418 0.270422 0.909053
O O15 0.672407 0.226391 0.593603
#
# Coordination Sequence:
#
# PCOD9476580 Si02
#       7
#    16  16  16  16   8  16  16
#     4  10  21  40  62  85 112 151 207 245 287 348
#     4  11  23  36  57  89 125 152 188 233 299 361
#     4  11  23  37  57  88 121 155 192 238 294 355
#     4  11  21  35  61  87 114 155 193 241 297 346
#     4  10  17  34  57  78 109 150 180 240 276 322
#     4   9  22  40  60  86 114 151 198 253 290 335
#     4  10  20  38  61  82 117 149 196 247 289 342
#
# _framework density 19.731769
#
# number of rings (size 3 to 8) (size 9 to 14) (size 15 to 20)
#    0.000    1.692    2.308    2.538    0.000    4.308 
#    1.385    0.000    0.000    3.692    0.000    0.000 
#    0.000    0.000    0.000    0.000    0.000    0.000 
#
# Total GULP energy -289506.601561 kJ/mol
# GULP energy per Si atom -5567.434645 kJ/mol
# Density = 1.968686 g / cm^3
# Si number density = 19.731769 Si / 1000 Ang^3
#
#
#
# Elastic Constant Matrix: (Units=GPa)
#
#
# Indices 1 2 3 4 5 6 
#
# 1 44.9092 -5.3757 13.5747 0.0000 0.0000 0.0000
# 2 -5.3757 40.2216 25.4547 0.0000 0.0000 0.0000
# 3 13.5747 25.4547 52.4428 0.0000 0.0000 0.0000
# 4 0.0000 0.0000 0.0000 8.5608 0.0000 0.0000
# 5 0.0000 0.0000 0.0000 0.0000 24.7255 0.0000
# 6 0.0000 0.0000 0.0000 0.0000 0.0000 10.2981
#
#
#
# Elastic Compliance Matrix: (Units=1/GPa)
#
#
# Indices 1 2 3 4 5 6 
#
# 1 0.027580 0.011841 -0.012887 0.000000 0.000000 0.000000
# 2 0.011841 0.040970 -0.022951 0.000000 0.000000 0.000000
# 3 -0.012887 -0.022951 0.033544 0.000000 0.000000 0.000000
# 4 0.000000 0.000000 0.000000 0.116811 0.000000 0.000000
# 5 0.000000 0.000000 0.000000 0.000000 0.040444 0.000000
# 6 0.000000 0.000000 0.000000 0.000000 0.000000 0.097105
#
#
# Mechanical properties :
#
#
# Convention : Reuss Voigt Hill
#
# Bulk Modulus (GPa) = 18.48385 22.76455 20.62420
# Shear Modulus (GPa) = 11.83487 15.64487 13.73987
#
# Velocity S-wave (km/s) = 2.45171 2.81886 2.64167
# Velocity P-wave (km/s) = 4.17162 4.70709 4.44742
#
# Compressibility (1/GPa) = 0.05410129
#
# Stress axis : x y z
#
# Youngs Moduli (GPa) = 36.25845 24.40829 29.81157
#
# Poissons Ratio (x) = -0.28903 0.38417
# Poissons Ratio (y) = -0.42935 0.68421
# Poissons Ratio (z) = 0.46725 0.56019
#
# Static dielectric constant tensor:
#      x y z
#    x 1.710270 0.000000 0.000000 
#    y 0.000000 1.662540 0.000000 
#    z 0.000000 0.000000 1.832730 
# 
# From -- ./inp_files/26575.got.cif
#   From: 2010.05.17/outbox.cif.g08.bks.cpg/sg64_14_cif.got.tgz:26575.got - 2010.06.03 16:29:19.
