data_PCOD9476203
_publ_section_title
;
Structure prediction by ZEFSAII (Michael W. Deem and Ramdas Pophale) SiO2 
 PCOD9476203
Probable space group: C M C M
;
_chemical_formula_sum "Si O2"
_cell_formula_units_Z 36
_cell_length_a 15.000000
_cell_length_b 27.000000
_cell_length_c 9.000000
_cell_angle_alpha 90.000000
_cell_angle_beta 90.000000
_cell_angle_gamma 90.000000
_cell_volume 3645.000000
_symmetry_space_group_name_H-M "C M C M"
_symmetry_group_IT_number 63
_symmetry_cell_setting 'orthorhombic'
loop_
_space_group_symop_operation_xyz
x,y,z
-x,-y,1/2+z
x,-y,-z
-x,y,1/2-z
-x,-y,-z
x,y,1/2-z
-x,y,z
x,-y,1/2+z
1/2+x,1/2+y,z
1/2-x,1/2-y,1/2+z
1/2+x,1/2-y,-z
1/2-x,1/2+y,1/2-z
1/2-x,1/2-y,-z
1/2+x,1/2+y,1/2-z
1/2-x,1/2+y,z
1/2+x,1/2-y,1/2+z
loop_
_atom_site_type_symbol
_atom_site_label
_atom_site_fract_x
_atom_site_fract_y
_atom_site_fract_z
Si Si1 0.393955 0.549350 0.583353
Si Si2 0.500000 0.943427 0.069955
Si Si3 0.895690 0.248483 0.920897
Si Si4 0.372852 0.862605 0.576053
Si Si5 0.836764 0.851416 0.578726
O O1 0.358297 0.500000 0.500000
O O2 0.356081 0.551810 0.750000
O O3 0.500000 0.541981 0.594660
O O4 0.381969 0.602321 0.504085
O O5 0.500000 0.947378 0.250000
O O6 0.581539 0.907824 0.012694
O O7 0.500000 0.000000 0.000000
O O8 0.861576 0.249625 0.750000
O O9 0.891520 0.305656 0.976876
O O10 0.000000 0.235321 0.918091
O O11 0.849722 0.203313 0.008064
O O12 0.401171 0.865207 0.750000
O O13 0.266914 0.865557 0.572965
O O14 0.866646 0.849256 0.750000
#
# Coordination Sequence:
#
# PCOD9476203 Si02
#       5
#    16   8  16  16  16
#     4  10  21  38  59  82 114 156 199 245 301 359
#     4  12  26  44  70  96 120 158 207 258 311 370
#     4  10  20  37  62  87 121 166 203 245 304 361
#     4  10  22  43  64  86 122 162 200 249 308 362
#     4  11  23  36  58  91 124 159 201 250 300 360
#
# _framework density 9.8765429999999999
#
# number of rings (size 3 to 8) (size 9 to 14) (size 15 to 20)
#    0.000    1.556    1.111    3.667    0.000    8.000 
#    0.000    0.000    0.000    0.000    0.000    0.000 
#    0.000    0.000    0.000    0.000    0.000    0.000 
#
# Total GULP energy -200763.860135 kJ/mol
# GULP energy per Si atom -5576.773893 kJ/mol
# Density = 0.985406 g / cm^3
# Si number density = 9.876543 Si / 1000 Ang^3
#
#
#
# Elastic Constant Matrix: (Units=GPa)
#
#
# Indices 1 2 3 4 5 6 
#
# 1 50.5348 16.9063 17.6671 0.0000 0.0000 0.0000
# 2 16.9063 203.9487 96.5012 0.0000 0.0000 0.0000
# 3 17.6671 96.5012 138.7976 0.0000 0.0000 0.0000
# 4 0.0000 0.0000 0.0000 43.2082 0.0000 0.0000
# 5 0.0000 0.0000 0.0000 0.0000 17.1655 0.0000
# 6 0.0000 0.0000 0.0000 0.0000 0.0000 -20.1547
#
#
#
# Elastic Compliance Matrix: (Units=1/GPa)
#
#
# Indices 1 2 3 4 5 6 
#
# 1 0.020777 -0.000702 -0.002157 0.000000 0.000000 0.000000
# 2 -0.000702 0.007331 -0.005007 0.000000 0.000000 0.000000
# 3 -0.002157 -0.005007 0.010961 0.000000 0.000000 0.000000
# 4 0.000000 0.000000 0.000000 0.023144 0.000000 0.000000
# 5 0.000000 0.000000 0.000000 0.000000 0.058256 0.000000
# 6 0.000000 0.000000 0.000000 0.000000 0.000000 -0.049616
#
#
# Mechanical properties :
#
#
# Convention : Reuss Voigt Hill
#
# Bulk Modulus (GPa) = 42.85107 72.82559 57.83833
# Shear Modulus (GPa) = 52.98665 25.52423 39.25544
#
# Velocity S-wave (km/s) = 5.18486 3.59857 4.46276
# Velocity P-wave (km/s) = 7.58842 7.36303 7.47657
#
# Compressibility (1/GPa) = 0.02333664
#
# Stress axis : x y z
#
# Youngs Moduli (GPa) = 48.12983 136.41207 91.23445
#
# Poissons Ratio (x) = 0.09574 0.19676
# Poissons Ratio (y) = 0.03378 0.45685
# Poissons Ratio (z) = 0.10380 0.68308
#
# Static dielectric constant tensor:
#      x y z
#    x 1.739700 0.000000 0.000000 
#    y 0.000000 1.665510 0.000000 
#    z 0.000000 0.000000 1.725400 
# 
# From -- ./inp_files/4667.got.cif
#   From: 2010.05.17/outbox.ucp.g08.bks.cvg/sg63_3_cif.got.tgz:4667.got - 2010.06.11 16:32:19.
