data_PCOD9476396
_publ_section_title
;
Structure prediction by ZEFSAII (Michael W. Deem and Ramdas Pophale) SiO2 
 PCOD9476396
Probable space group: C M C A
;
_chemical_formula_sum "Si O2"
_cell_formula_units_Z 56
_cell_length_a 17.208897
_cell_length_b 5.255821
_cell_length_c 28.963329
_cell_angle_alpha 90.000000
_cell_angle_beta 90.000000
_cell_angle_gamma 90.000000
_cell_volume 2619.642807
_symmetry_space_group_name_H-M "C M C A"
_symmetry_group_IT_number 64
_symmetry_cell_setting 'orthorhombic'
loop_
_space_group_symop_operation_xyz
x,y,z
-x,1/2-y,1/2+z
x,-y,-z
-x,1/2+y,1/2-z
-x,-y,-z
x,1/2+y,1/2-z
-x,y,z
x,1/2-y,1/2+z
1/2+x,1/2+y,z
1/2-x,-y,1/2+z
1/2+x,1/2-y,-z
1/2-x,y,1/2-z
1/2-x,1/2-y,-z
1/2+x,y,1/2-z
1/2-x,1/2+y,z
1/2+x,-y,1/2+z
loop_
_atom_site_type_symbol
_atom_site_label
_atom_site_fract_x
_atom_site_fract_y
_atom_site_fract_z
Si Si1 0.589352 0.345447 0.548584
Si Si2 0.838860 0.464956 0.769397
Si Si3 0.801751 0.563075 0.874560
Si Si4 0.194900 0.000000 0.000000
O O1 0.591592 0.500000 0.500000
O O2 0.500000 0.299240 0.560348
O O3 0.633945 0.505478 0.587177
O O4 0.635745 0.081713 0.540502
O O5 0.875742 0.692577 0.740362
O O6 0.750000 0.434123 0.750000
O O7 0.834477 0.535823 0.822803
O O8 0.761431 0.836238 0.879515
O O9 0.250000 0.250000 0.000000
#
# Coordination Sequence:
#
# PCOD9476396 Si02
#       4
#    16  16  16   8
#     4  11  27  47  64  91 138 179 213 264 335 393
#     4  10  16  33  56  90 124 155 195 266 328 363
#     4  12  23  37  65  98 122 162 220 269 311 381
#     4  12  23  44  69  94 120 158 218 272 309 366
#
# _framework density 21.37696
#
# number of rings (size 3 to 8) (size 9 to 14) (size 15 to 20)
#    0.000    0.857    7.143    2.143    4.000    0.000 
#    0.000    0.000    0.000    1.714    0.000    0.000 
#    0.000    0.000    0.000    0.000    0.000    0.000 
#
# Total GULP energy -156426.052521 kJ/mol
# GULP energy per Si atom -5586.644733 kJ/mol
# Density = 2.132831 g / cm^3
# Si number density = 21.376960 Si / 1000 Ang^3
#
#
#
# Elastic Constant Matrix: (Units=GPa)
#
#
# Indices 1 2 3 4 5 6 
#
# 1 82.4629 21.3445 26.0079 0.0000 0.0000 0.0000
# 2 21.3445 129.3558 -10.7690 0.0000 0.0000 0.0000
# 3 26.0079 -10.7690 106.9979 0.0000 0.0000 0.0000
# 4 0.0000 0.0000 0.0000 35.0935 0.0000 0.0000
# 5 0.0000 0.0000 0.0000 0.0000 6.2740 0.0000
# 6 0.0000 0.0000 0.0000 0.0000 0.0000 -104.8824
#
#
#
# Elastic Compliance Matrix: (Units=1/GPa)
#
#
# Indices 1 2 3 4 5 6 
#
# 1 0.013954 -0.002607 -0.003654 0.000000 0.000000 0.000000
# 2 -0.002607 0.008283 0.001467 0.000000 0.000000 0.000000
# 3 -0.003654 0.001467 0.010382 0.000000 0.000000 0.000000
# 4 0.000000 0.000000 0.000000 0.028495 0.000000 0.000000
# 5 0.000000 0.000000 0.000000 0.000000 0.159387 0.000000
# 6 0.000000 0.000000 0.000000 0.000000 0.000000 -0.009534
#
#
# Mechanical properties :
#
#
# Convention : Reuss Voigt Hill
#
# Bulk Modulus (GPa) = 43.41877 43.55371 43.48624
# Shear Modulus (GPa) = 21.90767 6.11257 14.01012
#
# Velocity S-wave (km/s) = 3.20476 1.69282 2.56282
# Velocity P-wave (km/s) = 5.83516 4.92333 5.39853
#
# Compressibility (1/GPa) = 0.02303151
#
# Stress axis : x y z
#
# Youngs Moduli (GPa) = 71.66487 120.73087 96.32191
#
# Poissons Ratio (x) = 0.31471 0.35197
# Poissons Ratio (y) = 0.18681 -0.14133
# Poissons Ratio (z) = 0.26187 -0.17714
#
# Static dielectric constant tensor:
#      x y z
#    x 1.840890 0.000000 0.000000 
#    y 0.000000 1.867380 0.000000 
#    z 0.000000 0.000000 1.798820 
# 
# From -- ./inp_files/53471.got.cif
#   From: 2010.05.17/outbox.cif.g08.bks.cpg/sg64_27_cif.got.tgz:53471.got - 2010.06.03 16:29:19.
