data_PCOD9476183
_publ_section_title
;
Structure prediction by ZEFSAII (Michael W. Deem and Ramdas Pophale) SiO2 
 PCOD9476183
Probable space group: C M C M
;
_chemical_formula_sum "Si O2"
_cell_formula_units_Z 48
_cell_length_a 27.000000
_cell_length_b 21.000000
_cell_length_c 9.000000
_cell_angle_alpha 90.000000
_cell_angle_beta 90.000000
_cell_angle_gamma 90.000000
_cell_volume 5103.000000
_symmetry_space_group_name_H-M "C M C M"
_symmetry_group_IT_number 63
_symmetry_cell_setting 'orthorhombic'
loop_
_space_group_symop_operation_xyz
x,y,z
-x,-y,1/2+z
x,-y,-z
-x,y,1/2-z
-x,-y,-z
x,y,1/2-z
-x,y,z
x,-y,1/2+z
1/2+x,1/2+y,z
1/2-x,1/2-y,1/2+z
1/2+x,1/2-y,-z
1/2-x,1/2+y,1/2-z
1/2-x,1/2-y,-z
1/2+x,1/2+y,1/2-z
1/2-x,1/2+y,z
1/2+x,1/2-y,1/2+z
loop_
_atom_site_type_symbol
_atom_site_label
_atom_site_fract_x
_atom_site_fract_y
_atom_site_fract_z
Si Si1 0.057690 0.434644 0.928650
Si Si2 0.736421 0.182495 0.071001
Si Si3 0.704506 0.566809 0.574272
Si Si4 0.377608 0.184006 0.430504
Si Si5 0.054912 0.202706 0.568803
Si Si6 0.914500 0.065261 0.575136
O O1 0.060920 0.438855 0.750000
O O2 0.088719 0.374397 0.980134
O O3 0.000000 0.426418 0.967772
O O4 0.075746 0.500000 0.000000
O O5 0.741153 0.184373 0.250000
O O6 0.678947 0.172740 0.030168
O O7 0.750000 0.250000 0.000000
O O8 0.769427 0.126118 0.004296
O O9 0.719917 0.500000 0.500000
O O10 0.715348 0.566621 0.750000
O O11 0.644962 0.571687 0.557302
O O12 0.379578 0.185832 0.250000
O O13 0.402040 0.249991 0.482788
O O14 0.057469 0.200791 0.750000
O O15 0.062097 0.130508 0.516603
O O16 0.000000 0.226681 0.530370
O O17 0.925219 0.060693 0.750000
O O18 0.930828 0.000000 0.500000
#
# Coordination Sequence:
#
# PCOD9476183 Si02
#       6
#    16  16  16  16  16  16
#     4   9  17  31  52  76 101 130 163 200 246 300
#     4  11  22  36  54  77 106 139 177 219 263 310
#     4  10  20  36  56  78 106 139 176 216 260 310
#     4   9  18  32  50  73 100 130 167 211 253 297
#     4   9  16  28  49  75 100 128 165 207 249 295
#     4   9  18  32  51  75 102 132 165 204 250 301
#
# _framework density 9.4062319999999993
#
# number of rings (size 3 to 8) (size 9 to 14) (size 15 to 20)
#    0.000    2.500    0.000    2.500    0.000    6.333 
#    0.000    3.333    0.000    1.000    0.000    0.000 
#    0.000    0.000    0.000    0.000    0.000    0.000 
#
# Total GULP energy -267758.190400 kJ/mol
# GULP energy per Si atom -5578.295633 kJ/mol
# Density = 0.938482 g / cm^3
# Si number density = 9.406232 Si / 1000 Ang^3
#
#
#
# Elastic Constant Matrix: (Units=GPa)
#
#
# Indices 1 2 3 4 5 6 
#
# 1 24.9261 18.5354 22.1387 0.0000 0.0000 0.0000
# 2 18.5354 101.4468 21.9542 0.0000 0.0000 0.0000
# 3 22.1387 21.9542 30.2476 0.0000 0.0000 0.0000
# 4 0.0000 0.0000 0.0000 33.8393 0.0000 0.0000
# 5 0.0000 0.0000 0.0000 0.0000 3.5414 0.0000
# 6 0.0000 0.0000 0.0000 0.0000 0.0000 35.3462
#
#
#
# Elastic Compliance Matrix: (Units=1/GPa)
#
#
# Indices 1 2 3 4 5 6 
#
# 1 0.115591 -0.003334 -0.082182 0.000000 0.000000 0.000000
# 2 -0.003334 0.011790 -0.006117 0.000000 0.000000 0.000000
# 3 -0.082182 -0.006117 0.097651 0.000000 0.000000 0.000000
# 4 0.000000 0.000000 0.000000 0.029551 0.000000 0.000000
# 5 0.000000 0.000000 0.000000 0.000000 0.282374 0.000000
# 6 0.000000 0.000000 0.000000 0.000000 0.000000 0.028292
#
#
# Mechanical properties :
#
#
# Convention : Reuss Voigt Hill
#
# Bulk Modulus (GPa) = 23.94407 31.31970 27.63189
# Shear Modulus (GPa) = 6.55790 20.81152 13.68471
#
# Velocity S-wave (km/s) = 1.86909 3.32966 2.70001
# Velocity P-wave (km/s) = 4.17294 5.60952 4.94369
#
# Compressibility (1/GPa) = 0.04176399
#
# Stress axis : x y z
#
# Youngs Moduli (GPa) = 8.65123 84.81446 10.24053
#
# Poissons Ratio (x) = 0.28281 0.84159
# Poissons Ratio (y) = 0.02885 0.06264
# Poissons Ratio (z) = 0.71098 0.51882
#
# Static dielectric constant tensor:
#      x y z
#    x 1.650220 0.000000 0.000000 
#    y 0.000000 1.639560 0.000000 
#    z 0.000000 0.000000 1.636810 
# 
# From -- ./inp_files/12360.got.cif
#   From: 2010.05.17/outbox.ucp.g08.bks.cvg/sg63_7_cif.got.tgz:12360.got - 2010.06.11 16:32:19.
