data_PCOD9476556
_publ_section_title
;
Structure prediction by ZEFSAII (Michael W. Deem and Ramdas Pophale) SiO2 
 PCOD9476556
Probable space group: C M C A
;
_chemical_formula_sum "Si O2"
_cell_formula_units_Z 96
_cell_length_a 15.891805
_cell_length_b 15.917144
_cell_length_c 18.691612
_cell_angle_alpha 90.000000
_cell_angle_beta 90.000000
_cell_angle_gamma 90.000000
_cell_volume 4728.083416
_symmetry_space_group_name_H-M "C M C A"
_symmetry_group_IT_number 64
_symmetry_cell_setting 'orthorhombic'
loop_
_space_group_symop_operation_xyz
x,y,z
-x,1/2-y,1/2+z
x,-y,-z
-x,1/2+y,1/2-z
-x,-y,-z
x,1/2+y,1/2-z
-x,y,z
x,1/2-y,1/2+z
1/2+x,1/2+y,z
1/2-x,-y,1/2+z
1/2+x,1/2-y,-z
1/2-x,y,1/2-z
1/2-x,1/2-y,-z
1/2+x,y,1/2-z
1/2-x,1/2+y,z
1/2+x,-y,1/2+z
loop_
_atom_site_type_symbol
_atom_site_label
_atom_site_fract_x
_atom_site_fract_y
_atom_site_fract_z
Si Si1 0.350302 0.736585 0.989783
Si Si2 0.600904 0.702367 0.826906
Si Si3 0.158665 0.915924 0.535174
Si Si4 0.163016 0.383925 0.794311
Si Si5 0.402985 0.485239 0.190717
Si Si6 0.353297 0.570179 0.048868
O O1 0.368850 0.705343 0.909390
O O2 0.383532 0.831581 0.995428
O O3 0.250000 0.750000 0.000000
O O4 0.386162 0.665222 0.042331
O O5 0.500000 0.708453 0.825261
O O6 0.636119 0.786145 0.789494
O O7 0.626241 0.610656 0.796720
O O8 0.160473 0.906061 0.621256
O O9 0.258817 0.918520 0.518323
O O10 0.122495 0.000000 0.500000
O O11 0.250000 0.391827 0.750000
O O12 0.104154 0.452958 0.757393
O O13 0.500000 0.479861 0.167282
O O14 0.353352 0.530949 0.126973
O O15 0.396960 0.500000 0.000000
#
# Coordination Sequence:
#
# PCOD9476556 Si02
#       6
#    16  16  16  16  16  16
#     4   9  18  32  58  84 115 151 194 244 289 353
#     4  10  22  40  59  83 121 166 199 239 310 368
#     4   9  19  36  58  85 117 152 193 245 297 348
#     4  11  22  40  61  88 119 159 208 248 294 359
#     4  11  23  38  59  88 122 157 196 251 305 358
#     4  10  17  32  54  85 117 144 189 234 297 355
#
# _framework density 20.304210999999999
#
# number of rings (size 3 to 8) (size 9 to 14) (size 15 to 20)
#    0.000    2.000    3.333    0.500    0.000    1.667 
#    3.000    0.000    0.000   12.500    0.000    0.000 
#    0.000    0.000    0.000    0.000    0.000    0.000 
#
# Total GULP energy -267258.811641 kJ/mol
# GULP energy per Si atom -5567.891909 kJ/mol
# Density = 2.025800 g / cm^3
# Si number density = 20.304211 Si / 1000 Ang^3
#
#
#
# Elastic Constant Matrix: (Units=GPa)
#
#
# Indices 1 2 3 4 5 6 
#
# 1 34.1344 16.8450 5.5295 0.0000 0.0000 0.0000
# 2 16.8450 229.6430 66.4507 0.0000 0.0000 0.0000
# 3 5.5295 66.4507 47.3638 0.0000 0.0000 0.0000
# 4 0.0000 0.0000 0.0000 38.7947 0.0000 0.0000
# 5 0.0000 0.0000 0.0000 0.0000 6.4479 0.0000
# 6 0.0000 0.0000 0.0000 0.0000 0.0000 12.0967
#
#
#
# Elastic Compliance Matrix: (Units=1/GPa)
#
#
# Indices 1 2 3 4 5 6 
#
# 1 0.030410 -0.002026 -0.000708 0.000000 0.000000 0.000000
# 2 -0.002026 0.007466 -0.010238 0.000000 0.000000 0.000000
# 3 -0.000708 -0.010238 0.035559 0.000000 0.000000 0.000000
# 4 0.000000 0.000000 0.000000 0.025777 0.000000 0.000000
# 5 0.000000 0.000000 0.000000 0.000000 0.155090 0.000000
# 6 0.000000 0.000000 0.000000 0.000000 0.000000 0.082667
#
#
# Mechanical properties :
#
#
# Convention : Reuss Voigt Hill
#
# Bulk Modulus (GPa) = 21.05618 54.31020 37.68319
# Shear Modulus (GPa) = 13.20158 26.28892 19.74525
#
# Velocity S-wave (km/s) = 2.55265 3.60217 3.12183
# Velocity P-wave (km/s) = 4.36817 6.64132 5.62086
#
# Compressibility (1/GPa) = 0.04749200
#
# Stress axis : x y z
#
# Youngs Moduli (GPa) = 32.88349 133.94774 28.12219
#
# Poissons Ratio (x) = 0.27135 0.01991
# Poissons Ratio (y) = 0.06661 0.28790
# Poissons Ratio (z) = 0.02329 1.37131
#
# Static dielectric constant tensor:
#      x y z
#    x 1.738810 0.000000 0.000000 
#    y 0.000000 1.899270 0.000000 
#    z 0.000000 0.000000 1.700820 
# 
# From -- ./inp_files/39244.got.cif
#   From: 2010.05.17/outbox.cif.g08.bks.cpg/sg64_20_cif.got.tgz:39244.got - 2010.06.03 16:29:19.
