data_PCOD9476182
_publ_section_title
;
Structure prediction by ZEFSAII (Michael W. Deem and Ramdas Pophale) SiO2 
 PCOD9476182
Probable space group: C M C M
;
_chemical_formula_sum "Si O2"
_cell_formula_units_Z 52
_cell_length_a 27.000000
_cell_length_b 24.000000
_cell_length_c 9.000000
_cell_angle_alpha 90.000000
_cell_angle_beta 90.000000
_cell_angle_gamma 90.000000
_cell_volume 5832.000000
_symmetry_space_group_name_H-M "C M C M"
_symmetry_group_IT_number 63
_symmetry_cell_setting 'orthorhombic'
loop_
_space_group_symop_operation_xyz
x,y,z
-x,-y,1/2+z
x,-y,-z
-x,y,1/2-z
-x,-y,-z
x,y,1/2-z
-x,y,z
x,-y,1/2+z
1/2+x,1/2+y,z
1/2-x,1/2-y,1/2+z
1/2+x,1/2-y,-z
1/2-x,1/2+y,1/2-z
1/2-x,1/2-y,-z
1/2+x,1/2+y,1/2-z
1/2-x,1/2+y,z
1/2+x,1/2-y,1/2+z
loop_
_atom_site_type_symbol
_atom_site_label
_atom_site_fract_x
_atom_site_fract_y
_atom_site_fract_z
Si Si1 0.611287 0.059162 0.429819
Si Si2 0.184585 0.143932 0.428930
Si Si3 0.851071 0.741758 0.071093
Si Si4 0.000000 0.060539 0.926460
Si Si5 0.392972 0.438612 0.071431
Si Si6 0.704492 0.873143 0.570840
Si Si7 0.944295 0.327217 0.930712
O O1 0.610271 0.054715 0.250000
O O2 0.666222 0.079421 0.479531
O O3 0.576334 0.111514 0.471924
O O4 0.598118 0.000000 0.500000
O O5 0.183426 0.143948 0.250000
O O6 0.169360 0.204467 0.489099
O O7 0.147228 0.099746 0.496669
O O8 0.239441 0.126291 0.480930
O O9 0.850430 0.751051 0.250000
O O10 0.817824 0.687588 0.037682
O O11 0.905981 0.721201 0.025739
O O12 0.052565 0.087006 0.963277
O O13 0.000000 0.052081 0.750000
O O14 0.000000 0.000000 0.000000
O O15 0.387151 0.441869 0.250000
O O16 0.390916 0.500000 0.000000
O O17 0.704850 0.877358 0.750000
O O18 0.944171 0.326936 0.750000
O O19 0.000000 0.318823 0.983484
#
# Coordination Sequence:
#
# PCOD9476182 Si02
#       7
#    16  16  16   8  16  16  16
#     4   9  17  31  50  73 101 132 169 207 247 297
#     4  11  21  33  50  75 104 132 165 205 253 304
#     4   9  17  33  54  73  95 128 173 216 252 294
#     4   8  16  32  54  72  90 120 156 192 231 280
#     4  10  20  36  55  76 100 128 163 202 246 294
#     4   8  17  33  51  69  96 135 172 209 250 296
#     4   8  15  30  52  74  98 132 169 206 250 300
#
# _framework density 8.9163239999999995
#
# number of rings (size 3 to 8) (size 9 to 14) (size 15 to 20)
#    0.000    2.923    0.000    3.231    0.000    1.538 
#    1.385    6.923    0.000    0.923    0.000    0.000 
#    0.000    0.000    0.000    0.000    0.000    0.000 
#
# Total GULP energy -289594.109988 kJ/mol
# GULP energy per Si atom -5569.117500 kJ/mol
# Density = 0.889603 g / cm^3
# Si number density = 8.916324 Si / 1000 Ang^3
#
#
#
# Elastic Constant Matrix: (Units=GPa)
#
#
# Indices 1 2 3 4 5 6 
#
# 1 97.0537 -36.8581 6.0984 0.0000 0.0000 0.0000
# 2 -36.8581 -34.5923 -9.2041 0.0000 0.0000 0.0000
# 3 6.0984 -9.2041 22.1078 0.0000 0.0000 0.0000
# 4 0.0000 0.0000 0.0000 32.8103 0.0000 0.0000
# 5 0.0000 0.0000 0.0000 0.0000 14.5595 0.0000
# 6 0.0000 0.0000 0.0000 0.0000 0.0000 7.7117
#
#
#
# Elastic Compliance Matrix: (Units=1/GPa)
#
#
# Indices 1 2 3 4 5 6 
#
# 1 0.007935 -0.007087 -0.005139 0.000000 0.000000 0.000000
# 2 -0.007087 -0.019695 -0.006245 0.000000 0.000000 0.000000
# 3 -0.005139 -0.006245 0.044051 0.000000 0.000000 0.000000
# 4 0.000000 0.000000 0.000000 0.030478 0.000000 0.000000
# 5 0.000000 0.000000 0.000000 0.000000 0.068684 0.000000
# 6 0.000000 0.000000 0.000000 0.000000 0.000000 0.129674
#
#
# Mechanical properties :
#
#
# Convention : Reuss Voigt Hill
#
# Bulk Modulus (GPa) = -214.95600 0.51575 -107.22013
# Shear Modulus (GPa) = 16.86237 19.31848 18.09043
#
# Velocity S-wave (km/s) = 3.07838 3.29496 3.18851
# Velocity P-wave (km/s) = 10.40034 3.84259 6.83380
#
# Compressibility (1/GPa) = -0.00465211
#
# Stress axis : x y z
#
# Youngs Moduli (GPa) = 126.02420 -50.77383 22.70108
#
# Poissons Ratio (x) = -0.35985 0.11667
# Poissons Ratio (y) = 0.89317 0.14176
# Poissons Ratio (z) = 0.64770 -0.31706
#
# Static dielectric constant tensor:
#      x y z
#    x 1.662240 0.000000 0.000000 
#    y 0.000000 1.578010 0.000000 
#    z 0.000000 0.000000 1.596140 
# 
# From -- ./inp_files/12880.got.cif
#   From: 2010.05.17/outbox.ucp.g08.bks.cvg/sg63_7_cif.got.tgz:12880.got - 2010.06.11 16:32:19.
