data_PCOD9476679
_publ_section_title
;
Structure prediction by ZEFSAII (Michael W. Deem and Ramdas Pophale) SiO2 
 PCOD9476679
Probable space group: C M C A
;
_chemical_formula_sum "Si O2"
_cell_formula_units_Z 80
_cell_length_a 8.036591
_cell_length_b 26.738267
_cell_length_c 20.426544
_cell_angle_alpha 90.000000
_cell_angle_beta 90.000000
_cell_angle_gamma 90.000000
_cell_volume 4389.348020
_symmetry_space_group_name_H-M "C M C A"
_symmetry_group_IT_number 64
_symmetry_cell_setting 'orthorhombic'
loop_
_space_group_symop_operation_xyz
x,y,z
-x,1/2-y,1/2+z
x,-y,-z
-x,1/2+y,1/2-z
-x,-y,-z
x,1/2+y,1/2-z
-x,y,z
x,1/2-y,1/2+z
1/2+x,1/2+y,z
1/2-x,-y,1/2+z
1/2+x,1/2-y,-z
1/2-x,y,1/2-z
1/2-x,1/2-y,-z
1/2+x,y,1/2-z
1/2-x,1/2+y,z
1/2+x,-y,1/2+z
loop_
_atom_site_type_symbol
_atom_site_label
_atom_site_fract_x
_atom_site_fract_y
_atom_site_fract_z
Si Si1 0.299881 0.008995 0.923381
Si Si2 0.302472 0.597563 0.093414
Si Si3 0.802073 0.116045 0.555579
Si Si4 0.200406 0.691836 0.324735
Si Si5 0.298431 0.272812 0.429900
O O1 0.500000 0.008478 0.917912
O O2 0.237436 0.065276 0.909870
O O3 0.234061 0.959809 0.887547
O O4 0.257933 0.000000 0.000000
O O5 0.500000 0.603049 0.085233
O O6 0.242528 0.638823 0.145028
O O7 0.223844 0.609275 0.022455
O O8 0.734801 0.170208 0.575507
O O9 0.000000 0.116690 0.567202
O O10 0.250000 0.698242 0.250000
O O11 0.260445 0.736174 0.372371
O O12 0.000000 0.691959 0.327677
O O13 0.500000 0.274220 0.427790
O O14 0.250000 0.250000 0.500000
#
# Coordination Sequence:
#
# PCOD9476679 Si02
#       5
#    16  16  16  16  16
#     4   8  15  27  43  68  97 127 160 189 232 294
#     4  10  18  29  46  71 100 126 159 205 248 289
#     4   9  17  29  48  72  99 130 161 197 245 298
#     4  10  22  36  50  72 101 132 170 209 252 305
#     4  10  19  33  52  75 101 130 167 211 253 299
#
# _framework density 18.225942
#
# number of rings (size 3 to 8) (size 9 to 14) (size 15 to 20)
#    0.000    2.600    2.000    1.800    0.000    6.000 
#    0.000    0.000    0.000    1.200    0.000    5.600 
#    0.000    0.000    0.000    0.000    0.000    0.000 
#
# Total GULP energy -222831.606789 kJ/mol
# GULP energy per Si atom -5570.790170 kJ/mol
# Density = 1.818446 g / cm^3
# Si number density = 18.225942 Si / 1000 Ang^3
#
#
#
# Elastic Constant Matrix: (Units=GPa)
#
#
# Indices 1 2 3 4 5 6 
#
# 1 -1.5693 19.6793 -6.4323 0.0000 0.0000 0.0000
# 2 19.6793 218.4722 75.2837 0.0000 0.0000 0.0000
# 3 -6.4323 75.2837 82.3613 0.0000 0.0000 0.0000
# 4 0.0000 0.0000 0.0000 17.6846 0.0000 0.0000
# 5 0.0000 0.0000 0.0000 0.0000 18.9231 0.0000
# 6 0.0000 0.0000 0.0000 0.0000 0.0000 20.2101
#
#
#
# Elastic Compliance Matrix: (Units=1/GPa)
#
#
# Indices 1 2 3 4 5 6 
#
# 1 -0.155360 0.026533 -0.036386 0.000000 0.000000 0.000000
# 2 0.026533 0.002151 0.000106 0.000000 0.000000 0.000000
# 3 -0.036386 0.000106 0.009203 0.000000 0.000000 0.000000
# 4 0.000000 0.000000 0.000000 0.056546 0.000000 0.000000
# 5 0.000000 0.000000 0.000000 0.000000 0.052845 0.000000
# 6 0.000000 0.000000 0.000000 0.000000 0.000000 0.049480
#
#
# Mechanical properties :
#
#
# Convention : Reuss Voigt Hill
#
# Bulk Modulus (GPa) = -6.11619 52.92505 23.40443
# Shear Modulus (GPa) = -248.25273 25.41248 -111.42013
#
# Velocity S-wave (km/s) = -11.68350 3.73809 -7.82722
# Velocity P-wave (km/s) = 13.61501 6.90886 8.29567
#
# Compressibility (1/GPa) = -0.16350047
#
# Stress axis : x y z
#
# Youngs Moduli (GPa) = -6.43667 464.98492 108.66415
#
# Poissons Ratio (x) = -12.33728 3.95386
# Poissons Ratio (y) = 0.17078 -0.01156
# Poissons Ratio (z) = -0.23421 -0.04946
#
# Static dielectric constant tensor:
#      x y z
#    x 1.663270 0.000000 0.000000 
#    y 0.000000 1.710850 0.000000 
#    z 0.000000 0.000000 1.573550 
# 
# From -- ./inp_files/29822.got.cif
#   From: 2010.05.17/outbox.cif.g08.bks.cpg/sg64_15_cif.got.tgz:29822.got - 2010.06.03 16:29:19.
