data_PCOD9476710
_publ_section_title
;
Structure prediction by ZEFSAII (Michael W. Deem and Ramdas Pophale) SiO2 
 PCOD9476710
Probable space group: C M C A
;
_chemical_formula_sum "Si O2"
_cell_formula_units_Z 88
_cell_length_a 17.094248
_cell_length_b 9.709301
_cell_length_c 26.474154
_cell_angle_alpha 90.000000
_cell_angle_beta 90.000000
_cell_angle_gamma 90.000000
_cell_volume 4394.000036
_symmetry_space_group_name_H-M "C M C A"
_symmetry_group_IT_number 64
_symmetry_cell_setting 'orthorhombic'
loop_
_space_group_symop_operation_xyz
x,y,z
-x,1/2-y,1/2+z
x,-y,-z
-x,1/2+y,1/2-z
-x,-y,-z
x,1/2+y,1/2-z
-x,y,z
x,1/2-y,1/2+z
1/2+x,1/2+y,z
1/2-x,-y,1/2+z
1/2+x,1/2-y,-z
1/2-x,y,1/2-z
1/2-x,1/2-y,-z
1/2+x,y,1/2-z
1/2-x,1/2+y,z
1/2+x,-y,1/2+z
loop_
_atom_site_type_symbol
_atom_site_label
_atom_site_fract_x
_atom_site_fract_y
_atom_site_fract_z
Si Si1 0.807823 0.621776 0.916177
Si Si2 0.790958 0.000000 0.000000
Si Si3 0.871196 0.920059 0.811337
Si Si4 0.343941 0.692832 0.762586
Si Si5 0.790780 0.649988 0.145375
Si Si6 0.913437 0.634920 0.423311
O O1 0.818901 0.471294 0.891400
O O2 0.750553 0.722414 0.883730
O O3 0.887876 0.705981 0.919735
O O4 0.765568 0.602028 0.969672
O O5 0.847243 0.933895 0.957921
O O6 0.883367 0.776521 0.782746
O O7 0.778484 0.922395 0.823134
O O8 0.909429 0.924424 0.866358
O O9 0.884073 0.048610 0.775044
O O10 0.250000 0.677373 0.750000
O O11 0.347928 0.784734 0.813516
O O12 0.000000 0.616200 0.444017
#
# Coordination Sequence:
#
# PCOD9476710 Si02
#       6
#    16   8  16  16  16  16
#     4  11  21  37  66  95 122 158 212 264 306 364
#     4  12  21  42  71  94 116 164 222 262 303 384
#     4  10  20  33  55  85 122 160 207 251 304 367
#     4  10  18  29  55  91 122 156 203 262 306 355
#     4  10  18  33  56  92 125 153 201 263 305 353
#     4  11  25  42  61  90 132 169 202 259 327 379
#
# _framework density 20.027308999999999
#
# number of rings (size 3 to 8) (size 9 to 14) (size 15 to 20)
#    0.000    1.455    5.455    2.455    5.091    0.000 
#    0.000    1.364    0.000    1.091    0.000    0.000 
#    0.000    0.000    0.000    0.000    0.000    0.000 
#
# Total GULP energy -245505.543391 kJ/mol
# GULP energy per Si atom -5579.671441 kJ/mol
# Density = 1.998173 g / cm^3
# Si number density = 20.027309 Si / 1000 Ang^3
#
#
#
# Elastic Constant Matrix: (Units=GPa)
#
#
# Indices 1 2 3 4 5 6 
#
# 1 28.5105 5.6859 5.7396 0.0000 0.0000 0.0000
# 2 5.6859 96.2615 39.0080 0.0000 0.0000 0.0000
# 3 5.7396 39.0080 100.8805 0.0000 0.0000 0.0000
# 4 0.0000 0.0000 0.0000 41.2593 0.0000 0.0000
# 5 0.0000 0.0000 0.0000 0.0000 1.5377 0.0000
# 6 0.0000 0.0000 0.0000 0.0000 0.0000 -3.0776
#
#
#
# Elastic Compliance Matrix: (Units=1/GPa)
#
#
# Indices 1 2 3 4 5 6 
#
# 1 0.035669 -0.001523 -0.001440 0.000000 0.000000 0.000000
# 2 -0.001523 0.012384 -0.004702 0.000000 0.000000 0.000000
# 3 -0.001440 -0.004702 0.011813 0.000000 0.000000 0.000000
# 4 0.000000 0.000000 0.000000 0.024237 0.000000 0.000000
# 5 0.000000 0.000000 0.000000 0.000000 0.650342 0.000000
# 6 0.000000 0.000000 0.000000 0.000000 0.000000 -0.324929
#
#
# Mechanical properties :
#
#
# Convention : Reuss Voigt Hill
#
# Bulk Modulus (GPa) = 22.45465 36.27995 29.36730
# Shear Modulus (GPa) = 11.37164 19.62514 15.49839
#
# Velocity S-wave (km/s) = 2.38545 3.13376 2.78486
# Velocity P-wave (km/s) = 4.33861 5.59004 5.00360
#
# Compressibility (1/GPa) = 0.04453420
#
# Stress axis : x y z
#
# Youngs Moduli (GPa) = 28.03594 80.75166 84.65439
#
# Poissons Ratio (x) = 0.12300 0.12193
# Poissons Ratio (y) = 0.04270 0.39803
# Poissons Ratio (z) = 0.04038 0.37968
#
# Static dielectric constant tensor:
#      x y z
#    x 1.706280 0.000000 0.000000 
#    y 0.000000 1.757360 0.000000 
#    z 0.000000 0.000000 1.752080 
# 
# From -- ./inp_files/53556.got.cif
#   From: 2010.05.17/outbox.cif.g08.bks.cpg/sg64_27_cif.got.tgz:53556.got - 2010.06.03 16:29:19.
