data_PCOD9476167
_publ_section_title
;
Structure prediction by ZEFSAII (Michael W. Deem and Ramdas Pophale) SiO2 
 PCOD9476167
Probable space group: C M C M
;
_chemical_formula_sum "Si O2"
_cell_formula_units_Z 48
_cell_length_a 27.000000
_cell_length_b 21.000000
_cell_length_c 9.000000
_cell_angle_alpha 90.000000
_cell_angle_beta 90.000000
_cell_angle_gamma 90.000000
_cell_volume 5103.000000
_symmetry_space_group_name_H-M "C M C M"
_symmetry_group_IT_number 63
_symmetry_cell_setting 'orthorhombic'
loop_
_space_group_symop_operation_xyz
x,y,z
-x,-y,1/2+z
x,-y,-z
-x,y,1/2-z
-x,-y,-z
x,y,1/2-z
-x,y,z
x,-y,1/2+z
1/2+x,1/2+y,z
1/2-x,1/2-y,1/2+z
1/2+x,1/2-y,-z
1/2-x,1/2+y,1/2-z
1/2-x,1/2-y,-z
1/2+x,1/2+y,1/2-z
1/2-x,1/2+y,z
1/2+x,1/2-y,1/2+z
loop_
_atom_site_type_symbol
_atom_site_label
_atom_site_fract_x
_atom_site_fract_y
_atom_site_fract_z
Si Si1 0.773971 0.849827 0.423333
Si Si2 0.580904 0.806714 0.424753
Si Si3 0.446043 0.665934 0.430279
Si Si4 0.641220 0.569121 0.430346
Si Si5 0.682097 0.206940 0.420471
Si Si6 0.558738 0.938271 0.915178
O O1 0.763173 0.864587 0.250000
O O2 0.809263 0.901603 0.498291
O O3 0.725977 0.838307 0.524086
O O4 0.800417 0.780412 0.424721
O O5 0.570696 0.811377 0.250000
O O6 0.559354 0.739226 0.481105
O O7 0.638485 0.800811 0.462449
O O8 0.563986 0.871353 0.501919
O O9 0.444342 0.668612 0.250000
O O10 0.500000 0.641576 0.475576
O O11 0.402182 0.618925 0.474102
O O12 0.631639 0.500000 0.500000
O O13 0.644077 0.566205 0.250000
O O14 0.667359 0.193069 0.250000
O O15 0.580162 0.933872 0.750000
O O16 0.500000 0.949139 0.901869
O O17 0.579634 0.000000 0.000000
#
# Coordination Sequence:
#
# PCOD9476167 Si02
#       6
#    16  16  16  16  16  16
#     4  10  20  36  58  84 113 146 188 231 281 340
#     4  11  20  34  58  87 118 153 193 237 290 345
#     4   9  19  35  56  83 115 152 197 246 293 344
#     4  11  22  38  59  83 116 156 200 246 299 353
#     4  10  20  34  57  86 117 146 183 231 282 338
#     4  10  21  37  56  80 112 151 193 235 283 341
#
# _framework density 9.4062319999999993
#
# number of rings (size 3 to 8) (size 9 to 14) (size 15 to 20)
#    0.000    1.833    1.667    3.000    0.000    3.333 
#    0.000    0.833    0.000    4.500    0.000    0.000 
#    0.000    0.000    0.000    0.000    0.000    0.000 
#
# Total GULP energy -267684.739760 kJ/mol
# GULP energy per Si atom -5576.765412 kJ/mol
# Density = 0.938482 g / cm^3
# Si number density = 9.406232 Si / 1000 Ang^3
#
#
#
# Elastic Constant Matrix: (Units=GPa)
#
#
# Indices 1 2 3 4 5 6 
#
# 1 40.7616 16.4291 -9.0420 0.0000 0.0000 0.0000
# 2 16.4291 103.4525 33.9354 0.0000 0.0000 0.0000
# 3 -9.0420 33.9354 70.9760 0.0000 0.0000 0.0000
# 4 0.0000 0.0000 0.0000 31.4951 0.0000 0.0000
# 5 0.0000 0.0000 0.0000 0.0000 13.6011 0.0000
# 6 0.0000 0.0000 0.0000 0.0000 0.0000 72.6158
#
#
#
# Elastic Compliance Matrix: (Units=1/GPa)
#
#
# Indices 1 2 3 4 5 6 
#
# 1 0.028841 -0.006862 0.006955 0.000000 0.000000 0.000000
# 2 -0.006862 0.013097 -0.007136 0.000000 0.000000 0.000000
# 3 0.006955 -0.007136 0.018387 0.000000 0.000000 0.000000
# 4 0.000000 0.000000 0.000000 0.031751 0.000000 0.000000
# 5 0.000000 0.000000 0.000000 0.000000 0.073523 0.000000
# 6 0.000000 0.000000 0.000000 0.000000 0.000000 0.013771
#
#
# Mechanical properties :
#
#
# Convention : Reuss Voigt Hill
#
# Bulk Modulus (GPa) = 21.62641 33.09281 27.35961
# Shear Modulus (GPa) = 23.93842 35.13359 29.53601
#
# Velocity S-wave (km/s) = 3.57105 4.32623 3.96665
# Velocity P-wave (km/s) = 5.34078 6.52565 5.96272
#
# Compressibility (1/GPa) = 0.04623976
#
# Stress axis : x y z
#
# Youngs Moduli (GPa) = 34.67256 76.35467 54.38566
#
# Poissons Ratio (x) = 0.52392 -0.37825
# Poissons Ratio (y) = 0.23791 0.38810
# Poissons Ratio (z) = -0.24115 0.54487
#
# Static dielectric constant tensor:
#      x y z
#    x 1.684400 0.000000 0.000000 
#    y 0.000000 1.633740 0.000000 
#    z 0.000000 0.000000 1.648380 
# 
# From -- ./inp_files/12357.got.cif
#   From: 2010.05.17/outbox.ucp.g08.bks.cvg/sg63_7_cif.got.tgz:12357.got - 2010.06.11 16:32:19.
