data_PCOD9476565
_publ_section_title
;
Structure prediction by ZEFSAII (Michael W. Deem and Ramdas Pophale) SiO2 
 PCOD9476565
Probable space group: C M C A
;
_chemical_formula_sum "Si O2"
_cell_formula_units_Z 112
_cell_length_a 17.370348
_cell_length_b 20.982705
_cell_length_c 18.791226
_cell_angle_alpha 90.000000
_cell_angle_beta 90.000000
_cell_angle_gamma 90.000000
_cell_volume 6848.967571
_symmetry_space_group_name_H-M "C M C A"
_symmetry_group_IT_number 64
_symmetry_cell_setting 'orthorhombic'
loop_
_space_group_symop_operation_xyz
x,y,z
-x,1/2-y,1/2+z
x,-y,-z
-x,1/2+y,1/2-z
-x,-y,-z
x,1/2+y,1/2-z
-x,y,z
x,1/2-y,1/2+z
1/2+x,1/2+y,z
1/2-x,-y,1/2+z
1/2+x,1/2-y,-z
1/2-x,y,1/2-z
1/2-x,1/2-y,-z
1/2+x,y,1/2-z
1/2-x,1/2+y,z
1/2+x,-y,1/2+z
loop_
_atom_site_type_symbol
_atom_site_label
_atom_site_fract_x
_atom_site_fract_y
_atom_site_fract_z
Si Si1 0.168966 0.832382 0.685612
Si Si2 0.845089 0.625129 0.334488
Si Si3 0.907196 0.234390 0.441818
Si Si4 0.091796 0.243619 0.605113
Si Si5 0.592408 0.502695 0.084929
Si Si6 0.665478 0.808091 0.241795
Si Si7 0.590506 0.635356 0.870512
O O1 0.133149 0.874338 0.749937
O O2 0.253907 0.858270 0.667483
O O3 0.124397 0.818545 0.612525
O O4 0.171477 0.762405 0.722746
O O5 0.887255 0.683486 0.374672
O O6 0.865921 0.560715 0.375317
O O7 0.886328 0.227519 0.524266
O O8 0.878970 0.304477 0.415848
O O9 0.000000 0.234179 0.436639
O O10 0.137621 0.201366 0.661924
O O11 0.000000 0.235453 0.613413
O O12 0.500000 0.509530 0.097708
O O13 0.621334 0.434268 0.112626
O O14 0.603341 0.500000 0.000000
O O15 0.750000 0.837168 0.250000
O O16 0.605562 0.846567 0.289141
O O17 0.500000 0.632310 0.886161
#
# Coordination Sequence:
#
# PCOD9476565 Si02
#       7
#    16  16  16  16  16  16  16
#     4   9  18  33  49  71 103 128 166 202 243 295
#     4  10  18  32  50  71  99 135 166 202 243 295
#     4   9  18  31  50  76 103 129 159 201 250 297
#     4  10  18  29  49  76 100 130 164 198 246 299
#     4  10  20  34  50  72  99 127 163 205 244 291
#     4  10  17  33  47  71 100 128 159 199 243 293
#     4   9  18  32  49  70  97 128 160 198 242 289
#
# _framework density 16.352830000000001
#
# number of rings (size 3 to 8) (size 9 to 14) (size 15 to 20)
#    0.000    2.429    2.857    1.714    0.000    6.857 
#    5.143    0.000    0.000    0.000    0.000    0.000 
#    0.000    5.143    0.000    0.000    0.000    0.000 
#
# Total GULP energy -311781.147115 kJ/mol
# GULP energy per Si atom -5567.520484 kJ/mol
# Density = 1.631561 g / cm^3
# Si number density = 16.352830 Si / 1000 Ang^3
#
#
#
# Elastic Constant Matrix: (Units=GPa)
#
#
# Indices 1 2 3 4 5 6 
#
# 1 32.8575 19.9398 41.9369 0.0000 0.0000 0.0000
# 2 19.9398 76.3311 54.7700 0.0000 0.0000 0.0000
# 3 41.9369 54.7700 154.9398 0.0000 0.0000 0.0000
# 4 0.0000 0.0000 0.0000 21.0628 0.0000 0.0000
# 5 0.0000 0.0000 0.0000 0.0000 13.3559 0.0000
# 6 0.0000 0.0000 0.0000 0.0000 0.0000 18.0082
#
#
#
# Elastic Compliance Matrix: (Units=1/GPa)
#
#
# Indices 1 2 3 4 5 6 
#
# 1 0.047512 -0.004266 -0.011352 0.000000 0.000000 0.000000
# 2 -0.004266 0.017936 -0.005186 0.000000 0.000000 0.000000
# 3 -0.011352 -0.005186 0.011360 0.000000 0.000000 0.000000
# 4 0.000000 0.000000 0.000000 0.047477 0.000000 0.000000
# 5 0.000000 0.000000 0.000000 0.000000 0.074873 0.000000
# 6 0.000000 0.000000 0.000000 0.000000 0.000000 0.055530
#
#
# Mechanical properties :
#
#
# Convention : Reuss Voigt Hill
#
# Bulk Modulus (GPa) = 28.40847 55.26910 41.83878
# Shear Modulus (GPa) = 16.23224 20.31750 18.27487
#
# Velocity S-wave (km/s) = 3.15401 3.52866 3.34658
# Velocity P-wave (km/s) = 5.53838 7.10445 6.36973
#
# Compressibility (1/GPa) = 0.03520077
#
# Stress axis : x y z
#
# Youngs Moduli (GPa) = 21.04729 55.75359 88.03021
#
# Poissons Ratio (x) = 0.23785 0.99931
# Poissons Ratio (y) = 0.08979 0.45649
# Poissons Ratio (z) = 0.23893 0.28911
#
# Static dielectric constant tensor:
#      x y z
#    x 1.566500 0.000000 0.000000 
#    y 0.000000 1.540300 0.000000 
#    z 0.000000 0.000000 1.466880 
# 
# From -- ./inp_files/33556.got.cif
#   From: 2010.05.17/outbox.cif.g08.bks.cpg/sg64_17_cif.got.tgz:33556.got - 2010.06.03 16:29:19.
