data_PCOD9476469
_publ_section_title
;
Structure prediction by ZEFSAII (Michael W. Deem and Ramdas Pophale) SiO2 
 PCOD9476469
Probable space group: C M C A
;
_chemical_formula_sum "Si O2"
_cell_formula_units_Z 96
_cell_length_a 26.407750
_cell_length_b 17.740135
_cell_length_c 9.524727
_cell_angle_alpha 90.000000
_cell_angle_beta 90.000000
_cell_angle_gamma 90.000000
_cell_volume 4462.116007
_symmetry_space_group_name_H-M "C M C A"
_symmetry_group_IT_number 64
_symmetry_cell_setting 'orthorhombic'
loop_
_space_group_symop_operation_xyz
x,y,z
-x,1/2-y,1/2+z
x,-y,-z
-x,1/2+y,1/2-z
-x,-y,-z
x,1/2+y,1/2-z
-x,y,z
x,1/2-y,1/2+z
1/2+x,1/2+y,z
1/2-x,-y,1/2+z
1/2+x,1/2-y,-z
1/2-x,y,1/2-z
1/2-x,1/2-y,-z
1/2+x,y,1/2-z
1/2-x,1/2+y,z
1/2+x,-y,1/2+z
loop_
_atom_site_type_symbol
_atom_site_label
_atom_site_fract_x
_atom_site_fract_y
_atom_site_fract_z
Si Si1 0.366401 0.138126 0.499444
Si Si2 0.691912 0.078279 0.767223
Si Si3 0.803181 0.211869 0.507515
Si Si4 0.627275 0.340159 0.705875
Si Si5 0.407233 0.928588 0.066552
Si Si6 0.941970 0.307719 0.290587
O O1 0.330899 0.096906 0.613315
O O2 0.342618 0.220594 0.472972
O O3 0.370854 0.107402 0.342721
O O4 0.420464 0.152613 0.569591
O O5 0.750000 0.047803 0.750000
O O6 0.644907 0.041923 0.855592
O O7 0.696748 0.154016 0.862972
O O8 0.750000 0.250000 0.500000
O O9 0.817057 0.178304 0.354725
O O10 0.604699 0.378167 0.568209
O O11 0.593851 0.264955 0.734030
O O12 0.434175 0.871944 0.173217
O O13 0.435003 0.000000 0.000000
O O14 0.000000 0.284899 0.300630
#
# Coordination Sequence:
#
# PCOD9476469 Si02
#       6
#    16  16  16  16  16  16
#     4  10  19  31  51  83 118 148 197 257 313 361
#     4  10  19  34  52  78 116 163 206 254 308 370
#     4  10  17  28  49  81 118 155 199 253 302 369
#     4  10  21  35  57  91 121 158 208 258 317 369
#     4  10  23  43  62  87 129 171 211 257 316 396
#     4  10  21  39  63  89 121 160 205 261 320 375
#
# _framework density 21.514455999999999
#
# number of rings (size 3 to 8) (size 9 to 14) (size 15 to 20)
#    0.000    2.000    1.667    5.000    0.000    3.000 
#    0.000    5.000    0.000    1.000    0.000    0.000 
#    0.000    0.000    0.000    0.000    0.000    0.000 
#
# Total GULP energy -267557.478890 kJ/mol
# GULP energy per Si atom -5574.114144 kJ/mol
# Density = 2.146549 g / cm^3
# Si number density = 21.514456 Si / 1000 Ang^3
#
#
#
# Elastic Constant Matrix: (Units=GPa)
#
#
# Indices 1 2 3 4 5 6 
#
# 1 107.7574 7.2503 49.5111 0.0000 0.0000 0.0000
# 2 7.2503 43.2089 11.9132 0.0000 0.0000 0.0000
# 3 49.5111 11.9132 158.8278 0.0000 0.0000 0.0000
# 4 0.0000 0.0000 0.0000 24.4489 0.0000 0.0000
# 5 0.0000 0.0000 0.0000 0.0000 4.4577 0.0000
# 6 0.0000 0.0000 0.0000 0.0000 0.0000 3.1647
#
#
#
# Elastic Compliance Matrix: (Units=1/GPa)
#
#
# Indices 1 2 3 4 5 6 
#
# 1 0.010866 -0.000908 -0.003319 0.000000 0.000000 0.000000
# 2 -0.000908 0.023708 -0.001495 0.000000 0.000000 0.000000
# 3 -0.003319 -0.001495 0.007443 0.000000 0.000000 0.000000
# 4 0.000000 0.000000 0.000000 0.040902 0.000000 0.000000
# 5 0.000000 0.000000 0.000000 0.000000 0.224331 0.000000
# 6 0.000000 0.000000 0.000000 0.000000 0.000000 0.315983
#
#
# Mechanical properties :
#
#
# Convention : Reuss Voigt Hill
#
# Bulk Modulus (GPa) = 32.70949 49.68258 41.19604
# Shear Modulus (GPa) = 7.75352 22.48891 15.12121
#
# Velocity S-wave (km/s) = 1.90044 3.23661 2.65399
# Velocity P-wave (km/s) = 4.47796 6.09182 5.34614
#
# Compressibility (1/GPa) = 0.03057216
#
# Stress axis : x y z
#
# Youngs Moduli (GPa) = 92.02784 42.17985 134.35511
#
# Poissons Ratio (x) = 0.03831 0.44595
# Poissons Ratio (y) = 0.08358 0.20088
# Poissons Ratio (z) = 0.30546 0.06307
#
# Static dielectric constant tensor:
#      x y z
#    x 1.859740 0.000000 0.000000 
#    y 0.000000 1.932640 0.000000 
#    z 0.000000 0.000000 1.855100 
# 
# From -- ./inp_files/10379.got.cif
#   From: 2010.05.17/outbox.cif.g08.bks.cpg/sg64_6_cif.got.tgz:10379.got - 2010.06.03 16:29:19.
