data_PCOD9476046
_publ_section_title
;
Structure prediction by ZEFSAII (Michael W. Deem and Ramdas Pophale) SiO2 
 PCOD9476046
Probable space group: C M C M
;
_chemical_formula_sum "Si O2"
_cell_formula_units_Z 44
_cell_length_a 21.000000
_cell_length_b 24.000000
_cell_length_c 9.000000
_cell_angle_alpha 90.000000
_cell_angle_beta 90.000000
_cell_angle_gamma 90.000000
_cell_volume 4536.000000
_symmetry_space_group_name_H-M "C M C M"
_symmetry_group_IT_number 63
_symmetry_cell_setting 'orthorhombic'
loop_
_space_group_symop_operation_xyz
x,y,z
-x,-y,1/2+z
x,-y,-z
-x,y,1/2-z
-x,-y,-z
x,y,1/2-z
-x,y,z
x,-y,1/2+z
1/2+x,1/2+y,z
1/2-x,1/2-y,1/2+z
1/2+x,1/2-y,-z
1/2-x,1/2+y,1/2-z
1/2-x,1/2-y,-z
1/2+x,1/2+y,1/2-z
1/2-x,1/2+y,z
1/2+x,1/2-y,1/2+z
loop_
_atom_site_type_symbol
_atom_site_label
_atom_site_fract_x
_atom_site_fract_y
_atom_site_fract_z
Si Si1 0.628243 0.447958 0.920520
Si Si2 0.764602 0.443674 0.428358
Si Si3 0.622026 0.129400 0.929851
Si Si4 0.924886 0.145900 0.911010
Si Si5 0.500000 0.940110 0.069819
Si Si6 0.922919 0.749307 0.576655
O O1 0.639536 0.459412 0.750000
O O2 0.595998 0.500000 0.000000
O O3 0.694684 0.438159 0.004471
O O4 0.586886 0.395017 0.953874
O O5 0.792029 0.500000 0.500000
O O6 0.762251 0.448028 0.250000
O O7 0.810320 0.394066 0.475848
O O8 0.620843 0.127293 0.750000
O O9 0.563306 0.091833 0.980008
O O10 0.607863 0.191894 0.970431
O O11 0.899660 0.126871 0.750000
O O12 0.000000 0.151921 0.897004
O O13 0.898782 0.204387 0.964201
O O14 0.500000 0.942336 0.250000
O O15 0.500000 0.000000 0.000000
O O16 0.908057 0.761544 0.750000
O O17 0.000000 0.744241 0.569525
#
# Coordination Sequence:
#
# PCOD9476046 Si02
#       6
#    16  16  16  16   8  16
#     4  11  22  38  59  81 106 138 174 212 258 313
#     4  10  19  33  52  75 105 142 181 221 267 315
#     4   9  17  30  51  75 103 141 183 223 265 313
#     4  10  21  37  57  83 112 137 165 209 262 315
#     4  10  18  30  46  72 106 140 179 226 271 312
#     4   9  16  31  54  77 103 140 182 220 261 313
#
# _framework density 9.7001760000000008
#
# number of rings (size 3 to 8) (size 9 to 14) (size 15 to 20)
#    0.000    2.182    0.909    4.364    0.000    1.455 
#    0.000    4.545    0.000    0.000    0.000    0.000 
#    0.000    0.000    0.000    0.000    0.000    0.000 
#
# Total GULP energy -244983.145030 kJ/mol
# GULP energy per Si atom -5567.798751 kJ/mol
# Density = 0.967810 g / cm^3
# Si number density = 9.700176 Si / 1000 Ang^3
#
#
#
# Elastic Constant Matrix: (Units=GPa)
#
#
# Indices 1 2 3 4 5 6 
#
# 1 -0.9964 27.0484 21.7317 0.0000 0.0000 0.0000
# 2 27.0484 77.4476 26.5359 0.0000 0.0000 0.0000
# 3 21.7317 26.5359 71.5770 0.0000 0.0000 0.0000
# 4 0.0000 0.0000 0.0000 8.7318 0.0000 0.0000
# 5 0.0000 0.0000 0.0000 0.0000 2.2056 0.0000
# 6 0.0000 0.0000 0.0000 0.0000 0.0000 14.9589
#
#
#
# Elastic Compliance Matrix: (Units=1/GPa)
#
#
# Indices 1 2 3 4 5 6 
#
# 1 -0.077344 0.021726 0.015428 0.000000 0.000000 0.000000
# 2 0.021726 0.008688 -0.009817 0.000000 0.000000 0.000000
# 3 0.015428 -0.009817 0.012926 0.000000 0.000000 0.000000
# 4 0.000000 0.000000 0.000000 0.114523 0.000000 0.000000
# 5 0.000000 0.000000 0.000000 0.000000 0.453395 0.000000
# 6 0.000000 0.000000 0.000000 0.000000 0.000000 0.066850
#
#
# Mechanical properties :
#
#
# Convention : Reuss Voigt Hill
#
# Bulk Modulus (GPa) = -947.13963 33.18448 -456.97757
# Shear Modulus (GPa) = 9.54175 10.02675 9.78425
#
# Velocity S-wave (km/s) = 2.22014 2.27586 2.24817
# Velocity P-wave (km/s) = 21.97033 4.90391 15.14343
#
# Compressibility (1/GPa) = -0.00105581
#
# Stress axis : x y z
#
# Youngs Moduli (GPa) = -12.92926 115.10326 77.36138
#
# Poissons Ratio (x) = -2.50074 -1.19354
# Poissons Ratio (y) = 0.28090 0.75947
# Poissons Ratio (z) = 0.19947 1.12999
#
# Static dielectric constant tensor:
#      x y z
#    x 1.671250 0.000000 0.000000 
#    y 0.000000 1.794300 0.000000 
#    z 0.000000 0.000000 1.670830 
# 
# From -- ./inp_files/8217.got.cif
#   From: 2010.05.17/outbox.ucp.g08.bks.cvg/sg63_5_cif.got.tgz:8217.got - 2010.06.11 16:32:19.
