data_PCOD9476305
_publ_section_title
;
Structure prediction by ZEFSAII (Michael W. Deem and Ramdas Pophale) SiO2 
 PCOD9476305
Probable space group: C M C A
;
_chemical_formula_sum "Si O2"
_cell_formula_units_Z 96
_cell_length_a 13.553087
_cell_length_b 17.868237
_cell_length_c 14.780644
_cell_angle_alpha 90.000000
_cell_angle_beta 90.000000
_cell_angle_gamma 90.000000
_cell_volume 3579.425167
_symmetry_space_group_name_H-M "C M C A"
_symmetry_group_IT_number 64
_symmetry_cell_setting 'orthorhombic'
loop_
_space_group_symop_operation_xyz
x,y,z
-x,1/2-y,1/2+z
x,-y,-z
-x,1/2+y,1/2-z
-x,-y,-z
x,1/2+y,1/2-z
-x,y,z
x,1/2-y,1/2+z
1/2+x,1/2+y,z
1/2-x,-y,1/2+z
1/2+x,1/2-y,-z
1/2-x,y,1/2-z
1/2-x,1/2-y,-z
1/2+x,y,1/2-z
1/2-x,1/2+y,z
1/2+x,-y,1/2+z
loop_
_atom_site_type_symbol
_atom_site_label
_atom_site_fract_x
_atom_site_fract_y
_atom_site_fract_z
Si Si1 0.894054 0.649908 0.604338
Si Si2 0.831955 0.792001 0.824485
Si Si3 0.347338 0.316994 0.559882
Si Si4 0.832337 0.865782 0.353402
Si Si5 0.670492 0.477075 0.604374
Si Si6 0.395039 0.931223 0.591687
O O1 0.897832 0.738850 0.581679
O O2 0.788170 0.636276 0.652289
O O3 0.889597 0.602223 0.510527
O O4 0.000000 0.632253 0.648514
O O5 0.750000 0.805921 0.750000
O O6 0.765863 0.796288 0.916062
O O7 0.872965 0.709460 0.806875
O O8 0.899772 0.861724 0.839445
O O9 0.357974 0.344932 0.457736
O O10 0.370785 0.393135 0.616423
O O11 0.863453 0.951397 0.337319
O O12 0.651114 0.500000 0.500000
O O13 0.790164 0.469728 0.611729
O O14 0.500000 0.971648 0.599902
#
# Coordination Sequence:
#
# PCOD9476305 Si02
#       6
#    16  16  16  16  16  16
#     4  10  16  25  46  70  94 119 148 189 233 267
#     4  10  18  31  49  68  88 125 163 190 222 274
#     4   9  16  31  46  66  94 121 154 190 223 276
#     4  10  16  31  46  70  97 116 154 192 235 271
#     4   9  16  26  47  71  96 123 147 188 233 280
#     4  10  18  29  46  73  98 119 148 192 241 277
#
# _framework density 26.819946999999999
#
# number of rings (size 3 to 8) (size 9 to 14) (size 15 to 20)
#    0.000    2.333    6.667    1.000    0.000    1.000 
#    0.000    6.667    0.000    5.500    0.000    0.000 
#    0.000    0.000    0.000    0.000    0.000    0.000 
#
# Total GULP energy -267846.183147 kJ/mol
# GULP energy per Si atom -5580.128816 kJ/mol
# Density = 2.675890 g / cm^3
# Si number density = 26.819947 Si / 1000 Ang^3
#
#
#
# Elastic Constant Matrix: (Units=GPa)
#
#
# Indices 1 2 3 4 5 6 
#
# 1 72.5559 2.5133 4.8596 0.0000 0.0000 0.0000
# 2 2.5133 225.5557 13.3142 0.0000 0.0000 0.0000
# 3 4.8596 13.3142 59.5016 0.0000 0.0000 0.0000
# 4 0.0000 0.0000 0.0000 19.4688 0.0000 0.0000
# 5 0.0000 0.0000 0.0000 0.0000 1.8652 0.0000
# 6 0.0000 0.0000 0.0000 0.0000 0.0000 -3.7872
#
#
#
# Elastic Compliance Matrix: (Units=1/GPa)
#
#
# Indices 1 2 3 4 5 6 
#
# 1 0.013860 -0.000089 -0.001112 0.000000 0.000000 0.000000
# 2 -0.000089 0.004493 -0.000998 0.000000 0.000000 0.000000
# 3 -0.001112 -0.000998 0.017120 0.000000 0.000000 0.000000
# 4 0.000000 0.000000 0.000000 0.051364 0.000000 0.000000
# 5 0.000000 0.000000 0.000000 0.000000 0.536143 0.000000
# 6 0.000000 0.000000 0.000000 0.000000 0.000000 -0.264045
#
#
# Mechanical properties :
#
#
# Convention : Reuss Voigt Hill
#
# Bulk Modulus (GPa) = 32.17946 44.33192 38.25569
# Shear Modulus (GPa) = 13.37999 25.97109 19.67554
#
# Velocity S-wave (km/s) = 2.23599 3.11521 2.71147
# Velocity P-wave (km/s) = 4.32326 5.43182 4.90893
#
# Compressibility (1/GPa) = 0.03107572
#
# Stress axis : x y z
#
# Youngs Moduli (GPa) = 72.14986 222.54832 58.40963
#
# Poissons Ratio (x) = 0.01976 0.06496
# Poissons Ratio (y) = 0.00641 0.05830
# Poissons Ratio (z) = 0.08024 0.22215
#
# Static dielectric constant tensor:
#      x y z
#    x 2.105810 0.000000 0.000000 
#    y 0.000000 2.156570 0.000000 
#    z 0.000000 0.000000 2.206290 
# 
# From -- ./inp_files/33273.got.cif
#   From: 2010.05.17/outbox.cif.g08.bks.cpg/sg64_17_cif.got.tgz:33273.got - 2010.06.03 16:29:19.
