data_PCOD9476973
_publ_section_title
;
Structure prediction by ZEFSAII (Michael W. Deem and Ramdas Pophale) SiO2 
 PCOD9476973
Probable space group: C M C A
;
_chemical_formula_sum "Si O2"
_cell_formula_units_Z 72
_cell_length_a 24.993927
_cell_length_b 9.353163
_cell_length_c 15.465726
_cell_angle_alpha 90.000000
_cell_angle_beta 90.000000
_cell_angle_gamma 90.000000
_cell_volume 3615.457924
_symmetry_space_group_name_H-M "C M C A"
_symmetry_group_IT_number 64
_symmetry_cell_setting 'orthorhombic'
loop_
_space_group_symop_operation_xyz
x,y,z
-x,1/2-y,1/2+z
x,-y,-z
-x,1/2+y,1/2-z
-x,-y,-z
x,1/2+y,1/2-z
-x,y,z
x,1/2-y,1/2+z
1/2+x,1/2+y,z
1/2-x,-y,1/2+z
1/2+x,1/2-y,-z
1/2-x,y,1/2-z
1/2-x,1/2-y,-z
1/2+x,y,1/2-z
1/2-x,1/2+y,z
1/2+x,-y,1/2+z
loop_
_atom_site_type_symbol
_atom_site_label
_atom_site_fract_x
_atom_site_fract_y
_atom_site_fract_z
Si Si1 0.113219 0.000000 0.000000
Si Si2 0.623264 0.715869 0.739970
Si Si3 0.278870 0.632401 0.156710
Si Si4 0.812716 0.315138 0.406683
Si Si5 0.061247 0.468753 0.687204
O O1 0.152064 0.138071 0.988635
O O2 0.079124 0.990610 0.912517
O O3 0.670680 0.763433 0.675746
O O4 0.646928 0.748386 0.835062
O O5 0.571978 0.806564 0.713163
O O6 0.602572 0.555297 0.751819
O O7 0.250000 0.621206 0.250000
O O8 0.237093 0.708323 0.092158
O O9 0.293452 0.471216 0.128947
O O10 0.000000 0.511063 0.698258
#
# Coordination Sequence:
#
# PCOD9476973 Si02
#       5
#     8  16  16  16  16
#     4  10  21  40  52  88 118 154 185 236 290 342
#     4  10  19  36  57  86 112 145 193 237 279 339
#     4  10  18  33  56  86 113 150 181 232 273 340
#     4  10  21  33  58  82 120 149 186 219 288 340
#     4  11  22  38  62  84 111 149 198 243 287 331
#
# _framework density 19.914490000000001
#
# number of rings (size 3 to 8) (size 9 to 14) (size 15 to 20)
#    0.000    1.778    4.444    3.000    3.111    0.889 
#    0.000    0.000    0.000    5.333    0.000   14.000 
#    0.000    0.000    0.000    0.000    0.000    0.000 
#
# Total GULP energy -200649.322929 kJ/mol
# GULP energy per Si atom -5573.592304 kJ/mol
# Density = 1.986916 g / cm^3
# Si number density = 19.914490 Si / 1000 Ang^3
#
#
#
# Elastic Constant Matrix: (Units=GPa)
#
#
# Indices 1 2 3 4 5 6 
#
# 1 93.1007 14.3582 9.2687 0.0000 0.0000 0.0000
# 2 14.3582 53.8688 23.1454 0.0000 0.0000 0.0000
# 3 9.2687 23.1454 60.8880 0.0000 0.0000 0.0000
# 4 0.0000 0.0000 0.0000 28.3246 0.0000 0.0000
# 5 0.0000 0.0000 0.0000 0.0000 29.4654 0.0000
# 6 0.0000 0.0000 0.0000 0.0000 0.0000 27.7082
#
#
#
# Elastic Compliance Matrix: (Units=1/GPa)
#
#
# Indices 1 2 3 4 5 6 
#
# 1 0.011225 -0.002699 -0.000683 0.000000 0.000000 0.000000
# 2 -0.002699 0.022836 -0.008270 0.000000 0.000000 0.000000
# 3 -0.000683 -0.008270 0.019671 0.000000 0.000000 0.000000
# 4 0.000000 0.000000 0.000000 0.035305 0.000000 0.000000
# 5 0.000000 0.000000 0.000000 0.000000 0.033938 0.000000
# 6 0.000000 0.000000 0.000000 0.000000 0.000000 0.036090
#
#
# Mechanical properties :
#
#
# Convention : Reuss Voigt Hill
#
# Bulk Modulus (GPa) = 32.86260 33.48913 33.17587
# Shear Modulus (GPa) = 25.97238 27.83866 26.90552
#
# Velocity S-wave (km/s) = 3.61528 3.74292 3.67965
# Velocity P-wave (km/s) = 5.82792 5.96089 5.89478
#
# Compressibility (1/GPa) = 0.03042972
#
# Stress axis : x y z
#
# Youngs Moduli (GPa) = 89.08507 43.79017 50.83569
#
# Poissons Ratio (x) = 0.11817 0.03472
# Poissons Ratio (y) = 0.24040 0.42041
# Poissons Ratio (z) = 0.06084 0.36214
#
# Static dielectric constant tensor:
#      x y z
#    x 1.729180 0.000000 0.000000 
#    y 0.000000 1.672500 0.000000 
#    z 0.000000 0.000000 1.741140 
# 
# From -- ./inp_files/27823.got.cif
#   From: 2010.05.17/outbox.cif.g08.bks.cpg/sg64_14_cif.got.tgz:27823.got - 2010.06.03 16:29:19.
