data_PCOD9476212
_publ_section_title
;
Structure prediction by ZEFSAII (Michael W. Deem and Ramdas Pophale) SiO2 
 PCOD9476212
Probable space group: C M C M
;
_chemical_formula_sum "Si O2"
_cell_formula_units_Z 48
_cell_length_a 9.000000
_cell_length_b 24.000000
_cell_length_c 24.000000
_cell_angle_alpha 90.000000
_cell_angle_beta 90.000000
_cell_angle_gamma 90.000000
_cell_volume 5184.000000
_symmetry_space_group_name_H-M "C M C M"
_symmetry_group_IT_number 63
_symmetry_cell_setting 'orthorhombic'
loop_
_space_group_symop_operation_xyz
x,y,z
-x,-y,1/2+z
x,-y,-z
-x,y,1/2-z
-x,-y,-z
x,y,1/2-z
-x,y,z
x,-y,1/2+z
1/2+x,1/2+y,z
1/2-x,1/2-y,1/2+z
1/2+x,1/2-y,-z
1/2-x,1/2+y,1/2-z
1/2-x,1/2-y,-z
1/2+x,1/2+y,1/2-z
1/2-x,1/2+y,z
1/2+x,1/2-y,1/2+z
loop_
_atom_site_type_symbol
_atom_site_label
_atom_site_fract_x
_atom_site_fract_y
_atom_site_fract_z
Si Si1 0.169633 0.432652 0.683387
Si Si2 0.674522 0.564663 0.500289
Si Si3 0.322523 0.861047 0.406181
Si Si4 0.175483 0.250519 0.939472
Si Si5 0.680711 0.054117 0.812856
Si Si6 0.329289 0.357691 0.605834
O O1 0.163861 0.435652 0.750000
O O2 0.224823 0.493559 0.664311
O O3 0.276900 0.384933 0.662841
O O4 0.000000 0.423511 0.663096
O O5 0.719055 0.500000 0.500000
O O6 0.500000 0.567472 0.517104
O O7 0.771769 0.601618 0.541715
O O8 0.686186 0.593788 0.440319
O O9 0.500000 0.853433 0.407211
O O10 0.240963 0.802526 0.408074
O O11 0.276762 0.895968 0.352235
O O12 0.224294 0.307056 0.910183
O O13 0.000000 0.246250 0.945289
O O14 0.250000 0.250000 0.000000
O O15 0.734742 0.061030 0.750000
O O16 0.500000 0.052187 0.811235
O O17 0.500000 0.339103 0.606018
#
# Coordination Sequence:
#
# PCOD9476212 Si02
#       6
#    16  16  16  16  16  16
#     4   9  18  35  59  85 115 151 188 230 279 328
#     4  10  21  35  52  78 114 149 180 227 286 338
#     4  11  21  34  57  85 111 146 190 233 281 338
#     4  12  24  40  59  79 109 149 190 235 284 339
#     4   8  16  33  57  85 116 149 186 228 275 330
#     4  11  22  36  56  82 113 149 188 230 280 338
#
# _framework density 9.2592590000000001
#
# number of rings (size 3 to 8) (size 9 to 14) (size 15 to 20)
#    0.000    1.833    1.667    4.500    0.000    1.333 
#    0.000    1.667    0.000    7.000    0.000    0.000 
#    0.000    0.000    0.000    0.000    0.000    0.000 
#
# Total GULP energy -267861.984108 kJ/mol
# GULP energy per Si atom -5580.458002 kJ/mol
# Density = 0.923818 g / cm^3
# Si number density = 9.259259 Si / 1000 Ang^3
#
#
#
# Elastic Constant Matrix: (Units=GPa)
#
#
# Indices 1 2 3 4 5 6 
#
# 1 71.7671 41.9709 22.4218 0.0000 0.0000 0.0000
# 2 41.9709 113.9364 31.1776 0.0000 0.0000 0.0000
# 3 22.4218 31.1776 42.3528 0.0000 0.0000 0.0000
# 4 0.0000 0.0000 0.0000 0.0778 0.0000 0.0000
# 5 0.0000 0.0000 0.0000 0.0000 -11.6087 0.0000
# 6 0.0000 0.0000 0.0000 0.0000 0.0000 41.0413
#
#
#
# Elastic Compliance Matrix: (Units=1/GPa)
#
#
# Indices 1 2 3 4 5 6 
#
# 1 0.018950 -0.005304 -0.006128 0.000000 0.000000 0.000000
# 2 -0.005304 0.012475 -0.006376 0.000000 0.000000 0.000000
# 3 -0.006128 -0.006376 0.031549 0.000000 0.000000 0.000000
# 4 0.000000 0.000000 0.000000 12.848094 0.000000 0.000000
# 5 0.000000 0.000000 0.000000 0.000000 -0.086143 0.000000
# 6 0.000000 0.000000 0.000000 0.000000 0.000000 0.024366
#
#
# Mechanical properties :
#
#
# Convention : Reuss Voigt Hill
#
# Bulk Modulus (GPa) = 36.55064 46.57743 41.56404
# Shear Modulus (GPa) = 0.38778 14.73449 7.56113
#
# Velocity S-wave (km/s) = 0.45810 2.82381 2.02284
# Velocity P-wave (km/s) = 4.47884 5.98651 5.28669
#
# Compressibility (1/GPa) = 0.02735930
#
# Stress axis : x y z
#
# Youngs Moduli (GPa) = 52.76956 80.15860 31.69695
#
# Poissons Ratio (x) = 0.42515 0.19424
# Poissons Ratio (y) = 0.27988 0.20209
# Poissons Ratio (z) = 0.32337 0.51106
#
# Static dielectric constant tensor:
#      x y z
#    x 1.625320 0.000000 0.000000 
#    y 0.000000 1.630750 0.000000 
#    z 0.000000 0.000000 1.653610 
# 
# From -- ./inp_files/59904.got.cif
#   From: 2010.05.17/outbox.ucp.g08.bks.cvg/sg63_30_cif.got.tgz:59904.got - 2010.06.11 16:32:19.
