data_PCOD9476706
_publ_section_title
;
Structure prediction by ZEFSAII (Michael W. Deem and Ramdas Pophale) SiO2 
 PCOD9476706
Probable space group: C M C A
;
_chemical_formula_sum "Si O2"
_cell_formula_units_Z 112
_cell_length_a 14.643573
_cell_length_b 14.577038
_cell_length_c 26.060943
_cell_angle_alpha 90.000000
_cell_angle_beta 90.000000
_cell_angle_gamma 90.000000
_cell_volume 5562.966810
_symmetry_space_group_name_H-M "C M C A"
_symmetry_group_IT_number 64
_symmetry_cell_setting 'orthorhombic'
loop_
_space_group_symop_operation_xyz
x,y,z
-x,1/2-y,1/2+z
x,-y,-z
-x,1/2+y,1/2-z
-x,-y,-z
x,1/2+y,1/2-z
-x,y,z
x,1/2-y,1/2+z
1/2+x,1/2+y,z
1/2-x,-y,1/2+z
1/2+x,1/2-y,-z
1/2-x,y,1/2-z
1/2-x,1/2-y,-z
1/2+x,y,1/2-z
1/2-x,1/2+y,z
1/2+x,-y,1/2+z
loop_
_atom_site_type_symbol
_atom_site_label
_atom_site_fract_x
_atom_site_fract_y
_atom_site_fract_z
Si Si1 0.258468 0.869461 0.650807
Si Si2 0.109623 0.244778 0.977051
Si Si3 0.101774 0.715739 0.413365
Si Si4 0.889822 0.713165 0.639947
Si Si5 0.401328 0.923581 0.113826
Si Si6 0.195205 0.060700 0.455231
Si Si7 0.232939 0.561982 0.691744
O O1 0.343254 0.804998 0.638336
O O2 0.168534 0.804851 0.656541
O O3 0.253579 0.919744 0.595332
O O4 0.279269 0.951216 0.689646
O O5 0.130141 0.201649 0.921281
O O6 0.155161 0.344233 0.974917
O O7 0.000000 0.253334 0.980202
O O8 0.138987 0.193616 0.029263
O O9 0.098119 0.825635 0.413355
O O10 0.000000 0.676620 0.409414
O O11 0.847774 0.624984 0.668606
O O12 0.000000 0.723486 0.646470
O O13 0.500000 0.939549 0.138502
O O14 0.321792 0.924146 0.155881
O O15 0.384623 0.998972 0.070113
O O16 0.238212 0.000000 0.500000
O O17 0.250000 0.590787 0.750000
#
# Coordination Sequence:
#
# PCOD9476706 Si02
#       7
#    16  16  16  16  16  16  16
#     4  10  23  39  59  89 125 163 207 261 311 368
#     4   9  18  31  55  89 127 168 202 242 296 367
#     4  10  19  34  57  87 127 167 200 239 295 365
#     4  10  22  43  66  93 128 165 204 255 315 378
#     4  10  20  35  58  89 121 151 195 252 307 361
#     4  10  18  29  52  88 123 161 201 244 295 360
#     4  11  25  44  67  87 116 156 210 269 325 372
#
# _framework density 20.133141999999999
#
# number of rings (size 3 to 8) (size 9 to 14) (size 15 to 20)
#    0.000    2.000    2.857    0.429    0.000   10.286 
#    0.000    0.000    0.000    3.000    0.000    0.000 
#    0.000    0.000    0.000    0.000    0.000    0.000 
#
# Total GULP energy -311935.887848 kJ/mol
# GULP energy per Si atom -5570.283712 kJ/mol
# Density = 2.008732 g / cm^3
# Si number density = 20.133142 Si / 1000 Ang^3
#
#
#
# Elastic Constant Matrix: (Units=GPa)
#
#
# Indices 1 2 3 4 5 6 
#
# 1 75.3938 33.9595 28.1425 0.0000 0.0000 0.0000
# 2 33.9595 58.6450 18.8141 0.0000 0.0000 0.0000
# 3 28.1425 18.8141 63.9461 0.0000 0.0000 0.0000
# 4 0.0000 0.0000 0.0000 22.3432 0.0000 0.0000
# 5 0.0000 0.0000 0.0000 0.0000 12.8598 0.0000
# 6 0.0000 0.0000 0.0000 0.0000 0.0000 0.6920
#
#
#
# Elastic Compliance Matrix: (Units=1/GPa)
#
#
# Indices 1 2 3 4 5 6 
#
# 1 0.019766 -0.009557 -0.005887 0.000000 0.000000 0.000000
# 2 -0.009557 0.023450 -0.002693 0.000000 0.000000 0.000000
# 3 -0.005887 -0.002693 0.019021 0.000000 0.000000 0.000000
# 4 0.000000 0.000000 0.000000 0.044756 0.000000 0.000000
# 5 0.000000 0.000000 0.000000 0.000000 0.077761 0.000000
# 6 0.000000 0.000000 0.000000 0.000000 0.000000 1.445061
#
#
# Mechanical properties :
#
#
# Convention : Reuss Voigt Hill
#
# Bulk Modulus (GPa) = 38.51729 39.97965 39.24847
# Shear Modulus (GPa) = 2.98553 14.98360 8.98456
#
# Velocity S-wave (km/s) = 1.21906 2.73101 2.11477
# Velocity P-wave (km/s) = 4.59938 5.46308 5.04973
#
# Compressibility (1/GPa) = 0.02596237
#
# Stress axis : x y z
#
# Youngs Moduli (GPa) = 50.59191 42.64372 52.57217
#
# Poissons Ratio (x) = 0.40756 0.30949
# Poissons Ratio (y) = 0.48352 0.14159
# Poissons Ratio (z) = 0.29784 0.11485
#
# Static dielectric constant tensor:
#      x y z
#    x 1.781870 0.000000 0.000000 
#    y 0.000000 1.773220 0.000000 
#    z 0.000000 0.000000 1.734270 
# 
# From -- ./inp_files/50050.got.cif
#   From: 2010.05.17/outbox.cif.g08.bks.cpg/sg64_26_cif.got.tgz:50050.got - 2010.06.03 16:29:19.
