data_PCOD9476811
_publ_section_title
;
Structure prediction by ZEFSAII (Michael W. Deem and Ramdas Pophale) SiO2 
 PCOD9476811
Probable space group: C M C A
;
_chemical_formula_sum "Si O2"
_cell_formula_units_Z 80
_cell_length_a 8.557183
_cell_length_b 26.327339
_cell_length_c 20.474976
_cell_angle_alpha 90.000000
_cell_angle_beta 90.000000
_cell_angle_gamma 90.000000
_cell_volume 4612.763480
_symmetry_space_group_name_H-M "C M C A"
_symmetry_group_IT_number 64
_symmetry_cell_setting 'orthorhombic'
loop_
_space_group_symop_operation_xyz
x,y,z
-x,1/2-y,1/2+z
x,-y,-z
-x,1/2+y,1/2-z
-x,-y,-z
x,1/2+y,1/2-z
-x,y,z
x,1/2-y,1/2+z
1/2+x,1/2+y,z
1/2-x,-y,1/2+z
1/2+x,1/2-y,-z
1/2-x,y,1/2-z
1/2-x,1/2-y,-z
1/2+x,y,1/2-z
1/2-x,1/2+y,z
1/2+x,-y,1/2+z
loop_
_atom_site_type_symbol
_atom_site_label
_atom_site_fract_x
_atom_site_fract_y
_atom_site_fract_z
Si Si1 0.687189 0.978450 0.070933
Si Si2 0.187806 0.262727 0.072601
Si Si3 0.310336 0.846173 0.599699
Si Si4 0.687194 0.131806 0.550510
Si Si5 0.812577 0.056382 0.177733
O O1 0.500000 0.980466 0.073571
O O2 0.743436 0.920556 0.076290
O O3 0.756394 0.013708 0.127268
O O4 0.738194 0.000000 0.000000
O O5 0.235725 0.212304 0.112747
O O6 0.256325 0.317831 0.088329
O O7 0.000000 0.265698 0.071554
O O8 0.250000 0.250000 0.000000
O O9 0.500000 0.846859 0.599544
O O10 0.262363 0.861523 0.525770
O O11 0.256194 0.889029 0.649677
O O12 0.500000 0.129805 0.551603
O O13 0.750000 0.047571 0.250000
O O14 0.000000 0.056734 0.178731
#
# Coordination Sequence:
#
# PCOD9476811 Si02
#       5
#    16  16  16  16  16
#     4  11  22  35  54  82 110 141 184 233 279 329
#     4   9  16  28  46  74 105 137 172 215 266 320
#     4   8  16  30  50  73 104 140 174 213 269 325
#     4  10  18  31  51  78 107 142 177 219 276 327
#     4  11  22  38  56  78 109 147 185 225 274 332
#
# _framework density 17.343181999999999
#
# number of rings (size 3 to 8) (size 9 to 14) (size 15 to 20)
#    0.000    2.200    2.000    3.600    0.000    0.800 
#    0.000    3.000    0.000    1.200    0.000    5.600 
#    0.000    0.000    0.000    0.000    0.000    0.000 
#
# Total GULP energy -223014.560355 kJ/mol
# GULP energy per Si atom -5575.364009 kJ/mol
# Density = 1.730371 g / cm^3
# Si number density = 17.343182 Si / 1000 Ang^3
#
#
#
# Elastic Constant Matrix: (Units=GPa)
#
#
# Indices 1 2 3 4 5 6 
#
# 1 52.1155 37.9655 29.0932 0.0000 0.0000 0.0000
# 2 37.9655 185.9088 71.5522 0.0000 0.0000 0.0000
# 3 29.0932 71.5522 92.8477 0.0000 0.0000 0.0000
# 4 0.0000 0.0000 0.0000 18.1503 0.0000 0.0000
# 5 0.0000 0.0000 0.0000 0.0000 16.5279 0.0000
# 6 0.0000 0.0000 0.0000 0.0000 0.0000 27.4663
#
#
#
# Elastic Compliance Matrix: (Units=1/GPa)
#
#
# Indices 1 2 3 4 5 6 
#
# 1 0.024301 -0.002889 -0.005388 0.000000 0.000000 0.000000
# 2 -0.002889 0.007991 -0.005253 0.000000 0.000000 0.000000
# 3 -0.005388 -0.005253 0.016507 0.000000 0.000000 0.000000
# 4 0.000000 0.000000 0.000000 0.055096 0.000000 0.000000
# 5 0.000000 0.000000 0.000000 0.000000 0.060504 0.000000
# 6 0.000000 0.000000 0.000000 0.000000 0.000000 0.036408
#
#
# Mechanical properties :
#
#
# Convention : Reuss Voigt Hill
#
# Bulk Modulus (GPa) = 46.00154 67.56597 56.78376
# Shear Modulus (GPa) = 21.26659 25.24630 23.25645
#
# Velocity S-wave (km/s) = 3.50554 3.81949 3.66588
# Velocity P-wave (km/s) = 6.55492 7.64815 7.12254
#
# Compressibility (1/GPa) = 0.02173840
#
# Stress axis : x y z
#
# Youngs Moduli (GPa) = 41.15141 125.14797 60.58176
#
# Poissons Ratio (x) = 0.36152 0.32643
# Poissons Ratio (y) = 0.11888 0.31822
# Poissons Ratio (z) = 0.22173 0.65736
#
# Static dielectric constant tensor:
#      x y z
#    x 1.580940 0.000000 0.000000 
#    y 0.000000 1.625960 0.000000 
#    z 0.000000 0.000000 1.572940 
# 
# From -- ./inp_files/29807.got.cif
#   From: 2010.05.17/outbox.cif.g08.bks.cpg/sg64_15_cif.got.tgz:29807.got - 2010.06.03 16:29:19.
