data_PCOD9476348
_publ_section_title
;
Structure prediction by ZEFSAII (Michael W. Deem and Ramdas Pophale) SiO2 
 PCOD9476348
Probable space group: C M C A
;
_chemical_formula_sum "Si O2"
_cell_formula_units_Z 80
_cell_length_a 28.898740
_cell_length_b 5.203301
_cell_length_c 34.050671
_cell_angle_alpha 90.000000
_cell_angle_beta 90.000000
_cell_angle_gamma 90.000000
_cell_volume 5120.159993
_symmetry_space_group_name_H-M "C M C A"
_symmetry_group_IT_number 64
_symmetry_cell_setting 'orthorhombic'
loop_
_space_group_symop_operation_xyz
x,y,z
-x,1/2-y,1/2+z
x,-y,-z
-x,1/2+y,1/2-z
-x,-y,-z
x,1/2+y,1/2-z
-x,y,z
x,1/2-y,1/2+z
1/2+x,1/2+y,z
1/2-x,-y,1/2+z
1/2+x,1/2-y,-z
1/2-x,y,1/2-z
1/2-x,1/2-y,-z
1/2+x,y,1/2-z
1/2-x,1/2+y,z
1/2+x,-y,1/2+z
loop_
_atom_site_type_symbol
_atom_site_label
_atom_site_fract_x
_atom_site_fract_y
_atom_site_fract_z
Si Si1 0.781473 0.125023 0.640081
Si Si2 0.717879 0.000000 0.000000
Si Si3 0.147479 0.535944 0.928065
Si Si4 0.500000 0.256677 0.028137
Si Si5 0.596899 0.537083 0.952742
Si Si6 0.802288 0.881366 0.267925
O O1 0.754032 0.389975 0.633186
O O2 0.825115 0.093913 0.611719
O O3 0.797122 0.116389 0.685540
O O4 0.684808 0.047605 0.962989
O O5 0.750000 0.250000 0.000000
O O6 0.130061 0.243714 0.932183
O O7 0.107919 0.753369 0.935659
O O8 0.547259 0.317054 0.051362
O O9 0.500000 0.500000 0.000000
O O10 0.500000 0.000000 0.000000
O O11 0.604825 0.500000 0.000000
O O12 0.825482 0.630313 0.250339
O O13 0.750000 0.879708 0.250000
#
# Coordination Sequence:
#
# PCOD9476348 Si02
#       6
#    16   8  16   8  16  16
#     4  12  21  33  48  70  97 132 182 206 241 293
#     4  12  22  36  46  59  92 141 186 202 232 268
#     4  12  23  34  50  69 100 134 167 220 246 283
#     4  10  20  34  60  82  90 118 166 212 262 338
#     4  11  20  38  53  73  97 125 163 211 267 300
#     4  10  16  30  49  67  88 122 165 208 258 287
#
# _framework density 15.624513
#
# number of rings (size 3 to 8) (size 9 to 14) (size 15 to 20)
#    0.000    0.800    6.000    6.000    0.000    0.000 
#    0.000    0.000    0.000    0.000    0.000    0.000 
#    0.000    0.000    0.000   18.000    0.000    0.000 
#
# Total GULP energy -222759.553277 kJ/mol
# GULP energy per Si atom -5568.988832 kJ/mol
# Density = 1.558895 g / cm^3
# Si number density = 15.624513 Si / 1000 Ang^3
#
#
#
# Elastic Constant Matrix: (Units=GPa)
#
#
# Indices 1 2 3 4 5 6 
#
# 1 44.0657 9.9465 20.4859 0.0000 0.0000 0.0000
# 2 9.9465 121.1964 2.3919 0.0000 0.0000 0.0000
# 3 20.4859 2.3919 88.2537 0.0000 0.0000 0.0000
# 4 0.0000 0.0000 0.0000 15.6242 0.0000 0.0000
# 5 0.0000 0.0000 0.0000 0.0000 -82.3983 0.0000
# 6 0.0000 0.0000 0.0000 0.0000 0.0000 19.4171
#
#
#
# Elastic Compliance Matrix: (Units=1/GPa)
#
#
# Indices 1 2 3 4 5 6 
#
# 1 0.025919 -0.002009 -0.005962 0.000000 0.000000 0.000000
# 2 -0.002009 0.008411 0.000238 0.000000 0.000000 0.000000
# 3 -0.005962 0.000238 0.012708 0.000000 0.000000 0.000000
# 4 0.000000 0.000000 0.000000 0.064003 0.000000 0.000000
# 5 0.000000 0.000000 0.000000 0.000000 -0.012136 0.000000
# 6 0.000000 0.000000 0.000000 0.000000 0.000000 0.051501
#
#
# Mechanical properties :
#
#
# Convention : Reuss Voigt Hill
#
# Bulk Modulus (GPa) = 31.67312 35.46274 33.56793
# Shear Modulus (GPa) = 28.34524 5.24136 16.79330
#
# Velocity S-wave (km/s) = 4.26391 1.83354 3.28198
# Velocity P-wave (km/s) = 6.67508 5.21810 5.99105
#
# Compressibility (1/GPa) = 0.03157251
#
# Stress axis : x y z
#
# Youngs Moduli (GPa) = 38.58232 118.88798 78.68801
#
# Poissons Ratio (x) = 0.23890 0.46913
# Poissons Ratio (y) = 0.07753 -0.01877
# Poissons Ratio (z) = 0.23002 -0.02835
#
# Static dielectric constant tensor:
#      x y z
#    x 1.609560 0.000000 0.000000 
#    y 0.000000 1.520460 0.000000 
#    z 0.000000 0.000000 1.493190 
# 
# From -- ./inp_files/53988.got.cif
#   From: 2010.05.17/outbox.cif.g08.bks.cpg/sg64_27_cif.got.tgz:53988.got - 2010.06.03 16:29:19.
