data_PCOD9476646
_publ_section_title
;
Structure prediction by ZEFSAII (Michael W. Deem and Ramdas Pophale) SiO2 
 PCOD9476646
Probable space group: C M C A
;
_chemical_formula_sum "Si O2"
_cell_formula_units_Z 96
_cell_length_a 8.585432
_cell_length_b 23.415385
_cell_length_c 27.479141
_cell_angle_alpha 90.000000
_cell_angle_beta 90.000000
_cell_angle_gamma 90.000000
_cell_volume 5524.164571
_symmetry_space_group_name_H-M "C M C A"
_symmetry_group_IT_number 64
_symmetry_cell_setting 'orthorhombic'
loop_
_space_group_symop_operation_xyz
x,y,z
-x,1/2-y,1/2+z
x,-y,-z
-x,1/2+y,1/2-z
-x,-y,-z
x,1/2+y,1/2-z
-x,y,z
x,1/2-y,1/2+z
1/2+x,1/2+y,z
1/2-x,-y,1/2+z
1/2+x,1/2-y,-z
1/2-x,y,1/2-z
1/2-x,1/2-y,-z
1/2+x,y,1/2-z
1/2-x,1/2+y,z
1/2+x,-y,1/2+z
loop_
_atom_site_type_symbol
_atom_site_label
_atom_site_fract_x
_atom_site_fract_y
_atom_site_fract_z
Si Si1 0.181440 0.352144 0.122909
Si Si2 0.823975 0.269185 0.450314
Si Si3 0.687044 0.571267 0.452798
Si Si4 0.313842 0.753575 0.195649
Si Si5 0.815483 0.055603 0.943035
Si Si6 0.824276 0.336073 0.876788
O O1 0.207167 0.311362 0.076601
O O2 0.240687 0.311194 0.166741
O O3 0.270739 0.408362 0.104919
O O4 0.000000 0.365163 0.130700
O O5 0.750000 0.250000 0.500000
O O6 0.835584 0.213504 0.416955
O O7 0.000000 0.293523 0.454866
O O8 0.500000 0.577927 0.456517
O O9 0.759823 0.584707 0.505937
O O10 0.731307 0.505718 0.442445
O O11 0.742080 0.610768 0.407727
O O12 0.500000 0.755886 0.195593
O O13 0.250000 0.753240 0.250000
O O14 0.263246 0.696186 0.166871
O O15 0.000000 0.047582 0.945692
O O16 0.000000 0.350968 0.860339
#
# Coordination Sequence:
#
# PCOD9476646 Si02
#       6
#    16  16  16  16  16  16
#     4  10  20  34  50  71  98 132 170 208 252 303
#     4  10  18  28  44  69 100 132 163 201 246 298
#     4  10  19  33  52  74 105 144 177 209 246 294
#     4  10  21  36  57  79 101 128 162 208 261 312
#     4  11  21  32  49  75 106 141 177 214 249 293
#     4   9  19  33  50  72  99 131 168 206 249 298
#
# _framework density 17.378194000000001
#
# number of rings (size 3 to 8) (size 9 to 14) (size 15 to 20)
#    0.000    2.000    0.000    5.500    0.000    5.333 
#    0.000    0.000    0.000    1.000    0.000    4.667 
#    0.000    0.000    0.000    0.000    0.000    0.000 
#
# Total GULP energy -267476.893751 kJ/mol
# GULP energy per Si atom -5572.435286 kJ/mol
# Density = 1.733864 g / cm^3
# Si number density = 17.378194 Si / 1000 Ang^3
#
#
#
# Elastic Constant Matrix: (Units=GPa)
#
#
# Indices 1 2 3 4 5 6 
#
# 1 46.3463 4.7841 22.5789 0.0000 0.0000 0.0000
# 2 4.7841 67.4253 38.9659 0.0000 0.0000 0.0000
# 3 22.5789 38.9659 110.7780 0.0000 0.0000 0.0000
# 4 0.0000 0.0000 0.0000 24.3165 0.0000 0.0000
# 5 0.0000 0.0000 0.0000 0.0000 17.1031 0.0000
# 6 0.0000 0.0000 0.0000 0.0000 0.0000 20.8618
#
#
#
# Elastic Compliance Matrix: (Units=1/GPa)
#
#
# Indices 1 2 3 4 5 6 
#
# 1 0.024062 0.001415 -0.005402 0.000000 0.000000 0.000000
# 2 0.001415 0.018699 -0.006865 0.000000 0.000000 0.000000
# 3 -0.005402 -0.006865 0.012543 0.000000 0.000000 0.000000
# 4 0.000000 0.000000 0.000000 0.041124 0.000000 0.000000
# 5 0.000000 0.000000 0.000000 0.000000 0.058469 0.000000
# 6 0.000000 0.000000 0.000000 0.000000 0.000000 0.047934
#
#
# Mechanical properties :
#
#
# Convention : Reuss Voigt Hill
#
# Bulk Modulus (GPa) = 29.76355 39.68971 34.72663
# Shear Modulus (GPa) = 21.21010 23.00434 22.10722
#
# Velocity S-wave (km/s) = 3.49736 3.64228 3.57055
# Velocity P-wave (km/s) = 5.78557 6.36998 6.08480
#
# Compressibility (1/GPa) = 0.03359814
#
# Stress axis : x y z
#
# Youngs Moduli (GPa) = 41.55856 53.48018 79.72560
#
# Poissons Ratio (x) = -0.07565 0.43068
# Poissons Ratio (y) = -0.05879 0.54735
# Poissons Ratio (z) = 0.22450 0.36717
#
# Static dielectric constant tensor:
#      x y z
#    x 1.614220 0.000000 0.000000 
#    y 0.000000 1.599480 0.000000 
#    z 0.000000 0.000000 1.517720 
# 
# From -- ./inp_files/48378.got.cif
#   From: 2010.05.17/outbox.cif.g08.bks.cpg/sg64_25_cif.got.tgz:48378.got - 2010.06.03 16:29:19.
