data_PCOD9476767
_publ_section_title
;
Structure prediction by ZEFSAII (Michael W. Deem and Ramdas Pophale) SiO2 
 PCOD9476767
Probable space group: C M C A
;
_chemical_formula_sum "Si O2"
_cell_formula_units_Z 112
_cell_length_a 18.844728
_cell_length_b 13.733076
_cell_length_c 22.459840
_cell_angle_alpha 90.000000
_cell_angle_beta 90.000000
_cell_angle_gamma 90.000000
_cell_volume 5812.518590
_symmetry_space_group_name_H-M "C M C A"
_symmetry_group_IT_number 64
_symmetry_cell_setting 'orthorhombic'
loop_
_space_group_symop_operation_xyz
x,y,z
-x,1/2-y,1/2+z
x,-y,-z
-x,1/2+y,1/2-z
-x,-y,-z
x,1/2+y,1/2-z
-x,y,z
x,1/2-y,1/2+z
1/2+x,1/2+y,z
1/2-x,-y,1/2+z
1/2+x,1/2-y,-z
1/2-x,y,1/2-z
1/2-x,1/2-y,-z
1/2+x,y,1/2-z
1/2-x,1/2+y,z
1/2+x,-y,1/2+z
loop_
_atom_site_type_symbol
_atom_site_label
_atom_site_fract_x
_atom_site_fract_y
_atom_site_fract_z
Si Si1 0.201405 0.798071 0.913152
Si Si2 0.868205 0.618013 0.853401
Si Si3 0.420396 0.468247 0.562393
Si Si4 0.167493 0.339151 0.453659
Si Si5 0.830530 0.842306 0.226575
Si Si6 0.780334 0.007920 0.867714
Si Si7 0.916647 0.775637 0.630844
O O1 0.150437 0.722293 0.880617
O O2 0.271991 0.736018 0.928988
O O3 0.215787 0.892673 0.873307
O O4 0.168735 0.830733 0.976008
O O5 0.922490 0.560797 0.894476
O O6 0.878388 0.633250 0.783589
O O7 0.798725 0.549226 0.860235
O O8 0.383527 0.500000 0.500000
O O9 0.500000 0.436036 0.545632
O O10 0.392699 0.377385 0.600643
O O11 0.189611 0.443354 0.427987
O O12 0.096431 0.303385 0.421334
O O13 0.750000 0.816648 0.250000
O O14 0.867433 0.760469 0.185541
O O15 0.821629 0.938991 0.186125
O O16 0.000000 0.781924 0.647330
#
# Coordination Sequence:
#
# PCOD9476767 Si02
#       7
#    16  16  16  16  16  16  16
#     4  10  18  30  52  78 106 139 173 223 285 332
#     4  10  20  32  51  77 104 138 180 228 276 326
#     4  10  21  36  54  78 109 146 188 234 285 339
#     4   9  18  31  50  79 108 135 176 225 275 336
#     4   9  20  37  54  80 110 142 188 233 279 332
#     4   9  18  32  50  75 106 137 171 219 277 332
#     4  10  20  36  59  82 111 154 194 233 286 344
#
# _framework density 19.268754999999999
#
# number of rings (size 3 to 8) (size 9 to 14) (size 15 to 20)
#    0.000    2.429    0.000    3.000    0.000    4.000 
#    0.000    8.571    0.000   10.286    0.000    0.000 
#    0.000    0.000    0.000    0.000    0.000    0.714 
#
# Total GULP energy -312067.901850 kJ/mol
# GULP energy per Si atom -5572.641104 kJ/mol
# Density = 1.922490 g / cm^3
# Si number density = 19.268755 Si / 1000 Ang^3
#
#
#
# Elastic Constant Matrix: (Units=GPa)
#
#
# Indices 1 2 3 4 5 6 
#
# 1 36.5457 20.6631 24.6869 0.0000 0.0000 0.0000
# 2 20.6631 112.0794 29.6079 0.0000 0.0000 0.0000
# 3 24.6869 29.6079 120.3541 0.0000 0.0000 0.0000
# 4 0.0000 0.0000 0.0000 22.9680 0.0000 0.0000
# 5 0.0000 0.0000 0.0000 0.0000 16.3885 0.0000
# 6 0.0000 0.0000 0.0000 0.0000 0.0000 7.5515
#
#
#
# Elastic Compliance Matrix: (Units=1/GPa)
#
#
# Indices 1 2 3 4 5 6 
#
# 1 0.033955 -0.004727 -0.005802 0.000000 0.000000 0.000000
# 2 -0.004727 0.010201 -0.001540 0.000000 0.000000 0.000000
# 3 -0.005802 -0.001540 0.009878 0.000000 0.000000 0.000000
# 4 0.000000 0.000000 0.000000 0.043539 0.000000 0.000000
# 5 0.000000 0.000000 0.000000 0.000000 0.061018 0.000000
# 6 0.000000 0.000000 0.000000 0.000000 0.000000 0.132425
#
#
# Mechanical properties :
#
#
# Convention : Reuss Voigt Hill
#
# Bulk Modulus (GPa) = 33.44996 46.54389 39.99692
# Shear Modulus (GPa) = 15.37903 22.31635 18.84769
#
# Velocity S-wave (km/s) = 2.82819 3.40687 3.13093
# Velocity P-wave (km/s) = 5.29738 6.29946 5.82003
#
# Compressibility (1/GPa) = 0.02989540
#
# Stress axis : x y z
#
# Youngs Moduli (GPa) = 29.45070 98.03413 101.23842
#
# Poissons Ratio (x) = 0.46344 0.58737
# Poissons Ratio (y) = 0.13922 0.15588
# Poissons Ratio (z) = 0.17087 0.15095
#
# Static dielectric constant tensor:
#      x y z
#    x 1.730830 0.000000 0.000000 
#    y 0.000000 1.673000 0.000000 
#    z 0.000000 0.000000 1.702780 
# 
# From -- ./inp_files/46338.got.cif
#   From: 2010.05.17/outbox.cif.g08.bks.cpg/sg64_24_cif.got.tgz:46338.got - 2010.06.03 16:29:19.
