data_PCOD9476901
_publ_section_title
;
Structure prediction by ZEFSAII (Michael W. Deem and Ramdas Pophale) SiO2 
 PCOD9476901
Probable space group: C M C A
;
_chemical_formula_sum "Si O2"
_cell_formula_units_Z 112
_cell_length_a 19.599275
_cell_length_b 19.282884
_cell_length_c 17.500695
_cell_angle_alpha 90.000000
_cell_angle_beta 90.000000
_cell_angle_gamma 90.000000
_cell_volume 6614.047222
_symmetry_space_group_name_H-M "C M C A"
_symmetry_group_IT_number 64
_symmetry_cell_setting 'orthorhombic'
loop_
_space_group_symop_operation_xyz
x,y,z
-x,1/2-y,1/2+z
x,-y,-z
-x,1/2+y,1/2-z
-x,-y,-z
x,1/2+y,1/2-z
-x,y,z
x,1/2-y,1/2+z
1/2+x,1/2+y,z
1/2-x,-y,1/2+z
1/2+x,1/2-y,-z
1/2-x,y,1/2-z
1/2-x,1/2-y,-z
1/2+x,y,1/2-z
1/2-x,1/2+y,z
1/2+x,-y,1/2+z
loop_
_atom_site_type_symbol
_atom_site_label
_atom_site_fract_x
_atom_site_fract_y
_atom_site_fract_z
Si Si1 0.689886 0.358387 0.199263
Si Si2 0.580318 0.651061 0.600773
Si Si3 0.418529 0.050415 0.761630
Si Si4 0.662341 0.767945 0.685511
Si Si5 0.078473 0.823897 0.570570
Si Si6 0.920299 0.889798 0.735072
Si Si7 0.217286 0.243822 0.917143
O O1 0.750000 0.391637 0.250000
O O2 0.623900 0.405749 0.200323
O O3 0.672712 0.286846 0.245061
O O4 0.716748 0.333772 0.117613
O O5 0.500000 0.663114 0.613057
O O6 0.599192 0.587817 0.657290
O O7 0.619190 0.720809 0.626210
O O8 0.590215 0.638621 0.510789
O O9 0.500000 0.056436 0.751821
O O10 0.400274 0.969878 0.756642
O O11 0.624248 0.835057 0.717313
O O12 0.733162 0.784401 0.642301
O O13 0.083358 0.871534 0.645190
O O14 0.139451 0.769175 0.579508
O O15 0.000000 0.796158 0.568957
O O16 0.000000 0.882043 0.757635
O O17 0.250000 0.250000 0.000000
#
# Coordination Sequence:
#
# PCOD9476901 Si02
#       7
#    16  16  16  16  16  16  16
#     4   9  19  34  52  78 104 136 178 219 266 318
#     4   9  17  31  52  78 107 142 177 216 271 322
#     4   9  19  35  55  78 108 146 181 218 268 325
#     4  10  18  32  55  77 108 138 172 227 271 316
#     4  10  20  33  51  79 109 137 179 224 269 319
#     4  10  20  34  54  82 110 140 181 223 264 320
#     4  11  20  34  55  79 107 138 177 225 273 318
#
# _framework density 16.933655999999999
#
# number of rings (size 3 to 8) (size 9 to 14) (size 15 to 20)
#    0.000    2.286    2.857    0.429    0.000    1.714 
#    2.571    2.857    0.000    0.857    0.000    2.000 
#    0.000    0.000    0.000    0.000    0.000    0.000 
#
# Total GULP energy -311804.328004 kJ/mol
# GULP energy per Si atom -5567.934429 kJ/mol
# Density = 1.689511 g / cm^3
# Si number density = 16.933656 Si / 1000 Ang^3
#
#
#
# Elastic Constant Matrix: (Units=GPa)
#
#
# Indices 1 2 3 4 5 6 
#
# 1 75.6558 50.5715 35.2555 0.0000 0.0000 0.0000
# 2 50.5715 85.5689 38.6953 0.0000 0.0000 0.0000
# 3 35.2555 38.6953 85.2100 0.0000 0.0000 0.0000
# 4 0.0000 0.0000 0.0000 12.6035 0.0000 0.0000
# 5 0.0000 0.0000 0.0000 0.0000 30.9410 0.0000
# 6 0.0000 0.0000 0.0000 0.0000 0.0000 21.6643
#
#
#
# Elastic Compliance Matrix: (Units=1/GPa)
#
#
# Indices 1 2 3 4 5 6 
#
# 1 0.022987 -0.011684 -0.004205 0.000000 0.000000 0.000000
# 2 -0.011684 0.020645 -0.004541 0.000000 0.000000 0.000000
# 3 -0.004205 -0.004541 0.015538 0.000000 0.000000 0.000000
# 4 0.000000 0.000000 0.000000 0.079343 0.000000 0.000000
# 5 0.000000 0.000000 0.000000 0.000000 0.032320 0.000000
# 6 0.000000 0.000000 0.000000 0.000000 0.000000 0.046159
#
#
# Mechanical properties :
#
#
# Convention : Reuss Voigt Hill
#
# Bulk Modulus (GPa) = 54.61500 55.05325 54.83412
# Shear Modulus (GPa) = 18.94256 21.16927 20.05591
#
# Velocity S-wave (km/s) = 3.34823 3.53955 3.44522
# Velocity P-wave (km/s) = 6.87531 7.02042 6.94824
#
# Compressibility (1/GPa) = 0.01830999
#
# Stress axis : x y z
#
# Youngs Moduli (GPa) = 43.50212 48.43709 64.35928
#
# Poissons Ratio (x) = 0.56594 0.27064
# Poissons Ratio (y) = 0.50828 0.29227
# Poissons Ratio (z) = 0.18293 0.21996
#
# Static dielectric constant tensor:
#      x y z
#    x 1.617150 0.000000 0.000000 
#    y 0.000000 1.545570 0.000000 
#    z 0.000000 0.000000 1.601910 
# 
# From -- ./inp_files/34516.got.cif
#   From: 2010.05.17/outbox.cif.g08.bks.cpg/sg64_18_cif.got.tgz:34516.got - 2010.06.03 16:29:19.
