data_PCOD9476880
_publ_section_title
;
Structure prediction by ZEFSAII (Michael W. Deem and Ramdas Pophale) SiO2 
 PCOD9476880
Probable space group: C M C A
;
_chemical_formula_sum "Si O2"
_cell_formula_units_Z 72
_cell_length_a 8.368367
_cell_length_b 19.252795
_cell_length_c 23.624863
_cell_angle_alpha 90.000000
_cell_angle_beta 90.000000
_cell_angle_gamma 90.000000
_cell_volume 3806.306911
_symmetry_space_group_name_H-M "C M C A"
_symmetry_group_IT_number 64
_symmetry_cell_setting 'orthorhombic'
loop_
_space_group_symop_operation_xyz
x,y,z
-x,1/2-y,1/2+z
x,-y,-z
-x,1/2+y,1/2-z
-x,-y,-z
x,1/2+y,1/2-z
-x,y,z
x,1/2-y,1/2+z
1/2+x,1/2+y,z
1/2-x,-y,1/2+z
1/2+x,1/2-y,-z
1/2-x,y,1/2-z
1/2-x,1/2-y,-z
1/2+x,y,1/2-z
1/2-x,1/2+y,z
1/2+x,-y,1/2+z
loop_
_atom_site_type_symbol
_atom_site_label
_atom_site_fract_x
_atom_site_fract_y
_atom_site_fract_z
Si Si1 0.686664 0.115748 0.845946
Si Si2 0.750000 0.518844 0.750000
Si Si3 0.180964 0.086042 0.349452
Si Si4 0.191743 0.260008 0.814073
Si Si5 0.686862 0.017602 0.563255
O O1 0.500000 0.107109 0.828709
O O2 0.795720 0.075185 0.799092
O O3 0.732447 0.195966 0.847522
O O4 0.716326 0.078119 0.905303
O O5 0.826855 0.462663 0.793374
O O6 0.238095 0.163026 0.334435
O O7 0.000000 0.090218 0.371738
O O8 0.288837 0.048281 0.395637
O O9 0.250000 0.251864 0.750000
O O10 0.000000 0.255566 0.816179
O O11 0.500000 0.036613 0.561194
O O12 0.740838 0.000000 0.500000
#
# Coordination Sequence:
#
# PCOD9476880 Si02
#       5
#    16   8  16  16  16
#     4  11  23  37  57  85 116 154 193 233 288 341
#     4  10  18  32  52  84 112 146 186 230 278 338
#     4  10  22  37  57  85 115 152 192 233 287 343
#     4  11  22  37  56  84 121 155 189 230 282 344
#     4  10  22  40  62  86 112 148 195 245 291 337
#
# _framework density 18.915973000000001
#
# number of rings (size 3 to 8) (size 9 to 14) (size 15 to 20)
#    0.000    1.556    2.222    4.000    0.000   11.556 
#    0.000    1.111    0.000    0.000    0.000    0.000 
#    0.000    0.000    0.000    0.000    0.000    0.000 
#
# Total GULP energy -200451.303122 kJ/mol
# GULP energy per Si atom -5568.091753 kJ/mol
# Density = 1.887292 g / cm^3
# Si number density = 18.915973 Si / 1000 Ang^3
#
#
#
# Elastic Constant Matrix: (Units=GPa)
#
#
# Indices 1 2 3 4 5 6 
#
# 1 40.8844 26.4421 26.2057 0.0000 0.0000 0.0000
# 2 26.4421 138.3197 14.5725 0.0000 0.0000 0.0000
# 3 26.2057 14.5725 80.0349 0.0000 0.0000 0.0000
# 4 0.0000 0.0000 0.0000 13.5277 0.0000 0.0000
# 5 0.0000 0.0000 0.0000 0.0000 10.9083 0.0000
# 6 0.0000 0.0000 0.0000 0.0000 0.0000 -12.0062
#
#
#
# Elastic Compliance Matrix: (Units=1/GPa)
#
#
# Indices 1 2 3 4 5 6 
#
# 1 0.034671 -0.005538 -0.010344 0.000000 0.000000 0.000000
# 2 -0.005538 0.008256 0.000310 0.000000 0.000000 0.000000
# 3 -0.010344 0.000310 0.015825 0.000000 0.000000 0.000000
# 4 0.000000 0.000000 0.000000 0.073922 0.000000 0.000000
# 5 0.000000 0.000000 0.000000 0.000000 0.091673 0.000000
# 6 0.000000 0.000000 0.000000 0.000000 0.000000 -0.083290
#
#
# Mechanical properties :
#
#
# Convention : Reuss Voigt Hill
#
# Bulk Modulus (GPa) = 36.22148 43.74217 39.98182
# Shear Modulus (GPa) = 27.56278 15.28720 21.42499
#
# Velocity S-wave (km/s) = 3.82136 2.84591 3.36912
# Velocity P-wave (km/s) = 6.21776 5.82869 6.02637
#
# Compressibility (1/GPa) = 0.02760793
#
# Stress axis : x y z
#
# Youngs Moduli (GPa) = 28.84235 121.12895 63.19116
#
# Poissons Ratio (x) = 0.67084 0.65365
# Poissons Ratio (y) = 0.15973 -0.01960
# Poissons Ratio (z) = 0.29835 -0.03757
#
# Static dielectric constant tensor:
#      x y z
#    x 1.700950 0.000000 0.000000 
#    y 0.000000 1.665520 0.000000 
#    z 0.000000 0.000000 1.637310 
# 
# From -- ./inp_files/42623.got.cif
#   From: 2010.05.17/outbox.cif.g08.bks.cpg/sg64_22_cif.got.tgz:42623.got - 2010.06.03 16:29:19.
