data_PCOD9476540
_publ_section_title
;
Structure prediction by ZEFSAII (Michael W. Deem and Ramdas Pophale) SiO2 
 PCOD9476540
Probable space group: C M C A
;
_chemical_formula_sum "Si O2"
_cell_formula_units_Z 96
_cell_length_a 23.756584
_cell_length_b 22.692941
_cell_length_c 8.376007
_cell_angle_alpha 90.000000
_cell_angle_beta 90.000000
_cell_angle_gamma 90.000000
_cell_volume 4515.561988
_symmetry_space_group_name_H-M "C M C A"
_symmetry_group_IT_number 64
_symmetry_cell_setting 'orthorhombic'
loop_
_space_group_symop_operation_xyz
x,y,z
-x,1/2-y,1/2+z
x,-y,-z
-x,1/2+y,1/2-z
-x,-y,-z
x,1/2+y,1/2-z
-x,y,z
x,1/2-y,1/2+z
1/2+x,1/2+y,z
1/2-x,-y,1/2+z
1/2+x,1/2-y,-z
1/2-x,y,1/2-z
1/2-x,1/2-y,-z
1/2+x,y,1/2-z
1/2-x,1/2+y,z
1/2+x,-y,1/2+z
loop_
_atom_site_type_symbol
_atom_site_label
_atom_site_fract_x
_atom_site_fract_y
_atom_site_fract_z
Si Si1 0.500000 0.006393 0.314726
Si Si2 0.119479 0.938472 0.816228
Si Si3 0.933984 0.342581 0.504032
Si Si4 0.000000 0.069376 0.555243
Si Si5 0.619040 0.870752 0.993089
Si Si6 0.933573 0.731164 0.166450
Si Si7 0.309725 0.462589 0.330644
O O1 0.443335 0.040177 0.271229
O O2 0.500000 0.000000 0.500000
O O3 0.500000 0.941715 0.242757
O O4 0.107260 0.898040 0.970256
O O5 0.141160 0.895978 0.676454
O O6 0.156645 0.996571 0.796867
O O7 0.923074 0.300924 0.351907
O O8 0.000000 0.359407 0.508957
O O9 0.927509 0.300578 0.662326
O O10 0.056416 0.102842 0.514113
O O11 0.000000 0.000000 0.500000
O O12 0.607246 0.802625 0.957494
O O13 0.657575 0.902439 0.124224
O O14 0.000000 0.723989 0.121461
O O15 0.306544 0.500000 0.500000
O O16 0.250000 0.451243 0.250000
#
# Coordination Sequence:
#
# PCOD9476540 Si02
#       7
#     8  16  16   8  16  16  16
#     4  12  22  30  43  80 114 132 159 211 262 301
#     4  10  18  34  53  71 102 144 170 198 257 317
#     4   9  17  30  49  71 103 136 167 204 244 301
#     4  12  16  30  53  72 100 132 175 203 238 315
#     4  10  17  31  57  74  93 137 182 208 236 310
#     4   9  17  29  46  74 103 132 167 205 247 296
#     4  10  21  36  55  76  98 131 175 218 261 308
#
# _framework density 21.259813000000001
#
# number of rings (size 3 to 8) (size 9 to 14) (size 15 to 20)
#    0.000    2.000    5.000    0.500    0.000    0.667 
#    3.000    0.000    0.000    1.000    0.000    7.000 
#    0.000    0.000    0.000    0.000    0.000    0.000 
#
# Total GULP energy -267537.230608 kJ/mol
# GULP energy per Si atom -5573.692304 kJ/mol
# Density = 2.121142 g / cm^3
# Si number density = 21.259813 Si / 1000 Ang^3
#
#
#
# Elastic Constant Matrix: (Units=GPa)
#
#
# Indices 1 2 3 4 5 6 
#
# 1 83.4399 23.2567 5.1738 0.0000 0.0000 0.0000
# 2 23.2567 68.7815 16.5058 0.0000 0.0000 0.0000
# 3 5.1738 16.5058 63.6656 0.0000 0.0000 0.0000
# 4 0.0000 0.0000 0.0000 39.7310 0.0000 0.0000
# 5 0.0000 0.0000 0.0000 0.0000 -5.0680 0.0000
# 6 0.0000 0.0000 0.0000 0.0000 0.0000 6.8669
#
#
#
# Elastic Compliance Matrix: (Units=1/GPa)
#
#
# Indices 1 2 3 4 5 6 
#
# 1 0.013232 -0.004496 0.000090 0.000000 0.000000 0.000000
# 2 -0.004496 0.017031 -0.004050 0.000000 0.000000 0.000000
# 3 0.000090 -0.004050 0.016750 0.000000 0.000000 0.000000
# 4 0.000000 0.000000 0.000000 0.025169 0.000000 0.000000
# 5 0.000000 0.000000 0.000000 0.000000 -0.197315 0.000000
# 6 0.000000 0.000000 0.000000 0.000000 0.000000 0.145626
#
#
# Mechanical properties :
#
#
# Convention : Reuss Voigt Hill
#
# Bulk Modulus (GPa) = 33.22080 33.97329 33.59705
# Shear Modulus (GPa) = 105.40248 19.70268 62.55258
#
# Velocity S-wave (km/s) = 7.04882 3.04757 5.43017
# Velocity P-wave (km/s) = 9.05030 5.32901 7.42651
#
# Compressibility (1/GPa) = 0.03010163
#
# Stress axis : x y z
#
# Youngs Moduli (GPa) = 75.57349 58.71699 59.70236
#
# Poissons Ratio (x) = 0.26398 -0.00539
# Poissons Ratio (y) = 0.33976 0.24180
# Poissons Ratio (z) = -0.00682 0.23781
#
# Static dielectric constant tensor:
#      x y z
#    x 1.712720 0.000000 0.000000 
#    y 0.000000 1.815200 0.000000 
#    z 0.000000 0.000000 1.935940 
# 
# From -- ./inp_files/9639.got.cif
#   From: 2010.05.17/outbox.cif.g08.bks.cpg/sg64_5_cif.got.tgz:9639.got - 2010.06.03 16:29:19.
