data_PCOD9476645
_publ_section_title
;
Structure prediction by ZEFSAII (Michael W. Deem and Ramdas Pophale) SiO2 
 PCOD9476645
Probable space group: C M C A
;
_chemical_formula_sum "Si O2"
_cell_formula_units_Z 96
_cell_length_a 8.586508
_cell_length_b 24.905407
_cell_length_c 26.518494
_cell_angle_alpha 90.000000
_cell_angle_beta 90.000000
_cell_angle_gamma 90.000000
_cell_volume 5670.992577
_symmetry_space_group_name_H-M "C M C A"
_symmetry_group_IT_number 64
_symmetry_cell_setting 'orthorhombic'
loop_
_space_group_symop_operation_xyz
x,y,z
-x,1/2-y,1/2+z
x,-y,-z
-x,1/2+y,1/2-z
-x,-y,-z
x,1/2+y,1/2-z
-x,y,z
x,1/2-y,1/2+z
1/2+x,1/2+y,z
1/2-x,-y,1/2+z
1/2+x,1/2-y,-z
1/2-x,y,1/2-z
1/2-x,1/2-y,-z
1/2+x,y,1/2-z
1/2-x,1/2+y,z
1/2+x,-y,1/2+z
loop_
_atom_site_type_symbol
_atom_site_label
_atom_site_fract_x
_atom_site_fract_y
_atom_site_fract_z
Si Si1 0.688843 0.506345 0.887322
Si Si2 0.818987 0.573662 0.032168
Si Si3 0.318442 0.335787 0.618276
Si Si4 0.689828 0.734598 0.944259
Si Si5 0.814536 0.114121 0.928398
Si Si6 0.685184 0.580785 0.193893
O O1 0.500000 0.504812 0.888823
O O2 0.752110 0.476628 0.937179
O O3 0.740638 0.568428 0.889221
O O4 0.741237 0.469898 0.840160
O O5 0.809498 0.623282 0.071143
O O6 0.000000 0.565189 0.019220
O O7 0.723980 0.589808 0.983086
O O8 0.500000 0.330161 0.632235
O O9 0.260384 0.279189 0.596581
O O10 0.232476 0.365367 0.663813
O O11 0.500000 0.735574 0.946306
O O12 0.745170 0.675111 0.928506
O O13 0.750000 0.750000 0.000000
O O14 0.000000 0.118085 0.922304
O O15 0.500000 0.577826 0.195985
O O16 0.750000 0.579653 0.250000
#
# Coordination Sequence:
#
# PCOD9476645 Si02
#       6
#    16  16  16  16  16  16
#     4   9  19  33  47  68  96 127 163 198 240 296
#     4  10  18  28  44  68  99 132 165 202 240 278
#     4   9  18  32  48  71 101 130 165 204 243 287
#     4  10  19  31  48  70 100 138 173 204 238 282
#     4  10  19  30  46  67  97 136 170 196 233 286
#     4  10  20  35  56  76  94 119 156 205 257 301
#
# _framework density 16.928253000000002
#
# number of rings (size 3 to 8) (size 9 to 14) (size 15 to 20)
#    0.000    2.333    1.667    1.500    0.000    4.667 
#    0.000    0.000    0.000    1.000    0.000    2.333 
#    0.000    0.000    0.000    0.000    0.000    0.000 
#
# Total GULP energy -267565.884411 kJ/mol
# GULP energy per Si atom -5574.289259 kJ/mol
# Density = 1.688972 g / cm^3
# Si number density = 16.928253 Si / 1000 Ang^3
#
#
#
# Elastic Constant Matrix: (Units=GPa)
#
#
# Indices 1 2 3 4 5 6 
#
# 1 5.4732 20.0184 8.9712 0.0000 0.0000 0.0000
# 2 20.0184 171.8471 62.1038 0.0000 0.0000 0.0000
# 3 8.9712 62.1038 79.2222 0.0000 0.0000 0.0000
# 4 0.0000 0.0000 0.0000 10.1302 0.0000 0.0000
# 5 0.0000 0.0000 0.0000 0.0000 21.1616 0.0000
# 6 0.0000 0.0000 0.0000 0.0000 0.0000 16.6065
#
#
#
# Elastic Compliance Matrix: (Units=1/GPa)
#
#
# Indices 1 2 3 4 5 6 
#
# 1 0.323822 -0.034142 -0.009905 0.000000 0.000000 0.000000
# 2 -0.034142 0.011719 -0.005321 0.000000 0.000000 0.000000
# 3 -0.009905 -0.005321 0.017915 0.000000 0.000000 0.000000
# 4 0.000000 0.000000 0.000000 0.098715 0.000000 0.000000
# 5 0.000000 0.000000 0.000000 0.000000 0.047255 0.000000
# 6 0.000000 0.000000 0.000000 0.000000 0.000000 0.060217
#
#
# Mechanical properties :
#
#
# Convention : Reuss Voigt Hill
#
# Bulk Modulus (GPa) = 3.92587 48.74769 26.33678
# Shear Modulus (GPa) = 6.72689 20.60960 13.66824
#
# Velocity S-wave (km/s) = 1.99559 3.49301 2.84460
# Velocity P-wave (km/s) = 2.76297 6.71769 5.13621
#
# Compressibility (1/GPa) = 0.25472038
#
# Stress axis : x y z
#
# Youngs Moduli (GPa) = 3.08812 85.33044 55.81831
#
# Poissons Ratio (x) = 2.91338 0.55288
# Poissons Ratio (y) = 0.10544 0.29698
# Poissons Ratio (z) = 0.03059 0.45401
#
# Static dielectric constant tensor:
#      x y z
#    x 1.575960 0.000000 0.000000 
#    y 0.000000 1.623280 0.000000 
#    z 0.000000 0.000000 1.541700 
# 
# From -- ./inp_files/42999.got.cif
#   From: 2010.05.17/outbox.cif.g08.bks.cpg/sg64_22_cif.got.tgz:42999.got - 2010.06.03 16:29:19.
