data_PCOD9476338
_publ_section_title
;
Structure prediction by ZEFSAII (Michael W. Deem and Ramdas Pophale) SiO2 
 PCOD9476338
Probable space group: C M C A
;
_chemical_formula_sum "Si O2"
_cell_formula_units_Z 96
_cell_length_a 14.313633
_cell_length_b 25.032668
_cell_length_c 14.675494
_cell_angle_alpha 90.000000
_cell_angle_beta 90.000000
_cell_angle_gamma 90.000000
_cell_volume 5258.353108
_symmetry_space_group_name_H-M "C M C A"
_symmetry_group_IT_number 64
_symmetry_cell_setting 'orthorhombic'
loop_
_space_group_symop_operation_xyz
x,y,z
-x,1/2-y,1/2+z
x,-y,-z
-x,1/2+y,1/2-z
-x,-y,-z
x,1/2+y,1/2-z
-x,y,z
x,1/2-y,1/2+z
1/2+x,1/2+y,z
1/2-x,-y,1/2+z
1/2+x,1/2-y,-z
1/2-x,y,1/2-z
1/2-x,1/2-y,-z
1/2+x,y,1/2-z
1/2-x,1/2+y,z
1/2+x,-y,1/2+z
loop_
_atom_site_type_symbol
_atom_site_label
_atom_site_fract_x
_atom_site_fract_y
_atom_site_fract_z
Si Si1 0.000000 0.374428 0.737581
Si Si2 0.500000 0.159143 0.052424
Si Si3 0.303870 0.617229 0.153988
Si Si4 0.000000 0.001950 0.756957
Si Si5 0.790787 0.609814 0.850924
Si Si6 0.000000 0.915568 0.389236
Si Si7 0.207052 0.691516 0.006191
Si Si8 0.304413 0.003729 0.654799
O O1 0.092491 0.363233 0.679424
O O2 0.000000 0.438396 0.751362
O O3 0.000000 0.349513 0.838709
O O4 0.594974 0.188903 0.022079
O O5 0.500000 0.102569 0.995286
O O6 0.250000 0.615535 0.250000
O O7 0.251957 0.657314 0.087644
O O8 0.305451 0.556208 0.114835
O O9 0.909193 0.018430 0.814798
O O10 0.000000 0.025356 0.654513
O O11 0.750000 0.615547 0.750000
O O12 0.903076 0.606935 0.849965
O O13 0.748605 0.553748 0.890312
O O14 0.767323 0.658969 0.915183
O O15 0.250000 0.750000 0.000000
O O16 0.250000 0.997649 0.750000
#
# Coordination Sequence:
#
# PCOD9476338 Si02
#       8
#     8   8  16   8  16   8  16  16
#     4  10  20  36  61  89 121 158 198 240 304 355
#     4  10  22  40  59  87 116 151 202 257 295 353
#     4  10  20  37  61  87 119 157 192 243 298 355
#     4  10  16  29  53  88 125 155 191 244 287 360
#     4  10  20  37  59  86 121 156 193 239 300 358
#     4  10  18  31  55  86 123 150 188 245 293 348
#     4  11  25  42  62  86 120 155 207 254 292 351
#     4   9  17  30  54  85 119 155 191 232 295 360
#
# _framework density 18.256667
#
# number of rings (size 3 to 8) (size 9 to 14) (size 15 to 20)
#    0.000    2.000    5.000    0.000    0.000    2.333 
#    0.000    6.667    0.000    3.000    0.000    0.000 
#    0.000    0.000    0.000    0.000    0.000    0.000 
#
# Total GULP energy -267364.927652 kJ/mol
# GULP energy per Si atom -5570.102659 kJ/mol
# Density = 1.821511 g / cm^3
# Si number density = 18.256667 Si / 1000 Ang^3
#
#
#
# Elastic Constant Matrix: (Units=GPa)
#
#
# Indices 1 2 3 4 5 6 
#
# 1 154.8846 48.4552 38.8171 0.0000 0.0000 0.0000
# 2 48.4552 121.5563 47.0237 0.0000 0.0000 0.0000
# 3 38.8171 47.0237 78.7121 0.0000 0.0000 0.0000
# 4 0.0000 0.0000 0.0000 24.9796 0.0000 0.0000
# 5 0.0000 0.0000 0.0000 0.0000 16.4031 0.0000
# 6 0.0000 0.0000 0.0000 0.0000 0.0000 19.0033
#
#
#
# Elastic Compliance Matrix: (Units=1/GPa)
#
#
# Indices 1 2 3 4 5 6 
#
# 1 0.007757 -0.002097 -0.002573 0.000000 0.000000 0.000000
# 2 -0.002097 0.011266 -0.005696 0.000000 0.000000 0.000000
# 3 -0.002573 -0.005696 0.017376 0.000000 0.000000 0.000000
# 4 0.000000 0.000000 0.000000 0.040033 0.000000 0.000000
# 5 0.000000 0.000000 0.000000 0.000000 0.060964 0.000000
# 6 0.000000 0.000000 0.000000 0.000000 0.000000 0.052623
#
#
# Mechanical properties :
#
#
# Convention : Reuss Voigt Hill
#
# Bulk Modulus (GPa) = 63.82629 69.30501 66.56565
# Shear Modulus (GPa) = 23.15093 26.80099 24.97596
#
# Velocity S-wave (km/s) = 3.56488 3.83562 3.70272
# Velocity P-wave (km/s) = 7.20978 7.59341 7.40408
#
# Compressibility (1/GPa) = 0.01566753
#
# Stress axis : x y z
#
# Youngs Moduli (GPa) = 128.91206 88.76118 57.54923
#
# Poissons Ratio (x) = 0.18613 0.14806
# Poissons Ratio (y) = 0.27032 0.32783
# Poissons Ratio (z) = 0.33166 0.50562
#
# Static dielectric constant tensor:
#      x y z
#    x 1.796540 0.000000 0.000000 
#    y 0.000000 1.638670 0.000000 
#    z 0.000000 0.000000 1.625670 
# 
# From -- ./inp_files/24167.got.cif
#   From: 2010.05.17/outbox.cif.g08.bks.cpg/sg64_13_cif.got.tgz:24167.got - 2010.06.03 16:29:19.
