data_PCOD9476939
_publ_section_title
;
Structure prediction by ZEFSAII (Michael W. Deem and Ramdas Pophale) SiO2 
 PCOD9476939
Probable space group: C M C A
;
_chemical_formula_sum "Si O2"
_cell_formula_units_Z 80
_cell_length_a 16.800571
_cell_length_b 12.925703
_cell_length_c 19.409751
_cell_angle_alpha 90.000000
_cell_angle_beta 90.000000
_cell_angle_gamma 90.000000
_cell_volume 4215.005824
_symmetry_space_group_name_H-M "C M C A"
_symmetry_group_IT_number 64
_symmetry_cell_setting 'orthorhombic'
loop_
_space_group_symop_operation_xyz
x,y,z
-x,1/2-y,1/2+z
x,-y,-z
-x,1/2+y,1/2-z
-x,-y,-z
x,1/2+y,1/2-z
-x,y,z
x,1/2-y,1/2+z
1/2+x,1/2+y,z
1/2-x,-y,1/2+z
1/2+x,1/2-y,-z
1/2-x,y,1/2-z
1/2-x,1/2-y,-z
1/2+x,y,1/2-z
1/2-x,1/2+y,z
1/2+x,-y,1/2+z
loop_
_atom_site_type_symbol
_atom_site_label
_atom_site_fract_x
_atom_site_fract_y
_atom_site_fract_z
Si Si1 0.150271 0.602103 0.916953
Si Si2 0.838214 0.299492 0.668101
Si Si3 0.850473 0.245634 0.818016
Si Si4 0.088319 0.384923 0.938550
Si Si5 0.204403 0.974554 0.175547
O O1 0.127834 0.710396 0.881150
O O2 0.094351 0.501520 0.909195
O O3 0.230841 0.561699 0.880811
O O4 0.151159 0.621932 0.998943
O O5 0.875210 0.287032 0.743663
O O6 0.743606 0.272651 0.673826
O O7 0.837536 0.420522 0.651390
O O8 0.894120 0.302727 0.879590
O O9 0.854612 0.121912 0.816539
O O10 0.000000 0.369016 0.967360
O O11 0.250000 0.989832 0.250000
#
# Coordination Sequence:
#
# PCOD9476939 Si02
#       5
#    16  16  16  16  16
#     4  10  20  35  57  84 112 153 192 229 287 333
#     4  10  18  32  60  88 116 137 180 247 292 342
#     4  10  19  33  57  86 114 150 180 230 297 335
#     4  11  23  41  56  77 119 160 199 231 266 338
#     4  11  17  32  57  91 121 137 174 247 302 343
#
# _framework density 18.979807000000001
#
# number of rings (size 3 to 8) (size 9 to 14) (size 15 to 20)
#    0.000    1.600    8.000    1.200    0.000    3.200 
#    0.000    2.000    0.000    3.600    0.000    0.000 
#    0.000    0.000    0.000    0.000    0.000    0.000 
#
# Total GULP energy -222843.463763 kJ/mol
# GULP energy per Si atom -5571.086594 kJ/mol
# Density = 1.893661 g / cm^3
# Si number density = 18.979807 Si / 1000 Ang^3
#
#
#
# Elastic Constant Matrix: (Units=GPa)
#
#
# Indices 1 2 3 4 5 6 
#
# 1 16.6929 3.3741 25.7840 0.0000 0.0000 0.0000
# 2 3.3741 161.5457 60.5409 0.0000 0.0000 0.0000
# 3 25.7840 60.5409 100.3927 0.0000 0.0000 0.0000
# 4 0.0000 0.0000 0.0000 34.6249 0.0000 0.0000
# 5 0.0000 0.0000 0.0000 0.0000 5.2028 0.0000
# 6 0.0000 0.0000 0.0000 0.0000 0.0000 2.1957
#
#
#
# Elastic Compliance Matrix: (Units=1/GPa)
#
#
# Indices 1 2 3 4 5 6 
#
# 1 0.112545 0.010958 -0.035513 0.000000 0.000000 0.000000
# 2 0.010958 0.009065 -0.008281 0.000000 0.000000 0.000000
# 3 -0.035513 -0.008281 0.024075 0.000000 0.000000 0.000000
# 4 0.000000 0.000000 0.000000 0.028881 0.000000 0.000000
# 5 0.000000 0.000000 0.000000 0.000000 0.192205 0.000000
# 6 0.000000 0.000000 0.000000 0.000000 0.000000 0.455443
#
#
# Mechanical properties :
#
#
# Convention : Reuss Voigt Hill
#
# Bulk Modulus (GPa) = 12.49792 50.89213 31.69503
# Shear Modulus (GPa) = 5.46713 21.00015 13.23364
#
# Velocity S-wave (km/s) = 1.69904 3.32994 2.64341
# Velocity P-wave (km/s) = 3.23236 6.45420 5.10416
#
# Compressibility (1/GPa) = 0.08001329
#
# Stress axis : x y z
#
# Youngs Moduli (GPa) = 8.88536 110.31888 41.53606
#
# Poissons Ratio (x) = -1.20891 1.47508
# Poissons Ratio (y) = -0.09737 0.34395
# Poissons Ratio (z) = 0.31555 0.91353
#
# Static dielectric constant tensor:
#      x y z
#    x 1.653670 0.000000 0.000000 
#    y 0.000000 1.698120 0.000000 
#    z 0.000000 0.000000 1.678430 
# 
# From -- ./inp_files/34211.got.cif
#   From: 2010.05.17/outbox.cif.g08.bks.cpg/sg64_18_cif.got.tgz:34211.got - 2010.06.03 16:29:19.
