data_PCOD9476940
_publ_section_title
;
Structure prediction by ZEFSAII (Michael W. Deem and Ramdas Pophale) SiO2 
 PCOD9476940
Probable space group: C M C A
;
_chemical_formula_sum "Si O2"
_cell_formula_units_Z 80
_cell_length_a 15.573468
_cell_length_b 13.487265
_cell_length_c 17.853479
_cell_angle_alpha 90.000000
_cell_angle_beta 90.000000
_cell_angle_gamma 90.000000
_cell_volume 3750.007036
_symmetry_space_group_name_H-M "C M C A"
_symmetry_group_IT_number 64
_symmetry_cell_setting 'orthorhombic'
loop_
_space_group_symop_operation_xyz
x,y,z
-x,1/2-y,1/2+z
x,-y,-z
-x,1/2+y,1/2-z
-x,-y,-z
x,1/2+y,1/2-z
-x,y,z
x,1/2-y,1/2+z
1/2+x,1/2+y,z
1/2-x,-y,1/2+z
1/2+x,1/2-y,-z
1/2-x,y,1/2-z
1/2-x,1/2-y,-z
1/2+x,y,1/2-z
1/2-x,1/2+y,z
1/2+x,-y,1/2+z
loop_
_atom_site_type_symbol
_atom_site_label
_atom_site_fract_x
_atom_site_fract_y
_atom_site_fract_z
Si Si1 0.601267 0.868186 0.900072
Si Si2 0.277670 0.178520 0.619699
Si Si3 0.249352 0.472912 0.832385
Si Si4 0.358630 0.397881 0.970108
Si Si5 0.091418 0.311110 0.069231
O O1 0.500000 0.862041 0.880041
O O2 0.657997 0.771682 0.873041
O O3 0.652893 0.961166 0.865384
O O4 0.604969 0.869441 0.990778
O O5 0.294465 0.136926 0.535771
O O6 0.175430 0.194366 0.620566
O O7 0.289208 0.083407 0.672301
O O8 0.250000 0.427580 0.750000
O O9 0.307551 0.420091 0.894426
O O10 0.415450 0.302857 0.957691
O O11 0.398474 0.500000 0.000000
O O12 0.000000 0.342657 0.102728
#
# Coordination Sequence:
#
# PCOD9476940 Si02
#       5
#    16  16  16  16  16
#     4  10  20  38  64  89 115 152 199 250 304 357
#     4  10  19  37  60  86 120 153 197 252 300 351
#     4  11  22  36  59  83 116 162 199 242 303 359
#     4   9  17  34  57  82 113 149 192 248 297 351
#     4  10  18  32  60  92 116 148 196 247 299 355
#
# _framework density 21.333293999999999
#
# number of rings (size 3 to 8) (size 9 to 14) (size 15 to 20)
#    0.000    2.000    4.000    1.200    0.000    2.000 
#    0.000    7.000    0.000    0.000    0.000    0.000 
#    0.000    0.000    0.000    0.000    0.000    0.000 
#
# Total GULP energy -222724.541230 kJ/mol
# GULP energy per Si atom -5568.113531 kJ/mol
# Density = 2.128474 g / cm^3
# Si number density = 21.333294 Si / 1000 Ang^3
#
#
#
# Elastic Constant Matrix: (Units=GPa)
#
#
# Indices 1 2 3 4 5 6 
#
# 1 119.8508 -2.9741 3.6397 0.0000 0.0000 0.0000
# 2 -2.9741 58.3740 -8.0743 0.0000 0.0000 0.0000
# 3 3.6397 -8.0743 67.6869 0.0000 0.0000 0.0000
# 4 0.0000 0.0000 0.0000 8.1618 0.0000 0.0000
# 5 0.0000 0.0000 0.0000 0.0000 0.7921 0.0000
# 6 0.0000 0.0000 0.0000 0.0000 0.0000 -108.6022
#
#
#
# Elastic Compliance Matrix: (Units=1/GPa)
#
#
# Indices 1 2 3 4 5 6 
#
# 1 0.008365 0.000370 -0.000406 0.000000 0.000000 0.000000
# 2 0.000370 0.017435 0.002060 0.000000 0.000000 0.000000
# 3 -0.000406 0.002060 0.015041 0.000000 0.000000 0.000000
# 4 0.000000 0.000000 0.000000 0.122521 0.000000 0.000000
# 5 0.000000 0.000000 0.000000 0.000000 1.262422 0.000000
# 6 0.000000 0.000000 0.000000 0.000000 0.000000 -0.009208
#
#
# Mechanical properties :
#
#
# Convention : Reuss Voigt Hill
#
# Bulk Modulus (GPa) = 22.27673 25.67716 23.97694
# Shear Modulus (GPa) = 3.50265 -3.04162 0.23052
#
# Velocity S-wave (km/s) = 1.28274 -1.19535 0.32907
# Velocity P-wave (km/s) = 3.55792 3.18703 3.37757
#
# Compressibility (1/GPa) = 0.04488989
#
# Stress axis : x y z
#
# Youngs Moduli (GPa) = 119.54275 57.35689 66.48300
#
# Poissons Ratio (x) = -0.02123 0.02697
# Poissons Ratio (y) = -0.04424 -0.13695
# Poissons Ratio (z) = 0.04850 -0.11815
#
# Static dielectric constant tensor:
#      x y z
#    x 1.815500 0.000000 0.000000 
#    y 0.000000 1.879610 0.000000 
#    z 0.000000 0.000000 1.762450 
# 
# From -- ./inp_files/32982.got.cif
#   From: 2010.05.17/outbox.cif.g08.bks.cpg/sg64_17_cif.got.tgz:32982.got - 2010.06.03 16:29:19.
