data_PCOD9476187
_publ_section_title
;
Structure prediction by ZEFSAII (Michael W. Deem and Ramdas Pophale) SiO2 
 PCOD9476187
Probable space group: C M C M
;
_chemical_formula_sum "Si O2"
_cell_formula_units_Z 48
_cell_length_a 9.000000
_cell_length_b 21.000000
_cell_length_c 27.000000
_cell_angle_alpha 90.000000
_cell_angle_beta 90.000000
_cell_angle_gamma 90.000000
_cell_volume 5103.000000
_symmetry_space_group_name_H-M "C M C M"
_symmetry_group_IT_number 63
_symmetry_cell_setting 'orthorhombic'
loop_
_space_group_symop_operation_xyz
x,y,z
-x,-y,1/2+z
x,-y,-z
-x,y,1/2-z
-x,-y,-z
x,y,1/2-z
-x,y,z
x,-y,1/2+z
1/2+x,1/2+y,z
1/2-x,1/2-y,1/2+z
1/2+x,1/2-y,-z
1/2-x,1/2+y,1/2-z
1/2-x,1/2-y,-z
1/2+x,1/2+y,1/2-z
1/2-x,1/2+y,z
1/2+x,1/2-y,1/2+z
loop_
_atom_site_type_symbol
_atom_site_label
_atom_site_fract_x
_atom_site_fract_y
_atom_site_fract_z
Si Si1 0.324821 0.441344 0.961618
Si Si2 0.667946 0.114233 0.308780
Si Si3 0.320979 0.996251 0.133555
Si Si4 0.321719 0.260034 0.692530
Si Si5 0.679749 0.853600 0.124637
Si Si6 0.678274 0.181452 0.510904
O O1 0.500000 0.430002 0.954304
O O2 0.246444 0.467534 0.912956
O O3 0.308294 0.500000 0.000000
O O4 0.247869 0.376420 0.979600
O O5 0.665750 0.119769 0.250000
O O6 0.500000 0.122650 0.327857
O O7 0.766318 0.172270 0.327740
O O8 0.716422 0.043171 0.321707
O O9 0.500000 0.992608 0.128657
O O10 0.264873 0.924246 0.136927
O O11 0.277407 0.252596 0.750000
O O12 0.500000 0.260235 0.691056
O O13 0.263353 0.201494 0.660467
O O14 0.500000 0.854496 0.130132
O O15 0.710040 0.836393 0.067998
O O16 0.500000 0.183931 0.503932
O O17 0.750000 0.250000 0.500000
#
# Coordination Sequence:
#
# PCOD9476187 Si02
#       6
#    16  16  16  16  16  16
#     4  11  23  39  58  82 113 148 188 233 279 331
#     4   9  19  35  55  82 112 141 178 225 275 330
#     4  10  20  36  58  82 109 147 186 226 279 333
#     4   9  18  34  56  80 108 144 182 222 272 329
#     4   9  19  35  55  80 109 141 182 228 272 323
#     4  11  23  39  58  82 115 150 188 233 280 334
#
# _framework density 9.4062319999999993
#
# number of rings (size 3 to 8) (size 9 to 14) (size 15 to 20)
#    0.000    2.167    1.667    1.000    2.333    2.000 
#    0.000    5.000    0.000    0.000    0.000    4.667 
#    0.000    0.000    0.000    0.000    0.000    0.000 
#
# Total GULP energy -267573.727266 kJ/mol
# GULP energy per Si atom -5574.452651 kJ/mol
# Density = 0.938482 g / cm^3
# Si number density = 9.406232 Si / 1000 Ang^3
#
#
#
# Elastic Constant Matrix: (Units=GPa)
#
#
# Indices 1 2 3 4 5 6 
#
# 1 4.7892 50.0744 18.9898 0.0000 0.0000 0.0000
# 2 50.0744 200.7015 47.8666 0.0000 0.0000 0.0000
# 3 18.9898 47.8666 21.4124 0.0000 0.0000 0.0000
# 4 0.0000 0.0000 0.0000 34.2320 0.0000 0.0000
# 5 0.0000 0.0000 0.0000 0.0000 10.4744 0.0000
# 6 0.0000 0.0000 0.0000 0.0000 0.0000 30.7174
#
#
#
# Elastic Compliance Matrix: (Units=1/GPa)
#
#
# Indices 1 2 3 4 5 6 
#
# 1 -0.078912 0.006420 0.055631 0.000000 0.000000 0.000000
# 2 0.006420 0.010150 -0.028385 0.000000 0.000000 0.000000
# 3 0.055631 -0.028385 0.060817 0.000000 0.000000 0.000000
# 4 0.000000 0.000000 0.000000 0.029212 0.000000 0.000000
# 5 0.000000 0.000000 0.000000 0.000000 0.095471 0.000000
# 6 0.000000 0.000000 0.000000 0.000000 0.000000 0.032555
#
#
# Mechanical properties :
#
#
# Convention : Reuss Voigt Hill
#
# Bulk Modulus (GPa) = 16.83790 51.19609 34.01700
# Shear Modulus (GPa) = 49.13725 22.41624 35.77674
#
# Velocity S-wave (km/s) = 5.11627 3.45565 4.36565
# Velocity P-wave (km/s) = 6.62355 6.57229 6.59797
#
# Compressibility (1/GPa) = 0.05938984
#
# Stress axis : x y z
#
# Youngs Moduli (GPa) = -12.67231 98.51970 16.44267
#
# Poissons Ratio (x) = -0.63254 -0.91473
# Poissons Ratio (y) = 0.08136 0.46672
# Poissons Ratio (z) = 0.70498 2.79644
#
# Static dielectric constant tensor:
#      x y z
#    x 1.664360 0.000000 0.000000 
#    y 0.000000 1.687150 0.000000 
#    z 0.000000 0.000000 1.808920 
# 
# From -- ./inp_files/66991.got.cif
#   From: 2010.05.17/outbox.ucp.g08.bks.cvg/sg63_34_cif.got.tgz:66991.got - 2010.06.11 16:32:19.
