data_PCOD9476222
_publ_section_title
;
Structure prediction by ZEFSAII (Michael W. Deem and Ramdas Pophale) SiO2 
 PCOD9476222
Probable space group: C M C M
;
_chemical_formula_sum "Si O2"
_cell_formula_units_Z 40
_cell_length_a 9.000000
_cell_length_b 27.000000
_cell_length_c 18.000000
_cell_angle_alpha 90.000000
_cell_angle_beta 90.000000
_cell_angle_gamma 90.000000
_cell_volume 4374.000000
_symmetry_space_group_name_H-M "C M C M"
_symmetry_group_IT_number 63
_symmetry_cell_setting 'orthorhombic'
loop_
_space_group_symop_operation_xyz
x,y,z
-x,-y,1/2+z
x,-y,-z
-x,y,1/2-z
-x,-y,-z
x,y,1/2-z
-x,y,z
x,-y,1/2+z
1/2+x,1/2+y,z
1/2-x,1/2-y,1/2+z
1/2+x,1/2-y,-z
1/2-x,1/2+y,1/2-z
1/2-x,1/2-y,-z
1/2+x,1/2+y,1/2-z
1/2-x,1/2+y,z
1/2+x,1/2-y,1/2+z
loop_
_atom_site_type_symbol
_atom_site_label
_atom_site_fract_x
_atom_site_fract_y
_atom_site_fract_z
Si Si1 0.679016 0.243328 0.581802
Si Si2 0.176994 0.970622 0.424938
Si Si3 0.331835 0.946287 0.837465
Si Si4 0.828632 0.635481 0.571000
Si Si5 0.172799 0.658158 0.105491
O O1 0.500000 0.244600 0.576615
O O2 0.750000 0.250000 0.500000
O O3 0.721294 0.187679 0.608129
O O4 0.739350 0.291671 0.624145
O O5 0.240341 0.915225 0.418241
O O6 0.000000 0.967797 0.424665
O O7 0.223811 0.000000 0.500000
O O8 0.237654 0.006956 0.362225
O O9 0.343835 0.946167 0.750000
O O10 0.500000 0.949596 0.870117
O O11 0.267557 0.893025 0.861003
O O12 0.824417 0.648230 0.483102
O O13 0.000000 0.626589 0.592047
O O14 0.000000 0.664110 0.127821
#
# Coordination Sequence:
#
# PCOD9476222 Si02
#       5
#    16  16  16  16  16
#     4   9  17  28  45  72 102 132 165 203 251 302
#     4  11  22  33  50  78 107 137 175 221 268 312
#     4  10  21  37  56  76 102 140 180 216 261 319
#     4   9  17  30  49  73 101 135 171 213 258 306
#     4   9  17  30  49  74 102 132 168 211 257 307
#
# _framework density 9.1449470000000002
#
# number of rings (size 3 to 8) (size 9 to 14) (size 15 to 20)
#    0.000    2.400    2.000    2.400    0.000    6.000 
#    0.000    0.000    0.000    1.200    0.000    5.600 
#    0.000    0.000    0.000    0.000    0.000    0.000 
#
# Total GULP energy -222711.798828 kJ/mol
# GULP energy per Si atom -5567.794971 kJ/mol
# Density = 0.912413 g / cm^3
# Si number density = 9.144947 Si / 1000 Ang^3
#
#
#
# Elastic Constant Matrix: (Units=GPa)
#
#
# Indices 1 2 3 4 5 6 
#
# 1 48.0552 70.0031 3.1377 0.0000 0.0000 0.0000
# 2 70.0031 221.4500 18.6487 0.0000 0.0000 0.0000
# 3 3.1377 18.6487 10.6283 0.0000 0.0000 0.0000
# 4 0.0000 0.0000 0.0000 4.2168 0.0000 0.0000
# 5 0.0000 0.0000 0.0000 0.0000 8.5370 0.0000
# 6 0.0000 0.0000 0.0000 0.0000 0.0000 -45.3038
#
#
#
# Elastic Compliance Matrix: (Units=1/GPa)
#
#
# Indices 1 2 3 4 5 6 
#
# 1 0.039861 -0.013623 0.012135 0.000000 0.000000 0.000000
# 2 -0.013623 0.009954 -0.013444 0.000000 0.000000 0.000000
# 3 0.012135 -0.013444 0.114095 0.000000 0.000000 0.000000
# 4 0.000000 0.000000 0.000000 0.237149 0.000000 0.000000
# 5 0.000000 0.000000 0.000000 0.000000 0.117137 0.000000
# 6 0.000000 0.000000 0.000000 0.000000 0.000000 -0.022073
#
#
# Mechanical properties :
#
#
# Convention : Reuss Voigt Hill
#
# Bulk Modulus (GPa) = 7.46012 51.52360 29.49186
# Shear Modulus (GPa) = 8.76165 6.04625 7.40395
#
# Velocity S-wave (km/s) = 2.19108 1.82016 2.01417
# Velocity P-wave (km/s) = 3.23864 5.71393 4.64423
#
# Compressibility (1/GPa) = 0.13404616
#
# Stress axis : x y z
#
# Youngs Moduli (GPa) = 25.08690 100.46116 8.76465
#
# Poissons Ratio (x) = 1.36854 -0.10635
# Poissons Ratio (y) = 0.34175 0.11783
# Poissons Ratio (z) = -0.30442 1.35060
#
# Static dielectric constant tensor:
#      x y z
#    x 1.654270 0.000000 0.000000 
#    y 0.000000 1.615340 0.000000 
#    z 0.000000 0.000000 1.631100 
# 
# From -- ./inp_files/40512.got.cif
#   From: 2010.05.17/outbox.ucp.g08.bks.cvg/sg63_21_cif.got.tgz:40512.got - 2010.06.11 16:32:19.
