data_PCOD9476902
_publ_section_title
;
Structure prediction by ZEFSAII (Michael W. Deem and Ramdas Pophale) SiO2 
 PCOD9476902
Probable space group: C M C A
;
_chemical_formula_sum "Si O2"
_cell_formula_units_Z 96
_cell_length_a 8.505842
_cell_length_b 30.894386
_cell_length_c 21.350281
_cell_angle_alpha 90.000000
_cell_angle_beta 90.000000
_cell_angle_gamma 90.000000
_cell_volume 5610.485896
_symmetry_space_group_name_H-M "C M C A"
_symmetry_group_IT_number 64
_symmetry_cell_setting 'orthorhombic'
loop_
_space_group_symop_operation_xyz
x,y,z
-x,1/2-y,1/2+z
x,-y,-z
-x,1/2+y,1/2-z
-x,-y,-z
x,1/2+y,1/2-z
-x,y,z
x,1/2-y,1/2+z
1/2+x,1/2+y,z
1/2-x,-y,1/2+z
1/2+x,1/2-y,-z
1/2-x,y,1/2-z
1/2-x,1/2-y,-z
1/2+x,y,1/2-z
1/2-x,1/2+y,z
1/2+x,-y,1/2+z
loop_
_atom_site_type_symbol
_atom_site_label
_atom_site_fract_x
_atom_site_fract_y
_atom_site_fract_z
Si Si1 0.813933 0.118683 0.987537
Si Si2 0.311372 0.006042 0.685759
Si Si3 0.691648 0.465954 0.946457
Si Si4 0.688390 0.693236 0.683541
Si Si5 0.312144 0.403326 0.354596
Si Si6 0.812538 0.787897 0.455988
O O1 0.778058 0.096973 0.920486
O O2 0.733936 0.165437 0.984382
O O3 0.000000 0.125173 0.994983
O O4 0.757751 0.082845 0.037134
O O5 0.500000 0.008918 0.686754
O O6 0.250000 0.985526 0.750000
O O7 0.239059 0.054012 0.681162
O O8 0.262050 0.981518 0.622399
O O9 0.500000 0.466052 0.948797
O O10 0.744551 0.500000 0.000000
O O11 0.500000 0.696668 0.684459
O O12 0.750000 0.710318 0.750000
O O13 0.729056 0.642129 0.678084
O O14 0.744595 0.713208 0.616951
O O15 0.500000 0.403215 0.365179
O O16 0.750000 0.750000 0.500000
O O17 0.000000 0.785329 0.453661
#
# Coordination Sequence:
#
# PCOD9476902 Si02
#       6
#    16  16  16  16  16  16
#     4  10  18  32  55  78 101 136 176 217 265 310
#     4  11  21  33  48  69 101 138 178 221 264 313
#     4   9  17  32  52  74 100 136 179 214 251 309
#     4   9  19  32  48  72 104 134 165 204 250 310
#     4  10  19  31  46  72 106 138 172 211 255 310
#     4  10  21  37  55  80 109 136 173 219 266 320
#
# _framework density 17.110817999999998
#
# number of rings (size 3 to 8) (size 9 to 14) (size 15 to 20)
#    0.000    2.167    1.667    3.500    0.000    5.333 
#    0.000    4.167    0.000    1.000    0.000    2.333 
#    0.000    0.000    0.000    0.000    0.000    0.000 
#
# Total GULP energy -267624.089986 kJ/mol
# GULP energy per Si atom -5575.501875 kJ/mol
# Density = 1.707187 g / cm^3
# Si number density = 17.110818 Si / 1000 Ang^3
#
#
#
# Elastic Constant Matrix: (Units=GPa)
#
#
# Indices 1 2 3 4 5 6 
#
# 1 24.8300 13.1264 19.4607 0.0000 0.0000 0.0000
# 2 13.1264 81.3326 69.0160 0.0000 0.0000 0.0000
# 3 19.4607 69.0160 147.5337 0.0000 0.0000 0.0000
# 4 0.0000 0.0000 0.0000 20.8623 0.0000 0.0000
# 5 0.0000 0.0000 0.0000 0.0000 26.1240 0.0000
# 6 0.0000 0.0000 0.0000 0.0000 0.0000 -14.7179
#
#
#
# Elastic Compliance Matrix: (Units=1/GPa)
#
#
# Indices 1 2 3 4 5 6 
#
# 1 0.045593 -0.003739 -0.004265 0.000000 0.000000 0.000000
# 2 -0.003739 0.020695 -0.009188 0.000000 0.000000 0.000000
# 3 -0.004265 -0.009188 0.011639 0.000000 0.000000 0.000000
# 4 0.000000 0.000000 0.000000 0.047933 0.000000 0.000000
# 5 0.000000 0.000000 0.000000 0.000000 0.038279 0.000000
# 6 0.000000 0.000000 0.000000 0.000000 0.000000 -0.067944
#
#
# Mechanical properties :
#
#
# Convention : Reuss Voigt Hill
#
# Bulk Modulus (GPa) = 22.96582 50.76694 36.86638
# Shear Modulus (GPa) = 34.46047 16.59323 25.52685
#
# Velocity S-wave (km/s) = 4.49258 3.11746 3.86664
# Velocity P-wave (km/s) = 6.35311 6.53391 6.44414
#
# Compressibility (1/GPa) = 0.04354297
#
# Stress axis : x y z
#
# Youngs Moduli (GPa) = 21.93309 48.32010 85.91965
#
# Poissons Ratio (x) = 0.18069 0.36642
# Poissons Ratio (y) = 0.08202 0.78943
# Poissons Ratio (z) = 0.09354 0.44396
#
# Static dielectric constant tensor:
#      x y z
#    x 1.586500 0.000000 0.000000 
#    y 0.000000 1.568400 0.000000 
#    z 0.000000 0.000000 1.617570 
# 
# From -- ./inp_files/37029.got.cif
#   From: 2010.05.17/outbox.cif.g08.bks.cpg/sg64_19_cif.got.tgz:37029.got - 2010.06.03 16:29:19.
