data_PCOD9476950
_publ_section_title
;
Structure prediction by ZEFSAII (Michael W. Deem and Ramdas Pophale) SiO2 
 PCOD9476950
Probable space group: C M C A
;
_chemical_formula_sum "Si O2"
_cell_formula_units_Z 112
_cell_length_a 16.126912
_cell_length_b 22.297361
_cell_length_c 17.875914
_cell_angle_alpha 90.000000
_cell_angle_beta 90.000000
_cell_angle_gamma 90.000000
_cell_volume 6427.956632
_symmetry_space_group_name_H-M "C M C A"
_symmetry_group_IT_number 64
_symmetry_cell_setting 'orthorhombic'
loop_
_space_group_symop_operation_xyz
x,y,z
-x,1/2-y,1/2+z
x,-y,-z
-x,1/2+y,1/2-z
-x,-y,-z
x,1/2+y,1/2-z
-x,y,z
x,1/2-y,1/2+z
1/2+x,1/2+y,z
1/2-x,-y,1/2+z
1/2+x,1/2-y,-z
1/2-x,y,1/2-z
1/2-x,1/2-y,-z
1/2+x,y,1/2-z
1/2-x,1/2+y,z
1/2+x,-y,1/2+z
loop_
_atom_site_type_symbol
_atom_site_label
_atom_site_fract_x
_atom_site_fract_y
_atom_site_fract_z
Si Si1 0.843992 0.523349 0.277650
Si Si2 0.905448 0.849956 0.733356
Si Si3 0.258758 0.033142 0.423804
Si Si4 0.905128 0.470861 0.135196
Si Si5 0.806171 0.163379 0.417752
Si Si6 0.902710 0.336028 0.073446
Si Si7 0.301289 0.749804 0.178991
O O1 0.750000 0.537296 0.250000
O O2 0.895954 0.583363 0.265617
O O3 0.826075 0.510878 0.363586
O O4 0.883044 0.473408 0.223661
O O5 0.870051 0.851151 0.649348
O O6 0.850859 0.805144 0.782991
O O7 0.000000 0.830420 0.733621
O O8 0.253581 0.105267 0.426308
O O9 0.277338 0.000000 0.500000
O O10 0.165458 0.012425 0.400887
O O11 0.897062 0.405380 0.099333
O O12 0.000000 0.491825 0.124015
O O13 0.853593 0.172562 0.495667
O O14 0.756737 0.220396 0.385055
O O15 0.861208 0.296202 0.138175
O O16 0.000000 0.321496 0.064195
O O17 0.250000 0.776012 0.250000
#
# Coordination Sequence:
#
# PCOD9476950 Si02
#       7
#    16  16  16  16  16  16  16
#     4  10  18  33  52  78 110 141 183 219 263 334
#     4  11  19  32  57  83 107 140 183 236 277 314
#     4  11  20  34  54  83 114 141 180 226 276 331
#     4  10  21  33  54  84 114 144 174 218 280 334
#     4  11  20  36  55  86 110 143 186 234 277 329
#     4  11  23  38  55  83 118 149 181 228 284 333
#     4  10  22  39  58  79 109 147 197 226 265 329
#
# _framework density 17.423888000000002
#
# number of rings (size 3 to 8) (size 9 to 14) (size 15 to 20)
#    0.000    1.429    5.714    2.143    0.000    2.571 
#    0.000    0.000    0.000    1.714    0.000    0.000 
#    0.000    0.000    0.000    0.000    0.000    0.000 
#
# Total GULP energy -312331.164162 kJ/mol
# GULP energy per Si atom -5577.342217 kJ/mol
# Density = 1.738423 g / cm^3
# Si number density = 17.423888 Si / 1000 Ang^3
#
#
#
# Elastic Constant Matrix: (Units=GPa)
#
#
# Indices 1 2 3 4 5 6 
#
# 1 32.4916 1.7982 10.6488 0.0000 0.0000 0.0000
# 2 1.7982 31.4365 15.1661 0.0000 0.0000 0.0000
# 3 10.6488 15.1661 107.7380 0.0000 0.0000 0.0000
# 4 0.0000 0.0000 0.0000 19.3242 0.0000 0.0000
# 5 0.0000 0.0000 0.0000 0.0000 17.9798 0.0000
# 6 0.0000 0.0000 0.0000 0.0000 0.0000 20.9014
#
#
#
# Elastic Compliance Matrix: (Units=1/GPa)
#
#
# Indices 1 2 3 4 5 6 
#
# 1 0.031811 -0.000325 -0.003098 0.000000 0.000000 0.000000
# 2 -0.000325 0.034131 -0.004772 0.000000 0.000000 0.000000
# 3 -0.003098 -0.004772 0.010260 0.000000 0.000000 0.000000
# 4 0.000000 0.000000 0.000000 0.051749 0.000000 0.000000
# 5 0.000000 0.000000 0.000000 0.000000 0.055618 0.000000
# 6 0.000000 0.000000 0.000000 0.000000 0.000000 0.047844
#
#
# Mechanical properties :
#
#
# Convention : Reuss Voigt Hill
#
# Bulk Modulus (GPa) = 16.71958 25.21026 20.96492
# Shear Modulus (GPa) = 18.67482 21.24461 19.95972
#
# Velocity S-wave (km/s) = 3.27738 3.49561 3.38825
# Velocity P-wave (km/s) = 4.89267 5.54911 5.23119
#
# Compressibility (1/GPa) = 0.05981013
#
# Stress axis : x y z
#
# Youngs Moduli (GPa) = 31.43602 29.29873 97.46737
#
# Poissons Ratio (x) = 0.00952 0.30200
# Poissons Ratio (y) = 0.01021 0.46516
# Poissons Ratio (z) = 0.09740 0.13983
#
# Static dielectric constant tensor:
#      x y z
#    x 1.587660 0.000000 0.000000 
#    y 0.000000 1.574330 0.000000 
#    z 0.000000 0.000000 1.620120 
# 
# From -- ./inp_files/33604.got.cif
#   From: 2010.05.17/outbox.cif.g08.bks.cpg/sg64_17_cif.got.tgz:33604.got - 2010.06.03 16:29:19.
