data_PCOD9476670
_publ_section_title
;
Structure prediction by ZEFSAII (Michael W. Deem and Ramdas Pophale) SiO2 
 PCOD9476670
Probable space group: C M C A
;
_chemical_formula_sum "Si O2"
_cell_formula_units_Z 116
_cell_length_a 7.909915
_cell_length_b 31.412890
_cell_length_c 28.959303
_cell_angle_alpha 90.000000
_cell_angle_beta 90.000000
_cell_angle_gamma 90.000000
_cell_volume 7195.613287
_symmetry_space_group_name_H-M "C M C A"
_symmetry_group_IT_number 64
_symmetry_cell_setting 'orthorhombic'
loop_
_space_group_symop_operation_xyz
x,y,z
-x,1/2-y,1/2+z
x,-y,-z
-x,1/2+y,1/2-z
-x,-y,-z
x,1/2+y,1/2-z
-x,y,z
x,1/2-y,1/2+z
1/2+x,1/2+y,z
1/2-x,-y,1/2+z
1/2+x,1/2-y,-z
1/2-x,y,1/2-z
1/2-x,1/2-y,-z
1/2+x,y,1/2-z
1/2-x,1/2+y,z
1/2+x,-y,1/2+z
loop_
_atom_site_type_symbol
_atom_site_label
_atom_site_fract_x
_atom_site_fract_y
_atom_site_fract_z
Si Si1 0.703883 0.757640 0.801827
Si Si2 0.800281 0.615885 0.397014
Si Si3 0.803304 0.931086 0.515645
Si Si4 0.500000 0.500000 0.000000
Si Si5 0.798228 0.644575 0.198175
Si Si6 0.305709 0.661322 0.525939
Si Si7 0.695024 0.294564 0.938683
Si Si8 0.193977 0.711104 0.608773
O O1 0.500000 0.759063 0.805731
O O2 0.750000 0.744503 0.750000
O O3 0.766022 0.806489 0.808153
O O4 0.766849 0.726387 0.842010
O O5 0.710061 0.582447 0.430286
O O6 0.770595 0.614871 0.342458
O O7 0.741822 0.663005 0.412783
O O8 0.000000 0.613217 0.406845
O O9 0.767635 0.887342 0.487160
O O10 0.000000 0.943872 0.506058
O O11 0.652678 0.963596 0.505218
O O12 0.750000 0.631576 0.250000
O O13 0.000000 0.645400 0.194448
O O14 0.500000 0.668664 0.513390
O O15 0.204002 0.692749 0.492260
O O16 0.279780 0.674401 0.578770
O O17 0.500000 0.286725 0.926066
O O18 0.795703 0.253710 0.922396
O O19 0.000000 0.698622 0.615539
#
# Coordination Sequence:
#
# PCOD9476670 Si02
#       8
#    16  16  16   4  16  16  16  16
#     4   9  19  31  43  62  90 131 180 224 262 297
#     4  10  18  31  49  72 102 139 180 217 260 305
#     4  10  22  38  58  82 107 139 167 211 260 321
#     4  12  22  40  64  82 108 132 170 200 264 326
#     4  10  18  29  44  65  96 137 182 224 261 301
#     4  10  21  34  48  69  99 130 167 209 252 294
#     4  10  19  29  44  64  93 134 178 211 247 291
#     4  11  20  30  45  65  94 134 175 216 255 293
#
# _framework density 16.120933000000001
#
# number of rings (size 3 to 8) (size 9 to 14) (size 15 to 20)
#    0.000    1.931    2.069    2.690    1.931    2.759 
#    0.000    0.000    0.000    0.000    0.000    0.000 
#    0.000    1.103    5.793    0.414    0.000    0.276 
#
# Total GULP energy -322876.164977 kJ/mol
# GULP energy per Si atom -5566.830431 kJ/mol
# Density = 1.608424 g / cm^3
# Si number density = 16.120933 Si / 1000 Ang^3
#
#
#
# Elastic Constant Matrix: (Units=GPa)
#
#
# Indices 1 2 3 4 5 6 
#
# 1 62.4730 28.0071 19.0950 0.0000 0.0000 0.0000
# 2 28.0071 53.5253 39.0468 0.0000 0.0000 0.0000
# 3 19.0950 39.0468 74.9266 0.0000 0.0000 0.0000
# 4 0.0000 0.0000 0.0000 -0.7039 0.0000 0.0000
# 5 0.0000 0.0000 0.0000 0.0000 20.4010 0.0000
# 6 0.0000 0.0000 0.0000 0.0000 0.0000 19.0426
#
#
#
# Elastic Compliance Matrix: (Units=1/GPa)
#
#
# Indices 1 2 3 4 5 6 
#
# 1 0.020929 -0.011391 0.000602 0.000000 0.000000 0.000000
# 2 -0.011391 0.036341 -0.016036 0.000000 0.000000 0.000000
# 3 0.000602 -0.016036 0.021550 0.000000 0.000000 0.000000
# 4 0.000000 0.000000 0.000000 -1.420672 0.000000 0.000000
# 5 0.000000 0.000000 0.000000 0.000000 0.049017 0.000000
# 6 0.000000 0.000000 0.000000 0.000000 0.000000 0.052514
#
#
# Mechanical properties :
#
#
# Convention : Reuss Voigt Hill
#
# Bulk Modulus (GPa) = 39.72687 40.35809 40.04248
# Shear Modulus (GPa) = -4.24346 14.73300 5.24477
#
# Velocity S-wave (km/s) = -1.62419 3.02637 1.80567
# Velocity P-wave (km/s) = 4.60209 6.10744 5.40740
#
# Compressibility (1/GPa) = 0.02517188
#
# Stress axis : x y z
#
# Youngs Moduli (GPa) = 47.77983 27.51725 46.40451
#
# Poissons Ratio (x) = 0.31344 -0.02794
# Poissons Ratio (y) = 0.54424 0.74412
# Poissons Ratio (z) = -0.02877 0.44126
#
# Static dielectric constant tensor:
#      x y z
#    x 1.577590 0.000000 0.000000 
#    y 0.000000 1.517420 0.000000 
#    z 0.000000 0.000000 1.579070 
# 
# From -- ./inp_files/48844.got.cif
#   From: 2010.05.17/outbox.cif.g08.bks.cpg/sg64_25_cif.got.tgz:48844.got - 2010.06.03 16:29:19.
