data_PCOD9476256
_publ_section_title
;
Structure prediction by ZEFSAII (Michael W. Deem and Ramdas Pophale) SiO2 
 PCOD9476256
Probable space group: C M C M
;
_chemical_formula_sum "Si O2"
_cell_formula_units_Z 34
_cell_length_a 27.000000
_cell_length_b 9.000000
_cell_length_c 15.000000
_cell_angle_alpha 90.000000
_cell_angle_beta 90.000000
_cell_angle_gamma 90.000000
_cell_volume 3645.000000
_symmetry_space_group_name_H-M "C M C M"
_symmetry_group_IT_number 63
_symmetry_cell_setting 'orthorhombic'
loop_
_space_group_symop_operation_xyz
x,y,z
-x,-y,1/2+z
x,-y,-z
-x,y,1/2-z
-x,-y,-z
x,y,1/2-z
-x,y,z
x,-y,1/2+z
1/2+x,1/2+y,z
1/2-x,1/2-y,1/2+z
1/2+x,1/2-y,-z
1/2-x,1/2+y,1/2-z
1/2-x,1/2-y,-z
1/2+x,1/2+y,1/2-z
1/2-x,1/2+y,z
1/2+x,1/2-y,1/2+z
loop_
_atom_site_type_symbol
_atom_site_label
_atom_site_fract_x
_atom_site_fract_y
_atom_site_fract_z
Si Si1 0.182457 0.532557 0.250000
Si Si2 0.000000 0.717745 0.750000
Si Si3 0.864272 0.076328 0.902983
Si Si4 0.057092 0.997767 0.250000
Si Si5 0.788546 0.884264 0.250000
Si Si6 0.500000 0.030827 0.105475
Si Si7 0.889642 0.587013 0.092707
O O1 0.201200 0.705783 0.250000
O O2 0.231080 0.429826 0.250000
O O3 0.146265 0.511966 0.334789
O O4 0.000000 0.618873 0.837497
O O5 0.952980 0.825946 0.750000
O O6 0.911182 0.040013 0.838123
O O7 0.816729 0.052633 0.838198
O O8 0.868184 0.250472 0.922125
O O9 0.863780 0.000000 0.000000
O O10 0.000000 0.935772 0.250000
O O11 0.446724 0.103722 0.126094
O O12 0.500000 0.000000 0.000000
O O13 0.890351 0.500000 0.000000
#
# Coordination Sequence:
#
# PCOD9476256 Si02
#       7
#     8   4  16   8   8   8  16
#     4  10  21  43  62  86 122 157 205 257 309 368
#     4  10  22  38  56  92 122 158 222 240 292 370
#     4  10  22  41  63  88 127 158 211 253 306 363
#     4   9  23  37  59  86 121 162 209 246 303 352
#     4   9  22  42  60  91 116 161 202 261 313 361
#     4  10  22  37  58  90 133 157 205 251 300 357
#     4  10  23  39  62  91 124 164 205 246 310 367
#
# _framework density 9.3278459999999992
#
# number of rings (size 3 to 8) (size 9 to 14) (size 15 to 20)
#    0.353    1.882    0.000    1.412    8.235    3.294 
#    4.235    4.706    0.000    0.000    0.000    0.000 
#    0.000    0.000    0.000    0.000    0.000    0.000 
#
# Total GULP energy -189477.260845 kJ/mol
# GULP energy per Si atom -5572.860613 kJ/mol
# Density = 0.930662 g / cm^3
# Si number density = 9.327846 Si / 1000 Ang^3
#
#
#
# Elastic Constant Matrix: (Units=GPa)
#
#
# Indices 1 2 3 4 5 6 
#
# 1 157.2346 12.6584 59.5997 0.0000 0.0000 0.0000
# 2 12.6584 43.8328 41.6698 0.0000 0.0000 0.0000
# 3 59.5997 41.6698 148.1870 0.0000 0.0000 0.0000
# 4 0.0000 0.0000 0.0000 35.6374 0.0000 0.0000
# 5 0.0000 0.0000 0.0000 0.0000 28.3023 0.0000
# 6 0.0000 0.0000 0.0000 0.0000 0.0000 33.6169
#
#
#
# Elastic Compliance Matrix: (Units=1/GPa)
#
#
# Indices 1 2 3 4 5 6 
#
# 1 0.007534 0.000962 -0.003300 0.000000 0.000000 0.000000
# 2 0.000962 0.031261 -0.009177 0.000000 0.000000 0.000000
# 3 -0.003300 -0.009177 0.010656 0.000000 0.000000 0.000000
# 4 0.000000 0.000000 0.000000 0.028060 0.000000 0.000000
# 5 0.000000 0.000000 0.000000 0.000000 0.035333 0.000000
# 6 0.000000 0.000000 0.000000 0.000000 0.000000 0.029747
#
#
# Mechanical properties :
#
#
# Convention : Reuss Voigt Hill
#
# Bulk Modulus (GPa) = 37.85177 64.12335 50.98756
# Shear Modulus (GPa) = 28.66509 35.19975 31.93242
#
# Velocity S-wave (km/s) = 3.92412 4.34846 4.14172
# Velocity P-wave (km/s) = 6.39260 7.72390 7.08957
#
# Compressibility (1/GPa) = 0.02641884
#
# Stress axis : x y z
#
# Youngs Moduli (GPa) = 132.74040 31.98920 93.84159
#
# Poissons Ratio (x) = -0.03077 0.30972
# Poissons Ratio (y) = -0.12769 0.86121
# Poissons Ratio (z) = 0.43810 0.29357
#
# Static dielectric constant tensor:
#      x y z
#    x 1.668030 0.000000 0.000000 
#    y 0.000000 1.653650 0.000000 
#    z 0.000000 0.000000 1.646800 
# 
# From -- ./inp_files/37527.got.cif
#   From: 2010.05.17/outbox.ucp.g08.bks.cvg/sg63_19_cif.got.tgz:37527.got - 2010.06.11 16:32:19.
