data_PCOD9476121
_publ_section_title
;
Structure prediction by ZEFSAII (Michael W. Deem and Ramdas Pophale) SiO2 
 PCOD9476121
Probable space group: C M C M
;
_chemical_formula_sum "Si O2"
_cell_formula_units_Z 48
_cell_length_a 21.000000
_cell_length_b 27.000000
_cell_length_c 9.000000
_cell_angle_alpha 90.000000
_cell_angle_beta 90.000000
_cell_angle_gamma 90.000000
_cell_volume 5103.000000
_symmetry_space_group_name_H-M "C M C M"
_symmetry_group_IT_number 63
_symmetry_cell_setting 'orthorhombic'
loop_
_space_group_symop_operation_xyz
x,y,z
-x,-y,1/2+z
x,-y,-z
-x,y,1/2-z
-x,-y,-z
x,y,1/2-z
-x,y,z
x,-y,1/2+z
1/2+x,1/2+y,z
1/2-x,1/2-y,1/2+z
1/2+x,1/2-y,-z
1/2-x,1/2+y,1/2-z
1/2-x,1/2-y,-z
1/2+x,1/2+y,1/2-z
1/2-x,1/2+y,z
1/2+x,1/2-y,1/2+z
loop_
_atom_site_type_symbol
_atom_site_label
_atom_site_fract_x
_atom_site_fract_y
_atom_site_fract_z
Si Si1 0.067693 0.053633 0.073383
Si Si2 0.290787 0.303763 0.416447
Si Si3 0.696198 0.420382 0.083272
Si Si4 0.146667 0.724187 0.926415
Si Si5 0.661436 0.051652 0.929469
Si Si6 0.574712 0.136948 0.072616
O O1 0.069580 0.050089 0.250000
O O2 0.000000 0.079599 0.032745
O O3 0.134571 0.073174 0.016159
O O4 0.064322 0.000000 0.000000
O O5 0.297063 0.281931 0.250000
O O6 0.295605 0.361938 0.405828
O O7 0.218077 0.294691 0.466593
O O8 0.345218 0.280370 0.519062
O O9 0.684521 0.440935 0.250000
O O10 0.763951 0.441205 0.029048
O O11 0.137870 0.720073 0.750000
O O12 0.096440 0.690353 0.010829
O O13 0.657941 0.051423 0.750000
O O14 0.619047 0.096314 0.992776
O O15 0.639299 0.000000 0.000000
O O16 0.584221 0.134693 0.250000
O O17 0.500000 0.128387 0.041435
#
# Coordination Sequence:
#
# PCOD9476121 Si02
#       6
#    16  16  16  16  16  16
#     4  10  21  36  54  78 109 147 190 231 277 336
#     4   9  18  34  56  85 117 146 182 228 278 337
#     4  10  20  36  58  86 117 149 188 234 285 340
#     4  10  19  35  58  86 114 146 187 231 280 336
#     4  11  23  40  60  87 118 151 195 246 297 351
#     4  11  24  41  61  85 115 155 200 245 297 353
#
# _framework density 9.4062319999999993
#
# number of rings (size 3 to 8) (size 9 to 14) (size 15 to 20)
#    0.000    1.833    1.667    2.500    0.000    6.667 
#    0.000    0.833    0.000    1.000    0.000    0.000 
#    0.000    0.000    0.000    0.000    0.000    0.000 
#
# Total GULP energy -267468.941056 kJ/mol
# GULP energy per Si atom -5572.269605 kJ/mol
# Density = 0.938482 g / cm^3
# Si number density = 9.406232 Si / 1000 Ang^3
#
#
#
# Elastic Constant Matrix: (Units=GPa)
#
#
# Indices 1 2 3 4 5 6 
#
# 1 97.8799 10.3216 44.5870 0.0000 0.0000 0.0000
# 2 10.3216 47.7893 7.8446 0.0000 0.0000 0.0000
# 3 44.5870 7.8446 54.3103 0.0000 0.0000 0.0000
# 4 0.0000 0.0000 0.0000 26.6755 0.0000 0.0000
# 5 0.0000 0.0000 0.0000 0.0000 31.0661 0.0000
# 6 0.0000 0.0000 0.0000 0.0000 0.0000 -18.7635
#
#
#
# Elastic Compliance Matrix: (Units=1/GPa)
#
#
# Indices 1 2 3 4 5 6 
#
# 1 0.016406 -0.001365 -0.013272 0.000000 0.000000 0.000000
# 2 -0.001365 0.021547 -0.001992 0.000000 0.000000 0.000000
# 3 -0.013272 -0.001992 0.029596 0.000000 0.000000 0.000000
# 4 0.000000 0.000000 0.000000 0.037488 0.000000 0.000000
# 5 0.000000 0.000000 0.000000 0.000000 0.032189 0.000000
# 6 0.000000 0.000000 0.000000 0.000000 0.000000 -0.053295
#
#
# Mechanical properties :
#
#
# Convention : Reuss Voigt Hill
#
# Bulk Modulus (GPa) = 29.16097 36.16508 32.66303
# Shear Modulus (GPa) = 38.87456 16.94406 27.90931
#
# Velocity S-wave (km/s) = 4.55073 3.00439 3.85587
# Velocity P-wave (km/s) = 6.56861 5.59472 6.10113
#
# Compressibility (1/GPa) = 0.03429241
#
# Stress axis : x y z
#
# Youngs Moduli (GPa) = 60.95251 46.41038 33.78819
#
# Poissons Ratio (x) = 0.06334 0.44843
# Poissons Ratio (y) = 0.08319 0.06730
# Poissons Ratio (z) = 0.80895 0.09244
#
# Static dielectric constant tensor:
#      x y z
#    x 1.683030 0.000000 0.000000 
#    y 0.000000 1.666380 0.000000 
#    z 0.000000 0.000000 1.565590 
# 
# From -- ./inp_files/8579.got.cif
#   From: 2010.05.17/outbox.ucp.g08.bks.cvg/sg63_5_cif.got.tgz:8579.got - 2010.06.11 16:32:19.
