data_PCOD9476410
_publ_section_title
;
Structure prediction by ZEFSAII (Michael W. Deem and Ramdas Pophale) SiO2 
 PCOD9476410
Probable space group: C M C A
;
_chemical_formula_sum "Si O2"
_cell_formula_units_Z 96
_cell_length_a 20.878624
_cell_length_b 15.648723
_cell_length_c 14.973422
_cell_angle_alpha 90.000000
_cell_angle_beta 90.000000
_cell_angle_gamma 90.000000
_cell_volume 4892.173389
_symmetry_space_group_name_H-M "C M C A"
_symmetry_group_IT_number 64
_symmetry_cell_setting 'orthorhombic'
loop_
_space_group_symop_operation_xyz
x,y,z
-x,1/2-y,1/2+z
x,-y,-z
-x,1/2+y,1/2-z
-x,-y,-z
x,1/2+y,1/2-z
-x,y,z
x,1/2-y,1/2+z
1/2+x,1/2+y,z
1/2-x,-y,1/2+z
1/2+x,1/2-y,-z
1/2-x,y,1/2-z
1/2-x,1/2-y,-z
1/2+x,y,1/2-z
1/2-x,1/2+y,z
1/2+x,-y,1/2+z
loop_
_atom_site_type_symbol
_atom_site_label
_atom_site_fract_x
_atom_site_fract_y
_atom_site_fract_z
Si Si1 0.000000 0.835413 0.827293
Si Si2 0.500000 0.186922 0.030770
Si Si3 0.320745 0.927673 0.426920
Si Si4 0.889595 0.565211 0.747501
Si Si5 0.500000 0.687014 0.802211
Si Si6 0.000000 0.038355 0.338465
Si Si7 0.787585 0.811858 0.338319
Si Si8 0.388492 0.705740 0.052013
O O1 0.000000 0.739596 0.789474
O O2 0.936193 0.846717 0.883946
O O3 0.000000 0.894696 0.742464
O O4 0.500000 0.248578 0.116641
O O5 0.500000 0.090748 0.068953
O O6 0.435028 0.216116 0.980176
O O7 0.350481 0.972063 0.337497
O O8 0.261750 0.868494 0.395415
O O9 0.367269 0.858549 0.474444
O O10 0.304996 0.000000 0.500000
O O11 0.938877 0.627903 0.698659
O O12 0.934737 0.513315 0.816323
O O13 0.839775 0.622058 0.801299
O O14 0.750000 0.777083 0.250000
O O15 0.826684 0.742426 0.395946
#
# Coordination Sequence:
#
# PCOD9476410 Si02
#       8
#     8   8  16  16   8   8  16  16
#     4  10  20  33  60  93 112 147 192 236 304 358
#     4  10  22  35  59  96 116 148 193 252 308 350
#     4  11  23  39  59  86 118 156 203 251 291 337
#     4  10  20  39  58  82 119 157 192 237 303 358
#     4  10  16  36  59  80 114 153 182 230 294 362
#     4  10  22  34  60  91 118 152 191 243 306 366
#     4  10  23  40  60  82 114 169 204 232 295 359
#     4  11  21  39  61  89 120 149 199 256 297 355
#
# _framework density 19.623180999999999
#
# number of rings (size 3 to 8) (size 9 to 14) (size 15 to 20)
#    0.000    1.667    3.333    1.500    0.000    1.333 
#    0.000    7.500    0.000    0.000    0.000    0.000 
#    0.000    0.000    0.000    0.000    0.000    0.000 
#
# Total GULP energy -267506.152929 kJ/mol
# GULP energy per Si atom -5573.044853 kJ/mol
# Density = 1.957852 g / cm^3
# Si number density = 19.623181 Si / 1000 Ang^3
#
#
#
# Elastic Constant Matrix: (Units=GPa)
#
#
# Indices 1 2 3 4 5 6 
#
# 1 89.7654 12.2991 20.5123 0.0000 0.0000 0.0000
# 2 12.2991 38.9936 10.2506 0.0000 0.0000 0.0000
# 3 20.5123 10.2506 55.5673 0.0000 0.0000 0.0000
# 4 0.0000 0.0000 0.0000 34.6014 0.0000 0.0000
# 5 0.0000 0.0000 0.0000 0.0000 27.1338 0.0000
# 6 0.0000 0.0000 0.0000 0.0000 0.0000**********
#
#
#
# Elastic Compliance Matrix: (Units=1/GPa)
#
#
# Indices 1 2 3 4 5 6 
#
# 1 0.012463 -0.002860 -0.004073 0.000000 0.000000 0.000000
# 2 -0.002860 0.027609 -0.004037 0.000000 0.000000 0.000000
# 3 -0.004073 -0.004037 0.020244 0.000000 0.000000 0.000000
# 4 0.000000 0.000000 0.000000 0.028901 0.000000 0.000000
# 5 0.000000 0.000000 0.000000 0.000000 0.036854 0.000000
# 6 0.000000 0.000000 0.000000 0.000000 0.000000 -0.000031
#
#
# Mechanical properties :
#
#
# Convention : Reuss Voigt Hill
#
# Bulk Modulus (GPa) = 26.05850 30.05004 28.05427
# Shear Modulus (GPa) = 31.09997 -6334.77253 -3151.83628
#
# Velocity S-wave (km/s) = 3.98535 -56.87897 -40.12066
# Velocity P-wave (km/s) = 5.87244 65.56124 46.17245
#
# Compressibility (1/GPa) = 0.03837519
#
# Stress axis : x y z
#
# Youngs Moduli (GPa) = 80.23912 36.22045 49.39627
#
# Poissons Ratio (x) = 0.10360 0.20119
# Poissons Ratio (y) = 0.22950 0.19942
# Poissons Ratio (z) = 0.32681 0.14623
#
# Static dielectric constant tensor:
#      x y z
#    x 1.691400 0.000000 0.000000 
#    y 0.000000 1.708910 0.000000 
#    z 0.000000 0.000000 1.759730 
# 
# From -- ./inp_files/26389.got.cif
#   From: 2010.05.17/outbox.cif.g08.bks.cpg/sg64_14_cif.got.tgz:26389.got - 2010.06.03 16:29:19.
