data_PCOD9476236
_publ_section_title
;
Structure prediction by ZEFSAII (Michael W. Deem and Ramdas Pophale) SiO2 
 PCOD9476236
Probable space group: C M C M
;
_chemical_formula_sum "Si O2"
_cell_formula_units_Z 48
_cell_length_a 24.000000
_cell_length_b 24.000000
_cell_length_c 9.000000
_cell_angle_alpha 90.000000
_cell_angle_beta 90.000000
_cell_angle_gamma 90.000000
_cell_volume 5184.000000
_symmetry_space_group_name_H-M "C M C M"
_symmetry_group_IT_number 63
_symmetry_cell_setting 'orthorhombic'
loop_
_space_group_symop_operation_xyz
x,y,z
-x,-y,1/2+z
x,-y,-z
-x,y,1/2-z
-x,-y,-z
x,y,1/2-z
-x,y,z
x,-y,1/2+z
1/2+x,1/2+y,z
1/2-x,1/2-y,1/2+z
1/2+x,1/2-y,-z
1/2-x,1/2+y,1/2-z
1/2-x,1/2-y,-z
1/2+x,1/2+y,1/2-z
1/2-x,1/2+y,z
1/2+x,1/2-y,1/2+z
loop_
_atom_site_type_symbol
_atom_site_label
_atom_site_fract_x
_atom_site_fract_y
_atom_site_fract_z
Si Si1 0.289926 0.059849 0.572243
Si Si2 0.900520 0.161624 0.577345
Si Si3 0.117242 0.351398 0.071453
Si Si4 0.500000 0.278429 0.576402
Si Si5 0.500000 0.159614 0.426731
Si Si6 0.310055 0.755080 0.577293
Si Si7 0.332888 0.440081 0.428470
O O1 0.290192 0.054359 0.750000
O O2 0.340318 0.099481 0.532014
O O3 0.228714 0.082240 0.528906
O O4 0.296257 0.000000 0.500000
O O5 0.920415 0.162327 0.750000
O O6 0.945678 0.187315 0.469047
O O7 0.843688 0.197264 0.575860
O O8 0.882430 0.100488 0.529098
O O9 0.111982 0.346404 0.250000
O O10 0.057157 0.361906 0.999248
O O11 0.148134 0.297213 0.006082
O O12 0.500000 0.262925 0.750000
O O13 0.500000 0.224439 0.472103
O O14 0.500000 0.152386 0.250000
O O15 0.303143 0.771879 0.750000
O O16 0.250000 0.750000 0.500000
O O17 0.338488 0.500000 0.500000
O O18 0.333612 0.444100 0.250000
#
# Coordination Sequence:
#
# PCOD9476236 Si02
#       7
#    16  16  16   8   8  16  16
#     4   9  19  36  59  86 117 150 187 233 286 343
#     4  10  21  38  58  80 113 152 190 232 286 342
#     4  11  22  38  59  85 115 149 193 241 287 339
#     4  12  24  38  59  84 111 148 193 239 285 337
#     4  12  24  40  59  82 113 154 195 233 289 349
#     4  11  22  35  55  83 116 151 187 234 290 347
#     4   9  18  35  58  84 114 150 186 230 283 338
#
# _framework density 9.2592590000000001
#
# number of rings (size 3 to 8) (size 9 to 14) (size 15 to 20)
#    0.000    1.667    1.667    3.500    0.000    5.333 
#    0.000    4.167    0.000    0.000    0.000    0.000 
#    0.000    0.000    0.000    0.000    0.000    0.000 
#
# Total GULP energy -267836.910609 kJ/mol
# GULP energy per Si atom -5579.935638 kJ/mol
# Density = 0.923818 g / cm^3
# Si number density = 9.259259 Si / 1000 Ang^3
#
#
#
# Elastic Constant Matrix: (Units=GPa)
#
#
# Indices 1 2 3 4 5 6 
#
# 1 31.4605 9.4244 11.0015 0.0000 0.0000 0.0000
# 2 9.4244 44.6617 0.6955 0.0000 0.0000 0.0000
# 3 11.0015 0.6955 47.3157 0.0000 0.0000 0.0000
# 4 0.0000 0.0000 0.0000 19.8269 0.0000 0.0000
# 5 0.0000 0.0000 0.0000 0.0000 39.9564 0.0000
# 6 0.0000 0.0000 0.0000 0.0000 0.0000 -20.6088
#
#
#
# Elastic Compliance Matrix: (Units=1/GPa)
#
#
# Indices 1 2 3 4 5 6 
#
# 1 0.037063 -0.007689 -0.008505 0.000000 0.000000 0.000000
# 2 -0.007689 0.023991 0.001435 0.000000 0.000000 0.000000
# 3 -0.008505 0.001435 0.023091 0.000000 0.000000 0.000000
# 4 0.000000 0.000000 0.000000 0.050437 0.000000 0.000000
# 5 0.000000 0.000000 0.000000 0.000000 0.025027 0.000000
# 6 0.000000 0.000000 0.000000 0.000000 0.000000 -0.048523
#
#
# Mechanical properties :
#
#
# Convention : Reuss Voigt Hill
#
# Bulk Modulus (GPa) = 18.30549 18.40898 18.35723
# Shear Modulus (GPa) = 31.48387 14.65599 23.06993
#
# Velocity S-wave (km/s) = 4.12773 2.81628 3.53338
# Velocity P-wave (km/s) = 5.71174 4.53185 5.15566
#
# Compressibility (1/GPa) = 0.05462842
#
# Stress axis : x y z
#
# Youngs Moduli (GPa) = 26.98097 41.68290 43.30697
#
# Poissons Ratio (x) = 0.32048 0.36831
# Poissons Ratio (y) = 0.20745 -0.06215
# Poissons Ratio (z) = 0.22946 -0.05982
#
# Static dielectric constant tensor:
#      x y z
#    x 1.625760 0.000000 0.000000 
#    y 0.000000 1.672820 0.000000 
#    z 0.000000 0.000000 1.622550 
# 
# From -- ./inp_files/10577.got.cif
#   From: 2010.05.17/outbox.ucp.g08.bks.cvg/sg63_6_cif.got.tgz:10577.got - 2010.06.11 16:32:19.
