data_PCOD9476408
_publ_section_title
;
Structure prediction by ZEFSAII (Michael W. Deem and Ramdas Pophale) SiO2 
 PCOD9476408
Probable space group: C M C A
;
_chemical_formula_sum "Si O2"
_cell_formula_units_Z 56
_cell_length_a 14.833595
_cell_length_b 13.439800
_cell_length_c 12.823182
_cell_angle_alpha 90.000000
_cell_angle_beta 90.000000
_cell_angle_gamma 90.000000
_cell_volume 2556.436617
_symmetry_space_group_name_H-M "C M C A"
_symmetry_group_IT_number 64
_symmetry_cell_setting 'orthorhombic'
loop_
_space_group_symop_operation_xyz
x,y,z
-x,1/2-y,1/2+z
x,-y,-z
-x,1/2+y,1/2-z
-x,-y,-z
x,1/2+y,1/2-z
-x,y,z
x,1/2-y,1/2+z
1/2+x,1/2+y,z
1/2-x,-y,1/2+z
1/2+x,1/2-y,-z
1/2-x,y,1/2-z
1/2-x,1/2-y,-z
1/2+x,y,1/2-z
1/2-x,1/2+y,z
1/2+x,-y,1/2+z
loop_
_atom_site_type_symbol
_atom_site_label
_atom_site_fract_x
_atom_site_fract_y
_atom_site_fract_z
Si Si1 0.650489 0.272118 0.384394
Si Si2 0.186897 0.894708 0.056785
Si Si3 0.500000 0.171015 0.252043
Si Si4 0.000000 0.883155 0.512106
Si Si5 0.000000 0.465806 0.379992
O O1 0.738439 0.340457 0.372443
O O2 0.672459 0.178215 0.458388
O O3 0.589352 0.229194 0.291095
O O4 0.585440 0.339921 0.453359
O O5 0.094813 0.908254 0.123461
O O6 0.210999 0.000000 0.000000
O O7 0.500000 0.153696 0.130008
O O8 0.500000 0.062354 0.307298
O O9 0.000000 0.000000 0.500000
O O10 0.000000 0.500000 0.500000
#
# Coordination Sequence:
#
# PCOD9476408 Si02
#       5
#    16  16   8   8   8
#     4  10  21  40  68 101 138 183 232 294 351 426
#     4  10  18  36  70 100 144 180 229 300 350 413
#     4  11  21  43  71  97 136 188 245 278 360 447
#     4  11  25  46  67 100 151 183 233 306 369 429
#     4  10  16  35  68 101 129 185 234 285 347 425
#
# _framework density 21.905491000000001
#
# number of rings (size 3 to 8) (size 9 to 14) (size 15 to 20)
#    0.000    1.714    5.714    1.714    0.000    0.000 
#   10.286    5.714    6.286    0.000    0.000    0.000 
#    0.000    0.000    0.000    0.000    0.000    0.000 
#
# Total GULP energy -156472.621998 kJ/mol
# GULP energy per Si atom -5588.307928 kJ/mol
# Density = 2.185563 g / cm^3
# Si number density = 21.905491 Si / 1000 Ang^3
#
#
#
# Elastic Constant Matrix: (Units=GPa)
#
#
# Indices 1 2 3 4 5 6 
#
# 1 197.2718 83.0160 53.0038 0.0000 0.0000 0.0000
# 2 83.0160 178.0063 42.0741 0.0000 0.0000 0.0000
# 3 53.0038 42.0741 90.7535 0.0000 0.0000 0.0000
# 4 0.0000 0.0000 0.0000 28.7593 0.0000 0.0000
# 5 0.0000 0.0000 0.0000 0.0000 -27.8512 0.0000
# 6 0.0000 0.0000 0.0000 0.0000 0.0000 -41.4842
#
#
#
# Elastic Compliance Matrix: (Units=1/GPa)
#
#
# Indices 1 2 3 4 5 6 
#
# 1 0.006908 -0.002547 -0.002854 0.000000 0.000000 0.000000
# 2 -0.002547 0.007248 -0.001873 0.000000 0.000000 0.000000
# 3 -0.002854 -0.001873 0.013554 0.000000 0.000000 0.000000
# 4 0.000000 0.000000 0.000000 0.034771 0.000000 0.000000
# 5 0.000000 0.000000 0.000000 0.000000 -0.035905 0.000000
# 6 0.000000 0.000000 0.000000 0.000000 0.000000 -0.024106
#
#
# Mechanical properties :
#
#
# Convention : Reuss Voigt Hill
#
# Bulk Modulus (GPa) = 75.97104 91.35771 83.66437
# Shear Modulus (GPa) = 233.59340 11.08063 122.33702
#
# Velocity S-wave (km/s) = 10.33772 2.25152 7.48124
# Velocity P-wave (km/s) = 13.31344 6.96815 10.62551
#
# Compressibility (1/GPa) = 0.01316291
#
# Stress axis : x y z
#
# Youngs Moduli (GPa) = 144.76596 137.96357 73.78065
#
# Poissons Ratio (x) = 0.35140 0.21054
# Poissons Ratio (y) = 0.36872 0.13818
# Poissons Ratio (z) = 0.41310 0.25838
#
# Static dielectric constant tensor:
#      x y z
#    x 1.750050 0.000000 0.000000 
#    y 0.000000 1.876160 0.000000 
#    z 0.000000 0.000000 1.729730 
# 
# From -- ./inp_files/23060.got.cif
#   From: 2010.05.17/outbox.cif.g08.bks.cpg/sg64_12_cif.got.tgz:23060.got - 2010.06.03 16:29:19.
