data_PCOD9476380
_publ_section_title
;
Structure prediction by ZEFSAII (Michael W. Deem and Ramdas Pophale) SiO2 
 PCOD9476380
Probable space group: C M C A
;
_chemical_formula_sum "Si O2"
_cell_formula_units_Z 96
_cell_length_a 19.526697
_cell_length_b 17.294520
_cell_length_c 12.759064
_cell_angle_alpha 90.000000
_cell_angle_beta 90.000000
_cell_angle_gamma 90.000000
_cell_volume 4308.797817
_symmetry_space_group_name_H-M "C M C A"
_symmetry_group_IT_number 64
_symmetry_cell_setting 'orthorhombic'
loop_
_space_group_symop_operation_xyz
x,y,z
-x,1/2-y,1/2+z
x,-y,-z
-x,1/2+y,1/2-z
-x,-y,-z
x,1/2+y,1/2-z
-x,y,z
x,1/2-y,1/2+z
1/2+x,1/2+y,z
1/2-x,-y,1/2+z
1/2+x,1/2-y,-z
1/2-x,y,1/2-z
1/2-x,1/2-y,-z
1/2+x,y,1/2-z
1/2-x,1/2+y,z
1/2+x,-y,1/2+z
loop_
_atom_site_type_symbol
_atom_site_label
_atom_site_fract_x
_atom_site_fract_y
_atom_site_fract_z
Si Si1 0.224658 0.130985 0.131087
Si Si2 0.224550 0.706291 0.628528
Si Si3 0.074800 0.605344 0.388623
Si Si4 0.574769 0.150589 0.617478
Si Si5 0.923961 0.525281 0.791483
Si Si6 0.275241 0.963894 0.129576
O O1 0.250000 0.124956 0.250000
O O2 0.257361 0.208660 0.086702
O O3 0.144215 0.150333 0.130803
O O4 0.240863 0.044099 0.089293
O O5 0.250000 0.709312 0.750000
O O6 0.142749 0.700315 0.615460
O O7 0.253934 0.622195 0.592429
O O8 0.076784 0.593447 0.515253
O O9 0.080466 0.536428 0.304366
O O10 0.000000 0.641740 0.369167
O O11 0.500000 0.189688 0.611219
O O12 0.578122 0.104625 0.726158
O O13 0.857516 0.522822 0.865358
O O14 0.000000 0.516466 0.839891
O O15 0.250000 0.960974 0.250000
#
# Coordination Sequence:
#
# PCOD9476380 Si02
#       6
#    16  16  16  16  16  16
#     4  10  19  33  52  75 100 137 174 210 248 300
#     4  10  19  33  52  75 100 137 174 210 248 300
#     4  10  19  31  49  75 105 133 164 209 263 308
#     4  10  19  31  49  75 105 133 164 209 263 308
#     4  10  17  29  48  74 103 132 167 208 259 306
#     4  10  16  32  50  70 103 139 164 213 250 297
#
# _framework density 22.279995
#
# number of rings (size 3 to 8) (size 9 to 14) (size 15 to 20)
#    0.000    2.000    6.667    0.500    0.000    2.667 
#    0.000    5.000    0.000    0.000    0.000    0.000 
#    0.000    4.000    0.000    0.000    0.000    0.000 
#
# Total GULP energy -267206.129049 kJ/mol
# GULP energy per Si atom -5566.794355 kJ/mol
# Density = 2.222929 g / cm^3
# Si number density = 22.279995 Si / 1000 Ang^3
#
#
#
# Elastic Constant Matrix: (Units=GPa)
#
#
# Indices 1 2 3 4 5 6 
#
# 1 232.9614 60.1137 8.1324 0.0000 0.0000 0.0000
# 2 60.1137 164.1154 44.7794 0.0000 0.0000 0.0000
# 3 8.1324 44.7794 60.7810 0.0000 0.0000 0.0000
# 4 0.0000 0.0000 0.0000 54.7217 0.0000 0.0000
# 5 0.0000 0.0000 0.0000 0.0000 -55.1761 0.0000
# 6 0.0000 0.0000 0.0000 0.0000 0.0000 9.7856
#
#
#
# Elastic Compliance Matrix: (Units=1/GPa)
#
#
# Indices 1 2 3 4 5 6 
#
# 1 0.004772 -0.001970 0.000813 0.000000 0.000000 0.000000
# 2 -0.001970 0.008439 -0.005954 0.000000 0.000000 0.000000
# 3 0.000813 -0.005954 0.020730 0.000000 0.000000 0.000000
# 4 0.000000 0.000000 0.000000 0.018274 0.000000 0.000000
# 5 0.000000 0.000000 0.000000 0.000000 -0.018124 0.000000
# 6 0.000000 0.000000 0.000000 0.000000 0.000000 0.102191
#
#
# Mechanical properties :
#
#
# Convention : Reuss Voigt Hill
#
# Bulk Modulus (GPa) = 50.71035 75.98986 63.35010
# Shear Modulus (GPa) = 31.83105 24.85505 28.34305
#
# Velocity S-wave (km/s) = 3.78389 3.34365 3.57056
# Velocity P-wave (km/s) = 6.47305 7.00624 6.74492
#
# Compressibility (1/GPa) = 0.01971984
#
# Stress axis : x y z
#
# Youngs Moduli (GPa) = 209.53417 118.49208 48.23861
#
# Poissons Ratio (x) = 0.23341 -0.03920
# Poissons Ratio (y) = 0.41275 0.28721
# Poissons Ratio (z) = -0.17029 0.70550
#
# Static dielectric constant tensor:
#      x y z
#    x 1.766120 0.000000 0.000000 
#    y 0.000000 1.822140 0.000000 
#    z 0.000000 0.000000 1.898110 
# 
# From -- ./inp_files/33302.got.cif
#   From: 2010.05.17/outbox.cif.g08.bks.cpg/sg64_17_cif.got.tgz:33302.got - 2010.06.03 16:29:19.
