data_PCOD9476800
_publ_section_title
;
Structure prediction by ZEFSAII (Michael W. Deem and Ramdas Pophale) SiO2 
 PCOD9476800
Probable space group: C M C A
;
_chemical_formula_sum "Si O2"
_cell_formula_units_Z 96
_cell_length_a 8.873950
_cell_length_b 23.458805
_cell_length_c 26.272354
_cell_angle_alpha 90.000000
_cell_angle_beta 90.000000
_cell_angle_gamma 90.000000
_cell_volume 5469.175377
_symmetry_space_group_name_H-M "C M C A"
_symmetry_group_IT_number 64
_symmetry_cell_setting 'orthorhombic'
loop_
_space_group_symop_operation_xyz
x,y,z
-x,1/2-y,1/2+z
x,-y,-z
-x,1/2+y,1/2-z
-x,-y,-z
x,1/2+y,1/2-z
-x,y,z
x,1/2-y,1/2+z
1/2+x,1/2+y,z
1/2-x,-y,1/2+z
1/2+x,1/2-y,-z
1/2-x,y,1/2-z
1/2-x,1/2-y,-z
1/2+x,y,1/2-z
1/2-x,1/2+y,z
1/2+x,-y,1/2+z
loop_
_atom_site_type_symbol
_atom_site_label
_atom_site_fract_x
_atom_site_fract_y
_atom_site_fract_z
Si Si1 0.818524 0.812843 0.499712
Si Si2 0.835730 0.991252 0.440111
Si Si3 0.326301 0.381052 0.600941
Si Si4 0.818046 0.564749 0.695037
Si Si5 0.179886 0.068028 0.195090
Si Si6 0.824419 0.884426 0.091687
O O1 0.750000 0.750000 0.500000
O O2 0.771707 0.844329 0.552561
O O3 0.762138 0.845940 0.449279
O O4 0.000000 0.811993 0.499268
O O5 0.701721 0.949254 0.426702
O O6 0.000000 0.965889 0.424856
O O7 0.837771 0.000000 0.500000
O O8 0.825138 0.053698 0.417591
O O9 0.500000 0.364460 0.611460
O O10 0.234234 0.386644 0.653036
O O11 0.750000 0.578526 0.750000
O O12 0.773731 0.498414 0.683294
O O13 0.771965 0.608719 0.650417
O O14 0.000000 0.565704 0.697241
O O15 0.250000 0.080940 0.250000
O O16 0.000000 0.068383 0.197732
O O17 0.000000 0.868672 0.090909
#
# Coordination Sequence:
#
# PCOD9476800 Si02
#       6
#    16  16  16  16  16  16
#     4  11  24  42  59  80 106 142 186 229 279 328
#     4  10  18  31  49  76 110 145 178 214 269 330
#     4  10  20  34  54  78 110 145 180 222 271 325
#     4   9  19  32  48  76 112 147 181 216 259 315
#     4  10  19  32  50  78 114 149 184 218 263 321
#     4  11  21  34  53  81 113 144 180 225 272 324
#
# _framework density 17.55292
#
# number of rings (size 3 to 8) (size 9 to 14) (size 15 to 20)
#    0.000    1.833    3.333    1.500    0.000    3.667 
#    0.000    0.000    0.000    1.000    0.000    4.667 
#    0.000    0.000    0.000    0.000    0.000    0.000 
#
# Total GULP energy -267430.270616 kJ/mol
# GULP energy per Si atom -5571.463971 kJ/mol
# Density = 1.751297 g / cm^3
# Si number density = 17.552920 Si / 1000 Ang^3
#
#
#
# Elastic Constant Matrix: (Units=GPa)
#
#
# Indices 1 2 3 4 5 6 
#
# 1 41.3550 26.0868 51.3138 0.0000 0.0000 0.0000
# 2 26.0868 65.5672 57.6556 0.0000 0.0000 0.0000
# 3 51.3138 57.6556 163.2414 0.0000 0.0000 0.0000
# 4 0.0000 0.0000 0.0000 7.7616 0.0000 0.0000
# 5 0.0000 0.0000 0.0000 0.0000 25.9921 0.0000
# 6 0.0000 0.0000 0.0000 0.0000 0.0000 18.4805
#
#
#
# Elastic Compliance Matrix: (Units=1/GPa)
#
#
# Indices 1 2 3 4 5 6 
#
# 1 0.041978 -0.007395 -0.010584 0.000000 0.000000 0.000000
# 2 -0.007395 0.023425 -0.005949 0.000000 0.000000 0.000000
# 3 -0.010584 -0.005949 0.011554 0.000000 0.000000 0.000000
# 4 0.000000 0.000000 0.000000 0.128839 0.000000 0.000000
# 5 0.000000 0.000000 0.000000 0.000000 0.038473 0.000000
# 6 0.000000 0.000000 0.000000 0.000000 0.000000 0.054111
#
#
# Mechanical properties :
#
#
# Convention : Reuss Voigt Hill
#
# Bulk Modulus (GPa) = 34.36228 60.03066 47.19647
# Shear Modulus (GPa) = 14.04750 19.45402 16.75076
#
# Velocity S-wave (km/s) = 2.83202 3.33274 3.09253
# Velocity P-wave (km/s) = 5.50569 7.00597 6.30064
#
# Compressibility (1/GPa) = 0.02910168
#
# Stress axis : x y z
#
# Youngs Moduli (GPa) = 23.82209 42.68989 86.55083
#
# Poissons Ratio (x) = 0.31569 0.91602
# Poissons Ratio (y) = 0.17616 0.51488
# Poissons Ratio (z) = 0.25212 0.25396
#
# Static dielectric constant tensor:
#      x y z
#    x 1.663360 0.000000 0.000000 
#    y 0.000000 1.579540 0.000000 
#    z 0.000000 0.000000 1.617090 
# 
# From -- ./inp_files/48352.got.cif
#   From: 2010.05.17/outbox.cif.g08.bks.cpg/sg64_25_cif.got.tgz:48352.got - 2010.06.03 16:29:19.
