data_PCOD9476010
_publ_section_title
;
Structure prediction by ZEFSAII (Michael W. Deem and Ramdas Pophale) SiO2 
 PCOD9476010
Probable space group: C M C M
;
_chemical_formula_sum "Si O2"
_cell_formula_units_Z 80
_cell_length_a 7.647647
_cell_length_b 20.129919
_cell_length_c 26.937975
_cell_angle_alpha 90.000000
_cell_angle_beta 90.000000
_cell_angle_gamma 90.000000
_cell_volume 4147.007363
_symmetry_space_group_name_H-M "C M C M"
_symmetry_group_IT_number 63
_symmetry_cell_setting 'orthorhombic'
loop_
_space_group_symop_operation_xyz
x,y,z
-x,-y,1/2+z
x,-y,-z
-x,y,1/2-z
-x,-y,-z
x,y,1/2-z
-x,y,z
x,-y,1/2+z
1/2+x,1/2+y,z
1/2-x,1/2-y,1/2+z
1/2+x,1/2-y,-z
1/2-x,1/2+y,1/2-z
1/2-x,1/2-y,-z
1/2+x,1/2+y,1/2-z
1/2-x,1/2+y,z
1/2+x,1/2-y,1/2+z
loop_
_atom_site_type_symbol
_atom_site_label
_atom_site_fract_x
_atom_site_fract_y
_atom_site_fract_z
Si Si1 0.790985 0.922200 0.194214
Si Si2 0.284895 0.671640 0.605875
Si Si3 0.205678 0.676144 0.111324
Si Si4 0.288733 0.075400 0.193820
Si Si5 0.292572 0.671476 0.002395
O O1 0.721718 0.909375 0.250000
O O2 0.724797 0.873934 0.151137
O O3 0.000000 0.912580 0.196200
O O4 0.758454 0.999335 0.182372
O O5 0.500000 0.672150 0.605304
O O6 0.225073 0.748196 0.612080
O O7 0.229831 0.645789 0.551223
O O8 0.278854 0.626906 0.152859
O O9 0.000000 0.682720 0.121569
O O10 0.222743 0.648048 0.055411
O O11 0.227782 0.090179 0.250000
O O12 0.500000 0.078773 0.194156
O O13 0.500000 0.662955 0.004315
O O14 0.250000 0.750000 0.000000
#
# Coordination Sequence:
#
# PCOD9476010 Si02
#       5
#    16  16  16  16  16
#     4   9  17  30  48  67  88 116 149 185 224 267
#     4   8  15  28  46  68  90 113 146 185 222 261
#     4   9  17  30  48  69  92 118 152 190 224 266
#     4   9  18  32  48  66  91 122 151 183 228 275
#     4   9  16  28  46  67  93 122 150 184 227 272
#
# _framework density 19.291018999999999
#
# number of rings (size 3 to 8) (size 9 to 14) (size 15 to 20)
#    0.000    3.200    0.000    1.800    0.000    1.600 
#    0.000   10.000    0.000    6.000    0.000    5.600 
#    0.000    0.000    0.000    0.000    0.000    0.000 
#
# Total GULP energy -222760.482890 kJ/mol
# GULP energy per Si atom -5569.012072 kJ/mol
# Density = 1.924711 g / cm^3
# Si number density = 19.291019 Si / 1000 Ang^3
#
#
#
# Elastic Constant Matrix: (Units=GPa)
#
#
# Indices 1 2 3 4 5 6 
#
# 1 30.9385 -0.8616 -2.6875 0.0000 0.0000 0.0000
# 2 -0.8616 82.2130 108.5558 0.0000 0.0000 0.0000
# 3 -2.6875 108.5558 193.9959 0.0000 0.0000 0.0000
# 4 0.0000 0.0000 0.0000 -43.5420 0.0000 0.0000
# 5 0.0000 0.0000 0.0000 0.0000 18.0595 0.0000
# 6 0.0000 0.0000 0.0000 0.0000 0.0000 17.5006
#
#
#
# Elastic Compliance Matrix: (Units=1/GPa)
#
#
# Indices 1 2 3 4 5 6 
#
# 1 0.032381 -0.000969 0.000991 0.000000 0.000000 0.000000
# 2 -0.000969 0.046611 -0.026096 0.000000 0.000000 0.000000
# 3 0.000991 -0.026096 0.019771 0.000000 0.000000 0.000000
# 4 0.000000 0.000000 0.000000 -0.022966 0.000000 0.000000
# 5 0.000000 0.000000 0.000000 0.000000 0.055373 0.000000
# 6 0.000000 0.000000 0.000000 0.000000 0.000000 0.057141
#
#
# Mechanical properties :
#
#
# Convention : Reuss Voigt Hill
#
# Bulk Modulus (GPa) = 21.45211 57.46232 39.45721
# Shear Modulus (GPa) = 19.53147 11.87965 15.70556
#
# Velocity S-wave (km/s) = 3.18538 2.48425 2.85641
# Velocity P-wave (km/s) = 4.96722 6.17093 5.60150
#
# Compressibility (1/GPa) = 0.04661546
#
# Stress axis : x y z
#
# Youngs Moduli (GPa) = 30.88209 21.45415 50.57866
#
# Poissons Ratio (x) = 0.02078 -0.05011
# Poissons Ratio (y) = 0.02992 1.31990
# Poissons Ratio (z) = -0.03059 0.55987
#
# Static dielectric constant tensor:
#      x y z
#    x 1.730860 0.000000 0.000000 
#    y 0.000000 1.634320 0.000000 
#    z 0.000000 0.000000 1.714060 
# 
# From -- ./inp_files/66554.got.cif
#   From: 2010.05.17/outbox.cif.g08.bks.cpg/sg63_34_cif.got.tgz:66554.got - 2010.06.03 15:47:04.
