data_PCOD9476232
_publ_section_title
;
Structure prediction by ZEFSAII (Michael W. Deem and Ramdas Pophale) SiO2 
 PCOD9476232
Probable space group: C M C M
;
_chemical_formula_sum "Si O2"
_cell_formula_units_Z 48
_cell_length_a 21.000000
_cell_length_b 27.000000
_cell_length_c 9.000000
_cell_angle_alpha 90.000000
_cell_angle_beta 90.000000
_cell_angle_gamma 90.000000
_cell_volume 5103.000000
_symmetry_space_group_name_H-M "C M C M"
_symmetry_group_IT_number 63
_symmetry_cell_setting 'orthorhombic'
loop_
_space_group_symop_operation_xyz
x,y,z
-x,-y,1/2+z
x,-y,-z
-x,y,1/2-z
-x,-y,-z
x,y,1/2-z
-x,y,z
x,-y,1/2+z
1/2+x,1/2+y,z
1/2-x,1/2-y,1/2+z
1/2+x,1/2-y,-z
1/2-x,1/2+y,1/2-z
1/2-x,1/2-y,-z
1/2+x,1/2+y,1/2-z
1/2-x,1/2+y,z
1/2+x,1/2-y,1/2+z
loop_
_atom_site_type_symbol
_atom_site_label
_atom_site_fract_x
_atom_site_fract_y
_atom_site_fract_z
Si Si1 0.927922 0.054031 0.927997
Si Si2 0.572527 0.804164 0.924631
Si Si3 0.571598 0.295704 0.582204
Si Si4 0.071163 0.446485 0.428326
Si Si5 0.180005 0.630737 0.570921
Si Si6 0.679297 0.621614 0.075094
O O1 0.922279 0.051873 0.750000
O O2 0.000000 0.074305 0.960436
O O3 0.866831 0.082222 0.994151
O O4 0.927134 0.000000 0.000000
O O5 0.578388 0.815450 0.750000
O O6 0.500000 0.819146 0.973002
O O7 0.574501 0.745957 0.957850
O O8 0.633007 0.826144 0.011838
O O9 0.574392 0.273645 0.750000
O O10 0.500000 0.318761 0.572939
O O11 0.632714 0.330615 0.567811
O O12 0.076041 0.500000 0.500000
O O13 0.071205 0.449555 0.250000
O O14 0.133818 0.415541 0.469718
O O15 0.000000 0.427062 0.471440
O O16 0.186594 0.633279 0.750000
O O17 0.250618 0.628409 0.498383
O O18 0.687751 0.609415 0.250000
#
# Coordination Sequence:
#
# PCOD9476232 Si02
#       6
#    16  16  16  16  16  16
#     4  10  21  38  61  87 114 147 189 235 282 334
#     4  10  21  37  59  86 112 141 183 234 283 332
#     4   9  19  37  60  83 108 143 185 228 278 335
#     4   9  19  36  58  82 106 137 179 225 272 323
#     4  11  23  38  56  80 114 153 189 226 275 337
#     4  11  23  38  57  83 116 151 188 232 282 335
#
# _framework density 9.4062319999999993
#
# number of rings (size 3 to 8) (size 9 to 14) (size 15 to 20)
#    0.000    2.000    0.000    3.000    0.000    7.333 
#    0.000    5.000    0.000    0.000    0.000    0.000 
#    0.000    0.000    0.000    0.000    0.000    0.000 
#
# Total GULP energy -267298.415386 kJ/mol
# GULP energy per Si atom -5568.716987 kJ/mol
# Density = 0.938482 g / cm^3
# Si number density = 9.406232 Si / 1000 Ang^3
#
#
#
# Elastic Constant Matrix: (Units=GPa)
#
#
# Indices 1 2 3 4 5 6 
#
# 1 221.0517 46.6860 74.2875 0.0000 0.0000 0.0000
# 2 46.6860 59.3868 38.6248 0.0000 0.0000 0.0000
# 3 74.2875 38.6248 76.8277 0.0000 0.0000 0.0000
# 4 0.0000 0.0000 0.0000 25.5285 0.0000 0.0000
# 5 0.0000 0.0000 0.0000 0.0000 67.5460 0.0000
# 6 0.0000 0.0000 0.0000 0.0000 0.0000 26.9882
#
#
#
# Elastic Compliance Matrix: (Units=1/GPa)
#
#
# Indices 1 2 3 4 5 6 
#
# 1 0.006801 -0.001589 -0.005777 0.000000 0.000000 0.000000
# 2 -0.001589 0.025391 -0.011229 0.000000 0.000000 0.000000
# 3 -0.005777 -0.011229 0.024248 0.000000 0.000000 0.000000
# 4 0.000000 0.000000 0.000000 0.039172 0.000000 0.000000
# 5 0.000000 0.000000 0.000000 0.000000 0.014805 0.000000
# 6 0.000000 0.000000 0.000000 0.000000 0.000000 0.037053
#
#
# Mechanical properties :
#
#
# Convention : Reuss Voigt Hill
#
# Bulk Modulus (GPa) = 51.94924 75.16253 63.55589
# Shear Modulus (GPa) = 26.16760 37.19040 31.67900
#
# Velocity S-wave (km/s) = 3.73362 4.45106 4.10803
# Velocity P-wave (km/s) = 6.80153 8.15207 7.50723
#
# Compressibility (1/GPa) = 0.01924956
#
# Stress axis : x y z
#
# Youngs Moduli (GPa) = 147.03847 39.38395 41.24118
#
# Poissons Ratio (x) = 0.06258 0.23826
# Poissons Ratio (y) = 0.23364 0.46309
# Poissons Ratio (z) = 0.84948 0.44224
#
# Static dielectric constant tensor:
#      x y z
#    x 1.622360 0.000000 0.000000 
#    y 0.000000 1.709370 0.000000 
#    z 0.000000 0.000000 1.619910 
# 
# From -- ./inp_files/8516.got.cif
#   From: 2010.05.17/outbox.ucp.g08.bks.cvg/sg63_5_cif.got.tgz:8516.got - 2010.06.11 16:32:19.
