data_PCOD9476934
_publ_section_title
;
Structure prediction by ZEFSAII (Michael W. Deem and Ramdas Pophale) SiO2 
 PCOD9476934
Probable space group: C M C A
;
_chemical_formula_sum "Si O2"
_cell_formula_units_Z 96
_cell_length_a 18.396689
_cell_length_b 14.774200
_cell_length_c 15.429095
_cell_angle_alpha 90.000000
_cell_angle_beta 90.000000
_cell_angle_gamma 90.000000
_cell_volume 4193.571900
_symmetry_space_group_name_H-M "C M C A"
_symmetry_group_IT_number 64
_symmetry_cell_setting 'orthorhombic'
loop_
_space_group_symop_operation_xyz
x,y,z
-x,1/2-y,1/2+z
x,-y,-z
-x,1/2+y,1/2-z
-x,-y,-z
x,1/2+y,1/2-z
-x,y,z
x,1/2-y,1/2+z
1/2+x,1/2+y,z
1/2-x,-y,1/2+z
1/2+x,1/2-y,-z
1/2-x,y,1/2-z
1/2-x,1/2-y,-z
1/2+x,y,1/2-z
1/2-x,1/2+y,z
1/2+x,-y,1/2+z
loop_
_atom_site_type_symbol
_atom_site_label
_atom_site_fract_x
_atom_site_fract_y
_atom_site_fract_z
Si Si1 0.414386 0.158319 0.852856
Si Si2 0.919520 0.441774 0.657923
Si Si3 0.084281 0.660124 0.656548
Si Si4 0.771383 0.922060 0.927987
Si Si5 0.846720 0.792497 0.526548
Si Si6 0.126007 0.550640 0.149700
O O1 0.500000 0.176140 0.858069
O O2 0.391030 0.182099 0.754727
O O3 0.401646 0.050628 0.865958
O O4 0.372719 0.208629 0.928606
O O5 0.915532 0.551228 0.650485
O O6 0.852225 0.407945 0.603295
O O7 0.905902 0.419064 0.758515
O O8 0.000000 0.412238 0.630489
O O9 0.133685 0.706672 0.584712
O O10 0.000000 0.688740 0.645807
O O11 0.714434 0.951711 0.852613
O O12 0.734248 0.831914 0.963938
O O13 0.768304 0.000000 0.000000
O O14 0.890605 0.876446 0.574960
#
# Coordination Sequence:
#
# PCOD9476934 Si02
#       6
#    16  16  16  16  16  16
#     4  10  18  32  58  94 128 165 210 255 319 379
#     4  10  21  38  62  85 122 173 210 250 305 384
#     4   9  20  36  57  91 128 166 206 248 313 383
#     4  10  20  38  62  91 125 160 212 262 311 369
#     4  10  19  35  61  93 125 163 199 269 320 362
#     4   9  18  35  62  92 120 158 207 268 316 361
#
# _framework density 22.89218
#
# number of rings (size 3 to 8) (size 9 to 14) (size 15 to 20)
#    1.000    1.333    1.667    3.000    0.000    3.667 
#    0.000    2.500   14.667    0.000    0.000    0.000 
#    0.000    4.000    0.000    0.000    0.000    0.000 
#
# Total GULP energy -268338.045845 kJ/mol
# GULP energy per Si atom -5590.375955 kJ/mol
# Density = 2.284008 g / cm^3
# Si number density = 22.892180 Si / 1000 Ang^3
#
#
#
# Elastic Constant Matrix: (Units=GPa)
#
#
# Indices 1 2 3 4 5 6 
#
# 1 150.2619 25.0213 61.0328 0.0000 0.0000 0.0000
# 2 25.0213 78.4473 37.8965 0.0000 0.0000 0.0000
# 3 61.0328 37.8965 83.4992 0.0000 0.0000 0.0000
# 4 0.0000 0.0000 0.0000 28.1425 0.0000 0.0000
# 5 0.0000 0.0000 0.0000 0.0000 54.6333 0.0000
# 6 0.0000 0.0000 0.0000 0.0000 0.0000 5.0624
#
#
#
# Elastic Compliance Matrix: (Units=1/GPa)
#
#
# Indices 1 2 3 4 5 6 
#
# 1 0.009476 0.000414 -0.007114 0.000000 0.000000 0.000000
# 2 0.000414 0.016345 -0.007721 0.000000 0.000000 0.000000
# 3 -0.007114 -0.007721 0.020681 0.000000 0.000000 0.000000
# 4 0.000000 0.000000 0.000000 0.035533 0.000000 0.000000
# 5 0.000000 0.000000 0.000000 0.000000 0.018304 0.000000
# 6 0.000000 0.000000 0.000000 0.000000 0.000000 0.197536
#
#
# Mechanical properties :
#
#
# Convention : Reuss Voigt Hill
#
# Bulk Modulus (GPa) = 56.62736 62.23442 59.43089
# Shear Modulus (GPa) = 15.03291 30.11814 22.57553
#
# Velocity S-wave (km/s) = 2.56536 3.63113 3.14374
# Velocity P-wave (km/s) = 5.79353 6.69515 6.26059
#
# Compressibility (1/GPa) = 0.01765931
#
# Stress axis : x y z
#
# Youngs Moduli (GPa) = 105.53352 61.17988 48.35462
#
# Poissons Ratio (x) = -0.02535 0.34401
# Poissons Ratio (y) = -0.04374 0.37336
# Poissons Ratio (z) = 0.75079 0.47239
#
# Static dielectric constant tensor:
#      x y z
#    x 1.849100 0.000000 0.000000 
#    y 0.000000 1.890520 0.000000 
#    z 0.000000 0.000000 1.832380 
# 
# From -- ./inp_files/26295.got.cif
#   From: 2010.05.17/outbox.cif.g08.bks.cpg/sg64_14_cif.got.tgz:26295.got - 2010.06.03 16:29:19.
