data_PCOD9476105
_publ_section_title
;
Structure prediction by ZEFSAII (Michael W. Deem and Ramdas Pophale) SiO2 
 PCOD9476105
Probable space group: C M C M
;
_chemical_formula_sum "Si O2"
_cell_formula_units_Z 52
_cell_length_a 24.000000
_cell_length_b 27.000000
_cell_length_c 9.000000
_cell_angle_alpha 90.000000
_cell_angle_beta 90.000000
_cell_angle_gamma 90.000000
_cell_volume 5832.000000
_symmetry_space_group_name_H-M "C M C M"
_symmetry_group_IT_number 63
_symmetry_cell_setting 'orthorhombic'
loop_
_space_group_symop_operation_xyz
x,y,z
-x,-y,1/2+z
x,-y,-z
-x,y,1/2-z
-x,-y,-z
x,y,1/2-z
-x,y,z
x,-y,1/2+z
1/2+x,1/2+y,z
1/2-x,1/2-y,1/2+z
1/2+x,1/2-y,-z
1/2-x,1/2+y,1/2-z
1/2-x,1/2-y,-z
1/2+x,1/2+y,1/2-z
1/2-x,1/2+y,z
1/2+x,1/2-y,1/2+z
loop_
_atom_site_type_symbol
_atom_site_label
_atom_site_fract_x
_atom_site_fract_y
_atom_site_fract_z
Si Si1 0.060773 0.554089 0.427270
Si Si2 0.166331 0.209289 0.926714
Si Si3 0.172270 0.413392 0.081158
Si Si4 0.609362 0.620126 0.072396
Si Si5 0.705101 0.199771 0.581561
Si Si6 0.714783 0.551052 0.072712
Si Si7 0.500000 0.555476 0.069567
O O1 0.059603 0.500000 0.500000
O O2 0.066301 0.550317 0.250000
O O3 0.114784 0.578708 0.496740
O O4 0.000000 0.577635 0.459578
O O5 0.162658 0.205164 0.750000
O O6 0.230580 0.196024 0.972136
O O7 0.120670 0.173335 0.998332
O O8 0.166113 0.265711 0.982076
O O9 0.169589 0.433477 0.250000
O O10 0.182870 0.355202 0.087818
O O11 0.225450 0.436069 0.997295
O O12 0.605424 0.626415 0.250000
O O13 0.666312 0.590340 0.038630
O O14 0.555255 0.587590 0.027345
O O15 0.706863 0.220616 0.750000
O O16 0.719816 0.546965 0.250000
O O17 0.695947 0.500000 0.000000
O O18 0.500000 0.550360 0.250000
O O19 0.500000 0.500000 0.000000
#
# Coordination Sequence:
#
# PCOD9476105 Si02
#       7
#    16  16  16  16  16  16   8
#     4  10  21  37  56  78 106 142 182 221 262 314
#     4  10  19  33  56  83 110 141 178 221 269 326
#     4  11  21  35  55  80 110 142 178 222 269 323
#     4  10  21  37  57  80 110 147 187 231 282 336
#     4   9  19  34  53  81 113 143 176 217 269 325
#     4  11  22  34  51  77 110 145 179 222 274 327
#     4  10  22  40  60  84 112 150 196 242 289 340
#
# _framework density 8.9163239999999995
#
# number of rings (size 3 to 8) (size 9 to 14) (size 15 to 20)
#    0.000    1.846    1.538    2.769    0.000    4.000 
#    0.000    0.000    1.692    0.000    0.000    0.000 
#    0.000    0.000    0.000    0.000    0.000    0.000 
#
# Total GULP energy -289920.737514 kJ/mol
# GULP energy per Si atom -5575.398798 kJ/mol
# Density = 0.889603 g / cm^3
# Si number density = 8.916324 Si / 1000 Ang^3
#
#
#
# Elastic Constant Matrix: (Units=GPa)
#
#
# Indices 1 2 3 4 5 6 
#
# 1 72.1310 1.9713 26.0511 0.0000 0.0000 0.0000
# 2 1.9713 52.3631 11.9517 0.0000 0.0000 0.0000
# 3 26.0511 11.9517 38.3725 0.0000 0.0000 0.0000
# 4 0.0000 0.0000 0.0000 27.3696 0.0000 0.0000
# 5 0.0000 0.0000 0.0000 0.0000 47.5336 0.0000
# 6 0.0000 0.0000 0.0000 0.0000 0.0000 26.9141
#
#
#
# Elastic Compliance Matrix: (Units=1/GPa)
#
#
# Indices 1 2 3 4 5 6 
#
# 1 0.018633 0.002353 -0.013383 0.000000 0.000000 0.000000
# 2 0.002353 0.020856 -0.008093 0.000000 0.000000 0.000000
# 3 -0.013383 -0.008093 0.037667 0.000000 0.000000 0.000000
# 4 0.000000 0.000000 0.000000 0.036537 0.000000 0.000000
# 5 0.000000 0.000000 0.000000 0.000000 0.021038 0.000000
# 6 0.000000 0.000000 0.000000 0.000000 0.000000 0.037155
#
#
# Mechanical properties :
#
#
# Convention : Reuss Voigt Hill
#
# Bulk Modulus (GPa) = 25.70071 26.97942 26.34007
# Shear Modulus (GPa) = 22.41139 28.55632 25.48386
#
# Velocity S-wave (km/s) = 3.54893 4.00603 3.78439
# Velocity P-wave (km/s) = 5.58898 6.04647 5.82222
#
# Compressibility (1/GPa) = 0.03890942
#
# Stress axis : x y z
#
# Youngs Moduli (GPa) = 53.66922 47.94749 26.54874
#
# Poissons Ratio (x) = -0.11282 0.35529
# Poissons Ratio (y) = -0.12629 0.21487
# Poissons Ratio (z) = 0.71823 0.38806
#
# Static dielectric constant tensor:
#      x y z
#    x 1.612670 0.000000 0.000000 
#    y 0.000000 1.626470 0.000000 
#    z 0.000000 0.000000 1.632090 
# 
# From -- ./inp_files/10820.got.cif
#   From: 2010.05.17/outbox.ucp.g08.bks.cvg/sg63_6_cif.got.tgz:10820.got - 2010.06.11 16:32:19.
