data_PCOD9476935
_publ_section_title
;
Structure prediction by ZEFSAII (Michael W. Deem and Ramdas Pophale) SiO2 
 PCOD9476935
Probable space group: C M C A
;
_chemical_formula_sum "Si O2"
_cell_formula_units_Z 112
_cell_length_a 17.891476
_cell_length_b 18.507685
_cell_length_c 16.809571
_cell_angle_alpha 90.000000
_cell_angle_beta 90.000000
_cell_angle_gamma 90.000000
_cell_volume 5566.149917
_symmetry_space_group_name_H-M "C M C A"
_symmetry_group_IT_number 64
_symmetry_cell_setting 'orthorhombic'
loop_
_space_group_symop_operation_xyz
x,y,z
-x,1/2-y,1/2+z
x,-y,-z
-x,1/2+y,1/2-z
-x,-y,-z
x,1/2+y,1/2-z
-x,y,z
x,1/2-y,1/2+z
1/2+x,1/2+y,z
1/2-x,-y,1/2+z
1/2+x,1/2-y,-z
1/2-x,y,1/2-z
1/2-x,1/2-y,-z
1/2+x,y,1/2-z
1/2-x,1/2+y,z
1/2+x,-y,1/2+z
loop_
_atom_site_type_symbol
_atom_site_label
_atom_site_fract_x
_atom_site_fract_y
_atom_site_fract_z
Si Si1 0.814945 0.500948 0.816039
Si Si2 0.079841 0.396913 0.426233
Si Si3 0.805862 0.720514 0.860310
Si Si4 0.585299 0.264136 0.511137
Si Si5 0.300932 0.349782 0.615345
Si Si6 0.239954 0.910049 0.051579
Si Si7 0.084763 0.127334 0.738886
O O1 0.750000 0.514196 0.750000
O O2 0.823716 0.415258 0.827124
O O3 0.790552 0.532890 0.901798
O O4 0.885506 0.549484 0.791384
O O5 0.082994 0.320879 0.471784
O O6 0.155559 0.437043 0.446503
O O7 0.082072 0.377874 0.333285
O O8 0.000000 0.432522 0.442548
O O9 0.760645 0.794493 0.849601
O O10 0.747140 0.661088 0.892414
O O11 0.854014 0.686254 0.789129
O O12 0.865334 0.726189 0.932333
O O13 0.500000 0.290266 0.502590
O O14 0.628322 0.304987 0.582310
O O15 0.265115 0.385009 0.535273
O O16 0.000000 0.142791 0.710107
#
# Coordination Sequence:
#
# PCOD9476935 Si02
#       7
#    16  16  16  16  16  16  16
#     4  11  23  36  57  82 114 155 192 230 288 342
#     4  10  18  32  59  82 103 143 193 236 276 329
#     4  10  19  34  58  83 114 144 185 238 289 337
#     4  10  19  34  57  85 114 146 184 233 291 342
#     4  11  21  35  55  89 118 150 183 240 297 344
#     4  10  18  38  57  79 108 146 198 234 266 338
#     4  10  22  38  59  84 112 153 200 240 280 342
#
# _framework density 20.121628000000001
#
# number of rings (size 3 to 8) (size 9 to 14) (size 15 to 20)
#    0.000    1.714    4.286    1.714    0.000    1.714 
#    0.000    0.000    0.000   11.143    0.000    0.000 
#    0.000    0.000    0.000    0.000    0.000    0.000 
#
# Total GULP energy -312558.213075 kJ/mol
# GULP energy per Si atom -5581.396662 kJ/mol
# Density = 2.007583 g / cm^3
# Si number density = 20.121628 Si / 1000 Ang^3
#
#
#
# Elastic Constant Matrix: (Units=GPa)
#
#
# Indices 1 2 3 4 5 6 
#
# 1 110.2912 3.7045 22.0887 0.0000 0.0000 0.0000
# 2 3.7045 74.0075 25.1484 0.0000 0.0000 0.0000
# 3 22.0887 25.1484 50.5048 0.0000 0.0000 0.0000
# 4 0.0000 0.0000 0.0000 22.2763 0.0000 0.0000
# 5 0.0000 0.0000 0.0000 0.0000 12.6854 0.0000
# 6 0.0000 0.0000 0.0000 0.0000 0.0000 9.6330
#
#
#
# Elastic Compliance Matrix: (Units=1/GPa)
#
#
# Indices 1 2 3 4 5 6 
#
# 1 0.010024 0.001189 -0.004976 0.000000 0.000000 0.000000
# 2 0.001189 0.016405 -0.008689 0.000000 0.000000 0.000000
# 3 -0.004976 -0.008689 0.026303 0.000000 0.000000 0.000000
# 4 0.000000 0.000000 0.000000 0.044891 0.000000 0.000000
# 5 0.000000 0.000000 0.000000 0.000000 0.078831 0.000000
# 6 0.000000 0.000000 0.000000 0.000000 0.000000 0.103810
#
#
# Mechanical properties :
#
#
# Convention : Reuss Voigt Hill
#
# Bulk Modulus (GPa) = 35.99687 37.40961 36.70324
# Shear Modulus (GPa) = 15.89953 21.17639 18.53796
#
# Velocity S-wave (km/s) = 2.81405 3.24762 3.03858
# Velocity P-wave (km/s) = 5.33732 5.71794 5.53090
#
# Compressibility (1/GPa) = 0.02778019
#
# Stress axis : x y z
#
# Youngs Moduli (GPa) = 99.76513 60.95633 38.01858
#
# Poissons Ratio (x) = -0.07249 0.18918
# Poissons Ratio (y) = -0.11864 0.33034
# Poissons Ratio (z) = 0.49643 0.52964
#
# Static dielectric constant tensor:
#      x y z
#    x 1.745400 0.000000 0.000000 
#    y 0.000000 1.747150 0.000000 
#    z 0.000000 0.000000 1.722370 
# 
# From -- ./inp_files/34481.got.cif
#   From: 2010.05.17/outbox.cif.g08.bks.cpg/sg64_18_cif.got.tgz:34481.got - 2010.06.03 16:29:19.
