data_PCOD9476248
_publ_section_title
;
Structure prediction by ZEFSAII (Michael W. Deem and Ramdas Pophale) SiO2 
 PCOD9476248
Probable space group: C M C M
;
_chemical_formula_sum "Si O2"
_cell_formula_units_Z 48
_cell_length_a 15.000000
_cell_length_b 21.000000
_cell_length_c 15.000000
_cell_angle_alpha 90.000000
_cell_angle_beta 90.000000
_cell_angle_gamma 90.000000
_cell_volume 4725.000000
_symmetry_space_group_name_H-M "C M C M"
_symmetry_group_IT_number 63
_symmetry_cell_setting 'orthorhombic'
loop_
_space_group_symop_operation_xyz
x,y,z
-x,-y,1/2+z
x,-y,-z
-x,y,1/2-z
-x,-y,-z
x,y,1/2-z
-x,y,z
x,-y,1/2+z
1/2+x,1/2+y,z
1/2-x,1/2-y,1/2+z
1/2+x,1/2-y,-z
1/2-x,1/2+y,1/2-z
1/2-x,1/2-y,-z
1/2+x,1/2+y,1/2-z
1/2-x,1/2+y,z
1/2+x,1/2-y,1/2+z
loop_
_atom_site_type_symbol
_atom_site_label
_atom_site_fract_x
_atom_site_fract_y
_atom_site_fract_z
Si Si1 0.867523 0.428889 0.482692
Si Si2 0.500000 0.709902 0.150307
Si Si3 0.892146 0.232586 0.750000
Si Si4 0.341562 0.442802 0.060761
Si Si5 0.500000 0.863069 0.352432
Si Si6 0.346081 0.192168 0.075512
Si Si7 0.106736 0.916899 0.250000
Si Si8 0.359542 0.685871 0.477924
O O1 0.900747 0.500000 0.500000
O O2 0.763136 0.435927 0.460929
O O3 0.881967 0.379013 0.563789
O O4 0.915603 0.393596 0.401750
O O5 0.500000 0.694141 0.250000
O O6 0.500000 0.786728 0.142772
O O7 0.586520 0.677832 0.110326
O O8 0.854805 0.272726 0.831918
O O9 0.864081 0.158174 0.750000
O O10 0.000000 0.234172 0.750000
O O11 0.357548 0.452784 0.163787
O O12 0.376998 0.500000 0.000000
O O13 0.381743 0.373166 0.040681
O O14 0.500000 0.881405 0.250000
O O15 0.244453 0.188060 0.042746
O O16 0.390485 0.245770 0.013677
O O17 0.000000 0.916551 0.250000
#
# Coordination Sequence:
#
# PCOD9476248 Si02
#       8
#    16   8   8  16   8  16   8  16
#     4  10  22  43  63  87 126 166 204 249 310 363
#     4  11  24  37  60  90 124 160 204 256 309 366
#     4  11  24  36  63  95 123 156 209 265 309 360
#     4  10  23  44  66  91 123 167 205 254 315 372
#     4  11  23  37  61  92 119 160 208 249 295 362
#     4  10  21  39  62  88 118 161 203 254 309 359
#     4  11  24  40  65  95 123 158 207 259 317 374
#     4  10  21  40  62  85 121 159 202 255 308 361
#
# _framework density 10.15873
#
# number of rings (size 3 to 8) (size 9 to 14) (size 15 to 20)
#    0.000    1.667    3.333    0.250    5.833    0.333 
#    3.000    2.500    0.000    0.000    0.000    0.000 
#    0.000    0.000    0.000    0.000    0.000    0.000 
#
# Total GULP energy -267268.558132 kJ/mol
# GULP energy per Si atom -5568.094961 kJ/mol
# Density = 1.013561 g / cm^3
# Si number density = 10.158730 Si / 1000 Ang^3
#
#
#
# Elastic Constant Matrix: (Units=GPa)
#
#
# Indices 1 2 3 4 5 6 
#
# 1 3.9900 13.1065 -2.3196 0.0000 0.0000 0.0000
# 2 13.1065 45.8905 26.9984 0.0000 0.0000 0.0000
# 3 -2.3196 26.9984 123.5766 0.0000 0.0000 0.0000
# 4 0.0000 0.0000 0.0000 19.2225 0.0000 0.0000
# 5 0.0000 0.0000 0.0000 0.0000 15.9927 0.0000
# 6 0.0000 0.0000 0.0000 0.0000 0.0000 8.1520
#
#
#
# Elastic Compliance Matrix: (Units=1/GPa)
#
#
# Indices 1 2 3 4 5 6 
#
# 1 -1.454493 0.495108 -0.135471 0.000000 0.000000 0.000000
# 2 0.495108 -0.143529 0.040651 0.000000 0.000000 0.000000
# 3 -0.135471 0.040651 -0.003332 0.000000 0.000000 0.000000
# 4 0.000000 0.000000 0.000000 0.052022 0.000000 0.000000
# 5 0.000000 0.000000 0.000000 0.000000 0.062529 0.000000
# 6 0.000000 0.000000 0.000000 0.000000 0.000000 0.122669
#
#
# Mechanical properties :
#
#
# Convention : Reuss Voigt Hill
#
# Bulk Modulus (GPa) = -1.24879 27.66973 13.21047
# Shear Modulus (GPa) = -2.05623 17.71822 7.83100
#
# Velocity S-wave (km/s) = -1.00710 2.95628 1.96537
# Velocity P-wave (km/s) = 1.40296 5.03002 3.41561
#
# Compressibility (1/GPa) = -0.80077770
#
# Stress axis : x y z
#
# Youngs Moduli (GPa) = -0.68752 -6.96722 -300.11506
#
# Poissons Ratio (x) = 3.44953 -40.65689
# Poissons Ratio (y) = 0.34040 12.20005
# Poissons Ratio (z) = -0.09314 0.28323
#
# Static dielectric constant tensor:
#      x y z
#    x 1.736020 0.000000 0.000000 
#    y 0.000000 1.763590 0.000000 
#    z 0.000000 0.000000 1.837970 
# 
# From -- ./inp_files/32018.got.cif
#   From: 2010.05.17/outbox.ucp.g08.bks.cvg/sg63_17_cif.got.tgz:32018.got - 2010.06.11 16:32:19.
