data_PCOD9476406
_publ_section_title
;
Structure prediction by ZEFSAII (Michael W. Deem and Ramdas Pophale) SiO2 
 PCOD9476406
Probable space group: C M C A
;
_chemical_formula_sum "Si O2"
_cell_formula_units_Z 64
_cell_length_a 9.621125
_cell_length_b 17.199967
_cell_length_c 20.738577
_cell_angle_alpha 90.000000
_cell_angle_beta 90.000000
_cell_angle_gamma 90.000000
_cell_volume 3431.882612
_symmetry_space_group_name_H-M "C M C A"
_symmetry_group_IT_number 64
_symmetry_cell_setting 'orthorhombic'
loop_
_space_group_symop_operation_xyz
x,y,z
-x,1/2-y,1/2+z
x,-y,-z
-x,1/2+y,1/2-z
-x,-y,-z
x,1/2+y,1/2-z
-x,y,z
x,1/2-y,1/2+z
1/2+x,1/2+y,z
1/2-x,-y,1/2+z
1/2+x,1/2-y,-z
1/2-x,y,1/2-z
1/2-x,1/2-y,-z
1/2+x,y,1/2-z
1/2-x,1/2+y,z
1/2+x,-y,1/2+z
loop_
_atom_site_type_symbol
_atom_site_label
_atom_site_fract_x
_atom_site_fract_y
_atom_site_fract_z
Si Si1 0.500000 0.804998 0.955404
Si Si2 0.500000 0.444663 0.207855
Si Si3 0.000000 0.427312 0.144976
Si Si4 0.000000 0.123523 0.933493
Si Si5 0.750000 0.053683 0.250000
Si Si6 0.802209 0.416563 0.030881
Si Si7 0.000000 0.391713 0.827595
O O1 0.500000 0.712881 0.956278
O O2 0.500000 0.828096 0.881263
O O3 0.368320 0.847859 0.988190
O O4 0.500000 0.405127 0.279571
O O5 0.500000 0.392199 0.144106
O O6 0.358971 0.498323 0.210485
O O7 0.868408 0.404411 0.101884
O O8 0.000000 0.520903 0.144125
O O9 0.861436 0.086634 0.962200
O O10 0.856571 0.107483 0.288661
O O11 0.842197 0.500000 0.000000
#
# Coordination Sequence:
#
# PCOD9476406 Si02
#       7
#     8   8   8   8   8  16   8
#     4  11  23  39  59  79 124 163 187 232 309 354
#     4  10  19  33  57  87 115 146 188 247 296 332
#     4   9  17  36  64  83 106 150 208 228 285 355
#     4  12  24  36  54  94 124 144 192 256 298 331
#     4   8  18  32  58  84 108 148 196 244 280 340
#     4  11  21  39  62  87 110 161 204 240 277 355
#     4  10  16  35  54  81 109 148 193 236 286 344
#
# _framework density 18.648655999999999
#
# number of rings (size 3 to 8) (size 9 to 14) (size 15 to 20)
#    0.000    2.000    2.500    4.875    0.000    0.000 
#    0.000    3.750    0.000    0.000    0.000    0.000 
#    0.000    0.000    0.000    0.000    0.000    0.000 
#
# Total GULP energy -178245.290388 kJ/mol
# GULP energy per Si atom -5570.165325 kJ/mol
# Density = 1.860621 g / cm^3
# Si number density = 18.648656 Si / 1000 Ang^3
#
#
#
# Elastic Constant Matrix: (Units=GPa)
#
#
# Indices 1 2 3 4 5 6 
#
# 1 168.7885 13.7417 50.0156 0.0000 0.0000 0.0000
# 2 13.7417 54.7051 32.1865 0.0000 0.0000 0.0000
# 3 50.0156 32.1865 98.9324 0.0000 0.0000 0.0000
# 4 0.0000 0.0000 0.0000 22.7529 0.0000 0.0000
# 5 0.0000 0.0000 0.0000 0.0000 -14.6748 0.0000
# 6 0.0000 0.0000 0.0000 0.0000 0.0000 12.2307
#
#
#
# Elastic Compliance Matrix: (Units=1/GPa)
#
#
# Indices 1 2 3 4 5 6 
#
# 1 0.006976 0.000399 -0.003656 0.000000 0.000000 0.000000
# 2 0.000399 0.022630 -0.007564 0.000000 0.000000 0.000000
# 3 -0.003656 -0.007564 0.014417 0.000000 0.000000 0.000000
# 4 0.000000 0.000000 0.000000 0.043950 0.000000 0.000000
# 5 0.000000 0.000000 0.000000 0.000000 -0.068144 0.000000
# 6 0.000000 0.000000 0.000000 0.000000 0.000000 0.081761
#
#
# Mechanical properties :
#
#
# Convention : Reuss Voigt Hill
#
# Bulk Modulus (GPa) = 44.68281 57.14597 50.91439
# Shear Modulus (GPa) = 38.25736 19.16056 28.70896
#
# Velocity S-wave (km/s) = 4.53424 3.20886 3.92786
# Velocity P-wave (km/s) = 7.17111 6.66626 6.92329
#
# Compressibility (1/GPa) = 0.02237997
#
# Stress axis : x y z
#
# Youngs Moduli (GPa) = 143.35820 44.18898 69.36115
#
# Poissons Ratio (x) = -0.01763 0.25361
# Poissons Ratio (y) = -0.05720 0.52466
# Poissons Ratio (z) = 0.52416 0.33425
#
# Static dielectric constant tensor:
#      x y z
#    x 1.704690 0.000000 0.000000 
#    y 0.000000 1.603050 0.000000 
#    z 0.000000 0.000000 1.701830 
# 
# From -- ./inp_files/36364.got.cif
#   From: 2010.05.17/outbox.cif.g08.bks.cpg/sg64_19_cif.got.tgz:36364.got - 2010.06.03 16:29:19.
