data_PCOD9476400
_publ_section_title
;
Structure prediction by ZEFSAII (Michael W. Deem and Ramdas Pophale) SiO2 
 PCOD9476400
Probable space group: C M C A
;
_chemical_formula_sum "Si O2"
_cell_formula_units_Z 96
_cell_length_a 23.804203
_cell_length_b 17.565095
_cell_length_c 9.143465
_cell_angle_alpha 90.000000
_cell_angle_beta 90.000000
_cell_angle_gamma 90.000000
_cell_volume 3823.093813
_symmetry_space_group_name_H-M "C M C A"
_symmetry_group_IT_number 64
_symmetry_cell_setting 'orthorhombic'
loop_
_space_group_symop_operation_xyz
x,y,z
-x,1/2-y,1/2+z
x,-y,-z
-x,1/2+y,1/2-z
-x,-y,-z
x,1/2+y,1/2-z
-x,y,z
x,1/2-y,1/2+z
1/2+x,1/2+y,z
1/2-x,-y,1/2+z
1/2+x,1/2-y,-z
1/2-x,y,1/2-z
1/2-x,1/2-y,-z
1/2+x,y,1/2-z
1/2-x,1/2+y,z
1/2+x,-y,1/2+z
loop_
_atom_site_type_symbol
_atom_site_label
_atom_site_fract_x
_atom_site_fract_y
_atom_site_fract_z
Si Si1 0.312013 0.000398 0.721852
Si Si2 0.750000 0.144880 0.750000
Si Si3 0.382666 0.881354 0.549779
Si Si4 0.161114 0.716246 0.944349
Si Si5 0.416773 0.349002 0.639189
Si Si6 0.937854 0.681971 0.711849
Si Si7 0.394168 0.500000 0.500000
O O1 0.250000 0.965128 0.750000
O O2 0.345699 0.949579 0.609888
O O3 0.351679 0.011040 0.863422
O O4 0.294094 0.085883 0.677842
O O5 0.781900 0.193728 0.631714
O O6 0.345564 0.805225 0.532877
O O7 0.423027 0.866712 0.690381
O O8 0.418986 0.883055 0.402278
O O9 0.109947 0.692769 0.833970
O O10 0.148196 0.668881 0.091604
O O11 0.440481 0.263279 0.623864
O O12 0.429434 0.424637 0.545148
O O13 0.000000 0.667607 0.771254
#
# Coordination Sequence:
#
# PCOD9476400 Si02
#       7
#    16   8  16  16  16  16   8
#     4   9  19  32  52  83 113 157 183 237 291 354
#     4  10  20  34  56  88 122 156 194 242 300 360
#     4   9  20  36  56  86 118 151 200 245 293 348
#     4  10  20  37  57  89 120 156 197 247 293 361
#     4   9  18  35  59  84 112 153 194 251 291 347
#     4  10  22  40  61  85 116 156 202 250 298 349
#     4  10  16  34  53  78 118 148 197 242 296 346
#
# _framework density 25.110552999999999
#
# number of rings (size 3 to 8) (size 9 to 14) (size 15 to 20)
#    0.500    2.000    1.667    0.000    1.167    7.333 
#    0.000    2.917    0.000    3.000    0.000    0.000 
#    0.000    0.000    0.000    0.000    0.000    0.000 
#
# Total GULP energy -268086.854855 kJ/mol
# GULP energy per Si atom -5585.142809 kJ/mol
# Density = 2.505340 g / cm^3
# Si number density = 25.110553 Si / 1000 Ang^3
#
#
#
# Elastic Constant Matrix: (Units=GPa)
#
#
# Indices 1 2 3 4 5 6 
#
# 1 104.9076 20.8996 30.0647 0.0000 0.0000 0.0000
# 2 20.8996 102.1521 25.4175 0.0000 0.0000 0.0000
# 3 30.0647 25.4175 108.4134 0.0000 0.0000 0.0000
# 4 0.0000 0.0000 0.0000 41.4160 0.0000 0.0000
# 5 0.0000 0.0000 0.0000 0.0000 14.3358 0.0000
# 6 0.0000 0.0000 0.0000 0.0000 0.0000 -9.3547
#
#
#
# Elastic Compliance Matrix: (Units=1/GPa)
#
#
# Indices 1 2 3 4 5 6 
#
# 1 0.010574 -0.001522 -0.002575 0.000000 0.000000 0.000000
# 2 -0.001522 0.010615 -0.002066 0.000000 0.000000 0.000000
# 3 -0.002575 -0.002066 0.010423 0.000000 0.000000 0.000000
# 4 0.000000 0.000000 0.000000 0.024145 0.000000 0.000000
# 5 0.000000 0.000000 0.000000 0.000000 0.069755 0.000000
# 6 0.000000 0.000000 0.000000 0.000000 0.000000 -0.106899
#
#
# Mechanical properties :
#
#
# Convention : Reuss Voigt Hill
#
# Bulk Modulus (GPa) = 51.86002 52.02630 51.94316
# Shear Modulus (GPa) = 133.80049 25.21886 79.50967
#
# Velocity S-wave (km/s) = 7.30755 3.17253 5.63317
# Velocity P-wave (km/s) = 9.58634 5.84669 7.93982
#
# Compressibility (1/GPa) = 0.01928268
#
# Stress axis : x y z
#
# Youngs Moduli (GPa) = 94.57577 94.20632 95.94540
#
# Poissons Ratio (x) = 0.14343 0.24708
# Poissons Ratio (y) = 0.14399 0.19827
# Poissons Ratio (z) = 0.24356 0.19468
#
# Static dielectric constant tensor:
#      x y z
#    x 2.017480 0.000000 0.000000 
#    y 0.000000 2.030020 0.000000 
#    z 0.000000 0.000000 2.046060 
# 
# From -- ./inp_files/18500.got.cif
#   From: 2010.05.17/outbox.cif.g08.bks.cpg/sg64_10_cif.got.tgz:18500.got - 2010.06.03 16:29:19.
