data_PCOD9476782
_publ_section_title
;
Structure prediction by ZEFSAII (Michael W. Deem and Ramdas Pophale) SiO2 
 PCOD9476782
Probable space group: C M C A
;
_chemical_formula_sum "Si O2"
_cell_formula_units_Z 68
_cell_length_a 22.714581
_cell_length_b 17.935116
_cell_length_c 7.628361
_cell_angle_alpha 90.000000
_cell_angle_beta 90.000000
_cell_angle_gamma 90.000000
_cell_volume 3107.707652
_symmetry_space_group_name_H-M "C M C A"
_symmetry_group_IT_number 64
_symmetry_cell_setting 'orthorhombic'
loop_
_space_group_symop_operation_xyz
x,y,z
-x,1/2-y,1/2+z
x,-y,-z
-x,1/2+y,1/2-z
-x,-y,-z
x,1/2+y,1/2-z
-x,y,z
x,1/2-y,1/2+z
1/2+x,1/2+y,z
1/2-x,-y,1/2+z
1/2+x,1/2-y,-z
1/2-x,y,1/2-z
1/2-x,1/2-y,-z
1/2+x,y,1/2-z
1/2-x,1/2+y,z
1/2+x,-y,1/2+z
loop_
_atom_site_type_symbol
_atom_site_label
_atom_site_fract_x
_atom_site_fract_y
_atom_site_fract_z
Si Si1 0.500000 0.127115 0.956427
Si Si2 0.318820 0.426218 0.715050
Si Si3 0.500000 0.222128 0.315502
Si Si4 0.500000 0.500000 0.000000
Si Si5 0.403301 0.135265 0.503362
Si Si6 0.627057 0.588045 0.637283
O O1 0.500000 0.170679 0.142153
O O2 0.500000 0.189045 0.802351
O O3 0.440182 0.081582 0.933094
O O4 0.250000 0.432850 0.750000
O O5 0.333728 0.388858 0.527941
O O6 0.347743 0.508731 0.701143
O O7 0.351817 0.383417 0.868348
O O8 0.441976 0.202223 0.427048
O O9 0.551421 0.434684 0.006278
O O10 0.376373 0.142091 0.696665
#
# Coordination Sequence:
#
# PCOD9476782 Si02
#       6
#     8  16   8   4  16  16
#     4  12  23  44  62 101 125 166 221 260 338 371
#     4  11  25  39  60  94 131 170 216 253 312 387
#     4  11  24  41  67  92 134 163 209 279 316 393
#     4  10  18  30  56  86 128 148 194 256 322 388
#     4  11  21  39  58  93 127 166 205 261 332 370
#     4  11  24  37  65  92 128 170 205 265 316 388
#
# _framework density 21.881080000000001
#
# number of rings (size 3 to 8) (size 9 to 14) (size 15 to 20)
#    0.000    0.941    4.706    2.824    6.588    1.882 
#    0.000    0.000    0.000    2.824    0.000    0.000 
#    0.000    0.000    0.000    0.000    0.000    0.000 
#
# Total GULP energy -189692.113670 kJ/mol
# GULP energy per Si atom -5579.179814 kJ/mol
# Density = 2.183128 g / cm^3
# Si number density = 21.881080 Si / 1000 Ang^3
#
#
#
# Elastic Constant Matrix: (Units=GPa)
#
#
# Indices 1 2 3 4 5 6 
#
# 1 196.8291 42.1914 70.6762 0.0000 0.0000 0.0000
# 2 42.1914 51.6251 9.9404 0.0000 0.0000 0.0000
# 3 70.6762 9.9404 166.7493 0.0000 0.0000 0.0000
# 4 0.0000 0.0000 0.0000 22.0928 0.0000 0.0000
# 5 0.0000 0.0000 0.0000 0.0000 78.9483 0.0000
# 6 0.0000 0.0000 0.0000 0.0000 0.0000 10.0737
#
#
#
# Elastic Compliance Matrix: (Units=1/GPa)
#
#
# Indices 1 2 3 4 5 6 
#
# 1 0.007214 -0.005369 -0.002738 0.000000 0.000000 0.000000
# 2 -0.005369 0.023591 0.000869 0.000000 0.000000 0.000000
# 3 -0.002738 0.000869 0.007106 0.000000 0.000000 0.000000
# 4 0.000000 0.000000 0.000000 0.045264 0.000000 0.000000
# 5 0.000000 0.000000 0.000000 0.000000 0.012667 0.000000
# 6 0.000000 0.000000 0.000000 0.000000 0.000000 0.099268
#
#
# Mechanical properties :
#
#
# Convention : Reuss Voigt Hill
#
# Bulk Modulus (GPa) = 42.66919 73.42436 58.04678
# Shear Modulus (GPa) = 22.99945 41.71599 32.35772
#
# Velocity S-wave (km/s) = 3.24560 4.37107 3.84969
# Velocity P-wave (km/s) = 5.79552 7.68791 6.80779
#
# Compressibility (1/GPa) = 0.02343611
#
# Stress axis : x y z
#
# Youngs Moduli (GPa) = 138.61005 42.38916 140.73407
#
# Poissons Ratio (x) = 0.22759 0.38530
# Poissons Ratio (y) = 0.74420 -0.12234
# Poissons Ratio (z) = 0.37948 -0.03685
#
# Static dielectric constant tensor:
#      x y z
#    x 1.737130 0.000000 0.000000 
#    y 0.000000 1.781700 0.000000 
#    z 0.000000 0.000000 1.910320 
# 
# From -- ./inp_files/7896.got.cif
#   From: 2010.05.17/outbox.cif.g08.bks.cpg/sg64_4_cif.got.tgz:7896.got - 2010.06.03 16:29:19.
