data_PCOD9476446
_publ_section_title
;
Structure prediction by ZEFSAII (Michael W. Deem and Ramdas Pophale) SiO2 
 PCOD9476446
Probable space group: C M C A
;
_chemical_formula_sum "Si O2"
_cell_formula_units_Z 112
_cell_length_a 23.792694
_cell_length_b 14.035621
_cell_length_c 14.787251
_cell_angle_alpha 90.000000
_cell_angle_beta 90.000000
_cell_angle_gamma 90.000000
_cell_volume 4938.132018
_symmetry_space_group_name_H-M "C M C A"
_symmetry_group_IT_number 64
_symmetry_cell_setting 'orthorhombic'
loop_
_space_group_symop_operation_xyz
x,y,z
-x,1/2-y,1/2+z
x,-y,-z
-x,1/2+y,1/2-z
-x,-y,-z
x,1/2+y,1/2-z
-x,y,z
x,1/2-y,1/2+z
1/2+x,1/2+y,z
1/2-x,-y,1/2+z
1/2+x,1/2-y,-z
1/2-x,y,1/2-z
1/2-x,1/2-y,-z
1/2+x,y,1/2-z
1/2-x,1/2+y,z
1/2+x,-y,1/2+z
loop_
_atom_site_type_symbol
_atom_site_label
_atom_site_fract_x
_atom_site_fract_y
_atom_site_fract_z
Si Si1 0.341872 0.337750 0.729504
Si Si2 0.562525 0.481054 0.735553
Si Si3 0.181942 0.175535 0.468859
Si Si4 0.560432 0.718018 0.468475
Si Si5 0.437800 0.793724 0.260171
Si Si6 0.580850 0.915909 0.562914
Si Si7 0.205508 0.863449 0.917333
O O1 0.382237 0.426407 0.698712
O O2 0.318502 0.291304 0.637561
O O3 0.384977 0.263773 0.776655
O O4 0.298727 0.364390 0.808294
O O5 0.500000 0.461284 0.695230
O O6 0.569606 0.594409 0.743650
O O7 0.561941 0.441136 0.837151
O O8 0.116023 0.155371 0.486670
O O9 0.196879 0.257864 0.540195
O O10 0.235069 0.104844 0.460472
O O11 0.500000 0.670327 0.482211
O O12 0.562335 0.761859 0.366201
O O13 0.563284 0.812182 0.529760
O O14 0.500000 0.767823 0.225483
O O15 0.648646 0.917126 0.557426
O O16 0.559736 0.000000 0.500000
#
# Coordination Sequence:
#
# PCOD9476446 Si02
#       7
#    16  16  16  16  16  16  16
#     4  10  19  32  54  75 103 141 181 217 264 317
#     4  10  19  29  47  76 109 141 172 215 272 323
#     4   9  18  34  53  72 105 135 175 217 257 313
#     4   9  16  26  46  75 103 133 165 209 269 322
#     4   9  17  29  46  71 104 138 174 215 258 310
#     4  10  17  27  47  76 112 133 165 215 280 332
#     4   9  19  33  53  76 101 140 177 216 269 311
#
# _framework density 22.680641000000001
#
# number of rings (size 3 to 8) (size 9 to 14) (size 15 to 20)
#    0.000    2.571    1.429    1.286    0.000    1.143 
#    0.000    0.714    9.429    3.429    0.000    2.000 
#    0.000    0.000    0.000    0.000    0.000    0.000 
#
# Total GULP energy -311860.733582 kJ/mol
# GULP energy per Si atom -5568.941671 kJ/mol
# Density = 2.262902 g / cm^3
# Si number density = 22.680641 Si / 1000 Ang^3
#
#
#
# Elastic Constant Matrix: (Units=GPa)
#
#
# Indices 1 2 3 4 5 6 
#
# 1 186.6391 27.4085 -9.6301 0.0000 0.0000 0.0000
# 2 27.4085 60.0621 -0.0170 0.0000 0.0000 0.0000
# 3 -9.6301 -0.0170 35.1519 0.0000 0.0000 0.0000
# 4 0.0000 0.0000 0.0000 14.8061 0.0000 0.0000
# 5 0.0000 0.0000 0.0000 0.0000 19.1595 0.0000
# 6 0.0000 0.0000 0.0000 0.0000 0.0000 -1.6491
#
#
#
# Elastic Compliance Matrix: (Units=1/GPa)
#
#
# Indices 1 2 3 4 5 6 
#
# 1 0.005831 -0.002660 0.001596 0.000000 0.000000 0.000000
# 2 -0.002660 0.017863 -0.000720 0.000000 0.000000 0.000000
# 3 0.001596 -0.000720 0.028885 0.000000 0.000000 0.000000
# 4 0.000000 0.000000 0.000000 0.067540 0.000000 0.000000
# 5 0.000000 0.000000 0.000000 0.000000 0.052193 0.000000
# 6 0.000000 0.000000 0.000000 0.000000 0.000000 -0.606386
#
#
# Mechanical properties :
#
#
# Convention : Reuss Voigt Hill
#
# Bulk Modulus (GPa) = 20.40393 35.26400 27.83396
# Shear Modulus (GPa) = -12.07241 24.06940 5.99850
#
# Velocity S-wave (km/s) = -2.30962 3.26119 1.62804
# Velocity P-wave (km/s) = 1.37959 5.45548 3.97904
#
# Compressibility (1/GPa) = 0.04901016
#
# Stress axis : x y z
#
# Youngs Moduli (GPa) = 171.49766 55.98074 34.62015
#
# Poissons Ratio (x) = 0.14893 -0.05526
# Poissons Ratio (y) = 0.45626 0.02493
# Poissons Ratio (z) = -0.27374 0.04032
#
# Static dielectric constant tensor:
#      x y z
#    x 1.975680 0.000000 0.000000 
#    y 0.000000 1.804670 0.000000 
#    z 0.000000 0.000000 1.834750 
# 
# From -- ./inp_files/35131.got.cif
#   From: 2010.05.17/outbox.cif.g08.bks.cpg/sg64_18_cif.got.tgz:35131.got - 2010.06.03 16:29:19.
