data_PCOD9476806
_publ_section_title
;
Structure prediction by ZEFSAII (Michael W. Deem and Ramdas Pophale) SiO2 
 PCOD9476806
Probable space group: C M C A
;
_chemical_formula_sum "Si O2"
_cell_formula_units_Z 80
_cell_length_a 7.823492
_cell_length_b 29.605782
_cell_length_c 20.245615
_cell_angle_alpha 90.000000
_cell_angle_beta 90.000000
_cell_angle_gamma 90.000000
_cell_volume 4689.301466
_symmetry_space_group_name_H-M "C M C A"
_symmetry_group_IT_number 64
_symmetry_cell_setting 'orthorhombic'
loop_
_space_group_symop_operation_xyz
x,y,z
-x,1/2-y,1/2+z
x,-y,-z
-x,1/2+y,1/2-z
-x,-y,-z
x,1/2+y,1/2-z
-x,y,z
x,1/2-y,1/2+z
1/2+x,1/2+y,z
1/2-x,-y,1/2+z
1/2+x,1/2-y,-z
1/2-x,y,1/2-z
1/2-x,1/2-y,-z
1/2+x,y,1/2-z
1/2-x,1/2+y,z
1/2+x,-y,1/2+z
loop_
_atom_site_type_symbol
_atom_site_label
_atom_site_fract_x
_atom_site_fract_y
_atom_site_fract_z
Si Si1 0.500000 0.559104 0.068389
Si Si2 0.808057 0.607023 0.896966
Si Si3 0.794754 0.271952 0.929794
Si Si4 0.500000 0.043001 0.590583
Si Si5 0.298984 0.374132 0.553525
Si Si6 0.295101 0.302033 0.174093
O O1 0.500000 0.510379 0.102654
O O2 0.330084 0.588479 0.081519
O O3 0.500000 0.549786 0.989164
O O4 0.666544 0.569205 0.883761
O O5 0.780319 0.651030 0.852414
O O6 0.000000 0.589521 0.888591
O O7 0.788994 0.622569 0.973527
O O8 0.738499 0.323937 0.926811
O O9 0.732177 0.239008 0.872021
O O10 0.000000 0.273664 0.925846
O O11 0.750000 0.250000 0.000000
O O12 0.500000 0.380561 0.570924
O O13 0.500000 0.305111 0.166892
O O14 0.250000 0.294704 0.250000
#
# Coordination Sequence:
#
# PCOD9476806 Si02
#       6
#     8  16  16   8  16  16
#     4   9  18  30  50  73 104 138 168 218 267 310
#     4  10  18  31  51  73 104 140 172 214 268 321
#     4  10  20  31  51  76 105 144 181 222 266 324
#     4   9  18  32  48  73 104 136 172 210 264 325
#     4   9  18  31  48  76 107 137 176 218 264 318
#     4  11  22  35  50  75 113 145 179 225 269 323
#
# _framework density 17.060110000000002
#
# number of rings (size 3 to 8) (size 9 to 14) (size 15 to 20)
#    0.000    2.200    3.000    0.600    1.400    1.600 
#    0.000    4.000    0.000    0.000    0.000    1.400 
#    0.000    0.000    0.000    0.000    0.000    0.000 
#
# Total GULP energy -223098.453841 kJ/mol
# GULP energy per Si atom -5577.461346 kJ/mol
# Density = 1.702128 g / cm^3
# Si number density = 17.060110 Si / 1000 Ang^3
#
#
#
# Elastic Constant Matrix: (Units=GPa)
#
#
# Indices 1 2 3 4 5 6 
#
# 1 94.1078 71.8087 28.9918 0.0000 0.0000 0.0000
# 2 71.8087 174.6811 46.1135 0.0000 0.0000 0.0000
# 3 28.9918 46.1135 57.7787 0.0000 0.0000 0.0000
# 4 0.0000 0.0000 0.0000 13.7989 0.0000 0.0000
# 5 0.0000 0.0000 0.0000 0.0000 14.5202 0.0000
# 6 0.0000 0.0000 0.0000 0.0000 0.0000 20.4106
#
#
#
# Elastic Compliance Matrix: (Units=1/GPa)
#
#
# Indices 1 2 3 4 5 6 
#
# 1 0.016031 -0.005659 -0.003527 0.000000 0.000000 0.000000
# 2 -0.005659 0.009250 -0.004543 0.000000 0.000000 0.000000
# 3 -0.003527 -0.004543 0.022703 0.000000 0.000000 0.000000
# 4 0.000000 0.000000 0.000000 0.072470 0.000000 0.000000
# 5 0.000000 0.000000 0.000000 0.000000 0.068870 0.000000
# 6 0.000000 0.000000 0.000000 0.000000 0.000000 0.048994
#
#
# Mechanical properties :
#
#
# Convention : Reuss Voigt Hill
#
# Bulk Modulus (GPa) = 48.72021 68.93286 58.82653
# Shear Modulus (GPa) = 18.34062 21.72284 20.03173
#
# Velocity S-wave (km/s) = 3.28237 3.57222 3.43036
# Velocity P-wave (km/s) = 6.55631 7.58340 7.08848
#
# Compressibility (1/GPa) = 0.02052536
#
# Stress axis : x y z
#
# Youngs Moduli (GPa) = 62.38013 108.10415 44.04614
#
# Poissons Ratio (x) = 0.61174 0.15537
# Poissons Ratio (y) = 0.35300 0.20012
# Poissons Ratio (z) = 0.22004 0.49115
#
# Static dielectric constant tensor:
#      x y z
#    x 1.603550 0.000000 0.000000 
#    y 0.000000 1.571180 0.000000 
#    z 0.000000 0.000000 1.548750 
# 
# From -- ./inp_files/29860.got.cif
#   From: 2010.05.17/outbox.cif.g08.bks.cpg/sg64_15_cif.got.tgz:29860.got - 2010.06.03 16:29:19.
