data_PCOD9476133
_publ_section_title
;
Structure prediction by ZEFSAII (Michael W. Deem and Ramdas Pophale) SiO2 
 PCOD9476133
Probable space group: C M C M
;
_chemical_formula_sum "Si O2"
_cell_formula_units_Z 36
_cell_length_a 15.000000
_cell_length_b 9.000000
_cell_length_c 27.000000
_cell_angle_alpha 90.000000
_cell_angle_beta 90.000000
_cell_angle_gamma 90.000000
_cell_volume 3645.000000
_symmetry_space_group_name_H-M "C M C M"
_symmetry_group_IT_number 63
_symmetry_cell_setting 'orthorhombic'
loop_
_space_group_symop_operation_xyz
x,y,z
-x,-y,1/2+z
x,-y,-z
-x,y,1/2-z
-x,-y,-z
x,y,1/2-z
-x,y,z
x,-y,1/2+z
1/2+x,1/2+y,z
1/2-x,1/2-y,1/2+z
1/2+x,1/2-y,-z
1/2-x,1/2+y,1/2-z
1/2-x,1/2-y,-z
1/2+x,1/2+y,1/2-z
1/2-x,1/2+y,z
1/2+x,1/2-y,1/2+z
loop_
_atom_site_type_symbol
_atom_site_label
_atom_site_fract_x
_atom_site_fract_y
_atom_site_fract_z
Si Si1 0.306454 0.666453 0.305720
Si Si2 0.696235 0.623023 0.871129
Si Si3 0.500000 0.291920 0.559021
Si Si4 0.500000 0.299400 0.670534
Si Si5 0.316092 0.850720 0.468984
Si Si6 0.500000 0.411293 0.111611
O O1 0.286727 0.613494 0.250000
O O2 0.309964 0.540981 0.348087
O O3 0.233212 0.778381 0.326383
O O4 0.405903 0.736527 0.305156
O O5 0.766768 0.624760 0.916154
O O6 0.595813 0.668368 0.887910
O O7 0.500000 0.232461 0.615627
O O8 0.409641 0.233483 0.535894
O O9 0.500000 0.470072 0.566469
O O10 0.500000 0.478979 0.660054
O O11 0.250000 0.750000 0.500000
O O12 0.329441 0.000000 0.500000
#
# Coordination Sequence:
#
# PCOD9476133 Si02
#       6
#    16  16   8   8  16   8
#     4  11  21  37  64  90 117 158 201 247 306 363
#     4  11  21  41  58  88 123 153 200 253 296 355
#     4  10  19  42  59  87 120 160 198 246 293 363
#     4   8  17  37  61  82 117 155 195 238 295 363
#     4  12  24  39  64  92 121 164 204 251 305 366
#     4   8  18  35  62  78 115 161 186 244 306 339
#
# _framework density 9.8765429999999999
#
# number of rings (size 3 to 8) (size 9 to 14) (size 15 to 20)
#    0.667    0.889    2.222    4.000    0.000    0.889 
#    0.000    8.333    0.000    0.000    0.000    0.000 
#    0.000    0.000    0.000    0.000    0.000    0.000 
#
# Total GULP energy -200647.308450 kJ/mol
# GULP energy per Si atom -5573.536346 kJ/mol
# Density = 0.985406 g / cm^3
# Si number density = 9.876543 Si / 1000 Ang^3
#
#
#
# Elastic Constant Matrix: (Units=GPa)
#
#
# Indices 1 2 3 4 5 6 
#
# 1 180.7622 34.0215 38.1106 0.0000 0.0000 0.0000
# 2 34.0215 27.1493 5.4857 0.0000 0.0000 0.0000
# 3 38.1106 5.4857 90.6571 0.0000 0.0000 0.0000
# 4 0.0000 0.0000 0.0000 29.3387 0.0000 0.0000
# 5 0.0000 0.0000 0.0000 0.0000 179.2381 0.0000
# 6 0.0000 0.0000 0.0000 0.0000 0.0000 24.0082
#
#
#
# Elastic Compliance Matrix: (Units=1/GPa)
#
#
# Indices 1 2 3 4 5 6 
#
# 1 0.007860 -0.009295 -0.002742 0.000000 0.000000 0.000000
# 2 -0.009295 0.048282 0.000986 0.000000 0.000000 0.000000
# 3 -0.002742 0.000986 0.012123 0.000000 0.000000 0.000000
# 4 0.000000 0.000000 0.000000 0.034085 0.000000 0.000000
# 5 0.000000 0.000000 0.000000 0.000000 0.005579 0.000000
# 6 0.000000 0.000000 0.000000 0.000000 0.000000 0.041652
#
#
# Mechanical properties :
#
#
# Convention : Reuss Voigt Hill
#
# Bulk Modulus (GPa) = 21.66207 50.42270 36.04239
# Shear Modulus (GPa) = 26.72782 61.24705 43.98744
#
# Velocity S-wave (km/s) = 3.68244 5.57437 4.72409
# Velocity P-wave (km/s) = 5.39172 8.18617 6.93124
#
# Compressibility (1/GPa) = 0.04616364
#
# Stress axis : x y z
#
# Youngs Moduli (GPa) = 127.23304 20.71156 82.48492
#
# Poissons Ratio (x) = 0.19252 0.22614
# Poissons Ratio (y) = 1.18265 -0.08132
# Poissons Ratio (z) = 0.34882 -0.02042
#
# Static dielectric constant tensor:
#      x y z
#    x 1.718000 0.000000 0.000000 
#    y 0.000000 1.711910 0.000000 
#    z 0.000000 0.000000 1.745610 
# 
# From -- ./inp_files/69103.got.cif
#   From: 2010.05.17/outbox.ucp.g08.bks.cvg/sg63_35_cif.got.tgz:69103.got - 2010.06.11 16:32:19.
