data_PCOD9476622
_publ_section_title
;
Structure prediction by ZEFSAII (Michael W. Deem and Ramdas Pophale) SiO2 
 PCOD9476622
Probable space group: C M C A
;
_chemical_formula_sum "Si O2"
_cell_formula_units_Z 112
_cell_length_a 14.937704
_cell_length_b 19.241373
_cell_length_c 21.368109
_cell_angle_alpha 90.000000
_cell_angle_beta 90.000000
_cell_angle_gamma 90.000000
_cell_volume 6141.663224
_symmetry_space_group_name_H-M "C M C A"
_symmetry_group_IT_number 64
_symmetry_cell_setting 'orthorhombic'
loop_
_space_group_symop_operation_xyz
x,y,z
-x,1/2-y,1/2+z
x,-y,-z
-x,1/2+y,1/2-z
-x,-y,-z
x,1/2+y,1/2-z
-x,y,z
x,1/2-y,1/2+z
1/2+x,1/2+y,z
1/2-x,-y,1/2+z
1/2+x,1/2-y,-z
1/2-x,y,1/2-z
1/2-x,1/2-y,-z
1/2+x,y,1/2-z
1/2-x,1/2+y,z
1/2+x,-y,1/2+z
loop_
_atom_site_type_symbol
_atom_site_label
_atom_site_fract_x
_atom_site_fract_y
_atom_site_fract_z
Si Si1 0.108059 0.911807 0.247008
Si Si2 0.391583 0.645571 0.364589
Si Si3 0.390691 0.657498 0.621182
Si Si4 0.340664 0.268656 0.211002
Si Si5 0.900131 0.699911 0.330894
Si Si6 0.890768 0.068218 0.236065
Si Si7 0.609242 0.079988 0.004247
O O1 0.134956 0.887127 0.317269
O O2 0.140969 0.849690 0.202682
O O3 0.139503 0.988893 0.229907
O O4 0.000000 0.912753 0.246055
O O5 0.500000 0.651929 0.365821
O O6 0.350012 0.720291 0.348665
O O7 0.369055 0.596041 0.305583
O O8 0.362410 0.614091 0.430480
O O9 0.500000 0.659580 0.621787
O O10 0.359197 0.737417 0.628673
O O11 0.361665 0.621918 0.557184
O O12 0.250000 0.259628 0.250000
O O13 0.408220 0.236420 0.262473
O O14 0.857243 0.625447 0.314246
O O15 0.000000 0.686567 0.355927
O O16 0.000000 0.069091 0.231799
O O17 0.500000 0.080266 0.003973
O O18 0.637551 0.000000 0.000000
#
# Coordination Sequence:
#
# PCOD9476622 Si02
#       7
#    16  16  16  16  16  16  16
#     4   9  15  25  41  58  78 104 137 175 213 248
#     4   9  16  27  42  62  90 115 135 165 209 258
#     4   8  13  21  35  56  80 105 131 162 200 245
#     4  10  18  27  39  57  83 112 141 169 201 244
#     4   8  14  26  42  58  78 105 138 170 203 247
#     4   8  13  22  39  60  77  99 131 168 207 245
#     4   9  15  22  37  64  91 111 135 170 211 254
#
# _framework density 18.236103
#
# number of rings (size 3 to 8) (size 9 to 14) (size 15 to 20)
#    0.000    3.286    0.000    3.857    0.000    3.429 
#    0.000    2.857    0.000    3.429    0.000    1.000 
#    0.000    6.857    0.000    0.000    0.000    2.429 
#
# Total GULP energy -311751.659256 kJ/mol
# GULP energy per Si atom -5566.993915 kJ/mol
# Density = 1.819460 g / cm^3
# Si number density = 18.236103 Si / 1000 Ang^3
#
#
#
# Elastic Constant Matrix: (Units=GPa)
#
#
# Indices 1 2 3 4 5 6 
#
# 1 38.5911 12.0669 -2.1414 0.0000 0.0000 0.0000
# 2 12.0669 216.3955 82.9797 0.0000 0.0000 0.0000
# 3 -2.1414 82.9797 84.4537 0.0000 0.0000 0.0000
# 4 0.0000 0.0000 0.0000 31.0068 0.0000 0.0000
# 5 0.0000 0.0000 0.0000 0.0000 5.0455 0.0000
# 6 0.0000 0.0000 0.0000 0.0000 0.0000 -5.7724
#
#
#
# Elastic Compliance Matrix: (Units=1/GPa)
#
#
# Indices 1 2 3 4 5 6 
#
# 1 0.026992 -0.002836 0.003471 0.000000 0.000000 0.000000
# 2 -0.002836 0.007713 -0.007650 0.000000 0.000000 0.000000
# 3 0.003471 -0.007650 0.019445 0.000000 0.000000 0.000000
# 4 0.000000 0.000000 0.000000 0.032251 0.000000 0.000000
# 5 0.000000 0.000000 0.000000 0.000000 0.198195 0.000000
# 6 0.000000 0.000000 0.000000 0.000000 0.000000 -0.173237
#
#
# Mechanical properties :
#
#
# Convention : Reuss Voigt Hill
#
# Bulk Modulus (GPa) = 24.92521 58.36119 41.64320
# Shear Modulus (GPa) = 36.03277 22.49166 29.26221
#
# Velocity S-wave (km/s) = 4.44994 3.51573 4.01013
# Velocity P-wave (km/s) = 6.33248 6.96800 6.65783
#
# Compressibility (1/GPa) = 0.04012002
#
# Stress axis : x y z
#
# Youngs Moduli (GPa) = 37.04777 129.65297 51.42579
#
# Poissons Ratio (x) = 0.36773 -0.17851
# Poissons Ratio (y) = 0.10508 0.39342
# Poissons Ratio (z) = -0.12860 0.99187
#
# Static dielectric constant tensor:
#      x y z
#    x 1.683350 0.000000 0.000000 
#    y 0.000000 1.678680 0.000000 
#    z 0.000000 0.000000 1.602980 
# 
# From -- ./inp_files/41121.got.cif
#   From: 2010.05.17/outbox.cif.g08.bks.cpg/sg64_21_cif.got.tgz:41121.got - 2010.06.03 16:29:19.
