data_PCOD9476828
_publ_section_title
;
Structure prediction by ZEFSAII (Michael W. Deem and Ramdas Pophale) SiO2 
 PCOD9476828
Probable space group: C M C A
;
_chemical_formula_sum "Si O2"
_cell_formula_units_Z 96
_cell_length_a 24.790306
_cell_length_b 23.858588
_cell_length_c 7.962770
_cell_angle_alpha 90.000000
_cell_angle_beta 90.000000
_cell_angle_gamma 90.000000
_cell_volume 4709.673459
_symmetry_space_group_name_H-M "C M C A"
_symmetry_group_IT_number 64
_symmetry_cell_setting 'orthorhombic'
loop_
_space_group_symop_operation_xyz
x,y,z
-x,1/2-y,1/2+z
x,-y,-z
-x,1/2+y,1/2-z
-x,-y,-z
x,1/2+y,1/2-z
-x,y,z
x,1/2-y,1/2+z
1/2+x,1/2+y,z
1/2-x,-y,1/2+z
1/2+x,1/2-y,-z
1/2-x,y,1/2-z
1/2-x,1/2-y,-z
1/2+x,y,1/2-z
1/2-x,1/2+y,z
1/2+x,-y,1/2+z
loop_
_atom_site_type_symbol
_atom_site_label
_atom_site_fract_x
_atom_site_fract_y
_atom_site_fract_z
Si Si1 0.062244 0.662640 0.518936
Si Si2 0.500000 0.033621 0.739355
Si Si3 0.615542 0.433722 0.178963
Si Si4 0.000000 0.415500 0.917982
Si Si5 0.562437 0.222618 0.162811
Si Si6 0.309995 0.971491 0.815366
Si Si7 0.884118 0.376948 0.950381
O O1 0.108568 0.616148 0.544048
O O2 0.065978 0.698785 0.350361
O O3 0.068087 0.710466 0.660207
O O4 0.000000 0.639638 0.526176
O O5 0.442445 0.037084 0.655970
O O6 0.500000 0.976526 0.841170
O O7 0.500000 0.082307 0.880392
O O8 0.659000 0.483446 0.195744
O O9 0.618304 0.402129 0.361140
O O10 0.942682 0.391312 0.870788
O O11 0.500000 0.212639 0.099667
O O12 0.609769 0.190071 0.061360
O O13 0.250000 0.962687 0.750000
O O14 0.341189 0.912786 0.844171
O O15 0.308958 0.000000 0.000000
#
# Coordination Sequence:
#
# PCOD9476828 Si02
#       7
#    16   8  16   8  16  16  16
#     4  10  20  32  48  75 110 144 174 207 254 311
#     4   9  14  24  46  75 102 129 166 208 251 304
#     4  10  18  31  53  77 103 138 176 213 256 309
#     4   9  14  24  46  75 102 129 166 208 251 304
#     4  10  20  32  48  75 110 144 174 207 254 311
#     4  10  22  37  55  78 104 139 180 218 262 311
#     4  10  18  31  53  77 103 138 176 213 256 309
#
# _framework density 20.383579000000001
#
# number of rings (size 3 to 8) (size 9 to 14) (size 15 to 20)
#    0.000    2.167    3.333    1.000    0.000    2.667 
#    0.000    0.000    0.000    4.000    0.000    7.000 
#    0.000    0.000    0.000    0.000    0.000    0.000 
#
# Total GULP energy -267345.565503 kJ/mol
# GULP energy per Si atom -5569.699281 kJ/mol
# Density = 2.033719 g / cm^3
# Si number density = 20.383579 Si / 1000 Ang^3
#
#
#
# Elastic Constant Matrix: (Units=GPa)
#
#
# Indices 1 2 3 4 5 6 
#
# 1 95.4858 16.1204 9.4627 0.0000 0.0000 0.0000
# 2 16.1204 27.1375 8.0794 0.0000 0.0000 0.0000
# 3 9.4627 8.0794 66.2024 0.0000 0.0000 0.0000
# 4 0.0000 0.0000 0.0000 32.8080 0.0000 0.0000
# 5 0.0000 0.0000 0.0000 0.0000 8.4647 0.0000
# 6 0.0000 0.0000 0.0000 0.0000 0.0000 15.7696
#
#
#
# Elastic Compliance Matrix: (Units=1/GPa)
#
#
# Indices 1 2 3 4 5 6 
#
# 1 0.011686 -0.006688 -0.000854 0.000000 0.000000 0.000000
# 2 -0.006688 0.042066 -0.004178 0.000000 0.000000 0.000000
# 3 -0.000854 -0.004178 0.015737 0.000000 0.000000 0.000000
# 4 0.000000 0.000000 0.000000 0.030480 0.000000 0.000000
# 5 0.000000 0.000000 0.000000 0.000000 0.118138 0.000000
# 6 0.000000 0.000000 0.000000 0.000000 0.000000 0.063413
#
#
# Mechanical properties :
#
#
# Convention : Reuss Voigt Hill
#
# Bulk Modulus (GPa) = 21.71558 28.46118 25.08838
# Shear Modulus (GPa) = 15.60983 21.75267 18.68125
#
# Velocity S-wave (km/s) = 2.77032 3.27029 3.03064
# Velocity P-wave (km/s) = 4.57269 5.31534 4.95794
#
# Compressibility (1/GPa) = 0.04604989
#
# Stress axis : x y z
#
# Youngs Moduli (GPa) = 85.56891 23.77221 63.54388
#
# Poissons Ratio (x) = 0.15898 0.05428
# Poissons Ratio (y) = 0.57227 0.26548
# Poissons Ratio (z) = 0.07310 0.09932
#
# Static dielectric constant tensor:
#      x y z
#    x 1.684780 0.000000 0.000000 
#    y 0.000000 1.886590 0.000000 
#    z 0.000000 0.000000 1.863690 
# 
# From -- ./inp_files/9638.got.cif
#   From: 2010.05.17/outbox.cif.g08.bks.cpg/sg64_5_cif.got.tgz:9638.got - 2010.06.03 16:29:19.
