data_PCOD9476042
_publ_section_title
;
Structure prediction by ZEFSAII (Michael W. Deem and Ramdas Pophale) SiO2 
 PCOD9476042
Probable space group: C M C M
;
_chemical_formula_sum "Si O2"
_cell_formula_units_Z 40
_cell_length_a 27.000000
_cell_length_b 18.000000
_cell_length_c 9.000000
_cell_angle_alpha 90.000000
_cell_angle_beta 90.000000
_cell_angle_gamma 90.000000
_cell_volume 4374.000000
_symmetry_space_group_name_H-M "C M C M"
_symmetry_group_IT_number 63
_symmetry_cell_setting 'orthorhombic'
loop_
_space_group_symop_operation_xyz
x,y,z
-x,-y,1/2+z
x,-y,-z
-x,y,1/2-z
-x,-y,-z
x,y,1/2-z
-x,y,z
x,-y,1/2+z
1/2+x,1/2+y,z
1/2-x,1/2-y,1/2+z
1/2+x,1/2-y,-z
1/2-x,1/2+y,1/2-z
1/2-x,1/2-y,-z
1/2+x,1/2+y,1/2-z
1/2-x,1/2+y,z
1/2+x,1/2-y,1/2+z
loop_
_atom_site_type_symbol
_atom_site_label
_atom_site_fract_x
_atom_site_fract_y
_atom_site_fract_z
Si Si1 0.500000 0.831383 0.574804
Si Si2 0.106667 0.841072 0.921446
Si Si3 0.401358 0.837037 0.076378
Si Si4 0.804713 0.080425 0.574134
Si Si5 0.000000 0.831310 0.571354
Si Si6 0.696422 0.918989 0.429230
O O1 0.500000 0.833253 0.750000
O O2 0.550602 0.864397 0.510745
O O3 0.500000 0.746071 0.516756
O O4 0.117262 0.860259 0.750000
O O5 0.102699 0.752070 0.932719
O O6 0.051838 0.870895 0.960679
O O7 0.150098 0.870303 0.021913
O O8 0.408010 0.855303 0.250000
O O9 0.350147 0.871116 0.021126
O O10 0.805633 0.071359 0.750000
O O11 0.750659 0.112180 0.531193
O O12 0.809176 0.000000 0.500000
O O13 0.000000 0.814193 0.750000
O O14 0.694471 0.924445 0.250000
O O15 0.692992 0.000000 0.500000
#
# Coordination Sequence:
#
# PCOD9476042 Si02
#       6
#     8  16  16  16   8  16
#     4  10  18  28  47  76 103 126 160 204 244 284
#     4   9  17  31  52  75  98 128 164 199 239 292
#     4   9  18  34  53  72  99 134 165 196 243 297
#     4  10  20  34  51  72  99 130 164 203 247 293
#     4   8  16  32  51  70  99 136 164 192 242 298
#     4   9  19  35  53  72  97 131 167 202 244 293
#
# _framework density 9.1449470000000002
#
# number of rings (size 3 to 8) (size 9 to 14) (size 15 to 20)
#    0.000    2.800    0.000    2.700    0.000    5.600 
#    0.000    1.000    0.000    0.000    0.000    0.000 
#    0.000    0.000    0.000    0.000    0.000    0.000 
#
# Total GULP energy -222741.635205 kJ/mol
# GULP energy per Si atom -5568.540880 kJ/mol
# Density = 0.912413 g / cm^3
# Si number density = 9.144947 Si / 1000 Ang^3
#
#
#
# Elastic Constant Matrix: (Units=GPa)
#
#
# Indices 1 2 3 4 5 6 
#
# 1 194.7576 39.5032 78.1369 0.0000 0.0000 0.0000
# 2 39.5032 4.0062 17.9756 0.0000 0.0000 0.0000
# 3 78.1369 17.9756 41.0126 0.0000 0.0000 0.0000
# 4 0.0000 0.0000 0.0000 13.2890 0.0000 0.0000
# 5 0.0000 0.0000 0.0000 0.0000 -56.8719 0.0000
# 6 0.0000 0.0000 0.0000 0.0000 0.0000 28.3637
#
#
#
# Elastic Compliance Matrix: (Units=1/GPa)
#
#
# Indices 1 2 3 4 5 6 
#
# 1 0.018859 0.025598 -0.047149 0.000000 0.000000 0.000000
# 2 0.025598 -0.223492 0.049186 0.000000 0.000000 0.000000
# 3 -0.047149 0.049186 0.092653 0.000000 0.000000 0.000000
# 4 0.000000 0.000000 0.000000 0.075250 0.000000 0.000000
# 5 0.000000 0.000000 0.000000 0.000000 -0.017583 0.000000
# 6 0.000000 0.000000 0.000000 0.000000 0.000000 0.035256
#
#
# Mechanical properties :
#
#
# Convention : Reuss Voigt Hill
#
# Bulk Modulus (GPa) = -17.63347 56.77864 19.57258
# Shear Modulus (GPa) = -53.63032 3.90020 -24.86506
#
# Velocity S-wave (km/s) = -5.42089 1.46187 -3.69114
# Velocity P-wave (km/s) = 6.98881 5.82757 2.72790
#
# Compressibility (1/GPa) = -0.05671033
#
# Stress axis : x y z
#
# Youngs Moduli (GPa) = 53.02608 -4.47444 10.79300
#
# Poissons Ratio (x) = 0.11454 0.50888
# Poissons Ratio (y) = -1.35736 -0.53086
# Poissons Ratio (z) = 2.50012 0.22008
#
# Static dielectric constant tensor:
#      x y z
#    x 1.686540 0.000000 0.000000 
#    y 0.000000 1.598980 0.000000 
#    z 0.000000 0.000000 1.703170 
# 
# From -- ./inp_files/10121.got.cif
#   From: 2010.05.17/outbox.ucp.g08.bks.cvg/sg63_6_cif.got.tgz:10121.got - 2010.06.11 16:32:19.
