data_PCOD9476273
_publ_section_title
;
Structure prediction by ZEFSAII (Michael W. Deem and Ramdas Pophale) SiO2 
 PCOD9476273
Probable space group: C M C M
;
_chemical_formula_sum "Si O2"
_cell_formula_units_Z 48
_cell_length_a 18.000000
_cell_length_b 12.000000
_cell_length_c 24.000000
_cell_angle_alpha 90.000000
_cell_angle_beta 90.000000
_cell_angle_gamma 90.000000
_cell_volume 5184.000000
_symmetry_space_group_name_H-M "C M C M"
_symmetry_group_IT_number 63
_symmetry_cell_setting 'orthorhombic'
loop_
_space_group_symop_operation_xyz
x,y,z
-x,-y,1/2+z
x,-y,-z
-x,y,1/2-z
-x,-y,-z
x,y,1/2-z
-x,y,z
x,-y,1/2+z
1/2+x,1/2+y,z
1/2-x,1/2-y,1/2+z
1/2+x,1/2-y,-z
1/2-x,1/2+y,1/2-z
1/2-x,1/2-y,-z
1/2+x,1/2+y,1/2-z
1/2-x,1/2+y,z
1/2+x,1/2-y,1/2+z
loop_
_atom_site_type_symbol
_atom_site_label
_atom_site_fract_x
_atom_site_fract_y
_atom_site_fract_z
Si Si1 0.860564 0.301456 0.919237
Si Si2 0.916519 0.495924 0.856355
Si Si3 0.309680 0.972678 0.250000
Si Si4 0.308246 0.340157 0.876481
Si Si5 0.655522 0.140038 0.952181
Si Si6 0.214341 0.209413 0.250000
Si Si7 0.173425 0.057163 0.941517
O O1 0.912156 0.367614 0.876541
O O2 0.778595 0.324438 0.893125
O O3 0.870021 0.169115 0.925567
O O4 0.864287 0.348251 0.982764
O O5 0.859935 0.522534 0.806097
O O6 0.892249 0.560548 0.912567
O O7 0.000000 0.525533 0.839820
O O8 0.269316 0.847440 0.250000
O O9 0.266393 0.094105 0.250000
O O10 0.347781 0.258361 0.920540
O O11 0.321466 0.306828 0.811998
O O12 0.328422 0.466161 0.892559
O O13 0.740827 0.096860 0.949971
O O14 0.150639 0.000000 0.000000
#
# Coordination Sequence:
#
# PCOD9476273 Si02
#       7
#    16  16   8  16  16   8  16
#     4  11  21  33  56  89 123 156 201 250 309 372
#     4  12  25  41  60  84 125 170 210 246 287 362
#     4  12  25  46  64 100 123 156 204 262 322 366
#     4  11  20  34  56  89 123 151 190 256 324 365
#     4  11  19  34  56  87 123 153 199 248 303 368
#     4  12  24  38  66  92 128 150 194 262 316 374
#     4  11  17  32  57  89 122 154 186 251 330 364
#
# _framework density 9.2592590000000001
#
# number of rings (size 3 to 8) (size 9 to 14) (size 15 to 20)
#    0.000    0.667    8.333    1.750    2.333    1.333 
#    0.000    0.000    0.000    1.500    0.000    1.167 
#    0.000    0.000    0.000    0.000    0.000    0.000 
#
# Total GULP energy -267534.994826 kJ/mol
# GULP energy per Si atom -5573.645726 kJ/mol
# Density = 0.923818 g / cm^3
# Si number density = 9.259259 Si / 1000 Ang^3
#
#
#
# Elastic Constant Matrix: (Units=GPa)
#
#
# Indices 1 2 3 4 5 6 
#
# 1 22.2453 12.7262 -1.3994 0.0000 0.0000 0.0000
# 2 12.7262 140.7929 32.7526 0.0000 0.0000 0.0000
# 3 -1.3994 32.7526 124.6503 0.0000 0.0000 0.0000
# 4 0.0000 0.0000 0.0000 39.7823 0.0000 0.0000
# 5 0.0000 0.0000 0.0000 0.0000 8.2430 0.0000
# 6 0.0000 0.0000 0.0000 0.0000 0.0000 10.6811
#
#
#
# Elastic Compliance Matrix: (Units=1/GPa)
#
#
# Indices 1 2 3 4 5 6 
#
# 1 0.047773 -0.004732 0.001780 0.000000 0.000000 0.000000
# 2 -0.004732 0.008034 -0.002164 0.000000 0.000000 0.000000
# 3 0.001780 -0.002164 0.008611 0.000000 0.000000 0.000000
# 4 0.000000 0.000000 0.000000 0.025137 0.000000 0.000000
# 5 0.000000 0.000000 0.000000 0.000000 0.121315 0.000000
# 6 0.000000 0.000000 0.000000 0.000000 0.000000 0.093623
#
#
# Mechanical properties :
#
#
# Convention : Reuss Voigt Hill
#
# Bulk Modulus (GPa) = 18.45547 41.76081 30.10814
# Shear Modulus (GPa) = 15.02464 27.98189 21.50327
#
# Velocity S-wave (km/s) = 2.85148 3.89140 3.41130
# Velocity P-wave (km/s) = 4.56386 6.54144 5.64000
#
# Compressibility (1/GPa) = 0.05418447
#
# Stress axis : x y z
#
# Youngs Moduli (GPa) = 20.93250 124.47421 116.12990
#
# Poissons Ratio (x) = 0.58903 -0.20668
# Poissons Ratio (y) = 0.09906 0.25131
# Poissons Ratio (z) = -0.03725 0.26937
#
# Static dielectric constant tensor:
#      x y z
#    x 1.643920 0.000000 0.000000 
#    y 0.000000 1.724170 0.000000 
#    z 0.000000 0.000000 1.618030 
# 
# From -- ./inp_files/63757.got.cif
#   From: 2010.05.17/outbox.ucp.g08.bks.cvg/sg63_32_cif.got.tgz:63757.got - 2010.06.11 16:32:19.
