data_PCOD9476108
_publ_section_title
;
Structure prediction by ZEFSAII (Michael W. Deem and Ramdas Pophale) SiO2 
 PCOD9476108
Probable space group: C M C M
;
_chemical_formula_sum "Si O2"
_cell_formula_units_Z 52
_cell_length_a 27.000000
_cell_length_b 24.000000
_cell_length_c 9.000000
_cell_angle_alpha 90.000000
_cell_angle_beta 90.000000
_cell_angle_gamma 90.000000
_cell_volume 5832.000000
_symmetry_space_group_name_H-M "C M C M"
_symmetry_group_IT_number 63
_symmetry_cell_setting 'orthorhombic'
loop_
_space_group_symop_operation_xyz
x,y,z
-x,-y,1/2+z
x,-y,-z
-x,y,1/2-z
-x,-y,-z
x,y,1/2-z
-x,y,z
x,-y,1/2+z
1/2+x,1/2+y,z
1/2-x,1/2-y,1/2+z
1/2+x,1/2-y,-z
1/2-x,1/2+y,1/2-z
1/2-x,1/2-y,-z
1/2+x,1/2+y,1/2-z
1/2-x,1/2+y,z
1/2+x,1/2-y,1/2+z
loop_
_atom_site_type_symbol
_atom_site_label
_atom_site_fract_x
_atom_site_fract_y
_atom_site_fract_z
Si Si1 0.943629 0.888036 0.928394
Si Si2 0.000000 0.563194 0.430732
Si Si3 0.655861 0.558383 0.070646
Si Si4 0.559023 0.725290 0.583693
Si Si5 0.184995 0.302518 0.071247
Si Si6 0.292545 0.322930 0.570344
Si Si7 0.088796 0.350017 0.929547
O O1 0.944455 0.887657 0.750000
O O2 0.901396 0.931066 0.975911
O O3 0.000000 0.899352 0.980778
O O4 0.926887 0.826518 0.981154
O O5 0.000000 0.500000 0.500000
O O6 0.049132 0.601059 0.471138
O O7 0.000000 0.558246 0.250000
O O8 0.658387 0.553567 0.250000
O O9 0.683259 0.617050 0.031159
O O10 0.673737 0.500000 0.000000
O O11 0.580646 0.719011 0.750000
O O12 0.500000 0.720244 0.595429
O O13 0.567685 0.788454 0.532506
O O14 0.184102 0.306671 0.250000
O O15 0.178963 0.235765 0.032280
O O16 0.238860 0.318172 0.006665
O O17 0.143100 0.343619 0.003346
O O18 0.287192 0.322144 0.750000
O O19 0.093571 0.353292 0.750000
#
# Coordination Sequence:
#
# PCOD9476108 Si02
#       7
#    16   8  16  16  16  16  16
#     4   9  18  32  49  73 107 141 172 214 266 309
#     4  10  22  40  58  78 110 152 191 228 271 330
#     4  10  21  36  53  73 102 142 183 218 257 308
#     4   9  16  28  48  75 104 135 171 209 250 304
#     4  10  20  34  58  88 111 133 174 225 274 331
#     4   9  19  37  56  78 112 145 174 219 279 329
#     4  10  19  34  55  79 110 145 177 215 271 326
#
# _framework density 8.9163239999999995
#
# number of rings (size 3 to 8) (size 9 to 14) (size 15 to 20)
#    0.000    2.462    0.769    1.385    0.000    4.615 
#    0.000    0.769    0.000    0.000    0.000    0.000 
#    0.000    0.000    0.000    0.000    0.000    0.000 
#
# Total GULP energy -289570.213867 kJ/mol
# GULP energy per Si atom -5568.657959 kJ/mol
# Density = 0.889603 g / cm^3
# Si number density = 8.916324 Si / 1000 Ang^3
#
#
#
# Elastic Constant Matrix: (Units=GPa)
#
#
# Indices 1 2 3 4 5 6 
#
# 1 99.7844 57.6897 24.2784 0.0000 0.0000 0.0000
# 2 57.6897 134.8478 26.9852 0.0000 0.0000 0.0000
# 3 24.2784 26.9852 17.9629 0.0000 0.0000 0.0000
# 4 0.0000 0.0000 0.0000 33.6244 0.0000 0.0000
# 5 0.0000 0.0000 0.0000 0.0000 22.5385 0.0000
# 6 0.0000 0.0000 0.0000 0.0000 0.0000 30.8660
#
#
#
# Elastic Compliance Matrix: (Units=1/GPa)
#
#
# Indices 1 2 3 4 5 6 
#
# 1 0.016078 -0.003617 -0.016297 0.000000 0.000000 0.000000
# 2 -0.003617 0.011417 -0.012263 0.000000 0.000000 0.000000
# 3 -0.016297 -0.012263 0.096119 0.000000 0.000000 0.000000
# 4 0.000000 0.000000 0.000000 0.029740 0.000000 0.000000
# 5 0.000000 0.000000 0.000000 0.000000 0.044368 0.000000
# 6 0.000000 0.000000 0.000000 0.000000 0.000000 0.032398
#
#
# Mechanical properties :
#
#
# Convention : Reuss Voigt Hill
#
# Bulk Modulus (GPa) = 16.87462 52.27796 34.57629
# Shear Modulus (GPa) = 15.91195 26.98190 21.44693
#
# Velocity S-wave (km/s) = 2.99037 3.89403 3.47173
# Velocity P-wave (km/s) = 4.62670 7.04255 5.95835
#
# Compressibility (1/GPa) = 0.05926059
#
# Stress axis : x y z
#
# Youngs Moduli (GPa) = 62.19673 87.58688 10.40373
#
# Poissons Ratio (x) = 0.31681 0.16955
# Poissons Ratio (y) = 0.22497 0.12758
# Poissons Ratio (z) = 1.01362 1.07407
#
# Static dielectric constant tensor:
#      x y z
#    x 1.657510 0.000000 0.000000 
#    y 0.000000 1.598840 0.000000 
#    z 0.000000 0.000000 1.621350 
# 
# From -- ./inp_files/12904.got.cif
#   From: 2010.05.17/outbox.ucp.g08.bks.cvg/sg63_7_cif.got.tgz:12904.got - 2010.06.11 16:32:19.
