data_PCOD9476456
_publ_section_title
;
Structure prediction by ZEFSAII (Michael W. Deem and Ramdas Pophale) SiO2 
 PCOD9476456
Probable space group: C M C A
;
_chemical_formula_sum "Si O2"
_cell_formula_units_Z 88
_cell_length_a 15.525355
_cell_length_b 34.196209
_cell_length_c 7.366090
_cell_angle_alpha 90.000000
_cell_angle_beta 90.000000
_cell_angle_gamma 90.000000
_cell_volume 3910.718204
_symmetry_space_group_name_H-M "C M C A"
_symmetry_group_IT_number 64
_symmetry_cell_setting 'orthorhombic'
loop_
_space_group_symop_operation_xyz
x,y,z
-x,1/2-y,1/2+z
x,-y,-z
-x,1/2+y,1/2-z
-x,-y,-z
x,1/2+y,1/2-z
-x,y,z
x,1/2-y,1/2+z
1/2+x,1/2+y,z
1/2-x,-y,1/2+z
1/2+x,1/2-y,-z
1/2-x,y,1/2-z
1/2-x,1/2-y,-z
1/2+x,y,1/2-z
1/2-x,1/2+y,z
1/2+x,-y,1/2+z
loop_
_atom_site_type_symbol
_atom_site_label
_atom_site_fract_x
_atom_site_fract_y
_atom_site_fract_z
Si Si1 0.838470 0.930466 0.336735
Si Si2 0.847120 0.849286 0.009418
Si Si3 0.651043 0.147851 0.952372
Si Si4 0.000000 0.202355 0.539560
Si Si5 0.903019 0.936487 0.948688
Si Si6 0.500000 0.705762 0.973513
Si Si7 0.767238 0.500000 0.500000
O O1 0.750000 0.912568 0.250000
O O2 0.869572 0.898327 0.479592
O O3 0.901123 0.938814 0.170502
O O4 0.799222 0.969937 0.411459
O O5 0.746211 0.842619 0.977138
O O6 0.854971 0.850089 0.230899
O O7 0.873681 0.891359 0.924802
O O8 0.914847 0.816086 0.952833
O O9 0.582913 0.178422 0.025956
O O10 0.000000 0.199874 0.757408
O O11 0.000000 0.247987 0.499027
O O12 0.833019 0.969766 0.896785
O O13 0.000000 0.943365 0.882444
#
# Coordination Sequence:
#
# PCOD9476456 Si02
#       7
#    16  16  16   8  16   8   8
#     4   9  16  28  47  71 100 126 169 217 254 299
#     4   9  15  29  53  74 101 123 171 210 266 304
#     4   9  15  30  49  77  94 131 165 214 255 314
#     4  10  22  32  56  77 106 134 176 221 266 318
#     4  10  17  28  48  76  97 130 172 222 255 305
#     4  10  20  34  52  83 104 134 168 225 266 316
#     4  10  17  28  45  74 102 126 158 211 268 307
#
# _framework density 22.502261000000001
#
# number of rings (size 3 to 8) (size 9 to 14) (size 15 to 20)
#    0.000    2.545    6.364    0.273    3.818    0.727 
#    0.000    0.455    0.000    6.545    0.000    0.000 
#    0.000    0.000    0.000    0.000    0.000    0.000 
#
# Total GULP energy -245134.243561 kJ/mol
# GULP energy per Si atom -5571.232808 kJ/mol
# Density = 2.245104 g / cm^3
# Si number density = 22.502261 Si / 1000 Ang^3
#
#
#
# Elastic Constant Matrix: (Units=GPa)
#
#
# Indices 1 2 3 4 5 6 
#
# 1 117.7342 104.2015 16.0177 0.0000 0.0000 0.0000
# 2 104.2015 218.4303 12.1654 0.0000 0.0000 0.0000
# 3 16.0177 12.1654 52.7583 0.0000 0.0000 0.0000
# 4 0.0000 0.0000 0.0000 24.6279 0.0000 0.0000
# 5 0.0000 0.0000 0.0000 0.0000 -3.2015 0.0000
# 6 0.0000 0.0000 0.0000 0.0000 0.0000 44.4984
#
#
#
# Elastic Compliance Matrix: (Units=1/GPa)
#
#
# Indices 1 2 3 4 5 6 
#
# 1 0.015146 -0.007060 -0.002971 0.000000 0.000000 0.000000
# 2 -0.007060 0.007929 0.000315 0.000000 0.000000 0.000000
# 3 -0.002971 0.000315 0.019784 0.000000 0.000000 0.000000
# 4 0.000000 0.000000 0.000000 0.040604 0.000000 0.000000
# 5 0.000000 0.000000 0.000000 0.000000 -0.312353 0.000000
# 6 0.000000 0.000000 0.000000 0.000000 0.000000 0.022473
#
#
# Mechanical properties :
#
#
# Convention : Reuss Voigt Hill
#
# Bulk Modulus (GPa) = 42.68447 72.63245 57.65846
# Shear Modulus (GPa) = -27.90542 30.28750 1.19104
#
# Velocity S-wave (km/s) = -3.52535 3.67273 0.72832
# Velocity P-wave (km/s) = 1.56185 7.09459 5.13676
#
# Compressibility (1/GPa) = 0.02342772
#
# Stress axis : x y z
#
# Youngs Moduli (GPa) = 66.02189 126.12599 50.54704
#
# Poissons Ratio (x) = 0.89047 0.15015
# Poissons Ratio (y) = 0.46612 -0.01594
# Poissons Ratio (z) = 0.19612 -0.03976
#
# Static dielectric constant tensor:
#      x y z
#    x 1.822430 0.000000 0.000000 
#    y 0.000000 1.853510 0.000000 
#    z 0.000000 0.000000 2.017680 
# 
# From -- ./inp_files/16512.got.cif
#   From: 2010.05.17/outbox.cif.g08.bks.cpg/sg64_9_cif.got.tgz:16512.got - 2010.06.03 16:29:19.
