data_PCOD9476298
_publ_section_title
;
Structure prediction by ZEFSAII (Michael W. Deem and Ramdas Pophale) SiO2 
 PCOD9476298
Probable space group: C M C A
;
_chemical_formula_sum "Si O2"
_cell_formula_units_Z 80
_cell_length_a 19.097584
_cell_length_b 22.545787
_cell_length_c 7.781752
_cell_angle_alpha 90.000000
_cell_angle_beta 90.000000
_cell_angle_gamma 90.000000
_cell_volume 3350.589434
_symmetry_space_group_name_H-M "C M C A"
_symmetry_group_IT_number 64
_symmetry_cell_setting 'orthorhombic'
loop_
_space_group_symop_operation_xyz
x,y,z
-x,1/2-y,1/2+z
x,-y,-z
-x,1/2+y,1/2-z
-x,-y,-z
x,1/2+y,1/2-z
-x,y,z
x,1/2-y,1/2+z
1/2+x,1/2+y,z
1/2-x,-y,1/2+z
1/2+x,1/2-y,-z
1/2-x,y,1/2-z
1/2-x,1/2-y,-z
1/2+x,y,1/2-z
1/2-x,1/2+y,z
1/2+x,-y,1/2+z
loop_
_atom_site_type_symbol
_atom_site_label
_atom_site_fract_x
_atom_site_fract_y
_atom_site_fract_z
Si Si1 0.000000 0.338026 0.203660
Si Si2 0.234806 0.178691 0.493556
Si Si3 0.083355 0.031065 0.288356
Si Si4 0.000000 0.711556 0.188615
Si Si5 0.867651 0.149816 0.168711
Si Si6 0.131917 0.088294 0.657030
O O1 0.932073 0.376092 0.234603
O O2 0.000000 0.281421 0.323157
O O3 0.000000 0.318327 0.000321
O O4 0.250000 0.250000 0.500000
O O5 0.185416 0.165620 0.327448
O O6 0.313813 0.155384 0.485126
O O7 0.192339 0.136605 0.625879
O O8 0.099227 0.084979 0.163010
O O9 0.104018 0.062540 0.470454
O O10 0.000000 0.016094 0.289169
O O11 0.134680 0.975678 0.251303
O O12 0.931670 0.693204 0.295504
#
# Coordination Sequence:
#
# PCOD9476298 Si02
#       6
#     8  16  16   8  16  16
#     4  12  20  34  55  92 123 152 209 257 304 376
#     4  10  20  34  52  81 125 161 195 246 317 376
#     4  10  15  30  58  88 115 134 207 263 306 344
#     4  12  22  35  58  89 120 160 211 257 310 374
#     4  10  20  34  55  87 119 157 199 257 315 359
#     4  10  17  31  56  87 113 150 200 255 303 353
#
# _framework density 23.876394999999999
#
# number of rings (size 3 to 8) (size 9 to 14) (size 15 to 20)
#    0.000    1.600    7.000    1.800    0.000    0.000 
#    0.000    0.000    0.000   36.000    0.000    1.400 
#    0.000    0.000    0.000    0.000    0.000    0.000 
#
# Total GULP energy -223037.111550 kJ/mol
# GULP energy per Si atom -5575.927789 kJ/mol
# Density = 2.382205 g / cm^3
# Si number density = 23.876395 Si / 1000 Ang^3
#
#
#
# Elastic Constant Matrix: (Units=GPa)
#
#
# Indices 1 2 3 4 5 6 
#
# 1 132.9214 30.3343 31.3196 0.0000 0.0000 0.0000
# 2 30.3343 171.9609 11.2627 0.0000 0.0000 0.0000
# 3 31.3196 11.2627 52.7868 0.0000 0.0000 0.0000
# 4 0.0000 0.0000 0.0000 16.6806 0.0000 0.0000
# 5 0.0000 0.0000 0.0000 0.0000 4.7756 0.0000
# 6 0.0000 0.0000 0.0000 0.0000 0.0000 -32.6328
#
#
#
# Elastic Compliance Matrix: (Units=1/GPa)
#
#
# Indices 1 2 3 4 5 6 
#
# 1 0.009006 -0.001256 -0.005075 0.000000 0.000000 0.000000
# 2 -0.001256 0.006073 -0.000550 0.000000 0.000000 0.000000
# 3 -0.005075 -0.000550 0.022073 0.000000 0.000000 0.000000
# 4 0.000000 0.000000 0.000000 0.059950 0.000000 0.000000
# 5 0.000000 0.000000 0.000000 0.000000 0.209397 0.000000
# 6 0.000000 0.000000 0.000000 0.000000 0.000000 -0.030644
#
#
# Mechanical properties :
#
#
# Convention : Reuss Voigt Hill
#
# Bulk Modulus (GPa) = 42.75748 55.94470 49.35109
# Shear Modulus (GPa) = 16.81158 16.74819 16.77988
#
# Velocity S-wave (km/s) = 2.65638 2.65137 2.65388
# Velocity P-wave (km/s) = 5.23022 5.73192 5.48681
#
# Compressibility (1/GPa) = 0.02338772
#
# Stress axis : x y z
#
# Youngs Moduli (GPa) = 111.03963 164.66526 45.30455
#
# Poissons Ratio (x) = 0.20686 0.22993
# Poissons Ratio (y) = 0.13949 0.02494
# Poissons Ratio (z) = 0.56356 0.09063
#
# Static dielectric constant tensor:
#      x y z
#    x 1.894010 0.000000 0.000000 
#    y 0.000000 1.934230 0.000000 
#    z 0.000000 0.000000 2.196830 
# 
# From -- ./inp_files/15971.got.cif
#   From: 2010.05.17/outbox.cif.g08.bks.cpg/sg64_8_cif.got.tgz:15971.got - 2010.06.03 16:29:19.
