data_PCOD9476143
_publ_section_title
;
Structure prediction by ZEFSAII (Michael W. Deem and Ramdas Pophale) SiO2 
 PCOD9476143
Probable space group: C M C M
;
_chemical_formula_sum "Si O2"
_cell_formula_units_Z 60
_cell_length_a 27.000000
_cell_length_b 27.000000
_cell_length_c 9.000000
_cell_angle_alpha 90.000000
_cell_angle_beta 90.000000
_cell_angle_gamma 90.000000
_cell_volume 6561.000000
_symmetry_space_group_name_H-M "C M C M"
_symmetry_group_IT_number 63
_symmetry_cell_setting 'orthorhombic'
loop_
_space_group_symop_operation_xyz
x,y,z
-x,-y,1/2+z
x,-y,-z
-x,y,1/2-z
-x,-y,-z
x,y,1/2-z
-x,y,z
x,-y,1/2+z
1/2+x,1/2+y,z
1/2-x,1/2-y,1/2+z
1/2+x,1/2-y,-z
1/2-x,1/2+y,1/2-z
1/2-x,1/2-y,-z
1/2+x,1/2+y,1/2-z
1/2-x,1/2+y,z
1/2+x,1/2-y,1/2+z
loop_
_atom_site_type_symbol
_atom_site_label
_atom_site_fract_x
_atom_site_fract_y
_atom_site_fract_z
Si Si1 0.355001 0.696731 0.924848
Si Si2 0.443320 0.655471 0.082027
Si Si3 0.595647 0.452025 0.575651
Si Si4 0.809835 0.093393 0.929127
Si Si5 0.500000 0.945682 0.572271
Si Si6 0.792226 0.284323 0.929376
Si Si7 0.799334 0.391664 0.071812
Si Si8 0.892187 0.445444 0.928678
O O1 0.347071 0.695288 0.750000
O O2 0.322781 0.649802 0.982229
O O3 0.340018 0.751470 0.970175
O O4 0.410354 0.684830 0.968108
O O5 0.424180 0.663830 0.250000
O O6 0.500000 0.669106 0.075893
O O7 0.436290 0.597248 0.051916
O O8 0.573290 0.500000 0.500000
O O9 0.601146 0.460195 0.750000
O O10 0.649143 0.440743 0.503819
O O11 0.815676 0.091399 0.750000
O O12 0.753001 0.081777 0.964410
O O13 0.500000 0.951845 0.750000
O O14 0.553394 0.922703 0.534136
O O15 0.500000 0.000000 0.500000
O O16 0.787044 0.289037 0.750000
O O17 0.750000 0.250000 0.000000
O O18 0.793932 0.336743 0.007369
O O19 0.804068 0.390689 0.250000
O O20 0.846605 0.416200 0.997151
O O21 0.887587 0.448307 0.750000
O O22 0.891271 0.500000 0.000000
#
# Coordination Sequence:
#
# PCOD9476143 Si02
#       8
#    16  16  16  16   8  16  16  16
#     4   9  18  34  54  77 103 134 174 216 262 318
#     4   9  19  35  54  77 103 133 175 226 273 321
#     4  10  20  33  50  73 101 137 177 219 269 320
#     4   9  18  34  51  70 101 137 172 213 259 314
#     4   8  16  32  56  80 104 134 176 218 262 314
#     4  11  21  35  56  83 112 143 179 221 267 320
#     4  11  22  36  54  82 114 145 180 224 269 318
#     4  10  20  36  57  83 111 145 182 223 269 320
#
# _framework density 9.1449470000000002
#
# number of rings (size 3 to 8) (size 9 to 14) (size 15 to 20)
#    0.000    2.267    1.333    1.600    0.000    4.267 
#    0.000    0.000    1.467    0.000    0.000    0.000 
#    0.000    0.000    0.000    0.000    0.000    0.000 
#
# Total GULP energy -334227.711448 kJ/mol
# GULP energy per Si atom -5570.461857 kJ/mol
# Density = 0.912413 g / cm^3
# Si number density = 9.144947 Si / 1000 Ang^3
#
#
#
# Elastic Constant Matrix: (Units=GPa)
#
#
# Indices 1 2 3 4 5 6 
#
# 1 74.6134 4.3975 18.1411 0.0000 0.0000 0.0000
# 2 4.3975 25.4638 3.9071 0.0000 0.0000 0.0000
# 3 18.1411 3.9071 22.4782 0.0000 0.0000 0.0000
# 4 0.0000 0.0000 0.0000 26.8769 0.0000 0.0000
# 5 0.0000 0.0000 0.0000 0.0000 23.6219 0.0000
# 6 0.0000 0.0000 0.0000 0.0000 0.0000 -40.8830
#
#
#
# Elastic Compliance Matrix: (Units=1/GPa)
#
#
# Indices 1 2 3 4 5 6 
#
# 1 0.016692 -0.000838 -0.013325 0.000000 0.000000 0.000000
# 2 -0.000838 0.040390 -0.006344 0.000000 0.000000 0.000000
# 3 -0.013325 -0.006344 0.056345 0.000000 0.000000 0.000000
# 4 0.000000 0.000000 0.000000 0.037207 0.000000 0.000000
# 5 0.000000 0.000000 0.000000 0.000000 0.042334 0.000000
# 6 0.000000 0.000000 0.000000 0.000000 0.000000 -0.024460
#
#
# Mechanical properties :
#
#
# Convention : Reuss Voigt Hill
#
# Bulk Modulus (GPa) = 13.81011 19.49410 16.65211
# Shear Modulus (GPa) = 21.39879 8.33047 14.86463
#
# Velocity S-wave (km/s) = 3.42421 2.13649 2.85392
# Velocity P-wave (km/s) = 4.81671 4.09483 4.47036
#
# Compressibility (1/GPa) = 0.07241073
#
# Stress axis : x y z
#
# Youngs Moduli (GPa) = 59.91009 24.75882 17.74795
#
# Poissons Ratio (x) = 0.02075 0.23650
# Poissons Ratio (y) = 0.05020 0.11260
# Poissons Ratio (z) = 0.79833 0.15707
#
# Static dielectric constant tensor:
#      x y z
#    x 1.741020 0.000000 0.000000 
#    y 0.000000 1.644630 0.000000 
#    z 0.000000 0.000000 1.619290 
# 
# From -- ./inp_files/13166.got.cif
#   From: 2010.05.17/outbox.ucp.g08.bks.cvg/sg63_7_cif.got.tgz:13166.got - 2010.06.11 16:32:19.
