data_PCOD9476263
_publ_section_title
;
Structure prediction by ZEFSAII (Michael W. Deem and Ramdas Pophale) SiO2 
 PCOD9476263
Probable space group: C M C M
;
_chemical_formula_sum "Si O2"
_cell_formula_units_Z 32
_cell_length_a 9.000000
_cell_length_b 30.000000
_cell_length_c 12.000000
_cell_angle_alpha 90.000000
_cell_angle_beta 90.000000
_cell_angle_gamma 90.000000
_cell_volume 3240.000000
_symmetry_space_group_name_H-M "C M C M"
_symmetry_group_IT_number 63
_symmetry_cell_setting 'orthorhombic'
loop_
_space_group_symop_operation_xyz
x,y,z
-x,-y,1/2+z
x,-y,-z
-x,y,1/2-z
-x,-y,-z
x,y,1/2-z
-x,y,z
x,-y,1/2+z
1/2+x,1/2+y,z
1/2-x,1/2-y,1/2+z
1/2+x,1/2-y,-z
1/2-x,1/2+y,1/2-z
1/2-x,1/2-y,-z
1/2+x,1/2+y,1/2-z
1/2-x,1/2+y,z
1/2+x,1/2-y,1/2+z
loop_
_atom_site_type_symbol
_atom_site_label
_atom_site_fract_x
_atom_site_fract_y
_atom_site_fract_z
Si Si1 0.674597 0.830494 0.250000
Si Si2 0.826185 0.370208 0.620129
Si Si3 0.823742 0.796860 0.024860
Si Si4 0.167169 0.548955 0.548361
Si Si5 0.832281 0.078531 0.750000
O O1 0.500000 0.821394 0.250000
O O2 0.752716 0.812388 0.140374
O O3 0.712252 0.882328 0.250000
O O4 0.797577 0.378117 0.750000
O O5 0.723881 0.332075 0.569108
O O6 0.806524 0.414448 0.546879
O O7 0.000000 0.356630 0.608098
O O8 0.000000 0.793763 0.032998
O O9 0.750000 0.750000 0.000000
O O10 0.165304 0.500000 0.500000
O O11 0.294276 0.551686 0.639964
O O12 0.000000 0.557667 0.594291
O O13 0.000000 0.095819 0.750000
#
# Coordination Sequence:
#
# PCOD9476263 Si02
#       5
#     8  16  16  16   8
#     4  12  24  44  70  95 126 167 218 274 325 380
#     4  10  22  41  64  93 131 171 216 266 317 376
#     4  12  26  44  67  96 130 170 215 263 324 388
#     4  10  22  40  67  96 126 170 219 265 316 379
#     4  12  24  40  64  95 130 169 212 268 329 386
#
# _framework density 9.8765429999999999
#
# number of rings (size 3 to 8) (size 9 to 14) (size 15 to 20)
#    0.000    1.000    2.500    4.500    3.500    1.000 
#    0.000    0.000    0.000    0.000    0.000    0.000 
#    0.000    0.000    0.000    0.000    0.000    0.000 
#
# Total GULP energy -178767.643361 kJ/mol
# GULP energy per Si atom -5586.488855 kJ/mol
# Density = 0.985406 g / cm^3
# Si number density = 9.876543 Si / 1000 Ang^3
#
#
#
# Elastic Constant Matrix: (Units=GPa)
#
#
# Indices 1 2 3 4 5 6 
#
# 1 144.3877 55.1979 70.5410 0.0000 0.0000 0.0000
# 2 55.1979 104.5739 27.9815 0.0000 0.0000 0.0000
# 3 70.5410 27.9815 100.5280 0.0000 0.0000 0.0000
# 4 0.0000 0.0000 0.0000 17.2003 0.0000 0.0000
# 5 0.0000 0.0000 0.0000 0.0000 60.9500 0.0000
# 6 0.0000 0.0000 0.0000 0.0000 0.0000 25.8148
#
#
#
# Elastic Compliance Matrix: (Units=1/GPa)
#
#
# Indices 1 2 3 4 5 6 
#
# 1 0.012222 -0.004491 -0.007326 0.000000 0.000000 0.000000
# 2 -0.004491 0.011982 -0.000184 0.000000 0.000000 0.000000
# 3 -0.007326 -0.000184 0.015139 0.000000 0.000000 0.000000
# 4 0.000000 0.000000 0.000000 0.058139 0.000000 0.000000
# 5 0.000000 0.000000 0.000000 0.000000 0.016407 0.000000
# 6 0.000000 0.000000 0.000000 0.000000 0.000000 0.038738
#
#
# Mechanical properties :
#
#
# Convention : Reuss Voigt Hill
#
# Bulk Modulus (GPa) = 65.18177 72.99228 69.08703
# Shear Modulus (GPa) = 27.51151 33.84429 30.67790
#
# Velocity S-wave (km/s) = 3.73603 4.14377 3.94517
# Velocity P-wave (km/s) = 7.18891 7.74126 7.47019
#
# Compressibility (1/GPa) = 0.01534171
#
# Stress axis : x y z
#
# Youngs Moduli (GPa) = 81.82123 83.45678 66.05267
#
# Poissons Ratio (x) = 0.37479 0.48391
# Poissons Ratio (y) = 0.36744 0.01215
# Poissons Ratio (z) = 0.59943 0.01535
#
# Static dielectric constant tensor:
#      x y z
#    x 1.659270 0.000000 0.000000 
#    y 0.000000 1.717390 0.000000 
#    z 0.000000 0.000000 1.672240 
# 
# From -- ./inp_files/16211.got.cif
#   From: 2010.05.17/outbox.ucp.g08.bks.cvg/sg63_9_cif.got.tgz:16211.got - 2010.06.11 16:32:19.
