data_PCOD9476371
_publ_section_title
;
Structure prediction by ZEFSAII (Michael W. Deem and Ramdas Pophale) SiO2 
 PCOD9476371
Probable space group: C M C A
;
_chemical_formula_sum "Si O2"
_cell_formula_units_Z 64
_cell_length_a 14.728489
_cell_length_b 23.121041
_cell_length_c 8.072965
_cell_angle_alpha 90.000000
_cell_angle_beta 90.000000
_cell_angle_gamma 90.000000
_cell_volume 2749.151339
_symmetry_space_group_name_H-M "C M C A"
_symmetry_group_IT_number 64
_symmetry_cell_setting 'orthorhombic'
loop_
_space_group_symop_operation_xyz
x,y,z
-x,1/2-y,1/2+z
x,-y,-z
-x,1/2+y,1/2-z
-x,-y,-z
x,1/2+y,1/2-z
-x,y,z
x,1/2-y,1/2+z
1/2+x,1/2+y,z
1/2-x,-y,1/2+z
1/2+x,1/2-y,-z
1/2-x,y,1/2-z
1/2-x,1/2-y,-z
1/2+x,y,1/2-z
1/2-x,1/2+y,z
1/2+x,-y,1/2+z
loop_
_atom_site_type_symbol
_atom_site_label
_atom_site_fract_x
_atom_site_fract_y
_atom_site_fract_z
Si Si1 0.356700 0.970407 0.778911
Si Si2 0.721712 0.816773 0.989188
Si Si3 0.602090 0.146816 0.335782
Si Si4 0.104016 0.091617 0.634385
O O1 0.250000 0.964816 0.750000
O O2 0.404948 0.922201 0.671551
O O3 0.380841 0.036925 0.746126
O O4 0.378109 0.943425 0.961209
O O5 0.654931 0.827847 0.828638
O O6 0.821311 0.843953 0.971934
O O7 0.750000 0.750000 0.000000
O O8 0.667337 0.852170 0.129351
O O9 0.500000 0.171060 0.352489
O O10 0.000000 0.110305 0.641003
#
# Coordination Sequence:
#
# PCOD9476371 Si02
#       4
#    16  16  16  16
#     4  10  16  31  55  84 108 138 173 226 277 325
#     4  10  20  36  55  80 110 149 184 228 267 321
#     4  10  19  35  58  82 106 143 184 226 282 332
#     4  10  19  33  57  85 106 140 186 225 271 332
#
# _framework density 23.279911999999999
#
# number of rings (size 3 to 8) (size 9 to 14) (size 15 to 20)
#    0.000    2.000    5.000    5.250    0.000    2.000 
#    4.500    0.000    0.000    6.000    0.000    0.000 
#    0.000    0.000    0.000    0.000    0.000    0.000 
#
# Total GULP energy -178183.131232 kJ/mol
# GULP energy per Si atom -5568.222851 kJ/mol
# Density = 2.322693 g / cm^3
# Si number density = 23.279912 Si / 1000 Ang^3
#
#
#
# Elastic Constant Matrix: (Units=GPa)
#
#
# Indices 1 2 3 4 5 6 
#
# 1 252.6991 69.7472 18.5120 0.0000 0.0000 0.0000
# 2 69.7472 203.8162 13.9740 0.0000 0.0000 0.0000
# 3 18.5120 13.9740 31.7584 0.0000 0.0000 0.0000
# 4 0.0000 0.0000 0.0000 15.9497 0.0000 0.0000
# 5 0.0000 0.0000 0.0000 0.0000 96.9301 0.0000
# 6 0.0000 0.0000 0.0000 0.0000 0.0000 2.7864
#
#
#
# Elastic Compliance Matrix: (Units=1/GPa)
#
#
# Indices 1 2 3 4 5 6 
#
# 1 0.004490 -0.001399 -0.002002 0.000000 0.000000 0.000000
# 2 -0.001399 0.005495 -0.001602 0.000000 0.000000 0.000000
# 3 -0.002002 -0.001602 0.033359 0.000000 0.000000 0.000000
# 4 0.000000 0.000000 0.000000 0.062697 0.000000 0.000000
# 5 0.000000 0.000000 0.000000 0.000000 0.010317 0.000000
# 6 0.000000 0.000000 0.000000 0.000000 0.000000 0.358886
#
#
# Mechanical properties :
#
#
# Convention : Reuss Voigt Hill
#
# Bulk Modulus (GPa) = 29.99547 76.97113 53.48330
# Shear Modulus (GPa) = 10.07326 48.86929 29.47128
#
# Velocity S-wave (km/s) = 2.08241 4.58668 3.56188
# Velocity P-wave (km/s) = 4.32372 7.82210 6.31980
#
# Compressibility (1/GPa) = 0.03333837
#
# Stress axis : x y z
#
# Youngs Moduli (GPa) = 222.71072 181.98065 29.97655
#
# Poissons Ratio (x) = 0.25465 0.06000
# Poissons Ratio (y) = 0.31164 0.04803
# Poissons Ratio (z) = 0.44577 0.29157
#
# Static dielectric constant tensor:
#      x y z
#    x 1.733310 0.000000 0.000000 
#    y 0.000000 2.026150 0.000000 
#    z 0.000000 0.000000 2.187170 
# 
# From -- ./inp_files/5565.got.cif
#   From: 2010.05.17/outbox.cif.g08.bks.cpg/sg64_3_cif.got.tgz:5565.got - 2010.06.03 16:29:19.
