data_PCOD9476124
_publ_section_title
;
Structure prediction by ZEFSAII (Michael W. Deem and Ramdas Pophale) SiO2 
 PCOD9476124
Probable space group: C M C M
;
_chemical_formula_sum "Si O2"
_cell_formula_units_Z 56
_cell_length_a 15.000000
_cell_length_b 15.000000
_cell_length_c 27.000000
_cell_angle_alpha 90.000000
_cell_angle_beta 90.000000
_cell_angle_gamma 90.000000
_cell_volume 6075.000000
_symmetry_space_group_name_H-M "C M C M"
_symmetry_group_IT_number 63
_symmetry_cell_setting 'orthorhombic'
loop_
_space_group_symop_operation_xyz
x,y,z
-x,-y,1/2+z
x,-y,-z
-x,y,1/2-z
-x,-y,-z
x,y,1/2-z
-x,y,z
x,-y,1/2+z
1/2+x,1/2+y,z
1/2-x,1/2-y,1/2+z
1/2+x,1/2-y,-z
1/2-x,1/2+y,1/2-z
1/2-x,1/2-y,-z
1/2+x,1/2+y,1/2-z
1/2-x,1/2+y,z
1/2+x,1/2-y,1/2+z
loop_
_atom_site_type_symbol
_atom_site_label
_atom_site_fract_x
_atom_site_fract_y
_atom_site_fract_z
Si Si1 0.398482 0.281393 0.621110
Si Si2 0.598943 0.947390 0.948404
Si Si3 0.388439 0.713860 0.639648
Si Si4 0.402436 0.919289 0.143043
Si Si5 0.254246 0.345826 0.808885
Si Si6 0.281642 0.445313 0.191578
Si Si7 0.270404 0.214694 0.054197
O O1 0.500000 0.318266 0.618909
O O2 0.406472 0.175539 0.616328
O O3 0.344883 0.299234 0.672006
O O4 0.323641 0.306430 0.580952
O O5 0.500000 0.905774 0.944067
O O6 0.674601 0.875253 0.949268
O O7 0.610831 0.009333 0.900485
O O8 0.600897 0.000000 0.000000
O O9 0.500000 0.719821 0.639526
O O10 0.333846 0.795852 0.667901
O O11 0.351889 0.621064 0.664269
O O12 0.336654 0.721336 0.586595
O O13 0.500000 0.935982 0.166635
O O14 0.318989 0.914522 0.179420
O O15 0.244511 0.340637 0.750000
O O16 0.273430 0.449647 0.822650
O O17 0.300328 0.440161 0.250000
O O18 0.250000 0.250000 0.000000
#
# Coordination Sequence:
#
# PCOD9476124 Si02
#       7
#    16  16  16  16  16  16  16
#     4  10  21  37  58  85 119 159 201 251 305 365
#     4  10  21  36  61  95 124 155 205 263 323 384
#     4  11  24  43  66  95 130 168 215 269 324 384
#     4  10  19  35  59  87 119 156 200 254 313 368
#     4  10  22  40  63  92 127 168 213 261 317 380
#     4  11  23  39  62  93 128 168 210 258 320 382
#     4  11  22  39  62  89 122 164 204 256 318 379
#
# _framework density 9.2181069999999998
#
# number of rings (size 3 to 8) (size 9 to 14) (size 15 to 20)
#    0.000    1.571    2.857    3.429    0.000    6.286 
#    0.000    4.286    0.000    0.429    0.000    0.000 
#    0.000    0.000    0.000    0.000    0.000    0.000 
#
# Total GULP energy -311737.523967 kJ/mol
# GULP energy per Si atom -5566.741499 kJ/mol
# Density = 0.919713 g / cm^3
# Si number density = 9.218107 Si / 1000 Ang^3
#
#
#
# Elastic Constant Matrix: (Units=GPa)
#
#
# Indices 1 2 3 4 5 6 
#
# 1 176.9118 60.1808 42.1057 0.0000 0.0000 0.0000
# 2 60.1808 104.8548 33.8611 0.0000 0.0000 0.0000
# 3 42.1057 33.8611 74.2768 0.0000 0.0000 0.0000
# 4 0.0000 0.0000 0.0000 23.6985 0.0000 0.0000
# 5 0.0000 0.0000 0.0000 0.0000 22.1708 0.0000
# 6 0.0000 0.0000 0.0000 0.0000 0.0000 34.2609
#
#
#
# Elastic Compliance Matrix: (Units=1/GPa)
#
#
# Indices 1 2 3 4 5 6 
#
# 1 0.007448 -0.003414 -0.002666 0.000000 0.000000 0.000000
# 2 -0.003414 0.012748 -0.003876 0.000000 0.000000 0.000000
# 3 -0.002666 -0.003876 0.016742 0.000000 0.000000 0.000000
# 4 0.000000 0.000000 0.000000 0.042197 0.000000 0.000000
# 5 0.000000 0.000000 0.000000 0.000000 0.045104 0.000000
# 6 0.000000 0.000000 0.000000 0.000000 0.000000 0.029188
#
#
# Mechanical properties :
#
#
# Convention : Reuss Voigt Hill
#
# Bulk Modulus (GPa) = 58.73496 69.81537 64.27517
# Shear Modulus (GPa) = 27.93064 30.68576 29.30820
#
# Velocity S-wave (km/s) = 3.89651 4.08417 3.99144
# Velocity P-wave (km/s) = 7.22297 7.75831 7.49542
#
# Compressibility (1/GPa) = 0.01702563
#
# Stress axis : x y z
#
# Youngs Moduli (GPa) = 134.25683 78.44210 59.73169
#
# Poissons Ratio (x) = 0.26781 0.15924
# Poissons Ratio (y) = 0.45836 0.23154
# Poissons Ratio (z) = 0.35792 0.30406
#
# Static dielectric constant tensor:
#      x y z
#    x 1.657810 0.000000 0.000000 
#    y 0.000000 1.688390 0.000000 
#    z 0.000000 0.000000 1.660130 
# 
# From -- ./inp_files/69407.got.cif
#   From: 2010.05.17/outbox.ucp.g08.bks.cvg/sg63_35_cif.got.tgz:69407.got - 2010.06.11 16:32:19.
