data_PCOD9476278
_publ_section_title
;
Structure prediction by ZEFSAII (Michael W. Deem and Ramdas Pophale) SiO2 
 PCOD9476278
Probable space group: C M C M
;
_chemical_formula_sum "Si O2"
_cell_formula_units_Z 40
_cell_length_a 12.000000
_cell_length_b 24.000000
_cell_length_c 15.000000
_cell_angle_alpha 90.000000
_cell_angle_beta 90.000000
_cell_angle_gamma 90.000000
_cell_volume 4320.000000
_symmetry_space_group_name_H-M "C M C M"
_symmetry_group_IT_number 63
_symmetry_cell_setting 'orthorhombic'
loop_
_space_group_symop_operation_xyz
x,y,z
-x,-y,1/2+z
x,-y,-z
-x,y,1/2-z
-x,-y,-z
x,y,1/2-z
-x,y,z
x,-y,1/2+z
1/2+x,1/2+y,z
1/2-x,1/2-y,1/2+z
1/2+x,1/2-y,-z
1/2-x,1/2+y,1/2-z
1/2-x,1/2-y,-z
1/2+x,1/2+y,1/2-z
1/2-x,1/2+y,z
1/2+x,1/2-y,1/2+z
loop_
_atom_site_type_symbol
_atom_site_label
_atom_site_fract_x
_atom_site_fract_y
_atom_site_fract_z
Si Si1 0.755809 0.859415 0.097848
Si Si2 0.500000 0.405431 0.143161
Si Si3 0.133701 0.569619 0.750000
Si Si4 0.000000 0.962045 0.641338
Si Si5 0.869700 0.755186 0.856959
Si Si6 0.865839 0.563801 0.250000
Si Si7 0.711197 0.617380 0.398673
O O1 0.887888 0.871887 0.115430
O O2 0.687819 0.898647 0.165871
O O3 0.709943 0.795536 0.108363
O O4 0.739959 0.879479 0.997366
O O5 0.500000 0.407863 0.250000
O O6 0.500000 0.471741 0.113758
O O7 0.158723 0.503123 0.750000
O O8 0.000000 0.576367 0.750000
O O9 0.892486 0.926167 0.609581
O O10 0.000000 0.960957 0.750000
O O11 0.869011 0.749641 0.750000
O O12 0.829650 0.818803 0.877696
O O13 0.000000 0.748708 0.886887
O O14 0.805565 0.593938 0.332849
O O15 0.000000 0.570260 0.250000
#
# Coordination Sequence:
#
# PCOD9476278 Si02
#       7
#    16   8   8   8  16   8  16
#     4  12  25  42  66 102 134 172 220 274 335 393
#     4  11  23  41  65 102 143 175 210 272 343 391
#     4  11  24  46  69  93 130 181 227 267 320 401
#     4  11  21  41  73  98 133 181 224 266 321 399
#     4  11  22  43  71  95 126 177 229 272 323 394
#     4  11  26  44  65  97 136 173 219 275 338 391
#     4  12  24  43  68 101 132 171 226 277 329 393
#
# _framework density 9.2592590000000001
#
# number of rings (size 3 to 8) (size 9 to 14) (size 15 to 20)
#    0.000    0.600    5.000    3.000    0.000    5.600 
#    1.800    2.000    0.000    0.000    0.000    0.000 
#    0.000    0.000    0.000    0.000    0.000    0.000 
#
# Total GULP energy -223467.025023 kJ/mol
# GULP energy per Si atom -5586.675626 kJ/mol
# Density = 0.923818 g / cm^3
# Si number density = 9.259259 Si / 1000 Ang^3
#
#
#
# Elastic Constant Matrix: (Units=GPa)
#
#
# Indices 1 2 3 4 5 6 
#
# 1 150.4162 85.0473 43.0565 0.0000 0.0000 0.0000
# 2 85.0473 167.9991 31.9113 0.0000 0.0000 0.0000
# 3 43.0565 31.9113 114.1893 0.0000 0.0000 0.0000
# 4 0.0000 0.0000 0.0000 3.9178 0.0000 0.0000
# 5 0.0000 0.0000 0.0000 0.0000 8.6475 0.0000
# 6 0.0000 0.0000 0.0000 0.0000 0.0000 44.9105
#
#
#
# Elastic Compliance Matrix: (Units=1/GPa)
#
#
# Indices 1 2 3 4 5 6 
#
# 1 0.009934 -0.004559 -0.002471 0.000000 0.000000 0.000000
# 2 -0.004559 0.008379 -0.000622 0.000000 0.000000 0.000000
# 3 -0.002471 -0.000622 0.009863 0.000000 0.000000 0.000000
# 4 0.000000 0.000000 0.000000 0.255243 0.000000 0.000000
# 5 0.000000 0.000000 0.000000 0.000000 0.115641 0.000000
# 6 0.000000 0.000000 0.000000 0.000000 0.000000 0.022267
#
#
# Mechanical properties :
#
#
# Convention : Reuss Voigt Hill
#
# Bulk Modulus (GPa) = 77.70445 83.62609 80.66527
# Shear Modulus (GPa) = 11.33987 29.66779 20.50383
#
# Velocity S-wave (km/s) = 2.47726 4.00692 3.33108
# Velocity P-wave (km/s) = 7.08759 8.16476 7.64517
#
# Compressibility (1/GPa) = 0.01286928
#
# Stress axis : x y z
#
# Youngs Moduli (GPa) = 100.66905 119.35015 101.38699
#
# Poissons Ratio (x) = 0.54415 0.25057
# Poissons Ratio (y) = 0.45898 0.06310
# Poissons Ratio (z) = 0.24880 0.07428
#
# Static dielectric constant tensor:
#      x y z
#    x 1.641130 0.000000 0.000000 
#    y 0.000000 1.629700 0.000000 
#    z 0.000000 0.000000 1.655490 
# 
# From -- ./inp_files/29803.got.cif
#   From: 2010.05.17/outbox.ucp.g08.bks.cvg/sg63_15_cif.got.tgz:29803.got - 2010.06.11 16:32:19.
