data_PCOD9476082
_publ_section_title
;
Structure prediction by ZEFSAII (Michael W. Deem and Ramdas Pophale) SiO2 
 PCOD9476082
Probable space group: C M C M
;
_chemical_formula_sum "Si O2"
_cell_formula_units_Z 64
_cell_length_a 18.000000
_cell_length_b 24.000000
_cell_length_c 18.000000
_cell_angle_alpha 90.000000
_cell_angle_beta 90.000000
_cell_angle_gamma 90.000000
_cell_volume 7776.000000
_symmetry_space_group_name_H-M "C M C M"
_symmetry_group_IT_number 63
_symmetry_cell_setting 'orthorhombic'
loop_
_space_group_symop_operation_xyz
x,y,z
-x,-y,1/2+z
x,-y,-z
-x,y,1/2-z
-x,-y,-z
x,y,1/2-z
-x,y,z
x,-y,1/2+z
1/2+x,1/2+y,z
1/2-x,1/2-y,1/2+z
1/2+x,1/2-y,-z
1/2-x,1/2+y,1/2-z
1/2-x,1/2-y,-z
1/2+x,1/2+y,1/2-z
1/2-x,1/2+y,z
1/2+x,1/2-y,1/2+z
loop_
_atom_site_type_symbol
_atom_site_label
_atom_site_fract_x
_atom_site_fract_y
_atom_site_fract_z
Si Si1 0.664029 0.626532 0.045204
Si Si2 0.342137 0.130738 0.470134
Si Si3 0.585044 0.042240 0.570121
Si Si4 0.663091 0.257782 0.022081
Si Si5 0.911105 0.950099 0.662072
Si Si6 0.910035 0.560183 0.335695
Si Si7 0.412279 0.689491 0.663715
Si Si8 0.412467 0.429501 0.406092
O O1 0.753328 0.627893 0.041176
O O2 0.633171 0.598172 0.119415
O O3 0.636759 0.690111 0.029146
O O4 0.633443 0.587772 0.978527
O O5 0.366048 0.093233 0.540800
O O6 0.366954 0.194691 0.482999
O O7 0.378352 0.103654 0.396003
O O8 0.500000 0.060458 0.584495
O O9 0.582775 0.000000 0.500000
O O10 0.611589 0.002382 0.637029
O O11 0.641243 0.279371 0.104979
O O12 0.750000 0.250000 0.000000
O O13 0.896873 0.949847 0.750000
O O14 0.000000 0.942574 0.650746
O O15 0.891496 0.011050 0.628590
O O16 0.888445 0.570463 0.250000
O O17 0.000000 0.562253 0.340291
O O18 0.397262 0.702663 0.750000
O O19 0.500000 0.702659 0.648399
O O20 0.404206 0.622959 0.649742
O O21 0.500000 0.432585 0.426005
#
# Coordination Sequence:
#
# PCOD9476082 Si02
#       8
#    16  16  16  16  16  16  16  16
#     4  10  20  33  49  69  95 128 166 206 240 277
#     4  10  19  32  50  69  93 126 163 197 230 277
#     4   8  15  29  48  69  94 123 150 180 227 283
#     4   9  20  36  49  66  98 137 169 197 239 295
#     4  10  20  33  49  70  98 130 161 196 241 290
#     4   9  18  32  50  74 102 124 144 183 242 298
#     4   9  17  30  51  79 104 124 156 208 260 297
#     4   9  17  31  51  73  98 128 159 193 243 302
#
# _framework density 8.2304530000000007
#
# number of rings (size 3 to 8) (size 9 to 14) (size 15 to 20)
#    0.000    2.750    0.000    2.250    0.000    8.000 
#    0.000    3.125    0.000    7.500    0.000    1.750 
#    0.000    0.000    0.000    0.000    0.000    0.000 
#
# Total GULP energy -356416.398551 kJ/mol
# GULP energy per Si atom -5569.006227 kJ/mol
# Density = 0.821172 g / cm^3
# Si number density = 8.230453 Si / 1000 Ang^3
#
#
#
# Elastic Constant Matrix: (Units=GPa)
#
#
# Indices 1 2 3 4 5 6 
#
# 1 41.1395 37.0182 33.8906 0.0000 0.0000 0.0000
# 2 37.0182 138.6326 51.1506 0.0000 0.0000 0.0000
# 3 33.8906 51.1506 83.1852 0.0000 0.0000 0.0000
# 4 0.0000 0.0000 0.0000 18.6033 0.0000 0.0000
# 5 0.0000 0.0000 0.0000 0.0000 18.0504 0.0000
# 6 0.0000 0.0000 0.0000 0.0000 0.0000 22.3134
#
#
#
# Elastic Compliance Matrix: (Units=1/GPa)
#
#
# Indices 1 2 3 4 5 6 
#
# 1 0.040177 -0.006065 -0.012639 0.000000 0.000000 0.000000
# 2 -0.006065 0.010246 -0.003829 0.000000 0.000000 0.000000
# 3 -0.012639 -0.003829 0.019525 0.000000 0.000000 0.000000
# 4 0.000000 0.000000 0.000000 0.053754 0.000000 0.000000
# 5 0.000000 0.000000 0.000000 0.000000 0.055401 0.000000
# 6 0.000000 0.000000 0.000000 0.000000 0.000000 0.044816
#
#
# Mechanical properties :
#
#
# Convention : Reuss Voigt Hill
#
# Bulk Modulus (GPa) = 40.19066 56.34178 48.26622
# Shear Modulus (GPa) = 18.03238 21.18660 19.60949
#
# Velocity S-wave (km/s) = 3.31337 3.59149 3.45523
# Velocity P-wave (km/s) = 6.25354 7.17637 6.73079
#
# Compressibility (1/GPa) = 0.02488140
#
# Stress axis : x y z
#
# Youngs Moduli (GPa) = 24.88983 97.60332 51.21542
#
# Poissons Ratio (x) = 0.59194 0.64733
# Poissons Ratio (y) = 0.15095 0.19611
# Poissons Ratio (z) = 0.31459 0.37374
#
# Static dielectric constant tensor:
#      x y z
#    x 1.558260 0.000000 0.000000 
#    y 0.000000 1.567530 0.000000 
#    z 0.000000 0.000000 1.550480 
# 
# From -- ./inp_files/46346.got.cif
#   From: 2010.05.17/outbox.ucp.g08.bks.cvg/sg63_24_cif.got.tgz:46346.got - 2010.06.11 16:32:19.
