data_PCOD9476855
_publ_section_title
;
Structure prediction by ZEFSAII (Michael W. Deem and Ramdas Pophale) SiO2 
 PCOD9476855
Probable space group: C M C A
;
_chemical_formula_sum "Si O2"
_cell_formula_units_Z 80
_cell_length_a 17.554161
_cell_length_b 7.789879
_cell_length_c 26.927923
_cell_angle_alpha 90.000000
_cell_angle_beta 90.000000
_cell_angle_gamma 90.000000
_cell_volume 3682.253179
_symmetry_space_group_name_H-M "C M C A"
_symmetry_group_IT_number 64
_symmetry_cell_setting 'orthorhombic'
loop_
_space_group_symop_operation_xyz
x,y,z
-x,1/2-y,1/2+z
x,-y,-z
-x,1/2+y,1/2-z
-x,-y,-z
x,1/2+y,1/2-z
-x,y,z
x,1/2-y,1/2+z
1/2+x,1/2+y,z
1/2-x,-y,1/2+z
1/2+x,1/2-y,-z
1/2-x,y,1/2-z
1/2-x,1/2-y,-z
1/2+x,y,1/2-z
1/2-x,1/2+y,z
1/2+x,-y,1/2+z
loop_
_atom_site_type_symbol
_atom_site_label
_atom_site_fract_x
_atom_site_fract_y
_atom_site_fract_z
Si Si1 0.700276 0.749765 0.549889
Si Si2 0.088265 0.521181 0.087958
Si Si3 0.163846 0.919893 0.197809
Si Si4 0.653679 0.394177 0.092039
Si Si5 0.842326 0.983535 0.694759
O O1 0.750000 0.750000 0.500000
O O2 0.638732 0.401188 0.447541
O O3 0.762670 0.698114 0.591991
O O4 0.664317 0.937995 0.557856
O O5 0.102727 0.726645 0.080304
O O6 0.114502 0.468023 0.144242
O O7 0.000000 0.486031 0.081384
O O8 0.127813 0.968496 0.250443
O O9 0.253594 0.963597 0.195977
O O10 0.130992 0.977913 0.145003
O O11 0.156945 0.718766 0.194279
#
# Coordination Sequence:
#
# PCOD9476855 Si02
#       5
#    16  16  16  16  16
#     4  12  24  42  76 108 131 185 249 304 351 428
#     4  11  26  45  66 104 153 186 226 301 375 429
#     4  10  18  31  59  94 126 175 234 289 331 407
#     4  11  22  41  71 100 137 177 241 293 347 425
#     4  10  19  32  59  95 133 176 234 288 344 415
#
# _framework density 21.725828
#
# number of rings (size 3 to 8) (size 9 to 14) (size 15 to 20)
#    0.000    1.200    4.000    4.200    2.800    0.800 
#    0.000    6.000    0.000    2.400    0.000    0.000 
#    0.000    0.000    0.000    0.000    0.000    0.000 
#
# Total GULP energy -223057.206030 kJ/mol
# GULP energy per Si atom -5576.430151 kJ/mol
# Density = 2.167638 g / cm^3
# Si number density = 21.725828 Si / 1000 Ang^3
#
#
#
# Elastic Constant Matrix: (Units=GPa)
#
#
# Indices 1 2 3 4 5 6 
#
# 1 83.3053 32.9049 32.2662 0.0000 0.0000 0.0000
# 2 32.9049 90.8642 73.4171 0.0000 0.0000 0.0000
# 3 32.2662 73.4171 156.1685 0.0000 0.0000 0.0000
# 4 0.0000 0.0000 0.0000 38.2863 0.0000 0.0000
# 5 0.0000 0.0000 0.0000 0.0000 11.3950 0.0000
# 6 0.0000 0.0000 0.0000 0.0000 0.0000 22.0448
#
#
#
# Elastic Compliance Matrix: (Units=1/GPa)
#
#
# Indices 1 2 3 4 5 6 
#
# 1 0.014073 -0.004430 -0.000825 0.000000 0.000000 0.000000
# 2 -0.004430 0.019141 -0.008083 0.000000 0.000000 0.000000
# 3 -0.000825 -0.008083 0.010374 0.000000 0.000000 0.000000
# 4 0.000000 0.000000 0.000000 0.026119 0.000000 0.000000
# 5 0.000000 0.000000 0.000000 0.000000 0.087758 0.000000
# 6 0.000000 0.000000 0.000000 0.000000 0.000000 0.045362
#
#
# Mechanical properties :
#
#
# Convention : Reuss Voigt Hill
#
# Bulk Modulus (GPa) = 59.13022 67.50161 63.31592
# Shear Modulus (GPa) = 21.26394 27.12853 24.19623
#
# Velocity S-wave (km/s) = 3.13188 3.53750 3.34085
# Velocity P-wave (km/s) = 6.35247 6.91537 6.63989
#
# Compressibility (1/GPa) = 0.01691183
#
# Stress axis : x y z
#
# Youngs Moduli (GPa) = 71.05633 52.24518 96.39659
#
# Poissons Ratio (x) = 0.23142 0.07956
# Poissons Ratio (y) = 0.31475 0.77918
# Poissons Ratio (z) = 0.05864 0.42230
#
# Static dielectric constant tensor:
#      x y z
#    x 1.751100 0.000000 0.000000 
#    y 0.000000 1.781760 0.000000 
#    z 0.000000 0.000000 2.189460 
# 
# From -- ./inp_files/50310.got.cif
#   From: 2010.05.17/outbox.cif.g08.bks.cpg/sg64_26_cif.got.tgz:50310.got - 2010.06.03 16:29:19.
