data_PCOD9476835
_publ_section_title
;
Structure prediction by ZEFSAII (Michael W. Deem and Ramdas Pophale) SiO2 
 PCOD9476835
Probable space group: C M C A
;
_chemical_formula_sum "Si O2"
_cell_formula_units_Z 112
_cell_length_a 14.852052
_cell_length_b 21.700909
_cell_length_c 14.467167
_cell_angle_alpha 90.000000
_cell_angle_beta 90.000000
_cell_angle_gamma 90.000000
_cell_volume 4662.811744
_symmetry_space_group_name_H-M "C M C A"
_symmetry_group_IT_number 64
_symmetry_cell_setting 'orthorhombic'
loop_
_space_group_symop_operation_xyz
x,y,z
-x,1/2-y,1/2+z
x,-y,-z
-x,1/2+y,1/2-z
-x,-y,-z
x,1/2+y,1/2-z
-x,y,z
x,1/2-y,1/2+z
1/2+x,1/2+y,z
1/2-x,-y,1/2+z
1/2+x,1/2-y,-z
1/2-x,y,1/2-z
1/2-x,1/2-y,-z
1/2+x,y,1/2-z
1/2-x,1/2+y,z
1/2+x,-y,1/2+z
loop_
_atom_site_type_symbol
_atom_site_label
_atom_site_fract_x
_atom_site_fract_y
_atom_site_fract_z
Si Si1 0.903246 0.088133 0.105561
Si Si2 0.706360 0.814970 0.077879
Si Si3 0.650627 0.711002 0.206669
Si Si4 0.647958 0.986181 0.775813
Si Si5 0.704412 0.569441 0.457481
Si Si6 0.403381 0.882140 0.214573
Si Si7 0.096903 0.702275 0.624897
O O1 0.892254 0.149350 0.167842
O O2 0.898719 0.035875 0.183322
O O3 0.812833 0.078321 0.046809
O O4 0.000000 0.087938 0.056961
O O5 0.657241 0.754003 0.115325
O O6 0.685737 0.855128 0.169188
O O7 0.810672 0.796019 0.068517
O O8 0.674249 0.864979 0.002258
O O9 0.750000 0.698678 0.250000
O O10 0.604038 0.748515 0.290331
O O11 0.750000 0.003884 0.750000
O O12 0.660367 0.935988 0.856116
O O13 0.598931 0.046735 0.808771
O O14 0.688450 0.500000 0.500000
O O15 0.500000 0.856635 0.178762
O O16 0.401954 0.863338 0.321670
O O17 0.000000 0.710727 0.578034
#
# Coordination Sequence:
#
# PCOD9476835 Si02
#       7
#    16  16  16  16  16  16  16
#     4  11  24  40  61  88 118 156 204 252 296 358
#     4  10  20  36  58  86 122 157 195 244 307 362
#     4   9  18  37  62  87 116 156 204 251 296 351
#     4  10  20  37  58  79 112 155 201 241 294 354
#     4  11  23  39  60  85 123 161 197 244 306 371
#     4  10  18  31  53  82 112 150 200 245 290 343
#     4   9  18  31  57  88 116 152 196 248 298 351
#
# _framework density 24.019842000000001
#
# number of rings (size 3 to 8) (size 9 to 14) (size 15 to 20)
#    0.000    2.000    1.429    4.286    2.000    2.000 
#    0.000    2.143    0.000    3.429    0.000    0.000 
#    0.000    0.000    0.000    0.000    0.000    0.000 
#
# Total GULP energy -312162.609933 kJ/mol
# GULP energy per Si atom -5574.332320 kJ/mol
# Density = 2.396517 g / cm^3
# Si number density = 24.019842 Si / 1000 Ang^3
#
#
#
# Elastic Constant Matrix: (Units=GPa)
#
#
# Indices 1 2 3 4 5 6 
#
# 1 58.9811 -3.0990 -17.5467 0.0000 0.0000 0.0000
# 2 -3.0990 54.5762 -9.8249 0.0000 0.0000 0.0000
# 3 -17.5467 -9.8249 33.6835 0.0000 0.0000 0.0000
# 4 0.0000 0.0000 0.0000 21.7310 0.0000 0.0000
# 5 0.0000 0.0000 0.0000 0.0000 -4.4411 0.0000
# 6 0.0000 0.0000 0.0000 0.0000 0.0000 14.4332
#
#
#
# Elastic Compliance Matrix: (Units=1/GPa)
#
#
# Indices 1 2 3 4 5 6 
#
# 1 0.020604 0.003274 0.011688 0.000000 0.000000 0.000000
# 2 0.003274 0.019859 0.007498 0.000000 0.000000 0.000000
# 3 0.011688 0.007498 0.037964 0.000000 0.000000 0.000000
# 4 0.000000 0.000000 0.000000 0.046017 0.000000 0.000000
# 5 0.000000 0.000000 0.000000 0.000000 -0.225169 0.000000
# 6 0.000000 0.000000 0.000000 0.000000 0.000000 0.069285
#
#
# Mechanical properties :
#
#
# Convention : Reuss Voigt Hill
#
# Bulk Modulus (GPa) = 8.10724 9.58885 8.84805
# Shear Modulus (GPa) = -141.86335 18.19204 -61.83566
#
# Velocity S-wave (km/s) = -7.69345 2.75503 -5.07932
# Velocity P-wave (km/s) = 8.69116 3.75779 5.54145
#
# Compressibility (1/GPa) = 0.12334647
#
# Stress axis : x y z
#
# Youngs Moduli (GPa) = 48.53480 50.35573 26.34090
#
# Poissons Ratio (x) = -0.16487 -0.30787
# Poissons Ratio (y) = -0.15890 -0.19750
# Poissons Ratio (z) = -0.56728 -0.37757
#
# Static dielectric constant tensor:
#      x y z
#    x 1.997890 0.000000 0.000000 
#    y 0.000000 1.944380 0.000000 
#    z 0.000000 0.000000 1.940170 
# 
# From -- ./inp_files/24283.got.cif
#   From: 2010.05.17/outbox.cif.g08.bks.cpg/sg64_13_cif.got.tgz:24283.got - 2010.06.03 16:29:19.
