data_PCOD9476796
_publ_section_title
;
Structure prediction by ZEFSAII (Michael W. Deem and Ramdas Pophale) SiO2 
 PCOD9476796
Probable space group: C M C A
;
_chemical_formula_sum "Si O2"
_cell_formula_units_Z 80
_cell_length_a 8.627852
_cell_length_b 23.958705
_cell_length_c 22.432403
_cell_angle_alpha 90.000000
_cell_angle_beta 90.000000
_cell_angle_gamma 90.000000
_cell_volume 4637.050497
_symmetry_space_group_name_H-M "C M C A"
_symmetry_group_IT_number 64
_symmetry_cell_setting 'orthorhombic'
loop_
_space_group_symop_operation_xyz
x,y,z
-x,1/2-y,1/2+z
x,-y,-z
-x,1/2+y,1/2-z
-x,-y,-z
x,1/2+y,1/2-z
-x,y,z
x,1/2-y,1/2+z
1/2+x,1/2+y,z
1/2-x,-y,1/2+z
1/2+x,1/2-y,-z
1/2-x,y,1/2-z
1/2-x,1/2-y,-z
1/2+x,y,1/2-z
1/2-x,1/2+y,z
1/2+x,-y,1/2+z
loop_
_atom_site_type_symbol
_atom_site_label
_atom_site_fract_x
_atom_site_fract_y
_atom_site_fract_z
Si Si1 0.184831 0.551775 0.315389
Si Si2 0.813330 0.318750 0.682476
Si Si3 0.686524 0.290188 0.948070
Si Si4 0.819021 0.017430 0.584217
Si Si5 0.817384 0.584907 0.489042
O O1 0.250000 0.547279 0.250000
O O2 0.222936 0.616119 0.332819
O O3 0.263951 0.502717 0.352000
O O4 0.000000 0.546718 0.319445
O O5 0.750000 0.306643 0.750000
O O6 0.762402 0.285400 0.622106
O O7 0.000000 0.314163 0.686514
O O8 0.500000 0.284694 0.947296
O O9 0.750000 0.250000 0.000000
O O10 0.723322 0.353003 0.970026
O O11 0.778606 0.961309 0.546884
O O12 0.000000 0.029616 0.580984
O O13 0.722270 0.068409 0.556724
O O14 0.000000 0.575996 0.477069
#
# Coordination Sequence:
#
# PCOD9476796 Si02
#       5
#    16  16  16  16  16
#     4  10  18  31  49  73 105 138 171 210 259 314
#     4   9  18  33  51  75 104 135 172 214 262 316
#     4  10  21  36  54  78 107 139 178 223 269 317
#     4  11  20  30  48  76 104 133 170 210 253 309
#     4  10  19  34  51  70 101 138 169 208 261 310
#
# _framework density 17.252347
#
# number of rings (size 3 to 8) (size 9 to 14) (size 15 to 20)
#    0.000    2.000    2.000    4.200    0.000    3.200 
#    0.000    0.000    0.000    1.200    0.000    2.800 
#    0.000    0.000    0.000    0.000    0.000    0.000 
#
# Total GULP energy -222671.104111 kJ/mol
# GULP energy per Si atom -5566.777603 kJ/mol
# Density = 1.721308 g / cm^3
# Si number density = 17.252347 Si / 1000 Ang^3
#
#
#
# Elastic Constant Matrix: (Units=GPa)
#
#
# Indices 1 2 3 4 5 6 
#
# 1 32.6527 15.4650 20.7919 0.0000 0.0000 0.0000
# 2 15.4650 47.1008 50.1940 0.0000 0.0000 0.0000
# 3 20.7919 50.1940 129.5716 0.0000 0.0000 0.0000
# 4 0.0000 0.0000 0.0000 31.8441 0.0000 0.0000
# 5 0.0000 0.0000 0.0000 0.0000 27.1116 0.0000
# 6 0.0000 0.0000 0.0000 0.0000 0.0000 9.8818
#
#
#
# Elastic Compliance Matrix: (Units=1/GPa)
#
#
# Indices 1 2 3 4 5 6 
#
# 1 0.036589 -0.009804 -0.002073 0.000000 0.000000 0.000000
# 2 -0.009804 0.038785 -0.013451 0.000000 0.000000 0.000000
# 3 -0.002073 -0.013451 0.013261 0.000000 0.000000 0.000000
# 4 0.000000 0.000000 0.000000 0.031403 0.000000 0.000000
# 5 0.000000 0.000000 0.000000 0.000000 0.036885 0.000000
# 6 0.000000 0.000000 0.000000 0.000000 0.000000 0.101196
#
#
# Mechanical properties :
#
#
# Convention : Reuss Voigt Hill
#
# Bulk Modulus (GPa) = 26.33136 42.46967 34.40052
# Shear Modulus (GPa) = 15.55522 21.95912 18.75717
#
# Velocity S-wave (km/s) = 3.00597 3.57153 3.30089
# Velocity P-wave (km/s) = 5.22910 6.45585 5.87458
#
# Compressibility (1/GPa) = 0.03797752
#
# Stress axis : x y z
#
# Youngs Moduli (GPa) = 27.33068 25.78319 75.40715
#
# Poissons Ratio (x) = 0.25278 0.15635
# Poissons Ratio (y) = 0.26795 1.01434
# Poissons Ratio (z) = 0.05667 0.34682
#
# Static dielectric constant tensor:
#      x y z
#    x 1.582890 0.000000 0.000000 
#    y 0.000000 1.575250 0.000000 
#    z 0.000000 0.000000 1.679340 
# 
# From -- ./inp_files/29996.got.cif
#   From: 2010.05.17/outbox.cif.g08.bks.cpg/sg64_15_cif.got.tgz:29996.got - 2010.06.03 16:29:19.
