data_PCOD9476937
_publ_section_title
;
Structure prediction by ZEFSAII (Michael W. Deem and Ramdas Pophale) SiO2 
 PCOD9476937
Probable space group: C M C A
;
_chemical_formula_sum "Si O2"
_cell_formula_units_Z 104
_cell_length_a 23.286224
_cell_length_b 24.849298
_cell_length_c 7.611465
_cell_angle_alpha 90.000000
_cell_angle_beta 90.000000
_cell_angle_gamma 90.000000
_cell_volume 4404.346208
_symmetry_space_group_name_H-M "C M C A"
_symmetry_group_IT_number 64
_symmetry_cell_setting 'orthorhombic'
loop_
_space_group_symop_operation_xyz
x,y,z
-x,1/2-y,1/2+z
x,-y,-z
-x,1/2+y,1/2-z
-x,-y,-z
x,1/2+y,1/2-z
-x,y,z
x,1/2-y,1/2+z
1/2+x,1/2+y,z
1/2-x,-y,1/2+z
1/2+x,1/2-y,-z
1/2-x,y,1/2-z
1/2-x,1/2-y,-z
1/2+x,y,1/2-z
1/2-x,1/2+y,z
1/2+x,-y,1/2+z
loop_
_atom_site_type_symbol
_atom_site_label
_atom_site_fract_x
_atom_site_fract_y
_atom_site_fract_z
Si Si1 0.065416 0.229169 0.125672
Si Si2 0.105031 0.335202 0.937490
Si Si3 0.562246 0.958925 0.667035
Si Si4 0.500000 0.610179 0.574228
Si Si5 0.919910 0.132499 0.901133
Si Si6 0.688165 0.611890 0.693233
Si Si7 0.812047 0.490075 0.711343
O O1 0.084231 0.288701 0.073851
O O2 0.107423 0.197525 0.256643
O O3 0.064970 0.193307 0.948992
O O4 0.000000 0.229237 0.195014
O O5 0.051910 0.376648 0.934601
O O6 0.161273 0.362291 0.018263
O O7 0.500000 0.969799 0.760802
O O8 0.563293 0.902312 0.568214
O O9 0.562656 0.000000 0.500000
O O10 0.624811 0.966128 0.756270
O O11 0.451299 0.608030 0.732004
O O12 0.853900 0.126315 0.853706
O O13 0.750000 0.632016 0.750000
O O14 0.690028 0.547129 0.686993
O O15 0.812676 0.500000 0.500000
O O16 0.750000 0.462423 0.750000
#
# Coordination Sequence:
#
# PCOD9476937 Si02
#       7
#    16  16  16   8  16  16  16
#     4  12  22  39  59  95 127 160 209 256 314 386
#     4  11  23  37  61  90 124 163 207 259 316 364
#     4  10  18  33  59  97 124 155 208 257 309 370
#     4  10  18  32  59  90 117 165 196 247 313 362
#     4  11  20  36  62  90 125 166 207 253 312 375
#     4  10  22  42  61  86 124 164 212 264 305 373
#     4  10  20  40  64  92 121 166 215 257 310 383
#
# _framework density 23.613040999999999
#
# number of rings (size 3 to 8) (size 9 to 14) (size 15 to 20)
#    0.000    1.385    6.154    1.846    0.000    0.000 
#    5.538    3.846    0.000    0.462    0.000    0.000 
#    0.000    0.000    0.000    0.000    0.000    0.000 
#
# Total GULP energy -289635.930980 kJ/mol
# GULP energy per Si atom -5569.921750 kJ/mol
# Density = 2.355930 g / cm^3
# Si number density = 23.613041 Si / 1000 Ang^3
#
#
#
# Elastic Constant Matrix: (Units=GPa)
#
#
# Indices 1 2 3 4 5 6 
#
# 1 227.4775 17.4113 10.2859 0.0000 0.0000 0.0000
# 2 17.4113 58.0252 -0.1238 0.0000 0.0000 0.0000
# 3 10.2859 -0.1238 79.9028 0.0000 0.0000 0.0000
# 4 0.0000 0.0000 0.0000 32.7647 0.0000 0.0000
# 5 0.0000 0.0000 0.0000 0.0000 19.7785 0.0000
# 6 0.0000 0.0000 0.0000 0.0000 0.0000 21.4551
#
#
#
# Elastic Compliance Matrix: (Units=1/GPa)
#
#
# Indices 1 2 3 4 5 6 
#
# 1 0.004527 -0.001360 -0.000585 0.000000 0.000000 0.000000
# 2 -0.001360 0.017642 0.000202 0.000000 0.000000 0.000000
# 3 -0.000585 0.000202 0.012591 0.000000 0.000000 0.000000
# 4 0.000000 0.000000 0.000000 0.030521 0.000000 0.000000
# 5 0.000000 0.000000 0.000000 0.000000 0.050560 0.000000
# 6 0.000000 0.000000 0.000000 0.000000 0.000000 0.046609
#
#
# Mechanical properties :
#
#
# Convention : Reuss Voigt Hill
#
# Bulk Modulus (GPa) = 31.97370 46.72801 39.35086
# Shear Modulus (GPa) = 28.35138 37.32181 32.83659
#
# Velocity S-wave (km/s) = 3.46882 3.97994 3.73314
# Velocity P-wave (km/s) = 5.44185 6.39937 5.93993
#
# Compressibility (1/GPa) = 0.03127571
#
# Stress axis : x y z
#
# Youngs Moduli (GPa) = 220.91929 56.68203 79.42302
#
# Poissons Ratio (x) = 0.07706 0.04645
# Poissons Ratio (y) = 0.30034 -0.01607
# Poissons Ratio (z) = 0.12920 -0.01147
#
# Static dielectric constant tensor:
#      x y z
#    x 1.873060 0.000000 0.000000 
#    y 0.000000 1.975090 0.000000 
#    z 0.000000 0.000000 2.001190 
# 
# From -- ./inp_files/9688.got.cif
#   From: 2010.05.17/outbox.cif.g08.bks.cpg/sg64_5_cif.got.tgz:9688.got - 2010.06.03 16:29:19.
