data_PCOD9476722
_publ_section_title
;
Structure prediction by ZEFSAII (Michael W. Deem and Ramdas Pophale) SiO2 
 PCOD9476722
Probable space group: C M C A
;
_chemical_formula_sum "Si O2"
_cell_formula_units_Z 96
_cell_length_a 7.922804
_cell_length_b 26.950649
_cell_length_c 23.454589
_cell_angle_alpha 90.000000
_cell_angle_beta 90.000000
_cell_angle_gamma 90.000000
_cell_volume 5008.134307
_symmetry_space_group_name_H-M "C M C A"
_symmetry_group_IT_number 64
_symmetry_cell_setting 'orthorhombic'
loop_
_space_group_symop_operation_xyz
x,y,z
-x,1/2-y,1/2+z
x,-y,-z
-x,1/2+y,1/2-z
-x,-y,-z
x,1/2+y,1/2-z
-x,y,z
x,1/2-y,1/2+z
1/2+x,1/2+y,z
1/2-x,-y,1/2+z
1/2+x,1/2-y,-z
1/2-x,y,1/2-z
1/2-x,1/2-y,-z
1/2+x,y,1/2-z
1/2-x,1/2+y,z
1/2+x,-y,1/2+z
loop_
_atom_site_type_symbol
_atom_site_label
_atom_site_fract_x
_atom_site_fract_y
_atom_site_fract_z
Si Si1 0.691302 0.151447 0.621752
Si Si2 0.807077 0.194322 0.509187
Si Si3 0.704420 0.250068 0.183970
Si Si4 0.201484 0.943789 0.566790
Si Si5 0.701253 0.056623 0.565838
Si Si6 0.803836 0.152907 0.381854
O O1 0.500000 0.144707 0.643732
O O2 0.690007 0.170765 0.556728
O O3 0.767402 0.197821 0.656681
O O4 0.771097 0.097108 0.611009
O O5 0.750000 0.250000 0.500000
O O6 0.802422 0.169841 0.447562
O O7 0.000000 0.191529 0.530215
O O8 0.500000 0.250358 0.175935
O O9 0.750000 0.248669 0.250000
O O10 0.768679 0.199366 0.153661
O O11 0.244651 0.934233 0.499969
O O12 0.271422 0.902390 0.610845
O O13 0.000000 0.940742 0.570005
O O14 0.254211 0.999956 0.579600
O O15 0.500000 0.061488 0.566618
O O16 0.000000 0.148030 0.362867
#
# Coordination Sequence:
#
# PCOD9476722 Si02
#       6
#    16  16  16  16  16  16
#     4  10  20  34  52  73 105 139 167 209 258 303
#     4  11  19  30  48  75 106 136 167 202 252 311
#     4  10  21  39  55  73  99 130 170 217 264 304
#     4  10  18  30  48  73 104 141 170 198 242 300
#     4  10  19  30  46  74 107 139 167 202 247 296
#     4   9  18  32  51  72 103 136 164 204 253 299
#
# _framework density 19.168814000000001
#
# number of rings (size 3 to 8) (size 9 to 14) (size 15 to 20)
#    0.000    2.000    3.333    2.500    0.000    1.333 
#    0.000    1.667    0.000    1.000    0.000    7.000 
#    0.000    0.000    0.000    0.000    0.000    0.000 
#
# Total GULP energy -267286.116062 kJ/mol
# GULP energy per Si atom -5568.460751 kJ/mol
# Density = 1.912518 g / cm^3
# Si number density = 19.168814 Si / 1000 Ang^3
#
#
#
# Elastic Constant Matrix: (Units=GPa)
#
#
# Indices 1 2 3 4 5 6 
#
# 1 38.9927 7.4123 2.6022 0.0000 0.0000 0.0000
# 2 7.4123 200.2561 59.6956 0.0000 0.0000 0.0000
# 3 2.6022 59.6956 69.7755 0.0000 0.0000 0.0000
# 4 0.0000 0.0000 0.0000 11.2796 0.0000 0.0000
# 5 0.0000 0.0000 0.0000 0.0000 17.0309 0.0000
# 6 0.0000 0.0000 0.0000 0.0000 0.0000 4.6832
#
#
#
# Elastic Compliance Matrix: (Units=1/GPa)
#
#
# Indices 1 2 3 4 5 6 
#
# 1 0.025830 -0.000898 -0.000195 0.000000 0.000000 0.000000
# 2 -0.000898 0.006734 -0.005728 0.000000 0.000000 0.000000
# 3 -0.000195 -0.005728 0.019239 0.000000 0.000000 0.000000
# 4 0.000000 0.000000 0.000000 0.088656 0.000000 0.000000
# 5 0.000000 0.000000 0.000000 0.000000 0.058717 0.000000
# 6 0.000000 0.000000 0.000000 0.000000 0.000000 0.213529
#
#
# Mechanical properties :
#
#
# Convention : Reuss Voigt Hill
#
# Bulk Modulus (GPa) = 26.20454 49.82718 38.01586
# Shear Modulus (GPa) = 11.38777 22.55301 16.97039
#
# Velocity S-wave (km/s) = 2.44002 3.43380 2.97865
# Velocity P-wave (km/s) = 4.65170 6.46310 5.63072
#
# Compressibility (1/GPa) = 0.03816133
#
# Stress axis : x y z
#
# Youngs Moduli (GPa) = 38.71540 148.49278 51.97650
#
# Poissons Ratio (x) = 0.13333 0.01014
# Poissons Ratio (y) = 0.03476 0.29772
# Poissons Ratio (z) = 0.00755 0.85057
#
# Static dielectric constant tensor:
#      x y z
#    x 1.711360 0.000000 0.000000 
#    y 0.000000 1.782640 0.000000 
#    z 0.000000 0.000000 1.602010 
# 
# From -- ./inp_files/43200.got.cif
#   From: 2010.05.17/outbox.cif.g08.bks.cpg/sg64_22_cif.got.tgz:43200.got - 2010.06.03 16:29:19.
