data_PCOD9476043
_publ_section_title
;
Structure prediction by ZEFSAII (Michael W. Deem and Ramdas Pophale) SiO2 
 PCOD9476043
Probable space group: C M C M
;
_chemical_formula_sum "Si O2"
_cell_formula_units_Z 48
_cell_length_a 27.000000
_cell_length_b 27.000000
_cell_length_c 9.000000
_cell_angle_alpha 90.000000
_cell_angle_beta 90.000000
_cell_angle_gamma 90.000000
_cell_volume 6561.000000
_symmetry_space_group_name_H-M "C M C M"
_symmetry_group_IT_number 63
_symmetry_cell_setting 'orthorhombic'
loop_
_space_group_symop_operation_xyz
x,y,z
-x,-y,1/2+z
x,-y,-z
-x,y,1/2-z
-x,-y,-z
x,y,1/2-z
-x,y,z
x,-y,1/2+z
1/2+x,1/2+y,z
1/2-x,1/2-y,1/2+z
1/2+x,1/2-y,-z
1/2-x,1/2+y,1/2-z
1/2-x,1/2-y,-z
1/2+x,1/2+y,1/2-z
1/2-x,1/2+y,z
1/2+x,1/2-y,1/2+z
loop_
_atom_site_type_symbol
_atom_site_label
_atom_site_fract_x
_atom_site_fract_y
_atom_site_fract_z
Si Si1 0.303582 0.949191 0.077595
Si Si2 0.794077 0.783776 0.072076
Si Si3 0.641447 0.789239 0.427052
Si Si4 0.228661 0.646250 0.074537
Si Si5 0.556634 0.846189 0.579942
Si Si6 0.576741 0.948530 0.421937
O O1 0.288090 0.944004 0.250000
O O2 0.363413 0.945162 0.077538
O O3 0.280908 0.909361 0.968093
O O4 0.290704 0.000000 0.000000
O O5 0.792205 0.781642 0.250000
O O6 0.750000 0.750000 0.000000
O O7 0.844431 0.762169 0.005829
O O8 0.778693 0.836026 0.005218
O O9 0.646617 0.786721 0.250000
O O10 0.682411 0.826330 0.495422
O O11 0.589556 0.811158 0.477530
O O12 0.228962 0.656594 0.250000
O O13 0.575853 0.846361 0.750000
O O14 0.500000 0.829798 0.581513
O O15 0.558667 0.901424 0.513833
O O16 0.560669 0.947039 0.250000
O O17 0.562589 0.000000 0.500000
#
# Coordination Sequence:
#
# PCOD9476043 Si02
#       6
#    16  16  16  16  16  16
#     4  10  19  30  44  64  86 113 143 176 214 258
#     4  10  18  29  45  65  87 109 135 168 207 252
#     4  11  20  32  47  64  85 108 136 173 215 259
#     4  11  19  29  46  66  88 112 138 172 210 253
#     4  11  23  36  49  64  82 107 140 178 222 267
#     4  10  20  33  49  63  80 105 138 178 222 266
#
# _framework density 7.3159580000000002
#
# number of rings (size 3 to 8) (size 9 to 14) (size 15 to 20)
#    0.000    1.500    1.667    8.000    0.000    3.000 
#    0.000    0.000    0.000    0.000    0.000    0.000 
#    0.000    0.000    0.000    0.000    0.000    0.833 
#
# Total GULP energy -267578.901498 kJ/mol
# GULP energy per Si atom -5574.560448 kJ/mol
# Density = 0.729931 g / cm^3
# Si number density = 7.315958 Si / 1000 Ang^3
#
#
#
# Elastic Constant Matrix: (Units=GPa)
#
#
# Indices 1 2 3 4 5 6 
#
# 1 35.3158 29.1459 27.1194 0.0000 0.0000 0.0000
# 2 29.1459 40.2512 21.6224 0.0000 0.0000 0.0000
# 3 27.1194 21.6224 148.6603 0.0000 0.0000 0.0000
# 4 0.0000 0.0000 0.0000 19.3737 0.0000 0.0000
# 5 0.0000 0.0000 0.0000 0.0000 -1.1398 0.0000
# 6 0.0000 0.0000 0.0000 0.0000 0.0000 1.6091
#
#
#
# Elastic Compliance Matrix: (Units=1/GPa)
#
#
# Indices 1 2 3 4 5 6 
#
# 1 0.075457 -0.051248 -0.006311 0.000000 0.000000 0.000000
# 2 -0.051248 0.061756 0.000367 0.000000 0.000000 0.000000
# 3 -0.006311 0.000367 0.007825 0.000000 0.000000 0.000000
# 4 0.000000 0.000000 0.000000 0.051616 0.000000 0.000000
# 5 0.000000 0.000000 0.000000 0.000000 -0.877333 0.000000
# 6 0.000000 0.000000 0.000000 0.000000 0.000000 0.621454
#
#
# Mechanical properties :
#
#
# Convention : Reuss Voigt Hill
#
# Bulk Modulus (GPa) = 32.62422 42.22253 37.42338
# Shear Modulus (GPa) = 76.47614 13.72457 45.10036
#
# Velocity S-wave (km/s) = 7.23741 3.06598 5.55789
# Velocity P-wave (km/s) = 9.60131 6.43838 8.17429
#
# Compressibility (1/GPa) = 0.03065208
#
# Stress axis : x y z
#
# Youngs Moduli (GPa) = 13.25250 16.19273 127.79953
#
# Poissons Ratio (x) = 0.82985 0.80658
# Poissons Ratio (y) = 0.67917 -0.04686
# Poissons Ratio (z) = 0.08364 -0.00594
#
# Static dielectric constant tensor:
#      x y z
#    x 1.501400 0.000000 0.000000 
#    y 0.000000 1.468000 0.000000 
#    z 0.000000 0.000000 1.489680 
# 
# From -- ./inp_files/13002.got.cif
#   From: 2010.05.17/outbox.ucp.g08.bks.cvg/sg63_7_cif.got.tgz:13002.got - 2010.06.11 16:32:19.
