data_PCOD9476995
_publ_section_title
;
Structure prediction by ZEFSAII (Michael W. Deem and Ramdas Pophale) SiO2 
 PCOD9476995
Probable space group: C M C A
;
_chemical_formula_sum "Si O2"
_cell_formula_units_Z 120
_cell_length_a 26.447767
_cell_length_b 20.819474
_cell_length_c 7.962694
_cell_angle_alpha 90.000000
_cell_angle_beta 90.000000
_cell_angle_gamma 90.000000
_cell_volume 4384.487029
_symmetry_space_group_name_H-M "C M C A"
_symmetry_group_IT_number 64
_symmetry_cell_setting 'orthorhombic'
loop_
_space_group_symop_operation_xyz
x,y,z
-x,1/2-y,1/2+z
x,-y,-z
-x,1/2+y,1/2-z
-x,-y,-z
x,1/2+y,1/2-z
-x,y,z
x,1/2-y,1/2+z
1/2+x,1/2+y,z
1/2-x,-y,1/2+z
1/2+x,1/2-y,-z
1/2-x,y,1/2-z
1/2-x,1/2-y,-z
1/2+x,y,1/2-z
1/2-x,1/2+y,z
1/2+x,-y,1/2+z
loop_
_atom_site_type_symbol
_atom_site_label
_atom_site_fract_x
_atom_site_fract_y
_atom_site_fract_z
Si Si1 0.306232 0.742417 0.074914
Si Si2 0.215922 0.634060 0.606234
Si Si3 0.556262 0.629662 0.145886
Si Si4 0.941415 0.583981 0.736743
Si Si5 0.863975 0.681181 0.133125
Si Si6 0.750000 0.921095 0.750000
Si Si7 0.943361 0.728878 0.767874
Si Si8 0.343734 0.011738 0.699356
O O1 0.318080 0.705657 0.247045
O O2 0.250000 0.750000 0.000000
O O3 0.325411 0.684180 0.954169
O O4 0.337868 0.807188 0.046096
O O5 0.250000 0.665561 0.750000
O O6 0.243111 0.611787 0.433394
O O7 0.190773 0.574994 0.698110
O O8 0.500000 0.611132 0.212494
O O9 0.603490 0.624151 0.278228
O O10 0.554081 0.706448 0.117449
O O11 0.563069 0.596449 0.965711
O O12 0.933002 0.654912 0.819989
O O13 0.897624 0.532403 0.778615
O O14 0.000000 0.564791 0.769965
O O15 0.903948 0.738634 0.144190
O O16 0.696585 0.959584 0.767610
O O17 0.000000 0.723484 0.700990
O O18 0.351957 0.000000 0.500000
#
# Coordination Sequence:
#
# PCOD9476995 Si02
#       8
#    16  16  16  16  16   8  16  16
#     4  12  25  37  53  87 128 173 209 251 322 401
#     4  11  23  42  69  92 125 168 223 278 343 411
#     4   8  16  29  51  82 114 159 207 251 306 388
#     4  10  18  33  59  91 132 175 216 272 343 412
#     4  10  19  34  52  75 126 164 205 252 300 366
#     4  10  24  44  70  96 124 164 234 300 338 404
#     4   8  16  29  51  82 113 158 206 243 297 384
#     4  10  21  39  62  92 123 162 225 292 346 403
#
# _framework density 27.369221
#
# number of rings (size 3 to 8) (size 9 to 14) (size 15 to 20)
#    0.800    1.333    0.667    3.600    1.867    0.267 
#    0.000    0.667    0.000    0.000    6.933    1.867 
#    0.000    0.000    0.000    0.000    0.000    0.000 
#
# Total GULP energy -334163.678258 kJ/mol
# GULP energy per Si atom -5569.394638 kJ/mol
# Density = 2.730693 g / cm^3
# Si number density = 27.369221 Si / 1000 Ang^3
#
#
#
# Elastic Constant Matrix: (Units=GPa)
#
#
# Indices 1 2 3 4 5 6 
#
# 1 202.2067 48.4233 31.7416 0.0000 0.0000 0.0000
# 2 48.4233 72.7824 17.1108 0.0000 0.0000 0.0000
# 3 31.7416 17.1108 66.0465 0.0000 0.0000 0.0000
# 4 0.0000 0.0000 0.0000 30.5470 0.0000 0.0000
# 5 0.0000 0.0000 0.0000 0.0000 48.3245 0.0000
# 6 0.0000 0.0000 0.0000 0.0000 0.0000 58.3967
#
#
#
# Elastic Compliance Matrix: (Units=1/GPa)
#
#
# Indices 1 2 3 4 5 6 
#
# 1 0.006123 -0.003601 -0.002010 0.000000 0.000000 0.000000
# 2 -0.003601 0.016749 -0.002608 0.000000 0.000000 0.000000
# 3 -0.002010 -0.002608 0.016783 0.000000 0.000000 0.000000
# 4 0.000000 0.000000 0.000000 0.032736 0.000000 0.000000
# 5 0.000000 0.000000 0.000000 0.000000 0.020693 0.000000
# 6 0.000000 0.000000 0.000000 0.000000 0.000000 0.017124
#
#
# Mechanical properties :
#
#
# Convention : Reuss Voigt Hill
#
# Bulk Modulus (GPa) = 43.07458 59.50966 51.29212
# Shear Modulus (GPa) = 37.20607 43.70431 40.45519
#
# Velocity S-wave (km/s) = 3.69102 4.00039 3.84881
# Velocity P-wave (km/s) = 5.82558 6.56719 6.20747
#
# Compressibility (1/GPa) = 0.02321555
#
# Stress axis : x y z
#
# Youngs Moduli (GPa) = 163.30818 59.70535 59.58588
#
# Poissons Ratio (x) = 0.21503 0.11976
# Poissons Ratio (y) = 0.58815 0.15542
# Poissons Ratio (z) = 0.32822 0.15573
#
# Static dielectric constant tensor:
#      x y z
#    x 2.266770 0.000000 0.000000 
#    y 0.000000 2.193150 0.000000 
#    z 0.000000 0.000000 2.297550 
# 
# From -- ./inp_files/10711.got.cif
#   From: 2010.05.17/outbox.cif.g08.bks.cpg/sg64_6_cif.got.tgz:10711.got - 2010.06.03 16:29:19.
