data_PCOD9476058
_publ_section_title
;
Structure prediction by ZEFSAII (Michael W. Deem and Ramdas Pophale) SiO2 
 PCOD9476058
Probable space group: C M C M
;
_chemical_formula_sum "Si O2"
_cell_formula_units_Z 52
_cell_length_a 27.000000
_cell_length_b 24.000000
_cell_length_c 9.000000
_cell_angle_alpha 90.000000
_cell_angle_beta 90.000000
_cell_angle_gamma 90.000000
_cell_volume 5832.000000
_symmetry_space_group_name_H-M "C M C M"
_symmetry_group_IT_number 63
_symmetry_cell_setting 'orthorhombic'
loop_
_space_group_symop_operation_xyz
x,y,z
-x,-y,1/2+z
x,-y,-z
-x,y,1/2-z
-x,-y,-z
x,y,1/2-z
-x,y,z
x,-y,1/2+z
1/2+x,1/2+y,z
1/2-x,1/2-y,1/2+z
1/2+x,1/2-y,-z
1/2-x,1/2+y,1/2-z
1/2-x,1/2-y,-z
1/2+x,1/2+y,1/2-z
1/2-x,1/2+y,z
1/2+x,1/2-y,1/2+z
loop_
_atom_site_type_symbol
_atom_site_label
_atom_site_fract_x
_atom_site_fract_y
_atom_site_fract_z
Si Si1 0.288591 0.141560 0.072700
Si Si2 0.853852 0.262168 0.071940
Si Si3 0.000000 0.062181 0.072185
Si Si4 0.621575 0.939449 0.572960
Si Si5 0.557400 0.842358 0.428534
Si Si6 0.097584 0.059706 0.575850
Si Si7 0.183098 0.850483 0.424200
O O1 0.287150 0.150897 0.250000
O O2 0.324735 0.088977 0.044305
O O3 0.314245 0.193838 0.991966
O O4 0.233913 0.135646 0.008022
O O5 0.849289 0.257846 0.250000
O O6 0.907422 0.289488 0.036408
O O7 0.842437 0.203484 0.996665
O O8 0.000000 0.060416 0.250000
O O9 0.949329 0.087043 0.008152
O O10 0.000000 0.000000 0.000000
O O11 0.615002 0.943533 0.750000
O O12 0.581715 0.896125 0.506216
O O13 0.617884 0.000000 0.500000
O O14 0.559965 0.850318 0.250000
O O15 0.500000 0.834794 0.469987
O O16 0.085283 0.051636 0.750000
O O17 0.145096 0.098517 0.564320
O O18 0.106877 0.000000 0.500000
O O19 0.193211 0.839774 0.250000
#
# Coordination Sequence:
#
# PCOD9476058 Si02
#       7
#    16  16   8  16  16  16  16
#     4  10  21  37  57  79 108 144 184 227 273 326
#     4  10  20  36  58  81 109 143 182 227 274 327
#     4  10  18  32  56  78 100 134 172 210 255 310
#     4  10  21  36  56  83 113 148 188 228 274 330
#     4   9  19  37  59  82 111 146 184 230 279 326
#     4  10  21  37  56  78 108 141 177 220 267 321
#     4  11  23  37  55  81 111 143 181 224 273 328
#
# _framework density 8.9163239999999995
#
# number of rings (size 3 to 8) (size 9 to 14) (size 15 to 20)
#    0.000    2.000    0.000    4.385    0.000    6.154 
#    1.385    3.077    0.000    0.000    0.000    0.000 
#    0.000    0.000    0.000    0.000    0.000    0.000 
#
# Total GULP energy -290301.022388 kJ/mol
# GULP energy per Si atom -5582.711969 kJ/mol
# Density = 0.889603 g / cm^3
# Si number density = 8.916324 Si / 1000 Ang^3
#
#
#
# Elastic Constant Matrix: (Units=GPa)
#
#
# Indices 1 2 3 4 5 6 
#
# 1 142.9253 33.8808 59.7904 0.0000 0.0000 0.0000
# 2 33.8808 -2.8218 16.2447 0.0000 0.0000 0.0000
# 3 59.7904 16.2447 94.1653 0.0000 0.0000 0.0000
# 4 0.0000 0.0000 0.0000 25.1138 0.0000 0.0000
# 5 0.0000 0.0000 0.0000 0.0000 25.0922 0.0000
# 6 0.0000 0.0000 0.0000 0.0000 0.0000 -2.5326
#
#
#
# Elastic Compliance Matrix: (Units=1/GPa)
#
#
# Indices 1 2 3 4 5 6 
#
# 1 0.004909 0.020569 -0.006665 0.000000 0.000000 0.000000
# 2 0.020569 -0.091614 0.002744 0.000000 0.000000 0.000000
# 3 -0.006665 0.002744 0.014379 0.000000 0.000000 0.000000
# 4 0.000000 0.000000 0.000000 0.039819 0.000000 0.000000
# 5 0.000000 0.000000 0.000000 0.000000 0.039853 0.000000
# 6 0.000000 0.000000 0.000000 0.000000 0.000000 -0.394857
#
#
# Mechanical properties :
#
#
# Convention : Reuss Voigt Hill
#
# Bulk Modulus (GPa) = -25.62088 50.45565 12.41738
# Shear Modulus (GPa) = -11.52557 17.82488 3.14966
#
# Velocity S-wave (km/s) = -2.54504 3.16502 1.33044
# Velocity P-wave (km/s) = 4.79947 6.45847 3.05589
#
# Compressibility (1/GPa) = -0.03903066
#
# Stress axis : x y z
#
# Youngs Moduli (GPa) = 203.70725 -10.91534 69.54822
#
# Poissons Ratio (x) = 0.22452 0.46357
# Poissons Ratio (y) = -4.19015 -0.19084
# Poissons Ratio (z) = 1.35781 0.02995
#
# Static dielectric constant tensor:
#      x y z
#    x 1.621240 0.000000 0.000000 
#    y 0.000000 1.582190 0.000000 
#    z 0.000000 0.000000 1.601980 
# 
# From -- ./inp_files/12851.got.cif
#   From: 2010.05.17/outbox.ucp.g08.bks.cvg/sg63_7_cif.got.tgz:12851.got - 2010.06.11 16:32:19.
