data_PCOD9476766
_publ_section_title
;
Structure prediction by ZEFSAII (Michael W. Deem and Ramdas Pophale) SiO2 
 PCOD9476766
Probable space group: C M C A
;
_chemical_formula_sum "Si O2"
_cell_formula_units_Z 96
_cell_length_a 24.734585
_cell_length_b 13.476780
_cell_length_c 17.995918
_cell_angle_alpha 90.000000
_cell_angle_beta 90.000000
_cell_angle_gamma 90.000000
_cell_volume 5998.805384
_symmetry_space_group_name_H-M "C M C A"
_symmetry_group_IT_number 64
_symmetry_cell_setting 'orthorhombic'
loop_
_space_group_symop_operation_xyz
x,y,z
-x,1/2-y,1/2+z
x,-y,-z
-x,1/2+y,1/2-z
-x,-y,-z
x,1/2+y,1/2-z
-x,y,z
x,1/2-y,1/2+z
1/2+x,1/2+y,z
1/2-x,-y,1/2+z
1/2+x,1/2-y,-z
1/2-x,y,1/2-z
1/2-x,1/2-y,-z
1/2+x,y,1/2-z
1/2-x,1/2+y,z
1/2+x,-y,1/2+z
loop_
_atom_site_type_symbol
_atom_site_label
_atom_site_fract_x
_atom_site_fract_y
_atom_site_fract_z
Si Si1 0.265916 0.640668 0.834925
Si Si2 0.439894 0.862215 0.075674
Si Si3 0.059914 0.409593 0.898479
Si Si4 0.829081 0.261830 0.069030
Si Si5 0.672156 0.321749 0.605335
Si Si6 0.774062 0.549752 0.418817
O O1 0.250000 0.631499 0.750000
O O2 0.214427 0.671018 0.886679
O O3 0.306499 0.731767 0.845799
O O4 0.290709 0.538352 0.864375
O O5 0.500000 0.824413 0.094852
O O6 0.389565 0.791685 0.093071
O O7 0.433167 0.972046 0.109903
O O8 0.439793 0.884106 0.986822
O O9 0.112912 0.354963 0.869965
O O10 0.000000 0.382111 0.870284
O O11 0.811588 0.147559 0.080207
O O12 0.825945 0.285911 0.980975
O O13 0.715019 0.411472 0.606314
O O14 0.771240 0.500000 0.500000
#
# Coordination Sequence:
#
# PCOD9476766 Si02
#       6
#    16  16  16  16  16  16
#     4  11  22  33  46  72 101 127 162 207 245 291
#     4   8  14  25  44  73 100 123 158 206 244 277
#     4   8  14  24  44  74 101 122 156 205 247 280
#     4  10  18  31  52  71  95 129 161 199 244 300
#     4  10  18  30  52  71  97 128 161 198 246 299
#     4  11  18  30  48  70  94 134 168 194 242 298
#
# _framework density 16.003185999999999
#
# number of rings (size 3 to 8) (size 9 to 14) (size 15 to 20)
#    0.000    2.333    3.333    3.000    2.333    2.667 
#    0.000    0.000    0.000    2.500    0.000    0.000 
#    0.000    0.000    0.000    0.000    0.000    0.000 
#
# Total GULP energy -267380.049496 kJ/mol
# GULP energy per Si atom -5570.417698 kJ/mol
# Density = 1.596676 g / cm^3
# Si number density = 16.003186 Si / 1000 Ang^3
#
#
#
# Elastic Constant Matrix: (Units=GPa)
#
#
# Indices 1 2 3 4 5 6 
#
# 1 110.3224 37.7895 -15.8018 0.0000 0.0000 0.0000
# 2 37.7895 78.8233 2.4135 0.0000 0.0000 0.0000
# 3 -15.8018 2.4135 24.4047 0.0000 0.0000 0.0000
# 4 0.0000 0.0000 0.0000 5.4918 0.0000 0.0000
# 5 0.0000 0.0000 0.0000 0.0000 6.0704 0.0000
# 6 0.0000 0.0000 0.0000 0.0000 0.0000 20.2879
#
#
#
# Elastic Compliance Matrix: (Units=1/GPa)
#
#
# Indices 1 2 3 4 5 6 
#
# 1 0.012440 -0.006230 0.008671 0.000000 0.000000 0.000000
# 2 -0.006230 0.015845 -0.005601 0.000000 0.000000 0.000000
# 3 0.008671 -0.005601 0.047144 0.000000 0.000000 0.000000
# 4 0.000000 0.000000 0.000000 0.182090 0.000000 0.000000
# 5 0.000000 0.000000 0.000000 0.000000 0.164733 0.000000
# 6 0.000000 0.000000 0.000000 0.000000 0.000000 0.049290
#
#
# Mechanical properties :
#
#
# Convention : Reuss Voigt Hill
#
# Bulk Modulus (GPa) = 14.46958 29.15031 21.80994
# Shear Modulus (GPa) = 9.98208 18.97998 14.48103
#
# Velocity S-wave (km/s) = 2.50022 3.44759 3.01139
# Velocity P-wave (km/s) = 4.17087 5.83975 5.07439
#
# Compressibility (1/GPa) = 0.06911051
#
# Stress axis : x y z
#
# Youngs Moduli (GPa) = 80.38484 63.11275 21.21163
#
# Poissons Ratio (x) = 0.39316 -0.18392
# Poissons Ratio (y) = 0.50076 0.11880
# Poissons Ratio (z) = -0.69701 0.35346
#
# Static dielectric constant tensor:
#      x y z
#    x 1.560220 0.000000 0.000000 
#    y 0.000000 1.530670 0.000000 
#    z 0.000000 0.000000 1.608190 
# 
# From -- ./inp_files/34971.got.cif
#   From: 2010.05.17/outbox.cif.g08.bks.cpg/sg64_18_cif.got.tgz:34971.got - 2010.06.03 16:29:19.
