data_PCOD9476515
_publ_section_title
;
Structure prediction by ZEFSAII (Michael W. Deem and Ramdas Pophale) SiO2 
 PCOD9476515
Probable space group: C M C A
;
_chemical_formula_sum "Si O2"
_cell_formula_units_Z 96
_cell_length_a 14.939159
_cell_length_b 10.934957
_cell_length_c 23.895577
_cell_angle_alpha 90.000000
_cell_angle_beta 90.000000
_cell_angle_gamma 90.000000
_cell_volume 3903.559027
_symmetry_space_group_name_H-M "C M C A"
_symmetry_group_IT_number 64
_symmetry_cell_setting 'orthorhombic'
loop_
_space_group_symop_operation_xyz
x,y,z
-x,1/2-y,1/2+z
x,-y,-z
-x,1/2+y,1/2-z
-x,-y,-z
x,1/2+y,1/2-z
-x,y,z
x,1/2-y,1/2+z
1/2+x,1/2+y,z
1/2-x,-y,1/2+z
1/2+x,1/2-y,-z
1/2-x,y,1/2-z
1/2-x,1/2-y,-z
1/2+x,y,1/2-z
1/2-x,1/2+y,z
1/2+x,-y,1/2+z
loop_
_atom_site_type_symbol
_atom_site_label
_atom_site_fract_x
_atom_site_fract_y
_atom_site_fract_z
Si Si1 0.660279 0.113022 0.974539
Si Si2 0.601139 0.668669 0.738037
Si Si3 0.838243 0.712229 0.096348
Si Si4 0.106064 0.406722 0.799810
Si Si5 0.860194 0.464752 0.437221
Si Si6 0.365312 0.783500 0.620879
O O1 0.752367 0.059748 0.946614
O O2 0.610380 0.197666 0.931196
O O3 0.682049 0.184908 0.031467
O O4 0.607007 0.000000 0.000000
O O5 0.500000 0.648293 0.759772
O O6 0.642295 0.777338 0.775629
O O7 0.642127 0.533312 0.726982
O O8 0.595827 0.732668 0.677492
O O9 0.882188 0.605892 0.133226
O O10 0.891456 0.839312 0.091528
O O11 0.741850 0.728473 0.124518
O O12 0.000000 0.407951 0.788329
O O13 0.891992 0.500000 0.500000
O O14 0.881208 0.577094 0.396666
#
# Coordination Sequence:
#
# PCOD9476515 Si02
#       6
#    16  16  16  16  16  16
#     4  10  17  30  53  87 124 157 189 235 298 359
#     4  10  24  45  65  83 114 159 206 256 308 362
#     4  11  20  33  60  92 122 159 198 247 296 358
#     4  10  24  46  65  84 114 160 209 254 310 362
#     4  10  17  31  53  91 121 161 192 227 295 361
#     4  11  20  34  59  91 122 153 201 244 295 360
#
# _framework density 24.592943000000002
#
# number of rings (size 3 to 8) (size 9 to 14) (size 15 to 20)
#    0.000    1.667    5.000    2.000    4.667    0.667 
#    0.000    2.500    0.000    4.000    0.000    0.000 
#    0.000    0.000    0.000    0.000    0.000    0.000 
#
# Total GULP energy -267801.676135 kJ/mol
# GULP energy per Si atom -5579.201586 kJ/mol
# Density = 2.453697 g / cm^3
# Si number density = 24.592943 Si / 1000 Ang^3
#
#
#
# Elastic Constant Matrix: (Units=GPa)
#
#
# Indices 1 2 3 4 5 6 
#
# 1 53.4567 1.7546 7.1837 0.0000 0.0000 0.0000
# 2 1.7546 167.1586 31.8800 0.0000 0.0000 0.0000
# 3 7.1837 31.8800 94.3952 0.0000 0.0000 0.0000
# 4 0.0000 0.0000 0.0000 46.7800 0.0000 0.0000
# 5 0.0000 0.0000 0.0000 0.0000 589.1921 0.0000
# 6 0.0000 0.0000 0.0000 0.0000 0.0000 3.9061
#
#
#
# Elastic Compliance Matrix: (Units=1/GPa)
#
#
# Indices 1 2 3 4 5 6 
#
# 1 0.018901 0.000081 -0.001466 0.000000 0.000000 0.000000
# 2 0.000081 0.006395 -0.002166 0.000000 0.000000 0.000000
# 3 -0.001466 -0.002166 0.011437 0.000000 0.000000 0.000000
# 4 0.000000 0.000000 0.000000 0.021377 0.000000 0.000000
# 5 0.000000 0.000000 0.000000 0.000000 0.001697 0.000000
# 6 0.000000 0.000000 0.000000 0.000000 0.000000 0.256008
#
#
# Mechanical properties :
#
#
# Convention : Reuss Voigt Hill
#
# Bulk Modulus (GPa) = 33.74795 44.07190 38.90992
# Shear Modulus (GPa) = 15.02438 146.25514 80.63976
#
# Velocity S-wave (km/s) = 2.47437 7.72007 5.73245
# Velocity P-wave (km/s) = 4.68142 9.87043 7.72467
#
# Compressibility (1/GPa) = 0.02963143
#
# Stress axis : x y z
#
# Youngs Moduli (GPa) = 52.90709 156.38330 87.43736
#
# Poissons Ratio (x) = -0.01269 0.12817
# Poissons Ratio (y) = -0.00429 0.18937
# Poissons Ratio (z) = 0.07755 0.33869
#
# Static dielectric constant tensor:
#      x y z
#    x 1.992840 0.000000 0.000000 
#    y 0.000000 2.113190 0.000000 
#    z 0.000000 0.000000 1.991580 
# 
# From -- ./inp_files/40858.got.cif
#   From: 2010.05.17/outbox.cif.g08.bks.cpg/sg64_21_cif.got.tgz:40858.got - 2010.06.03 16:29:19.
