data_PCOD9476965
_publ_section_title
;
Structure prediction by ZEFSAII (Michael W. Deem and Ramdas Pophale) SiO2 
 PCOD9476965
Probable space group: C M C A
;
_chemical_formula_sum "Si O2"
_cell_formula_units_Z 96
_cell_length_a 7.613630
_cell_length_b 20.462952
_cell_length_c 28.530176
_cell_angle_alpha 90.000000
_cell_angle_beta 90.000000
_cell_angle_gamma 90.000000
_cell_volume 4444.925680
_symmetry_space_group_name_H-M "C M C A"
_symmetry_group_IT_number 64
_symmetry_cell_setting 'orthorhombic'
loop_
_space_group_symop_operation_xyz
x,y,z
-x,1/2-y,1/2+z
x,-y,-z
-x,1/2+y,1/2-z
-x,-y,-z
x,1/2+y,1/2-z
-x,y,z
x,1/2-y,1/2+z
1/2+x,1/2+y,z
1/2-x,-y,1/2+z
1/2+x,1/2-y,-z
1/2-x,y,1/2-z
1/2-x,1/2-y,-z
1/2+x,y,1/2-z
1/2-x,1/2+y,z
1/2+x,-y,1/2+z
loop_
_atom_site_type_symbol
_atom_site_label
_atom_site_fract_x
_atom_site_fract_y
_atom_site_fract_z
Si Si1 0.298545 0.091542 0.043535
Si Si2 0.208779 0.307653 0.801803
Si Si3 0.284878 0.973722 0.104513
Si Si4 0.289731 0.957419 0.801694
Si Si5 0.704346 0.285762 0.902879
Si Si6 0.785100 0.846378 0.447529
O O1 0.500000 0.075936 0.031017
O O2 0.222893 0.025200 0.064880
O O3 0.295883 0.146295 0.084062
O O4 0.222637 0.126166 0.997542
O O5 0.250000 0.281376 0.750000
O O6 0.278576 0.382672 0.803598
O O7 0.279739 0.271771 0.847640
O O8 0.000000 0.309416 0.806520
O O9 0.500000 0.975952 0.104238
O O10 0.224954 0.999798 0.154895
O O11 0.234924 0.900774 0.090602
O O12 0.500000 0.953467 0.806012
O O13 0.250000 0.983825 0.750000
O O14 0.500000 0.295075 0.914103
O O15 0.776055 0.225543 0.933260
O O16 0.000000 0.842664 0.448546
#
# Coordination Sequence:
#
# PCOD9476965 Si02
#       6
#    16  16  16  16  16  16
#     4  10  18  33  56  78  99 135 184 226 260 301
#     4  10  19  34  55  81 104 133 174 217 261 306
#     4   9  16  31  53  78 102 130 174 223 262 304
#     4   9  17  30  51  77 100 125 163 211 257 301
#     4  11  21  33  50  78 111 143 172 210 262 314
#     4   9  19  32  51  77 106 138 176 219 263 311
#
# _framework density 21.597662
#
# number of rings (size 3 to 8) (size 9 to 14) (size 15 to 20)
#    0.000    2.333    1.667    2.000    0.000    2.667 
#    0.000    1.667    0.000    9.000    0.000    0.000 
#    0.000    0.000    0.000    0.000    0.000    0.000 
#
# Total GULP energy -268001.705569 kJ/mol
# GULP energy per Si atom -5583.368866 kJ/mol
# Density = 2.154851 g / cm^3
# Si number density = 21.597662 Si / 1000 Ang^3
#
#
#
# Elastic Constant Matrix: (Units=GPa)
#
#
# Indices 1 2 3 4 5 6 
#
# 1 52.8561 -1.1822 -7.0394 0.0000 0.0000 0.0000
# 2 -1.1822 44.2624 -17.4862 0.0000 0.0000 0.0000
# 3 -7.0394 -17.4862 83.0985 0.0000 0.0000 0.0000
# 4 0.0000 0.0000 0.0000 14.8972 0.0000 0.0000
# 5 0.0000 0.0000 0.0000 0.0000 18.1466 0.0000
# 6 0.0000 0.0000 0.0000 0.0000 0.0000 1.8154
#
#
#
# Elastic Compliance Matrix: (Units=1/GPa)
#
#
# Indices 1 2 3 4 5 6 
#
# 1 0.019199 0.001260 0.001892 0.000000 0.000000 0.000000
# 2 0.001260 0.024724 0.005309 0.000000 0.000000 0.000000
# 3 0.001892 0.005309 0.013311 0.000000 0.000000 0.000000
# 4 0.000000 0.000000 0.000000 0.067127 0.000000 0.000000
# 5 0.000000 0.000000 0.000000 0.000000 0.055107 0.000000
# 6 0.000000 0.000000 0.000000 0.000000 0.000000 0.550836
#
#
# Mechanical properties :
#
#
# Convention : Reuss Voigt Hill
#
# Bulk Modulus (GPa) = 13.48505 14.31127 13.89816
# Shear Modulus (GPa) = 6.77414 20.70017 13.73716
#
# Velocity S-wave (km/s) = 1.77294 3.09923 2.52474
# Velocity P-wave (km/s) = 3.23240 4.40995 3.86627
#
# Compressibility (1/GPa) = 0.07415621
#
# Stress axis : x y z
#
# Youngs Moduli (GPa) = 52.08494 40.44712 75.12383
#
# Poissons Ratio (x) = -0.05097 -0.14210
# Poissons Ratio (y) = -0.06563 -0.39885
# Poissons Ratio (z) = -0.09852 -0.21474
#
# Static dielectric constant tensor:
#      x y z
#    x 1.830480 0.000000 0.000000 
#    y 0.000000 1.746300 0.000000 
#    z 0.000000 0.000000 1.807830 
# 
# From -- ./inp_files/48079.got.cif
#   From: 2010.05.17/outbox.cif.g08.bks.cpg/sg64_25_cif.got.tgz:48079.got - 2010.06.03 16:29:19.
