data_PCOD9476678
_publ_section_title
;
Structure prediction by ZEFSAII (Michael W. Deem and Ramdas Pophale) SiO2 
 PCOD9476678
Probable space group: C M C A
;
_chemical_formula_sum "Si O2"
_cell_formula_units_Z 96
_cell_length_a 9.156076
_cell_length_b 24.486668
_cell_length_c 26.446153
_cell_angle_alpha 90.000000
_cell_angle_beta 90.000000
_cell_angle_gamma 90.000000
_cell_volume 5929.274926
_symmetry_space_group_name_H-M "C M C A"
_symmetry_group_IT_number 64
_symmetry_cell_setting 'orthorhombic'
loop_
_space_group_symop_operation_xyz
x,y,z
-x,1/2-y,1/2+z
x,-y,-z
-x,1/2+y,1/2-z
-x,-y,-z
x,1/2+y,1/2-z
-x,y,z
x,1/2-y,1/2+z
1/2+x,1/2+y,z
1/2-x,-y,1/2+z
1/2+x,1/2-y,-z
1/2-x,y,1/2-z
1/2-x,1/2-y,-z
1/2+x,y,1/2-z
1/2-x,1/2+y,z
1/2+x,-y,1/2+z
loop_
_atom_site_type_symbol
_atom_site_label
_atom_site_fract_x
_atom_site_fract_y
_atom_site_fract_z
Si Si1 0.326932 0.337320 0.894703
Si Si2 0.674285 0.414840 0.803825
Si Si3 0.674399 0.493478 0.115725
Si Si4 0.172225 0.894134 0.425097
Si Si5 0.328937 0.926179 0.959268
Si Si6 0.174087 0.271788 0.051054
O O1 0.500000 0.349255 0.903976
O O2 0.292158 0.362956 0.840072
O O3 0.228898 0.370356 0.934401
O O4 0.304850 0.273659 0.905466
O O5 0.500000 0.416250 0.797020
O O6 0.750000 0.412322 0.750000
O O7 0.715956 0.468842 0.836189
O O8 0.500000 0.490895 0.113390
O O9 0.742660 0.433428 0.113022
O O10 0.735383 0.527234 0.067752
O O11 0.187654 0.920351 0.480943
O O12 0.224144 0.831641 0.431178
O O13 0.000000 0.893647 0.412512
O O14 0.500000 0.935083 0.948195
O O15 0.000000 0.276073 0.040780
O O16 0.250000 0.250000 0.000000
#
# Coordination Sequence:
#
# PCOD9476678 Si02
#       6
#    16  16  16  16  16  16
#     4   9  18  32  50  73 102 132 166 204 245 292
#     4   9  19  35  54  76  95 119 159 208 259 305
#     4  10  21  34  48  70  98 128 165 204 250 302
#     4  10  20  31  45  70 102 136 171 201 237 285
#     4  10  18  29  46  70 101 132 167 205 237 283
#     4  10  19  32  49  71 103 140 173 203 237 286
#
# _framework density 16.190849
#
# number of rings (size 3 to 8) (size 9 to 14) (size 15 to 20)
#    0.000    2.333    1.667    2.500    0.000    7.333 
#    0.000    0.000    0.000    1.000    0.000    4.667 
#    0.000    0.000    0.000    0.000    0.000    0.000 
#
# Total GULP energy -267565.642586 kJ/mol
# GULP energy per Si atom -5574.284221 kJ/mol
# Density = 1.615400 g / cm^3
# Si number density = 16.190849 Si / 1000 Ang^3
#
#
#
# Elastic Constant Matrix: (Units=GPa)
#
#
# Indices 1 2 3 4 5 6 
#
# 1 32.7097 30.8076 38.9618 0.0000 0.0000 0.0000
# 2 30.8076 116.1873 50.5667 0.0000 0.0000 0.0000
# 3 38.9618 50.5667 82.1419 0.0000 0.0000 0.0000
# 4 0.0000 0.0000 0.0000 9.0974 0.0000 0.0000
# 5 0.0000 0.0000 0.0000 0.0000 23.8710 0.0000
# 6 0.0000 0.0000 0.0000 0.0000 0.0000 24.4275
#
#
#
# Elastic Compliance Matrix: (Units=1/GPa)
#
#
# Indices 1 2 3 4 5 6 
#
# 1 0.073089 -0.005863 -0.031059 0.000000 0.000000 0.000000
# 2 -0.005863 0.012227 -0.004746 0.000000 0.000000 0.000000
# 3 -0.031059 -0.004746 0.029828 0.000000 0.000000 0.000000
# 4 0.000000 0.000000 0.000000 0.109922 0.000000 0.000000
# 5 0.000000 0.000000 0.000000 0.000000 0.041892 0.000000
# 6 0.000000 0.000000 0.000000 0.000000 0.000000 0.040938
#
#
# Mechanical properties :
#
#
# Convention : Reuss Voigt Hill
#
# Bulk Modulus (GPa) = 31.43803 52.41234 41.92518
# Shear Modulus (GPa) = 12.44299 18.85936 15.65117
#
# Velocity S-wave (km/s) = 2.77523 3.41664 3.11250
# Velocity P-wave (km/s) = 5.45238 6.92867 6.23438
#
# Compressibility (1/GPa) = 0.03180861
#
# Stress axis : x y z
#
# Youngs Moduli (GPa) = 13.68194 81.78702 33.52589
#
# Poissons Ratio (x) = 0.47948 1.04127
# Poissons Ratio (y) = 0.08021 0.15912
# Poissons Ratio (z) = 0.42494 0.38817
#
# Static dielectric constant tensor:
#      x y z
#    x 1.543360 0.000000 0.000000 
#    y 0.000000 1.582640 0.000000 
#    z 0.000000 0.000000 1.515170 
# 
# From -- ./inp_files/48341.got.cif
#   From: 2010.05.17/outbox.cif.g08.bks.cpg/sg64_25_cif.got.tgz:48341.got - 2010.06.03 16:29:19.
