data_PCOD9476126
_publ_section_title
;
Structure prediction by ZEFSAII (Michael W. Deem and Ramdas Pophale) SiO2 
 PCOD9476126
Probable space group: C M C M
;
_chemical_formula_sum "Si O2"
_cell_formula_units_Z 48
_cell_length_a 15.000000
_cell_length_b 15.000000
_cell_length_c 21.000000
_cell_angle_alpha 90.000000
_cell_angle_beta 90.000000
_cell_angle_gamma 90.000000
_cell_volume 4725.000000
_symmetry_space_group_name_H-M "C M C M"
_symmetry_group_IT_number 63
_symmetry_cell_setting 'orthorhombic'
loop_
_space_group_symop_operation_xyz
x,y,z
-x,-y,1/2+z
x,-y,-z
-x,y,1/2-z
-x,-y,-z
x,y,1/2-z
-x,y,z
x,-y,1/2+z
1/2+x,1/2+y,z
1/2-x,1/2-y,1/2+z
1/2+x,1/2-y,-z
1/2-x,1/2+y,1/2-z
1/2-x,1/2-y,-z
1/2+x,1/2+y,1/2-z
1/2-x,1/2+y,z
1/2+x,1/2-y,1/2+z
loop_
_atom_site_type_symbol
_atom_site_label
_atom_site_fract_x
_atom_site_fract_y
_atom_site_fract_z
Si Si1 0.893816 0.617599 0.926190
Si Si2 0.892190 0.515246 0.316856
Si Si3 0.723696 0.836167 0.538494
Si Si4 0.106260 0.825676 0.615378
Si Si5 0.107109 0.717424 0.154729
Si Si6 0.390937 0.627349 0.750000
Si Si7 0.607229 0.419052 0.750000
O O1 0.862403 0.542757 0.876244
O O2 0.885159 0.717875 0.895305
O O3 0.000000 0.606565 0.939873
O O4 0.834469 0.607129 0.989180
O O5 0.861686 0.474808 0.250000
O O6 0.870290 0.619968 0.316242
O O7 0.000000 0.510723 0.318683
O O8 0.750000 0.750000 0.500000
O O9 0.816199 0.868616 0.570734
O O10 0.655267 0.794981 0.588834
O O11 0.128532 0.862715 0.686137
O O12 0.000000 0.846083 0.602595
O O13 0.135258 0.807575 0.191112
O O14 0.000000 0.720821 0.150240
O O15 0.500000 0.624725 0.750000
O O16 0.360815 0.523488 0.750000
O O17 0.500000 0.425821 0.750000
#
# Coordination Sequence:
#
# PCOD9476126 Si02
#       7
#    16  16  16  16  16   8   8
#     4   9  18  33  57  90 124 157 186 225 287 355
#     4   9  17  31  55  89 124 153 185 225 286 362
#     4  10  21  37  56  82 121 156 198 234 276 349
#     4   9  19  36  59  83 114 154 197 248 295 333
#     4  10  19  35  60  85 117 155 186 233 290 345
#     4   9  18  35  59  85 112 147 199 246 289 335
#     4   9  18  35  59  85 110 147 203 256 297 335
#
# _framework density 10.15873
#
# number of rings (size 3 to 8) (size 9 to 14) (size 15 to 20)
#    0.000    2.667    0.833    0.500    1.167    2.000 
#    0.000    7.500    0.000    3.000    0.000   22.167 
#    0.000    0.000    0.000    0.000    0.000    0.000 
#
# Total GULP energy -267220.502133 kJ/mol
# GULP energy per Si atom -5567.093794 kJ/mol
# Density = 1.013561 g / cm^3
# Si number density = 10.158730 Si / 1000 Ang^3
#
#
#
# Elastic Constant Matrix: (Units=GPa)
#
#
# Indices 1 2 3 4 5 6 
#
# 1 43.0308 38.3012 51.1485 0.0000 0.0000 0.0000
# 2 38.3012 80.8784 58.8194 0.0000 0.0000 0.0000
# 3 51.1485 58.8194 162.9555 0.0000 0.0000 0.0000
# 4 0.0000 0.0000 0.0000 38.9562 0.0000 0.0000
# 5 0.0000 0.0000 0.0000 0.0000 189.3169 0.0000
# 6 0.0000 0.0000 0.0000 0.0000 0.0000 7.8836
#
#
#
# Elastic Compliance Matrix: (Units=1/GPa)
#
#
# Indices 1 2 3 4 5 6 
#
# 1 0.049073 -0.016322 -0.009512 0.000000 0.000000 0.000000
# 2 -0.016322 0.022194 -0.002888 0.000000 0.000000 0.000000
# 3 -0.009512 -0.002888 0.010165 0.000000 0.000000 0.000000
# 4 0.000000 0.000000 0.000000 0.025670 0.000000 0.000000
# 5 0.000000 0.000000 0.000000 0.000000 0.005282 0.000000
# 6 0.000000 0.000000 0.000000 0.000000 0.000000 0.126846
#
#
# Mechanical properties :
#
#
# Convention : Reuss Voigt Hill
#
# Bulk Modulus (GPa) = 41.68617 64.82255 53.25436
# Shear Modulus (GPa) = 16.41128 56.47106 36.44117
#
# Velocity S-wave (km/s) = 2.84516 5.27775 4.23967
# Velocity P-wave (km/s) = 5.59957 8.31346 7.08763
#
# Compressibility (1/GPa) = 0.02398877
#
# Stress axis : x y z
#
# Youngs Moduli (GPa) = 20.37777 45.05727 98.38137
#
# Poissons Ratio (x) = 0.73542 0.93576
# Poissons Ratio (y) = 0.33261 0.28411
# Poissons Ratio (z) = 0.19383 0.13012
#
# Static dielectric constant tensor:
#      x y z
#    x 1.738030 0.000000 0.000000 
#    y 0.000000 1.705000 0.000000 
#    z 0.000000 0.000000 1.770190 
# 
# From -- ./inp_files/54247.got.cif
#   From: 2010.05.17/outbox.ucp.g08.bks.cvg/sg63_28_cif.got.tgz:54247.got - 2010.06.11 16:32:19.
