data_PCOD9476262
_publ_section_title
;
Structure prediction by ZEFSAII (Michael W. Deem and Ramdas Pophale) SiO2 
 PCOD9476262
Probable space group: C M C M
;
_chemical_formula_sum "Si O2"
_cell_formula_units_Z 48
_cell_length_a 9.000000
_cell_length_b 21.000000
_cell_length_c 27.000000
_cell_angle_alpha 90.000000
_cell_angle_beta 90.000000
_cell_angle_gamma 90.000000
_cell_volume 5103.000000
_symmetry_space_group_name_H-M "C M C M"
_symmetry_group_IT_number 63
_symmetry_cell_setting 'orthorhombic'
loop_
_space_group_symop_operation_xyz
x,y,z
-x,-y,1/2+z
x,-y,-z
-x,y,1/2-z
-x,-y,-z
x,y,1/2-z
-x,y,z
x,-y,1/2+z
1/2+x,1/2+y,z
1/2-x,1/2-y,1/2+z
1/2+x,1/2-y,-z
1/2-x,1/2+y,1/2-z
1/2-x,1/2-y,-z
1/2+x,1/2+y,1/2-z
1/2-x,1/2+y,z
1/2+x,1/2-y,1/2+z
loop_
_atom_site_type_symbol
_atom_site_label
_atom_site_fract_x
_atom_site_fract_y
_atom_site_fract_z
Si Si1 0.821614 0.311565 0.973678
Si Si2 0.821754 0.818467 0.634915
Si Si3 0.323123 0.432620 0.025878
Si Si4 0.176968 0.562395 0.309067
Si Si5 0.176699 0.937513 0.143677
Si Si6 0.677262 0.813760 0.308283
O O1 0.757783 0.315473 0.918121
O O2 0.000000 0.306688 0.973588
O O3 0.750000 0.250000 0.000000
O O4 0.768711 0.374908 0.002408
O O5 0.759127 0.878442 0.665196
O O6 0.791752 0.753061 0.664623
O O7 0.000000 0.824577 0.628586
O O8 0.500000 0.420617 0.018089
O O9 0.296738 0.437321 0.084618
O O10 0.287499 0.500000 0.000000
O O11 0.201808 0.563593 0.250000
O O12 0.240325 0.496939 0.331405
O O13 0.000000 0.566466 0.318027
O O14 0.235845 0.871851 0.166828
O O15 0.000000 0.943540 0.151802
O O16 0.712911 0.809310 0.250000
O O17 0.500000 0.825835 0.312733
#
# Coordination Sequence:
#
# PCOD9476262 Si02
#       6
#    16  16  16  16  16  16
#     4  12  25  41  63  91 124 161 202 248 301 363
#     4  11  23  41  65  91 121 158 202 252 304 359
#     4  10  22  41  63  88 120 158 202 252 303 357
#     4  11  24  41  62  90 125 163 203 249 300 357
#     4  11  23  38  61  91 121 157 202 251 301 355
#     4  10  22  40  61  86 118 157 199 244 297 357
#
# _framework density 9.4062319999999993
#
# number of rings (size 3 to 8) (size 9 to 14) (size 15 to 20)
#    0.000    1.167    0.000    6.000    0.000   11.333 
#    0.000    0.000    0.000    0.000    0.000    0.000 
#    0.000    0.000    0.000    0.000    0.000    0.000 
#
# Total GULP energy -268619.219028 kJ/mol
# GULP energy per Si atom -5596.233730 kJ/mol
# Density = 0.938482 g / cm^3
# Si number density = 9.406232 Si / 1000 Ang^3
#
#
#
# Elastic Constant Matrix: (Units=GPa)
#
#
# Indices 1 2 3 4 5 6 
#
# 1 136.0040 105.0396 97.2682 0.0000 0.0000 0.0000
# 2 105.0396 183.8105 93.4452 0.0000 0.0000 0.0000
# 3 97.2682 93.4452 149.2292 0.0000 0.0000 0.0000
# 4 0.0000 0.0000 0.0000 44.6754 0.0000 0.0000
# 5 0.0000 0.0000 0.0000 0.0000 33.4915 0.0000
# 6 0.0000 0.0000 0.0000 0.0000 0.0000 41.7961
#
#
#
# Elastic Compliance Matrix: (Units=1/GPa)
#
#
# Indices 1 2 3 4 5 6 
#
# 1 0.017525 -0.006173 -0.007558 0.000000 0.000000 0.000000
# 2 -0.006173 0.010155 -0.002336 0.000000 0.000000 0.000000
# 3 -0.007558 -0.002336 0.013090 0.000000 0.000000 0.000000
# 4 0.000000 0.000000 0.000000 0.022384 0.000000 0.000000
# 5 0.000000 0.000000 0.000000 0.000000 0.029858 0.000000
# 6 0.000000 0.000000 0.000000 0.000000 0.000000 0.023926
#
#
# Mechanical properties :
#
#
# Convention : Reuss Voigt Hill
#
# Bulk Modulus (GPa) = 115.76691 117.83886 116.80289
# Shear Modulus (GPa) = 32.90561 35.54533 34.22547
#
# Velocity S-wave (km/s) = 4.18681 4.35150 4.26995
# Velocity P-wave (km/s) = 9.22190 9.38201 9.30230
#
# Compressibility (1/GPa) = 0.00863805
#
# Stress axis : x y z
#
# Youngs Moduli (GPa) = 57.06024 98.47151 76.39505
#
# Poissons Ratio (x) = 0.60784 0.57738
# Poissons Ratio (y) = 0.35222 0.17843
# Poissons Ratio (z) = 0.43125 0.22999
#
# Static dielectric constant tensor:
#      x y z
#    x 1.629980 0.000000 0.000000 
#    y 0.000000 1.609120 0.000000 
#    z 0.000000 0.000000 1.624510 
# 
# From -- ./inp_files/66925.got.cif
#   From: 2010.05.17/outbox.ucp.g08.bks.cvg/sg63_34_cif.got.tgz:66925.got - 2010.06.11 16:32:19.
