data_PCOD9476526
_publ_section_title
;
Structure prediction by ZEFSAII (Michael W. Deem and Ramdas Pophale) SiO2 
 PCOD9476526
Probable space group: C M C A
;
_chemical_formula_sum "Si O2"
_cell_formula_units_Z 128
_cell_length_a 24.810542
_cell_length_b 22.199646
_cell_length_c 12.454122
_cell_angle_alpha 90.000000
_cell_angle_beta 90.000000
_cell_angle_gamma 90.000000
_cell_volume 6859.546693
_symmetry_space_group_name_H-M "C M C A"
_symmetry_group_IT_number 64
_symmetry_cell_setting 'orthorhombic'
loop_
_space_group_symop_operation_xyz
x,y,z
-x,1/2-y,1/2+z
x,-y,-z
-x,1/2+y,1/2-z
-x,-y,-z
x,1/2+y,1/2-z
-x,y,z
x,1/2-y,1/2+z
1/2+x,1/2+y,z
1/2-x,-y,1/2+z
1/2+x,1/2-y,-z
1/2-x,y,1/2-z
1/2-x,1/2-y,-z
1/2+x,y,1/2-z
1/2-x,1/2+y,z
1/2+x,-y,1/2+z
loop_
_atom_site_type_symbol
_atom_site_label
_atom_site_fract_x
_atom_site_fract_y
_atom_site_fract_z
Si Si1 0.191703 0.802747 0.292276
Si Si2 0.342264 0.329321 0.525033
Si Si3 0.143515 0.042108 0.404356
Si Si4 0.436087 0.589748 0.981517
Si Si5 0.881179 0.491113 0.656911
Si Si6 0.279485 0.675941 0.104289
Si Si7 0.766979 0.960328 0.862063
Si Si8 0.633309 0.699210 0.927008
O O1 0.250000 0.824417 0.250000
O O2 0.171632 0.836342 0.399052
O O3 0.200428 0.732443 0.326291
O O4 0.149244 0.807152 0.196805
O O5 0.369377 0.388010 0.574873
O O6 0.283728 0.316782 0.579368
O O7 0.375556 0.268756 0.543932
O O8 0.125768 0.021221 0.284639
O O9 0.209369 0.042766 0.418844
O O10 0.122096 0.000000 0.500000
O O11 0.500000 0.584848 0.986968
O O12 0.413485 0.549610 0.882350
O O13 0.414833 0.656622 0.962553
O O14 0.410068 0.562458 0.090473
O O15 0.820435 0.496100 0.610006
O O16 0.286253 0.609238 0.152515
O O17 0.314031 0.678789 0.995501
O O18 0.750000 0.988245 0.750000
#
# Coordination Sequence:
#
# PCOD9476526 Si02
#       8
#    16  16  16  16  16  16  16  16
#     4  11  18  29  51  86 126 169 204 237 295 368
#     4  10  21  33  54  87 135 170 205 232 291 391
#     4  10  23  36  55  95 139 171 196 231 303 397
#     4  11  25  44  68  91 112 150 224 290 322 348
#     4  10  21  40  66  86 117 167 209 259 315 363
#     4  10  17  31  49  83 127 163 202 235 285 371
#     4   9  18  31  52  84 126 169 194 235 284 367
#     4  11  21  33  57  89 119 160 202 264 315 355
#
# _framework density 18.660125000000001
#
# number of rings (size 3 to 8) (size 9 to 14) (size 15 to 20)
#    0.000    1.750    3.750    1.875    7.000    0.000 
#    0.000    0.000    0.000    9.000    0.000    0.000 
#    0.000    0.000    0.000    0.000    0.000    0.000 
#
# Total GULP energy -356825.125218 kJ/mol
# GULP energy per Si atom -5575.392582 kJ/mol
# Density = 1.861765 g / cm^3
# Si number density = 18.660125 Si / 1000 Ang^3
#
#
#
# Elastic Constant Matrix: (Units=GPa)
#
#
# Indices 1 2 3 4 5 6 
#
# 1 72.4043 39.6312 27.7659 0.0000 0.0000 0.0000
# 2 39.6312 67.6357 32.9791 0.0000 0.0000 0.0000
# 3 27.7659 32.9791 126.1462 0.0000 0.0000 0.0000
# 4 0.0000 0.0000 0.0000 19.4500 0.0000 0.0000
# 5 0.0000 0.0000 0.0000 0.0000 14.9459 0.0000
# 6 0.0000 0.0000 0.0000 0.0000 0.0000 0.5681
#
#
#
# Elastic Compliance Matrix: (Units=1/GPa)
#
#
# Indices 1 2 3 4 5 6 
#
# 1 0.020604 -0.011302 -0.001580 0.000000 0.000000 0.000000
# 2 -0.011302 0.023145 -0.003563 0.000000 0.000000 0.000000
# 3 -0.001580 -0.003563 0.009207 0.000000 0.000000 0.000000
# 4 0.000000 0.000000 0.000000 0.051414 0.000000 0.000000
# 5 0.000000 0.000000 0.000000 0.000000 0.066908 0.000000
# 6 0.000000 0.000000 0.000000 0.000000 0.000000 1.760172
#
#
# Mechanical properties :
#
#
# Convention : Reuss Voigt Hill
#
# Bulk Modulus (GPa) = 49.84037 51.88208 50.86122
# Shear Modulus (GPa) = 2.53675 18.04680 10.29177
#
# Velocity S-wave (km/s) = 1.16722 3.11325 2.35103
# Velocity P-wave (km/s) = 5.34641 6.38648 5.88945
#
# Compressibility (1/GPa) = 0.02006406
#
# Stress axis : x y z
#
# Youngs Moduli (GPa) = 48.53492 43.20577 108.61665
#
# Poissons Ratio (x) = 0.48832 0.17164
# Poissons Ratio (y) = 0.54855 0.38703
# Poissons Ratio (z) = 0.07670 0.15395
#
# Static dielectric constant tensor:
#      x y z
#    x 1.635740 0.000000 0.000000 
#    y 0.000000 1.691960 0.000000 
#    z 0.000000 0.000000 1.672940 
# 
# From -- ./inp_files/18667.got.cif
#   From: 2010.05.17/outbox.cif.g08.bks.cpg/sg64_10_cif.got.tgz:18667.got - 2010.06.03 16:29:19.
