data_PCOD9476492
_publ_section_title
;
Structure prediction by ZEFSAII (Michael W. Deem and Ramdas Pophale) SiO2 
 PCOD9476492
Probable space group: C M C A
;
_chemical_formula_sum "Si O2"
_cell_formula_units_Z 88
_cell_length_a 18.540554
_cell_length_b 18.444189
_cell_length_c 13.206900
_cell_angle_alpha 90.000000
_cell_angle_beta 90.000000
_cell_angle_gamma 90.000000
_cell_volume 4516.303926
_symmetry_space_group_name_H-M "C M C A"
_symmetry_group_IT_number 64
_symmetry_cell_setting 'orthorhombic'
loop_
_space_group_symop_operation_xyz
x,y,z
-x,1/2-y,1/2+z
x,-y,-z
-x,1/2+y,1/2-z
-x,-y,-z
x,1/2+y,1/2-z
-x,y,z
x,1/2-y,1/2+z
1/2+x,1/2+y,z
1/2-x,-y,1/2+z
1/2+x,1/2-y,-z
1/2-x,y,1/2-z
1/2-x,1/2-y,-z
1/2+x,y,1/2-z
1/2-x,1/2+y,z
1/2+x,-y,1/2+z
loop_
_atom_site_type_symbol
_atom_site_label
_atom_site_fract_x
_atom_site_fract_y
_atom_site_fract_z
Si Si1 0.176100 0.255268 0.141272
Si Si2 0.250000 0.614817 0.750000
Si Si3 0.419487 0.172827 0.203695
Si Si4 0.778138 0.875178 0.638994
Si Si5 0.918023 0.214839 0.969795
Si Si6 0.680243 0.573470 0.956994
O O1 0.193019 0.329408 0.198158
O O2 0.122975 0.198838 0.197476
O O3 0.250343 0.209312 0.132278
O O4 0.133747 0.265582 0.037630
O O5 0.286183 0.572136 0.843795
O O6 0.500000 0.145129 0.220701
O O7 0.364103 0.120239 0.146232
O O8 0.423729 0.245454 0.137056
O O9 0.750000 0.900970 0.750000
O O10 0.742389 0.910591 0.540966
O O11 0.876439 0.139125 0.961032
O O12 0.000000 0.208005 0.009790
O O13 0.646130 0.500000 0.000000
#
# Coordination Sequence:
#
# PCOD9476492 Si02
#       6
#    16   8  16  16  16  16
#     4  10  17  32  55  83 109 140 177 234 295 344
#     4  12  20  36  58  84 112 148 194 246 294 340
#     4  10  17  29  51  84 114 136 169 225 294 347
#     4   9  18  35  55  81 111 144 183 237 288 339
#     4  10  20  34  55  84 116 145 182 233 293 346
#     4  11  24  37  57  80 114 160 205 237 272 337
#
# _framework density 19.484960000000001
#
# number of rings (size 3 to 8) (size 9 to 14) (size 15 to 20)
#    0.000    1.818    4.545    1.636    1.273    3.273 
#    0.000    0.000    0.000    0.545    0.000    0.000 
#    0.000    0.000    0.000    0.000    0.000    0.000 
#
# Total GULP energy -245213.457150 kJ/mol
# GULP energy per Si atom -5573.033117 kJ/mol
# Density = 1.944061 g / cm^3
# Si number density = 19.484960 Si / 1000 Ang^3
#
#
#
# Elastic Constant Matrix: (Units=GPa)
#
#
# Indices 1 2 3 4 5 6 
#
# 1 129.8580 -0.2266 22.3082 0.0000 0.0000 0.0000
# 2 -0.2266 38.3871 13.5080 0.0000 0.0000 0.0000
# 3 22.3082 13.5080 95.7015 0.0000 0.0000 0.0000
# 4 0.0000 0.0000 0.0000 21.2490 0.0000 0.0000
# 5 0.0000 0.0000 0.0000 0.0000 24.7753 0.0000
# 6 0.0000 0.0000 0.0000 0.0000 0.0000 8.0528
#
#
#
# Elastic Compliance Matrix: (Units=1/GPa)
#
#
# Indices 1 2 3 4 5 6 
#
# 1 0.008042 0.000744 -0.001980 0.000000 0.000000 0.000000
# 2 0.000744 0.027481 -0.004052 0.000000 0.000000 0.000000
# 3 -0.001980 -0.004052 0.011483 0.000000 0.000000 0.000000
# 4 0.000000 0.000000 0.000000 0.047061 0.000000 0.000000
# 5 0.000000 0.000000 0.000000 0.000000 0.040363 0.000000
# 6 0.000000 0.000000 0.000000 0.000000 0.000000 0.124181
#
#
# Mechanical properties :
#
#
# Convention : Reuss Voigt Hill
#
# Bulk Modulus (GPa) = 27.45011 37.23621 32.34316
# Shear Modulus (GPa) = 17.77276 26.03921 21.90598
#
# Velocity S-wave (km/s) = 3.02342 3.65961 3.35662
# Velocity P-wave (km/s) = 5.12899 6.08348 5.62651
#
# Compressibility (1/GPa) = 0.03642973
#
# Stress axis : x y z
#
# Youngs Moduli (GPa) = 124.34567 36.38914 87.08842
#
# Poissons Ratio (x) = -0.02708 0.17240
# Poissons Ratio (y) = -0.09252 0.35291
# Poissons Ratio (z) = 0.24616 0.14746
#
# Static dielectric constant tensor:
#      x y z
#    x 1.713320 0.000000 0.000000 
#    y 0.000000 1.687330 0.000000 
#    z 0.000000 0.000000 1.753910 
# 
# From -- ./inp_files/25401.got.cif
#   From: 2010.05.17/outbox.cif.g08.bks.cpg/sg64_13_cif.got.tgz:25401.got - 2010.06.03 16:29:19.
