data_PCOD9476231
_publ_section_title
;
Structure prediction by ZEFSAII (Michael W. Deem and Ramdas Pophale) SiO2 
 PCOD9476231
Probable space group: C M C M
;
_chemical_formula_sum "Si O2"
_cell_formula_units_Z 44
_cell_length_a 21.000000
_cell_length_b 24.000000
_cell_length_c 9.000000
_cell_angle_alpha 90.000000
_cell_angle_beta 90.000000
_cell_angle_gamma 90.000000
_cell_volume 4536.000000
_symmetry_space_group_name_H-M "C M C M"
_symmetry_group_IT_number 63
_symmetry_cell_setting 'orthorhombic'
loop_
_space_group_symop_operation_xyz
x,y,z
-x,-y,1/2+z
x,-y,-z
-x,y,1/2-z
-x,-y,-z
x,y,1/2-z
-x,y,z
x,-y,1/2+z
1/2+x,1/2+y,z
1/2-x,1/2-y,1/2+z
1/2+x,1/2-y,-z
1/2-x,1/2+y,1/2-z
1/2-x,1/2-y,-z
1/2+x,1/2+y,1/2-z
1/2-x,1/2+y,z
1/2+x,1/2-y,1/2+z
loop_
_atom_site_type_symbol
_atom_site_label
_atom_site_fract_x
_atom_site_fract_y
_atom_site_fract_z
Si Si1 0.131725 0.125287 0.926369
Si Si2 0.743756 0.440706 0.927325
Si Si3 0.820066 0.249327 0.573832
Si Si4 0.429605 0.834238 0.571859
Si Si5 0.000000 0.938056 0.428408
Si Si6 0.879409 0.559777 0.572004
O O1 0.142735 0.113142 0.750000
O O2 0.141672 0.191304 0.945057
O O3 0.063528 0.097820 0.965559
O O4 0.186728 0.099031 0.026701
O O5 0.752003 0.444439 0.750000
O O6 0.727410 0.500000 0.000000
O O7 0.809985 0.424389 0.005248
O O8 0.809511 0.256961 0.750000
O O9 0.750000 0.250000 0.500000
O O10 0.869782 0.296655 0.523178
O O11 0.423455 0.843572 0.750000
O O12 0.500000 0.808621 0.547878
O O13 0.425355 0.892196 0.485438
O O14 0.000000 0.945349 0.250000
O O15 0.000000 0.000000 0.500000
O O16 0.895193 0.500000 0.500000
O O17 0.877088 0.555723 0.750000
#
# Coordination Sequence:
#
# PCOD9476231 Si02
#       6
#    16  16  16  16   8  16
#     4  10  21  37  58  85 117 158 203 250 301 364
#     4  11  21  35  57  85 117 153 196 247 302 357
#     4  10  22  39  62  89 119 157 203 251 303 359
#     4  10  22  40  62  88 120 158 200 245 295 355
#     4  10  22  38  58  84 120 160 205 252 305 366
#     4  11  22  38  61  88 119 154 195 243 297 356
#
# _framework density 9.7001760000000008
#
# number of rings (size 3 to 8) (size 9 to 14) (size 15 to 20)
#    0.000    1.636    0.000    6.000    1.273    7.273 
#    0.000    0.000    0.000    0.000    0.000    0.000 
#    0.000    0.000    0.000    0.000    0.000    0.000 
#
# Total GULP energy -245690.605575 kJ/mol
# GULP energy per Si atom -5583.877399 kJ/mol
# Density = 0.967810 g / cm^3
# Si number density = 9.700176 Si / 1000 Ang^3
#
#
#
# Elastic Constant Matrix: (Units=GPa)
#
#
# Indices 1 2 3 4 5 6 
#
# 1 97.1547 89.4857 40.7266 0.0000 0.0000 0.0000
# 2 89.4857 85.1545 43.6402 0.0000 0.0000 0.0000
# 3 40.7266 43.6402 91.3164 0.0000 0.0000 0.0000
# 4 0.0000 0.0000 0.0000 27.4642 0.0000 0.0000
# 5 0.0000 0.0000 0.0000 0.0000 23.8124 0.0000
# 6 0.0000 0.0000 0.0000 0.0000 0.0000 35.3791
#
#
#
# Elastic Compliance Matrix: (Units=1/GPa)
#
#
# Indices 1 2 3 4 5 6 
#
# 1 0.365588 -0.398131 0.027218 0.000000 0.000000 0.000000
# 2 -0.398131 0.449124 -0.037073 0.000000 0.000000 0.000000
# 3 0.027218 -0.037073 0.016529 0.000000 0.000000 0.000000
# 4 0.000000 0.000000 0.000000 0.036411 0.000000 0.000000
# 5 0.000000 0.000000 0.000000 0.000000 0.041995 0.000000
# 6 0.000000 0.000000 0.000000 0.000000 0.000000 0.028265
#
#
# Mechanical properties :
#
#
# Convention : Reuss Voigt Hill
#
# Bulk Modulus (GPa) = 65.49685 69.03673 67.26679
# Shear Modulus (GPa) = 2.84256 23.98266 13.41261
#
# Velocity S-wave (km/s) = 1.21177 3.51977 2.63222
# Velocity P-wave (km/s) = 5.98262 7.22364 6.63222
#
# Compressibility (1/GPa) = 0.01526791
#
# Stress axis : x y z
#
# Youngs Moduli (GPa) = 2.73532 2.22656 60.49878
#
# Poissons Ratio (x) = 0.88646 -1.64663
# Poissons Ratio (y) = 1.08902 2.24286
# Poissons Ratio (z) = -0.07445 0.08254
#
# Static dielectric constant tensor:
#      x y z
#    x 1.661260 0.000000 0.000000 
#    y 0.000000 1.724650 0.000000 
#    z 0.000000 0.000000 1.647450 
# 
# From -- ./inp_files/8229.got.cif
#   From: 2010.05.17/outbox.ucp.g08.bks.cvg/sg63_5_cif.got.tgz:8229.got - 2010.06.11 16:32:19.
