data_PCOD9476696
_publ_section_title
;
Structure prediction by ZEFSAII (Michael W. Deem and Ramdas Pophale) SiO2 
 PCOD9476696
Probable space group: C M C A
;
_chemical_formula_sum "Si O2"
_cell_formula_units_Z 128
_cell_length_a 18.254107
_cell_length_b 25.381890
_cell_length_c 16.240551
_cell_angle_alpha 90.000000
_cell_angle_beta 90.000000
_cell_angle_gamma 90.000000
_cell_volume 7524.632763
_symmetry_space_group_name_H-M "C M C A"
_symmetry_group_IT_number 64
_symmetry_cell_setting 'orthorhombic'
loop_
_space_group_symop_operation_xyz
x,y,z
-x,1/2-y,1/2+z
x,-y,-z
-x,1/2+y,1/2-z
-x,-y,-z
x,1/2+y,1/2-z
-x,y,z
x,1/2-y,1/2+z
1/2+x,1/2+y,z
1/2-x,-y,1/2+z
1/2+x,1/2-y,-z
1/2-x,y,1/2-z
1/2-x,1/2-y,-z
1/2+x,y,1/2-z
1/2-x,1/2+y,z
1/2+x,-y,1/2+z
loop_
_atom_site_type_symbol
_atom_site_label
_atom_site_fract_x
_atom_site_fract_y
_atom_site_fract_z
Si Si1 0.294567 0.121070 0.543176
Si Si2 0.338025 0.046305 0.749469
Si Si3 0.417288 0.154892 0.959568
Si Si4 0.584693 0.658250 0.730977
Si Si5 0.654348 0.953923 0.066313
Si Si6 0.412744 0.538874 0.921914
Si Si7 0.195105 0.213802 0.824014
Si Si8 0.720148 0.799022 0.946543
O O1 0.232386 0.077349 0.562586
O O2 0.372128 0.092703 0.551209
O O3 0.289961 0.168009 0.609392
O O4 0.274180 0.151253 0.458636
O O5 0.250000 0.043844 0.750000
O O6 0.366433 0.106702 0.751588
O O7 0.360010 0.025844 0.840625
O O8 0.373971 0.023217 0.665556
O O9 0.500000 0.166473 0.984774
O O10 0.406348 0.172865 0.864848
O O11 0.403129 0.092079 0.955780
O O12 0.356513 0.181569 0.015785
O O13 0.500000 0.645214 0.744898
O O14 0.614116 0.703923 0.789365
O O15 0.654291 0.000000 0.000000
O O16 0.500000 0.544410 0.908972
O O17 0.401197 0.500000 0.000000
O O18 0.250000 0.204127 0.750000
O O19 0.208104 0.271764 0.859405
O O20 0.750000 0.750000 0.000000
#
# Coordination Sequence:
#
# PCOD9476696 Si02
#       8
#    16  16  16  16  16  16  16  16
#     4  10  19  33  55  78 110 143 178 230 275 328
#     4  11  19  31  53  82 112 146 183 231 274 323
#     4   9  19  34  51  75 110 139 172 222 276 321
#     4  10  18  29  49  79 107 134 170 225 281 322
#     4  10  19  32  55  83 111 144 187 227 270 329
#     4  11  23  37  57  86 119 151 187 235 285 335
#     4  11  19  31  54  80 106 131 176 231 281 320
#     4   9  19  33  51  75 102 139 177 217 267 326
#
# _framework density 17.010797
#
# number of rings (size 3 to 8) (size 9 to 14) (size 15 to 20)
#    0.000    1.875    2.500    4.125    0.000    1.250 
#    0.000    1.875    5.500    0.750    0.000    0.000 
#    0.000    0.000    0.000    0.000    0.000    0.000 
#
# Total GULP energy -356500.187610 kJ/mol
# GULP energy per Si atom -5570.315431 kJ/mol
# Density = 1.697208 g / cm^3
# Si number density = 17.010797 Si / 1000 Ang^3
#
#
#
# Elastic Constant Matrix: (Units=GPa)
#
#
# Indices 1 2 3 4 5 6 
#
# 1 94.6863 26.5967 39.6666 0.0000 0.0000 0.0000
# 2 26.5967 60.4023 56.7548 0.0000 0.0000 0.0000
# 3 39.6666 56.7548 100.0567 0.0000 0.0000 0.0000
# 4 0.0000 0.0000 0.0000 33.7428 0.0000 0.0000
# 5 0.0000 0.0000 0.0000 0.0000 19.2537 0.0000
# 6 0.0000 0.0000 0.0000 0.0000 0.0000 16.2023
#
#
#
# Elastic Compliance Matrix: (Units=1/GPa)
#
#
# Indices 1 2 3 4 5 6 
#
# 1 0.012761 -0.001853 -0.004008 0.000000 0.000000 0.000000
# 2 -0.001853 0.035718 -0.019526 0.000000 0.000000 0.000000
# 3 -0.004008 -0.019526 0.022659 0.000000 0.000000 0.000000
# 4 0.000000 0.000000 0.000000 0.029636 0.000000 0.000000
# 5 0.000000 0.000000 0.000000 0.000000 0.051938 0.000000
# 6 0.000000 0.000000 0.000000 0.000000 0.000000 0.061720
#
#
# Mechanical properties :
#
#
# Convention : Reuss Voigt Hill
#
# Bulk Modulus (GPa) = 49.10514 55.68683 52.39599
# Shear Modulus (GPa) = 18.38287 22.64823 20.51555
#
# Velocity S-wave (km/s) = 3.29090 3.65280 3.47656
# Velocity P-wave (km/s) = 6.58557 7.11321 6.85447
#
# Compressibility (1/GPa) = 0.02036447
#
# Stress axis : x y z
#
# Youngs Moduli (GPa) = 78.36582 27.99694 44.13340
#
# Poissons Ratio (x) = 0.05188 0.17687
# Poissons Ratio (y) = 0.14523 0.86173
# Poissons Ratio (z) = 0.31406 0.54666
#
# Static dielectric constant tensor:
#      x y z
#    x 1.619330 0.000000 0.000000 
#    y 0.000000 1.558490 0.000000 
#    z 0.000000 0.000000 1.632190 
# 
# From -- ./inp_files/33765.got.cif
#   From: 2010.05.17/outbox.cif.g08.bks.cpg/sg64_17_cif.got.tgz:33765.got - 2010.06.03 16:29:19.
