data_PCOD9476525
_publ_section_title
;
Structure prediction by ZEFSAII (Michael W. Deem and Ramdas Pophale) SiO2 
 PCOD9476525
Probable space group: C M C A
;
_chemical_formula_sum "Si O2"
_cell_formula_units_Z 80
_cell_length_a 19.701362
_cell_length_b 13.493692
_cell_length_c 12.474249
_cell_angle_alpha 90.000000
_cell_angle_beta 90.000000
_cell_angle_gamma 90.000000
_cell_volume 3316.205633
_symmetry_space_group_name_H-M "C M C A"
_symmetry_group_IT_number 64
_symmetry_cell_setting 'orthorhombic'
loop_
_space_group_symop_operation_xyz
x,y,z
-x,1/2-y,1/2+z
x,-y,-z
-x,1/2+y,1/2-z
-x,-y,-z
x,1/2+y,1/2-z
-x,y,z
x,1/2-y,1/2+z
1/2+x,1/2+y,z
1/2-x,-y,1/2+z
1/2+x,1/2-y,-z
1/2-x,y,1/2-z
1/2-x,1/2-y,-z
1/2+x,y,1/2-z
1/2-x,1/2+y,z
1/2+x,-y,1/2+z
loop_
_atom_site_type_symbol
_atom_site_label
_atom_site_fract_x
_atom_site_fract_y
_atom_site_fract_z
Si Si1 0.229121 0.887538 0.905806
Si Si2 0.138954 0.549016 0.225073
Si Si3 0.279021 0.830738 0.359727
Si Si4 0.922729 0.595652 0.920551
Si Si5 0.921035 0.770326 0.614377
O O1 0.164946 0.934791 0.845309
O O2 0.235047 0.770148 0.876958
O O3 0.296705 0.927938 0.850522
O O4 0.230882 0.894438 0.033376
O O5 0.250000 0.374766 0.250000
O O6 0.085191 0.634670 0.193603
O O7 0.000000 0.763440 0.113925
O O8 0.113170 0.943148 0.314657
O O9 0.358185 0.799925 0.356568
O O10 0.902036 0.687124 0.995337
O O11 0.000000 0.615185 0.891536
O O12 0.920101 0.500000 0.000000
#
# Coordination Sequence:
#
# PCOD9476525 Si02
#       5
#    16  16  16  16  16
#     4   9  17  27  47  70  93 138 178 211 268 324
#     4   9  14  28  45  71  99 132 165 217 267 319
#     4  10  17  31  49  68 100 145 181 221 270 319
#     4   8  14  24  45  72 101 129 160 215 280 326
#     4   9  16  28  46  73 103 134 176 225 269 321
#
# _framework density 24.123956
#
# number of rings (size 3 to 8) (size 9 to 14) (size 15 to 20)
#    0.000    3.000    4.000    1.800    0.000    0.000 
#    0.000    2.000    0.000    7.200   52.000    0.000 
#    0.000    0.000    0.000  167.200    0.000    0.200 
#
# Total GULP energy -223681.341664 kJ/mol
# GULP energy per Si atom -5592.033542 kJ/mol
# Density = 2.406905 g / cm^3
# Si number density = 24.123956 Si / 1000 Ang^3
#
#
#
# Elastic Constant Matrix: (Units=GPa)
#
#
# Indices 1 2 3 4 5 6 
#
# 1 125.9735 32.9069 56.4966 0.0000 0.0000 0.0000
# 2 32.9069 61.8037 59.5204 0.0000 0.0000 0.0000
# 3 56.4966 59.5204 189.4426 0.0000 0.0000 0.0000
# 4 0.0000 0.0000 0.0000 45.7821 0.0000 0.0000
# 5 0.0000 0.0000 0.0000 0.0000 42.5288 0.0000
# 6 0.0000 0.0000 0.0000 0.0000 0.0000 24.9375
#
#
#
# Elastic Compliance Matrix: (Units=1/GPa)
#
#
# Indices 1 2 3 4 5 6 
#
# 1 0.009634 -0.003388 -0.001809 0.000000 0.000000 0.000000
# 2 -0.003388 0.024391 -0.006653 0.000000 0.000000 0.000000
# 3 -0.001809 -0.006653 0.007908 0.000000 0.000000 0.000000
# 4 0.000000 0.000000 0.000000 0.021843 0.000000 0.000000
# 5 0.000000 0.000000 0.000000 0.000000 0.023513 0.000000
# 6 0.000000 0.000000 0.000000 0.000000 0.000000 0.040100
#
#
# Mechanical properties :
#
#
# Convention : Reuss Voigt Hill
#
# Bulk Modulus (GPa) = 54.84042 75.00751 64.92396
# Shear Modulus (GPa) = 31.81307 37.86940 34.84123
#
# Velocity S-wave (km/s) = 3.63538 3.96635 3.80446
# Velocity P-wave (km/s) = 6.35637 7.22052 6.80218
#
# Compressibility (1/GPa) = 0.01823473
#
# Stress axis : x y z
#
# Youngs Moduli (GPa) = 103.79525 40.99809 126.44760
#
# Poissons Ratio (x) = 0.13889 0.22872
# Poissons Ratio (y) = 0.35163 0.84127
# Poissons Ratio (z) = 0.18775 0.27277
#
# Static dielectric constant tensor:
#      x y z
#    x 1.924950 0.000000 0.000000 
#    y 0.000000 1.990420 0.000000 
#    z 0.000000 0.000000 1.971580 
# 
# From -- ./inp_files/39335.got.cif
#   From: 2010.05.17/outbox.cif.g08.bks.cpg/sg64_20_cif.got.tgz:39335.got - 2010.06.03 16:29:19.
