data_PCOD9476576
_publ_section_title
;
Structure prediction by ZEFSAII (Michael W. Deem and Ramdas Pophale) SiO2 
 PCOD9476576
Probable space group: C M C A
;
_chemical_formula_sum "Si O2"
_cell_formula_units_Z 88
_cell_length_a 24.039286
_cell_length_b 33.424881
_cell_length_c 5.328676
_cell_angle_alpha 90.000000
_cell_angle_beta 90.000000
_cell_angle_gamma 90.000000
_cell_volume 4281.645912
_symmetry_space_group_name_H-M "C M C A"
_symmetry_group_IT_number 64
_symmetry_cell_setting 'orthorhombic'
loop_
_space_group_symop_operation_xyz
x,y,z
-x,1/2-y,1/2+z
x,-y,-z
-x,1/2+y,1/2-z
-x,-y,-z
x,1/2+y,1/2-z
-x,y,z
x,1/2-y,1/2+z
1/2+x,1/2+y,z
1/2-x,-y,1/2+z
1/2+x,1/2-y,-z
1/2-x,y,1/2-z
1/2-x,1/2-y,-z
1/2+x,y,1/2-z
1/2-x,1/2+y,z
1/2+x,-y,1/2+z
loop_
_atom_site_type_symbol
_atom_site_label
_atom_site_fract_x
_atom_site_fract_y
_atom_site_fract_z
Si Si1 0.433050 0.725612 0.096956
Si Si2 0.884203 0.500000 0.500000
Si Si3 0.874747 0.640104 0.374033
Si Si4 0.804792 0.128217 0.622403
Si Si5 0.063639 0.063975 0.340797
Si Si6 0.671757 0.043025 0.873524
O O1 0.500000 0.721542 0.098347
O O2 0.417205 0.751502 0.341377
O O3 0.406082 0.682137 0.109687
O O4 0.924890 0.475835 0.679933
O O5 0.839251 0.466701 0.413996
O O6 0.848112 0.630999 0.646050
O O7 0.916661 0.604069 0.301353
O O8 0.830361 0.643056 0.141460
O O9 0.750000 0.147006 0.750000
O O10 0.791966 0.081162 0.565762
O O11 0.109437 0.056945 0.552843
O O12 0.000000 0.066898 0.420654
O O13 0.684905 0.000000 0.000000
#
# Coordination Sequence:
#
# PCOD9476576 Si02
#       6
#    16   8  16  16  16  16
#     4  10  21  39  66 100 132 162 193 234 297 368
#     4  10  17  34  50  74 116 152 200 242 287 354
#     4  11  22  41  63  90 123 155 201 252 299 364
#     4  11  23  42  62  86 115 159 210 258 312 353
#     4  10  20  32  52  80 116 159 194 235 293 358
#     4   9  20  36  51  78 112 153 205 259 299 352
#
# _framework density 20.552842999999999
#
# number of rings (size 3 to 8) (size 9 to 14) (size 15 to 20)
#    0.000    1.818    1.818    2.455    0.000    4.000 
#    1.636    1.818    0.000   10.909    0.000    0.000 
#    0.000    0.000    0.000    0.000    0.000    0.000 
#
# Total GULP energy -245093.433037 kJ/mol
# GULP energy per Si atom -5570.305296 kJ/mol
# Density = 2.050606 g / cm^3
# Si number density = 20.552843 Si / 1000 Ang^3
#
#
#
# Elastic Constant Matrix: (Units=GPa)
#
#
# Indices 1 2 3 4 5 6 
#
# 1 34.3016 6.3348 6.9138 0.0000 0.0000 0.0000
# 2 6.3348 110.1926 24.7495 0.0000 0.0000 0.0000
# 3 6.9138 24.7495 90.9135 0.0000 0.0000 0.0000
# 4 0.0000 0.0000 0.0000 28.5765 0.0000 0.0000
# 5 0.0000 0.0000 0.0000 0.0000 20.0825 0.0000
# 6 0.0000 0.0000 0.0000 0.0000 0.0000 10.5942
#
#
#
# Elastic Compliance Matrix: (Units=1/GPa)
#
#
# Indices 1 2 3 4 5 6 
#
# 1 0.029776 -0.001282 -0.001916 0.000000 0.000000 0.000000
# 2 -0.001282 0.009721 -0.002549 0.000000 0.000000 0.000000
# 3 -0.001916 -0.002549 0.011839 0.000000 0.000000 0.000000
# 4 0.000000 0.000000 0.000000 0.034994 0.000000 0.000000
# 5 0.000000 0.000000 0.000000 0.000000 0.049795 0.000000
# 6 0.000000 0.000000 0.000000 0.000000 0.000000 0.094392
#
#
# Mechanical properties :
#
#
# Convention : Reuss Voigt Hill
#
# Bulk Modulus (GPa) = 25.09780 34.60044 29.84912
# Shear Modulus (GPa) = 19.58560 25.01126 22.29843
#
# Velocity S-wave (km/s) = 3.09032 3.49223 3.29740
# Velocity P-wave (km/s) = 4.99713 5.75607 5.38997
#
# Compressibility (1/GPa) = 0.03984412
#
# Stress axis : x y z
#
# Youngs Moduli (GPa) = 33.58416 102.86801 84.46629
#
# Poissons Ratio (x) = 0.13183 0.16180
# Poissons Ratio (y) = 0.04304 0.21530
# Poissons Ratio (z) = 0.06433 0.26221
#
# Static dielectric constant tensor:
#      x y z
#    x 1.767830 0.000000 0.000000 
#    y 0.000000 1.738280 0.000000 
#    z 0.000000 0.000000 1.829120 
# 
# From -- ./inp_files/2429.got.cif
#   From: 2010.05.17/outbox.cif.g08.bks.cpg/sg64_2_cif.got.tgz:2429.got - 2010.06.03 16:29:19.
