data_PCOD9476534
_publ_section_title
;
Structure prediction by ZEFSAII (Michael W. Deem and Ramdas Pophale) SiO2 
 PCOD9476534
Probable space group: C M C A
;
_chemical_formula_sum "Si O2"
_cell_formula_units_Z 72
_cell_length_a 32.934550
_cell_length_b 18.639587
_cell_length_c 5.582306
_cell_angle_alpha 90.000000
_cell_angle_beta 90.000000
_cell_angle_gamma 90.000000
_cell_volume 3426.901790
_symmetry_space_group_name_H-M "C M C A"
_symmetry_group_IT_number 64
_symmetry_cell_setting 'orthorhombic'
loop_
_space_group_symop_operation_xyz
x,y,z
-x,1/2-y,1/2+z
x,-y,-z
-x,1/2+y,1/2-z
-x,-y,-z
x,1/2+y,1/2-z
-x,y,z
x,1/2-y,1/2+z
1/2+x,1/2+y,z
1/2-x,-y,1/2+z
1/2+x,1/2-y,-z
1/2-x,y,1/2-z
1/2-x,1/2-y,-z
1/2+x,y,1/2-z
1/2-x,1/2+y,z
1/2+x,-y,1/2+z
loop_
_atom_site_type_symbol
_atom_site_label
_atom_site_fract_x
_atom_site_fract_y
_atom_site_fract_z
Si Si1 0.376634 0.110107 0.390524
Si Si2 0.773491 0.500000 0.000000
Si Si3 0.847833 0.096621 0.608375
Si Si4 0.816182 0.753264 0.875193
Si Si5 0.952494 0.793162 0.933920
O O1 0.363846 0.070945 0.634855
O O2 0.344030 0.175955 0.375059
O O3 0.421163 0.141854 0.426880
O O4 0.372746 0.075776 0.128258
O O5 0.750000 0.514880 0.250000
O O6 0.802891 0.433560 0.062146
O O7 0.845424 0.183283 0.623361
O O8 0.793160 0.749416 0.625350
O O9 0.945280 0.749054 0.685429
O O10 0.000000 0.813542 0.932959
#
# Coordination Sequence:
#
# PCOD9476534 Si02
#       5
#    16   8  16  16  16
#     4  10  17  31  54  80 108 140 180 217 250 306
#     4  12  26  44  60  78 105 130 167 230 290 332
#     4  10  20  34  56  77  98 137 178 215 263 320
#     4   8  14  25  47  73  97 122 160 202 241 289
#     4  10  18  27  44  79 124 157 177 210 263 309
#
# _framework density 21.010231000000001
#
# number of rings (size 3 to 8) (size 9 to 14) (size 15 to 20)
#    0.000    2.222    0.000    6.667    0.000    0.000 
#    0.000    0.000    0.000   36.000    0.000    4.667 
#    0.000    0.000    0.000    0.000    0.000    0.000 
#
# Total GULP energy -200655.210794 kJ/mol
# GULP energy per Si atom -5573.755855 kJ/mol
# Density = 2.096241 g / cm^3
# Si number density = 21.010231 Si / 1000 Ang^3
#
#
#
# Elastic Constant Matrix: (Units=GPa)
#
#
# Indices 1 2 3 4 5 6 
#
# 1 81.9951 8.7304 58.8771 0.0000 0.0000 0.0000
# 2 8.7304 45.4246 30.5411 0.0000 0.0000 0.0000
# 3 58.8771 30.5411 274.3395 0.0000 0.0000 0.0000
# 4 0.0000 0.0000 0.0000 31.9710 0.0000 0.0000
# 5 0.0000 0.0000 0.0000 0.0000 42.8402 0.0000
# 6 0.0000 0.0000 0.0000 0.0000 0.0000 -5.7217
#
#
#
# Elastic Compliance Matrix: (Units=1/GPa)
#
#
# Indices 1 2 3 4 5 6 
#
# 1 0.014441 -0.000748 -0.003016 0.000000 0.000000 0.000000
# 2 -0.000748 0.023834 -0.002493 0.000000 0.000000 0.000000
# 3 -0.003016 -0.002493 0.004570 0.000000 0.000000 0.000000
# 4 0.000000 0.000000 0.000000 0.031278 0.000000 0.000000
# 5 0.000000 0.000000 0.000000 0.000000 0.023343 0.000000
# 6 0.000000 0.000000 0.000000 0.000000 0.000000 -0.174774
#
#
# Mechanical properties :
#
#
# Convention : Reuss Voigt Hill
#
# Bulk Modulus (GPa) = 32.96841 66.45071 49.70956
# Shear Modulus (GPa) = -91.43467 34.05861 -28.68803
#
# Velocity S-wave (km/s) = -6.60406 4.03059 -3.69918
# Velocity P-wave (km/s) = 6.51351 7.30461 2.33790
#
# Compressibility (1/GPa) = 0.03033207
#
# Stress axis : x y z
#
# Youngs Moduli (GPa) = 69.24661 41.95635 218.82192
#
# Poissons Ratio (x) = 0.03137 0.65997
# Poissons Ratio (y) = 0.05178 0.54550
# Poissons Ratio (z) = 0.20885 0.10459
#
# Static dielectric constant tensor:
#      x y z
#    x 1.686770 0.000000 0.000000 
#    y 0.000000 1.781330 0.000000 
#    z 0.000000 0.000000 1.867340 
# 
# From -- ./inp_files/3242.got.cif
#   From: 2010.05.17/outbox.cif.g08.bks.cpg/sg64_2_cif.got.tgz:3242.got - 2010.06.03 16:29:19.
