data_PCOD9476395
_publ_section_title
;
Structure prediction by ZEFSAII (Michael W. Deem and Ramdas Pophale) SiO2 
 PCOD9476395
Probable space group: C M C A
;
_chemical_formula_sum "Si O2"
_cell_formula_units_Z 80
_cell_length_a 27.540329
_cell_length_b 5.512354
_cell_length_c 31.551356
_cell_angle_alpha 90.000000
_cell_angle_beta 90.000000
_cell_angle_gamma 90.000000
_cell_volume 4789.875805
_symmetry_space_group_name_H-M "C M C A"
_symmetry_group_IT_number 64
_symmetry_cell_setting 'orthorhombic'
loop_
_space_group_symop_operation_xyz
x,y,z
-x,1/2-y,1/2+z
x,-y,-z
-x,1/2+y,1/2-z
-x,-y,-z
x,1/2+y,1/2-z
-x,y,z
x,1/2-y,1/2+z
1/2+x,1/2+y,z
1/2-x,-y,1/2+z
1/2+x,1/2-y,-z
1/2-x,y,1/2-z
1/2-x,1/2-y,-z
1/2+x,y,1/2-z
1/2-x,1/2+y,z
1/2+x,-y,1/2+z
loop_
_atom_site_type_symbol
_atom_site_label
_atom_site_fract_x
_atom_site_fract_y
_atom_site_fract_z
Si Si1 0.220341 0.500000 0.500000
Si Si2 0.219147 0.663498 0.866048
Si Si3 0.100293 0.500000 0.000000
Si Si4 0.305459 0.174583 0.767543
Si Si5 0.351398 0.849333 0.564598
Si Si6 0.053922 0.891527 0.048195
O O1 0.250000 0.250000 0.500000
O O2 0.188546 0.480486 0.457117
O O3 0.246110 0.402868 0.871387
O O4 0.199175 0.671456 0.818036
O O5 0.174702 0.702952 0.898413
O O6 0.134393 0.681807 0.975069
O O7 0.067173 0.383844 0.963328
O O8 0.327861 0.425424 0.750376
O O9 0.250000 0.175785 0.750000
O O10 0.401589 0.990635 0.573782
O O11 0.000000 0.922967 0.065767
O O12 0.054028 0.000000 0.000000
#
# Coordination Sequence:
#
# PCOD9476395 Si02
#       6
#     8  16   8  16  16  16
#     4  12  23  36  48  64 103 147 176 197 238 286
#     4  12  23  34  52  78 107 143 179 209 254 304
#     4  10  18  36  51  70 100 133 178 223 265 306
#     4  10  16  33  52  72  98 134 170 216 253 301
#     4  11  23  34  50  73 103 137 182 218 249 309
#     4   9  18  34  55  72  92 127 175 229 274 304
#
# _framework density 16.701893999999999
#
# number of rings (size 3 to 8) (size 9 to 14) (size 15 to 20)
#    0.000    1.400    7.000    2.100    2.800    0.800 
#    0.000    0.000    0.000    0.000    0.000    0.000 
#    0.000    1.600    0.000    0.000    0.000    0.000 
#
# Total GULP energy -222786.405369 kJ/mol
# GULP energy per Si atom -5569.660134 kJ/mol
# Density = 1.666388 g / cm^3
# Si number density = 16.701894 Si / 1000 Ang^3
#
#
#
# Elastic Constant Matrix: (Units=GPa)
#
#
# Indices 1 2 3 4 5 6 
#
# 1 79.8530 28.6830 17.1969 0.0000 0.0000 0.0000
# 2 28.6830 101.8272 -0.9544 0.0000 0.0000 0.0000
# 3 17.1969 -0.9544 47.5493 0.0000 0.0000 0.0000
# 4 0.0000 0.0000 0.0000 17.0941 0.0000 0.0000
# 5 0.0000 0.0000 0.0000 0.0000 7.9661 0.0000
# 6 0.0000 0.0000 0.0000 0.0000 0.0000 12.2069
#
#
#
# Elastic Compliance Matrix: (Units=1/GPa)
#
#
# Indices 1 2 3 4 5 6 
#
# 1 0.015301 -0.004363 -0.005621 0.000000 0.000000 0.000000
# 2 -0.004363 0.011066 0.001800 0.000000 0.000000 0.000000
# 3 -0.005621 0.001800 0.023100 0.000000 0.000000 0.000000
# 4 0.000000 0.000000 0.000000 0.058500 0.000000 0.000000
# 5 0.000000 0.000000 0.000000 0.000000 0.125532 0.000000
# 6 0.000000 0.000000 0.000000 0.000000 0.000000 0.081921
#
#
# Mechanical properties :
#
#
# Convention : Reuss Voigt Hill
#
# Bulk Modulus (GPa) = 30.21246 35.45341 32.83293
# Shear Modulus (GPa) = 14.58491 19.74036 17.16263
#
# Velocity S-wave (km/s) = 2.95828 3.44164 3.20908
# Velocity P-wave (km/s) = 5.45867 6.08822 5.78202
#
# Compressibility (1/GPa) = 0.03309893
#
# Stress axis : x y z
#
# Youngs Moduli (GPa) = 65.35675 90.36447 43.29018
#
# Poissons Ratio (x) = 0.39423 0.24335
# Poissons Ratio (y) = 0.28513 -0.07792
# Poissons Ratio (z) = 0.36739 -0.16265
#
# Static dielectric constant tensor:
#      x y z
#    x 1.586580 0.000000 0.000000 
#    y 0.000000 2.091450 0.000000 
#    z 0.000000 0.000000 1.559690 
# 
# From -- ./inp_files/51198.got.cif
#   From: 2010.05.17/outbox.cif.g08.bks.cpg/sg64_26_cif.got.tgz:51198.got - 2010.06.03 16:29:19.
