data_PCOD9476374
_publ_section_title
;
Structure prediction by ZEFSAII (Michael W. Deem and Ramdas Pophale) SiO2 
 PCOD9476374
Probable space group: C M C A
;
_chemical_formula_sum "Si O2"
_cell_formula_units_Z 88
_cell_length_a 23.851406
_cell_length_b 13.754428
_cell_length_c 14.568599
_cell_angle_alpha 90.000000
_cell_angle_beta 90.000000
_cell_angle_gamma 90.000000
_cell_volume 4779.410230
_symmetry_space_group_name_H-M "C M C A"
_symmetry_group_IT_number 64
_symmetry_cell_setting 'orthorhombic'
loop_
_space_group_symop_operation_xyz
x,y,z
-x,1/2-y,1/2+z
x,-y,-z
-x,1/2+y,1/2-z
-x,-y,-z
x,1/2+y,1/2-z
-x,y,z
x,1/2-y,1/2+z
1/2+x,1/2+y,z
1/2-x,-y,1/2+z
1/2+x,1/2-y,-z
1/2-x,y,1/2-z
1/2-x,1/2-y,-z
1/2+x,y,1/2-z
1/2-x,1/2+y,z
1/2+x,-y,1/2+z
loop_
_atom_site_type_symbol
_atom_site_label
_atom_site_fract_x
_atom_site_fract_y
_atom_site_fract_z
Si Si1 0.000000 0.299303 0.691003
Si Si2 0.500000 0.483333 0.137900
Si Si3 0.124213 0.520995 0.602342
Si Si4 0.876581 0.490175 0.103832
Si Si5 0.000000 0.579236 0.853057
Si Si6 0.120777 0.347449 0.749761
Si Si7 0.316504 0.851171 0.248359
O O1 0.000000 0.398807 0.632112
O O2 0.057446 0.305882 0.748127
O O3 0.000000 0.196117 0.640659
O O4 0.441376 0.447817 0.097309
O O5 0.500000 0.453393 0.245570
O O6 0.144733 0.500000 0.500000
O O7 0.125777 0.424023 0.665671
O O8 0.157936 0.601096 0.659383
O O9 0.870268 0.590532 0.158817
O O10 0.843490 0.410411 0.163527
O O11 0.942415 0.461442 0.106086
O O12 0.857079 0.500000 0.000000
O O13 0.163425 0.259458 0.741133
O O14 0.250000 0.860271 0.250000
#
# Coordination Sequence:
#
# PCOD9476374 Si02
#       7
#     8   8  16  16   8  16  16
#     4  10  16  31  61  82 118 158 185 228 293 357
#     4  10  17  35  60  93 122 154 189 232 300 363
#     4  10  21  38  64  91 120 153 198 245 298 354
#     4  11  23  39  64  93 123 153 195 246 302 358
#     4  12  17  36  62  89 126 156 181 240 296 372
#     4  10  20  39  60  85 121 157 195 240 301 355
#     4  11  24  42  61  83 116 162 206 248 296 345
#
# _framework density 18.412313000000001
#
# number of rings (size 3 to 8) (size 9 to 14) (size 15 to 20)
#    0.000    1.455    7.273    0.545    0.000    5.091 
#    0.000    1.818    4.000    0.000    0.000    0.000 
#    0.000    0.000    0.000    0.000    0.000    0.000 
#
# Total GULP energy -245627.867407 kJ/mol
# GULP energy per Si atom -5582.451532 kJ/mol
# Density = 1.837041 g / cm^3
# Si number density = 18.412313 Si / 1000 Ang^3
#
#
#
# Elastic Constant Matrix: (Units=GPa)
#
#
# Indices 1 2 3 4 5 6 
#
# 1 117.3960 38.7710 26.8308 0.0000 0.0000 0.0000
# 2 38.7710 66.8635 12.5766 0.0000 0.0000 0.0000
# 3 26.8308 12.5766 118.3940 0.0000 0.0000 0.0000
# 4 0.0000 0.0000 0.0000 0.7209 0.0000 0.0000
# 5 0.0000 0.0000 0.0000 0.0000 3.9465 0.0000
# 6 0.0000 0.0000 0.0000 0.0000 0.0000 18.5691
#
#
#
# Elastic Compliance Matrix: (Units=1/GPa)
#
#
# Indices 1 2 3 4 5 6 
#
# 1 0.010914 -0.005983 -0.001838 0.000000 0.000000 0.000000
# 2 -0.005983 0.018540 -0.000614 0.000000 0.000000 0.000000
# 3 -0.001838 -0.000614 0.008928 0.000000 0.000000 0.000000
# 4 0.000000 0.000000 0.000000 1.387124 0.000000 0.000000
# 5 0.000000 0.000000 0.000000 0.000000 0.253387 0.000000
# 6 0.000000 0.000000 0.000000 0.000000 0.000000 0.053853
#
#
# Mechanical properties :
#
#
# Convention : Reuss Voigt Hill
#
# Bulk Modulus (GPa) = 46.48159 51.00115 48.74137
# Shear Modulus (GPa) = 2.84611 19.61231 11.22921
#
# Velocity S-wave (km/s) = 1.24464 3.26724 2.47224
# Velocity P-wave (km/s) = 5.23117 6.48018 5.88888
#
# Compressibility (1/GPa) = 0.02151389
#
# Stress axis : x y z
#
# Youngs Moduli (GPa) = 91.62447 53.93608 112.00647
#
# Poissons Ratio (x) = 0.32269 0.20585
# Poissons Ratio (y) = 0.54818 0.06873
# Poissons Ratio (z) = 0.16839 0.03310
#
# Static dielectric constant tensor:
#      x y z
#    x 1.634080 0.000000 0.000000 
#    y 0.000000 1.630460 0.000000 
#    z 0.000000 0.000000 1.630450 
# 
# From -- ./inp_files/26268.got.cif
#   From: 2010.05.17/outbox.cif.g08.bks.cpg/sg64_14_cif.got.tgz:26268.got - 2010.06.03 16:29:19.
