data_PCOD9476144
_publ_section_title
;
Structure prediction by ZEFSAII (Michael W. Deem and Ramdas Pophale) SiO2 
 PCOD9476144
Probable space group: C M C M
;
_chemical_formula_sum "Si O2"
_cell_formula_units_Z 56
_cell_length_a 15.000000
_cell_length_b 27.000000
_cell_length_c 15.000000
_cell_angle_alpha 90.000000
_cell_angle_beta 90.000000
_cell_angle_gamma 90.000000
_cell_volume 6075.000000
_symmetry_space_group_name_H-M "C M C M"
_symmetry_group_IT_number 63
_symmetry_cell_setting 'orthorhombic'
loop_
_space_group_symop_operation_xyz
x,y,z
-x,-y,1/2+z
x,-y,-z
-x,y,1/2-z
-x,-y,-z
x,y,1/2-z
-x,y,z
x,-y,1/2+z
1/2+x,1/2+y,z
1/2-x,1/2-y,1/2+z
1/2+x,1/2-y,-z
1/2-x,1/2+y,1/2-z
1/2-x,1/2-y,-z
1/2+x,1/2+y,1/2-z
1/2-x,1/2+y,z
1/2+x,1/2-y,1/2+z
loop_
_atom_site_type_symbol
_atom_site_label
_atom_site_fract_x
_atom_site_fract_y
_atom_site_fract_z
Si Si1 0.393480 0.462870 0.852408
Si Si2 0.660545 0.122671 0.646865
Si Si3 0.275640 0.193168 0.494907
Si Si4 0.891782 0.638476 0.144423
Si Si5 0.396881 0.054436 0.011133
Si Si6 0.099400 0.128076 0.480973
Si Si7 0.647532 0.571206 0.649825
O O1 0.369447 0.452041 0.750000
O O2 0.500000 0.472174 0.856684
O O3 0.376337 0.416369 0.914211
O O4 0.348636 0.514216 0.879825
O O5 0.628941 0.130251 0.750000
O O6 0.678995 0.171406 0.585902
O O7 0.606777 0.086117 0.580415
O O8 0.755121 0.094969 0.653635
O O9 0.250000 0.250000 0.500000
O O10 0.341502 0.180645 0.412452
O O11 0.181636 0.165241 0.480597
O O12 0.871391 0.637929 0.250000
O O13 0.861200 0.588632 0.091537
O O14 0.000000 0.642981 0.135582
O O15 0.500000 0.046587 0.035360
O O16 0.355463 0.000000 0.000000
O O17 0.095968 0.103419 0.578366
O O18 0.000000 0.147349 0.458376
O O19 0.609586 0.571401 0.750000
#
# Coordination Sequence:
#
# PCOD9476144 Si02
#       7
#    16  16  16  16  16  16  16
#     4   9  17  29  46  70 100 132 164 196 235 294
#     4   9  19  34  50  72 103 135 172 219 267 319
#     4  10  22  38  56  77 102 136 178 231 284 326
#     4   9  19  37  60  84 109 139 179 227 276 325
#     4   9  18  32  51  78 110 141 175 215 262 322
#     4  10  20  33  50  73 102 136 172 209 254 309
#     4   9  17  29  47  73 104 136 167 199 240 297
#
# _framework density 9.2181069999999998
#
# number of rings (size 3 to 8) (size 9 to 14) (size 15 to 20)
#    0.000    2.714    0.000    0.857    0.000    8.000 
#    0.000    2.857    0.000    0.000    0.000    2.000 
#    0.000    0.000    0.000    0.000    0.000    0.000 
#
# Total GULP energy -311944.540479 kJ/mol
# GULP energy per Si atom -5570.438223 kJ/mol
# Density = 0.919713 g / cm^3
# Si number density = 9.218107 Si / 1000 Ang^3
#
#
#
# Elastic Constant Matrix: (Units=GPa)
#
#
# Indices 1 2 3 4 5 6 
#
# 1 49.1640 24.4745 29.3083 0.0000 0.0000 0.0000
# 2 24.4745 119.8846 61.7665 0.0000 0.0000 0.0000
# 3 29.3083 61.7665 126.6548 0.0000 0.0000 0.0000
# 4 0.0000 0.0000 0.0000 11.5256 0.0000 0.0000
# 5 0.0000 0.0000 0.0000 0.0000 25.7643 0.0000
# 6 0.0000 0.0000 0.0000 0.0000 0.0000 -0.8649
#
#
#
# Elastic Compliance Matrix: (Units=1/GPa)
#
#
# Indices 1 2 3 4 5 6 
#
# 1 0.024256 -0.002751 -0.004271 0.000000 0.000000 0.000000
# 2 -0.002751 0.011453 -0.004948 0.000000 0.000000 0.000000
# 3 -0.004271 -0.004948 0.011297 0.000000 0.000000 0.000000
# 4 0.000000 0.000000 0.000000 0.086763 0.000000 0.000000
# 5 0.000000 0.000000 0.000000 0.000000 0.038813 0.000000
# 6 0.000000 0.000000 0.000000 0.000000 0.000000 -1.156165
#
#
# Mechanical properties :
#
#
# Convention : Reuss Voigt Hill
#
# Bulk Modulus (GPa) = 43.35815 58.53356 50.94586
# Shear Modulus (GPa) = -5.25236 19.29527 7.02146
#
# Velocity S-wave (km/s) = -1.68971 3.23862 1.95366
# Velocity P-wave (km/s) = 4.44546 6.76780 5.72561
#
# Compressibility (1/GPa) = 0.02306372
#
# Stress axis : x y z
#
# Youngs Moduli (GPa) = 41.22708 87.31661 88.51834
#
# Poissons Ratio (x) = 0.24023 0.37808
# Poissons Ratio (y) = 0.11343 0.43803
# Poissons Ratio (z) = 0.17609 0.43209
#
# Static dielectric constant tensor:
#      x y z
#    x 1.668640 0.000000 0.000000 
#    y 0.000000 1.629260 0.000000 
#    z 0.000000 0.000000 1.651940 
# 
# From -- ./inp_files/32511.got.cif
#   From: 2010.05.17/outbox.ucp.g08.bks.cvg/sg63_17_cif.got.tgz:32511.got - 2010.06.11 16:32:19.
