data_PCOD9476638
_publ_section_title
;
Structure prediction by ZEFSAII (Michael W. Deem and Ramdas Pophale) SiO2 
 PCOD9476638
Probable space group: C M C A
;
_chemical_formula_sum "Si O2"
_cell_formula_units_Z 96
_cell_length_a 21.287002
_cell_length_b 28.527914
_cell_length_c 7.001561
_cell_angle_alpha 90.000000
_cell_angle_beta 90.000000
_cell_angle_gamma 90.000000
_cell_volume 4251.864291
_symmetry_space_group_name_H-M "C M C A"
_symmetry_group_IT_number 64
_symmetry_cell_setting 'orthorhombic'
loop_
_space_group_symop_operation_xyz
x,y,z
-x,1/2-y,1/2+z
x,-y,-z
-x,1/2+y,1/2-z
-x,-y,-z
x,1/2+y,1/2-z
-x,y,z
x,1/2-y,1/2+z
1/2+x,1/2+y,z
1/2-x,-y,1/2+z
1/2+x,1/2-y,-z
1/2-x,y,1/2-z
1/2-x,1/2-y,-z
1/2+x,y,1/2-z
1/2-x,1/2+y,z
1/2+x,-y,1/2+z
loop_
_atom_site_type_symbol
_atom_site_label
_atom_site_fract_x
_atom_site_fract_y
_atom_site_fract_z
Si Si1 0.500000 0.707796 0.011487
Si Si2 0.000000 0.683347 0.931190
Si Si3 0.426656 0.539521 0.712319
Si Si4 0.572614 0.437924 0.832563
Si Si5 0.874065 0.134150 0.603232
Si Si6 0.255778 0.193967 0.976256
Si Si7 0.373945 0.155839 0.437344
O O1 0.500000 0.687691 0.798400
O O2 0.565636 0.689274 0.099812
O O3 0.500000 0.763639 0.996600
O O4 0.062038 0.655360 0.979571
O O5 0.500000 0.545850 0.653855
O O6 0.411006 0.484209 0.711081
O O7 0.382311 0.577728 0.611162
O O8 0.425893 0.549943 0.940693
O O9 0.500000 0.425911 0.791267
O O10 0.615580 0.392411 0.824572
O O11 0.818078 0.162072 0.498926
O O12 0.874001 0.146459 0.831778
O O13 0.250000 0.187287 0.750000
O O14 0.195070 0.176317 0.090552
O O15 0.250000 0.250000 0.000000
#
# Coordination Sequence:
#
# PCOD9476638 Si02
#       7
#     8   8  16  16  16  16  16
#     4  10  18  28  43  63  93 125 160 204 249 292
#     4  10  18  28  43  63  93 127 164 206 249 290
#     4   8  12  20  38  65  94 121 151 192 248 312
#     4   8  12  20  38  65  94 120 149 192 255 309
#     4   9  16  27  42  64  95 130 163 203 251 301
#     4  10  20  32  46  66  96 135 177 211 249 302
#     4   9  16  27  42  64  94 128 161 204 255 299
#
# _framework density 22.578330999999999
#
# number of rings (size 3 to 8) (size 9 to 14) (size 15 to 20)
#    0.000    3.000    1.667    2.000    0.000    0.000 
#    0.000    0.000    0.000    0.000    0.000   12.833 
#    0.000    5.333    0.000    1.500    0.000   23.250 
#
# Total GULP energy -267861.220820 kJ/mol
# GULP energy per Si atom -5580.442100 kJ/mol
# Density = 2.252694 g / cm^3
# Si number density = 22.578331 Si / 1000 Ang^3
#
#
#
# Elastic Constant Matrix: (Units=GPa)
#
#
# Indices 1 2 3 4 5 6 
#
# 1 187.5484 134.4851 30.0426 0.0000 0.0000 0.0000
# 2 134.4851 211.9688 32.3395 0.0000 0.0000 0.0000
# 3 30.0426 32.3395 95.3532 0.0000 0.0000 0.0000
# 4 0.0000 0.0000 0.0000 64.5053 0.0000 0.0000
# 5 0.0000 0.0000 0.0000 0.0000 4.9272 0.0000
# 6 0.0000 0.0000 0.0000 0.0000 0.0000 35.0629
#
#
#
# Elastic Compliance Matrix: (Units=1/GPa)
#
#
# Indices 1 2 3 4 5 6 
#
# 1 0.009879 -0.006109 -0.001041 0.000000 0.000000 0.000000
# 2 -0.006109 0.008753 -0.001044 0.000000 0.000000 0.000000
# 3 -0.001041 -0.001044 0.011169 0.000000 0.000000 0.000000
# 4 0.000000 0.000000 0.000000 0.015503 0.000000 0.000000
# 5 0.000000 0.000000 0.000000 0.000000 0.202954 0.000000
# 6 0.000000 0.000000 0.000000 0.000000 0.000000 0.028520
#
#
# Mechanical properties :
#
#
# Convention : Reuss Voigt Hill
#
# Bulk Modulus (GPa) = 74.54832 98.73386 86.64109
# Shear Modulus (GPa) = 16.79895 40.76598 28.78246
#
# Velocity S-wave (km/s) = 2.73065 4.25377 3.57428
# Velocity P-wave (km/s) = 6.55982 8.24321 7.44922
#
# Compressibility (1/GPa) = 0.01341412
#
# Stress axis : x y z
#
# Youngs Moduli (GPa) = 101.22015 114.24629 89.53183
#
# Poissons Ratio (x) = 0.69797 0.09317
# Poissons Ratio (y) = 0.61839 0.09345
# Poissons Ratio (z) = 0.10534 0.11925
#
# Static dielectric constant tensor:
#      x y z
#    x 1.802520 0.000000 0.000000 
#    y 0.000000 2.006240 0.000000 
#    z 0.000000 0.000000 1.964480 
# 
# From -- ./inp_files/16374.got.cif
#   From: 2010.05.17/outbox.cif.g08.bks.cpg/sg64_9_cif.got.tgz:16374.got - 2010.06.03 16:29:19.
