data_PCOD9476140
_publ_section_title
;
Structure prediction by ZEFSAII (Michael W. Deem and Ramdas Pophale) SiO2 
 PCOD9476140
Probable space group: C M C M
;
_chemical_formula_sum "Si O2"
_cell_formula_units_Z 52
_cell_length_a 21.000000
_cell_length_b 18.000000
_cell_length_c 15.000000
_cell_angle_alpha 90.000000
_cell_angle_beta 90.000000
_cell_angle_gamma 90.000000
_cell_volume 5670.000000
_symmetry_space_group_name_H-M "C M C M"
_symmetry_group_IT_number 63
_symmetry_cell_setting 'orthorhombic'
loop_
_space_group_symop_operation_xyz
x,y,z
-x,-y,1/2+z
x,-y,-z
-x,y,1/2-z
-x,-y,-z
x,y,1/2-z
-x,y,z
x,-y,1/2+z
1/2+x,1/2+y,z
1/2-x,1/2-y,1/2+z
1/2+x,1/2-y,-z
1/2-x,1/2+y,1/2-z
1/2-x,1/2-y,-z
1/2+x,1/2+y,1/2-z
1/2-x,1/2+y,z
1/2+x,1/2-y,1/2+z
loop_
_atom_site_type_symbol
_atom_site_label
_atom_site_fract_x
_atom_site_fract_y
_atom_site_fract_z
Si Si1 0.761229 0.721469 0.147364
Si Si2 0.861989 0.492989 0.855725
Si Si3 0.094755 0.661847 0.150211
Si Si4 0.929828 0.770397 0.506946
Si Si5 0.743513 0.000000 0.000000
Si Si6 0.576040 0.150005 0.854424
Si Si7 0.193548 0.150854 0.520566
O O1 0.738720 0.727447 0.250000
O O2 0.829799 0.680667 0.149805
O O3 0.774512 0.800080 0.098756
O O4 0.718602 0.678114 0.076027
O O5 0.846731 0.492497 0.750000
O O6 0.911155 0.425448 0.869615
O O7 0.802284 0.478563 0.918417
O O8 0.890231 0.573248 0.879574
O O9 0.071786 0.676958 0.250000
O O10 0.066496 0.713799 0.075547
O O11 0.902477 0.719179 0.586428
O O12 0.881138 0.833619 0.479995
O O13 0.000000 0.796934 0.531296
O O14 0.786176 0.932634 0.031418
O O15 0.587396 0.163084 0.750000
O O16 0.500000 0.142161 0.867801
#
# Coordination Sequence:
#
# PCOD9476140 Si02
#       7
#    16  16  16  16   8  16  16
#     4   9  18  35  55  78 107 136 172 216 265 318
#     4  10  20  32  51  79 112 146 173 207 262 323
#     4   9  17  32  52  77 106 136 171 212 259 317
#     4  10  21  37  53  73 101 138 185 227 266 305
#     4  12  22  36  52  78 116 136 176 222 268 320
#     4   9  19  34  51  74 105 141 181 217 253 310
#     4  10  22  35  54  80 105 141 177 219 268 314
#
# _framework density 9.1710759999999993
#
# number of rings (size 3 to 8) (size 9 to 14) (size 15 to 20)
#    0.000    2.308    1.538    0.923    4.308    2.154 
#    0.000    3.846    0.000    0.000    0.000    0.000 
#    0.000    6.154    0.000    0.000    0.000    0.000 
#
# Total GULP energy -289985.018865 kJ/mol
# GULP energy per Si atom -5576.634978 kJ/mol
# Density = 0.915020 g / cm^3
# Si number density = 9.171076 Si / 1000 Ang^3
#
#
#
# Elastic Constant Matrix: (Units=GPa)
#
#
# Indices 1 2 3 4 5 6 
#
# 1 44.2050 13.3913 9.7660 0.0000 0.0000 0.0000
# 2 13.3913 48.3353 10.9300 0.0000 0.0000 0.0000
# 3 9.7660 10.9300 65.3242 0.0000 0.0000 0.0000
# 4 0.0000 0.0000 0.0000 15.7788 0.0000 0.0000
# 5 0.0000 0.0000 0.0000 0.0000 10.8584 0.0000
# 6 0.0000 0.0000 0.0000 0.0000 0.0000 -55.0398
#
#
#
# Elastic Compliance Matrix: (Units=1/GPa)
#
#
# Indices 1 2 3 4 5 6 
#
# 1 0.025143 -0.006356 -0.002695 0.000000 0.000000 0.000000
# 2 -0.006356 0.023109 -0.002916 0.000000 0.000000 0.000000
# 3 -0.002695 -0.002916 0.016199 0.000000 0.000000 0.000000
# 4 0.000000 0.000000 0.000000 0.063376 0.000000 0.000000
# 5 0.000000 0.000000 0.000000 0.000000 0.092094 0.000000
# 6 0.000000 0.000000 0.000000 0.000000 0.000000 -0.018169
#
#
# Mechanical properties :
#
#
# Convention : Reuss Voigt Hill
#
# Bulk Modulus (GPa) = 24.68201 25.11544 24.89872
# Shear Modulus (GPa) = 20.90349 2.57131 11.73740
#
# Velocity S-wave (km/s) = 3.37952 1.18529 2.53240
# Velocity P-wave (km/s) = 5.35853 3.94914 4.70689
#
# Compressibility (1/GPa) = 0.04051535
#
# Stress axis : x y z
#
# Youngs Moduli (GPa) = 39.77259 43.27255 61.73160
#
# Poissons Ratio (x) = 0.27506 0.16639
# Poissons Ratio (y) = 0.25281 0.18003
# Poissons Ratio (z) = 0.10720 0.12620
#
# Static dielectric constant tensor:
#      x y z
#    x 1.674830 0.000000 0.000000 
#    y 0.000000 1.628790 0.000000 
#    z 0.000000 0.000000 1.629460 
# 
# From -- ./inp_files/35603.got.cif
#   From: 2010.05.17/outbox.ucp.g08.bks.cvg/sg63_18_cif.got.tgz:35603.got - 2010.06.11 16:32:19.
