data_PCOD9476619
_publ_section_title
;
Structure prediction by ZEFSAII (Michael W. Deem and Ramdas Pophale) SiO2 
 PCOD9476619
Probable space group: C M C A
;
_chemical_formula_sum "Si O2"
_cell_formula_units_Z 104
_cell_length_a 14.713767
_cell_length_b 15.223113
_cell_length_c 19.992881
_cell_angle_alpha 90.000000
_cell_angle_beta 90.000000
_cell_angle_gamma 90.000000
_cell_volume 4478.192174
_symmetry_space_group_name_H-M "C M C A"
_symmetry_group_IT_number 64
_symmetry_cell_setting 'orthorhombic'
loop_
_space_group_symop_operation_xyz
x,y,z
-x,1/2-y,1/2+z
x,-y,-z
-x,1/2+y,1/2-z
-x,-y,-z
x,1/2+y,1/2-z
-x,y,z
x,1/2-y,1/2+z
1/2+x,1/2+y,z
1/2-x,-y,1/2+z
1/2+x,1/2-y,-z
1/2-x,y,1/2-z
1/2-x,1/2-y,-z
1/2+x,y,1/2-z
1/2-x,1/2+y,z
1/2+x,-y,1/2+z
loop_
_atom_site_type_symbol
_atom_site_label
_atom_site_fract_x
_atom_site_fract_y
_atom_site_fract_z
Si Si1 0.104161 0.998600 0.098021
Si Si2 0.602651 0.566042 0.347477
Si Si3 0.106620 0.868868 0.501837
Si Si4 0.248907 0.500000 0.000000
Si Si5 0.895069 0.296646 0.429544
Si Si6 0.836330 0.740546 0.207964
Si Si7 0.391099 0.566531 0.755122
O O1 0.102455 0.900593 0.065602
O O2 0.130129 0.982019 0.174899
O O3 0.000000 0.033548 0.093019
O O4 0.184757 0.042002 0.056210
O O5 0.500000 0.535797 0.356646
O O6 0.625131 0.598680 0.421720
O O7 0.605533 0.652115 0.300148
O O8 0.649473 0.487134 0.307100
O O9 0.182735 0.926788 0.466052
O O10 0.121870 0.764346 0.506353
O O11 0.000000 0.885781 0.484624
O O12 0.827869 0.271871 0.369248
O O13 0.000000 0.272065 0.408133
O O14 0.750000 0.712635 0.250000
O O15 0.868826 0.830471 0.242833
O O16 0.500000 0.563107 0.753845
#
# Coordination Sequence:
#
# PCOD9476619 Si02
#       7
#    16  16  16   8  16  16  16
#     4   9  19  35  53  74  99 131 171 208 248 301
#     4   9  18  34  54  72  96 133 170 205 247 296
#     4   9  19  35  53  74  99 131 171 208 248 301
#     4  12  22  30  50  78 104 130 158 210 264 300
#     4   8  16  35  55  66  89 132 174 208 243 293
#     4  10  18  26  45  76 103 126 157 200 245 297
#     4   9  18  34  54  72  96 133 170 205 247 296
#
# _framework density 23.223658
#
# number of rings (size 3 to 8) (size 9 to 14) (size 15 to 20)
#    0.000    2.769    0.000    3.692    0.000    6.154 
#    0.000    0.000    0.000    1.846    0.000    6.462 
#    0.000    0.000    0.000    0.000    0.000    0.000 
#
# Total GULP energy -289533.562741 kJ/mol
# GULP energy per Si atom -5567.953130 kJ/mol
# Density = 2.317080 g / cm^3
# Si number density = 23.223658 Si / 1000 Ang^3
#
#
#
# Elastic Constant Matrix: (Units=GPa)
#
#
# Indices 1 2 3 4 5 6 
#
# 1 95.4766 -19.4766 15.7009 0.0000 0.0000 0.0000
# 2 -19.4766 42.9898 4.7638 0.0000 0.0000 0.0000
# 3 15.7009 4.7638 41.6386 0.0000 0.0000 0.0000
# 4 0.0000 0.0000 0.0000 29.5255 0.0000 0.0000
# 5 0.0000 0.0000 0.0000 0.0000 14.8182 0.0000
# 6 0.0000 0.0000 0.0000 0.0000 0.0000 38.8158
#
#
#
# Elastic Compliance Matrix: (Units=1/GPa)
#
#
# Indices 1 2 3 4 5 6 
#
# 1 0.012675 0.006353 -0.005506 0.000000 0.000000 0.000000
# 2 0.006353 0.026744 -0.005455 0.000000 0.000000 0.000000
# 3 -0.005506 -0.005455 0.026717 0.000000 0.000000 0.000000
# 4 0.000000 0.000000 0.000000 0.033869 0.000000 0.000000
# 5 0.000000 0.000000 0.000000 0.000000 0.067484 0.000000
# 6 0.000000 0.000000 0.000000 0.000000 0.000000 0.025763
#
#
# Mechanical properties :
#
#
# Convention : Reuss Voigt Hill
#
# Bulk Modulus (GPa) = 17.56910 20.23124 18.90017
# Shear Modulus (GPa) = 22.57926 28.57302 25.57614
#
# Velocity S-wave (km/s) = 3.12148 3.51143 3.32218
# Velocity P-wave (km/s) = 4.53576 5.01703 4.78245
#
# Compressibility (1/GPa) = 0.05691810
#
# Stress axis : x y z
#
# Youngs Moduli (GPa) = 78.89438 37.39172 37.42991
#
# Poissons Ratio (x) = -0.23754 0.20610
# Poissons Ratio (y) = -0.50119 0.20419
# Poissons Ratio (z) = 0.43442 0.20398
#
# Static dielectric constant tensor:
#      x y z
#    x 1.946540 0.000000 0.000000 
#    y 0.000000 1.980310 0.000000 
#    z 0.000000 0.000000 1.955080 
# 
# From -- ./inp_files/39483.got.cif
#   From: 2010.05.17/outbox.cif.g08.bks.cpg/sg64_20_cif.got.tgz:39483.got - 2010.06.03 16:29:19.
