data_PCOD9476411
_publ_section_title
;
Structure prediction by ZEFSAII (Michael W. Deem and Ramdas Pophale) SiO2 
 PCOD9476411
Probable space group: C M C A
;
_chemical_formula_sum "Si O2"
_cell_formula_units_Z 52
_cell_length_a 13.340073
_cell_length_b 10.077100
_cell_length_c 16.063609
_cell_angle_alpha 90.000000
_cell_angle_beta 90.000000
_cell_angle_gamma 90.000000
_cell_volume 2159.418904
_symmetry_space_group_name_H-M "C M C A"
_symmetry_group_IT_number 64
_symmetry_cell_setting 'orthorhombic'
loop_
_space_group_symop_operation_xyz
x,y,z
-x,1/2-y,1/2+z
x,-y,-z
-x,1/2+y,1/2-z
-x,-y,-z
x,1/2+y,1/2-z
-x,y,z
x,1/2-y,1/2+z
1/2+x,1/2+y,z
1/2-x,-y,1/2+z
1/2+x,1/2-y,-z
1/2-x,y,1/2-z
1/2-x,1/2-y,-z
1/2+x,y,1/2-z
1/2-x,1/2+y,z
1/2+x,-y,1/2+z
loop_
_atom_site_type_symbol
_atom_site_label
_atom_site_fract_x
_atom_site_fract_y
_atom_site_fract_z
Si Si1 0.000000 0.054028 0.734552
Si Si2 0.782212 0.715730 0.593220
Si Si3 0.000000 0.204988 0.346327
Si Si4 0.000000 0.000000 0.000000
Si Si5 0.337267 0.948596 0.640942
O O1 0.000000 0.212551 0.756783
O O2 0.901564 0.999399 0.781938
O O3 0.000000 0.955105 0.655511
O O4 0.750000 0.750000 0.500000
O O5 0.719914 0.812710 0.652103
O O6 0.760441 0.564734 0.616397
O O7 0.901075 0.741129 0.606921
O O8 0.913316 0.057334 0.063584
#
# Coordination Sequence:
#
# PCOD9476411 Si02
#       5
#     8  16   8   4  16
#     4   9  22  42  61  87 120 178 206 259 318 386
#     4  11  21  38  62  95 123 166 213 273 320 372
#     4  10  24  41  63  90 134 167 219 258 316 397
#     4  10  16  36  60  84 114 164 202 248 312 368
#     4  10  21  36  64  87 125 161 213 261 316 377
#
# _framework density 24.080552999999998
#
# number of rings (size 3 to 8) (size 9 to 14) (size 15 to 20)
#    0.000    1.846    3.077    0.923    0.000    3.692 
#    0.000   10.769    0.000    0.000    0.000    0.000 
#    0.000    0.000    0.000    0.000    0.000    0.000 
#
# Total GULP energy -144794.981888 kJ/mol
# GULP energy per Si atom -5569.037765 kJ/mol
# Density = 2.402574 g / cm^3
# Si number density = 24.080553 Si / 1000 Ang^3
#
#
#
# Elastic Constant Matrix: (Units=GPa)
#
#
# Indices 1 2 3 4 5 6 
#
# 1 97.9816 31.4707 12.1451 0.0000 0.0000 0.0000
# 2 31.4707 115.2838 -3.7457 0.0000 0.0000 0.0000
# 3 12.1451 -3.7457 51.1562 0.0000 0.0000 0.0000
# 4 0.0000 0.0000 0.0000 24.7162 0.0000 0.0000
# 5 0.0000 0.0000 0.0000 0.0000 25.3799 0.0000
# 6 0.0000 0.0000 0.0000 0.0000 0.0000 11.1614
#
#
#
# Elastic Compliance Matrix: (Units=1/GPa)
#
#
# Indices 1 2 3 4 5 6 
#
# 1 0.011629 -0.003272 -0.003000 0.000000 0.000000 0.000000
# 2 -0.003272 0.009616 0.001481 0.000000 0.000000 0.000000
# 3 -0.003000 0.001481 0.020369 0.000000 0.000000 0.000000
# 4 0.000000 0.000000 0.000000 0.040459 0.000000 0.000000
# 5 0.000000 0.000000 0.000000 0.000000 0.039401 0.000000
# 6 0.000000 0.000000 0.000000 0.000000 0.000000 0.089594
#
#
# Mechanical properties :
#
#
# Convention : Reuss Voigt Hill
#
# Bulk Modulus (GPa) = 31.22065 38.24022 34.73043
# Shear Modulus (GPa) = 21.61437 27.22161 24.41799
#
# Velocity S-wave (km/s) = 2.99922 3.36585 3.18781
# Velocity P-wave (km/s) = 4.99870 5.56955 5.29183
#
# Compressibility (1/GPa) = 0.03203008
#
# Stress axis : x y z
#
# Youngs Moduli (GPa) = 85.99316 103.99809 49.09488
#
# Poissons Ratio (x) = 0.34028 0.14730
# Poissons Ratio (y) = 0.28137 -0.07270
# Poissons Ratio (z) = 0.25801 -0.15401
#
# Static dielectric constant tensor:
#      x y z
#    x 1.896380 0.000000 0.000000 
#    y 0.000000 2.040280 0.000000 
#    z 0.000000 0.000000 1.980080 
# 
# From -- ./inp_files/31530.got.cif
#   From: 2010.05.17/outbox.cif.g08.bks.cpg/sg64_16_cif.got.tgz:31530.got - 2010.06.03 16:29:19.
