data_PCOD9476199
_publ_section_title
;
Structure prediction by ZEFSAII (Michael W. Deem and Ramdas Pophale) SiO2 
 PCOD9476199
Probable space group: C M C M
;
_chemical_formula_sum "Si O2"
_cell_formula_units_Z 36
_cell_length_a 15.000000
_cell_length_b 27.000000
_cell_length_c 9.000000
_cell_angle_alpha 90.000000
_cell_angle_beta 90.000000
_cell_angle_gamma 90.000000
_cell_volume 3645.000000
_symmetry_space_group_name_H-M "C M C M"
_symmetry_group_IT_number 63
_symmetry_cell_setting 'orthorhombic'
loop_
_space_group_symop_operation_xyz
x,y,z
-x,-y,1/2+z
x,-y,-z
-x,y,1/2-z
-x,-y,-z
x,y,1/2-z
-x,y,z
x,-y,1/2+z
1/2+x,1/2+y,z
1/2-x,1/2-y,1/2+z
1/2+x,1/2-y,-z
1/2-x,1/2+y,1/2-z
1/2-x,1/2-y,-z
1/2+x,1/2+y,1/2-z
1/2-x,1/2+y,z
1/2+x,1/2-y,1/2+z
loop_
_atom_site_type_symbol
_atom_site_label
_atom_site_fract_x
_atom_site_fract_y
_atom_site_fract_z
Si Si1 0.682478 0.450381 0.426348
Si Si2 0.000000 0.083843 0.429088
Si Si3 0.500000 0.698584 0.069672
Si Si4 0.000000 0.553463 0.425764
Si Si5 0.652251 0.882706 0.073397
Si Si6 0.659895 0.231649 0.929111
O O1 0.722105 0.500000 0.500000
O O2 0.671363 0.457611 0.250000
O O3 0.588455 0.440402 0.504365
O O4 0.748609 0.404145 0.449547
O O5 0.000000 0.080140 0.250000
O O6 0.000000 0.141655 0.475591
O O7 0.500000 0.698289 0.250000
O O8 0.584554 0.730187 0.020903
O O9 0.000000 0.500000 0.500000
O O10 0.914826 0.583829 0.481831
O O11 0.000000 0.548435 0.250000
O O12 0.632330 0.887224 0.250000
O O13 0.642422 0.825398 0.030769
O O14 0.664968 0.233112 0.750000
O O15 0.750000 0.250000 0.000000
#
# Coordination Sequence:
#
# PCOD9476199 Si02
#       6
#    16   8   8   8  16  16
#     4  11  23  39  59  84 113 149 191 237 287 341
#     4  11  22  37  58  84 115 152 191 236 285 338
#     4   9  19  35  57  83 114 152 187 222 276 337
#     4  12  25  40  62  89 119 154 195 244 295 353
#     4  10  22  40  62  87 119 157 195 238 291 347
#     4  10  20  37  60  86 117 153 192 236 284 339
#
# _framework density 9.8765429999999999
#
# number of rings (size 3 to 8) (size 9 to 14) (size 15 to 20)
#    0.000    1.556    0.000    5.000    0.000    6.222 
#    0.000    1.667    0.000    0.000    0.000    0.000 
#    0.000    0.000    0.000    0.000    0.000    0.000 
#
# Total GULP energy -201226.200471 kJ/mol
# GULP energy per Si atom -5589.616680 kJ/mol
# Density = 0.985406 g / cm^3
# Si number density = 9.876543 Si / 1000 Ang^3
#
#
#
# Elastic Constant Matrix: (Units=GPa)
#
#
# Indices 1 2 3 4 5 6 
#
# 1 83.8269 20.7400 30.0932 0.0000 0.0000 0.0000
# 2 20.7400 125.7651 32.4804 0.0000 0.0000 0.0000
# 3 30.0932 32.4804 54.6172 0.0000 0.0000 0.0000
# 4 0.0000 0.0000 0.0000 26.2492 0.0000 0.0000
# 5 0.0000 0.0000 0.0000 0.0000 15.1891 0.0000
# 6 0.0000 0.0000 0.0000 0.0000 0.0000 32.9578
#
#
#
# Elastic Compliance Matrix: (Units=1/GPa)
#
#
# Indices 1 2 3 4 5 6 
#
# 1 0.014888 -0.000398 -0.007966 0.000000 0.000000 0.000000
# 2 -0.000398 0.009405 -0.005374 0.000000 0.000000 0.000000
# 3 -0.007966 -0.005374 0.025894 0.000000 0.000000 0.000000
# 4 0.000000 0.000000 0.000000 0.038096 0.000000 0.000000
# 5 0.000000 0.000000 0.000000 0.000000 0.065837 0.000000
# 6 0.000000 0.000000 0.000000 0.000000 0.000000 0.030342
#
#
# Mechanical properties :
#
#
# Convention : Reuss Voigt Hill
#
# Bulk Modulus (GPa) = 44.03149 47.87071 45.95110
# Shear Modulus (GPa) = 22.77828 26.93894 24.85861
#
# Velocity S-wave (km/s) = 3.39949 3.69695 3.55134
# Velocity P-wave (km/s) = 6.14394 6.52000 6.33476
#
# Compressibility (1/GPa) = 0.02271102
#
# Stress axis : x y z
#
# Youngs Moduli (GPa) = 67.17012 106.32903 38.61858
#
# Poissons Ratio (x) = 0.04229 0.30765
# Poissons Ratio (y) = 0.02672 0.20753
# Poissons Ratio (z) = 0.53510 0.57139
#
# Static dielectric constant tensor:
#      x y z
#    x 1.678620 0.000000 0.000000 
#    y 0.000000 1.652760 0.000000 
#    z 0.000000 0.000000 1.649650 
# 
# From -- ./inp_files/4726.got.cif
#   From: 2010.05.17/outbox.ucp.g08.bks.cvg/sg63_3_cif.got.tgz:4726.got - 2010.06.11 16:32:19.
