data_PCOD9476952
_publ_section_title
;
Structure prediction by ZEFSAII (Michael W. Deem and Ramdas Pophale) SiO2 
 PCOD9476952
Probable space group: C M C A
;
_chemical_formula_sum "Si O2"
_cell_formula_units_Z 80
_cell_length_a 16.920340
_cell_length_b 13.977834
_cell_length_c 20.776306
_cell_angle_alpha 90.000000
_cell_angle_beta 90.000000
_cell_angle_gamma 90.000000
_cell_volume 4913.797977
_symmetry_space_group_name_H-M "C M C A"
_symmetry_group_IT_number 64
_symmetry_cell_setting 'orthorhombic'
loop_
_space_group_symop_operation_xyz
x,y,z
-x,1/2-y,1/2+z
x,-y,-z
-x,1/2+y,1/2-z
-x,-y,-z
x,1/2+y,1/2-z
-x,y,z
x,1/2-y,1/2+z
1/2+x,1/2+y,z
1/2-x,-y,1/2+z
1/2+x,1/2-y,-z
1/2-x,y,1/2-z
1/2-x,1/2-y,-z
1/2+x,y,1/2-z
1/2-x,1/2+y,z
1/2+x,-y,1/2+z
loop_
_atom_site_type_symbol
_atom_site_label
_atom_site_fract_x
_atom_site_fract_y
_atom_site_fract_z
Si Si1 0.698953 0.767539 0.092952
Si Si2 0.406063 0.926214 0.861907
Si Si3 0.906975 0.136389 0.693961
Si Si4 0.224212 0.099008 0.470872
Si Si5 0.680544 0.752052 0.797959
O O1 0.625432 0.794502 0.137480
O O2 0.711469 0.658590 0.070015
O O3 0.775397 0.786139 0.138365
O O4 0.699540 0.833454 0.030178
O O5 0.500000 0.920491 0.875391
O O6 0.351363 0.921215 0.925434
O O7 0.377478 0.837519 0.818098
O O8 0.390013 0.027489 0.827090
O O9 0.863296 0.169446 0.758591
O O10 0.000000 0.146895 0.701630
O O11 0.253993 0.000000 0.500000
O O12 0.750000 0.788440 0.750000
#
# Coordination Sequence:
#
# PCOD9476952 Si02
#       5
#    16  16  16  16  16
#     4   9  19  33  50  77  99 133 168 205 255 294
#     4  10  20  32  51  78 102 132 169 210 260 298
#     4  10  19  33  52  75 105 133 166 210 255 301
#     4  10  18  33  53  73 104 131 168 211 246 301
#     4   9  19  34  50  72 102 136 170 207 248 304
#
# _framework density 16.280684999999998
#
# number of rings (size 3 to 8) (size 9 to 14) (size 15 to 20)
#    0.000    2.400    2.000    0.600    0.000    3.600 
#    3.600    0.000    0.000    0.600    0.000    0.000 
#    0.000    0.000    0.000    0.000    0.000    0.000 
#
# Total GULP energy -222830.602768 kJ/mol
# GULP energy per Si atom -5570.765069 kJ/mol
# Density = 1.624363 g / cm^3
# Si number density = 16.280685 Si / 1000 Ang^3
#
#
#
# Elastic Constant Matrix: (Units=GPa)
#
#
# Indices 1 2 3 4 5 6 
#
# 1 57.5675 49.5668 32.3127 0.0000 0.0000 0.0000
# 2 49.5668 99.0591 49.7989 0.0000 0.0000 0.0000
# 3 32.3127 49.7989 89.8598 0.0000 0.0000 0.0000
# 4 0.0000 0.0000 0.0000 32.0275 0.0000 0.0000
# 5 0.0000 0.0000 0.0000 0.0000 8.0192 0.0000
# 6 0.0000 0.0000 0.0000 0.0000 0.0000 23.3389
#
#
#
# Elastic Compliance Matrix: (Units=1/GPa)
#
#
# Indices 1 2 3 4 5 6 
#
# 1 0.031326 -0.013879 -0.003573 0.000000 0.000000 0.000000
# 2 -0.013879 0.020142 -0.006172 0.000000 0.000000 0.000000
# 3 -0.003573 -0.006172 0.015834 0.000000 0.000000 0.000000
# 4 0.000000 0.000000 0.000000 0.031223 0.000000 0.000000
# 5 0.000000 0.000000 0.000000 0.000000 0.124700 0.000000
# 6 0.000000 0.000000 0.000000 0.000000 0.000000 0.042847
#
#
# Mechanical properties :
#
#
# Convention : Reuss Voigt Hill
#
# Bulk Modulus (GPa) = 49.86369 56.64924 53.25647
# Shear Modulus (GPa) = 15.62475 20.33099 17.97787
#
# Velocity S-wave (km/s) = 3.10128 3.53764 3.32662
# Velocity P-wave (km/s) = 6.59681 7.18035 6.89476
#
# Compressibility (1/GPa) = 0.02005467
#
# Stress axis : x y z
#
# Youngs Moduli (GPa) = 31.92200 49.64691 63.15616
#
# Poissons Ratio (x) = 0.68903 0.22568
# Poissons Ratio (y) = 0.44303 0.38979
# Poissons Ratio (z) = 0.11407 0.30642
#
# Static dielectric constant tensor:
#      x y z
#    x 1.523660 0.000000 0.000000 
#    y 0.000000 1.543510 0.000000 
#    z 0.000000 0.000000 1.557480 
# 
# From -- ./inp_files/32993.got.cif
#   From: 2010.05.17/outbox.cif.g08.bks.cpg/sg64_17_cif.got.tgz:32993.got - 2010.06.03 16:29:19.
