data_PCOD9476228
_publ_section_title
;
Structure prediction by ZEFSAII (Michael W. Deem and Ramdas Pophale) SiO2 
 PCOD9476228
Probable space group: C M C M
;
_chemical_formula_sum "Si O2"
_cell_formula_units_Z 48
_cell_length_a 27.000000
_cell_length_b 21.000000
_cell_length_c 9.000000
_cell_angle_alpha 90.000000
_cell_angle_beta 90.000000
_cell_angle_gamma 90.000000
_cell_volume 5103.000000
_symmetry_space_group_name_H-M "C M C M"
_symmetry_group_IT_number 63
_symmetry_cell_setting 'orthorhombic'
loop_
_space_group_symop_operation_xyz
x,y,z
-x,-y,1/2+z
x,-y,-z
-x,y,1/2-z
-x,-y,-z
x,y,1/2-z
-x,y,z
x,-y,1/2+z
1/2+x,1/2+y,z
1/2-x,1/2-y,1/2+z
1/2+x,1/2-y,-z
1/2-x,1/2+y,1/2-z
1/2-x,1/2-y,-z
1/2+x,1/2+y,1/2-z
1/2-x,1/2+y,z
1/2+x,1/2-y,1/2+z
loop_
_atom_site_type_symbol
_atom_site_label
_atom_site_fract_x
_atom_site_fract_y
_atom_site_fract_z
Si Si1 0.638119 0.158385 0.428205
Si Si2 0.753606 0.322146 0.430598
Si Si3 0.555845 0.069408 0.927816
Si Si4 0.943887 0.233804 0.576793
Si Si5 0.166849 0.068756 0.930566
Si Si6 0.942312 0.900540 0.572977
O O1 0.644561 0.150870 0.250000
O O2 0.692075 0.156330 0.506796
O O3 0.600685 0.106740 0.496469
O O4 0.604109 0.222057 0.450101
O O5 0.754591 0.317623 0.250000
O O6 0.750000 0.250000 0.500000
O O7 0.707352 0.372826 0.465556
O O8 0.562577 0.066797 0.750000
O O9 0.500000 0.096054 0.954774
O O10 0.555792 0.000000 0.000000
O O11 0.940327 0.212340 0.750000
O O12 0.942657 0.174166 0.467367
O O13 0.000000 0.262569 0.563008
O O14 0.164775 0.065294 0.750000
O O15 0.109596 0.077522 0.992589
O O16 0.183451 0.000000 0.000000
O O17 0.937516 0.912151 0.750000
O O18 0.000000 0.922325 0.530613
#
# Coordination Sequence:
#
# PCOD9476228 Si02
#       6
#    16  16  16  16  16  16
#     4  11  22  36  58  86 116 154 199 247 302 362
#     4  11  25  44  65  91 123 161 208 259 312 369
#     4  10  21  37  57  82 115 155 198 247 303 362
#     4   9  18  33  54  83 120 158 196 241 292 348
#     4  11  25  44  66  91 121 159 202 250 304 361
#     4  10  21  37  60  91 124 157 193 236 290 352
#
# _framework density 9.4062319999999993
#
# number of rings (size 3 to 8) (size 9 to 14) (size 15 to 20)
#    0.000    1.667    0.000    4.000    0.000   11.667 
#    0.000    3.333    0.000    0.000    0.000    0.000 
#    0.000    0.000    0.000    0.000    0.000    0.000 
#
# Total GULP energy -267381.788213 kJ/mol
# GULP energy per Si atom -5570.453921 kJ/mol
# Density = 0.938482 g / cm^3
# Si number density = 9.406232 Si / 1000 Ang^3
#
#
#
# Elastic Constant Matrix: (Units=GPa)
#
#
# Indices 1 2 3 4 5 6 
#
# 1 185.2147 60.1523 60.2597 0.0000 0.0000 0.0000
# 2 60.1523 101.6840 49.0109 0.0000 0.0000 0.0000
# 3 60.2597 49.0109 98.2096 0.0000 0.0000 0.0000
# 4 0.0000 0.0000 0.0000 34.0334 0.0000 0.0000
# 5 0.0000 0.0000 0.0000 0.0000 43.0782 0.0000
# 6 0.0000 0.0000 0.0000 0.0000 0.0000 41.5405
#
#
#
# Elastic Compliance Matrix: (Units=1/GPa)
#
#
# Indices 1 2 3 4 5 6 
#
# 1 0.007325 -0.002853 -0.003071 0.000000 0.000000 0.000000
# 2 -0.002853 0.014060 -0.005266 0.000000 0.000000 0.000000
# 3 -0.003071 -0.005266 0.014694 0.000000 0.000000 0.000000
# 4 0.000000 0.000000 0.000000 0.029383 0.000000 0.000000
# 5 0.000000 0.000000 0.000000 0.000000 0.023214 0.000000
# 6 0.000000 0.000000 0.000000 0.000000 0.000000 0.024073
#
#
# Mechanical properties :
#
#
# Convention : Reuss Voigt Hill
#
# Bulk Modulus (GPa) = 72.99270 80.43933 76.71602
# Shear Modulus (GPa) = 35.79224 38.10944 36.95084
#
# Velocity S-wave (km/s) = 4.36659 4.50572 4.43670
# Velocity P-wave (km/s) = 8.01918 8.36182 8.19229
#
# Compressibility (1/GPa) = 0.01370000
#
# Stress axis : x y z
#
# Youngs Moduli (GPa) = 136.52390 71.12174 68.05324
#
# Poissons Ratio (x) = 0.20291 0.20896
# Poissons Ratio (y) = 0.38951 0.35838
# Poissons Ratio (z) = 0.41920 0.37454
#
# Static dielectric constant tensor:
#      x y z
#    x 1.670890 0.000000 0.000000 
#    y 0.000000 1.719430 0.000000 
#    z 0.000000 0.000000 1.667720 
# 
# From -- ./inp_files/12431.got.cif
#   From: 2010.05.17/outbox.ucp.g08.bks.cvg/sg63_7_cif.got.tgz:12431.got - 2010.06.11 16:32:19.
