data_PCOD9476564
_publ_section_title
;
Structure prediction by ZEFSAII (Michael W. Deem and Ramdas Pophale) SiO2 
 PCOD9476564
Probable space group: C M C A
;
_chemical_formula_sum "Si O2"
_cell_formula_units_Z 48
_cell_length_a 12.496001
_cell_length_b 10.159872
_cell_length_c 15.871874
_cell_angle_alpha 90.000000
_cell_angle_beta 90.000000
_cell_angle_gamma 90.000000
_cell_volume 2015.057739
_symmetry_space_group_name_H-M "C M C A"
_symmetry_group_IT_number 64
_symmetry_cell_setting 'orthorhombic'
loop_
_space_group_symop_operation_xyz
x,y,z
-x,1/2-y,1/2+z
x,-y,-z
-x,1/2+y,1/2-z
-x,-y,-z
x,1/2+y,1/2-z
-x,y,z
x,1/2-y,1/2+z
1/2+x,1/2+y,z
1/2-x,-y,1/2+z
1/2+x,1/2-y,-z
1/2-x,y,1/2-z
1/2-x,1/2-y,-z
1/2+x,y,1/2-z
1/2-x,1/2+y,z
1/2+x,-y,1/2+z
loop_
_atom_site_type_symbol
_atom_site_label
_atom_site_fract_x
_atom_site_fract_y
_atom_site_fract_z
Si Si1 0.876832 0.635620 0.955706
Si Si2 0.336736 0.175148 0.611267
Si Si3 0.000000 0.723740 0.746241
Si Si4 0.500000 0.523685 0.159746
O O1 0.790421 0.663846 0.883388
O O2 0.000000 0.617803 0.932650
O O3 0.841310 0.500000 0.000000
O O4 0.866264 0.749914 0.025456
O O5 0.395929 0.250405 0.687284
O O6 0.395822 0.033419 0.613056
O O7 0.000000 0.563956 0.746593
O O8 0.000000 0.824719 0.821630
#
# Coordination Sequence:
#
# PCOD9476564 Si02
#       4
#    16  16   8   8
#     4  10  17  32  63  95 137 162 202 273 346 394
#     4   8  18  33  59  96 127 160 219 266 326 386
#     4   8  16  34  64  92 124 170 226 262 308 387
#     4   8  16  34  64  92 124 170 222 266 310 381
#
# _framework density 23.820657000000001
#
# number of rings (size 3 to 8) (size 9 to 14) (size 15 to 20)
#    2.000    1.000    3.333    0.000    0.000    0.000 
#    0.000    3.333   14.667    8.000    0.000    0.000 
#    0.000    0.000    0.000    0.000    0.000    0.000 
#
# Total GULP energy -133826.333312 kJ/mol
# GULP energy per Si atom -5576.097221 kJ/mol
# Density = 2.376644 g / cm^3
# Si number density = 23.820657 Si / 1000 Ang^3
#
#
#
# Elastic Constant Matrix: (Units=GPa)
#
#
# Indices 1 2 3 4 5 6 
#
# 1 163.8654 17.2155 13.7374 0.0000 0.0000 0.0000
# 2 17.2155 101.1095 33.9546 0.0000 0.0000 0.0000
# 3 13.7374 33.9546 52.0135 0.0000 0.0000 0.0000
# 4 0.0000 0.0000 0.0000 49.6211 0.0000 0.0000
# 5 0.0000 0.0000 0.0000 0.0000 31.4578 0.0000
# 6 0.0000 0.0000 0.0000 0.0000 0.0000 -15.0743
#
#
#
# Elastic Compliance Matrix: (Units=1/GPa)
#
#
# Indices 1 2 3 4 5 6 
#
# 1 0.006274 -0.000656 -0.001229 0.000000 0.000000 0.000000
# 2 -0.000656 0.012736 -0.008141 0.000000 0.000000 0.000000
# 3 -0.001229 -0.008141 0.024865 0.000000 0.000000 0.000000
# 4 0.000000 0.000000 0.000000 0.020153 0.000000 0.000000
# 5 0.000000 0.000000 0.000000 0.000000 0.031789 0.000000
# 6 0.000000 0.000000 0.000000 0.000000 0.000000 -0.066338
#
#
# Mechanical properties :
#
#
# Convention : Reuss Voigt Hill
#
# Bulk Modulus (GPa) = 41.97469 49.64481 45.80975
# Shear Modulus (GPa) = 87.00064 30.00631 58.50347
#
# Velocity S-wave (km/s) = 6.05000 3.55304 4.96118
# Velocity P-wave (km/s) = 8.15247 6.14154 7.21738
#
# Compressibility (1/GPa) = 0.02382388
#
# Stress axis : x y z
#
# Youngs Moduli (GPa) = 159.37551 78.51928 40.21752
#
# Poissons Ratio (x) = 0.05147 0.04944
# Poissons Ratio (y) = 0.10448 0.32740
# Poissons Ratio (z) = 0.19591 0.63921
#
# Static dielectric constant tensor:
#      x y z
#    x 1.915300 0.000000 0.000000 
#    y 0.000000 1.841110 0.000000 
#    z 0.000000 0.000000 1.993510 
# 
# From -- ./inp_files/30271.got.cif
#   From: 2010.05.17/outbox.cif.g08.bks.cpg/sg64_16_cif.got.tgz:30271.got - 2010.06.03 16:29:19.
