data_PCOD9476399
_publ_section_title
;
Structure prediction by ZEFSAII (Michael W. Deem and Ramdas Pophale) SiO2 
 PCOD9476399
Probable space group: C M C A
;
_chemical_formula_sum "Si O2"
_cell_formula_units_Z 88
_cell_length_a 14.631955
_cell_length_b 10.510983
_cell_length_c 24.670597
_cell_angle_alpha 90.000000
_cell_angle_beta 90.000000
_cell_angle_gamma 90.000000
_cell_volume 3794.244817
_symmetry_space_group_name_H-M "C M C A"
_symmetry_group_IT_number 64
_symmetry_cell_setting 'orthorhombic'
loop_
_space_group_symop_operation_xyz
x,y,z
-x,1/2-y,1/2+z
x,-y,-z
-x,1/2+y,1/2-z
-x,-y,-z
x,1/2+y,1/2-z
-x,y,z
x,1/2-y,1/2+z
1/2+x,1/2+y,z
1/2-x,-y,1/2+z
1/2+x,1/2-y,-z
1/2-x,y,1/2-z
1/2-x,1/2-y,-z
1/2+x,y,1/2-z
1/2-x,1/2+y,z
1/2+x,-y,1/2+z
loop_
_atom_site_type_symbol
_atom_site_label
_atom_site_fract_x
_atom_site_fract_y
_atom_site_fract_z
Si Si1 0.500000 0.982216 0.333500
Si Si2 0.679308 0.646137 0.323699
Si Si3 0.000000 0.497311 0.787344
Si Si4 0.654705 0.853332 0.059415
Si Si5 0.199926 0.089107 0.850042
Si Si6 0.896471 0.858238 0.556315
Si Si7 0.000000 0.261870 0.132308
O O1 0.500000 0.938747 0.271246
O O2 0.500000 0.135073 0.332768
O O3 0.406777 0.934864 0.360043
O O4 0.590225 0.589094 0.294673
O O5 0.756566 0.538029 0.323662
O O6 0.710946 0.788689 0.310590
O O7 0.648461 0.668139 0.386176
O O8 0.000000 0.609056 0.832314
O O9 0.743586 0.885289 0.094710
O O10 0.589889 0.762551 0.094538
O O11 0.602428 0.988281 0.056320
O O12 0.658795 0.814085 0.996661
O O13 0.000000 0.810387 0.553140
#
# Coordination Sequence:
#
# PCOD9476399 Si02
#       7
#     8  16   8  16  16  16   8
#     4  12  31  44  67  98 142 182 238 291 352 406
#     4  11  23  45  73 100 143 177 233 287 351 412
#     4  12  25  47  73  98 125 189 234 293 352 417
#     4  10  18  36  70 101 138 177 224 281 347 413
#     4  11  25  45  65 101 140 183 226 289 340 416
#     4  10  16  33  70 109 132 179 232 279 341 426
#     4  12  20  44  69  99 134 174 226 292 347 412
#
# _framework density 23.193020000000001
#
# number of rings (size 3 to 8) (size 9 to 14) (size 15 to 20)
#    0.000    1.091    6.364    2.182    2.545    1.455 
#    0.000    5.455    0.000    9.818    0.000    0.000 
#    0.000    0.000    0.000    0.000    0.000    0.000 
#
# Total GULP energy -245988.341829 kJ/mol
# GULP energy per Si atom -5590.644132 kJ/mol
# Density = 2.314023 g / cm^3
# Si number density = 23.193020 Si / 1000 Ang^3
#
#
#
# Elastic Constant Matrix: (Units=GPa)
#
#
# Indices 1 2 3 4 5 6 
#
# 1 175.7262 41.6650 39.5535 0.0000 0.0000 0.0000
# 2 41.6650 111.5666 -11.7337 0.0000 0.0000 0.0000
# 3 39.5535 -11.7337 89.5274 0.0000 0.0000 0.0000
# 4 0.0000 0.0000 0.0000 6.0943 0.0000 0.0000
# 5 0.0000 0.0000 0.0000 0.0000 14.4655 0.0000
# 6 0.0000 0.0000 0.0000 0.0000 0.0000 22.9574
#
#
#
# Elastic Compliance Matrix: (Units=1/GPa)
#
#
# Indices 1 2 3 4 5 6 
#
# 1 0.007230 -0.003079 -0.003598 0.000000 0.000000 0.000000
# 2 -0.003079 0.010399 0.002723 0.000000 0.000000 0.000000
# 3 -0.003598 0.002723 0.013116 0.000000 0.000000 0.000000
# 4 0.000000 0.000000 0.000000 0.164088 0.000000 0.000000
# 5 0.000000 0.000000 0.000000 0.000000 0.069130 0.000000
# 6 0.000000 0.000000 0.000000 0.000000 0.000000 0.043559
#
#
# Mechanical properties :
#
#
# Convention : Reuss Voigt Hill
#
# Bulk Modulus (GPa) = 43.78443 57.30997 50.54720
# Shear Modulus (GPa) = 15.47779 29.19247 22.33513
#
# Velocity S-wave (km/s) = 2.58611 3.55163 3.10661
# Velocity P-wave (km/s) = 5.27603 6.44844 5.89148
#
# Compressibility (1/GPa) = 0.02283917
#
# Stress axis : x y z
#
# Youngs Moduli (GPa) = 138.30361 96.15954 76.24139
#
# Poissons Ratio (x) = 0.29604 0.27431
# Poissons Ratio (y) = 0.42579 -0.20761
# Poissons Ratio (z) = 0.49761 -0.26185
#
# Static dielectric constant tensor:
#      x y z
#    x 1.899140 0.000000 0.000000 
#    y 0.000000 1.923160 0.000000 
#    z 0.000000 0.000000 2.031970 
# 
# From -- ./inp_files/45118.got.cif
#   From: 2010.05.17/outbox.cif.g08.bks.cpg/sg64_23_cif.got.tgz:45118.got - 2010.06.03 16:29:19.
