data_PCOD9476448
_publ_section_title
;
Structure prediction by ZEFSAII (Michael W. Deem and Ramdas Pophale) SiO2 
 PCOD9476448
Probable space group: C M C A
;
_chemical_formula_sum "Si O2"
_cell_formula_units_Z 80
_cell_length_a 8.120077
_cell_length_b 14.812069
_cell_length_c 31.502589
_cell_angle_alpha 90.000000
_cell_angle_beta 90.000000
_cell_angle_gamma 90.000000
_cell_volume 3788.978328
_symmetry_space_group_name_H-M "C M C A"
_symmetry_group_IT_number 64
_symmetry_cell_setting 'orthorhombic'
loop_
_space_group_symop_operation_xyz
x,y,z
-x,1/2-y,1/2+z
x,-y,-z
-x,1/2+y,1/2-z
-x,-y,-z
x,1/2+y,1/2-z
-x,y,z
x,1/2-y,1/2+z
1/2+x,1/2+y,z
1/2-x,-y,1/2+z
1/2+x,1/2-y,-z
1/2-x,y,1/2-z
1/2-x,1/2-y,-z
1/2+x,y,1/2-z
1/2-x,1/2+y,z
1/2+x,-y,1/2+z
loop_
_atom_site_type_symbol
_atom_site_label
_atom_site_fract_x
_atom_site_fract_y
_atom_site_fract_z
Si Si1 0.306572 0.160945 0.793506
Si Si2 0.310436 0.366161 0.704029
Si Si3 0.300455 0.348173 0.612476
Si Si4 0.300904 0.639090 0.883182
Si Si5 0.197915 0.503960 0.451979
O O1 0.500000 0.180654 0.791388
O O2 0.250000 0.114673 0.750000
O O3 0.209131 0.256453 0.795104
O O4 0.266805 0.110937 0.837128
O O5 0.500000 0.391873 0.702216
O O6 0.250000 0.397611 0.750000
O O7 0.235976 0.388075 0.657676
O O8 0.500000 0.350659 0.613568
O O9 0.251096 0.243276 0.609870
O O10 0.240338 0.404711 0.572685
O O11 0.500000 0.635865 0.881271
O O12 0.241756 0.576185 0.921284
O O13 0.262028 0.500000 0.500000
O O14 0.000000 0.495652 0.454038
#
# Coordination Sequence:
#
# PCOD9476448 Si02
#       5
#    16  16  16  16  16
#     4  10  17  27  48  78 109 142 180 217 258 310
#     4   9  16  28  48  76 110 145 179 215 260 312
#     4   9  19  35  55  79 109 144 179 218 264 316
#     4   9  19  37  56  77 110 146 177 216 268 320
#     4  10  22  39  58  80 106 137 177 226 276 324
#
# _framework density 21.113869999999999
#
# number of rings (size 3 to 8) (size 9 to 14) (size 15 to 20)
#    0.000    2.600    0.000    4.800    0.000    6.000 
#    0.000    1.000    0.000    2.400    0.000    0.000 
#    0.000    0.000    0.000    0.000    0.000    0.000 
#
# Total GULP energy -223167.735579 kJ/mol
# GULP energy per Si atom -5579.193389 kJ/mol
# Density = 2.106581 g / cm^3
# Si number density = 21.113870 Si / 1000 Ang^3
#
#
#
# Elastic Constant Matrix: (Units=GPa)
#
#
# Indices 1 2 3 4 5 6 
#
# 1 14.4302 -2.9866 16.1106 0.0000 0.0000 0.0000
# 2 -2.9866 75.2785 61.6831 0.0000 0.0000 0.0000
# 3 16.1106 61.6831 237.1096 0.0000 0.0000 0.0000
# 4 0.0000 0.0000 0.0000 36.8812 0.0000 0.0000
# 5 0.0000 0.0000 0.0000 0.0000 28.7040 0.0000
# 6 0.0000 0.0000 0.0000 0.0000 0.0000 11.3525
#
#
#
# Elastic Compliance Matrix: (Units=1/GPa)
#
#
# Indices 1 2 3 4 5 6 
#
# 1 0.080220 0.009721 -0.007979 0.000000 0.000000 0.000000
# 2 0.009721 0.018061 -0.005359 0.000000 0.000000 0.000000
# 3 -0.007979 -0.005359 0.006154 0.000000 0.000000 0.000000
# 4 0.000000 0.000000 0.000000 0.027114 0.000000 0.000000
# 5 0.000000 0.000000 0.000000 0.000000 0.034838 0.000000
# 6 0.000000 0.000000 0.000000 0.000000 0.000000 0.088086
#
#
# Mechanical properties :
#
#
# Convention : Reuss Voigt Hill
#
# Bulk Modulus (GPa) = 10.28814 52.93693 31.61254
# Shear Modulus (GPa) = 17.00059 32.18829 24.59444
#
# Velocity S-wave (km/s) = 2.84066 3.90873 3.41669
# Velocity P-wave (km/s) = 3.95505 6.74518 5.52901
#
# Compressibility (1/GPa) = 0.09719929
#
# Stress axis : x y z
#
# Youngs Moduli (GPa) = 12.46579 55.36857 162.50292
#
# Poissons Ratio (x) = -0.53824 1.29669
# Poissons Ratio (y) = -0.12118 0.87084
# Poissons Ratio (z) = 0.09947 0.29672
#
# Static dielectric constant tensor:
#      x y z
#    x 1.740160 0.000000 0.000000 
#    y 0.000000 1.784700 0.000000 
#    z 0.000000 0.000000 1.801210 
# 
# From -- ./inp_files/51749.got.cif
#   From: 2010.05.17/outbox.cif.g08.bks.cpg/sg64_26_cif.got.tgz:51749.got - 2010.06.03 16:29:19.
