data_PCOD9476041
_publ_section_title
;
Structure prediction by ZEFSAII (Michael W. Deem and Ramdas Pophale) SiO2 
 PCOD9476041
Probable space group: C M C M
;
_chemical_formula_sum "Si O2"
_cell_formula_units_Z 48
_cell_length_a 27.000000
_cell_length_b 24.000000
_cell_length_c 9.000000
_cell_angle_alpha 90.000000
_cell_angle_beta 90.000000
_cell_angle_gamma 90.000000
_cell_volume 5832.000000
_symmetry_space_group_name_H-M "C M C M"
_symmetry_group_IT_number 63
_symmetry_cell_setting 'orthorhombic'
loop_
_space_group_symop_operation_xyz
x,y,z
-x,-y,1/2+z
x,-y,-z
-x,y,1/2-z
-x,-y,-z
x,y,1/2-z
-x,y,z
x,-y,1/2+z
1/2+x,1/2+y,z
1/2-x,1/2-y,1/2+z
1/2+x,1/2-y,-z
1/2-x,1/2+y,1/2-z
1/2-x,1/2-y,-z
1/2+x,1/2+y,1/2-z
1/2-x,1/2+y,z
1/2+x,1/2-y,1/2+z
loop_
_atom_site_type_symbol
_atom_site_label
_atom_site_fract_x
_atom_site_fract_y
_atom_site_fract_z
Si Si1 0.899101 0.914874 0.072900
Si Si2 0.179001 0.263813 0.410917
Si Si3 0.758835 0.664156 0.086528
Si Si4 0.200780 0.050437 0.077910
Si Si5 0.000000 0.081943 0.078491
Si Si6 0.404546 0.286095 0.079442
Si Si7 0.500000 0.717977 0.417911
O O1 0.900365 0.919821 0.250000
O O2 0.894743 0.849501 0.029415
O O3 0.850940 0.942254 0.005751
O O4 0.950225 0.935778 0.003645
O O5 0.154116 0.264131 0.250000
O O6 0.205839 0.320695 0.451458
O O7 0.218951 0.214145 0.408455
O O8 0.142771 0.249523 0.543327
O O9 0.783134 0.663245 0.250000
O O10 0.730462 0.607211 0.064997
O O11 0.191591 0.038834 0.250000
O O12 0.228656 0.000000 0.000000
O O13 0.000000 0.150012 0.071905
O O14 0.000000 0.065163 0.250000
O O15 0.416982 0.289590 0.250000
O O16 0.450930 0.262044 0.995144
O O17 0.500000 0.734080 0.250000
#
# Coordination Sequence:
#
# PCOD9476041 Si02
#       7
#    16  16  16  16   8  16   8
#     4  10  19  31  47  66  87 114 150 189 230 276
#     4  10  18  29  48  70  92 117 149 186 227 271
#     4   9  19  33  47  66  91 117 147 186 230 273
#     4  11  22  36  51  67  89 117 151 189 232 278
#     4   9  17  29  46  64  85 113 145 188 235 275
#     4  10  18  28  44  66  93 121 151 186 226 271
#     4   9  17  27  41  62  90 121 154 184 221 269
#
# _framework density 8.2304530000000007
#
# number of rings (size 3 to 8) (size 9 to 14) (size 15 to 20)
#    0.000    2.167    1.667    2.500    0.000    5.333 
#    0.000    0.417    0.000    0.000    0.000    0.000 
#    0.000    0.000    0.000    0.750    0.000   10.167 
#
# Total GULP energy -267282.130462 kJ/mol
# GULP energy per Si atom -5568.377718 kJ/mol
# Density = 0.821172 g / cm^3
# Si number density = 8.230453 Si / 1000 Ang^3
#
#
#
# Elastic Constant Matrix: (Units=GPa)
#
#
# Indices 1 2 3 4 5 6 
#
# 1 15.6735 25.7120 19.7228 0.0000 0.0000 0.0000
# 2 25.7120 44.8928 39.1901 0.0000 0.0000 0.0000
# 3 19.7228 39.1901 17.4947 0.0000 0.0000 0.0000
# 4 0.0000 0.0000 0.0000 10.3742 0.0000 0.0000
# 5 0.0000 0.0000 0.0000 0.0000 112.8671 0.0000
# 6 0.0000 0.0000 0.0000 0.0000 0.0000 38.2762
#
#
#
# Elastic Compliance Matrix: (Units=1/GPa)
#
#
# Indices 1 2 3 4 5 6 
#
# 1 0.719035 -0.309577 -0.117122 0.000000 0.000000 0.000000
# 2 -0.309577 0.109975 0.102647 0.000000 0.000000 0.000000
# 3 -0.117122 0.102647 -0.040742 0.000000 0.000000 0.000000
# 4 0.000000 0.000000 0.000000 0.096393 0.000000 0.000000
# 5 0.000000 0.000000 0.000000 0.000000 0.008860 0.000000
# 6 0.000000 0.000000 0.000000 0.000000 0.000000 0.026126
#
#
# Mechanical properties :
#
#
# Convention : Reuss Voigt Hill
#
# Bulk Modulus (GPa) = 7.13448 27.47895 17.30672
# Shear Modulus (GPa) = 3.09698 31.86591 17.48145
#
# Velocity S-wave (km/s) = 1.37314 4.40461 3.26237
# Velocity P-wave (km/s) = 2.61870 6.52665 4.97266
#
# Compressibility (1/GPa) = 0.14016437
#
# Stress axis : x y z
#
# Youngs Moduli (GPa) = 1.39075 9.09297 -24.54497
#
# Poissons Ratio (x) = 2.81497 -2.87476
# Poissons Ratio (y) = 0.43054 2.51946
# Poissons Ratio (z) = 0.16289 -0.93336
#
# Static dielectric constant tensor:
#      x y z
#    x 1.554530 0.000000 0.000000 
#    y 0.000000 1.607680 0.000000 
#    z 0.000000 0.000000 1.581730 
# 
# From -- ./inp_files/12780.got.cif
#   From: 2010.05.17/outbox.ucp.g08.bks.cvg/sg63_7_cif.got.tgz:12780.got - 2010.06.11 16:32:19.
