data_PCOD9476993
_publ_section_title
;
Structure prediction by ZEFSAII (Michael W. Deem and Ramdas Pophale) SiO2 
 PCOD9476993
Probable space group: C M C A
;
_chemical_formula_sum "Si O2"
_cell_formula_units_Z 96
_cell_length_a 16.912377
_cell_length_b 28.139328
_cell_length_c 10.043364
_cell_angle_alpha 90.000000
_cell_angle_beta 90.000000
_cell_angle_gamma 90.000000
_cell_volume 4779.666291
_symmetry_space_group_name_H-M "C M C A"
_symmetry_group_IT_number 64
_symmetry_cell_setting 'orthorhombic'
loop_
_space_group_symop_operation_xyz
x,y,z
-x,1/2-y,1/2+z
x,-y,-z
-x,1/2+y,1/2-z
-x,-y,-z
x,1/2+y,1/2-z
-x,y,z
x,1/2-y,1/2+z
1/2+x,1/2+y,z
1/2-x,-y,1/2+z
1/2+x,1/2-y,-z
1/2-x,y,1/2-z
1/2-x,1/2-y,-z
1/2+x,y,1/2-z
1/2-x,1/2+y,z
1/2+x,-y,1/2+z
loop_
_atom_site_type_symbol
_atom_site_label
_atom_site_fract_x
_atom_site_fract_y
_atom_site_fract_z
Si Si1 0.326962 0.856289 0.534620
Si Si2 0.912982 0.611335 0.223970
Si Si3 0.809158 0.755424 0.878087
Si Si4 0.155460 0.912032 0.228305
Si Si5 0.908867 0.498383 0.853563
Si Si6 0.857684 0.656084 0.959867
O O1 0.344711 0.884618 0.667700
O O2 0.354655 0.803582 0.582330
O O3 0.363363 0.883764 0.407852
O O4 0.234506 0.851650 0.499425
O O5 0.910426 0.556894 0.179427
O O6 0.901719 0.646482 0.098330
O O7 0.000000 0.620585 0.283740
O O8 0.750000 0.758963 0.750000
O O9 0.750000 0.750000 0.000000
O O10 0.860743 0.707378 0.886744
O O11 0.250000 0.909486 0.250000
O O12 0.130374 0.966629 0.246339
O O13 0.118632 0.883344 0.352344
O O14 0.000000 0.514977 0.865160
O O15 0.869959 0.500000 0.000000
#
# Coordination Sequence:
#
# PCOD9476993 Si02
#       6
#    16  16  16  16  16  16
#     4  10  21  36  57  89 119 146 182 241 298 347
#     4  11  23  38  57  82 114 153 196 238 292 352
#     4  10  18  33  59  88 115 151 190 229 282 354
#     4  10  21  36  57  89 116 141 189 249 295 340
#     4  10  21  40  61  79 106 155 203 235 282 356
#     4  10  19  36  61  85 112 152 197 234 281 348
#
# _framework density 20.085083999999998
#
# number of rings (size 3 to 8) (size 9 to 14) (size 15 to 20)
#    0.000    1.833    1.667    5.000    0.000    2.667 
#    0.000    2.500    0.000    2.000    0.000    0.000 
#    0.000    0.000    0.000    0.000    0.000    0.000 
#
# Total GULP energy -267250.334617 kJ/mol
# GULP energy per Si atom -5567.715305 kJ/mol
# Density = 2.003937 g / cm^3
# Si number density = 20.085084 Si / 1000 Ang^3
#
#
#
# Elastic Constant Matrix: (Units=GPa)
#
#
# Indices 1 2 3 4 5 6 
#
# 1 16.9187 14.9875 12.7580 0.0000 0.0000 0.0000
# 2 14.9875 102.5061 33.7385 0.0000 0.0000 0.0000
# 3 12.7580 33.7385 120.1892 0.0000 0.0000 0.0000
# 4 0.0000 0.0000 0.0000 36.0739 0.0000 0.0000
# 5 0.0000 0.0000 0.0000 0.0000 9.4813 0.0000
# 6 0.0000 0.0000 0.0000 0.0000 0.0000 -3.8335
#
#
#
# Elastic Compliance Matrix: (Units=1/GPa)
#
#
# Indices 1 2 3 4 5 6 
#
# 1 0.070591 -0.008655 -0.005064 0.000000 0.000000 0.000000
# 2 -0.008655 0.011810 -0.002396 0.000000 0.000000 0.000000
# 3 -0.005064 -0.002396 0.009530 0.000000 0.000000 0.000000
# 4 0.000000 0.000000 0.000000 0.027721 0.000000 0.000000
# 5 0.000000 0.000000 0.000000 0.000000 0.105471 0.000000
# 6 0.000000 0.000000 0.000000 0.000000 0.000000 -0.260860
#
#
# Mechanical properties :
#
#
# Convention : Reuss Voigt Hill
#
# Bulk Modulus (GPa) = 16.74988 40.28689 28.51838
# Shear Modulus (GPa) = 304.98564 20.21967 162.60265
#
# Velocity S-wave (km/s) = 12.33598 3.17630 9.00737
# Velocity P-wave (km/s) = 14.53477 5.79254 11.06375
#
# Compressibility (1/GPa) = 0.05970194
#
# Stress axis : x y z
#
# Youngs Moduli (GPa) = 14.16603 84.67651 104.92690
#
# Poissons Ratio (x) = 0.73283 0.53133
# Poissons Ratio (y) = 0.12260 0.25145
# Poissons Ratio (z) = 0.07173 0.20292
#
# Static dielectric constant tensor:
#      x y z
#    x 1.695260 0.000000 0.000000 
#    y 0.000000 1.881760 0.000000 
#    z 0.000000 0.000000 1.724400 
# 
# From -- ./inp_files/8420.got.cif
#   From: 2010.05.17/outbox.cif.g08.bks.cpg/sg64_5_cif.got.tgz:8420.got - 2010.06.03 16:29:19.
