data_PCOD9476220
_publ_section_title
;
Structure prediction by ZEFSAII (Michael W. Deem and Ramdas Pophale) SiO2 
 PCOD9476220
Probable space group: C M C M
;
_chemical_formula_sum "Si O2"
_cell_formula_units_Z 48
_cell_length_a 9.000000
_cell_length_b 21.000000
_cell_length_c 27.000000
_cell_angle_alpha 90.000000
_cell_angle_beta 90.000000
_cell_angle_gamma 90.000000
_cell_volume 5103.000000
_symmetry_space_group_name_H-M "C M C M"
_symmetry_group_IT_number 63
_symmetry_cell_setting 'orthorhombic'
loop_
_space_group_symop_operation_xyz
x,y,z
-x,-y,1/2+z
x,-y,-z
-x,y,1/2-z
-x,-y,-z
x,y,1/2-z
-x,y,z
x,-y,1/2+z
1/2+x,1/2+y,z
1/2-x,1/2-y,1/2+z
1/2+x,1/2-y,-z
1/2-x,1/2+y,1/2-z
1/2-x,1/2-y,-z
1/2+x,1/2+y,1/2-z
1/2-x,1/2+y,z
1/2+x,1/2-y,1/2+z
loop_
_atom_site_type_symbol
_atom_site_label
_atom_site_fract_x
_atom_site_fract_y
_atom_site_fract_z
Si Si1 0.331449 0.695375 0.690609
Si Si2 0.178873 0.056363 0.464900
Si Si3 0.176778 0.804625 0.530996
Si Si4 0.668785 0.447342 0.190616
Si Si5 0.326057 0.061486 0.357714
Si Si6 0.825072 0.812373 0.645958
O O1 0.333373 0.693824 0.750000
O O2 0.500000 0.710740 0.673932
O O3 0.295166 0.624057 0.673021
O O4 0.219438 0.748721 0.673524
O O5 0.215696 0.124964 0.487787
O O6 0.250733 0.053107 0.411217
O O7 0.000000 0.053477 0.459008
O O8 0.228226 0.000000 0.500000
O O9 0.250000 0.750000 0.500000
O O10 0.220422 0.803220 0.588637
O O11 0.000000 0.797493 0.528930
O O12 0.666439 0.446108 0.250000
O O13 0.500000 0.462872 0.173824
O O14 0.781885 0.499833 0.172934
O O15 0.500000 0.068777 0.363027
O O16 0.258281 0.125507 0.334287
O O17 0.000000 0.824367 0.647505
#
# Coordination Sequence:
#
# PCOD9476220 Si02
#       6
#    16  16  16  16  16  16
#     4   9  19  36  57  81 107 136 174 218 263 313
#     4   9  19  37  57  76 102 138 178 217 260 313
#     4   9  19  34  52  75 102 133 170 211 254 305
#     4   9  19  37  58  78 105 142 179 216 263 319
#     4  11  22  35  54  80 109 140 177 223 267 309
#     4  10  21  37  55  77 107 142 179 216 260 316
#
# _framework density 9.4062319999999993
#
# number of rings (size 3 to 8) (size 9 to 14) (size 15 to 20)
#    0.000    2.500    0.000    4.000    0.000    7.000 
#    0.000    6.667    0.000    0.000    0.000    0.000 
#    0.000    0.000    0.000    0.000    0.000    0.000 
#
# Total GULP energy -267606.464668 kJ/mol
# GULP energy per Si atom -5575.134681 kJ/mol
# Density = 0.938482 g / cm^3
# Si number density = 9.406232 Si / 1000 Ang^3
#
#
#
# Elastic Constant Matrix: (Units=GPa)
#
#
# Indices 1 2 3 4 5 6 
#
# 1 20.7438 38.0210 15.7664 0.0000 0.0000 0.0000
# 2 38.0210 92.9224 33.8381 0.0000 0.0000 0.0000
# 3 15.7664 33.8381 15.5252 0.0000 0.0000 0.0000
# 4 0.0000 0.0000 0.0000 28.6644 0.0000 0.0000
# 5 0.0000 0.0000 0.0000 0.0000 23.4036 0.0000
# 6 0.0000 0.0000 0.0000 0.0000 0.0000 28.1539
#
#
#
# Elastic Compliance Matrix: (Units=1/GPa)
#
#
# Indices 1 2 3 4 5 6 
#
# 1 0.247850 -0.047282 -0.148648 0.000000 0.000000 0.000000
# 2 -0.047282 0.061184 -0.085338 0.000000 0.000000 0.000000
# 3 -0.148648 -0.085338 0.401370 0.000000 0.000000 0.000000
# 4 0.000000 0.000000 0.000000 0.034887 0.000000 0.000000
# 5 0.000000 0.000000 0.000000 0.000000 0.042729 0.000000
# 6 0.000000 0.000000 0.000000 0.000000 0.000000 0.035519
#
#
# Mechanical properties :
#
#
# Convention : Reuss Voigt Hill
#
# Bulk Modulus (GPa) = 6.76281 33.82695 20.29488
# Shear Modulus (GPa) = 3.48344 18.81543 11.14943
#
# Velocity S-wave (km/s) = 1.36224 3.16596 2.43711
# Velocity P-wave (km/s) = 2.46514 5.60219 4.32790
#
# Compressibility (1/GPa) = 0.14786750
#
# Stress axis : x y z
#
# Youngs Moduli (GPa) = 4.03470 16.34410 2.49147
#
# Poissons Ratio (x) = 0.77278 0.37035
# Poissons Ratio (y) = 0.19077 0.21262
# Poissons Ratio (z) = 0.59975 1.39478
#
# Static dielectric constant tensor:
#      x y z
#    x 1.642150 0.000000 0.000000 
#    y 0.000000 1.642290 0.000000 
#    z 0.000000 0.000000 1.639200 
# 
# From -- ./inp_files/67000.got.cif
#   From: 2010.05.17/outbox.ucp.g08.bks.cvg/sg63_34_cif.got.tgz:67000.got - 2010.06.11 16:32:19.
