data_PCOD9476032
_publ_section_title
;
Structure prediction by ZEFSAII (Michael W. Deem and Ramdas Pophale) SiO2 
 PCOD9476032
Probable space group: C M C M
;
_chemical_formula_sum "Si O2"
_cell_formula_units_Z 80
_cell_length_a 15.017803
_cell_length_b 34.680058
_cell_length_c 7.535000
_cell_angle_alpha 90.000000
_cell_angle_beta 90.000000
_cell_angle_gamma 90.000000
_cell_volume 3924.365733
_symmetry_space_group_name_H-M "C M C M"
_symmetry_group_IT_number 63
_symmetry_cell_setting 'orthorhombic'
loop_
_space_group_symop_operation_xyz
x,y,z
-x,-y,1/2+z
x,-y,-z
-x,y,1/2-z
-x,-y,-z
x,y,1/2-z
-x,y,z
x,-y,1/2+z
1/2+x,1/2+y,z
1/2-x,1/2-y,1/2+z
1/2+x,1/2-y,-z
1/2-x,1/2+y,1/2-z
1/2-x,1/2-y,-z
1/2+x,1/2+y,1/2-z
1/2-x,1/2+y,z
1/2+x,1/2-y,1/2+z
loop_
_atom_site_type_symbol
_atom_site_label
_atom_site_fract_x
_atom_site_fract_y
_atom_site_fract_z
Si Si1 0.750117 0.601501 0.967909
Si Si2 0.600716 0.543113 0.537435
Si Si3 0.249408 0.310524 0.463454
Si Si4 0.898295 0.249051 0.537652
Si Si5 0.600700 0.043092 0.962570
O O1 0.750296 0.601870 0.750000
O O2 0.664701 0.576861 0.026469
O O3 0.750130 0.645613 0.027558
O O4 0.835377 0.576824 0.026853
O O5 0.635057 0.500000 0.500000
O O6 0.596558 0.546677 0.750000
O O7 0.500000 0.545613 0.466899
O O8 0.256686 0.311557 0.250000
O O9 0.158198 0.287873 0.504492
O O10 0.333254 0.285116 0.530196
O O11 0.903931 0.244432 0.750000
O O12 0.000000 0.249283 0.469597
O O13 0.596579 0.046644 0.750000
O O14 0.500000 0.045540 0.033129
O O15 0.635186 0.000000 0.000000
#
# Coordination Sequence:
#
# PCOD9476032 Si02
#       5
#    16  16  16  16  16
#     4   9  17  29  46  68  91 115 147 187 225 260
#     4   9  17  29  45  65  90 120 153 187 223 265
#     4   9  18  32  50  72  94 119 156 193 226 275
#     4   9  18  33  51  70  95 124 150 184 233 281
#     4   9  17  29  44  62  86 116 149 183 218 257
#
# _framework density 20.385458
#
# number of rings (size 3 to 8) (size 9 to 14) (size 15 to 20)
#    0.000    3.000    0.000    0.600    0.000    2.000 
#    0.000    8.000    0.000    2.400    0.000    2.800 
#    0.000    0.000    0.000    0.000    0.000    0.000 
#
# Total GULP energy -223133.813225 kJ/mol
# GULP energy per Si atom -5578.345331 kJ/mol
# Density = 2.033906 g / cm^3
# Si number density = 20.385458 Si / 1000 Ang^3
#
#
#
# Elastic Constant Matrix: (Units=GPa)
#
#
# Indices 1 2 3 4 5 6 
#
# 1 167.5853 118.3782 5.1853 0.0000 0.0000 0.0000
# 2 118.3782 218.0633 0.9165 0.0000 0.0000 0.0000
# 3 5.1853 0.9165 51.7149 0.0000 0.0000 0.0000
# 4 0.0000 0.0000 0.0000 18.5013 0.0000 0.0000
# 5 0.0000 0.0000 0.0000 0.0000 -36.3214 0.0000
# 6 0.0000 0.0000 0.0000 0.0000 0.0000 40.7386
#
#
#
# Elastic Compliance Matrix: (Units=1/GPa)
#
#
# Indices 1 2 3 4 5 6 
#
# 1 0.009718 -0.005272 -0.000881 0.000000 0.000000 0.000000
# 2 -0.005272 0.007446 0.000397 0.000000 0.000000 0.000000
# 3 -0.000881 0.000397 0.019418 0.000000 0.000000 0.000000
# 4 0.000000 0.000000 0.000000 0.054050 0.000000 0.000000
# 5 0.000000 0.000000 0.000000 0.000000 -0.027532 0.000000
# 6 0.000000 0.000000 0.000000 0.000000 0.000000 0.024547
#
#
# Mechanical properties :
#
#
# Convention : Reuss Voigt Hill
#
# Bulk Modulus (GPa) = 39.88856 76.25815 58.07335
# Shear Modulus (GPa) = 46.50418 25.44259 35.97338
#
# Velocity S-wave (km/s) = 4.78142 3.53664 4.20534
# Velocity P-wave (km/s) = 7.07759 7.35979 7.22007
#
# Compressibility (1/GPa) = 0.02506985
#
# Stress axis : x y z
#
# Youngs Moduli (GPa) = 102.89735 134.29751 51.49837
#
# Poissons Ratio (x) = 0.70802 0.04537
# Poissons Ratio (y) = 0.54248 -0.02043
# Poissons Ratio (z) = 0.09065 -0.05327
#
# Static dielectric constant tensor:
#      x y z
#    x 1.731090 0.000000 0.000000 
#    y 0.000000 1.687130 0.000000 
#    z 0.000000 0.000000 1.782990 
# 
# From -- ./inp_files/19389.got.cif
#   From: 2010.05.17/outbox.cif.g08.bks.cpg/sg63_10_cif.got.tgz:19389.got - 2010.06.03 15:47:04.
