data_PCOD9476229
_publ_section_title
;
Structure prediction by ZEFSAII (Michael W. Deem and Ramdas Pophale) SiO2 
 PCOD9476229
Probable space group: C M C M
;
_chemical_formula_sum "Si O2"
_cell_formula_units_Z 48
_cell_length_a 9.000000
_cell_length_b 21.000000
_cell_length_c 27.000000
_cell_angle_alpha 90.000000
_cell_angle_beta 90.000000
_cell_angle_gamma 90.000000
_cell_volume 5103.000000
_symmetry_space_group_name_H-M "C M C M"
_symmetry_group_IT_number 63
_symmetry_cell_setting 'orthorhombic'
loop_
_space_group_symop_operation_xyz
x,y,z
-x,-y,1/2+z
x,-y,-z
-x,y,1/2-z
-x,-y,-z
x,y,1/2-z
-x,y,z
x,-y,1/2+z
1/2+x,1/2+y,z
1/2-x,1/2-y,1/2+z
1/2+x,1/2-y,-z
1/2-x,1/2+y,1/2-z
1/2-x,1/2-y,-z
1/2+x,1/2+y,1/2-z
1/2-x,1/2+y,z
1/2+x,1/2-y,1/2+z
loop_
_atom_site_type_symbol
_atom_site_label
_atom_site_fract_x
_atom_site_fract_y
_atom_site_fract_z
Si Si1 0.828156 0.023290 0.943621
Si Si2 0.824882 0.319949 0.693831
Si Si3 0.676401 0.146551 0.905772
Si Si4 0.821614 0.401255 0.601869
Si Si5 0.822380 0.682089 0.803565
Si Si6 0.677851 0.231032 0.448672
O O1 0.756655 0.966464 0.912008
O O2 0.000000 0.032867 0.930402
O O3 0.742781 0.089640 0.937411
O O4 0.819315 0.000000 0.000000
O O5 0.806598 0.341952 0.750000
O O6 0.776520 0.372865 0.654987
O O7 0.744656 0.252324 0.689114
O O8 0.000000 0.308304 0.684258
O O9 0.500000 0.151807 0.914499
O O10 0.709085 0.134287 0.848006
O O11 0.752786 0.214597 0.914313
O O12 0.785472 0.341476 0.565866
O O13 0.000000 0.410687 0.600367
O O14 0.771592 0.658858 0.750000
O O15 0.000000 0.690047 0.803240
O O16 0.500000 0.236353 0.449063
O O17 0.750000 0.250000 0.500000
#
# Coordination Sequence:
#
# PCOD9476229 Si02
#       6
#    16  16  16  16  16  16
#     4  11  25  42  59  79 108 150 195 239 286 340
#     4   9  17  32  56  85 115 147 183 226 279 335
#     4  11  22  37  59  85 114 150 189 233 285 339
#     4  10  21  37  57  83 113 147 186 229 280 337
#     4   9  18  33  55  85 117 148 184 227 278 334
#     4  11  22  36  56  84 115 146 187 238 285 337
#
# _framework density 9.4062319999999993
#
# number of rings (size 3 to 8) (size 9 to 14) (size 15 to 20)
#    0.000    1.833    1.667    2.500    0.000    6.667 
#    0.000    0.833    0.000    5.000    0.000    0.000 
#    0.000    0.000    0.000    0.000    0.000    0.000 
#
# Total GULP energy -267613.896909 kJ/mol
# GULP energy per Si atom -5575.289519 kJ/mol
# Density = 0.938482 g / cm^3
# Si number density = 9.406232 Si / 1000 Ang^3
#
#
#
# Elastic Constant Matrix: (Units=GPa)
#
#
# Indices 1 2 3 4 5 6 
#
# 1 19.9716 -8.0066 12.8137 0.0000 0.0000 0.0000
# 2 -8.0066 0.5051 -18.1685 0.0000 0.0000 0.0000
# 3 12.8137 -18.1685 59.8874 0.0000 0.0000 0.0000
# 4 0.0000 0.0000 0.0000 28.7091 0.0000 0.0000
# 5 0.0000 0.0000 0.0000 0.0000 15.1143 0.0000
# 6 0.0000 0.0000 0.0000 0.0000 0.0000 31.9621
#
#
#
# Elastic Compliance Matrix: (Units=1/GPa)
#
#
# Indices 1 2 3 4 5 6 
#
# 1 0.048499 -0.039901 -0.022482 0.000000 0.000000 0.000000
# 2 -0.039901 -0.166900 -0.042096 0.000000 0.000000 0.000000
# 3 -0.022482 -0.042096 0.008737 0.000000 0.000000 0.000000
# 4 0.000000 0.000000 0.000000 0.034832 0.000000 0.000000
# 5 0.000000 0.000000 0.000000 0.000000 0.066162 0.000000
# 6 0.000000 0.000000 0.000000 0.000000 0.000000 0.031287
#
#
# Mechanical properties :
#
#
# Convention : Reuss Voigt Hill
#
# Bulk Modulus (GPa) = -3.13852 5.96014 1.41081
# Shear Modulus (GPa) = 39.88192 21.40547 30.64369
#
# Velocity S-wave (km/s) = 4.60931 3.37684 4.04035
# Velocity P-wave (km/s) = 5.16292 4.28709 4.74525
#
# Compressibility (1/GPa) = -0.31862169
#
# Stress axis : x y z
#
# Youngs Moduli (GPa) = 20.61890 -5.99163 114.45204
#
# Poissons Ratio (x) = -0.23907 2.57312
# Poissons Ratio (y) = 0.82271 4.81800
# Poissons Ratio (z) = 0.46356 -0.25223
#
# Static dielectric constant tensor:
#      x y z
#    x 1.633340 0.000000 0.000000 
#    y 0.000000 1.623100 0.000000 
#    z 0.000000 0.000000 1.733110 
# 
# From -- ./inp_files/67009.got.cif
#   From: 2010.05.17/outbox.ucp.g08.bks.cvg/sg63_34_cif.got.tgz:67009.got - 2010.06.11 16:32:19.
