data_PCOD9476612
_publ_section_title
;
Structure prediction by ZEFSAII (Michael W. Deem and Ramdas Pophale) SiO2 
 PCOD9476612
Probable space group: C M C A
;
_chemical_formula_sum "Si O2"
_cell_formula_units_Z 88
_cell_length_a 28.915362
_cell_length_b 10.069582
_cell_length_c 14.631494
_cell_angle_alpha 90.000000
_cell_angle_beta 90.000000
_cell_angle_gamma 90.000000
_cell_volume 4260.187857
_symmetry_space_group_name_H-M "C M C A"
_symmetry_group_IT_number 64
_symmetry_cell_setting 'orthorhombic'
loop_
_space_group_symop_operation_xyz
x,y,z
-x,1/2-y,1/2+z
x,-y,-z
-x,1/2+y,1/2-z
-x,-y,-z
x,1/2+y,1/2-z
-x,y,z
x,1/2-y,1/2+z
1/2+x,1/2+y,z
1/2-x,-y,1/2+z
1/2+x,1/2-y,-z
1/2-x,y,1/2-z
1/2-x,1/2-y,-z
1/2+x,y,1/2-z
1/2-x,1/2+y,z
1/2+x,-y,1/2+z
loop_
_atom_site_type_symbol
_atom_site_label
_atom_site_fract_x
_atom_site_fract_y
_atom_site_fract_z
Si Si1 0.803067 0.738399 0.358955
Si Si2 0.113339 0.300269 0.276616
Si Si3 0.052774 0.462701 0.798246
Si Si4 0.418991 0.500000 0.500000
Si Si5 0.842167 0.206270 0.447700
Si Si6 0.238510 0.513874 0.108042
O O1 0.848201 0.762837 0.298549
O O2 0.815740 0.735150 0.466390
O O3 0.776187 0.602541 0.340782
O O4 0.770610 0.868612 0.351942
O O5 0.085608 0.431333 0.250987
O O6 0.139945 0.308942 0.373081
O O7 0.076819 0.179988 0.286186
O O8 0.053547 0.501193 0.905668
O O9 0.000000 0.463405 0.765042
O O10 0.385092 0.625895 0.490150
O O11 0.809397 0.098681 0.396582
O O12 0.250356 0.500000 0.000000
#
# Coordination Sequence:
#
# PCOD9476612 Si02
#       6
#    16  16  16   8  16  16
#     4  11  21  40  58  88 127 168 212 258 310 363
#     4  11  24  40  67  93 126 169 208 264 322 382
#     4  11  23  42  67  97 125 160 211 268 326 389
#     4  10  17  38  70  90 120 164 216 252 313 390
#     4  10  18  37  63  89 123 166 213 252 311 368
#     4  10  20  36  61  85 123 170 216 261 294 361
#
# _framework density 20.656366999999999
#
# number of rings (size 3 to 8) (size 9 to 14) (size 15 to 20)
#    0.000    1.455    4.545    4.091    0.000    3.636 
#    0.000    5.455    0.000    1.091    0.000    0.000 
#    0.000    0.000    0.000    0.000    0.000    0.000 
#
# Total GULP energy -246085.133899 kJ/mol
# GULP energy per Si atom -5592.843952 kJ/mol
# Density = 2.060935 g / cm^3
# Si number density = 20.656367 Si / 1000 Ang^3
#
#
#
# Elastic Constant Matrix: (Units=GPa)
#
#
# Indices 1 2 3 4 5 6 
#
# 1 81.9063 23.7883 9.7402 0.0000 0.0000 0.0000
# 2 23.7883 50.7367 16.2904 0.0000 0.0000 0.0000
# 3 9.7402 16.2904 74.7561 0.0000 0.0000 0.0000
# 4 0.0000 0.0000 0.0000 22.8648 0.0000 0.0000
# 5 0.0000 0.0000 0.0000 0.0000 16.8458 0.0000
# 6 0.0000 0.0000 0.0000 0.0000 0.0000 11.6125
#
#
#
# Elastic Compliance Matrix: (Units=1/GPa)
#
#
# Indices 1 2 3 4 5 6 
#
# 1 0.014146 -0.006495 -0.000428 0.000000 0.000000 0.000000
# 2 -0.006495 0.024175 -0.004422 0.000000 0.000000 0.000000
# 3 -0.000428 -0.004422 0.014396 0.000000 0.000000 0.000000
# 4 0.000000 0.000000 0.000000 0.043735 0.000000 0.000000
# 5 0.000000 0.000000 0.000000 0.000000 0.059362 0.000000
# 6 0.000000 0.000000 0.000000 0.000000 0.000000 0.086114
#
#
# Mechanical properties :
#
#
# Convention : Reuss Voigt Hill
#
# Bulk Modulus (GPa) = 33.30264 34.11522 33.70893
# Shear Modulus (GPa) = 18.20649 20.76996 19.48823
#
# Velocity S-wave (km/s) = 2.97206 3.17440 3.07489
# Velocity P-wave (km/s) = 5.28533 5.47606 5.38154
#
# Compressibility (1/GPa) = 0.03002765
#
# Stress axis : x y z
#
# Youngs Moduli (GPa) = 70.68938 41.36565 69.46321
#
# Poissons Ratio (x) = 0.26868 0.02971
# Poissons Ratio (y) = 0.45915 0.30714
# Poissons Ratio (z) = 0.03024 0.18291
#
# Static dielectric constant tensor:
#      x y z
#    x 1.731900 0.000000 0.000000 
#    y 0.000000 1.711870 0.000000 
#    z 0.000000 0.000000 1.766150 
# 
# From -- ./inp_files/27952.got.cif
#   From: 2010.05.17/outbox.cif.g08.bks.cpg/sg64_14_cif.got.tgz:27952.got - 2010.06.03 16:29:19.
