data_PCOD9476667
_publ_section_title
;
Structure prediction by ZEFSAII (Michael W. Deem and Ramdas Pophale) SiO2 
 PCOD9476667
Probable space group: C M C A
;
_chemical_formula_sum "Si O2"
_cell_formula_units_Z 96
_cell_length_a 17.086162
_cell_length_b 19.002280
_cell_length_c 18.193408
_cell_angle_alpha 90.000000
_cell_angle_beta 90.000000
_cell_angle_gamma 90.000000
_cell_volume 5906.963563
_symmetry_space_group_name_H-M "C M C A"
_symmetry_group_IT_number 64
_symmetry_cell_setting 'orthorhombic'
loop_
_space_group_symop_operation_xyz
x,y,z
-x,1/2-y,1/2+z
x,-y,-z
-x,1/2+y,1/2-z
-x,-y,-z
x,1/2+y,1/2-z
-x,y,z
x,1/2-y,1/2+z
1/2+x,1/2+y,z
1/2-x,-y,1/2+z
1/2+x,1/2-y,-z
1/2-x,y,1/2-z
1/2-x,1/2-y,-z
1/2+x,y,1/2-z
1/2-x,1/2+y,z
1/2+x,-y,1/2+z
loop_
_atom_site_type_symbol
_atom_site_label
_atom_site_fract_x
_atom_site_fract_y
_atom_site_fract_z
Si Si1 0.774326 0.471347 0.166485
Si Si2 0.236058 0.346758 0.436810
Si Si3 0.705291 0.811599 0.901347
Si Si4 0.655628 0.097983 0.344820
Si Si5 0.084333 0.915917 0.996055
Si Si6 0.093258 0.413499 0.819493
O O1 0.750000 0.452844 0.250000
O O2 0.777367 0.402483 0.116499
O O3 0.704857 0.525562 0.143795
O O4 0.854110 0.517203 0.162105
O O5 0.283046 0.333735 0.512973
O O6 0.214340 0.272240 0.400628
O O7 0.154989 0.382387 0.460467
O O8 0.777903 0.843259 0.855189
O O9 0.628962 0.849232 0.867564
O O10 0.595335 0.104548 0.411075
O O11 0.615436 0.099918 0.265894
O O12 0.000000 0.892654 0.024243
O O13 0.088177 0.000000 0.000000
O O14 0.000000 0.421962 0.828680
#
# Coordination Sequence:
#
# PCOD9476667 Si02
#       6
#    16  16  16  16  16  16
#     4   9  18  32  52  73  98 135 173 212 257 305
#     4  10  19  35  51  75 104 135 174 221 249 310
#     4   9  20  33  54  74 100 139 179 206 256 308
#     4   9  17  33  52  74 100 136 172 210 247 314
#     4  10  18  28  50  79 102 129 164 213 269 300
#     4  10  20  34  53  78 106 135 171 214 260 311
#
# _framework density 16.252005
#
# number of rings (size 3 to 8) (size 9 to 14) (size 15 to 20)
#    0.000    2.500    1.667    2.000    0.000    2.000 
#    0.000    1.667    0.000    9.000    0.000    0.000 
#    0.000    0.000    0.000    0.000    0.000    0.000 
#
# Total GULP energy -267356.299069 kJ/mol
# GULP energy per Si atom -5569.922897 kJ/mol
# Density = 1.621501 g / cm^3
# Si number density = 16.252005 Si / 1000 Ang^3
#
#
#
# Elastic Constant Matrix: (Units=GPa)
#
#
# Indices 1 2 3 4 5 6 
#
# 1 97.7744 42.5331 35.9063 0.0000 0.0000 0.0000
# 2 42.5331 108.9756 45.8890 0.0000 0.0000 0.0000
# 3 35.9063 45.8890 53.0289 0.0000 0.0000 0.0000
# 4 0.0000 0.0000 0.0000 18.6905 0.0000 0.0000
# 5 0.0000 0.0000 0.0000 0.0000 -8.8105 0.0000
# 6 0.0000 0.0000 0.0000 0.0000 0.0000 6.7571
#
#
#
# Elastic Compliance Matrix: (Units=1/GPa)
#
#
# Indices 1 2 3 4 5 6 
#
# 1 0.013973 -0.002312 -0.007461 0.000000 0.000000 0.000000
# 2 -0.002312 0.014820 -0.011259 0.000000 0.000000 0.000000
# 3 -0.007461 -0.011259 0.033652 0.000000 0.000000 0.000000
# 4 0.000000 0.000000 0.000000 0.053503 0.000000 0.000000
# 5 0.000000 0.000000 0.000000 0.000000 -0.113501 0.000000
# 6 0.000000 0.000000 0.000000 0.000000 0.000000 0.147992
#
#
# Mechanical properties :
#
#
# Convention : Reuss Voigt Hill
#
# Bulk Modulus (GPa) = 49.06266 56.49285 52.77776
# Shear Modulus (GPa) = 25.08822 12.35745 18.72284
#
# Velocity S-wave (km/s) = 3.93326 2.76046 3.39784
# Velocity P-wave (km/s) = 7.13313 6.70792 6.92379
#
# Compressibility (1/GPa) = 0.02038210
#
# Stress axis : x y z
#
# Youngs Moduli (GPa) = 71.56537 67.47704 29.71567
#
# Poissons Ratio (x) = 0.15602 0.22170
# Poissons Ratio (y) = 0.16547 0.33457
# Poissons Ratio (z) = 0.53392 0.75972
#
# Static dielectric constant tensor:
#      x y z
#    x 1.542170 0.000000 0.000000 
#    y 0.000000 1.539380 0.000000 
#    z 0.000000 0.000000 1.555790 
# 
# From -- ./inp_files/40474.got.cif
#   From: 2010.05.17/outbox.cif.g08.bks.cpg/sg64_21_cif.got.tgz:40474.got - 2010.06.03 16:29:19.
