data_PCOD9476868
_publ_section_title
;
Structure prediction by ZEFSAII (Michael W. Deem and Ramdas Pophale) SiO2 
 PCOD9476868
Probable space group: C M C A
;
_chemical_formula_sum "Si O2"
_cell_formula_units_Z 128
_cell_length_a 20.048369
_cell_length_b 18.999363
_cell_length_c 16.462455
_cell_angle_alpha 90.000000
_cell_angle_beta 90.000000
_cell_angle_gamma 90.000000
_cell_volume 6270.651838
_symmetry_space_group_name_H-M "C M C A"
_symmetry_group_IT_number 64
_symmetry_cell_setting 'orthorhombic'
loop_
_space_group_symop_operation_xyz
x,y,z
-x,1/2-y,1/2+z
x,-y,-z
-x,1/2+y,1/2-z
-x,-y,-z
x,1/2+y,1/2-z
-x,y,z
x,1/2-y,1/2+z
1/2+x,1/2+y,z
1/2-x,-y,1/2+z
1/2+x,1/2-y,-z
1/2-x,y,1/2-z
1/2-x,1/2-y,-z
1/2+x,y,1/2-z
1/2-x,1/2+y,z
1/2+x,-y,1/2+z
loop_
_atom_site_type_symbol
_atom_site_label
_atom_site_fract_x
_atom_site_fract_y
_atom_site_fract_z
Si Si1 0.170739 0.527091 0.760893
Si Si2 0.815657 0.180500 0.698880
Si Si3 0.350259 0.735379 0.950932
Si Si4 0.576698 0.324601 0.654123
Si Si5 0.141888 0.452150 0.931966
Si Si6 0.922843 0.418349 0.685053
Si Si7 0.238008 0.643340 0.979882
Si Si8 0.422449 0.723039 0.112238
O O1 0.250000 0.518153 0.750000
O O2 0.156515 0.610378 0.757702
O O3 0.152690 0.495216 0.849430
O O4 0.128577 0.481454 0.696645
O O5 0.750000 0.205211 0.750000
O O6 0.791267 0.150883 0.610720
O O7 0.870792 0.237688 0.672556
O O8 0.292664 0.793714 0.965141
O O9 0.404443 0.747031 0.021347
O O10 0.380550 0.755156 0.864334
O O11 0.315176 0.660990 0.966118
O O12 0.500000 0.306420 0.647027
O O13 0.598904 0.383295 0.588604
O O14 0.586364 0.366128 0.737604
O O15 0.108093 0.500000 0.000000
O O16 0.210634 0.424540 0.973591
O O17 0.912548 0.361457 0.614604
O O18 0.000000 0.442637 0.685386
O O19 0.500000 0.736920 0.132907
#
# Coordination Sequence:
#
# PCOD9476868 Si02
#       8
#    16  16  16  16  16  16  16  16
#     4  10  21  35  53  78 105 137 182 223 267 324
#     4  10  21  35  53  80 111 142 182 228 274 328
#     4   9  18  31  51  74 102 133 171 214 258 313
#     4   9  18  32  50  74 103 134 167 210 260 319
#     4  10  18  32  51  73 105 135 166 211 264 318
#     4   9  20  36  52  75 107 140 177 219 268 325
#     4   9  18  32  49  74 104 134 170 212 261 314
#     4  10  21  36  54  80 109 143 186 227 270 327
#
# _framework density 20.412551000000001
#
# number of rings (size 3 to 8) (size 9 to 14) (size 15 to 20)
#    0.000    2.500    1.250    0.375    3.500    1.250 
#    0.000    0.000    0.000    0.000    0.000    0.000 
#    0.000    6.000    0.000    0.000    0.000    0.000 
#
# Total GULP energy -356530.546580 kJ/mol
# GULP energy per Si atom -5570.789790 kJ/mol
# Density = 2.036609 g / cm^3
# Si number density = 20.412551 Si / 1000 Ang^3
#
#
#
# Elastic Constant Matrix: (Units=GPa)
#
#
# Indices 1 2 3 4 5 6 
#
# 1 65.2485 31.3935 -9.2166 0.0000 0.0000 0.0000
# 2 31.3935 55.8669 -13.9814 0.0000 0.0000 0.0000
# 3 -9.2166 -13.9814 20.6927 0.0000 0.0000 0.0000
# 4 0.0000 0.0000 0.0000 23.8091 0.0000 0.0000
# 5 0.0000 0.0000 0.0000 0.0000 20.4783 0.0000
# 6 0.0000 0.0000 0.0000 0.0000 0.0000 21.9612
#
#
#
# Elastic Compliance Matrix: (Units=1/GPa)
#
#
# Indices 1 2 3 4 5 6 
#
# 1 0.021053 -0.011413 0.001665 0.000000 0.000000 0.000000
# 2 -0.011413 0.027730 0.013653 0.000000 0.000000 0.000000
# 3 0.001665 0.013653 0.058293 0.000000 0.000000 0.000000
# 4 0.000000 0.000000 0.000000 0.042001 0.000000 0.000000
# 5 0.000000 0.000000 0.000000 0.000000 0.048832 0.000000
# 6 0.000000 0.000000 0.000000 0.000000 0.000000 0.045535
#
#
# Mechanical properties :
#
#
# Convention : Reuss Voigt Hill
#
# Bulk Modulus (GPa) = 8.70441 17.57769 13.14105
# Shear Modulus (GPa) = 18.25291 22.15724 20.20508
#
# Velocity S-wave (km/s) = 2.99356 3.29822 3.14958
# Velocity P-wave (km/s) = 4.02766 4.80981 4.43601
#
# Compressibility (1/GPa) = 0.11488431
#
# Stress axis : x y z
#
# Youngs Moduli (GPa) = 47.49990 36.06196 17.15482
#
# Poissons Ratio (x) = 0.41159 -0.02857
# Poissons Ratio (y) = 0.54214 -0.23421
# Poissons Ratio (z) = -0.07910 -0.49234
#
# Static dielectric constant tensor:
#      x y z
#    x 1.737580 0.000000 0.000000 
#    y 0.000000 1.757420 0.000000 
#    z 0.000000 0.000000 1.783600 
# 
# From -- ./inp_files/34641.got.cif
#   From: 2010.05.17/outbox.cif.g08.bks.cpg/sg64_18_cif.got.tgz:34641.got - 2010.06.03 16:29:19.
