data_PCOD9476013
_publ_section_title
;
Structure prediction by ZEFSAII (Michael W. Deem and Ramdas Pophale) SiO2 
 PCOD9476013
Probable space group: C M C M
;
_chemical_formula_sum "Si O2"
_cell_formula_units_Z 80
_cell_length_a 21.008370
_cell_length_b 12.623933
_cell_length_c 14.168046
_cell_angle_alpha 90.000000
_cell_angle_beta 90.000000
_cell_angle_gamma 90.000000
_cell_volume 3757.482761
_symmetry_space_group_name_H-M "C M C M"
_symmetry_group_IT_number 63
_symmetry_cell_setting 'orthorhombic'
loop_
_space_group_symop_operation_xyz
x,y,z
-x,-y,1/2+z
x,-y,-z
-x,y,1/2-z
-x,-y,-z
x,y,1/2-z
-x,y,z
x,-y,1/2+z
1/2+x,1/2+y,z
1/2-x,1/2-y,1/2+z
1/2+x,1/2-y,-z
1/2-x,1/2+y,1/2-z
1/2-x,1/2-y,-z
1/2+x,1/2+y,1/2-z
1/2-x,1/2+y,z
1/2+x,1/2-y,1/2+z
loop_
_atom_site_type_symbol
_atom_site_label
_atom_site_fract_x
_atom_site_fract_y
_atom_site_fract_z
Si Si1 0.570025 0.865272 0.458166
Si Si2 0.872087 0.176511 0.138441
Si Si3 0.665863 0.554993 0.634659
Si Si4 0.195050 0.617581 0.638502
Si Si5 0.073707 0.248177 0.641666
O O1 0.500000 0.908402 0.436836
O O2 0.575054 0.746560 0.413386
O O3 0.631056 0.921086 0.412810
O O4 0.578803 0.844202 0.568758
O O5 0.886815 0.172041 0.250000
O O6 0.810467 0.253958 0.128021
O O7 0.859913 0.058873 0.102975
O O8 0.667736 0.550728 0.750000
O O9 0.737971 0.575640 0.602786
O O10 0.620481 0.653425 0.612103
O O11 0.189731 0.594774 0.750000
O O12 0.088173 0.277399 0.750000
O O13 0.000000 0.211856 0.638373
#
# Coordination Sequence:
#
# PCOD9476013 Si02
#       5
#    16  16  16  16  16
#     4   9  17  29  45  68  97 125 155 193 240 287
#     4   8  16  28  43  67  95 122 153 189 232 279
#     4   9  16  29  46  63  93 129 157 190 233 283
#     4   8  16  29  45  68  94 123 156 192 235 281
#     4   9  18  30  44  64  90 126 165 196 233 283
#
# _framework density 21.290849000000001
#
# number of rings (size 3 to 8) (size 9 to 14) (size 15 to 20)
#    1.200    2.200    0.000    0.000    0.000    4.000 
#    0.000    4.000    0.000    0.000    0.000    1.400 
#    0.000   11.200    0.000    0.200    0.000    0.000 
#
# Total GULP energy -222815.674688 kJ/mol
# GULP energy per Si atom -5570.391867 kJ/mol
# Density = 2.124239 g / cm^3
# Si number density = 21.290849 Si / 1000 Ang^3
#
#
#
# Elastic Constant Matrix: (Units=GPa)
#
#
# Indices 1 2 3 4 5 6 
#
# 1 124.1223 32.7657 29.5269 0.0000 0.0000 0.0000
# 2 32.7657 48.5683 9.6554 0.0000 0.0000 0.0000
# 3 29.5269 9.6554 54.1534 0.0000 0.0000 0.0000
# 4 0.0000 0.0000 0.0000 20.5313 0.0000 0.0000
# 5 0.0000 0.0000 0.0000 0.0000 17.8414 0.0000
# 6 0.0000 0.0000 0.0000 0.0000 0.0000 -30.6615
#
#
#
# Elastic Compliance Matrix: (Units=1/GPa)
#
#
# Indices 1 2 3 4 5 6 
#
# 1 0.010884 -0.006389 -0.004795 0.000000 0.000000 0.000000
# 2 -0.006389 0.025097 -0.000991 0.000000 0.000000 0.000000
# 3 -0.004795 -0.000991 0.021257 0.000000 0.000000 0.000000
# 4 0.000000 0.000000 0.000000 0.048706 0.000000 0.000000
# 5 0.000000 0.000000 0.000000 0.000000 0.056049 0.000000
# 6 0.000000 0.000000 0.000000 0.000000 0.000000 -0.032614
#
#
# Mechanical properties :
#
#
# Convention : Reuss Voigt Hill
#
# Bulk Modulus (GPa) = 30.40692 41.19332 35.80012
# Shear Modulus (GPa) = 30.35950 11.86864 21.11407
#
# Velocity S-wave (km/s) = 3.78026 2.36360 3.15254
# Velocity P-wave (km/s) = 5.77638 5.18061 5.48659
#
# Compressibility (1/GPa) = 0.03288725
#
# Stress axis : x y z
#
# Youngs Moduli (GPa) = 91.87845 39.84532 47.04259
#
# Poissons Ratio (x) = 0.25459 0.22558
# Poissons Ratio (y) = 0.58705 0.04662
# Poissons Ratio (z) = 0.44058 0.03948
#
# Static dielectric constant tensor:
#      x y z
#    x 1.726990 0.000000 0.000000 
#    y 0.000000 1.777180 0.000000 
#    z 0.000000 0.000000 1.806940 
# 
# From -- ./inp_files/36447.got.cif
#   From: 2010.05.17/outbox.cif.g08.bks.cpg/sg63_19_cif.got.tgz:36447.got - 2010.06.03 15:47:04.
