data_PCOD9476314
_publ_section_title
;
Structure prediction by ZEFSAII (Michael W. Deem and Ramdas Pophale) SiO2 
 PCOD9476314
Probable space group: C M C A
;
_chemical_formula_sum "Si O2"
_cell_formula_units_Z 48
_cell_length_a 13.532931
_cell_length_b 29.198691
_cell_length_c 5.448817
_cell_angle_alpha 90.000000
_cell_angle_beta 90.000000
_cell_angle_gamma 90.000000
_cell_volume 2153.066640
_symmetry_space_group_name_H-M "C M C A"
_symmetry_group_IT_number 64
_symmetry_cell_setting 'orthorhombic'
loop_
_space_group_symop_operation_xyz
x,y,z
-x,1/2-y,1/2+z
x,-y,-z
-x,1/2+y,1/2-z
-x,-y,-z
x,1/2+y,1/2-z
-x,y,z
x,1/2-y,1/2+z
1/2+x,1/2+y,z
1/2-x,-y,1/2+z
1/2+x,1/2-y,-z
1/2-x,y,1/2-z
1/2-x,1/2-y,-z
1/2+x,y,1/2-z
1/2-x,1/2+y,z
1/2+x,-y,1/2+z
loop_
_atom_site_type_symbol
_atom_site_label
_atom_site_fract_x
_atom_site_fract_y
_atom_site_fract_z
Si Si1 0.113324 0.365011 0.885540
Si Si2 0.187217 0.000000 0.000000
Si Si3 0.384581 0.401039 0.113903
Si Si4 0.500000 0.221700 0.006832
O O1 0.155554 0.371475 0.614460
O O2 0.000000 0.384068 0.856088
O O3 0.157977 0.391966 0.114999
O O4 0.093650 0.312495 0.959952
O O5 0.125953 0.046149 0.957152
O O6 0.250000 0.993481 0.750000
O O7 0.500000 0.387712 0.142364
O O8 0.500000 0.244237 0.739005
#
# Coordination Sequence:
#
# PCOD9476314 Si02
#       4
#    16   8  16   8
#     4   8  17  28  48  73 101 137 166 202 250 317
#     4  12  25  36  51  78 106 134 184 230 255 288
#     4  10  18  36  53  71 101 145 177 206 252 318
#     4  10  16  26  46  77 116 131 152 212 272 304
#
# _framework density 22.293780999999999
#
# number of rings (size 3 to 8) (size 9 to 14) (size 15 to 20)
#    1.000    1.333    0.000    4.500    0.000    0.000 
#    0.000    6.667    0.000    0.000    0.000    0.000 
#    0.000   93.333    0.000    0.000    0.000    0.000 
#
# Total GULP energy -133822.759654 kJ/mol
# GULP energy per Si atom -5575.948319 kJ/mol
# Density = 2.224304 g / cm^3
# Si number density = 22.293781 Si / 1000 Ang^3
#
#
#
# Elastic Constant Matrix: (Units=GPa)
#
#
# Indices 1 2 3 4 5 6 
#
# 1 44.1465 -14.6462 23.9560 0.0000 0.0000 0.0000
# 2 -14.6462 77.8585 6.0902 0.0000 0.0000 0.0000
# 3 23.9560 6.0902 162.0483 0.0000 0.0000 0.0000
# 4 0.0000 0.0000 0.0000 53.7615 0.0000 0.0000
# 5 0.0000 0.0000 0.0000 0.0000 43.1042 0.0000
# 6 0.0000 0.0000 0.0000 0.0000 0.0000 3.0472
#
#
#
# Elastic Compliance Matrix: (Units=1/GPa)
#
#
# Indices 1 2 3 4 5 6 
#
# 1 0.026673 0.005342 -0.004144 0.000000 0.000000 0.000000
# 2 0.005342 0.013951 -0.001314 0.000000 0.000000 0.000000
# 3 -0.004144 -0.001314 0.006833 0.000000 0.000000 0.000000
# 4 0.000000 0.000000 0.000000 0.018601 0.000000 0.000000
# 5 0.000000 0.000000 0.000000 0.000000 0.023200 0.000000
# 6 0.000000 0.000000 0.000000 0.000000 0.000000 0.328171
#
#
# Mechanical properties :
#
#
# Convention : Reuss Voigt Hill
#
# Bulk Modulus (GPa) = 21.17540 34.98370 28.07955
# Shear Modulus (GPa) = 11.53663 37.89282 24.71472
#
# Velocity S-wave (km/s) = 2.27729 4.12722 3.33317
# Velocity P-wave (km/s) = 4.05385 6.19985 5.23793
#
# Compressibility (1/GPa) = 0.04722460
#
# Stress axis : x y z
#
# Youngs Moduli (GPa) = 37.49164 71.67726 146.34922
#
# Poissons Ratio (x) = -0.38287 0.60645
# Poissons Ratio (y) = -0.20027 0.19230
# Poissons Ratio (z) = 0.15536 0.09418
#
# Static dielectric constant tensor:
#      x y z
#    x 1.891830 0.000000 0.000000 
#    y 0.000000 1.771890 0.000000 
#    z 0.000000 0.000000 1.859430 
# 
# From -- ./inp_files/819.got.cif
#   From: 2010.05.17/outbox.cif.g08.bks.cpg/sg64_1_cif.got.tgz:819.got - 2010.06.03 16:29:19.
