data_PCOD9476495
_publ_section_title
;
Structure prediction by ZEFSAII (Michael W. Deem and Ramdas Pophale) SiO2 
 PCOD9476495
Probable space group: C M C A
;
_chemical_formula_sum "Si O2"
_cell_formula_units_Z 88
_cell_length_a 19.413559
_cell_length_b 20.400634
_cell_length_c 13.979965
_cell_angle_alpha 90.000000
_cell_angle_beta 90.000000
_cell_angle_gamma 90.000000
_cell_volume 5536.749925
_symmetry_space_group_name_H-M "C M C A"
_symmetry_group_IT_number 64
_symmetry_cell_setting 'orthorhombic'
loop_
_space_group_symop_operation_xyz
x,y,z
-x,1/2-y,1/2+z
x,-y,-z
-x,1/2+y,1/2-z
-x,-y,-z
x,1/2+y,1/2-z
-x,y,z
x,1/2-y,1/2+z
1/2+x,1/2+y,z
1/2-x,-y,1/2+z
1/2+x,1/2-y,-z
1/2-x,y,1/2-z
1/2-x,1/2-y,-z
1/2+x,y,1/2-z
1/2-x,1/2+y,z
1/2+x,-y,1/2+z
loop_
_atom_site_type_symbol
_atom_site_label
_atom_site_fract_x
_atom_site_fract_y
_atom_site_fract_z
Si Si1 0.805238 0.804621 0.531720
Si Si2 0.577058 0.630971 0.963762
Si Si3 0.727010 0.928944 0.457264
Si Si4 0.750000 0.123065 0.750000
Si Si5 0.577537 0.250832 0.401651
Si Si6 0.869518 0.724366 0.697145
O O1 0.750000 0.750000 0.500000
O O2 0.766994 0.873448 0.518739
O O3 0.868274 0.796194 0.457760
O O4 0.832707 0.781376 0.635145
O O5 0.500000 0.601436 0.962492
O O6 0.644541 0.585655 0.958929
O O7 0.584158 0.682691 0.876266
O O8 0.584550 0.677759 0.055978
O O9 0.751948 0.918736 0.347549
O O10 0.740534 0.000000 0.500000
O O11 0.813759 0.172298 0.764247
O O12 0.500000 0.273263 0.421520
O O13 0.591442 0.250111 0.289348
#
# Coordination Sequence:
#
# PCOD9476495 Si02
#       6
#    16  16  16   8  16  16
#     4  11  18  35  55  82 107 140 178 230 269 312
#     4   9  19  33  50  78 110 139 178 223 271 321
#     4  11  22  37  54  81 111 146 185 219 272 324
#     4  10  18  34  56  76 106 138 178 228 266 322
#     4  10  18  30  53  83 110 136 174 225 276 320
#     4  10  17  29  56  78 107 135 180 219 275 320
#
# _framework density 15.893801
#
# number of rings (size 3 to 8) (size 9 to 14) (size 15 to 20)
#    0.000    1.818    7.273    0.545    0.000    1.091 
#    3.273    0.000    0.000    0.545    0.000    0.000 
#    0.000    0.000    0.000    0.000    0.000    0.000 
#
# Total GULP energy -245126.021733 kJ/mol
# GULP energy per Si atom -5571.045948 kJ/mol
# Density = 1.585763 g / cm^3
# Si number density = 15.893801 Si / 1000 Ang^3
#
#
#
# Elastic Constant Matrix: (Units=GPa)
#
#
# Indices 1 2 3 4 5 6 
#
# 1 95.6338 40.9550 28.8843 0.0000 0.0000 0.0000
# 2 40.9550 99.3054 45.7582 0.0000 0.0000 0.0000
# 3 28.8843 45.7582 95.4517 0.0000 0.0000 0.0000
# 4 0.0000 0.0000 0.0000 19.8881 0.0000 0.0000
# 5 0.0000 0.0000 0.0000 0.0000 21.9916 0.0000
# 6 0.0000 0.0000 0.0000 0.0000 0.0000 11.0593
#
#
#
# Elastic Compliance Matrix: (Units=1/GPa)
#
#
# Indices 1 2 3 4 5 6 
#
# 1 0.012921 -0.004527 -0.001740 0.000000 0.000000 0.000000
# 2 -0.004527 0.014511 -0.005587 0.000000 0.000000 0.000000
# 3 -0.001740 -0.005587 0.013681 0.000000 0.000000 0.000000
# 4 0.000000 0.000000 0.000000 0.050281 0.000000 0.000000
# 5 0.000000 0.000000 0.000000 0.000000 0.045472 0.000000
# 6 0.000000 0.000000 0.000000 0.000000 0.000000 0.090422
#
#
# Mechanical properties :
#
#
# Convention : Reuss Voigt Hill
#
# Bulk Modulus (GPa) = 57.45028 57.95399 57.70213
# Shear Modulus (GPa) = 19.47067 22.24069 20.85568
#
# Velocity S-wave (km/s) = 3.50387 3.74482 3.62635
# Velocity P-wave (km/s) = 7.25219 7.43241 7.34285
#
# Compressibility (1/GPa) = 0.01740636
#
# Stress axis : x y z
#
# Youngs Moduli (GPa) = 77.39525 68.91250 73.09385
#
# Poissons Ratio (x) = 0.31197 0.12716
# Poissons Ratio (y) = 0.35037 0.40834
# Poissons Ratio (z) = 0.13464 0.38498
#
# Static dielectric constant tensor:
#      x y z
#    x 1.566870 0.000000 0.000000 
#    y 0.000000 1.519710 0.000000 
#    z 0.000000 0.000000 1.555420 
# 
# From -- ./inp_files/25410.got.cif
#   From: 2010.05.17/outbox.cif.g08.bks.cpg/sg64_13_cif.got.tgz:25410.got - 2010.06.03 16:29:19.
