data_PCOD9476150
_publ_section_title
;
Structure prediction by ZEFSAII (Michael W. Deem and Ramdas Pophale) SiO2 
 PCOD9476150
Probable space group: C M C M
;
_chemical_formula_sum "Si O2"
_cell_formula_units_Z 36
_cell_length_a 27.000000
_cell_length_b 15.000000
_cell_length_c 9.000000
_cell_angle_alpha 90.000000
_cell_angle_beta 90.000000
_cell_angle_gamma 90.000000
_cell_volume 3645.000000
_symmetry_space_group_name_H-M "C M C M"
_symmetry_group_IT_number 63
_symmetry_cell_setting 'orthorhombic'
loop_
_space_group_symop_operation_xyz
x,y,z
-x,-y,1/2+z
x,-y,-z
-x,y,1/2-z
-x,-y,-z
x,y,1/2-z
-x,y,z
x,-y,1/2+z
1/2+x,1/2+y,z
1/2-x,1/2-y,1/2+z
1/2+x,1/2-y,-z
1/2-x,1/2+y,1/2-z
1/2-x,1/2-y,-z
1/2+x,1/2+y,1/2-z
1/2-x,1/2+y,z
1/2+x,1/2-y,1/2+z
loop_
_atom_site_type_symbol
_atom_site_label
_atom_site_fract_x
_atom_site_fract_y
_atom_site_fract_z
Si Si1 0.834301 0.087281 0.074311
Si Si2 0.121454 0.594965 0.428538
Si Si3 0.730664 0.159549 0.072916
Si Si4 0.000000 0.097344 0.427575
Si Si5 0.089410 0.230692 0.428607
O O1 0.841980 0.080441 0.250000
O O2 0.776150 0.093285 0.043672
O O3 0.860504 0.178542 0.026759
O O4 0.856461 0.000000 0.000000
O O5 0.108974 0.500000 0.500000
O O6 0.119824 0.589689 0.250000
O O7 0.177742 0.621901 0.476600
O O8 0.087612 0.675521 0.488397
O O9 0.727448 0.173596 0.250000
O O10 0.750000 0.250000 0.000000
O O11 0.046872 0.159526 0.465008
O O12 0.000000 0.084429 0.250000
O O13 0.000000 0.000000 0.500000
O O14 0.089106 0.245779 0.250000
#
# Coordination Sequence:
#
# PCOD9476150 Si02
#       5
#    16  16  16   8  16
#     4  10  20  33  52  79 112 149 186 229 279 333
#     4  11  23  38  59  86 116 155 198 240 289 343
#     4  10  20  34  53  80 113 152 194 235 282 335
#     4  10  22  40  65  94 121 152 187 234 294 350
#     4  10  21  39  60  84 117 151 190 239 289 343
#
# _framework density 9.8765429999999999
#
# number of rings (size 3 to 8) (size 9 to 14) (size 15 to 20)
#    0.000    1.778    2.222    2.000    0.000    3.556 
#    0.000    0.556    0.000    0.000    0.000    0.000 
#    0.000    0.000    0.000    0.000    0.000    0.000 
#
# Total GULP energy -200871.437160 kJ/mol
# GULP energy per Si atom -5579.762143 kJ/mol
# Density = 0.985406 g / cm^3
# Si number density = 9.876543 Si / 1000 Ang^3
#
#
#
# Elastic Constant Matrix: (Units=GPa)
#
#
# Indices 1 2 3 4 5 6 
#
# 1 58.4591 34.6940 37.0665 0.0000 0.0000 0.0000
# 2 34.6940 196.3220 75.9291 0.0000 0.0000 0.0000
# 3 37.0665 75.9291 18.4706 0.0000 0.0000 0.0000
# 4 0.0000 0.0000 0.0000 41.1067 0.0000 0.0000
# 5 0.0000 0.0000 0.0000 0.0000 14.7265 0.0000
# 6 0.0000 0.0000 0.0000 0.0000 0.0000 12.8876
#
#
#
# Elastic Compliance Matrix: (Units=1/GPa)
#
#
# Indices 1 2 3 4 5 6 
#
# 1 0.009647 -0.009803 0.020939 0.000000 0.000000 0.000000
# 2 -0.009803 0.001327 0.014219 0.000000 0.000000 0.000000
# 3 0.020939 0.014219 -0.046333 0.000000 0.000000 0.000000
# 4 0.000000 0.000000 0.000000 0.024327 0.000000 0.000000
# 5 0.000000 0.000000 0.000000 0.000000 0.067905 0.000000
# 6 0.000000 0.000000 0.000000 0.000000 0.000000 0.077594
#
#
# Mechanical properties :
#
#
# Convention : Reuss Voigt Hill
#
# Bulk Modulus (GPa) = 65.14116 63.18120 64.16118
# Shear Modulus (GPa) = 56.25983 22.11496 39.18739
#
# Velocity S-wave (km/s) = 5.34260 3.34963 4.45889
# Velocity P-wave (km/s) = 8.43250 6.85674 7.68512
#
# Compressibility (1/GPa) = 0.01535128
#
# Stress axis : x y z
#
# Youngs Moduli (GPa) = 103.65556 753.78544 -21.58278
#
# Poissons Ratio (x) = 7.38955 0.45192
# Poissons Ratio (y) = 1.01616 0.30689
# Poissons Ratio (z) = -2.17046 -10.71837
#
# Static dielectric constant tensor:
#      x y z
#    x 1.739370 0.000000 0.000000 
#    y 0.000000 1.664320 0.000000 
#    z 0.000000 0.000000 1.659950 
# 
# From -- ./inp_files/11716.got.cif
#   From: 2010.05.17/outbox.ucp.g08.bks.cvg/sg63_6_cif.got.tgz:11716.got - 2010.06.11 16:32:19.
