data_PCOD9476227
_publ_section_title
;
Structure prediction by ZEFSAII (Michael W. Deem and Ramdas Pophale) SiO2 
 PCOD9476227
Probable space group: C M C M
;
_chemical_formula_sum "Si O2"
_cell_formula_units_Z 32
_cell_length_a 9.000000
_cell_length_b 18.000000
_cell_length_c 21.000000
_cell_angle_alpha 90.000000
_cell_angle_beta 90.000000
_cell_angle_gamma 90.000000
_cell_volume 3402.000000
_symmetry_space_group_name_H-M "C M C M"
_symmetry_group_IT_number 63
_symmetry_cell_setting 'orthorhombic'
loop_
_space_group_symop_operation_xyz
x,y,z
-x,-y,1/2+z
x,-y,-z
-x,y,1/2-z
-x,-y,-z
x,y,1/2-z
-x,y,z
x,-y,1/2+z
1/2+x,1/2+y,z
1/2-x,1/2-y,1/2+z
1/2+x,1/2-y,-z
1/2-x,1/2+y,1/2-z
1/2-x,1/2-y,-z
1/2+x,1/2+y,1/2-z
1/2-x,1/2+y,z
1/2+x,1/2-y,1/2+z
loop_
_atom_site_type_symbol
_atom_site_label
_atom_site_fract_x
_atom_site_fract_y
_atom_site_fract_z
Si Si1 0.675315 0.445706 0.177428
Si Si2 0.175153 0.292526 0.558686
Si Si3 0.172417 0.053152 0.061027
Si Si4 0.823227 0.713224 0.676768
O O1 0.698531 0.472248 0.250000
O O2 0.500000 0.426177 0.170956
O O3 0.707857 0.506691 0.124411
O O4 0.770704 0.371708 0.167822
O O5 0.250000 0.250000 0.500000
O O6 0.219661 0.378124 0.553154
O O7 0.240824 0.262129 0.624750
O O8 0.000000 0.281042 0.556775
O O9 0.000000 0.079141 0.065808
O O10 0.181611 0.000000 0.000000
O O11 0.786958 0.733746 0.750000
O O12 0.000000 0.718961 0.668494
#
# Coordination Sequence:
#
# PCOD9476227 Si02
#       4
#    16  16  16  16
#     4   9  18  34  57  84 115 151 188 228 279 339
#     4  12  25  40  60  85 116 153 194 241 289 341
#     4  10  21  37  57  82 113 149 188 232 285 343
#     4  10  21  38  61  88 119 154 192 236 285 339
#
# _framework density 9.4062319999999993
#
# number of rings (size 3 to 8) (size 9 to 14) (size 15 to 20)
#    0.000    1.750    0.000    4.500    0.000    6.000 
#    0.000    2.500    0.000    0.000    0.000    0.000 
#    0.000    0.000    0.000    0.000    0.000    0.000 
#
# Total GULP energy -178822.451257 kJ/mol
# GULP energy per Si atom -5588.201602 kJ/mol
# Density = 0.938482 g / cm^3
# Si number density = 9.406232 Si / 1000 Ang^3
#
#
#
# Elastic Constant Matrix: (Units=GPa)
#
#
# Indices 1 2 3 4 5 6 
#
# 1 106.6502 55.0935 74.3734 0.0000 0.0000 0.0000
# 2 55.0935 59.8862 57.0182 0.0000 0.0000 0.0000
# 3 74.3734 57.0182 103.9560 0.0000 0.0000 0.0000
# 4 0.0000 0.0000 0.0000 31.5068 0.0000 0.0000
# 5 0.0000 0.0000 0.0000 0.0000 27.0664 0.0000
# 6 0.0000 0.0000 0.0000 0.0000 0.0000 52.1847
#
#
#
# Elastic Compliance Matrix: (Units=1/GPa)
#
#
# Indices 1 2 3 4 5 6 
#
# 1 0.021601 -0.010797 -0.009533 0.000000 0.000000 0.000000
# 2 -0.010797 0.040346 -0.014405 0.000000 0.000000 0.000000
# 3 -0.009533 -0.014405 0.024340 0.000000 0.000000 0.000000
# 4 0.000000 0.000000 0.000000 0.031739 0.000000 0.000000
# 5 0.000000 0.000000 0.000000 0.000000 0.036946 0.000000
# 6 0.000000 0.000000 0.000000 0.000000 0.000000 0.019163
#
#
# Mechanical properties :
#
#
# Convention : Reuss Voigt Hill
#
# Bulk Modulus (GPa) = 59.45504 71.49586 65.47545
# Shear Modulus (GPa) = 20.06342 27.75205 23.90774
#
# Velocity S-wave (km/s) = 3.26927 3.84499 3.56876
# Velocity P-wave (km/s) = 6.77669 7.60256 7.20148
#
# Compressibility (1/GPa) = 0.01681943
#
# Stress axis : x y z
#
# Youngs Moduli (GPa) = 46.29341 24.78574 41.08438
#
# Poissons Ratio (x) = 0.26760 0.39164
# Poissons Ratio (y) = 0.49981 0.59181
# Poissons Ratio (z) = 0.44129 0.35703
#
# Static dielectric constant tensor:
#      x y z
#    x 1.651210 0.000000 0.000000 
#    y 0.000000 1.622750 0.000000 
#    z 0.000000 0.000000 1.642090 
# 
# From -- ./inp_files/50309.got.cif
#   From: 2010.05.17/outbox.ucp.g08.bks.cvg/sg63_26_cif.got.tgz:50309.got - 2010.06.11 16:32:19.
