data_PCOD9476480
_publ_section_title
;
Structure prediction by ZEFSAII (Michael W. Deem and Ramdas Pophale) SiO2 
 PCOD9476480
Probable space group: C M C A
;
_chemical_formula_sum "Si O2"
_cell_formula_units_Z 104
_cell_length_a 13.831451
_cell_length_b 23.385110
_cell_length_c 20.869164
_cell_angle_alpha 90.000000
_cell_angle_beta 90.000000
_cell_angle_gamma 90.000000
_cell_volume 6750.131160
_symmetry_space_group_name_H-M "C M C A"
_symmetry_group_IT_number 64
_symmetry_cell_setting 'orthorhombic'
loop_
_space_group_symop_operation_xyz
x,y,z
-x,1/2-y,1/2+z
x,-y,-z
-x,1/2+y,1/2-z
-x,-y,-z
x,1/2+y,1/2-z
-x,y,z
x,1/2-y,1/2+z
1/2+x,1/2+y,z
1/2-x,-y,1/2+z
1/2+x,1/2-y,-z
1/2-x,y,1/2-z
1/2-x,1/2-y,-z
1/2+x,y,1/2-z
1/2-x,1/2+y,z
1/2+x,-y,1/2+z
loop_
_atom_site_type_symbol
_atom_site_label
_atom_site_fract_x
_atom_site_fract_y
_atom_site_fract_z
Si Si1 0.616919 0.888652 0.044012
Si Si2 0.615723 0.111264 0.102968
Si Si3 0.750000 0.578079 0.750000
Si Si4 0.279901 0.212351 0.177278
Si Si5 0.615449 0.982382 0.147781
Si Si6 0.388404 0.214897 0.864805
Si Si7 0.611019 0.326049 0.216962
O O1 0.500000 0.888187 0.041858
O O2 0.641888 0.944439 0.085471
O O3 0.644633 0.832273 0.083930
O O4 0.650270 0.889004 0.970897
O O5 0.500000 0.121083 0.103166
O O6 0.666507 0.161007 0.142739
O O7 0.631847 0.048806 0.133149
O O8 0.679667 0.540806 0.705822
O O9 0.681614 0.620297 0.791792
O O10 0.250000 0.196992 0.250000
O O11 0.184224 0.232373 0.139637
O O12 0.346458 0.269231 0.184031
O O13 0.500000 0.973503 0.160053
O O14 0.500000 0.230639 0.877662
O O15 0.386542 0.186470 0.793774
O O16 0.500000 0.336431 0.198833
#
# Coordination Sequence:
#
# PCOD9476480 Si02
#       7
#    16  16   8  16  16  16  16
#     4   9  16  31  52  73  97 125 164 207 250 290
#     4  10  21  33  48  71 100 134 165 203 248 291
#     4  12  18  30  50  74  96 126 164 204 242 300
#     4  10  19  32  47  71 103 135 163 198 242 299
#     4  10  20  33  50  72 101 130 163 206 248 290
#     4   9  16  29  49  72  95 126 162 201 246 292
#     4  10  17  29  48  71  98 126 157 200 248 290
#
# _framework density 15.407107
#
# number of rings (size 3 to 8) (size 9 to 14) (size 15 to 20)
#    0.000    2.154    3.846    1.385    1.077    3.077 
#    0.000    0.000    0.000    0.000    0.000    1.077 
#    0.000   12.308    0.000    0.000    0.000    0.000 
#
# Total GULP energy -289843.017835 kJ/mol
# GULP energy per Si atom -5573.904189 kJ/mol
# Density = 1.537204 g / cm^3
# Si number density = 15.407107 Si / 1000 Ang^3
#
#
#
# Elastic Constant Matrix: (Units=GPa)
#
#
# Indices 1 2 3 4 5 6 
#
# 1 87.6579 67.3760 44.3622 0.0000 0.0000 0.0000
# 2 67.3760 127.5887 73.0950 0.0000 0.0000 0.0000
# 3 44.3622 73.0950 74.3008 0.0000 0.0000 0.0000
# 4 0.0000 0.0000 0.0000 16.6024 0.0000 0.0000
# 5 0.0000 0.0000 0.0000 0.0000 15.4304 0.0000
# 6 0.0000 0.0000 0.0000 0.0000 0.0000 27.5581
#
#
#
# Elastic Compliance Matrix: (Units=1/GPa)
#
#
# Indices 1 2 3 4 5 6 
#
# 1 0.019587 -0.008349 -0.003481 0.000000 0.000000 0.000000
# 2 -0.008349 0.021519 -0.016184 0.000000 0.000000 0.000000
# 3 -0.003481 -0.016184 0.031459 0.000000 0.000000 0.000000
# 4 0.000000 0.000000 0.000000 0.060232 0.000000 0.000000
# 5 0.000000 0.000000 0.000000 0.000000 0.064807 0.000000
# 6 0.000000 0.000000 0.000000 0.000000 0.000000 0.036287
#
#
# Mechanical properties :
#
#
# Convention : Reuss Voigt Hill
#
# Bulk Modulus (GPa) = 60.47630 73.24595 66.86113
# Shear Modulus (GPa) = 16.92436 18.89913 17.91174
#
# Velocity S-wave (km/s) = 3.31792 3.50616 3.41334
# Velocity P-wave (km/s) = 7.34953 8.00215 7.68277
#
# Compressibility (1/GPa) = 0.01653540
#
# Stress axis : x y z
#
# Youngs Moduli (GPa) = 51.05435 46.47157 31.78731
#
# Poissons Ratio (x) = 0.38799 0.11066
# Poissons Ratio (y) = 0.42625 0.51446
# Poissons Ratio (z) = 0.17773 0.75212
#
# Static dielectric constant tensor:
#      x y z
#    x 1.522500 0.000000 0.000000 
#    y 0.000000 1.502230 0.000000 
#    z 0.000000 0.000000 1.510700 
# 
# From -- ./inp_files/39617.got.cif
#   From: 2010.05.17/outbox.cif.g08.bks.cpg/sg64_20_cif.got.tgz:39617.got - 2010.06.03 16:29:19.
