data_PCOD9476076
_publ_section_title
;
Structure prediction by ZEFSAII (Michael W. Deem and Ramdas Pophale) SiO2 
 PCOD9476076
Probable space group: C M C M
;
_chemical_formula_sum "Si O2"
_cell_formula_units_Z 40
_cell_length_a 9.000000
_cell_length_b 27.000000
_cell_length_c 18.000000
_cell_angle_alpha 90.000000
_cell_angle_beta 90.000000
_cell_angle_gamma 90.000000
_cell_volume 4374.000000
_symmetry_space_group_name_H-M "C M C M"
_symmetry_group_IT_number 63
_symmetry_cell_setting 'orthorhombic'
loop_
_space_group_symop_operation_xyz
x,y,z
-x,-y,1/2+z
x,-y,-z
-x,y,1/2-z
-x,-y,-z
x,y,1/2-z
-x,y,z
x,-y,1/2+z
1/2+x,1/2+y,z
1/2-x,1/2-y,1/2+z
1/2+x,1/2-y,-z
1/2-x,1/2+y,1/2-z
1/2-x,1/2-y,-z
1/2+x,1/2+y,1/2-z
1/2-x,1/2+y,z
1/2+x,1/2-y,1/2+z
loop_
_atom_site_type_symbol
_atom_site_label
_atom_site_fract_x
_atom_site_fract_y
_atom_site_fract_z
Si Si1 0.820421 0.594587 0.478251
Si Si2 0.826427 0.298228 0.029864
Si Si3 0.667954 0.667287 0.665416
Si Si4 0.825534 0.945133 0.378459
Si Si5 0.821885 0.543338 0.329212
O O1 0.771753 0.650806 0.492487
O O2 0.749778 0.560611 0.541405
O O3 0.773402 0.575753 0.398370
O O4 0.000000 0.592436 0.484963
O O5 0.786596 0.305402 0.115640
O O6 0.000000 0.294936 0.017252
O O7 0.750000 0.250000 0.000000
O O8 0.673697 0.682855 0.750000
O O9 0.500000 0.676162 0.636351
O O10 0.693632 0.608302 0.659854
O O11 0.000000 0.954728 0.385066
O O12 0.748068 0.989384 0.335996
O O13 0.782812 0.565948 0.250000
O O14 0.000000 0.538446 0.333469
#
# Coordination Sequence:
#
# PCOD9476076 Si02
#       5
#    16  16  16  16  16
#     4   9  19  35  52  71  97 131 171 209 245 294
#     4  10  20  35  55  76  99 129 167 210 255 303
#     4   9  18  33  52  75 103 132 163 203 251 300
#     4  10  19  31  50  76 104 133 165 202 247 296
#     4  10  20  33  49  70  99 135 171 204 239 285
#
# _framework density 9.1449470000000002
#
# number of rings (size 3 to 8) (size 9 to 14) (size 15 to 20)
#    0.000    2.400    0.000    2.400    0.000    6.400 
#    0.000    1.000    0.000    3.600    0.000    0.000 
#    0.000    0.000    0.000    0.000    0.000    0.000 
#
# Total GULP energy -222971.831037 kJ/mol
# GULP energy per Si atom -5574.295776 kJ/mol
# Density = 0.912413 g / cm^3
# Si number density = 9.144947 Si / 1000 Ang^3
#
#
#
# Elastic Constant Matrix: (Units=GPa)
#
#
# Indices 1 2 3 4 5 6 
#
# 1 -3.8656 15.8335 26.5262 0.0000 0.0000 0.0000
# 2 15.8335 38.5639 37.6870 0.0000 0.0000 0.0000
# 3 26.5262 37.6870 106.1619 0.0000 0.0000 0.0000
# 4 0.0000 0.0000 0.0000 -2.5786 0.0000 0.0000
# 5 0.0000 0.0000 0.0000 0.0000 10.7503 0.0000
# 6 0.0000 0.0000 0.0000 0.0000 0.0000 25.3444
#
#
#
# Elastic Compliance Matrix: (Units=1/GPa)
#
#
# Indices 1 2 3 4 5 6 
#
# 1 -0.082451 0.021007 0.013144 0.000000 0.000000 0.000000
# 2 0.021007 0.034354 -0.017444 0.000000 0.000000 0.000000
# 3 0.013144 -0.017444 0.012328 0.000000 0.000000 0.000000
# 4 0.000000 0.000000 0.000000 -0.387814 0.000000 0.000000
# 5 0.000000 0.000000 0.000000 0.000000 0.093021 0.000000
# 6 0.000000 0.000000 0.000000 0.000000 0.000000 0.039456
#
#
# Mechanical properties :
#
#
# Convention : Reuss Voigt Hill
#
# Bulk Modulus (GPa) = -424.61606 33.43928 -195.58839
# Shear Modulus (GPa) = -15.37019 10.75746 -2.30637
#
# Velocity S-wave (km/s) = -2.90205 2.42784 -1.12416
# Velocity P-wave (km/s) = 15.61704 5.11682 10.43336
#
# Compressibility (1/GPa) = -0.00235507
#
# Stress axis : x y z
#
# Youngs Moduli (GPa) = -12.12846 29.10910 81.11636
#
# Poissons Ratio (x) = -0.61150 -1.06620
# Poissons Ratio (y) = 0.25479 1.41502
# Poissons Ratio (z) = 0.15942 0.50779
#
# Static dielectric constant tensor:
#      x y z
#    x 1.616150 0.000000 0.000000 
#    y 0.000000 1.608590 0.000000 
#    z 0.000000 0.000000 1.633330 
# 
# From -- ./inp_files/40439.got.cif
#   From: 2010.05.17/outbox.ucp.g08.bks.cvg/sg63_21_cif.got.tgz:40439.got - 2010.06.11 16:32:19.
