data_PCOD9476467
_publ_section_title
;
Structure prediction by ZEFSAII (Michael W. Deem and Ramdas Pophale) SiO2 
 PCOD9476467
Probable space group: C M C A
;
_chemical_formula_sum "Si O2"
_cell_formula_units_Z 112
_cell_length_a 10.432457
_cell_length_b 24.267947
_cell_length_c 22.486380
_cell_angle_alpha 90.000000
_cell_angle_beta 90.000000
_cell_angle_gamma 90.000000
_cell_volume 5692.973821
_symmetry_space_group_name_H-M "C M C A"
_symmetry_group_IT_number 64
_symmetry_cell_setting 'orthorhombic'
loop_
_space_group_symop_operation_xyz
x,y,z
-x,1/2-y,1/2+z
x,-y,-z
-x,1/2+y,1/2-z
-x,-y,-z
x,1/2+y,1/2-z
-x,y,z
x,1/2-y,1/2+z
1/2+x,1/2+y,z
1/2-x,-y,1/2+z
1/2+x,1/2-y,-z
1/2-x,y,1/2-z
1/2-x,1/2-y,-z
1/2+x,y,1/2-z
1/2-x,1/2+y,z
1/2+x,-y,1/2+z
loop_
_atom_site_type_symbol
_atom_site_label
_atom_site_fract_x
_atom_site_fract_y
_atom_site_fract_z
Si Si1 0.149348 0.636538 0.201806
Si Si2 0.866523 0.723801 0.032368
Si Si3 0.149554 0.527607 0.801466
Si Si4 0.349770 0.147258 0.852256
Si Si5 0.642182 0.238460 0.668553
Si Si6 0.354892 0.896025 0.019315
Si Si7 0.654114 0.944377 0.904044
O O1 0.250000 0.615875 0.250000
O O2 0.158728 0.702764 0.200117
O O3 0.182545 0.607340 0.139339
O O4 0.000000 0.623107 0.214467
O O5 0.862702 0.742109 0.100018
O O6 0.864308 0.658921 0.020957
O O7 0.000000 0.744477 0.005369
O O8 0.750000 0.750000 0.000000
O O9 0.250000 0.513080 0.750000
O O10 0.153300 0.593035 0.811912
O O11 0.185893 0.497254 0.863568
O O12 0.000000 0.512597 0.788450
O O13 0.500000 0.165182 0.858175
O O14 0.256968 0.194783 0.827488
O O15 0.302448 0.125993 0.917734
O O16 0.500000 0.215697 0.684496
O O17 0.500000 0.915642 0.034752
O O18 0.293841 0.937931 0.971372
O O19 0.500000 0.945129 0.911663
#
# Coordination Sequence:
#
# PCOD9476467 Si02
#       7
#    16  16  16  16  16  16  16
#     4  10  20  34  52  76 104 136 177 222 268 315
#     4  10  17  28  49  76 106 141 172 204 253 313
#     4  10  22  39  59  80 103 139 184 223 263 312
#     4  10  21  35  54  82 110 139 178 220 261 309
#     4  10  20  33  51  76 106 142 177 209 260 320
#     4   9  16  29  52  81 111 135 162 213 270 315
#     4   9  17  33  57  81 106 135 170 218 273 324
#
# _framework density 19.673375
#
# number of rings (size 3 to 8) (size 9 to 14) (size 15 to 20)
#    0.000    2.286    2.857    0.429    0.000    2.286 
#    0.000    5.714    0.000    2.571    0.000    2.000 
#    0.000    0.000    0.000    0.000    0.000    0.000 
#
# Total GULP energy -311913.937628 kJ/mol
# GULP energy per Si atom -5569.891743 kJ/mol
# Density = 1.962860 g / cm^3
# Si number density = 19.673375 Si / 1000 Ang^3
#
#
#
# Elastic Constant Matrix: (Units=GPa)
#
#
# Indices 1 2 3 4 5 6 
#
# 1 82.1774 39.3643 25.3472 0.0000 0.0000 0.0000
# 2 39.3643 91.7862 8.6330 0.0000 0.0000 0.0000
# 3 25.3472 8.6330 26.4620 0.0000 0.0000 0.0000
# 4 0.0000 0.0000 0.0000 18.7487 0.0000 0.0000
# 5 0.0000 0.0000 0.0000 0.0000 24.7295 0.0000
# 6 0.0000 0.0000 0.0000 0.0000 0.0000 14.3064
#
#
#
# Elastic Compliance Matrix: (Units=1/GPa)
#
#
# Indices 1 2 3 4 5 6 
#
# 1 0.021263 -0.007431 -0.017943 0.000000 0.000000 0.000000
# 2 -0.007431 0.013837 0.002604 0.000000 0.000000 0.000000
# 3 -0.017943 0.002604 0.054127 0.000000 0.000000 0.000000
# 4 0.000000 0.000000 0.000000 0.053337 0.000000 0.000000
# 5 0.000000 0.000000 0.000000 0.000000 0.040438 0.000000
# 6 0.000000 0.000000 0.000000 0.000000 0.000000 0.069899
#
#
# Mechanical properties :
#
#
# Convention : Reuss Voigt Hill
#
# Bulk Modulus (GPa) = 22.88999 38.56830 30.72914
# Shear Modulus (GPa) = 15.97430 20.02900 18.00165
#
# Velocity S-wave (km/s) = 2.85261 3.19419 3.02822
# Velocity P-wave (km/s) = 4.74448 5.76634 5.28019
#
# Compressibility (1/GPa) = 0.04368722
#
# Stress axis : x y z
#
# Youngs Moduli (GPa) = 47.03036 72.26975 18.47499
#
# Poissons Ratio (x) = 0.53706 0.33149
# Poissons Ratio (y) = 0.34950 -0.04811
# Poissons Ratio (z) = 0.84385 -0.18820
#
# Static dielectric constant tensor:
#      x y z
#    x 1.664770 0.000000 0.000000 
#    y 0.000000 1.743500 0.000000 
#    z 0.000000 0.000000 1.763800 
# 
# From -- ./inp_files/38494.got.cif
#   From: 2010.05.17/outbox.cif.g08.bks.cpg/sg64_20_cif.got.tgz:38494.got - 2010.06.03 16:29:19.
