data_PCOD9476538
_publ_section_title
;
Structure prediction by ZEFSAII (Michael W. Deem and Ramdas Pophale) SiO2 
 PCOD9476538
Probable space group: C M C A
;
_chemical_formula_sum "Si O2"
_cell_formula_units_Z 88
_cell_length_a 15.621245
_cell_length_b 22.960335
_cell_length_c 13.165493
_cell_angle_alpha 90.000000
_cell_angle_beta 90.000000
_cell_angle_gamma 90.000000
_cell_volume 4722.054450
_symmetry_space_group_name_H-M "C M C A"
_symmetry_group_IT_number 64
_symmetry_cell_setting 'orthorhombic'
loop_
_space_group_symop_operation_xyz
x,y,z
-x,1/2-y,1/2+z
x,-y,-z
-x,1/2+y,1/2-z
-x,-y,-z
x,1/2+y,1/2-z
-x,y,z
x,1/2-y,1/2+z
1/2+x,1/2+y,z
1/2-x,-y,1/2+z
1/2+x,1/2-y,-z
1/2-x,y,1/2-z
1/2-x,1/2-y,-z
1/2+x,y,1/2-z
1/2-x,1/2+y,z
1/2+x,-y,1/2+z
loop_
_atom_site_type_symbol
_atom_site_label
_atom_site_fract_x
_atom_site_fract_y
_atom_site_fract_z
Si Si1 0.094126 0.491924 0.379324
Si Si2 0.096721 0.884876 0.408725
Si Si3 0.234648 0.816997 0.023983
Si Si4 0.783756 0.911488 0.859534
Si Si5 0.670517 0.000000 0.000000
Si Si6 0.899744 0.132851 0.831561
O O1 0.089631 0.500000 0.500000
O O2 0.134104 0.549415 0.335345
O O3 0.138795 0.430501 0.362139
O O4 0.000000 0.483680 0.335455
O O5 0.173409 0.846659 0.454292
O O6 0.117833 0.952572 0.434348
O O7 0.099087 0.869612 0.289499
O O8 0.000000 0.872430 0.445926
O O9 0.165997 0.823382 0.115363
O O10 0.250000 0.750000 0.000000
O O11 0.199289 0.856344 0.930907
O O12 0.750000 0.892988 0.750000
O O13 0.726173 0.959026 0.923078
O O14 0.000000 0.139630 0.866329
#
# Coordination Sequence:
#
# PCOD9476538 Si02
#       6
#    16  16  16  16   8  16
#     4  10  17  31  56  86 114 138 172 223 284 345
#     4  10  21  37  59  87 115 148 188 229 281 348
#     4  11  24  40  57  77 111 155 198 243 282 319
#     4  11  21  34  53  82 112 148 190 230 280 341
#     4  10  19  34  57  84 120 152 173 224 288 348
#     4  10  20  36  62  89 112 144 186 232 288 347
#
# _framework density 18.635956
#
# number of rings (size 3 to 8) (size 9 to 14) (size 15 to 20)
#    0.000    1.636    2.727    3.000    0.000    2.182 
#    0.000    3.636    0.000    0.000    0.000    0.000 
#    0.000    0.000    0.000    0.000    0.000    0.000 
#
# Total GULP energy -245142.376378 kJ/mol
# GULP energy per Si atom -5571.417645 kJ/mol
# Density = 1.859354 g / cm^3
# Si number density = 18.635956 Si / 1000 Ang^3
#
#
#
# Elastic Constant Matrix: (Units=GPa)
#
#
# Indices 1 2 3 4 5 6 
#
# 1 80.0038 42.3224 10.3399 0.0000 0.0000 0.0000
# 2 42.3224 124.3221 16.4044 0.0000 0.0000 0.0000
# 3 10.3399 16.4044 51.5472 0.0000 0.0000 0.0000
# 4 0.0000 0.0000 0.0000 13.2052 0.0000 0.0000
# 5 0.0000 0.0000 0.0000 0.0000 36.5355 0.0000
# 6 0.0000 0.0000 0.0000 0.0000 0.0000 22.2360
#
#
#
# Elastic Compliance Matrix: (Units=1/GPa)
#
#
# Indices 1 2 3 4 5 6 
#
# 1 0.015352 -0.005031 -0.001478 0.000000 0.000000 0.000000
# 2 -0.005031 0.010045 -0.002188 0.000000 0.000000 0.000000
# 3 -0.001478 -0.002188 0.020392 0.000000 0.000000 0.000000
# 4 0.000000 0.000000 0.000000 0.075728 0.000000 0.000000
# 5 0.000000 0.000000 0.000000 0.000000 0.027371 0.000000
# 6 0.000000 0.000000 0.000000 0.000000 0.000000 0.044972
#
#
# Mechanical properties :
#
#
# Convention : Reuss Voigt Hill
#
# Bulk Modulus (GPa) = 35.21706 43.77850 39.49778
# Shear Modulus (GPa) = 22.65323 26.84909 24.75116
#
# Velocity S-wave (km/s) = 3.49028 3.79979 3.64832
# Velocity P-wave (km/s) = 5.93137 6.54168 6.24399
#
# Compressibility (1/GPa) = 0.02839533
#
# Stress axis : x y z
#
# Youngs Moduli (GPa) = 65.13821 99.55206 49.03792
#
# Poissons Ratio (x) = 0.50086 0.07249
# Poissons Ratio (y) = 0.32772 0.10727
# Poissons Ratio (z) = 0.09630 0.21777
#
# Static dielectric constant tensor:
#      x y z
#    x 1.741190 0.000000 0.000000 
#    y 0.000000 1.649600 0.000000 
#    z 0.000000 0.000000 1.699070 
# 
# From -- ./inp_files/23743.got.cif
#   From: 2010.05.17/outbox.cif.g08.bks.cpg/sg64_12_cif.got.tgz:23743.got - 2010.06.03 16:29:19.
