data_PCOD9476550
_publ_section_title
;
Structure prediction by ZEFSAII (Michael W. Deem and Ramdas Pophale) SiO2 
 PCOD9476550
Probable space group: C M C A
;
_chemical_formula_sum "Si O2"
_cell_formula_units_Z 96
_cell_length_a 23.051804
_cell_length_b 15.711049
_cell_length_c 14.365907
_cell_angle_alpha 90.000000
_cell_angle_beta 90.000000
_cell_angle_gamma 90.000000
_cell_volume 5202.872125
_symmetry_space_group_name_H-M "C M C A"
_symmetry_group_IT_number 64
_symmetry_cell_setting 'orthorhombic'
loop_
_space_group_symop_operation_xyz
x,y,z
-x,1/2-y,1/2+z
x,-y,-z
-x,1/2+y,1/2-z
-x,-y,-z
x,1/2+y,1/2-z
-x,y,z
x,1/2-y,1/2+z
1/2+x,1/2+y,z
1/2-x,-y,1/2+z
1/2+x,1/2-y,-z
1/2-x,y,1/2-z
1/2-x,1/2-y,-z
1/2+x,y,1/2-z
1/2-x,1/2+y,z
1/2+x,-y,1/2+z
loop_
_atom_site_type_symbol
_atom_site_label
_atom_site_fract_x
_atom_site_fract_y
_atom_site_fract_z
Si Si1 0.873419 0.855460 0.912090
Si Si2 0.257976 0.223091 0.360673
Si Si3 0.500000 0.956732 0.344029
Si Si4 0.622389 0.513584 0.768803
Si Si5 0.801747 0.894503 0.089757
Si Si6 0.000000 0.866641 0.962884
Si Si7 0.281842 0.962256 0.851679
O O1 0.826198 0.785821 0.882344
O O2 0.873226 0.928723 0.833463
O O3 0.938697 0.825611 0.933524
O O4 0.846827 0.898218 0.005009
O O5 0.250000 0.232923 0.250000
O O6 0.227221 0.302398 0.407908
O O7 0.228773 0.132660 0.388812
O O8 0.500000 0.886591 0.426512
O O9 0.443333 0.956686 0.279756
O O10 0.500000 0.044072 0.405178
O O11 0.661583 0.586007 0.817127
O O12 0.652370 0.488235 0.671843
O O13 0.751846 0.965572 0.092218
O O14 0.250000 0.960527 0.750000
#
# Coordination Sequence:
#
# PCOD9476550 Si02
#       7
#    16  16   8  16  16   8  16
#     4  11  19  33  51  77 108 130 171 210 262 317
#     4  11  20  33  50  73 107 140 170 213 257 310
#     4   9  16  26  52  74 100 135 169 209 261 307
#     4  10  17  32  50  75 105 136 166 210 264 312
#     4  11  20  30  52  76 103 137 171 211 259 309
#     4   9  18  28  48  76 102 135 157 217 265 301
#     4   9  18  32  48  69 104 143 162 209 257 300
#
# _framework density 18.451346999999998
#
# number of rings (size 3 to 8) (size 9 to 14) (size 15 to 20)
#    0.000    1.833    6.667    2.500    0.000    0.000 
#    0.000    0.000    0.000    7.000    0.000    0.000 
#    0.000    2.667    0.000    0.000    0.000    0.000 
#
# Total GULP energy -267716.561143 kJ/mol
# GULP energy per Si atom -5577.428357 kJ/mol
# Density = 1.840935 g / cm^3
# Si number density = 18.451347 Si / 1000 Ang^3
#
#
#
# Elastic Constant Matrix: (Units=GPa)
#
#
# Indices 1 2 3 4 5 6 
#
# 1 181.9801 44.9945 33.4042 0.0000 0.0000 0.0000
# 2 44.9945 78.8291 15.0610 0.0000 0.0000 0.0000
# 3 33.4042 15.0610 41.3055 0.0000 0.0000 0.0000
# 4 0.0000 0.0000 0.0000 10.6295 0.0000 0.0000
# 5 0.0000 0.0000 0.0000 0.0000 26.7225 0.0000
# 6 0.0000 0.0000 0.0000 0.0000 0.0000 19.1401
#
#
#
# Elastic Compliance Matrix: (Units=1/GPa)
#
#
# Indices 1 2 3 4 5 6 
#
# 1 0.007128 -0.003190 -0.004602 0.000000 0.000000 0.000000
# 2 -0.003190 0.015063 -0.002913 0.000000 0.000000 0.000000
# 3 -0.004602 -0.002913 0.028993 0.000000 0.000000 0.000000
# 4 0.000000 0.000000 0.000000 0.094078 0.000000 0.000000
# 5 0.000000 0.000000 0.000000 0.000000 0.037422 0.000000
# 6 0.000000 0.000000 0.000000 0.000000 0.000000 0.052246
#
#
# Mechanical properties :
#
#
# Convention : Reuss Voigt Hill
#
# Bulk Modulus (GPa) = 33.58384 54.33712 43.96048
# Shear Modulus (GPa) = 18.77833 25.20876 21.99354
#
# Velocity S-wave (km/s) = 3.19364 3.70026 3.45624
# Velocity P-wave (km/s) = 5.64268 6.91149 6.30907
#
# Compressibility (1/GPa) = 0.02977623
#
# Stress axis : x y z
#
# Youngs Moduli (GPa) = 140.28315 66.38889 34.49051
#
# Poissons Ratio (x) = 0.21175 0.15872
# Poissons Ratio (y) = 0.44745 0.10046
# Poissons Ratio (z) = 0.64556 0.19338
#
# Static dielectric constant tensor:
#      x y z
#    x 1.670160 0.000000 0.000000 
#    y 0.000000 1.638470 0.000000 
#    z 0.000000 0.000000 1.681510 
# 
# From -- ./inp_files/27337.got.cif
#   From: 2010.05.17/outbox.cif.g08.bks.cpg/sg64_14_cif.got.tgz:27337.got - 2010.06.03 16:29:19.
