data_PCOD9476319
_publ_section_title
;
Structure prediction by ZEFSAII (Michael W. Deem and Ramdas Pophale) SiO2 
 PCOD9476319
Probable space group: C M C A
;
_chemical_formula_sum "Si O2"
_cell_formula_units_Z 88
_cell_length_a 15.522430
_cell_length_b 30.799018
_cell_length_c 6.722692
_cell_angle_alpha 90.000000
_cell_angle_beta 90.000000
_cell_angle_gamma 90.000000
_cell_volume 3213.955018
_symmetry_space_group_name_H-M "C M C A"
_symmetry_group_IT_number 64
_symmetry_cell_setting 'orthorhombic'
loop_
_space_group_symop_operation_xyz
x,y,z
-x,1/2-y,1/2+z
x,-y,-z
-x,1/2+y,1/2-z
-x,-y,-z
x,1/2+y,1/2-z
-x,y,z
x,1/2-y,1/2+z
1/2+x,1/2+y,z
1/2-x,-y,1/2+z
1/2+x,1/2-y,-z
1/2-x,y,1/2-z
1/2-x,1/2-y,-z
1/2+x,y,1/2-z
1/2-x,1/2+y,z
1/2+x,-y,1/2+z
loop_
_atom_site_type_symbol
_atom_site_label
_atom_site_fract_x
_atom_site_fract_y
_atom_site_fract_z
Si Si1 0.848651 0.675132 0.957322
Si Si2 0.849739 0.917200 0.306091
Si Si3 0.842562 0.307469 0.516933
Si Si4 0.103293 0.489513 0.732176
Si Si5 0.500000 0.739062 0.496520
Si Si6 0.401092 0.897703 0.639468
O O1 0.861992 0.622813 0.958204
O O2 0.851565 0.682836 0.718173
O O3 0.760716 0.698193 0.032360
O O4 0.926666 0.702290 0.037277
O O5 0.750000 0.914213 0.250000
O O6 0.900804 0.908155 0.100286
O O7 0.868609 0.967676 0.352995
O O8 0.856320 0.351287 0.643275
O O9 0.921649 0.274248 0.549078
O O10 0.122288 0.500000 0.500000
O O11 0.138646 0.440383 0.743294
O O12 0.000000 0.486687 0.754789
O O13 0.500000 0.893435 0.701306
#
# Coordination Sequence:
#
# PCOD9476319 Si02
#       6
#    16  16  16  16   8  16
#     4  10  21  34  51  78 111 150 185 237 287 326
#     4  10  16  27  45  73 108 137 164 219 268 321
#     4  10  19  36  51  77 115 140 191 236 275 336
#     4   8  15  24  43  75 102 129 166 210 264 320
#     4  12  22  30  54  80 104 153 192 236 291 330
#     4   9  15  28  49  73 104 136 169 222 270 318
#
# _framework density 27.380597000000002
#
# number of rings (size 3 to 8) (size 9 to 14) (size 15 to 20)
#    0.000    2.364    4.545    2.727    5.091    0.000 
#    0.000    0.000    0.000    0.000   14.182    0.000 
#    2.727   11.636    0.000    0.000    0.000    0.000 
#
# Total GULP energy -244990.718601 kJ/mol
# GULP energy per Si atom -5567.970877 kJ/mol
# Density = 2.731828 g / cm^3
# Si number density = 27.380597 Si / 1000 Ang^3
#
#
#
# Elastic Constant Matrix: (Units=GPa)
#
#
# Indices 1 2 3 4 5 6 
#
# 1 215.8383 124.0469 15.3853 0.0000 0.0000 0.0000
# 2 124.0469 285.6423 51.1920 0.0000 0.0000 0.0000
# 3 15.3853 51.1920 99.6402 0.0000 0.0000 0.0000
# 4 0.0000 0.0000 0.0000 830.3004 0.0000 0.0000
# 5 0.0000 0.0000 0.0000 0.0000 -6.9807 0.0000
# 6 0.0000 0.0000 0.0000 0.0000 0.0000 -130.3067
#
#
#
# Elastic Compliance Matrix: (Units=1/GPa)
#
#
# Indices 1 2 3 4 5 6 
#
# 1 0.006194 -0.002774 0.000469 0.000000 0.000000 0.000000
# 2 -0.002774 0.005098 -0.002191 0.000000 0.000000 0.000000
# 3 0.000469 -0.002191 0.011089 0.000000 0.000000 0.000000
# 4 0.000000 0.000000 0.000000 0.001204 0.000000 0.000000
# 5 0.000000 0.000000 0.000000 0.000000 -0.143252 0.000000
# 6 0.000000 0.000000 0.000000 0.000000 0.000000 -0.007674
#
#
# Mechanical properties :
#
#
# Convention : Reuss Voigt Hill
#
# Bulk Modulus (GPa) = 74.68680 109.15214 91.91947
# Shear Modulus (GPa) = -43.90378 165.96905 61.03264
#
# Velocity S-wave (km/s) = -4.00867 7.79405 4.72640
# Velocity P-wave (km/s) = 2.43117 10.99761 7.96424
#
# Compressibility (1/GPa) = 0.01338925
#
# Stress axis : x y z
#
# Youngs Moduli (GPa) = 161.44989 196.14971 90.17634
#
# Poissons Ratio (x) = 0.54409 -0.04227
# Poissons Ratio (y) = 0.44784 0.19757
# Poissons Ratio (z) = -0.07568 0.42976
#
# Static dielectric constant tensor:
#      x y z
#    x -10.600850 0.000000 0.000000 
#    y 0.000000 2.153310 0.000000 
#    z 0.000000 0.000000 2.360220 
# 
# From -- ./inp_files/14788.got.cif
#   From: 2010.05.17/outbox.cif.g08.bks.cpg/sg64_8_cif.got.tgz:14788.got - 2010.06.03 16:29:19.
