data_PCOD9476859
_publ_section_title
;
Structure prediction by ZEFSAII (Michael W. Deem and Ramdas Pophale) SiO2 
 PCOD9476859
Probable space group: C M C A
;
_chemical_formula_sum "Si O2"
_cell_formula_units_Z 72
_cell_length_a 31.754437
_cell_length_b 11.599729
_cell_length_c 8.194402
_cell_angle_alpha 90.000000
_cell_angle_beta 90.000000
_cell_angle_gamma 90.000000
_cell_volume 3018.349499
_symmetry_space_group_name_H-M "C M C A"
_symmetry_group_IT_number 64
_symmetry_cell_setting 'orthorhombic'
loop_
_space_group_symop_operation_xyz
x,y,z
-x,1/2-y,1/2+z
x,-y,-z
-x,1/2+y,1/2-z
-x,-y,-z
x,1/2+y,1/2-z
-x,y,z
x,1/2-y,1/2+z
1/2+x,1/2+y,z
1/2-x,-y,1/2+z
1/2+x,1/2-y,-z
1/2-x,y,1/2-z
1/2-x,1/2-y,-z
1/2+x,y,1/2-z
1/2-x,1/2+y,z
1/2+x,-y,1/2+z
loop_
_atom_site_type_symbol
_atom_site_label
_atom_site_fract_x
_atom_site_fract_y
_atom_site_fract_z
Si Si1 0.575023 0.646262 0.570109
Si Si2 0.750000 0.673526 0.750000
Si Si3 0.691911 0.167165 0.481195
Si Si4 0.000000 0.515437 0.765825
Si Si5 0.500000 0.318890 0.961088
Si Si6 0.867964 0.813116 0.714237
O O1 0.542500 0.555018 0.645975
O O2 0.542088 0.746344 0.522576
O O3 0.606107 0.708866 0.699780
O O4 0.602175 0.617505 0.409029
O O5 0.721764 0.757047 0.636684
O O6 0.778955 0.604900 0.618680
O O7 0.656716 0.116817 0.356477
O O8 0.665659 0.254998 0.593963
O O9 0.000000 0.590051 0.603473
O O10 0.000000 0.383167 0.713385
#
# Coordination Sequence:
#
# PCOD9476859 Si02
#       6
#    16   8  16   8   8  16
#     4  10  18  32  48  68  94 130 164 222 256 315
#     4   8  12  22  36  60  96 124 162 194 236 284
#     4   8  14  22  38  62  90 132 158 194 242 301
#     4  10  20  33  50  69  90 129 175 212 266 318
#     4  10  20  33  50  69  90 129 175 214 266 316
#     4   9  16  26  42  63  92 128 166 193 263 300
#
# _framework density 23.854095999999998
#
# number of rings (size 3 to 8) (size 9 to 14) (size 15 to 20)
#    0.000    2.889    2.222    0.000    0.000    0.000 
#    0.000    2.222    0.000    0.000    0.000    0.000 
#    0.000    0.000    0.000  990.000    0.444    0.000 
#
# Total GULP energy -200758.504198 kJ/mol
# GULP energy per Si atom -5576.625117 kJ/mol
# Density = 2.379980 g / cm^3
# Si number density = 23.854096 Si / 1000 Ang^3
#
#
#
# Elastic Constant Matrix: (Units=GPa)
#
#
# Indices 1 2 3 4 5 6 
#
# 1 148.2239 21.9079 94.5027 0.0000 0.0000 0.0000
# 2 21.9079 20.7458 30.1643 0.0000 0.0000 0.0000
# 3 94.5027 30.1643 188.6513 0.0000 0.0000 0.0000
# 4 0.0000 0.0000 0.0000 26.4864 0.0000 0.0000
# 5 0.0000 0.0000 0.0000 0.0000 23.2127 0.0000
# 6 0.0000 0.0000 0.0000 0.0000 0.0000 11.2814
#
#
#
# Elastic Compliance Matrix: (Units=1/GPa)
#
#
# Indices 1 2 3 4 5 6 
#
# 1 0.010206 -0.004357 -0.004416 0.000000 0.000000 0.000000
# 2 -0.004357 0.064663 -0.008157 0.000000 0.000000 0.000000
# 3 -0.004416 -0.008157 0.008817 0.000000 0.000000 0.000000
# 4 0.000000 0.000000 0.000000 0.037755 0.000000 0.000000
# 5 0.000000 0.000000 0.000000 0.000000 0.043080 0.000000
# 6 0.000000 0.000000 0.000000 0.000000 0.000000 0.088641
#
#
# Mechanical properties :
#
#
# Convention : Reuss Voigt Hill
#
# Bulk Modulus (GPa) = 20.06936 72.30785 46.18861
# Shear Modulus (GPa) = 16.46736 26.26585 21.36660
#
# Velocity S-wave (km/s) = 2.63028 3.32189 2.99611
# Velocity P-wave (km/s) = 4.20192 6.71503 5.60124
#
# Compressibility (1/GPa) = 0.04982720
#
# Stress axis : x y z
#
# Youngs Moduli (GPa) = 97.98200 15.46472 113.41607
#
# Poissons Ratio (x) = 0.06738 0.50083
# Poissons Ratio (y) = 0.42690 0.92510
# Poissons Ratio (z) = 0.43268 0.12614
#
# Static dielectric constant tensor:
#      x y z
#    x 1.948330 0.000000 0.000000 
#    y 0.000000 1.865170 0.000000 
#    z 0.000000 0.000000 1.978750 
# 
# From -- ./inp_files/10976.got.cif
#   From: 2010.05.17/outbox.cif.g08.bks.cpg/sg64_6_cif.got.tgz:10976.got - 2010.06.03 16:29:19.
