data_PCOD9476051
_publ_section_title
;
Structure prediction by ZEFSAII (Michael W. Deem and Ramdas Pophale) SiO2 
 PCOD9476051
Probable space group: C M C M
;
_chemical_formula_sum "Si O2"
_cell_formula_units_Z 64
_cell_length_a 21.000000
_cell_length_b 21.000000
_cell_length_c 18.000000
_cell_angle_alpha 90.000000
_cell_angle_beta 90.000000
_cell_angle_gamma 90.000000
_cell_volume 7938.000000
_symmetry_space_group_name_H-M "C M C M"
_symmetry_group_IT_number 63
_symmetry_cell_setting 'orthorhombic'
loop_
_space_group_symop_operation_xyz
x,y,z
-x,-y,1/2+z
x,-y,-z
-x,y,1/2-z
-x,-y,-z
x,y,1/2-z
-x,y,z
x,-y,1/2+z
1/2+x,1/2+y,z
1/2-x,1/2-y,1/2+z
1/2+x,1/2-y,-z
1/2-x,1/2+y,1/2-z
1/2-x,1/2-y,-z
1/2+x,1/2+y,1/2-z
1/2-x,1/2+y,z
1/2+x,1/2-y,1/2+z
loop_
_atom_site_type_symbol
_atom_site_label
_atom_site_fract_x
_atom_site_fract_y
_atom_site_fract_z
Si Si1 0.361430 0.730213 0.834922
Si Si2 0.853606 0.886976 0.930254
Si Si3 0.184018 0.913563 0.164815
Si Si4 0.427468 0.508564 0.161236
Si Si5 0.693878 0.795128 0.462974
Si Si6 0.739757 0.935440 0.026200
Si Si7 0.728636 0.285504 0.662404
Si Si8 0.073512 0.777843 0.016611
O O1 0.382783 0.736133 0.750000
O O2 0.326992 0.661626 0.843486
O O3 0.305319 0.781813 0.849347
O O4 0.416603 0.728454 0.895113
O O5 0.897593 0.931655 0.880779
O O6 0.809074 0.841888 0.878741
O O7 0.896639 0.843086 0.983832
O O8 0.804796 0.927848 0.979022
O O9 0.199149 0.927358 0.250000
O O10 0.238095 0.938938 0.111054
O O11 0.117843 0.948590 0.146482
O O12 0.426527 0.519802 0.250000
O O13 0.500000 0.497000 0.138264
O O14 0.750000 0.750000 0.500000
O O15 0.705318 0.867971 0.482412
O O16 0.701653 0.778168 0.376328
O O17 0.623977 0.773292 0.485906
O O18 0.706668 0.000000 0.000000
O O19 0.717889 0.287270 0.750000
O O20 0.000000 0.771045 0.995769
#
# Coordination Sequence:
#
# PCOD9476051 Si02
#       8
#    16  16  16  16  16  16  16  16
#     4  10  18  31  49  72  99 129 165 211 261 308
#     4  11  19  33  48  73 100 130 174 213 254 303
#     4  10  19  32  47  68  97 132 172 209 249 305
#     4  10  21  34  44  60  97 141 169 200 248 301
#     4  11  18  36  55  74 105 134 171 220 262 306
#     4  12  20  32  54  78 102 135 171 215 269 305
#     4  10  18  30  55  78  97 132 173 215 268 310
#     4  11  21  33  52  75 100 137 175 213 260 312
#
# _framework density 8.0624839999999995
#
# number of rings (size 3 to 8) (size 9 to 14) (size 15 to 20)
#    0.000    1.375    7.500    0.750    0.000    0.750 
#    0.000    1.875    0.000    3.750    0.000    0.000 
#    0.000    0.000    0.000    1.375    0.000    0.000 
#
# Total GULP energy -356641.477764 kJ/mol
# GULP energy per Si atom -5572.523090 kJ/mol
# Density = 0.804413 g / cm^3
# Si number density = 8.062484 Si / 1000 Ang^3
#
#
#
# Elastic Constant Matrix: (Units=GPa)
#
#
# Indices 1 2 3 4 5 6 
#
# 1 65.5987 31.3588 30.2848 0.0000 0.0000 0.0000
# 2 31.3588 79.4698 24.7860 0.0000 0.0000 0.0000
# 3 30.2848 24.7860 63.9140 0.0000 0.0000 0.0000
# 4 0.0000 0.0000 0.0000 19.7439 0.0000 0.0000
# 5 0.0000 0.0000 0.0000 0.0000 18.9503 0.0000
# 6 0.0000 0.0000 0.0000 0.0000 0.0000 8.3147
#
#
#
# Elastic Compliance Matrix: (Units=1/GPa)
#
#
# Indices 1 2 3 4 5 6 
#
# 1 0.021862 -0.006138 -0.007979 0.000000 0.000000 0.000000
# 2 -0.006138 0.016038 -0.003311 0.000000 0.000000 0.000000
# 3 -0.007979 -0.003311 0.020711 0.000000 0.000000 0.000000
# 4 0.000000 0.000000 0.000000 0.050649 0.000000 0.000000
# 5 0.000000 0.000000 0.000000 0.000000 0.052769 0.000000
# 6 0.000000 0.000000 0.000000 0.000000 0.000000 0.120270
#
#
# Mechanical properties :
#
#
# Convention : Reuss Voigt Hill
#
# Bulk Modulus (GPa) = 42.09656 42.42686 42.26171
# Shear Modulus (GPa) = 15.38117 17.57197 16.47657
#
# Velocity S-wave (km/s) = 3.09183 3.30470 3.20004
# Velocity P-wave (km/s) = 6.23771 6.39764 6.31818
#
# Compressibility (1/GPa) = 0.02375491
#
# Stress axis : x y z
#
# Youngs Moduli (GPa) = 45.74145 62.35081 48.28435
#
# Poissons Ratio (x) = 0.38273 0.38524
# Poissons Ratio (y) = 0.28077 0.15988
# Poissons Ratio (z) = 0.36495 0.20645
#
# Static dielectric constant tensor:
#      x y z
#    x 1.520070 0.000000 0.000000 
#    y 0.000000 1.561630 0.000000 
#    z 0.000000 0.000000 1.598900 
# 
# From -- ./inp_files/47535.got.cif
#   From: 2010.05.17/outbox.ucp.g08.bks.cvg/sg63_24_cif.got.tgz:47535.got - 2010.06.11 16:32:19.
