data_PCOD9476545
_publ_section_title
;
Structure prediction by ZEFSAII (Michael W. Deem and Ramdas Pophale) SiO2 
 PCOD9476545
Probable space group: C M C A
;
_chemical_formula_sum "Si O2"
_cell_formula_units_Z 72
_cell_length_a 21.402039
_cell_length_b 15.576824
_cell_length_c 9.439812
_cell_angle_alpha 90.000000
_cell_angle_beta 90.000000
_cell_angle_gamma 90.000000
_cell_volume 3147.004828
_symmetry_space_group_name_H-M "C M C A"
_symmetry_group_IT_number 64
_symmetry_cell_setting 'orthorhombic'
loop_
_space_group_symop_operation_xyz
x,y,z
-x,1/2-y,1/2+z
x,-y,-z
-x,1/2+y,1/2-z
-x,-y,-z
x,1/2+y,1/2-z
-x,y,z
x,1/2-y,1/2+z
1/2+x,1/2+y,z
1/2-x,-y,1/2+z
1/2+x,1/2-y,-z
1/2-x,y,1/2-z
1/2-x,1/2-y,-z
1/2+x,y,1/2-z
1/2-x,1/2+y,z
1/2+x,-y,1/2+z
loop_
_atom_site_type_symbol
_atom_site_label
_atom_site_fract_x
_atom_site_fract_y
_atom_site_fract_z
Si Si1 0.924189 0.136322 0.391750
Si Si2 0.257924 0.000000 0.500000
Si Si3 0.574488 0.749548 0.137007
Si Si4 0.838049 0.987796 0.266227
Si Si5 0.570210 0.593587 0.927353
O O1 0.905287 0.168231 0.547124
O O2 0.886318 0.054560 0.336974
O O3 0.000000 0.121792 0.382727
O O4 0.907015 0.217461 0.291511
O O5 0.209289 0.955838 0.388973
O O6 0.303026 0.033145 0.371454
O O7 0.500000 0.758321 0.141557
O O8 0.585471 0.665081 0.041603
O O9 0.877328 0.913890 0.190547
O O10 0.500000 0.610214 0.871339
O O11 0.567540 0.500000 0.000000
#
# Coordination Sequence:
#
# PCOD9476545 Si02
#       5
#    16   8  16  16  16
#     4  10  19  34  57  86 122 155 185 233 298 355
#     4  10  24  36  58  78 108 150 204 242 294 328
#     4   9  18  30  51  85 120 153 183 227 291 354
#     4  11  20  39  58  83 110 152 199 246 291 349
#     4  10  17  31  60  89 110 145 195 238 289 354
#
# _framework density 22.878898
#
# number of rings (size 3 to 8) (size 9 to 14) (size 15 to 20)
#    0.000    2.000    3.333    0.667    0.000    1.778 
#    0.000    4.444    0.000   24.000    0.000    0.000 
#    0.000    0.000    0.000    0.000    0.000    0.000 
#
# Total GULP energy -200491.265471 kJ/mol
# GULP energy per Si atom -5569.201819 kJ/mol
# Density = 2.282682 g / cm^3
# Si number density = 22.878898 Si / 1000 Ang^3
#
#
#
# Elastic Constant Matrix: (Units=GPa)
#
#
# Indices 1 2 3 4 5 6 
#
# 1 92.6540 9.3994 36.5977 0.0000 0.0000 0.0000
# 2 9.3994 49.3553 24.7259 0.0000 0.0000 0.0000
# 3 36.5977 24.7259 156.2312 0.0000 0.0000 0.0000
# 4 0.0000 0.0000 0.0000 42.7549 0.0000 0.0000
# 5 0.0000 0.0000 0.0000 0.0000 -10.9405 0.0000
# 6 0.0000 0.0000 0.0000 0.0000 0.0000 7.3827
#
#
#
# Elastic Compliance Matrix: (Units=1/GPa)
#
#
# Indices 1 2 3 4 5 6 
#
# 1 0.011934 -0.000947 -0.002646 0.000000 0.000000 0.000000
# 2 -0.000947 0.022081 -0.003273 0.000000 0.000000 0.000000
# 3 -0.002646 -0.003273 0.007538 0.000000 0.000000 0.000000
# 4 0.000000 0.000000 0.000000 0.023389 0.000000 0.000000
# 5 0.000000 0.000000 0.000000 0.000000 -0.091404 0.000000
# 6 0.000000 0.000000 0.000000 0.000000 0.000000 0.135453
#
#
# Mechanical properties :
#
#
# Convention : Reuss Voigt Hill
#
# Bulk Modulus (GPa) = 35.94255 48.85408 42.39832
# Shear Modulus (GPa) = 37.87951 23.00724 30.44337
#
# Velocity S-wave (km/s) = 4.07339 3.17457 3.65174
# Velocity P-wave (km/s) = 6.15364 5.90228 6.02927
#
# Compressibility (1/GPa) = 0.02782217
#
# Stress axis : x y z
#
# Youngs Moduli (GPa) = 83.79449 45.28730 132.65266
#
# Poissons Ratio (x) = 0.04290 0.35095
# Poissons Ratio (y) = 0.07938 0.43414
# Poissons Ratio (z) = 0.22169 0.14821
#
# Static dielectric constant tensor:
#      x y z
#    x 1.900150 0.000000 0.000000 
#    y 0.000000 1.891110 0.000000 
#    z 0.000000 0.000000 1.933770 
# 
# From -- ./inp_files/8022.got.cif
#   From: 2010.05.17/outbox.cif.g08.bks.cpg/sg64_5_cif.got.tgz:8022.got - 2010.06.03 16:29:19.
