data_PCOD9476065
_publ_section_title
;
Structure prediction by ZEFSAII (Michael W. Deem and Ramdas Pophale) SiO2 
 PCOD9476065
Probable space group: C M C M
;
_chemical_formula_sum "Si O2"
_cell_formula_units_Z 40
_cell_length_a 30.000000
_cell_length_b 21.000000
_cell_length_c 9.000000
_cell_angle_alpha 90.000000
_cell_angle_beta 90.000000
_cell_angle_gamma 90.000000
_cell_volume 5670.000000
_symmetry_space_group_name_H-M "C M C M"
_symmetry_group_IT_number 63
_symmetry_cell_setting 'orthorhombic'
loop_
_space_group_symop_operation_xyz
x,y,z
-x,-y,1/2+z
x,-y,-z
-x,y,1/2-z
-x,-y,-z
x,y,1/2-z
-x,y,z
x,-y,1/2+z
1/2+x,1/2+y,z
1/2-x,1/2-y,1/2+z
1/2+x,1/2-y,-z
1/2-x,1/2+y,1/2-z
1/2-x,1/2-y,-z
1/2+x,1/2+y,1/2-z
1/2-x,1/2+y,z
1/2+x,1/2-y,1/2+z
loop_
_atom_site_type_symbol
_atom_site_label
_atom_site_fract_x
_atom_site_fract_y
_atom_site_fract_z
Si Si1 0.194376 0.067662 0.424356
Si Si2 0.617827 0.347293 0.072476
Si Si3 0.742911 0.845357 0.416220
Si Si4 0.946545 0.934577 0.578920
Si Si5 0.820958 0.737438 0.418680
O O1 0.187820 0.063610 0.250000
O O2 0.154585 0.107222 0.498751
O O3 0.239593 0.104441 0.465378
O O4 0.195255 0.000000 0.500000
O O5 0.618761 0.354360 0.250000
O O6 0.634631 0.275965 0.039049
O O7 0.572253 0.373372 0.005830
O O8 0.741220 0.872058 0.250000
O O9 0.781124 0.790320 0.414309
O O10 0.696844 0.814178 0.466954
O O11 0.931730 0.934690 0.750000
O O12 0.000000 0.934503 0.575780
O O13 0.931217 0.000000 0.500000
O O14 0.825090 0.712981 0.250000
#
# Coordination Sequence:
#
# PCOD9476065 Si02
#       5
#    16  16  16  16  16
#     4  11  20  29  40  54  75 100 127 158 191 225
#     4  10  19  30  43  58  75  95 124 159 193 229
#     4   9  16  26  39  55  74  95 121 151 184 221
#     4  10  20  32  44  57  74  97 125 157 195 236
#     4   8  15  26  39  55  73  94 119 149 185 222
#
# _framework density 7.0546740000000003
#
# number of rings (size 3 to 8) (size 9 to 14) (size 15 to 20)
#    0.000    2.400    0.000    5.400    0.000    6.800 
#    0.000    0.000    0.000    0.000    0.000    0.000 
#    0.000    0.000    0.000    0.000    0.000    1.000 
#
# Total GULP energy -222738.961369 kJ/mol
# GULP energy per Si atom -5568.474034 kJ/mol
# Density = 0.703862 g / cm^3
# Si number density = 7.054674 Si / 1000 Ang^3
#
#
#
# Elastic Constant Matrix: (Units=GPa)
#
#
# Indices 1 2 3 4 5 6 
#
# 1 26.2998 10.4947 20.1751 0.0000 0.0000 0.0000
# 2 10.4947 12.2271 16.3969 0.0000 0.0000 0.0000
# 3 20.1751 16.3969 67.3309 0.0000 0.0000 0.0000
# 4 0.0000 0.0000 0.0000 15.6666 0.0000 0.0000
# 5 0.0000 0.0000 0.0000 0.0000 18.8298 0.0000
# 6 0.0000 0.0000 0.0000 0.0000 0.0000 24.0783
#
#
#
# Elastic Compliance Matrix: (Units=1/GPa)
#
#
# Indices 1 2 3 4 5 6 
#
# 1 0.060713 -0.041155 -0.008170 0.000000 0.000000 0.000000
# 2 -0.041155 0.149344 -0.024038 0.000000 0.000000 0.000000
# 3 -0.008170 -0.024038 0.023154 0.000000 0.000000 0.000000
# 4 0.000000 0.000000 0.000000 0.063830 0.000000 0.000000
# 5 0.000000 0.000000 0.000000 0.000000 0.053107 0.000000
# 6 0.000000 0.000000 0.000000 0.000000 0.000000 0.041531
#
#
# Mechanical properties :
#
#
# Convention : Reuss Voigt Hill
#
# Bulk Modulus (GPa) = 11.56251 22.22128 16.89189
# Shear Modulus (GPa) = 8.81473 15.63435 12.22454
#
# Velocity S-wave (km/s) = 2.50220 3.33240 2.94668
# Velocity P-wave (km/s) = 4.06949 5.53083 4.85545
#
# Compressibility (1/GPa) = 0.08648643
#
# Stress axis : x y z
#
# Youngs Moduli (GPa) = 16.47105 6.69594 43.18930
#
# Poissons Ratio (x) = 0.27557 0.35284
# Poissons Ratio (y) = 0.67786 1.03818
# Poissons Ratio (z) = 0.13456 0.16096
#
# Static dielectric constant tensor:
#      x y z
#    x 1.488920 0.000000 0.000000 
#    y 0.000000 1.464610 0.000000 
#    z 0.000000 0.000000 1.456900 
# 
# From -- ./inp_files/14025.got.cif
#   From: 2010.05.17/outbox.ucp.g08.bks.cvg/sg63_8_cif.got.tgz:14025.got - 2010.06.11 16:32:19.
