data_PCOD9476665
_publ_section_title
;
Structure prediction by ZEFSAII (Michael W. Deem and Ramdas Pophale) SiO2 
 PCOD9476665
Probable space group: C M C A
;
_chemical_formula_sum "Si O2"
_cell_formula_units_Z 88
_cell_length_a 25.950888
_cell_length_b 24.593170
_cell_length_c 7.476562
_cell_angle_alpha 90.000000
_cell_angle_beta 90.000000
_cell_angle_gamma 90.000000
_cell_volume 4771.651028
_symmetry_space_group_name_H-M "C M C A"
_symmetry_group_IT_number 64
_symmetry_cell_setting 'orthorhombic'
loop_
_space_group_symop_operation_xyz
x,y,z
-x,1/2-y,1/2+z
x,-y,-z
-x,1/2+y,1/2-z
-x,-y,-z
x,1/2+y,1/2-z
-x,y,z
x,1/2-y,1/2+z
1/2+x,1/2+y,z
1/2-x,-y,1/2+z
1/2+x,1/2-y,-z
1/2-x,y,1/2-z
1/2-x,1/2-y,-z
1/2+x,y,1/2-z
1/2-x,1/2+y,z
1/2+x,-y,1/2+z
loop_
_atom_site_type_symbol
_atom_site_label
_atom_site_fract_x
_atom_site_fract_y
_atom_site_fract_z
Si Si1 0.500000 0.847749 0.011548
Si Si2 0.500000 0.755095 0.701607
Si Si3 0.648308 0.796981 0.189022
Si Si4 0.609762 0.622286 0.391505
Si Si5 0.895905 0.693452 0.436023
Si Si6 0.250000 0.860837 0.250000
Si Si7 0.783807 0.438527 0.929945
O O1 0.500000 0.796879 0.870428
O O2 0.448304 0.882812 0.972398
O O3 0.500000 0.811186 0.193868
O O4 0.448129 0.774275 0.603722
O O5 0.648080 0.733622 0.141817
O O6 0.610706 0.810708 0.353435
O O7 0.701218 0.821815 0.256135
O O8 0.630783 0.827236 0.009346
O O9 0.604571 0.639851 0.184498
O O10 0.655703 0.578382 0.407515
O O11 0.241330 0.899031 0.421653
O O12 0.750000 0.433193 0.750000
O O13 0.781198 0.500000 0.000000
#
# Coordination Sequence:
#
# PCOD9476665 Si02
#       7
#     8   8  16  16  16   8  16
#     4  10  18  32  51  82 116 149 184 218 259 315
#     4  10  18  28  50  74 107 153 188 208 243 303
#     4  11  20  33  50  75 112 146 183 213 266 319
#     4  10  22  35  54  83 113 145 185 227 272 326
#     4  11  19  33  49  78 114 152 178 217 253 320
#     4  10  24  38  54  82 104 138 180 226 278 338
#     4  11  22  43  64  81 102 136 188 243 288 329
#
# _framework density 18.442253999999998
#
# number of rings (size 3 to 8) (size 9 to 14) (size 15 to 20)
#    0.000    1.455    4.545    2.182    0.000    0.727 
#    1.636    0.455    0.000    0.000    0.000    0.636 
#    0.000    0.000    0.000    0.000    0.000    0.000 
#
# Total GULP energy -245162.221095 kJ/mol
# GULP energy per Si atom -5571.868661 kJ/mol
# Density = 1.840028 g / cm^3
# Si number density = 18.442254 Si / 1000 Ang^3
#
#
#
# Elastic Constant Matrix: (Units=GPa)
#
#
# Indices 1 2 3 4 5 6 
#
# 1 120.4750 37.2592 20.7549 0.0000 0.0000 0.0000
# 2 37.2592 43.5151 11.1369 0.0000 0.0000 0.0000
# 3 20.7549 11.1369 85.1134 0.0000 0.0000 0.0000
# 4 0.0000 0.0000 0.0000 16.8390 0.0000 0.0000
# 5 0.0000 0.0000 0.0000 0.0000 28.2807 0.0000
# 6 0.0000 0.0000 0.0000 0.0000 0.0000 -8.7520
#
#
#
# Elastic Compliance Matrix: (Units=1/GPa)
#
#
# Indices 1 2 3 4 5 6 
#
# 1 0.011489 -0.009436 -0.001567 0.000000 0.000000 0.000000
# 2 -0.009436 0.031527 -0.001824 0.000000 0.000000 0.000000
# 3 -0.001567 -0.001824 0.012370 0.000000 0.000000 0.000000
# 4 0.000000 0.000000 0.000000 0.059386 0.000000 0.000000
# 5 0.000000 0.000000 0.000000 0.000000 0.035360 0.000000
# 6 0.000000 0.000000 0.000000 0.000000 0.000000 -0.114260
#
#
# Mechanical properties :
#
#
# Convention : Reuss Voigt Hill
#
# Bulk Modulus (GPa) = 33.63473 43.04504 38.33989
# Shear Modulus (GPa) = 69.99296 19.27037 44.63166
#
# Velocity S-wave (km/s) = 6.16724 3.23600 4.92476
# Velocity P-wave (km/s) = 8.30606 6.11174 7.29191
#
# Compressibility (1/GPa) = 0.02973117
#
# Stress axis : x y z
#
# Youngs Moduli (GPa) = 87.04226 31.71895 80.84202
#
# Poissons Ratio (x) = 0.29930 0.12667
# Poissons Ratio (y) = 0.82133 0.14748
# Poissons Ratio (z) = 0.13638 0.05786
#
# Static dielectric constant tensor:
#      x y z
#    x 1.692430 0.000000 0.000000 
#    y 0.000000 1.596750 0.000000 
#    z 0.000000 0.000000 1.700940 
# 
# From -- ./inp_files/9406.got.cif
#   From: 2010.05.17/outbox.cif.g08.bks.cpg/sg64_5_cif.got.tgz:9406.got - 2010.06.03 16:29:19.
