data_PCOD9476761
_publ_section_title
;
Structure prediction by ZEFSAII (Michael W. Deem and Ramdas Pophale) SiO2 
 PCOD9476761
Probable space group: C M C A
;
_chemical_formula_sum "Si O2"
_cell_formula_units_Z 128
_cell_length_a 23.812141
_cell_length_b 12.653435
_cell_length_c 23.757548
_cell_angle_alpha 90.000000
_cell_angle_beta 90.000000
_cell_angle_gamma 90.000000
_cell_volume 7158.276989
_symmetry_space_group_name_H-M "C M C A"
_symmetry_group_IT_number 64
_symmetry_cell_setting 'orthorhombic'
loop_
_space_group_symop_operation_xyz
x,y,z
-x,1/2-y,1/2+z
x,-y,-z
-x,1/2+y,1/2-z
-x,-y,-z
x,1/2+y,1/2-z
-x,y,z
x,1/2-y,1/2+z
1/2+x,1/2+y,z
1/2-x,-y,1/2+z
1/2+x,1/2-y,-z
1/2-x,y,1/2-z
1/2-x,1/2-y,-z
1/2+x,y,1/2-z
1/2-x,1/2+y,z
1/2+x,-y,1/2+z
loop_
_atom_site_type_symbol
_atom_site_label
_atom_site_fract_x
_atom_site_fract_y
_atom_site_fract_z
Si Si1 0.177821 0.462675 0.307947
Si Si2 0.434720 0.721462 0.579135
Si Si3 0.798258 0.903599 0.319251
Si Si4 0.143269 0.320461 0.670651
Si Si5 0.562872 0.134215 0.225111
Si Si6 0.933357 0.702486 0.051367
Si Si7 0.936160 0.350965 0.345851
Si Si8 0.394253 0.505212 0.380466
O O1 0.186631 0.458782 0.240439
O O2 0.231802 0.397267 0.328647
O O3 0.183644 0.579367 0.333733
O O4 0.116474 0.419984 0.325409
O O5 0.500000 0.749910 0.586314
O O6 0.395353 0.795142 0.617047
O O7 0.420124 0.725650 0.513215
O O8 0.425922 0.600237 0.599310
O O9 0.831117 0.968590 0.366920
O O10 0.824096 0.786918 0.316162
O O11 0.104096 0.353248 0.722946
O O12 0.500000 0.110586 0.244691
O O13 0.562818 0.246967 0.193480
O O14 0.580253 0.048671 0.178264
O O15 0.925139 0.803053 0.092029
O O16 0.901063 0.600927 0.075873
O O17 0.000000 0.675865 0.055175
O O18 0.000000 0.396876 0.344033
#
# Coordination Sequence:
#
# PCOD9476761 Si02
#       8
#    16  16  16  16  16  16  16  16
#     4  11  22  39  58  82 112 154 186 227 286 350
#     4  10  20  34  54  84 120 155 193 236 280 331
#     4  10  23  37  56  82 114 149 190 233 279 345
#     4  11  22  36  53  83 115 145 187 234 284 333
#     4  10  18  30  51  82 117 148 178 227 289 341
#     4   9  18  34  58  84 113 154 197 235 279 332
#     4   9  19  35  56  82 111 144 187 232 279 337
#     4  10  18  33  54  85 115 150 193 237 284 329
#
# _framework density 17.881398000000001
#
# number of rings (size 3 to 8) (size 9 to 14) (size 15 to 20)
#    0.000    2.000    2.500    2.625    0.000    6.000 
#    0.000    0.625    0.000   12.000    0.000    0.000 
#    0.000    0.000    0.000    0.000    0.000    0.000 
#
# Total GULP energy -356907.691747 kJ/mol
# GULP energy per Si atom -5576.682684 kJ/mol
# Density = 1.784070 g / cm^3
# Si number density = 17.881398 Si / 1000 Ang^3
#
#
#
# Elastic Constant Matrix: (Units=GPa)
#
#
# Indices 1 2 3 4 5 6 
#
# 1 93.8000 28.5480 35.2945 0.0000 0.0000 0.0000
# 2 28.5480 57.9323 30.4276 0.0000 0.0000 0.0000
# 3 35.2945 30.4276 90.4288 0.0000 0.0000 0.0000
# 4 0.0000 0.0000 0.0000 14.7937 0.0000 0.0000
# 5 0.0000 0.0000 0.0000 0.0000 16.9870 0.0000
# 6 0.0000 0.0000 0.0000 0.0000 0.0000 19.1480
#
#
#
# Elastic Compliance Matrix: (Units=1/GPa)
#
#
# Indices 1 2 3 4 5 6 
#
# 1 0.013478 -0.004711 -0.003675 0.000000 0.000000 0.000000
# 2 -0.004711 0.022614 -0.005770 0.000000 0.000000 0.000000
# 3 -0.003675 -0.005770 0.014434 0.000000 0.000000 0.000000
# 4 0.000000 0.000000 0.000000 0.067596 0.000000 0.000000
# 5 0.000000 0.000000 0.000000 0.000000 0.058869 0.000000
# 6 0.000000 0.000000 0.000000 0.000000 0.000000 0.052225
#
#
# Mechanical properties :
#
#
# Convention : Reuss Voigt Hill
#
# Bulk Modulus (GPa) = 45.01957 47.85571 46.43764
# Shear Modulus (GPa) = 18.87266 20.04514 19.45890
#
# Velocity S-wave (km/s) = 3.25227 3.35177 3.30240
# Velocity P-wave (km/s) = 6.27172 6.46530 6.36925
#
# Compressibility (1/GPa) = 0.02221256
#
# Stress axis : x y z
#
# Youngs Moduli (GPa) = 74.19659 44.22054 69.27880
#
# Poissons Ratio (x) = 0.20834 0.25461
# Poissons Ratio (y) = 0.34956 0.39976
# Poissons Ratio (z) = 0.27268 0.25517
#
# Static dielectric constant tensor:
#      x y z
#    x 1.625590 0.000000 0.000000 
#    y 0.000000 1.613170 0.000000 
#    z 0.000000 0.000000 1.603120 
# 
# From -- ./inp_files/46768.got.cif
#   From: 2010.05.17/outbox.cif.g08.bks.cpg/sg64_24_cif.got.tgz:46768.got - 2010.06.03 16:29:19.
