data_PCOD9476860
_publ_section_title
;
Structure prediction by ZEFSAII (Michael W. Deem and Ramdas Pophale) SiO2 
 PCOD9476860
Probable space group: C M C A
;
_chemical_formula_sum "Si O2"
_cell_formula_units_Z 72
_cell_length_a 22.322654
_cell_length_b 17.556299
_cell_length_c 7.959367
_cell_angle_alpha 90.000000
_cell_angle_beta 90.000000
_cell_angle_gamma 90.000000
_cell_volume 3119.301303
_symmetry_space_group_name_H-M "C M C A"
_symmetry_group_IT_number 64
_symmetry_cell_setting 'orthorhombic'
loop_
_space_group_symop_operation_xyz
x,y,z
-x,1/2-y,1/2+z
x,-y,-z
-x,1/2+y,1/2-z
-x,-y,-z
x,1/2+y,1/2-z
-x,y,z
x,1/2-y,1/2+z
1/2+x,1/2+y,z
1/2-x,-y,1/2+z
1/2+x,1/2-y,-z
1/2-x,y,1/2-z
1/2-x,1/2-y,-z
1/2+x,y,1/2-z
1/2-x,1/2+y,z
1/2+x,-y,1/2+z
loop_
_atom_site_type_symbol
_atom_site_label
_atom_site_fract_x
_atom_site_fract_y
_atom_site_fract_z
Si Si1 0.070239 0.966435 0.226461
Si Si2 0.862164 0.592400 0.388664
Si Si3 0.750000 0.503068 0.750000
Si Si4 0.838316 0.127002 0.610657
Si Si5 0.817329 0.265797 0.436740
O O1 0.098893 0.915661 0.370459
O O2 0.000000 0.958391 0.204745
O O3 0.090142 0.054328 0.236779
O O4 0.107841 0.933302 0.067375
O O5 0.799644 0.550074 0.340077
O O6 0.849093 0.679859 0.426126
O O7 0.787685 0.561625 0.869093
O O8 0.840734 0.179491 0.446448
O O9 0.823902 0.185660 0.765900
O O10 0.750000 0.250000 0.500000
#
# Coordination Sequence:
#
# PCOD9476860 Si02
#       5
#    16  16   8  16  16
#     4   9  18  37  57  78 110 153 206 255 285 346
#     4   9  19  29  53  82 109 148 199 236 303 351
#     4  10  18  32  48  82 118 144 186 252 286 356
#     4  10  21  35  53  83 117 154 193 240 299 355
#     4  11  20  34  53  82 121 154 183 238 307 370
#
# _framework density 23.082091999999999
#
# number of rings (size 3 to 8) (size 9 to 14) (size 15 to 20)
#    0.000    2.222    2.222    2.667    3.111    0.000 
#    0.000    5.556    0.000    0.000    0.000    1.556 
#    0.000    0.000    0.000    0.000    0.000    0.000 
#
# Total GULP energy -200711.710367 kJ/mol
# GULP energy per Si atom -5575.325288 kJ/mol
# Density = 2.302956 g / cm^3
# Si number density = 23.082092 Si / 1000 Ang^3
#
#
#
# Elastic Constant Matrix: (Units=GPa)
#
#
# Indices 1 2 3 4 5 6 
#
# 1 154.0674 35.0577 15.1731 0.0000 0.0000 0.0000
# 2 35.0577 100.5462 9.1214 0.0000 0.0000 0.0000
# 3 15.1731 9.1214 84.0895 0.0000 0.0000 0.0000
# 4 0.0000 0.0000 0.0000 46.8080 0.0000 0.0000
# 5 0.0000 0.0000 0.0000 0.0000 16.3040 0.0000
# 6 0.0000 0.0000 0.0000 0.0000 0.0000 20.5553
#
#
#
# Elastic Compliance Matrix: (Units=1/GPa)
#
#
# Indices 1 2 3 4 5 6 
#
# 1 0.007137 -0.002395 -0.001028 0.000000 0.000000 0.000000
# 2 -0.002395 0.010848 -0.000745 0.000000 0.000000 0.000000
# 3 -0.001028 -0.000745 0.012158 0.000000 0.000000 0.000000
# 4 0.000000 0.000000 0.000000 0.021364 0.000000 0.000000
# 5 0.000000 0.000000 0.000000 0.000000 0.061335 0.000000
# 6 0.000000 0.000000 0.000000 0.000000 0.000000 0.048649
#
#
# Mechanical properties :
#
#
# Convention : Reuss Voigt Hill
#
# Bulk Modulus (GPa) = 45.85439 50.82308 48.33874
# Shear Modulus (GPa) = 28.23324 35.35686 31.79505
#
# Velocity S-wave (km/s) = 3.50117 3.91805 3.71546
# Velocity P-wave (km/s) = 6.02106 6.52184 6.27645
#
# Compressibility (1/GPa) = 0.02180816
#
# Stress axis : x y z
#
# Youngs Moduli (GPa) = 140.11638 92.17985 82.24806
#
# Poissons Ratio (x) = 0.22079 0.08455
# Poissons Ratio (y) = 0.33561 0.06124
# Poissons Ratio (z) = 0.14404 0.06863
#
# Static dielectric constant tensor:
#      x y z
#    x 1.818740 0.000000 0.000000 
#    y 0.000000 2.138270 0.000000 
#    z 0.000000 0.000000 2.039210 
# 
# From -- ./inp_files/17992.got.cif
#   From: 2010.05.17/outbox.cif.g08.bks.cpg/sg64_9_cif.got.tgz:17992.got - 2010.06.03 16:29:19.
