data_PCOD9476998
_publ_section_title
;
Structure prediction by ZEFSAII (Michael W. Deem and Ramdas Pophale) SiO2 
 PCOD9476998
Probable space group: C M C A
;
_chemical_formula_sum "Si O2"
_cell_formula_units_Z 104
_cell_length_a 22.728665
_cell_length_b 24.951814
_cell_length_c 7.833839
_cell_angle_alpha 90.000000
_cell_angle_beta 90.000000
_cell_angle_gamma 90.000000
_cell_volume 4442.737910
_symmetry_space_group_name_H-M "C M C A"
_symmetry_group_IT_number 64
_symmetry_cell_setting 'orthorhombic'
loop_
_space_group_symop_operation_xyz
x,y,z
-x,1/2-y,1/2+z
x,-y,-z
-x,1/2+y,1/2-z
-x,-y,-z
x,1/2+y,1/2-z
-x,y,z
x,1/2-y,1/2+z
1/2+x,1/2+y,z
1/2-x,-y,1/2+z
1/2+x,1/2-y,-z
1/2-x,y,1/2-z
1/2-x,1/2-y,-z
1/2+x,y,1/2-z
1/2-x,1/2+y,z
1/2+x,-y,1/2+z
loop_
_atom_site_type_symbol
_atom_site_label
_atom_site_fract_x
_atom_site_fract_y
_atom_site_fract_z
Si Si1 0.000000 0.871619 0.617845
Si Si2 0.869036 0.224695 0.177112
Si Si3 0.691272 0.185299 0.641735
Si Si4 0.683448 0.487401 0.700064
Si Si5 0.000000 0.261919 0.702396
Si Si6 0.500000 0.636470 0.781317
Si Si7 0.376982 0.909873 0.280720
Si Si8 0.627485 0.117529 0.124808
O O1 0.000000 0.881150 0.416956
O O2 0.939223 0.894313 0.685849
O O3 0.000000 0.807467 0.649388
O O4 0.858141 0.283057 0.251540
O O5 0.862325 0.178917 0.321883
O O6 0.936930 0.225583 0.113076
O O7 0.818021 0.211627 0.041983
O O8 0.750000 0.191283 0.750000
O O9 0.673793 0.123665 0.626606
O O10 0.676724 0.500000 0.500000
O O11 0.750000 0.499781 0.750000
O O12 0.637953 0.527619 0.791126
O O13 0.669342 0.424748 0.716556
O O14 0.000000 0.201103 0.770104
O O15 0.560388 0.610898 0.850155
O O16 0.370950 0.892215 0.079406
#
# Coordination Sequence:
#
# PCOD9476998 Si02
#       8
#     8  16  16  16   8   8  16  16
#     4   8  18  33  56  86 120 151 188 243 298 358
#     4  11  24  38  61  89 119 159 200 248 302 358
#     4  12  25  40  57  84 123 161 200 247 296 360
#     4  10  22  39  62  85 116 157 203 246 292 352
#     4  10  20  34  60  88 119 155 198 245 301 359
#     4  10  18  33  60  84 120 153 191 249 303 355
#     4  10  21  38  59  89 117 154 200 248 301 357
#     4   9  20  39  60  87 117 153 195 246 298 352
#
# _framework density 23.408988999999998
#
# number of rings (size 3 to 8) (size 9 to 14) (size 15 to 20)
#    0.000    1.846    1.538    1.846    4.308    5.538 
#    0.000    3.077    0.000    0.000    0.000    5.385 
#    0.000    0.000    0.000    0.000    0.000    0.000 
#
# Total GULP energy -290392.258512 kJ/mol
# GULP energy per Si atom -5584.466510 kJ/mol
# Density = 2.335571 g / cm^3
# Si number density = 23.408989 Si / 1000 Ang^3
#
#
#
# Elastic Constant Matrix: (Units=GPa)
#
#
# Indices 1 2 3 4 5 6 
#
# 1 76.7397 18.9004 -4.4252 0.0000 0.0000 0.0000
# 2 18.9004 95.6506 -4.9589 0.0000 0.0000 0.0000
# 3 -4.4252 -4.9589 32.3262 0.0000 0.0000 0.0000
# 4 0.0000 0.0000 0.0000 3.4039 0.0000 0.0000
# 5 0.0000 0.0000 0.0000 0.0000 17.1146 0.0000
# 6 0.0000 0.0000 0.0000 0.0000 0.0000 25.6565
#
#
#
# Elastic Compliance Matrix: (Units=1/GPa)
#
#
# Indices 1 2 3 4 5 6 
#
# 1 0.013767 -0.002644 0.001479 0.000000 0.000000 0.000000
# 2 -0.002644 0.011046 0.001333 0.000000 0.000000 0.000000
# 3 0.001479 0.001333 0.031342 0.000000 0.000000 0.000000
# 4 0.000000 0.000000 0.000000 0.293778 0.000000 0.000000
# 5 0.000000 0.000000 0.000000 0.000000 0.058430 0.000000
# 6 0.000000 0.000000 0.000000 0.000000 0.000000 0.038976
#
#
# Mechanical properties :
#
#
# Convention : Reuss Voigt Hill
#
# Bulk Modulus (GPa) = 17.70190 24.86102 21.28146
# Shear Modulus (GPa) = 10.73344 22.24835 16.49090
#
# Velocity S-wave (km/s) = 2.14363 3.08623 2.65706
# Velocity P-wave (km/s) = 3.70206 4.83147 4.30397
#
# Compressibility (1/GPa) = 0.05649112
#
# Stress axis : x y z
#
# Youngs Moduli (GPa) = 72.63488 90.52883 31.90653
#
# Poissons Ratio (x) = 0.23934 -0.04719
# Poissons Ratio (y) = 0.19203 -0.04252
# Poissons Ratio (z) = -0.10743 -0.12064
#
# Static dielectric constant tensor:
#      x y z
#    x 1.879060 0.000000 0.000000 
#    y 0.000000 1.820710 0.000000 
#    z 0.000000 0.000000 1.939630 
# 
# From -- ./inp_files/8583.got.cif
#   From: 2010.05.17/outbox.cif.g08.bks.cpg/sg64_5_cif.got.tgz:8583.got - 2010.06.03 16:29:19.
