data_PCOD9476981
_publ_section_title
;
Structure prediction by ZEFSAII (Michael W. Deem and Ramdas Pophale) SiO2 
 PCOD9476981
Probable space group: C M C A
;
_chemical_formula_sum "Si O2"
_cell_formula_units_Z 80
_cell_length_a 19.797123
_cell_length_b 13.107389
_cell_length_c 14.469570
_cell_angle_alpha 90.000000
_cell_angle_beta 90.000000
_cell_angle_gamma 90.000000
_cell_volume 3754.688350
_symmetry_space_group_name_H-M "C M C A"
_symmetry_group_IT_number 64
_symmetry_cell_setting 'orthorhombic'
loop_
_space_group_symop_operation_xyz
x,y,z
-x,1/2-y,1/2+z
x,-y,-z
-x,1/2+y,1/2-z
-x,-y,-z
x,1/2+y,1/2-z
-x,y,z
x,1/2-y,1/2+z
1/2+x,1/2+y,z
1/2-x,-y,1/2+z
1/2+x,1/2-y,-z
1/2-x,y,1/2-z
1/2-x,1/2-y,-z
1/2+x,y,1/2-z
1/2-x,1/2+y,z
1/2+x,-y,1/2+z
loop_
_atom_site_type_symbol
_atom_site_label
_atom_site_fract_x
_atom_site_fract_y
_atom_site_fract_z
Si Si1 0.824036 0.180001 0.413317
Si Si2 0.579401 0.098880 0.386458
Si Si3 0.281129 0.523027 0.657407
Si Si4 0.861158 0.102987 0.904312
Si Si5 0.823759 0.267915 0.126404
O O1 0.862777 0.279106 0.373421
O O2 0.837067 0.189306 0.522844
O O3 0.746231 0.206875 0.387276
O O4 0.829410 0.062295 0.385182
O O5 0.500000 0.114500 0.386262
O O6 0.608660 0.104085 0.491577
O O7 0.620683 0.189148 0.338627
O O8 0.597873 0.985457 0.352285
O O9 0.250000 0.476865 0.750000
O O10 0.216675 0.561525 0.596236
O O11 0.315801 0.629626 0.684828
#
# Coordination Sequence:
#
# PCOD9476981 Si02
#       5
#    16  16  16  16  16
#     4   9  17  30  52  74 111 131 166 225 281 319
#     4  10  18  33  58  82 103 135 185 229 264 313
#     4  11  21  31  50  79 115 145 171 215 286 348
#     4   9  18  31  49  81 105 130 175 224 271 315
#     4   9  18  31  51  79 104 136 174 227 274 316
#
# _framework density 21.306695999999999
#
# number of rings (size 3 to 8) (size 9 to 14) (size 15 to 20)
#    0.000    2.400    2.000    3.000    5.600    3.200 
#    0.000    0.000    0.000   13.200    0.000    0.000 
#    0.000    0.000    0.000    0.000    0.000    0.000 
#
# Total GULP energy -222967.227726 kJ/mol
# GULP energy per Si atom -5574.180693 kJ/mol
# Density = 2.125820 g / cm^3
# Si number density = 21.306696 Si / 1000 Ang^3
#
#
#
# Elastic Constant Matrix: (Units=GPa)
#
#
# Indices 1 2 3 4 5 6 
#
# 1 75.4490 29.5456 -5.2508 0.0000 0.0000 0.0000
# 2 29.5456 122.0530 11.6689 0.0000 0.0000 0.0000
# 3 -5.2508 11.6689 38.1494 0.0000 0.0000 0.0000
# 4 0.0000 0.0000 0.0000 27.8420 0.0000 0.0000
# 5 0.0000 0.0000 0.0000 0.0000 7.5117 0.0000
# 6 0.0000 0.0000 0.0000 0.0000 0.0000 20.0237
#
#
#
# Elastic Compliance Matrix: (Units=1/GPa)
#
#
# Indices 1 2 3 4 5 6 
#
# 1 0.015029 -0.003952 0.003277 0.000000 0.000000 0.000000
# 2 -0.003952 0.009479 -0.003443 0.000000 0.000000 0.000000
# 3 0.003277 -0.003443 0.027717 0.000000 0.000000 0.000000
# 4 0.000000 0.000000 0.000000 0.035917 0.000000 0.000000
# 5 0.000000 0.000000 0.000000 0.000000 0.133125 0.000000
# 6 0.000000 0.000000 0.000000 0.000000 0.000000 0.049941
#
#
# Mechanical properties :
#
#
# Convention : Reuss Voigt Hill
#
# Bulk Modulus (GPa) = 22.73220 34.17543 28.45381
# Shear Modulus (GPa) = 17.00063 24.38799 20.69431
#
# Velocity S-wave (km/s) = 2.82778 3.38689 3.11988
# Velocity P-wave (km/s) = 4.62104 5.60083 5.13436
#
# Compressibility (1/GPa) = 0.04399047
#
# Stress axis : x y z
#
# Youngs Moduli (GPa) = 66.53584 105.49728 36.07892
#
# Poissons Ratio (x) = 0.41688 -0.11824
# Poissons Ratio (y) = 0.26292 0.12423
# Poissons Ratio (z) = -0.21806 0.36325
#
# Static dielectric constant tensor:
#      x y z
#    x 1.742040 0.000000 0.000000 
#    y 0.000000 1.871690 0.000000 
#    z 0.000000 0.000000 1.868930 
# 
# From -- ./inp_files/26144.got.cif
#   From: 2010.05.17/outbox.cif.g08.bks.cpg/sg64_14_cif.got.tgz:26144.got - 2010.06.03 16:29:19.
