data_PCOD9476364
_publ_section_title
;
Structure prediction by ZEFSAII (Michael W. Deem and Ramdas Pophale) SiO2 
 PCOD9476364
Probable space group: C M C A
;
_chemical_formula_sum "Si O2"
_cell_formula_units_Z 68
_cell_length_a 21.406260
_cell_length_b 16.172368
_cell_length_c 7.879345
_cell_angle_alpha 90.000000
_cell_angle_beta 90.000000
_cell_angle_gamma 90.000000
_cell_volume 2727.749770
_symmetry_space_group_name_H-M "C M C A"
_symmetry_group_IT_number 64
_symmetry_cell_setting 'orthorhombic'
loop_
_space_group_symop_operation_xyz
x,y,z
-x,1/2-y,1/2+z
x,-y,-z
-x,1/2+y,1/2-z
-x,-y,-z
x,1/2+y,1/2-z
-x,y,z
x,1/2-y,1/2+z
1/2+x,1/2+y,z
1/2-x,-y,1/2+z
1/2+x,1/2-y,-z
1/2-x,y,1/2-z
1/2-x,1/2-y,-z
1/2+x,y,1/2-z
1/2-x,1/2+y,z
1/2+x,-y,1/2+z
loop_
_atom_site_type_symbol
_atom_site_label
_atom_site_fract_x
_atom_site_fract_y
_atom_site_fract_z
Si Si1 0.500000 0.885529 0.408118
Si Si2 0.500000 0.744417 0.127626
Si Si3 0.500000 0.000000 0.000000
Si Si4 0.397434 0.852911 0.980827
Si Si5 0.682055 0.888178 0.675828
Si Si6 0.639711 0.422037 0.183357
O O1 0.500000 0.854359 0.602413
O O2 0.435494 0.929807 0.357469
O O3 0.500000 0.803243 0.291047
O O4 0.437202 0.774566 0.035754
O O5 0.445740 0.071044 0.027094
O O6 0.365108 0.842258 0.801423
O O7 0.352576 0.876397 0.137692
O O8 0.750000 0.871255 0.750000
O O9 0.670109 0.874955 0.476437
O O10 0.667655 0.986459 0.696534
#
# Coordination Sequence:
#
# PCOD9476364 Si02
#       6
#     8   8   4  16  16  16
#     4  10  22  41  59  92 120 149 207 241 307 348
#     4   9  22  36  63  86 116 159 187 257 298 351
#     4  10  16  30  56  80 118 140 178 246 302 370
#     4  10  20  37  56  85 121 153 194 241 309 352
#     4  11  24  36  59  88 120 160 196 235 298 361
#     4  10  23  36  59  90 118 155 189 249 295 362
#
# _framework density 24.928972999999999
#
# number of rings (size 3 to 8) (size 9 to 14) (size 15 to 20)
#    0.000    1.882    2.353    0.706    9.882    2.824 
#    0.000    0.000    0.000    2.824    0.000    0.000 
#    0.000    0.000    0.000    0.000    0.000    0.000 
#
# Total GULP energy -189776.999947 kJ/mol
# GULP energy per Si atom -5581.676469 kJ/mol
# Density = 2.487223 g / cm^3
# Si number density = 24.928973 Si / 1000 Ang^3
#
#
#
# Elastic Constant Matrix: (Units=GPa)
#
#
# Indices 1 2 3 4 5 6 
#
# 1 86.4094 -4.8104 29.9696 0.0000 0.0000 0.0000
# 2 -4.8104 31.3646 19.1723 0.0000 0.0000 0.0000
# 3 29.9696 19.1723 152.8610 0.0000 0.0000 0.0000
# 4 0.0000 0.0000 0.0000 38.7101 0.0000 0.0000
# 5 0.0000 0.0000 0.0000 0.0000 17.4991 0.0000
# 6 0.0000 0.0000 0.0000 0.0000 0.0000 -217.8072
#
#
#
# Elastic Compliance Matrix: (Units=1/GPa)
#
#
# Indices 1 2 3 4 5 6 
#
# 1 0.012821 0.003794 -0.002989 0.000000 0.000000 0.000000
# 2 0.003794 0.035653 -0.005215 0.000000 0.000000 0.000000
# 3 -0.002989 -0.005215 0.007782 0.000000 0.000000 0.000000
# 4 0.000000 0.000000 0.000000 0.025833 0.000000 0.000000
# 5 0.000000 0.000000 0.000000 0.000000 0.057146 0.000000
# 6 0.000000 0.000000 0.000000 0.000000 0.000000 -0.004591
#
#
# Mechanical properties :
#
#
# Convention : Reuss Voigt Hill
#
# Bulk Modulus (GPa) = 21.08213 39.92200 30.50206
# Shear Modulus (GPa) = 31.39178 -17.23269 7.07954
#
# Velocity S-wave (km/s) = 3.55244 -2.63206 1.68702
# Velocity P-wave (km/s) = 5.03008 2.61000 4.00710
#
# Compressibility (1/GPa) = 0.04743354
#
# Stress axis : x y z
#
# Youngs Moduli (GPa) = 77.99793 28.04811 128.49936
#
# Poissons Ratio (x) = -0.10641 0.38414
# Poissons Ratio (y) = -0.29590 0.67019
# Poissons Ratio (z) = 0.23317 0.14628
#
# Static dielectric constant tensor:
#      x y z
#    x 1.951100 0.000000 0.000000 
#    y 0.000000 1.952860 0.000000 
#    z 0.000000 0.000000 2.178990 
# 
# From -- ./inp_files/7909.got.cif
#   From: 2010.05.17/outbox.cif.g08.bks.cpg/sg64_4_cif.got.tgz:7909.got - 2010.06.03 16:29:19.
