data_PCOD9476230
_publ_section_title
;
Structure prediction by ZEFSAII (Michael W. Deem and Ramdas Pophale) SiO2 
 PCOD9476230
Probable space group: C M C M
;
_chemical_formula_sum "Si O2"
_cell_formula_units_Z 40
_cell_length_a 9.000000
_cell_length_b 18.000000
_cell_length_c 27.000000
_cell_angle_alpha 90.000000
_cell_angle_beta 90.000000
_cell_angle_gamma 90.000000
_cell_volume 4374.000000
_symmetry_space_group_name_H-M "C M C M"
_symmetry_group_IT_number 63
_symmetry_cell_setting 'orthorhombic'
loop_
_space_group_symop_operation_xyz
x,y,z
-x,-y,1/2+z
x,-y,-z
-x,y,1/2-z
-x,-y,-z
x,y,1/2-z
-x,y,z
x,-y,1/2+z
1/2+x,1/2+y,z
1/2-x,1/2-y,1/2+z
1/2+x,1/2-y,-z
1/2-x,1/2+y,1/2-z
1/2-x,1/2-y,-z
1/2+x,1/2+y,1/2-z
1/2-x,1/2+y,z
1/2+x,1/2-y,1/2+z
loop_
_atom_site_type_symbol
_atom_site_label
_atom_site_fract_x
_atom_site_fract_y
_atom_site_fract_z
Si Si1 0.823332 0.825790 0.750000
Si Si2 0.178318 0.923723 0.848121
Si Si3 0.178356 0.162423 0.051144
Si Si4 0.178737 0.584804 0.844701
Si Si5 0.822332 0.834242 0.250000
Si Si6 0.178387 0.336558 0.447984
O O1 0.794004 0.873147 0.700284
O O2 0.728156 0.751278 0.750000
O O3 0.000000 0.806834 0.750000
O O4 0.219860 0.882314 0.899352
O O5 0.000000 0.937810 0.849437
O O6 0.265903 0.000323 0.843662
O O7 0.219152 0.249401 0.057635
O O8 0.000000 0.158556 0.046455
O O9 0.249954 0.136095 0.999450
O O10 0.254078 0.627677 0.799045
O O11 0.221093 0.620348 0.897990
O O12 0.000000 0.589620 0.839981
O O13 0.000000 0.841889 0.250000
O O14 0.000000 0.341030 0.452651
#
# Coordination Sequence:
#
# PCOD9476230 Si02
#       6
#     8  16  16  16   8  16
#     4  10  21  40  63  83 111 149 185 228 281 334
#     4  10  21  37  58  85 117 152 190 233 283 335
#     4   9  18  34  56  81 111 148 190 235 282 332
#     4  11  23  39  59  83 115 151 188 232 282 336
#     4  12  25  40  61  87 113 143 185 232 279 338
#     4   9  19  36  57  81 109 146 191 234 279 331
#
# _framework density 9.1449470000000002
#
# number of rings (size 3 to 8) (size 9 to 14) (size 15 to 20)
#    0.000    2.000    0.000    3.300    0.000    8.000 
#    0.000    8.000    0.000    0.000    0.000    0.000 
#    0.000    0.000    0.000    0.000    0.000    0.000 
#
# Total GULP energy -223420.606709 kJ/mol
# GULP energy per Si atom -5585.515168 kJ/mol
# Density = 0.912413 g / cm^3
# Si number density = 9.144947 Si / 1000 Ang^3
#
#
#
# Elastic Constant Matrix: (Units=GPa)
#
#
# Indices 1 2 3 4 5 6 
#
# 1 62.2784 57.0837 73.4103 0.0000 0.0000 0.0000
# 2 57.0837 104.3739 88.1485 0.0000 0.0000 0.0000
# 3 73.4103 88.1485 206.8482 0.0000 0.0000 0.0000
# 4 0.0000 0.0000 0.0000 16.7684 0.0000 0.0000
# 5 0.0000 0.0000 0.0000 0.0000 36.2000 0.0000
# 6 0.0000 0.0000 0.0000 0.0000 0.0000 32.2985
#
#
#
# Elastic Compliance Matrix: (Units=1/GPa)
#
#
# Indices 1 2 3 4 5 6 
#
# 1 0.038078 -0.014705 -0.007247 0.000000 0.000000 0.000000
# 2 -0.014705 0.020646 -0.003580 0.000000 0.000000 0.000000
# 3 -0.007247 -0.003580 0.008932 0.000000 0.000000 0.000000
# 4 0.000000 0.000000 0.000000 0.059636 0.000000 0.000000
# 5 0.000000 0.000000 0.000000 0.000000 0.027624 0.000000
# 6 0.000000 0.000000 0.000000 0.000000 0.000000 0.030961
#
#
# Mechanical properties :
#
#
# Convention : Reuss Voigt Hill
#
# Bulk Modulus (GPa) = 60.26748 90.08728 75.17738
# Shear Modulus (GPa) = 20.62091 27.37725 23.99908
#
# Velocity S-wave (km/s) = 3.36139 3.87311 3.62629
# Velocity P-wave (km/s) = 6.93456 8.32847 7.66327
#
# Compressibility (1/GPa) = 0.01659270
#
# Stress axis : x y z
#
# Youngs Moduli (GPa) = 26.26204 48.43459 111.95528
#
# Poissons Ratio (x) = 0.71221 0.81139
# Poissons Ratio (y) = 0.38617 0.40078
# Poissons Ratio (z) = 0.19033 0.17339
#
# Static dielectric constant tensor:
#      x y z
#    x 1.615090 0.000000 0.000000 
#    y 0.000000 1.614440 0.000000 
#    z 0.000000 0.000000 1.609350 
# 
# From -- ./inp_files/66672.got.cif
#   From: 2010.05.17/outbox.ucp.g08.bks.cvg/sg63_34_cif.got.tgz:66672.got - 2010.06.11 16:32:19.
