data_PCOD9476854
_publ_section_title
;
Structure prediction by ZEFSAII (Michael W. Deem and Ramdas Pophale) SiO2 
 PCOD9476854
Probable space group: C M C A
;
_chemical_formula_sum "Si O2"
_cell_formula_units_Z 80
_cell_length_a 15.110912
_cell_length_b 9.299876
_cell_length_c 25.858761
_cell_angle_alpha 90.000000
_cell_angle_beta 90.000000
_cell_angle_gamma 90.000000
_cell_volume 3633.921543
_symmetry_space_group_name_H-M "C M C A"
_symmetry_group_IT_number 64
_symmetry_cell_setting 'orthorhombic'
loop_
_space_group_symop_operation_xyz
x,y,z
-x,1/2-y,1/2+z
x,-y,-z
-x,1/2+y,1/2-z
-x,-y,-z
x,1/2+y,1/2-z
-x,y,z
x,1/2-y,1/2+z
1/2+x,1/2+y,z
1/2-x,-y,1/2+z
1/2+x,1/2-y,-z
1/2-x,y,1/2-z
1/2-x,1/2-y,-z
1/2+x,y,1/2-z
1/2-x,1/2+y,z
1/2+x,-y,1/2+z
loop_
_atom_site_type_symbol
_atom_site_label
_atom_site_fract_x
_atom_site_fract_y
_atom_site_fract_z
Si Si1 0.871637 0.249283 0.321778
Si Si2 0.272661 0.883695 0.536061
Si Si3 0.903756 0.964963 0.592988
Si Si4 0.853789 0.535940 0.267242
Si Si5 0.170073 0.253080 0.141691
O O1 0.906903 0.185222 0.375368
O O2 0.895566 0.390134 0.288995
O O3 0.888386 0.117690 0.282831
O O4 0.769538 0.282527 0.337630
O O5 0.250000 0.750000 0.500000
O O6 0.180663 0.953258 0.555923
O O7 0.322514 0.831697 0.587412
O O8 0.320602 0.000000 0.500000
O O9 0.000000 0.989768 0.569002
O O10 0.880840 0.099587 0.630506
O O11 0.750000 0.511488 0.250000
O O12 0.864810 0.648540 0.314061
#
# Coordination Sequence:
#
# PCOD9476854 Si02
#       5
#    16  16  16  16  16
#     4  10  19  34  59  88 121 162 208 248 297 358
#     4  11  22  40  66  94 117 157 207 255 304 366
#     4  11  24  41  61  91 127 161 199 252 315 372
#     4  10  18  31  59  92 121 156 209 259 290 344
#     4  10  20  36  60  89 120 157 205 253 298 360
#
# _framework density 22.014783999999999
#
# number of rings (size 3 to 8) (size 9 to 14) (size 15 to 20)
#    0.000    1.600    2.000    6.600    2.800    0.400 
#    0.000    5.000    0.000    1.200    0.000    0.000 
#    0.000    0.000    0.000    0.000    0.000    0.000 
#
# Total GULP energy -223113.934855 kJ/mol
# GULP energy per Si atom -5577.848371 kJ/mol
# Density = 2.196468 g / cm^3
# Si number density = 22.014784 Si / 1000 Ang^3
#
#
#
# Elastic Constant Matrix: (Units=GPa)
#
#
# Indices 1 2 3 4 5 6 
#
# 1 47.8418 8.4661 -14.4462 0.0000 0.0000 0.0000
# 2 8.4661 102.0832 22.1262 0.0000 0.0000 0.0000
# 3 -14.4462 22.1262 106.5284 0.0000 0.0000 0.0000
# 4 0.0000 0.0000 0.0000 56.6186 0.0000 0.0000
# 5 0.0000 0.0000 0.0000 0.0000 -21.2595 0.0000
# 6 0.0000 0.0000 0.0000 0.0000 0.0000 -21.7183
#
#
#
# Elastic Compliance Matrix: (Units=1/GPa)
#
#
# Indices 1 2 3 4 5 6 
#
# 1 0.022455 -0.002641 0.003594 0.000000 0.000000 0.000000
# 2 -0.002641 0.010568 -0.002553 0.000000 0.000000 0.000000
# 3 0.003594 -0.002553 0.010405 0.000000 0.000000 0.000000
# 4 0.000000 0.000000 0.000000 0.017662 0.000000 0.000000
# 5 0.000000 0.000000 0.000000 0.000000 -0.047038 0.000000
# 6 0.000000 0.000000 0.000000 0.000000 0.000000 -0.046044
#
#
# Mechanical properties :
#
#
# Convention : Reuss Voigt Hill
#
# Bulk Modulus (GPa) = 24.85930 32.08283 28.47106
# Shear Modulus (GPa) = -325.06027 18.74865 -153.15581
#
# Velocity S-wave (km/s) = -12.16454 2.92145 -8.34988
# Velocity P-wave (km/s) = 13.63762 5.09753 8.94427
#
# Compressibility (1/GPa) = 0.04022640
#
# Stress axis : x y z
#
# Youngs Moduli (GPa) = 44.53406 94.62187 96.10938
#
# Poissons Ratio (x) = 0.24991 -0.34538
# Poissons Ratio (y) = 0.11762 0.24539
# Poissons Ratio (z) = -0.16004 0.24159
#
# Static dielectric constant tensor:
#      x y z
#    x 1.988450 0.000000 0.000000 
#    y 0.000000 1.840210 0.000000 
#    z 0.000000 0.000000 1.788780 
# 
# From -- ./inp_files/50279.got.cif
#   From: 2010.05.17/outbox.cif.g08.bks.cpg/sg64_26_cif.got.tgz:50279.got - 2010.06.03 16:29:19.
