data_PCOD9476252
_publ_section_title
;
Structure prediction by ZEFSAII (Michael W. Deem and Ramdas Pophale) SiO2 
 PCOD9476252
Probable space group: C M C M
;
_chemical_formula_sum "Si O2"
_cell_formula_units_Z 58
_cell_length_a 15.000000
_cell_length_b 24.000000
_cell_length_c 18.000000
_cell_angle_alpha 90.000000
_cell_angle_beta 90.000000
_cell_angle_gamma 90.000000
_cell_volume 6480.000000
_symmetry_space_group_name_H-M "C M C M"
_symmetry_group_IT_number 63
_symmetry_cell_setting 'orthorhombic'
loop_
_space_group_symop_operation_xyz
x,y,z
-x,-y,1/2+z
x,-y,-z
-x,y,1/2-z
-x,-y,-z
x,y,1/2-z
-x,y,z
x,-y,1/2+z
1/2+x,1/2+y,z
1/2-x,1/2-y,1/2+z
1/2+x,1/2-y,-z
1/2-x,1/2+y,1/2-z
1/2-x,1/2-y,-z
1/2+x,1/2+y,1/2-z
1/2-x,1/2+y,z
1/2+x,1/2-y,1/2+z
loop_
_atom_site_type_symbol
_atom_site_label
_atom_site_fract_x
_atom_site_fract_y
_atom_site_fract_z
Si Si1 0.000000 0.010618 0.250000
Si Si2 0.859743 0.001180 0.617205
Si Si3 0.840579 0.516512 0.836708
Si Si4 0.393789 0.228213 0.338648
Si Si5 0.603211 0.877944 0.066705
Si Si6 0.104371 0.605902 0.108828
Si Si7 0.604233 0.404672 0.997166
Si Si8 0.225529 0.802250 0.053833
O O1 0.923600 0.009265 0.314695
O O2 0.857750 0.944152 0.568658
O O3 0.763856 0.019607 0.646098
O O4 0.893593 0.052330 0.566370
O O5 0.860598 0.524748 0.750000
O O6 0.885146 0.565828 0.884916
O O7 0.863831 0.452939 0.859113
O O8 0.387193 0.234770 0.250000
O O9 0.500000 0.233205 0.358942
O O10 0.361141 0.165466 0.360432
O O11 0.334881 0.274022 0.381679
O O12 0.500000 0.857604 0.075473
O O13 0.682664 0.832944 0.080856
O O14 0.615481 0.893762 0.980001
O O15 0.000000 0.607730 0.126592
O O16 0.500000 0.390140 0.982535
O O17 0.665318 0.350702 0.014416
O O18 0.250000 0.750000 0.000000
#
# Coordination Sequence:
#
# PCOD9476252 Si02
#       8
#     4  16  16  16  16  16  16  16
#     4  12  20  42  60 100 138 158 200 260 328 392
#     4  11  22  38  63  94 130 164 202 259 322 387
#     4  12  24  37  60  97 129 168 203 250 321 381
#     4  10  22  42  66  97 128 158 202 271 330 368
#     4  11  24  42  64  89 127 168 213 262 309 373
#     4  10  21  40  65  92 125 163 209 257 309 371
#     4  11  22  41  65  91 126 168 208 257 319 384
#     4  12  24  41  66  93 123 168 222 264 304 375
#
# _framework density 8.9506169999999994
#
# number of rings (size 3 to 8) (size 9 to 14) (size 15 to 20)
#    0.000    0.966    4.828    2.897    1.931    3.862 
#    1.241    0.000    0.000    0.000    0.000    0.000 
#    0.000    0.000    0.000    0.000    0.000    0.000 
#
# Total GULP energy -323201.557458 kJ/mol
# GULP energy per Si atom -5572.440646 kJ/mol
# Density = 0.893025 g / cm^3
# Si number density = 8.950617 Si / 1000 Ang^3
#
#
#
# Elastic Constant Matrix: (Units=GPa)
#
#
# Indices 1 2 3 4 5 6 
#
# 1 99.2533 47.1220 32.6112 0.0000 0.0000 0.0000
# 2 47.1220 127.3254 48.2426 0.0000 0.0000 0.0000
# 3 32.6112 48.2426 103.1273 0.0000 0.0000 0.0000
# 4 0.0000 0.0000 0.0000 17.3538 0.0000 0.0000
# 5 0.0000 0.0000 0.0000 0.0000 32.6775 0.0000
# 6 0.0000 0.0000 0.0000 0.0000 0.0000 32.1600
#
#
#
# Elastic Compliance Matrix: (Units=1/GPa)
#
#
# Indices 1 2 3 4 5 6 
#
# 1 0.012619 -0.003839 -0.002195 0.000000 0.000000 0.000000
# 2 -0.003839 0.010713 -0.003798 0.000000 0.000000 0.000000
# 3 -0.002195 -0.003798 0.012167 0.000000 0.000000 0.000000
# 4 0.000000 0.000000 0.000000 0.057624 0.000000 0.000000
# 5 0.000000 0.000000 0.000000 0.000000 0.030602 0.000000
# 6 0.000000 0.000000 0.000000 0.000000 0.000000 0.031095
#
#
# Mechanical properties :
#
#
# Convention : Reuss Voigt Hill
#
# Bulk Modulus (GPa) = 63.14170 65.07310 64.10740
# Shear Modulus (GPa) = 27.81460 29.88695 28.85078
#
# Velocity S-wave (km/s) = 3.94608 4.09044 4.01891
# Velocity P-wave (km/s) = 7.49072 7.66414 7.57793
#
# Compressibility (1/GPa) = 0.01583739
#
# Stress axis : x y z
#
# Youngs Moduli (GPa) = 79.24729 93.34022 82.18679
#
# Poissons Ratio (x) = 0.35829 0.18037
# Poissons Ratio (y) = 0.30419 0.31214
# Poissons Ratio (z) = 0.17392 0.35450
#
# Static dielectric constant tensor:
#      x y z
#    x 1.642380 0.000000 0.000000 
#    y 0.000000 1.604140 0.000000 
#    z 0.000000 0.000000 1.608030 
# 
# From -- ./inp_files/44634.got.cif
#   From: 2010.05.17/outbox.ucp.g08.bks.cvg/sg63_23_cif.got.tgz:44634.got - 2010.06.11 16:32:19.
