data_PCOD9476159
_publ_section_title
;
Structure prediction by ZEFSAII (Michael W. Deem and Ramdas Pophale) SiO2 
 PCOD9476159
Probable space group: C M C M
;
_chemical_formula_sum "Si O2"
_cell_formula_units_Z 56
_cell_length_a 24.000000
_cell_length_b 15.000000
_cell_length_c 15.000000
_cell_angle_alpha 90.000000
_cell_angle_beta 90.000000
_cell_angle_gamma 90.000000
_cell_volume 5400.000000
_symmetry_space_group_name_H-M "C M C M"
_symmetry_group_IT_number 63
_symmetry_cell_setting 'orthorhombic'
loop_
_space_group_symop_operation_xyz
x,y,z
-x,-y,1/2+z
x,-y,-z
-x,y,1/2-z
-x,-y,-z
x,y,1/2-z
-x,y,z
x,-y,1/2+z
1/2+x,1/2+y,z
1/2-x,1/2-y,1/2+z
1/2+x,1/2-y,-z
1/2-x,1/2+y,1/2-z
1/2-x,1/2-y,-z
1/2+x,1/2+y,1/2-z
1/2-x,1/2+y,z
1/2+x,1/2-y,1/2+z
loop_
_atom_site_type_symbol
_atom_site_label
_atom_site_fract_x
_atom_site_fract_y
_atom_site_fract_z
Si Si1 0.437215 0.030921 0.641441
Si Si2 0.140841 0.945136 0.153167
Si Si3 0.434713 0.659604 0.958237
Si Si4 0.067688 0.664183 0.147801
Si Si5 0.838761 0.658830 0.651318
Si Si6 0.257442 0.599925 0.974541
Si Si7 0.344663 0.645136 0.110345
O O1 0.440453 0.025610 0.750000
O O2 0.500000 0.047221 0.608241
O O3 0.394211 0.107906 0.620764
O O4 0.416032 0.933378 0.612566
O O5 0.144848 0.904358 0.250000
O O6 0.082259 0.918584 0.109830
O O7 0.189604 0.908755 0.090824
O O8 0.150095 0.050425 0.156831
O O9 0.500000 0.661538 0.976724
O O10 0.416758 0.752510 0.912135
O O11 0.396253 0.645139 0.042461
O O12 0.087168 0.675393 0.250000
O O13 0.000000 0.662082 0.150812
O O14 0.822599 0.622972 0.750000
O O15 0.791825 0.645141 0.577959
O O16 0.849632 0.762824 0.659795
O O17 0.239909 0.500000 0.000000
O O18 0.284630 0.644803 0.060786
#
# Coordination Sequence:
#
# PCOD9476159 Si02
#       7
#    16  16  16  16  16  16  16
#     4   8  16  31  50  75 108 139 167 209 261 306
#     4  10  20  37  58  79 106 139 179 226 276 326
#     4  10  20  34  54  80 108 142 184 226 270 321
#     4   8  14  28  50  75 104 136 172 218 267 308
#     4  11  21  35  58  83 107 142 187 221 254 319
#     4   9  20  38  58  79 105 139 177 226 281 321
#     4  10  22  37  53  76 112 148 173 216 278 328
#
# _framework density 10.370369999999999
#
# number of rings (size 3 to 8) (size 9 to 14) (size 15 to 20)
#    0.000    2.571    0.000    3.857    0.000    3.714 
#    0.000    1.429    0.000   12.429    0.000    0.000 
#    0.000    0.000    0.000    0.000    0.000    0.000 
#
# Total GULP energy -312140.453906 kJ/mol
# GULP energy per Si atom -5573.936677 kJ/mol
# Density = 1.034677 g / cm^3
# Si number density = 10.370370 Si / 1000 Ang^3
#
#
#
# Elastic Constant Matrix: (Units=GPa)
#
#
# Indices 1 2 3 4 5 6 
#
# 1 44.0448 64.0131 2.4628 0.0000 0.0000 0.0000
# 2 64.0131 50.1136 43.2528 0.0000 0.0000 0.0000
# 3 2.4628 43.2528 46.8922 0.0000 0.0000 0.0000
# 4 0.0000 0.0000 0.0000 19.9914 0.0000 0.0000
# 5 0.0000 0.0000 0.0000 0.0000 -5.7581 0.0000
# 6 0.0000 0.0000 0.0000 0.0000 0.0000 -6.0841
#
#
#
# Elastic Compliance Matrix: (Units=1/GPa)
#
#
# Indices 1 2 3 4 5 6 
#
# 1 -0.003038 0.018357 -0.016773 0.000000 0.000000 0.000000
# 2 0.018357 -0.013057 0.011080 0.000000 0.000000 0.000000
# 3 -0.016773 0.011080 0.011987 0.000000 0.000000 0.000000
# 4 0.000000 0.000000 0.000000 0.050022 0.000000 0.000000
# 5 0.000000 0.000000 0.000000 0.000000 -0.173668 0.000000
# 6 0.000000 0.000000 0.000000 0.000000 0.000000 -0.164363
#
#
# Mechanical properties :
#
#
# Convention : Reuss Voigt Hill
#
# Bulk Modulus (GPa) = 47.12665 40.05646 43.59155
# Shear Modulus (GPa) = -16.10964 3.71796 -6.19584
#
# Velocity S-wave (km/s) = -2.78998 1.34033 -1.73025
# Velocity P-wave (km/s) = 3.52029 4.66371 4.13174
#
# Compressibility (1/GPa) = 0.02121942
#
# Stress axis : x y z
#
# Youngs Moduli (GPa) = -329.16272 -76.58538 83.42654
#
# Poissons Ratio (x) = 1.40591 1.39933
# Poissons Ratio (y) = 6.04260 -0.92435
# Poissons Ratio (z) = -5.52110 0.84855
#
# Static dielectric constant tensor:
#      x y z
#    x 1.694500 0.000000 0.000000 
#    y 0.000000 1.759030 0.000000 
#    z 0.000000 0.000000 1.786860 
# 
# From -- ./inp_files/36923.got.cif
#   From: 2010.05.17/outbox.ucp.g08.bks.cvg/sg63_19_cif.got.tgz:36923.got - 2010.06.11 16:32:19.
