data_PCOD9476923
_publ_section_title
;
Structure prediction by ZEFSAII (Michael W. Deem and Ramdas Pophale) SiO2 
 PCOD9476923
Probable space group: C M C A
;
_chemical_formula_sum "Si O2"
_cell_formula_units_Z 120
_cell_length_a 11.695100
_cell_length_b 21.161883
_cell_length_c 22.691824
_cell_angle_alpha 90.000000
_cell_angle_beta 90.000000
_cell_angle_gamma 90.000000
_cell_volume 5616.007189
_symmetry_space_group_name_H-M "C M C A"
_symmetry_group_IT_number 64
_symmetry_cell_setting 'orthorhombic'
loop_
_space_group_symop_operation_xyz
x,y,z
-x,1/2-y,1/2+z
x,-y,-z
-x,1/2+y,1/2-z
-x,-y,-z
x,1/2+y,1/2-z
-x,y,z
x,1/2-y,1/2+z
1/2+x,1/2+y,z
1/2-x,-y,1/2+z
1/2+x,1/2-y,-z
1/2-x,y,1/2-z
1/2-x,1/2-y,-z
1/2+x,y,1/2-z
1/2-x,1/2+y,z
1/2+x,-y,1/2+z
loop_
_atom_site_type_symbol
_atom_site_label
_atom_site_fract_x
_atom_site_fract_y
_atom_site_fract_z
Si Si1 0.366699 0.774391 0.608969
Si Si2 0.774406 0.552950 0.044501
Si Si3 0.818885 0.131697 0.352371
Si Si4 0.750000 0.543113 0.250000
Si Si5 0.200409 0.166469 0.862701
Si Si6 0.363408 0.974754 0.357817
Si Si7 0.623191 0.241514 0.222729
Si Si8 0.129494 0.164527 0.991490
O O1 0.500000 0.776364 0.618280
O O2 0.306647 0.837868 0.634155
O O3 0.313525 0.710207 0.635053
O O4 0.346643 0.780487 0.538724
O O5 0.853377 0.591880 0.090348
O O6 0.684679 0.518863 0.089383
O O7 0.822040 0.500000 0.000000
O O8 0.712354 0.606184 0.005460
O O9 0.819209 0.087273 0.295341
O O10 0.882553 0.194579 0.333118
O O11 0.669111 0.504242 0.205671
O O12 0.204180 0.091397 0.862077
O O13 0.134270 0.189137 0.804708
O O14 0.139904 0.184055 0.924054
O O15 0.500000 0.965456 0.363728
O O16 0.500000 0.234472 0.254249
O O17 0.750000 0.227520 0.250000
O O18 0.000000 0.142680 0.002621
#
# Coordination Sequence:
#
# PCOD9476923 Si02
#       8
#    16  16  16   8  16  16  16  16
#     4   9  20  37  61  89 119 157 202 254 312 374
#     4  10  19  34  61  94 127 162 202 250 315 388
#     4   9  20  39  60  91 120 156 204 261 317 370
#     4  10  22  40  56  86 118 158 202 248 312 376
#     4  11  22  37  56  87 126 160 201 250 316 376
#     4  11  23  38  60  88 125 162 201 258 318 381
#     4  11  24  42  65  92 124 167 220 276 328 381
#     4  10  18  32  57  90 123 156 197 247 306 375
#
# _framework density 21.367495000000002
#
# number of rings (size 3 to 8) (size 9 to 14) (size 15 to 20)
#    0.000    1.867    2.000    2.000    0.933    6.400 
#    0.000    0.667    0.000    1.200    0.000    0.000 
#    0.000    0.000    0.000    0.000    0.000    0.000 
#
# Total GULP energy -334308.756949 kJ/mol
# GULP energy per Si atom -5571.812616 kJ/mol
# Density = 2.131886 g / cm^3
# Si number density = 21.367495 Si / 1000 Ang^3
#
#
#
# Elastic Constant Matrix: (Units=GPa)
#
#
# Indices 1 2 3 4 5 6 
#
# 1 91.3032 26.4709 17.4998 0.0000 0.0000 0.0000
# 2 26.4709 78.0671 16.4766 0.0000 0.0000 0.0000
# 3 17.4998 16.4766 102.5878 0.0000 0.0000 0.0000
# 4 0.0000 0.0000 0.0000 46.8229 0.0000 0.0000
# 5 0.0000 0.0000 0.0000 0.0000 13.5319 0.0000
# 6 0.0000 0.0000 0.0000 0.0000 0.0000 -166.4654
#
#
#
# Elastic Compliance Matrix: (Units=1/GPa)
#
#
# Indices 1 2 3 4 5 6 
#
# 1 0.012362 -0.003878 -0.001486 0.000000 0.000000 0.000000
# 2 -0.003878 0.014475 -0.001663 0.000000 0.000000 0.000000
# 3 -0.001486 -0.001663 0.010268 0.000000 0.000000 0.000000
# 4 0.000000 0.000000 0.000000 0.021357 0.000000 0.000000
# 5 0.000000 0.000000 0.000000 0.000000 0.073899 0.000000
# 6 0.000000 0.000000 0.000000 0.000000 0.000000 -0.006007
#
#
# Mechanical properties :
#
#
# Convention : Reuss Voigt Hill
#
# Bulk Modulus (GPa) = 43.38193 43.65030 43.51612
# Shear Modulus (GPa) = 33.76264 -7.12139 13.32063
#
# Velocity S-wave (km/s) = 3.97935 -1.82758 2.49952
# Velocity P-wave (km/s) = 6.43898 4.00241 5.36096
#
# Compressibility (1/GPa) = 0.02305107
#
# Stress axis : x y z
#
# Youngs Moduli (GPa) = 80.89550 69.08226 97.38648
#
# Poissons Ratio (x) = 0.26790 0.14470
# Poissons Ratio (y) = 0.31371 0.16199
# Poissons Ratio (z) = 0.12020 0.11491
#
# Static dielectric constant tensor:
#      x y z
#    x 1.820580 0.000000 0.000000 
#    y 0.000000 1.777080 0.000000 
#    z 0.000000 0.000000 1.845940 
# 
# From -- ./inp_files/44471.got.cif
#   From: 2010.05.17/outbox.cif.g08.bks.cpg/sg64_23_cif.got.tgz:44471.got - 2010.06.03 16:29:19.
