data_PCOD9476312
_publ_section_title
;
Structure prediction by ZEFSAII (Michael W. Deem and Ramdas Pophale) SiO2 
 PCOD9476312
Probable space group: C M C A
;
_chemical_formula_sum "Si O2"
_cell_formula_units_Z 96
_cell_length_a 7.369649
_cell_length_b 20.579935
_cell_length_c 25.549678
_cell_angle_alpha 90.000000
_cell_angle_beta 90.000000
_cell_angle_gamma 90.000000
_cell_volume 3875.040392
_symmetry_space_group_name_H-M "C M C A"
_symmetry_group_IT_number 64
_symmetry_cell_setting 'orthorhombic'
loop_
_space_group_symop_operation_xyz
x,y,z
-x,1/2-y,1/2+z
x,-y,-z
-x,1/2+y,1/2-z
-x,-y,-z
x,1/2+y,1/2-z
-x,y,z
x,1/2-y,1/2+z
1/2+x,1/2+y,z
1/2-x,-y,1/2+z
1/2+x,1/2-y,-z
1/2-x,y,1/2-z
1/2-x,1/2-y,-z
1/2+x,y,1/2-z
1/2-x,1/2+y,z
1/2+x,-y,1/2+z
loop_
_atom_site_type_symbol
_atom_site_label
_atom_site_fract_x
_atom_site_fract_y
_atom_site_fract_z
Si Si1 0.716704 0.609686 0.693430
Si Si2 0.716126 0.804830 0.043338
Si Si3 0.705520 0.483848 0.392812
Si Si4 0.220008 0.085144 0.470960
Si Si5 0.777952 0.756697 0.343198
Si Si6 0.710827 0.118542 0.358282
O O1 0.500000 0.610627 0.686259
O O2 0.750000 0.579321 0.750000
O O3 0.790319 0.571114 0.643145
O O4 0.781174 0.684032 0.692954
O O5 0.500000 0.812102 0.048653
O O6 0.782091 0.780214 0.099164
O O7 0.750000 0.750000 0.000000
O O8 0.782779 0.874799 0.021415
O O9 0.500000 0.464178 0.405999
O O10 0.783117 0.515713 0.446257
O O11 0.699745 0.547914 0.355047
O O12 0.271356 0.130837 0.421130
O O13 0.000000 0.080399 0.472791
O O14 0.716172 0.683453 0.331579
O O15 0.000000 0.752880 0.343269
O O16 0.500000 0.109810 0.345251
#
# Coordination Sequence:
#
# PCOD9476312 Si02
#       6
#    16  16  16  16  16  16
#     4  10  21  39  57  72  97 131 170 215 261 308
#     4  10  16  26  46  74 107 138 170 200 242 303
#     4   8  16  32  51  71  97 128 163 206 249 290
#     4   8  15  26  44  72 101 129 162 198 238 286
#     4   9  18  31  50  78 107 135 166 208 256 299
#     4   9  15  27  50  74 100 129 163 203 244 290
#
# _framework density 24.773935000000002
#
# number of rings (size 3 to 8) (size 9 to 14) (size 15 to 20)
#    1.000    2.000    1.667    0.000    0.000    0.667 
#    0.000    4.167    0.000    9.000    0.000    1.167 
#    0.000    0.000    0.000    0.000    0.000    0.000 
#
# Total GULP energy -267406.497046 kJ/mol
# GULP energy per Si atom -5570.968688 kJ/mol
# Density = 2.471755 g / cm^3
# Si number density = 24.773935 Si / 1000 Ang^3
#
#
#
# Elastic Constant Matrix: (Units=GPa)
#
#
# Indices 1 2 3 4 5 6 
#
# 1 97.2570 2.3668 -8.6245 0.0000 0.0000 0.0000
# 2 2.3668 133.3916 27.8123 0.0000 0.0000 0.0000
# 3 -8.6245 27.8123 79.4050 0.0000 0.0000 0.0000
# 4 0.0000 0.0000 0.0000 25.2157 0.0000 0.0000
# 5 0.0000 0.0000 0.0000 0.0000 2.1899 0.0000
# 6 0.0000 0.0000 0.0000 0.0000 0.0000 -7.3522
#
#
#
# Elastic Compliance Matrix: (Units=1/GPa)
#
#
# Indices 1 2 3 4 5 6 
#
# 1 0.010407 -0.000453 0.001289 0.000000 0.000000 0.000000
# 2 -0.000453 0.008107 -0.002889 0.000000 0.000000 0.000000
# 3 0.001289 -0.002889 0.013746 0.000000 0.000000 0.000000
# 4 0.000000 0.000000 0.000000 0.039658 0.000000 0.000000
# 5 0.000000 0.000000 0.000000 0.000000 0.456639 0.000000
# 6 0.000000 0.000000 0.000000 0.000000 0.000000 -0.136014
#
#
# Mechanical properties :
#
#
# Convention : Reuss Voigt Hill
#
# Bulk Modulus (GPa) = 35.51910 39.24030 37.37970
# Shear Modulus (GPa) = 12.31426 23.24395 17.77911
#
# Velocity S-wave (km/s) = 2.23191 3.06640 2.68181
# Velocity P-wave (km/s) = 4.58370 5.33018 4.97097
#
# Compressibility (1/GPa) = 0.02815387
#
# Stress axis : x y z
#
# Youngs Moduli (GPa) = 96.08553 123.34872 72.75089
#
# Poissons Ratio (x) = 0.05593 -0.09379
# Poissons Ratio (y) = 0.04357 0.21017
# Poissons Ratio (z) = -0.12387 0.35633
#
# Static dielectric constant tensor:
#      x y z
#    x 1.809390 0.000000 0.000000 
#    y 0.000000 2.051810 0.000000 
#    z 0.000000 0.000000 2.046280 
# 
# From -- ./inp_files/49294.got.cif
#   From: 2010.05.17/outbox.cif.g08.bks.cpg/sg64_25_cif.got.tgz:49294.got - 2010.06.03 16:29:19.
