data_PCOD9476254
_publ_section_title
;
Structure prediction by ZEFSAII (Michael W. Deem and Ramdas Pophale) SiO2 
 PCOD9476254
Probable space group: C M C M
;
_chemical_formula_sum "Si O2"
_cell_formula_units_Z 58
_cell_length_a 18.000000
_cell_length_b 18.000000
_cell_length_c 18.000000
_cell_angle_alpha 90.000000
_cell_angle_beta 90.000000
_cell_angle_gamma 90.000000
_cell_volume 5832.000000
_symmetry_space_group_name_H-M "C M C M"
_symmetry_group_IT_number 63
_symmetry_cell_setting 'orthorhombic'
loop_
_space_group_symop_operation_xyz
x,y,z
-x,-y,1/2+z
x,-y,-z
-x,y,1/2-z
-x,-y,-z
x,y,1/2-z
-x,y,z
x,-y,1/2+z
1/2+x,1/2+y,z
1/2-x,1/2-y,1/2+z
1/2+x,1/2-y,-z
1/2-x,1/2+y,1/2-z
1/2-x,1/2-y,-z
1/2+x,1/2+y,1/2-z
1/2-x,1/2+y,z
1/2+x,1/2-y,1/2+z
loop_
_atom_site_type_symbol
_atom_site_label
_atom_site_fract_x
_atom_site_fract_y
_atom_site_fract_z
Si Si1 0.584600 0.926582 0.536166
Si Si2 0.081985 0.290217 0.421643
Si Si3 0.919192 0.120238 0.462862
Si Si4 0.253247 0.232171 0.589745
Si Si5 0.332094 0.453341 0.830508
Si Si6 0.124285 0.882968 0.129148
Si Si7 0.500000 0.660168 0.750000
Si Si8 0.315737 0.875391 0.833073
O O1 0.500000 0.946329 0.553780
O O2 0.585314 0.858670 0.478482
O O3 0.621646 0.898859 0.610559
O O4 0.620728 0.000000 0.500000
O O5 0.082017 0.209945 0.461754
O O6 0.163271 0.289317 0.384684
O O7 0.000000 0.294925 0.383256
O O8 0.862953 0.089141 0.402279
O O9 0.907288 0.097557 0.547416
O O10 0.000000 0.094708 0.437115
O O11 0.250000 0.250000 0.500000
O O12 0.195156 0.168268 0.611035
O O13 0.226523 0.304786 0.633124
O O14 0.359570 0.423187 0.750000
O O15 0.353269 0.538810 0.835658
O O16 0.244346 0.441064 0.830911
O O17 0.065229 0.844524 0.183919
O O18 0.342213 0.859265 0.750000
#
# Coordination Sequence:
#
# PCOD9476254 Si02
#       8
#    16  16  16  16  16  16   4  16
#     4  10  22  40  66  97 129 176 228 285 349 414
#     4  10  21  41  66  98 129 163 230 287 335 405
#     4  11  22  38  66  94 124 173 227 271 336 413
#     4  12  22  42  69  97 130 181 228 278 339 417
#     4  11  25  41  60  94 133 176 225 284 343 401
#     4  12  25  42  66  95 136 184 221 278 343 415
#     4  12  28  48  62 104 152 180 226 282 348 432
#     4  11  24  41  61  96 134 167 221 285 343 414
#
# _framework density 9.9451300000000007
#
# number of rings (size 3 to 8) (size 9 to 14) (size 15 to 20)
#    0.000    0.966    5.517    0.414    3.862    1.103 
#    1.241    0.000    0.000    1.241    0.000    3.862 
#    0.000    0.000    0.000    0.000    0.000    0.000 
#
# Total GULP energy -322942.663160 kJ/mol
# GULP energy per Si atom -5567.976951 kJ/mol
# Density = 0.992249 g / cm^3
# Si number density = 9.945130 Si / 1000 Ang^3
#
#
#
# Elastic Constant Matrix: (Units=GPa)
#
#
# Indices 1 2 3 4 5 6 
#
# 1 112.3854 30.9041 42.2477 0.0000 0.0000 0.0000
# 2 30.9041 61.0829 21.9685 0.0000 0.0000 0.0000
# 3 42.2477 21.9685 102.8442 0.0000 0.0000 0.0000
# 4 0.0000 0.0000 0.0000 16.7203 0.0000 0.0000
# 5 0.0000 0.0000 0.0000 0.0000 27.8411 0.0000
# 6 0.0000 0.0000 0.0000 0.0000 0.0000 18.3392
#
#
#
# Elastic Compliance Matrix: (Units=1/GPa)
#
#
# Indices 1 2 3 4 5 6 
#
# 1 0.011555 -0.004483 -0.003789 0.000000 0.000000 0.000000
# 2 -0.004483 0.019473 -0.002318 0.000000 0.000000 0.000000
# 3 -0.003789 -0.002318 0.011775 0.000000 0.000000 0.000000
# 4 0.000000 0.000000 0.000000 0.059808 0.000000 0.000000
# 5 0.000000 0.000000 0.000000 0.000000 0.035918 0.000000
# 6 0.000000 0.000000 0.000000 0.000000 0.000000 0.054528
#
#
# Mechanical properties :
#
#
# Convention : Reuss Voigt Hill
#
# Bulk Modulus (GPa) = 46.24784 51.83922 49.04353
# Shear Modulus (GPa) = 22.57888 24.65958 23.61923
#
# Velocity S-wave (km/s) = 3.37289 3.52487 3.44972
# Velocity P-wave (km/s) = 6.20246 6.53341 6.37009
#
# Compressibility (1/GPa) = 0.02162263
#
# Stress axis : x y z
#
# Youngs Moduli (GPa) = 86.54102 51.35267 84.92500
#
# Poissons Ratio (x) = 0.23024 0.32179
# Poissons Ratio (y) = 0.38800 0.19685
# Poissons Ratio (z) = 0.32791 0.11903
#
# Static dielectric constant tensor:
#      x y z
#    x 1.751350 0.000000 0.000000 
#    y 0.000000 1.729970 0.000000 
#    z 0.000000 0.000000 1.717390 
# 
# From -- ./inp_files/45928.got.cif
#   From: 2010.05.17/outbox.ucp.g08.bks.cvg/sg63_23_cif.got.tgz:45928.got - 2010.06.11 16:32:19.
