data_PCOD9476911
_publ_section_title
;
Structure prediction by ZEFSAII (Michael W. Deem and Ramdas Pophale) SiO2 
 PCOD9476911
Probable space group: C M C A
;
_chemical_formula_sum "Si O2"
_cell_formula_units_Z 88
_cell_length_a 9.574405
_cell_length_b 24.174862
_cell_length_c 20.681978
_cell_angle_alpha 90.000000
_cell_angle_beta 90.000000
_cell_angle_gamma 90.000000
_cell_volume 4787.048965
_symmetry_space_group_name_H-M "C M C A"
_symmetry_group_IT_number 64
_symmetry_cell_setting 'orthorhombic'
loop_
_space_group_symop_operation_xyz
x,y,z
-x,1/2-y,1/2+z
x,-y,-z
-x,1/2+y,1/2-z
-x,-y,-z
x,1/2+y,1/2-z
-x,y,z
x,1/2-y,1/2+z
1/2+x,1/2+y,z
1/2-x,-y,1/2+z
1/2+x,1/2-y,-z
1/2-x,y,1/2-z
1/2-x,1/2-y,-z
1/2+x,y,1/2-z
1/2-x,1/2+y,z
1/2+x,-y,1/2+z
loop_
_atom_site_type_symbol
_atom_site_label
_atom_site_fract_x
_atom_site_fract_y
_atom_site_fract_z
Si Si1 0.660752 0.822285 0.355283
Si Si2 0.831387 0.407041 0.460106
Si Si3 0.832352 0.797656 0.685926
Si Si4 0.842808 0.981462 0.367933
Si Si5 0.837574 0.398429 0.909065
Si Si6 0.750000 0.408859 0.250000
O O1 0.500000 0.810689 0.370048
O O2 0.717327 0.853344 0.418418
O O3 0.721443 0.763326 0.335063
O O4 0.667753 0.866697 0.296990
O O5 0.769004 0.457545 0.418468
O O6 0.763689 0.405143 0.530226
O O7 0.000000 0.409359 0.461838
O O8 0.750000 0.814023 0.750000
O O9 0.809356 0.842830 0.630520
O O10 0.000000 0.795050 0.698463
O O11 0.828234 0.948929 0.300359
O O12 0.000000 0.971325 0.393131
O O13 0.823502 0.047268 0.363931
O O14 0.000000 0.397050 0.930870
#
# Coordination Sequence:
#
# PCOD9476911 Si02
#       6
#    16  16  16  16  16   8
#     4   9  18  34  55  80 110 139 177 231 279 321
#     4  10  21  37  58  84 111 144 188 234 275 322
#     4  10  21  38  58  81 111 146 182 226 277 329
#     4  10  21  36  56  82 114 150 185 226 277 330
#     4  10  22  38  55  79 115 151 183 223 276 333
#     4  10  18  32  56  84 108 142 184 230 270 330
#
# _framework density 18.382932
#
# number of rings (size 3 to 8) (size 9 to 14) (size 15 to 20)
#    0.000    2.182    0.909    1.636    1.273    5.091 
#    0.000    0.909    0.000    0.000    0.000    0.000 
#    0.000    0.000    0.000    0.000    0.000    0.000 
#
# Total GULP energy -245195.926345 kJ/mol
# GULP energy per Si atom -5572.634690 kJ/mol
# Density = 1.834109 g / cm^3
# Si number density = 18.382932 Si / 1000 Ang^3
#
#
#
# Elastic Constant Matrix: (Units=GPa)
#
#
# Indices 1 2 3 4 5 6 
#
# 1 56.1574 37.8223 34.6949 0.0000 0.0000 0.0000
# 2 37.8223 101.1477 61.0478 0.0000 0.0000 0.0000
# 3 34.6949 61.0478 76.9959 0.0000 0.0000 0.0000
# 4 0.0000 0.0000 0.0000 16.9807 0.0000 0.0000
# 5 0.0000 0.0000 0.0000 0.0000 29.3677 0.0000
# 6 0.0000 0.0000 0.0000 0.0000 0.0000 27.3468
#
#
#
# Elastic Compliance Matrix: (Units=1/GPa)
#
#
# Indices 1 2 3 4 5 6 
#
# 1 0.025969 -0.005078 -0.007676 0.000000 0.000000 0.000000
# 2 -0.005078 0.019952 -0.013531 0.000000 0.000000 0.000000
# 3 -0.007676 -0.013531 0.027175 0.000000 0.000000 0.000000
# 4 0.000000 0.000000 0.000000 0.058890 0.000000 0.000000
# 5 0.000000 0.000000 0.000000 0.000000 0.034051 0.000000
# 6 0.000000 0.000000 0.000000 0.000000 0.000000 0.036567
#
#
# Mechanical properties :
#
#
# Convention : Reuss Voigt Hill
#
# Bulk Modulus (GPa) = 48.71775 55.71454 52.21615
# Shear Modulus (GPa) = 19.08267 21.45477 20.26872
#
# Velocity S-wave (km/s) = 3.22540 3.41999 3.32412
# Velocity P-wave (km/s) = 6.35846 6.78002 6.57262
#
# Compressibility (1/GPa) = 0.02052640
#
# Stress axis : x y z
#
# Youngs Moduli (GPa) = 38.50691 50.11967 36.79846
#
# Poissons Ratio (x) = 0.25451 0.28245
# Poissons Ratio (y) = 0.19554 0.49793
# Poissons Ratio (z) = 0.29557 0.67819
#
# Static dielectric constant tensor:
#      x y z
#    x 1.632710 0.000000 0.000000 
#    y 0.000000 1.666380 0.000000 
#    z 0.000000 0.000000 1.612400 
# 
# From -- ./inp_files/36756.got.cif
#   From: 2010.05.17/outbox.cif.g08.bks.cpg/sg64_19_cif.got.tgz:36756.got - 2010.06.03 16:29:19.
