data_PCOD9476176
_publ_section_title
;
Structure prediction by ZEFSAII (Michael W. Deem and Ramdas Pophale) SiO2 
 PCOD9476176
Probable space group: C M C M
;
_chemical_formula_sum "Si O2"
_cell_formula_units_Z 52
_cell_length_a 21.000000
_cell_length_b 27.000000
_cell_length_c 9.000000
_cell_angle_alpha 90.000000
_cell_angle_beta 90.000000
_cell_angle_gamma 90.000000
_cell_volume 5103.000000
_symmetry_space_group_name_H-M "C M C M"
_symmetry_group_IT_number 63
_symmetry_cell_setting 'orthorhombic'
loop_
_space_group_symop_operation_xyz
x,y,z
-x,-y,1/2+z
x,-y,-z
-x,y,1/2-z
-x,-y,-z
x,y,1/2-z
-x,y,z
x,-y,1/2+z
1/2+x,1/2+y,z
1/2-x,1/2-y,1/2+z
1/2+x,1/2-y,-z
1/2-x,1/2+y,1/2-z
1/2-x,1/2-y,-z
1/2+x,1/2+y,1/2-z
1/2-x,1/2+y,z
1/2+x,1/2-y,1/2+z
loop_
_atom_site_type_symbol
_atom_site_label
_atom_site_fract_x
_atom_site_fract_y
_atom_site_fract_z
Si Si1 0.318666 0.704778 0.078866
Si Si2 0.125990 0.949491 0.077492
Si Si3 0.742128 0.945555 0.570625
Si Si4 0.071412 0.846961 0.419702
Si Si5 0.621045 0.107070 0.926464
Si Si6 0.323063 0.807452 0.578362
Si Si7 0.500000 0.945436 0.929036
O O1 0.319116 0.721991 0.250000
O O2 0.251142 0.677245 0.059023
O O3 0.379576 0.672929 0.039194
O O4 0.321398 0.750233 0.965210
O O5 0.143335 0.959088 0.250000
O O6 0.074831 0.906274 0.073746
O O7 0.188530 0.930676 0.990068
O O8 0.105307 0.000000 0.000000
O O9 0.739660 0.945095 0.750000
O O10 0.684123 0.915864 0.499871
O O11 0.734474 0.000000 0.500000
O O12 0.091361 0.833607 0.250000
O O13 0.000000 0.828965 0.443208
O O14 0.618276 0.099147 0.750000
O O15 0.629369 0.164379 0.969588
O O16 0.561450 0.082871 0.008405
O O17 0.340551 0.815731 0.750000
O O18 0.500000 0.947789 0.750000
O O19 0.500000 0.000000 0.000000
#
# Coordination Sequence:
#
# PCOD9476176 Si02
#       7
#    16  16  16  16  16  16   8
#     4  10  21  38  62  92 121 152 194 246 300 356
#     4  10  20  35  56  83 115 151 194 245 295 346
#     4  11  21  35  56  84 116 151 193 241 295 350
#     4  10  22  39  57  80 114 157 199 237 287 349
#     4  12  24  40  61  89 121 156 199 247 298 355
#     4  10  21  39  64  92 121 153 192 242 301 359
#     4  12  26  46  66  88 122 164 208 252 305 366
#
# _framework density 10.190084000000001
#
# number of rings (size 3 to 8) (size 9 to 14) (size 15 to 20)
#    0.000    1.385    0.000    7.154    0.000    6.154 
#    1.385    0.000    0.000    0.000    0.000    0.000 
#    0.000    0.000    0.000    0.000    0.000    0.000 
#
# Total GULP energy -290326.252090 kJ/mol
# GULP energy per Si atom -5583.197156 kJ/mol
# Density = 1.016689 g / cm^3
# Si number density = 10.190084 Si / 1000 Ang^3
#
#
#
# Elastic Constant Matrix: (Units=GPa)
#
#
# Indices 1 2 3 4 5 6 
#
# 1 63.4263 32.5170 43.4746 0.0000 0.0000 0.0000
# 2 32.5170 44.6647 26.7288 0.0000 0.0000 0.0000
# 3 43.4746 26.7288 160.1928 0.0000 0.0000 0.0000
# 4 0.0000 0.0000 0.0000 34.6534 0.0000 0.0000
# 5 0.0000 0.0000 0.0000 0.0000 20.1373 0.0000
# 6 0.0000 0.0000 0.0000 0.0000 0.0000 12.2151
#
#
#
# Elastic Compliance Matrix: (Units=1/GPa)
#
#
# Indices 1 2 3 4 5 6 
#
# 1 0.027969 -0.017575 -0.004658 0.000000 0.000000 0.000000
# 2 -0.017575 0.035916 -0.001223 0.000000 0.000000 0.000000
# 3 -0.004658 -0.001223 0.007711 0.000000 0.000000 0.000000
# 4 0.000000 0.000000 0.000000 0.028857 0.000000 0.000000
# 5 0.000000 0.000000 0.000000 0.000000 0.049659 0.000000
# 6 0.000000 0.000000 0.000000 0.000000 0.000000 0.081866
#
#
# Mechanical properties :
#
#
# Convention : Reuss Voigt Hill
#
# Bulk Modulus (GPa) = 40.51230 52.63606 46.57418
# Shear Modulus (GPa) = 17.41444 24.43871 20.92658
#
# Velocity S-wave (km/s) = 2.92632 3.46662 3.20787
# Velocity P-wave (km/s) = 5.59815 6.47352 6.05168
#
# Compressibility (1/GPa) = 0.02468386
#
# Stress axis : x y z
#
# Youngs Moduli (GPa) = 35.75354 27.84293 129.68940
#
# Poissons Ratio (x) = 0.48933 0.60411
# Poissons Ratio (y) = 0.62836 0.15862
# Poissons Ratio (z) = 0.16655 0.03405
#
# Static dielectric constant tensor:
#      x y z
#    x 1.813010 0.000000 0.000000 
#    y 0.000000 1.818450 0.000000 
#    z 0.000000 0.000000 1.676730 
# 
# From -- ./inp_files/8724.got.cif
#   From: 2010.05.17/outbox.ucp.g08.bks.cvg/sg63_5_cif.got.tgz:8724.got - 2010.06.11 16:32:19.
