data_PCOD9476040
_publ_section_title
;
Structure prediction by ZEFSAII (Michael W. Deem and Ramdas Pophale) SiO2 
 PCOD9476040
Probable space group: C M C M
;
_chemical_formula_sum "Si O2"
_cell_formula_units_Z 44
_cell_length_a 21.000000
_cell_length_b 9.000000
_cell_length_c 24.000000
_cell_angle_alpha 90.000000
_cell_angle_beta 90.000000
_cell_angle_gamma 90.000000
_cell_volume 4536.000000
_symmetry_space_group_name_H-M "C M C M"
_symmetry_group_IT_number 63
_symmetry_cell_setting 'orthorhombic'
loop_
_space_group_symop_operation_xyz
x,y,z
-x,-y,1/2+z
x,-y,-z
-x,y,1/2-z
-x,-y,-z
x,y,1/2-z
-x,y,z
x,-y,1/2+z
1/2+x,1/2+y,z
1/2-x,1/2-y,1/2+z
1/2+x,1/2-y,-z
1/2-x,1/2+y,1/2-z
1/2-x,1/2-y,-z
1/2+x,1/2+y,1/2-z
1/2-x,1/2+y,z
1/2+x,1/2-y,1/2+z
loop_
_atom_site_type_symbol
_atom_site_label
_atom_site_fract_x
_atom_site_fract_y
_atom_site_fract_z
Si Si1 0.427537 0.565601 0.059846
Si Si2 0.896956 0.856217 0.250000
Si Si3 0.673252 0.248320 0.875305
Si Si4 0.146069 0.179208 0.250000
Si Si5 0.205283 0.634493 0.250000
Si Si6 0.430608 0.263269 0.372224
Si Si7 0.192242 0.579979 0.127433
O O1 0.500000 0.624005 0.055835
O O2 0.378106 0.681584 0.083797
O O3 0.427640 0.426009 0.101405
O O4 0.409486 0.500000 0.000000
O O5 0.822959 0.801465 0.250000
O O6 0.925761 0.788524 0.305841
O O7 0.898116 0.033347 0.250000
O O8 0.642910 0.250115 0.812255
O O9 0.739383 0.340943 0.876919
O O10 0.691406 0.084572 0.895264
O O11 0.219772 0.131998 0.250000
O O12 0.181809 0.561778 0.193897
O O13 0.500000 0.196677 0.385985
O O14 0.368514 0.174203 0.392054
#
# Coordination Sequence:
#
# PCOD9476040 Si02
#       7
#    16   8  16   8   8  16  16
#     4  10  22  41  62  82 109 148 191 236 286 341
#     4  10  17  32  51  84 112 145 191 225 278 334
#     4  11  21  36  57  86 119 148 189 234 277 336
#     4  10  19  27  54  81 117 147 183 225 273 330
#     4   8  19  27  49  79 119 154 181 220 266 338
#     4  10  20  37  58  82 114 151 189 230 282 339
#     4  10  21  34  57  86 119 154 188 231 282 334
#
# _framework density 9.7001760000000008
#
# number of rings (size 3 to 8) (size 9 to 14) (size 15 to 20)
#    0.000    2.000    1.818    1.909   12.727    0.727 
#    0.000    5.000    0.000    5.455    0.000    0.000 
#    0.000    0.000    0.000    0.000    0.000    0.000 
#
# Total GULP energy -245027.916212 kJ/mol
# GULP energy per Si atom -5568.816278 kJ/mol
# Density = 0.967810 g / cm^3
# Si number density = 9.700176 Si / 1000 Ang^3
#
#
#
# Elastic Constant Matrix: (Units=GPa)
#
#
# Indices 1 2 3 4 5 6 
#
# 1 9.5056 -14.4539 -6.1916 0.0000 0.0000 0.0000
# 2 -14.4539 42.1654 -5.5223 0.0000 0.0000 0.0000
# 3 -6.1916 -5.5223 28.4301 0.0000 0.0000 0.0000
# 4 0.0000 0.0000 0.0000 -43.6922 0.0000 0.0000
# 5 0.0000 0.0000 0.0000 0.0000 13.6872 0.0000
# 6 0.0000 0.0000 0.0000 0.0000 0.0000 25.2421
#
#
#
# Elastic Compliance Matrix: (Units=1/GPa)
#
#
# Indices 1 2 3 4 5 6 
#
# 1 0.456223 0.173824 0.133122 0.000000 0.000000 0.000000
# 2 0.173824 0.090563 0.055447 0.000000 0.000000 0.000000
# 3 0.133122 0.055447 0.074936 0.000000 0.000000 0.000000
# 4 0.000000 0.000000 0.000000 -0.022887 0.000000 0.000000
# 5 0.000000 0.000000 0.000000 0.000000 0.073061 0.000000
# 6 0.000000 0.000000 0.000000 0.000000 0.000000 0.039616
#
#
# Mechanical properties :
#
#
# Convention : Reuss Voigt Hill
#
# Bulk Modulus (GPa) = 0.74266 3.08505 1.91385
# Shear Modulus (GPa) = 11.47942 6.13202 8.80572
#
# Velocity S-wave (km/s) = 2.43515 1.77979 2.13279
# Velocity P-wave (km/s) = 2.87928 2.41188 2.65588
#
# Compressibility (1/GPa) = 1.34650695
#
# Stress axis : x y z
#
# Youngs Moduli (GPa) = 2.19191 11.04203 13.34473
#
# Poissons Ratio (x) = -1.91937 -1.77647
# Poissons Ratio (y) = -0.38101 -0.73993
# Poissons Ratio (z) = -0.29179 -0.61225
#
# Static dielectric constant tensor:
#      x y z
#    x 1.686820 0.000000 0.000000 
#    y 0.000000 1.711940 0.000000 
#    z 0.000000 0.000000 1.559400 
# 
# From -- ./inp_files/64443.got.cif
#   From: 2010.05.17/outbox.ucp.g08.bks.cvg/sg63_33_cif.got.tgz:64443.got - 2010.06.11 16:32:19.
