data_PCOD9476568
_publ_section_title
;
Structure prediction by ZEFSAII (Michael W. Deem and Ramdas Pophale) SiO2 
 PCOD9476568
Probable space group: C M C A
;
_chemical_formula_sum "Si O2"
_cell_formula_units_Z 96
_cell_length_a 14.538879
_cell_length_b 28.849119
_cell_length_c 10.938949
_cell_angle_alpha 90.000000
_cell_angle_beta 90.000000
_cell_angle_gamma 90.000000
_cell_volume 4588.165498
_symmetry_space_group_name_H-M "C M C A"
_symmetry_group_IT_number 64
_symmetry_cell_setting 'orthorhombic'
loop_
_space_group_symop_operation_xyz
x,y,z
-x,1/2-y,1/2+z
x,-y,-z
-x,1/2+y,1/2-z
-x,-y,-z
x,1/2+y,1/2-z
-x,y,z
x,1/2-y,1/2+z
1/2+x,1/2+y,z
1/2-x,-y,1/2+z
1/2+x,1/2-y,-z
1/2-x,y,1/2-z
1/2-x,1/2-y,-z
1/2+x,y,1/2-z
1/2-x,1/2+y,z
1/2+x,-y,1/2+z
loop_
_atom_site_type_symbol
_atom_site_label
_atom_site_fract_x
_atom_site_fract_y
_atom_site_fract_z
Si Si1 0.606683 0.217817 0.300362
Si Si2 0.105153 0.884167 0.481922
Si Si3 0.386884 0.779542 0.976419
Si Si4 0.859236 0.887471 0.763411
Si Si5 0.653913 0.522492 0.618463
Si Si6 0.137182 0.985350 0.869192
O O1 0.500000 0.232497 0.295166
O O2 0.643976 0.243026 0.421154
O O3 0.609586 0.162242 0.311882
O O4 0.645490 0.228011 0.163934
O O5 0.139615 0.831258 0.479375
O O6 0.104191 0.895435 0.626532
O O7 0.162196 0.923081 0.410703
O O8 0.000000 0.885953 0.436356
O O9 0.500000 0.779922 0.969694
O O10 0.750000 0.885145 0.750000
O O11 0.880921 0.931457 0.845781
O O12 0.606270 0.500000 0.500000
O O13 0.752831 0.496716 0.625065
O O14 0.607061 0.512609 0.747741
O O15 0.100564 0.000000 0.000000
#
# Coordination Sequence:
#
# PCOD9476568 Si02
#       6
#    16  16  16  16  16  16
#     4   9  18  34  57  78 100 139 180 219 266 324
#     4  10  20  35  59  84 105 140 194 234 259 314
#     4   8  16  33  55  77 105 136 174 221 272 319
#     4  11  18  34  56  79 109 147 180 219 273 328
#     4  10  17  33  54  77 100 139 185 221 260 319
#     4  10  19  33  52  74 108 144 180 214 274 332
#
# _framework density 20.923393999999998
#
# number of rings (size 3 to 8) (size 9 to 14) (size 15 to 20)
#    0.000    2.333    3.333    2.500    0.000    0.333 
#    3.000    3.333    3.667    3.500    0.000    0.000 
#    0.000    0.000    0.000    0.000    0.000    0.000 
#
# Total GULP energy -267709.121285 kJ/mol
# GULP energy per Si atom -5577.273360 kJ/mol
# Density = 2.087577 g / cm^3
# Si number density = 20.923394 Si / 1000 Ang^3
#
#
#
# Elastic Constant Matrix: (Units=GPa)
#
#
# Indices 1 2 3 4 5 6 
#
# 1 51.3325 -3.7712 1.2400 0.0000 0.0000 0.0000
# 2 -3.7712 141.3605 110.1096 0.0000 0.0000 0.0000
# 3 1.2400 110.1096 190.2503 0.0000 0.0000 0.0000
# 4 0.0000 0.0000 0.0000 48.7867 0.0000 0.0000
# 5 0.0000 0.0000 0.0000 0.0000 2.1388 0.0000
# 6 0.0000 0.0000 0.0000 0.0000 0.0000 30.4374
#
#
#
# Elastic Compliance Matrix: (Units=1/GPa)
#
#
# Indices 1 2 3 4 5 6 
#
# 1 0.019583 0.001132 -0.000783 0.000000 0.000000 0.000000
# 2 0.001132 0.012947 -0.007500 0.000000 0.000000 0.000000
# 3 -0.000783 -0.007500 0.009602 0.000000 0.000000 0.000000
# 4 0.000000 0.000000 0.000000 0.020497 0.000000 0.000000
# 5 0.000000 0.000000 0.000000 0.000000 0.467560 0.000000
# 6 0.000000 0.000000 0.000000 0.000000 0.000000 0.032854
#
#
# Mechanical properties :
#
#
# Convention : Reuss Voigt Hill
#
# Bulk Modulus (GPa) = 35.93280 66.45556 51.19418
# Shear Modulus (GPa) = 8.52337 34.63023 21.57680
#
# Velocity S-wave (km/s) = 2.02051 4.07270 3.21476
# Velocity P-wave (km/s) = 4.75963 7.34481 6.18871
#
# Compressibility (1/GPa) = 0.02782973
#
# Stress axis : x y z
#
# Youngs Moduli (GPa) = 51.06483 77.24065 104.14225
#
# Poissons Ratio (x) = -0.08746 0.08154
# Poissons Ratio (y) = -0.05782 0.78110
# Poissons Ratio (z) = 0.03998 0.57933
#
# Static dielectric constant tensor:
#      x y z
#    x 1.735330 0.000000 0.000000 
#    y 0.000000 1.741830 0.000000 
#    z 0.000000 0.000000 1.773810 
# 
# From -- ./inp_files/16322.got.cif
#   From: 2010.05.17/outbox.cif.g08.bks.cpg/sg64_9_cif.got.tgz:16322.got - 2010.06.03 16:29:19.
