data_PCOD9476930
_publ_section_title
;
Structure prediction by ZEFSAII (Michael W. Deem and Ramdas Pophale) SiO2 
 PCOD9476930
Probable space group: C M C A
;
_chemical_formula_sum "Si O2"
_cell_formula_units_Z 72
_cell_length_a 15.523656
_cell_length_b 9.473484
_cell_length_c 22.074769
_cell_angle_alpha 90.000000
_cell_angle_beta 90.000000
_cell_angle_gamma 90.000000
_cell_volume 3246.384110
_symmetry_space_group_name_H-M "C M C A"
_symmetry_group_IT_number 64
_symmetry_cell_setting 'orthorhombic'
loop_
_space_group_symop_operation_xyz
x,y,z
-x,1/2-y,1/2+z
x,-y,-z
-x,1/2+y,1/2-z
-x,-y,-z
x,1/2+y,1/2-z
-x,y,z
x,1/2-y,1/2+z
1/2+x,1/2+y,z
1/2-x,-y,1/2+z
1/2+x,1/2-y,-z
1/2-x,y,1/2-z
1/2-x,1/2-y,-z
1/2+x,y,1/2-z
1/2-x,1/2+y,z
1/2+x,-y,1/2+z
loop_
_atom_site_type_symbol
_atom_site_label
_atom_site_fract_x
_atom_site_fract_y
_atom_site_fract_z
Si Si1 0.151330 0.132305 0.775856
Si Si2 0.595704 0.359834 0.425081
Si Si3 0.265964 0.000000 0.000000
Si Si4 0.815126 0.906842 0.875862
Si Si5 0.625168 0.083289 0.173395
O O1 0.250000 0.156980 0.750000
O O2 0.100266 0.272517 0.793673
O O3 0.150314 0.034987 0.835786
O O4 0.112924 0.037793 0.722741
O O5 0.500000 0.331639 0.448651
O O6 0.668853 0.379182 0.475885
O O7 0.627036 0.232411 0.381789
O O8 0.593999 0.507878 0.387972
O O9 0.208146 0.043829 0.056570
O O10 0.724185 0.877626 0.843177
#
# Coordination Sequence:
#
# PCOD9476930 Si02
#       5
#    16  16   8  16  16
#     4  10  18  32  58  90 117 147 197 250 286 335
#     4  11  23  39  58  87 123 157 193 243 299 351
#     4  10  21  38  63  88 112 154 206 248 289 346
#     4  10  20  36  60  87 114 152 201 246 289 345
#     4  10  19  34  58  85 116 154 195 237 286 348
#
# _framework density 22.178519999999999
#
# number of rings (size 3 to 8) (size 9 to 14) (size 15 to 20)
#    0.000    1.778    0.000    8.333    0.000    1.778 
#    0.000    6.111    0.000    0.000    0.000    0.000 
#    0.000    0.000    0.000    0.000    0.000    0.000 
#
# Total GULP energy -200832.114259 kJ/mol
# GULP energy per Si atom -5578.669841 kJ/mol
# Density = 2.212804 g / cm^3
# Si number density = 22.178520 Si / 1000 Ang^3
#
#
#
# Elastic Constant Matrix: (Units=GPa)
#
#
# Indices 1 2 3 4 5 6 
#
# 1 35.2765 5.0536 -8.9153 0.0000 0.0000 0.0000
# 2 5.0536 73.8583 30.6534 0.0000 0.0000 0.0000
# 3 -8.9153 30.6534 127.0644 0.0000 0.0000 0.0000
# 4 0.0000 0.0000 0.0000 35.4568 0.0000 0.0000
# 5 0.0000 0.0000 0.0000 0.0000 -15.9310 0.0000
# 6 0.0000 0.0000 0.0000 0.0000 0.0000 -28.0682
#
#
#
# Elastic Compliance Matrix: (Units=1/GPa)
#
#
# Indices 1 2 3 4 5 6 
#
# 1 0.029525 -0.003200 0.002844 0.000000 0.000000 0.000000
# 2 -0.003200 0.015393 -0.003938 0.000000 0.000000 0.000000
# 3 0.002844 -0.003938 0.009020 0.000000 0.000000 0.000000
# 4 0.000000 0.000000 0.000000 0.028203 0.000000 0.000000
# 5 0.000000 0.000000 0.000000 0.000000 -0.062771 0.000000
# 6 0.000000 0.000000 0.000000 0.000000 0.000000 -0.035628
#
#
# Mechanical properties :
#
#
# Convention : Reuss Voigt Hill
#
# Bulk Modulus (GPa) = 22.05192 32.19808 27.12500
# Shear Modulus (GPa) = 671.39932 12.25203 341.82567
#
# Velocity S-wave (km/s) = 17.41787 2.35293 12.42816
# Velocity P-wave (km/s) = 20.35864 4.68304 14.77168
#
# Compressibility (1/GPa) = 0.04534753
#
# Stress axis : x y z
#
# Youngs Moduli (GPa) = 33.87008 64.96553 110.87036
#
# Poissons Ratio (x) = 0.20791 -0.31527
# Poissons Ratio (y) = 0.10840 0.43660
# Poissons Ratio (z) = -0.09631 0.25583
#
# Static dielectric constant tensor:
#      x y z
#    x 1.872110 0.000000 0.000000 
#    y 0.000000 1.860500 0.000000 
#    z 0.000000 0.000000 1.819730 
# 
# From -- ./inp_files/45627.got.cif
#   From: 2010.05.17/outbox.cif.g08.bks.cpg/sg64_23_cif.got.tgz:45627.got - 2010.06.03 16:29:19.
