data_PCOD9476886
_publ_section_title
;
Structure prediction by ZEFSAII (Michael W. Deem and Ramdas Pophale) SiO2 
 PCOD9476886
Probable space group: C M C A
;
_chemical_formula_sum "Si O2"
_cell_formula_units_Z 80
_cell_length_a 15.613907
_cell_length_b 28.645260
_cell_length_c 8.547528
_cell_angle_alpha 90.000000
_cell_angle_beta 90.000000
_cell_angle_gamma 90.000000
_cell_volume 3823.005201
_symmetry_space_group_name_H-M "C M C A"
_symmetry_group_IT_number 64
_symmetry_cell_setting 'orthorhombic'
loop_
_space_group_symop_operation_xyz
x,y,z
-x,1/2-y,1/2+z
x,-y,-z
-x,1/2+y,1/2-z
-x,-y,-z
x,1/2+y,1/2-z
-x,y,z
x,1/2-y,1/2+z
1/2+x,1/2+y,z
1/2-x,-y,1/2+z
1/2+x,1/2-y,-z
1/2-x,y,1/2-z
1/2-x,1/2-y,-z
1/2+x,y,1/2-z
1/2-x,1/2+y,z
1/2+x,-y,1/2+z
loop_
_atom_site_type_symbol
_atom_site_label
_atom_site_fract_x
_atom_site_fract_y
_atom_site_fract_z
Si Si1 0.238581 0.548608 0.936215
Si Si2 0.895881 0.715371 0.950004
Si Si3 0.603940 0.689846 0.897443
Si Si4 0.096459 0.592294 0.446654
Si Si5 0.165549 0.128550 0.357381
O O1 0.250000 0.548973 0.750000
O O2 0.201288 0.500000 0.000000
O O3 0.332166 0.554455 0.015378
O O4 0.184696 0.592186 0.003284
O O5 0.867051 0.767596 0.993012
O O6 0.864107 0.677699 0.074706
O O7 0.000000 0.715047 0.951626
O O8 0.866816 0.699991 0.778145
O O9 0.500000 0.691125 0.897651
O O10 0.625944 0.638967 0.960123
O O11 0.099114 0.606304 0.264775
O O12 0.000000 0.579988 0.493821
O O13 0.250000 0.133580 0.250000
#
# Coordination Sequence:
#
# PCOD9476886 Si02
#       5
#    16  16  16  16  16
#     4  11  23  42  63  83 112 148 184 228 287 343
#     4  10  18  32  53  77 109 148 189 227 271 329
#     4   9  18  31  52  81 111 146 183 226 276 323
#     4  10  20  37  60  86 115 147 189 234 276 329
#     4  10  21  36  55  81 110 146 185 227 282 334
#
# _framework density 20.925947000000001
#
# number of rings (size 3 to 8) (size 9 to 14) (size 15 to 20)
#    0.000    2.000    0.000    4.800    0.000    3.600 
#    0.000   11.000    0.000    4.200    0.000    0.000 
#    0.000    0.000    0.000    0.000    0.000    0.000 
#
# Total GULP energy -223526.756808 kJ/mol
# GULP energy per Si atom -5588.168920 kJ/mol
# Density = 2.087832 g / cm^3
# Si number density = 20.925947 Si / 1000 Ang^3
#
#
#
# Elastic Constant Matrix: (Units=GPa)
#
#
# Indices 1 2 3 4 5 6 
#
# 1 32.5001 -6.6513 -15.9070 0.0000 0.0000 0.0000
# 2 -6.6513 55.2674 -6.0563 0.0000 0.0000 0.0000
# 3 -15.9070 -6.0563 96.6285 0.0000 0.0000 0.0000
# 4 0.0000 0.0000 0.0000 33.0377 0.0000 0.0000
# 5 0.0000 0.0000 0.0000 0.0000 15.6438 0.0000
# 6 0.0000 0.0000 0.0000 0.0000 0.0000 20.5727
#
#
#
# Elastic Compliance Matrix: (Units=1/GPa)
#
#
# Indices 1 2 3 4 5 6 
#
# 1 0.034703 0.004836 0.006016 0.000000 0.000000 0.000000
# 2 0.004836 0.018893 0.001980 0.000000 0.000000 0.000000
# 3 0.006016 0.001980 0.011463 0.000000 0.000000 0.000000
# 4 0.000000 0.000000 0.000000 0.030268 0.000000 0.000000
# 5 0.000000 0.000000 0.000000 0.000000 0.063923 0.000000
# 6 0.000000 0.000000 0.000000 0.000000 0.000000 0.048608
#
#
# Mechanical properties :
#
#
# Convention : Reuss Voigt Hill
#
# Bulk Modulus (GPa) = 11.02258 14.12966 12.57612
# Shear Modulus (GPa) = 23.53644 28.05155 25.79400
#
# Velocity S-wave (km/s) = 3.35737 3.66528 3.51470
# Velocity P-wave (km/s) = 4.50645 4.96782 4.74275
#
# Compressibility (1/GPa) = 0.09072290
#
# Stress axis : x y z
#
# Youngs Moduli (GPa) = 28.81579 52.93024 87.23442
#
# Poissons Ratio (x) = -0.25595 -0.52480
# Poissons Ratio (y) = -0.13934 -0.17274
# Poissons Ratio (z) = -0.17335 -0.10481
#
# Static dielectric constant tensor:
#      x y z
#    x 1.792070 0.000000 0.000000 
#    y 0.000000 1.713320 0.000000 
#    z 0.000000 0.000000 1.740260 
# 
# From -- ./inp_files/7010.got.cif
#   From: 2010.05.17/outbox.cif.g08.bks.cpg/sg64_4_cif.got.tgz:7010.got - 2010.06.03 16:29:19.
