data_PCOD9476549
_publ_section_title
;
Structure prediction by ZEFSAII (Michael W. Deem and Ramdas Pophale) SiO2 
 PCOD9476549
Probable space group: C M C A
;
_chemical_formula_sum "Si O2"
_cell_formula_units_Z 112
_cell_length_a 17.593506
_cell_length_b 22.712777
_cell_length_c 17.528739
_cell_angle_alpha 90.000000
_cell_angle_beta 90.000000
_cell_angle_gamma 90.000000
_cell_volume 7004.438152
_symmetry_space_group_name_H-M "C M C A"
_symmetry_group_IT_number 64
_symmetry_cell_setting 'orthorhombic'
loop_
_space_group_symop_operation_xyz
x,y,z
-x,1/2-y,1/2+z
x,-y,-z
-x,1/2+y,1/2-z
-x,-y,-z
x,1/2+y,1/2-z
-x,y,z
x,1/2-y,1/2+z
1/2+x,1/2+y,z
1/2-x,-y,1/2+z
1/2+x,1/2-y,-z
1/2-x,y,1/2-z
1/2-x,1/2-y,-z
1/2+x,y,1/2-z
1/2-x,1/2+y,z
1/2+x,-y,1/2+z
loop_
_atom_site_type_symbol
_atom_site_label
_atom_site_fract_x
_atom_site_fract_y
_atom_site_fract_z
Si Si1 0.176688 0.854381 0.805412
Si Si2 0.303685 0.208121 0.675428
Si Si3 0.410358 0.414944 0.684409
Si Si4 0.410367 0.230608 0.798282
Si Si5 0.317123 0.647245 0.589380
Si Si6 0.411387 0.529234 0.583430
Si Si7 0.199894 0.668362 0.088183
O O1 0.250000 0.847381 0.750000
O O2 0.127874 0.906195 0.767277
O O3 0.124915 0.796247 0.802324
O O4 0.218809 0.859472 0.886291
O O5 0.250000 0.216626 0.750000
O O6 0.384914 0.203845 0.716194
O O7 0.265173 0.155085 0.629343
O O8 0.300710 0.265455 0.621676
O O9 0.500000 0.402187 0.687102
O O10 0.400019 0.478778 0.646718
O O11 0.366769 0.368602 0.629630
O O12 0.500000 0.232293 0.806233
O O13 0.371721 0.191716 0.864229
O O14 0.354357 0.583120 0.593812
O O15 0.311018 0.665974 0.501637
O O16 0.400662 0.500000 0.500000
O O17 0.500000 0.549026 0.587007
#
# Coordination Sequence:
#
# PCOD9476549 Si02
#       7
#    16  16  16  16  16  16  16
#     4  10  17  32  50  75 104 139 183 219 266 319
#     4  10  18  34  50  74 106 144 180 221 266 325
#     4  10  19  32  55  78 106 145 181 223 266 318
#     4  11  20  33  52  75 107 143 178 221 273 329
#     4  11  21  33  55  77 108 146 178 221 279 322
#     4  10  20  35  51  78 114 143 179 224 272 321
#     4  11  18  32  54  75 107 138 180 222 273 320
#
# _framework density 15.989862
#
# number of rings (size 3 to 8) (size 9 to 14) (size 15 to 20)
#    0.000    1.571    7.143    1.286    0.000    0.571 
#    0.000    6.429    0.000    0.000    0.000    0.000 
#    0.000    0.571    0.000    5.286    0.000    0.000 
#
# Total GULP energy -311920.394805 kJ/mol
# GULP energy per Si atom -5570.007050 kJ/mol
# Density = 1.595347 g / cm^3
# Si number density = 15.989862 Si / 1000 Ang^3
#
#
#
# Elastic Constant Matrix: (Units=GPa)
#
#
# Indices 1 2 3 4 5 6 
#
# 1 101.4640 38.6465 53.3503 0.0000 0.0000 0.0000
# 2 38.6465 75.4995 46.5428 0.0000 0.0000 0.0000
# 3 53.3503 46.5428 96.5276 0.0000 0.0000 0.0000
# 4 0.0000 0.0000 0.0000 21.3137 0.0000 0.0000
# 5 0.0000 0.0000 0.0000 0.0000 21.4603 0.0000
# 6 0.0000 0.0000 0.0000 0.0000 0.0000 26.6395
#
#
#
# Elastic Compliance Matrix: (Units=1/GPa)
#
#
# Indices 1 2 3 4 5 6 
#
# 1 0.014529 -0.003538 -0.006324 0.000000 0.000000 0.000000
# 2 -0.003538 0.019709 -0.007547 0.000000 0.000000 0.000000
# 3 -0.006324 -0.007547 0.017494 0.000000 0.000000 0.000000
# 4 0.000000 0.000000 0.000000 0.046918 0.000000 0.000000
# 5 0.000000 0.000000 0.000000 0.000000 0.046598 0.000000
# 6 0.000000 0.000000 0.000000 0.000000 0.000000 0.037538
#
#
# Mechanical properties :
#
#
# Convention : Reuss Voigt Hill
#
# Bulk Modulus (GPa) = 59.12841 61.17448 60.15145
# Shear Modulus (GPa) = 22.39718 22.87947 22.63833
#
# Velocity S-wave (km/s) = 3.74667 3.78679 3.76678
# Velocity P-wave (km/s) = 7.46831 7.58031 7.52452
#
# Compressibility (1/GPa) = 0.01691234
#
# Stress axis : x y z
#
# Youngs Moduli (GPa) = 68.83013 50.73789 57.16259
#
# Poissons Ratio (x) = 0.17954 0.36148
# Poissons Ratio (y) = 0.24356 0.43143
# Poissons Ratio (z) = 0.43526 0.38294
#
# Static dielectric constant tensor:
#      x y z
#    x 1.561270 0.000000 0.000000 
#    y 0.000000 1.532460 0.000000 
#    z 0.000000 0.000000 1.565670 
# 
# From -- ./inp_files/33594.got.cif
#   From: 2010.05.17/outbox.cif.g08.bks.cpg/sg64_17_cif.got.tgz:33594.got - 2010.06.03 16:29:19.
