data_PCOD9476382
_publ_section_title
;
Structure prediction by ZEFSAII (Michael W. Deem and Ramdas Pophale) SiO2 
 PCOD9476382
Probable space group: C M C A
;
_chemical_formula_sum "Si O2"
_cell_formula_units_Z 96
_cell_length_a 14.877930
_cell_length_b 17.686033
_cell_length_c 18.149298
_cell_angle_alpha 90.000000
_cell_angle_beta 90.000000
_cell_angle_gamma 90.000000
_cell_volume 4775.653113
_symmetry_space_group_name_H-M "C M C A"
_symmetry_group_IT_number 64
_symmetry_cell_setting 'orthorhombic'
loop_
_space_group_symop_operation_xyz
x,y,z
-x,1/2-y,1/2+z
x,-y,-z
-x,1/2+y,1/2-z
-x,-y,-z
x,1/2+y,1/2-z
-x,y,z
x,1/2-y,1/2+z
1/2+x,1/2+y,z
1/2-x,-y,1/2+z
1/2+x,1/2-y,-z
1/2-x,y,1/2-z
1/2-x,1/2-y,-z
1/2+x,y,1/2-z
1/2-x,1/2+y,z
1/2+x,-y,1/2+z
loop_
_atom_site_type_symbol
_atom_site_label
_atom_site_fract_x
_atom_site_fract_y
_atom_site_fract_z
Si Si1 0.779263 0.199876 0.668708
Si Si2 0.662045 0.608419 0.444148
Si Si3 0.096544 0.004064 0.089194
Si Si4 0.699593 0.452857 0.392197
Si Si5 0.596421 0.270391 0.078303
Si Si6 0.138767 0.330057 0.582637
O O1 0.750000 0.221965 0.750000
O O2 0.816556 0.114387 0.664857
O O3 0.687346 0.204295 0.619867
O O4 0.851782 0.258157 0.635512
O O5 0.652868 0.535142 0.391699
O O6 0.668210 0.580687 0.528629
O O7 0.599243 0.679474 0.430463
O O8 0.759612 0.643516 0.430696
O O9 0.095656 0.092574 0.110802
O O10 0.000000 0.970358 0.112704
O O11 0.192583 0.969085 0.110941
O O12 0.098644 0.000000 0.000000
O O13 0.500000 0.291421 0.112326
O O14 0.601156 0.305266 0.996334
#
# Coordination Sequence:
#
# PCOD9476382 Si02
#       6
#    16  16  16  16  16  16
#     4  11  22  37  58  80 112 156 193 226 284 358
#     4   9  16  31  54  79 109 138 182 230 272 332
#     4  10  17  27  51  86 112 134 175 243 295 311
#     4  10  16  32  53  77 111 145 186 227 270 344
#     4  11  20  34  58  86 111 140 187 243 287 329
#     4  10  17  34  56  83 111 141 185 231 280 339
#
# _framework density 20.101962
#
# number of rings (size 3 to 8) (size 9 to 14) (size 15 to 20)
#    0.000    1.833    6.667    1.500    0.000    2.000 
#    0.000   10.833    0.000    0.000    0.000    0.000 
#    0.000    0.000    0.000    0.000    0.000    0.000 
#
# Total GULP energy -267328.567215 kJ/mol
# GULP energy per Si atom -5569.345150 kJ/mol
# Density = 2.005621 g / cm^3
# Si number density = 20.101962 Si / 1000 Ang^3
#
#
#
# Elastic Constant Matrix: (Units=GPa)
#
#
# Indices 1 2 3 4 5 6 
#
# 1 46.2883 14.4541 -4.9027 0.0000 0.0000 0.0000
# 2 14.4541 133.4369 3.4462 0.0000 0.0000 0.0000
# 3 -4.9027 3.4462 37.0396 0.0000 0.0000 0.0000
# 4 0.0000 0.0000 0.0000 5.2665 0.0000 0.0000
# 5 0.0000 0.0000 0.0000 0.0000 -28.0425 0.0000
# 6 0.0000 0.0000 0.0000 0.0000 0.0000 -18.2109
#
#
#
# Elastic Compliance Matrix: (Units=1/GPa)
#
#
# Indices 1 2 3 4 5 6 
#
# 1 0.022743 -0.002547 0.003247 0.000000 0.000000 0.000000
# 2 -0.002547 0.007798 -0.001063 0.000000 0.000000 0.000000
# 3 0.003247 -0.001063 0.027527 0.000000 0.000000 0.000000
# 4 0.000000 0.000000 0.000000 0.189879 0.000000 0.000000
# 5 0.000000 0.000000 0.000000 0.000000 -0.035660 0.000000
# 6 0.000000 0.000000 0.000000 0.000000 0.000000 -0.054912
#
#
# Mechanical properties :
#
#
# Convention : Reuss Voigt Hill
#
# Bulk Modulus (GPa) = 17.43919 26.97333 22.20626
# Shear Modulus (GPa) = 28.21447 5.38710 16.80078
#
# Velocity S-wave (km/s) = 3.75049 1.63881 2.89412
# Velocity P-wave (km/s) = 5.23919 4.12654 4.71579
#
# Compressibility (1/GPa) = 0.05734211
#
# Stress axis : x y z
#
# Youngs Moduli (GPa) = 43.96926 128.24511 36.32818
#
# Poissons Ratio (x) = 0.32670 -0.11797
# Poissons Ratio (y) = 0.11201 0.03861
# Poissons Ratio (z) = -0.14279 0.13629
#
# Static dielectric constant tensor:
#      x y z
#    x 1.764500 0.000000 0.000000 
#    y 0.000000 1.790930 0.000000 
#    z 0.000000 0.000000 1.682370 
# 
# From -- ./inp_files/33313.got.cif
#   From: 2010.05.17/outbox.cif.g08.bks.cpg/sg64_17_cif.got.tgz:33313.got - 2010.06.03 16:29:19.
