data_PCOD9476407
_publ_section_title
;
Structure prediction by ZEFSAII (Michael W. Deem and Ramdas Pophale) SiO2 
 PCOD9476407
Probable space group: C M C A
;
_chemical_formula_sum "Si O2"
_cell_formula_units_Z 104
_cell_length_a 19.493200
_cell_length_b 7.806575
_cell_length_c 29.338583
_cell_angle_alpha 90.000000
_cell_angle_beta 90.000000
_cell_angle_gamma 90.000000
_cell_volume 4464.602617
_symmetry_space_group_name_H-M "C M C A"
_symmetry_group_IT_number 64
_symmetry_cell_setting 'orthorhombic'
loop_
_space_group_symop_operation_xyz
x,y,z
-x,1/2-y,1/2+z
x,-y,-z
-x,1/2+y,1/2-z
-x,-y,-z
x,1/2+y,1/2-z
-x,y,z
x,1/2-y,1/2+z
1/2+x,1/2+y,z
1/2-x,-y,1/2+z
1/2+x,1/2-y,-z
1/2-x,y,1/2-z
1/2-x,1/2-y,-z
1/2+x,y,1/2-z
1/2-x,1/2+y,z
1/2+x,-y,1/2+z
loop_
_atom_site_type_symbol
_atom_site_label
_atom_site_fract_x
_atom_site_fract_y
_atom_site_fract_z
Si Si1 0.500000 0.676876 0.118375
Si Si2 0.081016 0.312673 0.455947
Si Si3 0.859159 0.190026 0.366063
Si Si4 0.421550 0.458573 0.721387
Si Si5 0.375893 0.206049 0.447081
Si Si6 0.778568 0.164279 0.624130
Si Si7 0.116203 0.333813 0.686774
O O1 0.561235 0.759779 0.085877
O O2 0.439029 0.593882 0.151129
O O3 0.092764 0.209993 0.409706
O O4 0.112298 0.230768 0.501458
O O5 0.114553 0.500315 0.449923
O O6 0.000000 0.342819 0.462591
O O7 0.897888 0.168668 0.318571
O O8 0.802204 0.337746 0.368397
O O9 0.813743 0.019317 0.371851
O O10 0.500000 0.422451 0.733836
O O11 0.377468 0.439454 0.766999
O O12 0.416393 0.649214 0.701221
O O13 0.304752 0.260233 0.424105
O O14 0.813500 0.282799 0.662664
#
# Coordination Sequence:
#
# PCOD9476407 Si02
#       7
#     8  16  16  16  16  16  16
#     4  10  16  35  58  91 120 159 188 251 290 373
#     4  11  21  40  62 101 124 165 201 263 304 384
#     4  11  25  42  63  86 133 158 222 252 313 366
#     4  11  21  40  60  95 122 161 196 262 302 378
#     4  10  20  38  67  89 129 157 211 247 318 365
#     4  10  24  44  62  91 118 178 205 265 306 371
#     4  10  22  37  64  87 127 157 206 246 313 358
#
# _framework density 23.294346000000001
#
# number of rings (size 3 to 8) (size 9 to 14) (size 15 to 20)
#    0.000    1.538    3.077    1.846    0.000    5.538 
#    4.154    3.846    0.000    0.000    0.000    0.000 
#    0.000    0.000    0.000    0.000    0.000    0.000 
#
# Total GULP energy -289864.517786 kJ/mol
# GULP energy per Si atom -5574.317650 kJ/mol
# Density = 2.324133 g / cm^3
# Si number density = 23.294346 Si / 1000 Ang^3
#
#
#
# Elastic Constant Matrix: (Units=GPa)
#
#
# Indices 1 2 3 4 5 6 
#
# 1 34.7318 -4.4723 -6.3621 0.0000 0.0000 0.0000
# 2 -4.4723 55.0717 6.6886 0.0000 0.0000 0.0000
# 3 -6.3621 6.6886 97.4048 0.0000 0.0000 0.0000
# 4 0.0000 0.0000 0.0000 15.7134 0.0000 0.0000
# 5 0.0000 0.0000 0.0000 0.0000 22.1600 0.0000
# 6 0.0000 0.0000 0.0000 0.0000 0.0000 18.3720
#
#
#
# Elastic Compliance Matrix: (Units=1/GPa)
#
#
# Indices 1 2 3 4 5 6 
#
# 1 0.029396 0.002172 0.001771 0.000000 0.000000 0.000000
# 2 0.002172 0.018471 -0.001127 0.000000 0.000000 0.000000
# 3 0.001771 -0.001127 0.010459 0.000000 0.000000 0.000000
# 4 0.000000 0.000000 0.000000 0.063640 0.000000 0.000000
# 5 0.000000 0.000000 0.000000 0.000000 0.045126 0.000000
# 6 0.000000 0.000000 0.000000 0.000000 0.000000 0.054431
#
#
# Mechanical properties :
#
#
# Convention : Reuss Voigt Hill
#
# Bulk Modulus (GPa) = 15.63478 19.87963 17.75720
# Shear Modulus (GPa) = 21.07832 24.00605 22.54219
#
# Velocity S-wave (km/s) = 3.01137 3.21370 3.11418
# Velocity P-wave (km/s) = 4.33792 4.72474 4.53545
#
# Compressibility (1/GPa) = 0.06395998
#
# Stress axis : x y z
#
# Youngs Moduli (GPa) = 34.01810 54.13792 95.60725
#
# Poissons Ratio (x) = -0.11760 -0.16931
# Poissons Ratio (y) = -0.07389 0.10770
# Poissons Ratio (z) = -0.06024 0.06099
#
# Static dielectric constant tensor:
#      x y z
#    x 1.848550 0.000000 0.000000 
#    y 0.000000 1.971580 0.000000 
#    z 0.000000 0.000000 1.967820 
# 
# From -- ./inp_files/53762.got.cif
#   From: 2010.05.17/outbox.cif.g08.bks.cpg/sg64_27_cif.got.tgz:53762.got - 2010.06.03 16:29:19.
