data_PCOD9476733
_publ_section_title
;
Structure prediction by ZEFSAII (Michael W. Deem and Ramdas Pophale) SiO2 
 PCOD9476733
Probable space group: C M C A
;
_chemical_formula_sum "Si O2"
_cell_formula_units_Z 96
_cell_length_a 8.722066
_cell_length_b 28.578521
_cell_length_c 22.279136
_cell_angle_alpha 90.000000
_cell_angle_beta 90.000000
_cell_angle_gamma 90.000000
_cell_volume 5553.380905
_symmetry_space_group_name_H-M "C M C A"
_symmetry_group_IT_number 64
_symmetry_cell_setting 'orthorhombic'
loop_
_space_group_symop_operation_xyz
x,y,z
-x,1/2-y,1/2+z
x,-y,-z
-x,1/2+y,1/2-z
-x,-y,-z
x,1/2+y,1/2-z
-x,y,z
x,1/2-y,1/2+z
1/2+x,1/2+y,z
1/2-x,-y,1/2+z
1/2+x,1/2-y,-z
1/2-x,y,1/2-z
1/2-x,1/2-y,-z
1/2+x,y,1/2-z
1/2-x,1/2+y,z
1/2+x,-y,1/2+z
loop_
_atom_site_type_symbol
_atom_site_label
_atom_site_fract_x
_atom_site_fract_y
_atom_site_fract_z
Si Si1 0.818404 0.365623 0.540135
Si Si2 0.683358 0.968284 0.942222
Si Si3 0.176433 0.998023 0.814045
Si Si4 0.183526 0.766510 0.936006
Si Si5 0.680419 0.833198 0.083817
Si Si6 0.323269 0.889301 0.312272
O O1 0.734096 0.414475 0.549799
O O2 0.764932 0.319492 0.577932
O O3 0.781935 0.348918 0.472575
O O4 0.000000 0.373013 0.548723
O O5 0.500000 0.971615 0.941513
O O6 0.744767 0.983699 0.876736
O O7 0.736973 0.000000 0.000000
O O8 0.250000 0.982775 0.750000
O O9 0.179099 0.054480 0.813564
O O10 0.000000 0.982179 0.815413
O O11 0.216649 0.720449 0.896746
O O12 0.000000 0.770064 0.941426
O O13 0.250000 0.750000 0.000000
O O14 0.500000 0.835087 0.067308
O O15 0.719302 0.868748 0.135815
O O16 0.500000 0.874277 0.318834
O O17 0.250000 0.873732 0.250000
#
# Coordination Sequence:
#
# PCOD9476733 Si02
#       6
#    16  16  16  16  16  16
#     4  10  19  32  50  73 101 132 168 208 251 298
#     4  11  23  36  52  77 108 139 173 216 264 309
#     4  10  21  37  56  76 102 137 175 213 255 309
#     4   8  16  29  46  69  96 127 160 196 240 294
#     4  10  18  30  49  73 102 132 162 200 249 300
#     4  10  20  33  50  73  99 129 165 203 246 297
#
# _framework density 17.286767999999999
#
# number of rings (size 3 to 8) (size 9 to 14) (size 15 to 20)
#    0.000    2.167    0.000    3.500    0.000    7.333 
#    0.000    0.000    0.000    1.000    0.000    4.667 
#    0.000    0.000    0.000    0.000    0.000    0.000 
#
# Total GULP energy -267211.860532 kJ/mol
# GULP energy per Si atom -5566.913761 kJ/mol
# Density = 1.724742 g / cm^3
# Si number density = 17.286768 Si / 1000 Ang^3
#
#
#
# Elastic Constant Matrix: (Units=GPa)
#
#
# Indices 1 2 3 4 5 6 
#
# 1 53.8516 29.6341 24.6416 0.0000 0.0000 0.0000
# 2 29.6341 64.9143 25.0856 0.0000 0.0000 0.0000
# 3 24.6416 25.0856 76.0542 0.0000 0.0000 0.0000
# 4 0.0000 0.0000 0.0000 -5.8493 0.0000 0.0000
# 5 0.0000 0.0000 0.0000 0.0000 26.2215 0.0000
# 6 0.0000 0.0000 0.0000 0.0000 0.0000 13.2288
#
#
#
# Elastic Compliance Matrix: (Units=1/GPa)
#
#
# Indices 1 2 3 4 5 6 
#
# 1 0.026524 -0.010071 -0.005272 0.000000 0.000000 0.000000
# 2 -0.010071 0.021479 -0.003822 0.000000 0.000000 0.000000
# 3 -0.005272 -0.003822 0.016117 0.000000 0.000000 0.000000
# 4 0.000000 0.000000 0.000000 -0.170960 0.000000 0.000000
# 5 0.000000 0.000000 0.000000 0.000000 0.038137 0.000000
# 6 0.000000 0.000000 0.000000 0.000000 0.000000 0.075593
#
#
# Mechanical properties :
#
#
# Convention : Reuss Voigt Hill
#
# Bulk Modulus (GPa) = 38.77325 39.28252 39.02788
# Shear Modulus (GPa) = 92.90777 14.41744 53.66260
#
# Velocity S-wave (km/s) = 7.33905 2.89107 5.57763
# Velocity P-wave (km/s) = 9.71050 5.82389 8.00661
#
# Compressibility (1/GPa) = 0.02579098
#
# Stress axis : x y z
#
# Youngs Moduli (GPa) = 37.70164 46.55625 62.04566
#
# Poissons Ratio (x) = 0.46888 0.32710
# Poissons Ratio (y) = 0.37970 0.23712
# Poissons Ratio (z) = 0.19876 0.17792
#
# Static dielectric constant tensor:
#      x y z
#    x 1.598690 0.000000 0.000000 
#    y 0.000000 1.634270 0.000000 
#    z 0.000000 0.000000 1.578050 
# 
# From -- ./inp_files/36994.got.cif
#   From: 2010.05.17/outbox.cif.g08.bks.cpg/sg64_19_cif.got.tgz:36994.got - 2010.06.03 16:29:19.
