data_PCOD9476877
_publ_section_title
;
Structure prediction by ZEFSAII (Michael W. Deem and Ramdas Pophale) SiO2 
 PCOD9476877
Probable space group: C M C A
;
_chemical_formula_sum "Si O2"
_cell_formula_units_Z 96
_cell_length_a 8.680312
_cell_length_b 23.438305
_cell_length_c 26.144129
_cell_angle_alpha 90.000000
_cell_angle_beta 90.000000
_cell_angle_gamma 90.000000
_cell_volume 5319.070108
_symmetry_space_group_name_H-M "C M C A"
_symmetry_group_IT_number 64
_symmetry_cell_setting 'orthorhombic'
loop_
_space_group_symop_operation_xyz
x,y,z
-x,1/2-y,1/2+z
x,-y,-z
-x,1/2+y,1/2-z
-x,-y,-z
x,1/2+y,1/2-z
-x,y,z
x,1/2-y,1/2+z
1/2+x,1/2+y,z
1/2-x,-y,1/2+z
1/2+x,1/2-y,-z
1/2-x,y,1/2-z
1/2-x,1/2-y,-z
1/2+x,y,1/2-z
1/2-x,1/2+y,z
1/2+x,-y,1/2+z
loop_
_atom_site_type_symbol
_atom_site_label
_atom_site_fract_x
_atom_site_fract_y
_atom_site_fract_z
Si Si1 0.185750 0.186240 0.000245
Si Si2 0.822327 0.384447 0.904591
Si Si3 0.683796 0.934356 0.693960
Si Si4 0.816852 0.438362 0.194355
Si Si5 0.177500 0.119175 0.898116
Si Si6 0.331780 0.508375 0.060067
O O1 0.246081 0.153775 0.050927
O O2 0.000000 0.184959 0.001182
O O3 0.250000 0.250000 0.000000
O O4 0.233965 0.156191 0.946473
O O5 0.741325 0.390200 0.849279
O O6 0.802031 0.449096 0.924864
O O7 0.000000 0.368560 0.898775
O O8 0.500000 0.935891 0.696059
O O9 0.750000 0.920539 0.750000
O O10 0.743509 0.999035 0.681743
O O11 0.750000 0.423760 0.250000
O O12 0.772535 0.389078 0.153877
O O13 0.000000 0.445692 0.196286
O O14 0.000000 0.135919 0.886905
O O15 0.176708 0.054323 0.917925
O O16 0.500000 0.533938 0.075112
O O17 0.331746 0.500000 0.000000
#
# Coordination Sequence:
#
# PCOD9476877 Si02
#       6
#    16  16  16  16  16  16
#     4  11  24  43  62  83 111 148 191 239 290 339
#     4  12  23  35  55  84 116 151 189 231 279 337
#     4  11  21  35  54  80 117 155 190 229 278 336
#     4  11  21  33  52  81 117 153 190 228 274 335
#     4  10  20  35  57  81 114 152 186 228 283 338
#     4  10  18  32  52  78 112 150 184 223 281 340
#
# _framework density 18.048266999999999
#
# number of rings (size 3 to 8) (size 9 to 14) (size 15 to 20)
#    0.000    1.167    3.333    6.000    0.000    1.667 
#    0.000    0.000    0.000    1.000    0.000    2.333 
#    0.000    0.000    0.000    0.000    0.000    0.000 
#
# Total GULP energy -267754.513842 kJ/mol
# GULP energy per Si atom -5578.219038 kJ/mol
# Density = 1.800719 g / cm^3
# Si number density = 18.048267 Si / 1000 Ang^3
#
#
#
# Elastic Constant Matrix: (Units=GPa)
#
#
# Indices 1 2 3 4 5 6 
#
# 1 127.6867 32.8740 64.2183 0.0000 0.0000 0.0000
# 2 32.8740 67.5751 56.6239 0.0000 0.0000 0.0000
# 3 64.2183 56.6239 163.0722 0.0000 0.0000 0.0000
# 4 0.0000 0.0000 0.0000 8.7408 0.0000 0.0000
# 5 0.0000 0.0000 0.0000 0.0000 29.1037 0.0000
# 6 0.0000 0.0000 0.0000 0.0000 0.0000 21.1820
#
#
#
# Elastic Compliance Matrix: (Units=1/GPa)
#
#
# Indices 1 2 3 4 5 6 
#
# 1 0.009994 -0.002206 -0.003170 0.000000 0.000000 0.000000
# 2 -0.002206 0.021358 -0.006547 0.000000 0.000000 0.000000
# 3 -0.003170 -0.006547 0.009654 0.000000 0.000000 0.000000
# 4 0.000000 0.000000 0.000000 0.114406 0.000000 0.000000
# 5 0.000000 0.000000 0.000000 0.000000 0.034360 0.000000
# 6 0.000000 0.000000 0.000000 0.000000 0.000000 0.047210
#
#
# Mechanical properties :
#
#
# Convention : Reuss Voigt Hill
#
# Bulk Modulus (GPa) = 58.27611 73.97406 66.12509
# Shear Modulus (GPa) = 18.75846 25.44650 22.10248
#
# Velocity S-wave (km/s) = 3.22739 3.75896 3.50327
# Velocity P-wave (km/s) = 6.80053 7.74051 7.28569
#
# Compressibility (1/GPa) = 0.01715969
#
# Stress axis : x y z
#
# Youngs Moduli (GPa) = 100.06312 46.82125 103.58455
#
# Poissons Ratio (x) = 0.10328 0.32832
# Poissons Ratio (y) = 0.22072 0.67822
# Poissons Ratio (z) = 0.31716 0.30656
#
# Static dielectric constant tensor:
#      x y z
#    x 1.783320 0.000000 0.000000 
#    y 0.000000 1.588480 0.000000 
#    z 0.000000 0.000000 1.619810 
# 
# From -- ./inp_files/48367.got.cif
#   From: 2010.05.17/outbox.cif.g08.bks.cpg/sg64_25_cif.got.tgz:48367.got - 2010.06.03 16:29:19.
