data_PCOD9476002
_publ_section_title
;
Structure prediction by ZEFSAII (Michael W. Deem and Ramdas Pophale) SiO2 
 PCOD9476002
Probable space group: C M C M
;
_chemical_formula_sum "Si O2"
_cell_formula_units_Z 88
_cell_length_a 27.234678
_cell_length_b 14.060380
_cell_length_c 10.847843
_cell_angle_alpha 90.000000
_cell_angle_beta 90.000000
_cell_angle_gamma 90.000000
_cell_volume 4153.963672
_symmetry_space_group_name_H-M "C M C M"
_symmetry_group_IT_number 63
_symmetry_cell_setting 'orthorhombic'
loop_
_space_group_symop_operation_xyz
x,y,z
-x,-y,1/2+z
x,-y,-z
-x,y,1/2-z
-x,-y,-z
x,y,1/2-z
-x,y,z
x,-y,1/2+z
1/2+x,1/2+y,z
1/2-x,1/2-y,1/2+z
1/2+x,1/2-y,-z
1/2-x,1/2+y,1/2-z
1/2-x,1/2-y,-z
1/2+x,1/2+y,1/2-z
1/2-x,1/2+y,z
1/2+x,1/2-y,1/2+z
loop_
_atom_site_type_symbol
_atom_site_label
_atom_site_fract_x
_atom_site_fract_y
_atom_site_fract_z
Si Si1 0.058475 0.894619 0.115516
Si Si2 0.288164 0.153115 0.613056
Si Si3 0.500000 0.922673 0.109405
Si Si4 0.275524 0.379890 0.887071
Si Si5 0.894041 0.578670 0.892073
Si Si6 0.610101 0.397590 0.883847
O O1 0.066659 0.849641 0.250000
O O2 0.000000 0.900872 0.094870
O O3 0.081737 0.000976 0.123074
O O4 0.086221 0.847312 0.001362
O O5 0.275726 0.116717 0.750000
O O6 0.277556 0.264987 0.614470
O O7 0.258256 0.101913 0.505078
O O8 0.346131 0.141971 0.592720
O O9 0.500000 0.963772 0.250000
O O10 0.447497 0.872036 0.098146
O O11 0.500000 0.000000 0.000000
O O12 0.258202 0.409416 0.750000
O O13 0.331850 0.413220 0.902018
O O14 0.891216 0.540186 0.750000
O O15 0.891998 0.500000 0.000000
O O16 0.604073 0.349932 0.750000
#
# Coordination Sequence:
#
# PCOD9476002 Si02
#       6
#    16  16   8  16  16  16
#     4   9  17  29  46  67  93 126 159 190 227 270
#     4   9  18  33  50  67  92 123 156 190 230 277
#     4   8  14  26  46  68  90 116 144 175 222 278
#     4   9  18  32  49  67  91 125 161 194 227 270
#     4   9  17  30  49  72  96 120 148 187 230 277
#     4   9  16  27  44  65  88 115 152 195 230 264
#
# _framework density 21.184585999999999
#
# number of rings (size 3 to 8) (size 9 to 14) (size 15 to 20)
#    0.000    3.091    0.000    1.091    0.000    2.545 
#    3.273    0.000    4.000    0.000    0.000    0.000 
#    0.000    0.000    0.000    0.000    0.000    0.000 
#
# Total GULP energy -244982.121423 kJ/mol
# GULP energy per Si atom -5567.775487 kJ/mol
# Density = 2.113637 g / cm^3
# Si number density = 21.184586 Si / 1000 Ang^3
#
#
#
# Elastic Constant Matrix: (Units=GPa)
#
#
# Indices 1 2 3 4 5 6 
#
# 1 131.0795 11.7521 96.5936 0.0000 0.0000 0.0000
# 2 11.7521 46.9685 12.1207 0.0000 0.0000 0.0000
# 3 96.5936 12.1207 198.7351 0.0000 0.0000 0.0000
# 4 0.0000 0.0000 0.0000 0.0847 0.0000 0.0000
# 5 0.0000 0.0000 0.0000 0.0000 -0.3485 0.0000
# 6 0.0000 0.0000 0.0000 0.0000 0.0000 7.1842
#
#
#
# Elastic Compliance Matrix: (Units=1/GPa)
#
#
# Indices 1 2 3 4 5 6 
#
# 1 0.011992 -0.001520 -0.005736 0.000000 0.000000 0.000000
# 2 -0.001520 0.021824 -0.000592 0.000000 0.000000 0.000000
# 3 -0.005736 -0.000592 0.007856 0.000000 0.000000 0.000000
# 4 0.000000 0.000000 0.000000 11.812409 0.000000 0.000000
# 5 0.000000 0.000000 0.000000 0.000000 -2.869642 0.000000
# 6 0.000000 0.000000 0.000000 0.000000 0.000000 0.139195
#
#
# Mechanical properties :
#
#
# Convention : Reuss Voigt Hill
#
# Bulk Modulus (GPa) = 38.49816 68.63510 53.56663
# Shear Modulus (GPa) = 0.54657 18.47185 9.50921
#
# Velocity S-wave (km/s) = 0.50849 2.95608 2.12096
# Velocity P-wave (km/s) = 4.30777 6.64230 5.59808
#
# Compressibility (1/GPa) = 0.02597527
#
# Stress axis : x y z
#
# Youngs Moduli (GPa) = 83.38787 45.82098 127.29367
#
# Poissons Ratio (x) = 0.06967 0.73015
# Poissons Ratio (y) = 0.12678 0.07537
# Poissons Ratio (z) = 0.47831 0.02713
#
# Static dielectric constant tensor:
#      x y z
#    x 1.753260 0.000000 0.000000 
#    y 0.000000 1.752180 0.000000 
#    z 0.000000 0.000000 1.858080 
# 
# From -- ./inp_files/23761.got.cif
#   From: 2010.05.17/outbox.cif.g08.bks.cpg/sg63_12_cif.got.tgz:23761.got - 2010.06.03 15:47:04.
