data_PCOD9476523
_publ_section_title
;
Structure prediction by ZEFSAII (Michael W. Deem and Ramdas Pophale) SiO2 
 PCOD9476523
Probable space group: C M C A
;
_chemical_formula_sum "Si O2"
_cell_formula_units_Z 104
_cell_length_a 21.456126
_cell_length_b 28.975869
_cell_length_c 9.457940
_cell_angle_alpha 90.000000
_cell_angle_beta 90.000000
_cell_angle_gamma 90.000000
_cell_volume 5880.094896
_symmetry_space_group_name_H-M "C M C A"
_symmetry_group_IT_number 64
_symmetry_cell_setting 'orthorhombic'
loop_
_space_group_symop_operation_xyz
x,y,z
-x,1/2-y,1/2+z
x,-y,-z
-x,1/2+y,1/2-z
-x,-y,-z
x,1/2+y,1/2-z
-x,y,z
x,1/2-y,1/2+z
1/2+x,1/2+y,z
1/2-x,-y,1/2+z
1/2+x,1/2-y,-z
1/2-x,y,1/2-z
1/2-x,1/2-y,-z
1/2+x,y,1/2-z
1/2-x,1/2+y,z
1/2+x,-y,1/2+z
loop_
_atom_site_type_symbol
_atom_site_label
_atom_site_fract_x
_atom_site_fract_y
_atom_site_fract_z
Si Si1 0.071302 0.711844 0.861601
Si Si2 0.679359 0.858734 0.805213
Si Si3 0.250000 0.801143 0.250000
Si Si4 0.318029 0.046898 0.680129
Si Si5 0.185502 0.555276 0.343924
Si Si6 0.849915 0.128193 0.620595
Si Si7 0.643013 0.243449 0.122837
O O1 0.086871 0.657848 0.881064
O O2 0.090878 0.728118 0.706714
O O3 0.000000 0.721916 0.894413
O O4 0.119672 0.738293 0.963773
O O5 0.750000 0.850435 0.750000
O O6 0.651758 0.897719 0.702328
O O7 0.648575 0.808558 0.816788
O O8 0.672614 0.881430 0.961169
O O9 0.201754 0.835220 0.325333
O O10 0.291427 0.769388 0.353419
O O11 0.250000 0.046349 0.750000
O O12 0.308033 0.057259 0.513713
O O13 0.353019 0.085631 0.771599
O O14 0.344020 0.994662 0.689763
O O15 0.250000 0.555696 0.250000
#
# Coordination Sequence:
#
# PCOD9476523 Si02
#       7
#    16  16   8  16  16  16  16
#     4  10  22  38  52  74  99 139 184 212 253 305
#     4  10  19  29  44  75 103 132 164 203 254 306
#     4  10  20  32  48  80 102 130 168 206 262 318
#     4  10  17  31  46  70 104 139 165 196 254 307
#     4   9  19  28  45  69 104 139 166 197 239 315
#     4  10  21  30  51  73 103 137 163 212 257 304
#     4  10  21  33  55  71 105 136 166 218 260 301
#
# _framework density 17.686789000000001
#
# number of rings (size 3 to 8) (size 9 to 14) (size 15 to 20)
#    0.000    2.154    1.538    2.308    2.154    4.923 
#    0.000    0.000    0.000    0.000    0.000   11.846 
#    0.000    0.000    0.000    0.000    0.000    0.000 
#
# Total GULP energy -289498.655239 kJ/mol
# GULP energy per Si atom -5567.281832 kJ/mol
# Density = 1.764653 g / cm^3
# Si number density = 17.686789 Si / 1000 Ang^3
#
#
#
# Elastic Constant Matrix: (Units=GPa)
#
#
# Indices 1 2 3 4 5 6 
#
# 1 36.2833 -1.8481 -5.1353 0.0000 0.0000 0.0000
# 2 -1.8481 74.6342 19.1381 0.0000 0.0000 0.0000
# 3 -5.1353 19.1381 75.2572 0.0000 0.0000 0.0000
# 4 0.0000 0.0000 0.0000 76.1682 0.0000 0.0000
# 5 0.0000 0.0000 0.0000 0.0000 10.4953 0.0000
# 6 0.0000 0.0000 0.0000 0.0000 0.0000 7.8687
#
#
#
# Elastic Compliance Matrix: (Units=1/GPa)
#
#
# Indices 1 2 3 4 5 6 
#
# 1 0.027833 0.000216 0.001844 0.000000 0.000000 0.000000
# 2 0.000216 0.014335 -0.003631 0.000000 0.000000 0.000000
# 3 0.001844 -0.003631 0.014337 0.000000 0.000000 0.000000
# 4 0.000000 0.000000 0.000000 0.013129 0.000000 0.000000
# 5 0.000000 0.000000 0.000000 0.000000 0.095281 0.000000
# 6 0.000000 0.000000 0.000000 0.000000 0.000000 0.127086
#
#
# Mechanical properties :
#
#
# Convention : Reuss Voigt Hill
#
# Bulk Modulus (GPa) = 18.73904 23.38713 21.06308
# Shear Modulus (GPa) = 15.97806 30.50776 23.24291
#
# Velocity S-wave (km/s) = 3.00890 4.15769 3.62904
# Velocity P-wave (km/s) = 4.76333 6.02496 5.43090
#
# Compressibility (1/GPa) = 0.05336454
#
# Stress axis : x y z
#
# Youngs Moduli (GPa) = 35.92867 69.75915 69.75011
#
# Poissons Ratio (x) = -0.01509 -0.12864
# Poissons Ratio (y) = -0.00777 0.25324
# Poissons Ratio (z) = -0.06626 0.25327
#
# Static dielectric constant tensor:
#      x y z
#    x 1.593080 0.000000 0.000000 
#    y 0.000000 1.666550 0.000000 
#    z 0.000000 0.000000 1.639640 
# 
# From -- ./inp_files/9769.got.cif
#   From: 2010.05.17/outbox.cif.g08.bks.cpg/sg64_5_cif.got.tgz:9769.got - 2010.06.03 16:29:19.
