data_PCOD9476897
_publ_section_title
;
Structure prediction by ZEFSAII (Michael W. Deem and Ramdas Pophale) SiO2 
 PCOD9476897
Probable space group: C M C A
;
_chemical_formula_sum "Si O2"
_cell_formula_units_Z 104
_cell_length_a 9.160084
_cell_length_b 22.732279
_cell_length_c 28.060989
_cell_angle_alpha 90.000000
_cell_angle_beta 90.000000
_cell_angle_gamma 90.000000
_cell_volume 5843.128098
_symmetry_space_group_name_H-M "C M C A"
_symmetry_group_IT_number 64
_symmetry_cell_setting 'orthorhombic'
loop_
_space_group_symop_operation_xyz
x,y,z
-x,1/2-y,1/2+z
x,-y,-z
-x,1/2+y,1/2-z
-x,-y,-z
x,1/2+y,1/2-z
-x,y,z
x,1/2-y,1/2+z
1/2+x,1/2+y,z
1/2-x,-y,1/2+z
1/2+x,1/2-y,-z
1/2-x,y,1/2-z
1/2-x,1/2-y,-z
1/2+x,y,1/2-z
1/2-x,1/2+y,z
1/2+x,-y,1/2+z
loop_
_atom_site_type_symbol
_atom_site_label
_atom_site_fract_x
_atom_site_fract_y
_atom_site_fract_z
Si Si1 0.332435 0.444284 0.897105
Si Si2 0.823412 0.208674 0.611451
Si Si3 0.325808 0.847718 0.299135
Si Si4 0.171486 0.369815 0.024893
Si Si5 0.766057 0.500000 0.500000
Si Si6 0.673401 0.013062 0.700174
Si Si7 0.823877 0.827155 0.575873
O O1 0.500000 0.424578 0.890074
O O2 0.289054 0.481850 0.850187
O O3 0.225896 0.388544 0.900693
O O4 0.332218 0.478615 0.948480
O O5 0.752689 0.188748 0.660319
O O6 0.772054 0.159558 0.572853
O O7 0.758208 0.271445 0.597036
O O8 0.000000 0.210311 0.613725
O O9 0.500000 0.838855 0.298517
O O10 0.250000 0.831098 0.250000
O O11 0.297558 0.917448 0.306205
O O12 0.191384 0.439243 0.016742
O O13 0.000000 0.359239 0.025497
O O14 0.228163 0.335386 0.978818
O O15 0.500000 0.005471 0.706935
O O16 0.750000 0.994112 0.750000
O O17 0.000000 0.820744 0.578089
#
# Coordination Sequence:
#
# PCOD9476897 Si02
#       7
#    16  16  16  16   8  16  16
#     4  10  20  35  54  80 111 142 176 220 271 326
#     4  11  21  35  55  79 106 142 182 222 267 317
#     4  10  20  36  56  81 109 138 173 218 266 316
#     4   9  19  33  52  79 111 143 178 218 265 318
#     4  10  18  32  54  82 113 144 175 216 271 330
#     4   9  19  35  56  81 110 141 177 218 265 318
#     4  10  21  37  54  76 106 143 183 224 266 316
#
# _framework density 17.798686
#
# number of rings (size 3 to 8) (size 9 to 14) (size 15 to 20)
#    0.000    2.154    0.000    3.231    0.000    1.846 
#    0.000    8.462    0.000    1.846    0.000    0.000 
#    0.000    0.000    0.000    0.000    0.000    0.000 
#
# Total GULP energy -289513.563599 kJ/mol
# GULP energy per Si atom -5567.568531 kJ/mol
# Density = 1.775818 g / cm^3
# Si number density = 17.798686 Si / 1000 Ang^3
#
#
#
# Elastic Constant Matrix: (Units=GPa)
#
#
# Indices 1 2 3 4 5 6 
#
# 1 55.4618 37.8145 48.8570 0.0000 0.0000 0.0000
# 2 37.8145 90.4368 85.0476 0.0000 0.0000 0.0000
# 3 48.8570 85.0476 158.8485 0.0000 0.0000 0.0000
# 4 0.0000 0.0000 0.0000 32.1271 0.0000 0.0000
# 5 0.0000 0.0000 0.0000 0.0000 26.4834 0.0000
# 6 0.0000 0.0000 0.0000 0.0000 0.0000 24.8144
#
#
#
# Elastic Compliance Matrix: (Units=1/GPa)
#
#
# Indices 1 2 3 4 5 6 
#
# 1 0.026732 -0.006939 -0.004506 0.000000 0.000000 0.000000
# 2 -0.006939 0.024072 -0.010754 0.000000 0.000000 0.000000
# 3 -0.004506 -0.010754 0.013439 0.000000 0.000000 0.000000
# 4 0.000000 0.000000 0.000000 0.031126 0.000000 0.000000
# 5 0.000000 0.000000 0.000000 0.000000 0.037759 0.000000
# 6 0.000000 0.000000 0.000000 0.000000 0.000000 0.040299
#
#
# Mechanical properties :
#
#
# Convention : Reuss Voigt Hill
#
# Bulk Modulus (GPa) = 50.39515 72.02057 61.20786
# Shear Modulus (GPa) = 22.27753 25.55352 23.91552
#
# Velocity S-wave (km/s) = 3.54169 3.79317 3.66958
# Velocity P-wave (km/s) = 6.71567 7.72891 7.24003
#
# Compressibility (1/GPa) = 0.01984318
#
# Stress axis : x y z
#
# Youngs Moduli (GPa) = 37.40893 41.54196 74.41048
#
# Poissons Ratio (x) = 0.28828 0.33533
# Poissons Ratio (y) = 0.25960 0.80020
# Poissons Ratio (z) = 0.16858 0.44674
#
# Static dielectric constant tensor:
#      x y z
#    x 1.600500 0.000000 0.000000 
#    y 0.000000 1.589240 0.000000 
#    z 0.000000 0.000000 1.667960 
# 
# From -- ./inp_files/48231.got.cif
#   From: 2010.05.17/outbox.cif.g08.bks.cpg/sg64_25_cif.got.tgz:48231.got - 2010.06.03 16:29:19.
