data_PCOD9476412
_publ_section_title
;
Structure prediction by ZEFSAII (Michael W. Deem and Ramdas Pophale) SiO2 
 PCOD9476412
Probable space group: C M C A
;
_chemical_formula_sum "Si O2"
_cell_formula_units_Z 80
_cell_length_a 25.446613
_cell_length_b 18.318939
_cell_length_c 9.114705
_cell_angle_alpha 90.000000
_cell_angle_beta 90.000000
_cell_angle_gamma 90.000000
_cell_volume 4248.864865
_symmetry_space_group_name_H-M "C M C A"
_symmetry_group_IT_number 64
_symmetry_cell_setting 'orthorhombic'
loop_
_space_group_symop_operation_xyz
x,y,z
-x,1/2-y,1/2+z
x,-y,-z
-x,1/2+y,1/2-z
-x,-y,-z
x,1/2+y,1/2-z
-x,y,z
x,1/2-y,1/2+z
1/2+x,1/2+y,z
1/2-x,-y,1/2+z
1/2+x,1/2-y,-z
1/2-x,y,1/2-z
1/2-x,1/2-y,-z
1/2+x,y,1/2-z
1/2-x,1/2+y,z
1/2+x,-y,1/2+z
loop_
_atom_site_type_symbol
_atom_site_label
_atom_site_fract_x
_atom_site_fract_y
_atom_site_fract_z
Si Si1 0.837547 0.702424 0.139148
Si Si2 0.175954 0.126821 0.837409
Si Si3 0.943720 0.354686 0.356533
Si Si4 0.277012 0.583571 0.522666
Si Si5 0.589922 0.256564 0.889304
O O1 0.816354 0.785679 0.141270
O O2 0.868410 0.697403 0.292308
O O3 0.796842 0.639218 0.101908
O O4 0.879171 0.705465 0.004963
O O5 0.114038 0.108474 0.850523
O O6 0.214569 0.089343 0.952638
O O7 0.196572 0.108334 0.675639
O O8 0.942592 0.310791 0.509619
O O9 0.939696 0.294537 0.226201
O O10 0.000000 0.394094 0.342545
O O11 0.292071 0.500000 0.500000
#
# Coordination Sequence:
#
# PCOD9476412 Si02
#       5
#    16  16  16  16  16
#     4  10  16  37  58  82 117 153 182 241 282 351
#     4   9  21  38  53  89 114 145 202 231 289 357
#     4  10  17  32  55  81 118 149 189 247 285 332
#     4  11  21  38  58  86 119 154 187 248 293 348
#     4   8  17  29  54  86 115 143 197 229 290 332
#
# _framework density 18.828558000000001
#
# number of rings (size 3 to 8) (size 9 to 14) (size 15 to 20)
#    0.000    2.800    4.000    1.200    0.000    0.000 
#   14.400    0.000    0.000    1.200    0.000    0.000 
#    0.000    0.000    0.000    0.000    0.000    0.000 
#
# Total GULP energy -222705.773459 kJ/mol
# GULP energy per Si atom -5567.644336 kJ/mol
# Density = 1.878570 g / cm^3
# Si number density = 18.828558 Si / 1000 Ang^3
#
#
#
# Elastic Constant Matrix: (Units=GPa)
#
#
# Indices 1 2 3 4 5 6 
#
# 1 125.9224 7.0337 13.3491 0.0000 0.0000 0.0000
# 2 7.0337 60.9624 3.6275 0.0000 0.0000 0.0000
# 3 13.3491 3.6275 76.6116 0.0000 0.0000 0.0000
# 4 0.0000 0.0000 0.0000 5.0803 0.0000 0.0000
# 5 0.0000 0.0000 0.0000 0.0000 -2.0247 0.0000
# 6 0.0000 0.0000 0.0000 0.0000 0.0000 -6.4412
#
#
#
# Elastic Compliance Matrix: (Units=1/GPa)
#
#
# Indices 1 2 3 4 5 6 
#
# 1 0.008135 -0.000857 -0.001377 0.000000 0.000000 0.000000
# 2 -0.000857 0.016540 -0.000634 0.000000 0.000000 0.000000
# 3 -0.001377 -0.000634 0.013323 0.000000 0.000000 0.000000
# 4 0.000000 0.000000 0.000000 0.196838 0.000000 0.000000
# 5 0.000000 0.000000 0.000000 0.000000 -0.493902 0.000000
# 6 0.000000 0.000000 0.000000 0.000000 0.000000 -0.155249
#
#
# Mechanical properties :
#
#
# Convention : Reuss Voigt Hill
#
# Bulk Modulus (GPa) = 30.99518 34.61298 32.80408
# Shear Modulus (GPa) = -12.56831 15.28862 1.36015
#
# Velocity S-wave (km/s) = -2.58643 2.85264 0.85086
# Velocity P-wave (km/s) = 2.75282 5.41047 4.29251
#
# Compressibility (1/GPa) = 0.03226309
#
# Stress axis : x y z
#
# Youngs Moduli (GPa) = 122.92225 60.45911 75.05931
#
# Poissons Ratio (x) = 0.05179 0.10335
# Poissons Ratio (y) = 0.10531 0.04758
# Poissons Ratio (z) = 0.16926 0.03832
#
# Static dielectric constant tensor:
#      x y z
#    x 1.652590 0.000000 0.000000 
#    y 0.000000 1.618920 0.000000 
#    z 0.000000 0.000000 1.664810 
# 
# From -- ./inp_files/10210.got.cif
#   From: 2010.05.17/outbox.cif.g08.bks.cpg/sg64_6_cif.got.tgz:10210.got - 2010.06.03 16:29:19.
