data_PCOD9476460
_publ_section_title
;
Structure prediction by ZEFSAII (Michael W. Deem and Ramdas Pophale) SiO2 
 PCOD9476460
Probable space group: C M C A
;
_chemical_formula_sum "Si O2"
_cell_formula_units_Z 128
_cell_length_a 18.713239
_cell_length_b 22.960627
_cell_length_c 18.827791
_cell_angle_alpha 90.000000
_cell_angle_beta 90.000000
_cell_angle_gamma 90.000000
_cell_volume 8089.693667
_symmetry_space_group_name_H-M "C M C A"
_symmetry_group_IT_number 64
_symmetry_cell_setting 'orthorhombic'
loop_
_space_group_symop_operation_xyz
x,y,z
-x,1/2-y,1/2+z
x,-y,-z
-x,1/2+y,1/2-z
-x,-y,-z
x,1/2+y,1/2-z
-x,y,z
x,1/2-y,1/2+z
1/2+x,1/2+y,z
1/2-x,-y,1/2+z
1/2+x,1/2-y,-z
1/2-x,y,1/2-z
1/2-x,1/2-y,-z
1/2+x,y,1/2-z
1/2-x,1/2+y,z
1/2+x,-y,1/2+z
loop_
_atom_site_type_symbol
_atom_site_label
_atom_site_fract_x
_atom_site_fract_y
_atom_site_fract_z
Si Si1 0.168660 0.861435 0.224410
Si Si2 0.319732 0.286978 0.090022
Si Si3 0.585013 0.120798 0.964729
Si Si4 0.585089 0.945437 0.182513
Si Si5 0.156979 0.757569 0.443393
Si Si6 0.585774 0.561784 0.394066
Si Si7 0.082699 0.810790 0.662373
Si Si8 0.581921 0.242524 0.799539
O O1 0.250000 0.865760 0.250000
O O2 0.168554 0.842221 0.141602
O O3 0.126460 0.918558 0.250576
O O4 0.130708 0.808277 0.266595
O O5 0.236468 0.269068 0.086559
O O6 0.365664 0.234812 0.124305
O O7 0.341701 0.288657 0.007310
O O8 0.500000 0.131304 0.974932
O O9 0.594826 0.097338 0.885254
O O10 0.627429 0.180772 0.972957
O O11 0.607775 0.073476 0.024119
O O12 0.500000 0.948674 0.197513
O O13 0.612294 0.007287 0.151689
O O14 0.107300 0.741710 0.377624
O O15 0.500000 0.552567 0.397489
O O16 0.600247 0.623047 0.355908
O O17 0.086606 0.796312 0.745583
O O18 0.000000 0.800416 0.639968
O O19 0.500000 0.221531 0.800776
#
# Coordination Sequence:
#
# PCOD9476460 Si02
#       8
#    16  16  16  16  16  16  16  16
#     4  11  19  33  50  70 102 134 163 208 252 301
#     4  10  21  31  47  72 100 133 167 203 258 310
#     4  10  17  28  46  73 103 131 163 201 249 305
#     4  10  19  30  49  72  97 129 170 207 246 306
#     4  11  19  31  48  73 100 135 168 203 254 315
#     4   9  17  30  47  70  98 131 164 207 255 293
#     4   9  18  31  48  70  99 131 168 213 256 302
#     4  10  19  31  50  74  98 130 169 204 248 304
#
# _framework density 15.822602
#
# number of rings (size 3 to 8) (size 9 to 14) (size 15 to 20)
#    0.000    2.000    3.750    1.125    0.000    2.500 
#    0.000    0.000    2.750    0.000    0.000    0.875 
#    0.000    4.000    0.000    0.000    0.000    1.500 
#
# Total GULP energy -356539.576155 kJ/mol
# GULP energy per Si atom -5570.930877 kJ/mol
# Density = 1.578659 g / cm^3
# Si number density = 15.822602 Si / 1000 Ang^3
#
#
#
# Elastic Constant Matrix: (Units=GPa)
#
#
# Indices 1 2 3 4 5 6 
#
# 1 62.3910 28.6285 27.9040 0.0000 0.0000 0.0000
# 2 28.6285 48.2539 31.1264 0.0000 0.0000 0.0000
# 3 27.9040 31.1264 96.0921 0.0000 0.0000 0.0000
# 4 0.0000 0.0000 0.0000 22.3945 0.0000 0.0000
# 5 0.0000 0.0000 0.0000 0.0000 21.7394 0.0000
# 6 0.0000 0.0000 0.0000 0.0000 0.0000 7.5801
#
#
#
# Elastic Compliance Matrix: (Units=1/GPa)
#
#
# Indices 1 2 3 4 5 6 
#
# 1 0.022607 -0.011602 -0.002807 0.000000 0.000000 0.000000
# 2 -0.011602 0.032152 -0.007046 0.000000 0.000000 0.000000
# 3 -0.002807 -0.007046 0.013504 0.000000 0.000000 0.000000
# 4 0.000000 0.000000 0.000000 0.044654 0.000000 0.000000
# 5 0.000000 0.000000 0.000000 0.000000 0.046000 0.000000
# 6 0.000000 0.000000 0.000000 0.000000 0.000000 0.131925
#
#
# Mechanical properties :
#
#
# Convention : Reuss Voigt Hill
#
# Bulk Modulus (GPa) = 39.44123 42.45054 40.94589
# Shear Modulus (GPa) = 14.61131 18.28132 16.44631
#
# Velocity S-wave (km/s) = 3.04212 3.40279 3.22750
# Velocity P-wave (km/s) = 6.10906 6.50584 6.31057
#
# Compressibility (1/GPa) = 0.02535418
#
# Stress axis : x y z
#
# Youngs Moduli (GPa) = 44.23443 31.10238 74.05240
#
# Poissons Ratio (x) = 0.36085 0.20784
# Poissons Ratio (y) = 0.51321 0.52175
# Poissons Ratio (z) = 0.12415 0.21914
#
# Static dielectric constant tensor:
#      x y z
#    x 1.528690 0.000000 0.000000 
#    y 0.000000 1.530870 0.000000 
#    z 0.000000 0.000000 1.565440 
# 
# From -- ./inp_files/33748.got.cif
#   From: 2010.05.17/outbox.cif.g08.bks.cpg/sg64_17_cif.got.tgz:33748.got - 2010.06.03 16:29:19.
