data_PCOD9476048
_publ_section_title
;
Structure prediction by ZEFSAII (Michael W. Deem and Ramdas Pophale) SiO2 
 PCOD9476048
Probable space group: C M C M
;
_chemical_formula_sum "Si O2"
_cell_formula_units_Z 36
_cell_length_a 18.000000
_cell_length_b 24.000000
_cell_length_c 9.000000
_cell_angle_alpha 90.000000
_cell_angle_beta 90.000000
_cell_angle_gamma 90.000000
_cell_volume 3888.000000
_symmetry_space_group_name_H-M "C M C M"
_symmetry_group_IT_number 63
_symmetry_cell_setting 'orthorhombic'
loop_
_space_group_symop_operation_xyz
x,y,z
-x,-y,1/2+z
x,-y,-z
-x,y,1/2-z
-x,-y,-z
x,y,1/2-z
-x,y,z
x,-y,1/2+z
1/2+x,1/2+y,z
1/2-x,1/2-y,1/2+z
1/2+x,1/2-y,-z
1/2-x,1/2+y,1/2-z
1/2-x,1/2-y,-z
1/2+x,1/2+y,1/2-z
1/2-x,1/2+y,z
1/2+x,1/2-y,1/2+z
loop_
_atom_site_type_symbol
_atom_site_label
_atom_site_fract_x
_atom_site_fract_y
_atom_site_fract_z
Si Si1 0.722669 0.059184 0.570773
Si Si2 0.584593 0.870807 0.071073
Si Si3 0.141420 0.135384 0.930567
Si Si4 0.088723 0.253949 0.573684
Si Si5 0.000000 0.061007 0.570224
O O1 0.725162 0.054457 0.750000
O O2 0.641936 0.081685 0.525185
O O3 0.783113 0.105216 0.525066
O O4 0.739893 0.000000 0.500000
O O5 0.585314 0.868079 0.250000
O O6 0.500000 0.881228 0.021498
O O7 0.608354 0.810774 0.008903
O O8 0.139766 0.137905 0.750000
O O9 0.130175 0.198680 0.981849
O O10 0.072318 0.096473 0.974450
O O11 0.101790 0.260737 0.750000
O O12 0.000000 0.244370 0.554645
O O13 0.000000 0.056147 0.750000
O O14 0.000000 0.000000 0.500000
#
# Coordination Sequence:
#
# PCOD9476048 Si02
#       5
#    16  16  16  16   8
#     4  10  21  36  52  71  99 132 166 205 247 291
#     4   9  19  35  52  72 100 131 160 201 256 298
#     4   9  17  31  51  73  99 131 163 199 243 287
#     4   9  16  30  53  77  99 127 165 202 238 291
#     4  10  18  30  48  70  98 132 167 200 235 282
#
# _framework density 9.2592590000000001
#
# number of rings (size 3 to 8) (size 9 to 14) (size 15 to 20)
#    0.000    2.667    1.111    0.667    0.000    2.222 
#    0.000    2.222    0.000    0.000    0.000    0.000 
#    0.000    0.000    0.000    0.000    0.000    0.000 
#
# Total GULP energy -200759.318591 kJ/mol
# GULP energy per Si atom -5576.647739 kJ/mol
# Density = 0.923818 g / cm^3
# Si number density = 9.259259 Si / 1000 Ang^3
#
#
#
# Elastic Constant Matrix: (Units=GPa)
#
#
# Indices 1 2 3 4 5 6 
#
# 1 56.0578 1.1534 6.2648 0.0000 0.0000 0.0000
# 2 1.1534 3.5512 -1.8403 0.0000 0.0000 0.0000
# 3 6.2648 -1.8403 -2.7451 0.0000 0.0000 0.0000
# 4 0.0000 0.0000 0.0000 31.1427 0.0000 0.0000
# 5 0.0000 0.0000 0.0000 0.0000 8.7502 0.0000
# 6 0.0000 0.0000 0.0000 0.0000 0.0000 20.8472
#
#
#
# Elastic Compliance Matrix: (Units=1/GPa)
#
#
# Indices 1 2 3 4 5 6 
#
# 1 0.014617 0.009306 0.027119 0.000000 0.000000 0.000000
# 2 0.009306 0.214917 -0.122836 0.000000 0.000000 0.000000
# 3 0.027119 -0.122836 -0.220046 0.000000 0.000000 0.000000
# 4 0.000000 0.000000 0.000000 0.032110 0.000000 0.000000
# 5 0.000000 0.000000 0.000000 0.000000 0.114283 0.000000
# 6 0.000000 0.000000 0.000000 0.000000 0.000000 0.047968
#
#
# Mechanical properties :
#
#
# Convention : Reuss Voigt Hill
#
# Bulk Modulus (GPa) = -6.12235 7.55774 0.71770
# Shear Modulus (GPa) = 15.51695 15.56709 15.54202
#
# Velocity S-wave (km/s) = 2.89782 2.90250 2.90016
# Velocity P-wave (km/s) = 2.80771 3.91442 3.40631
#
# Compressibility (1/GPa) = -0.16333606
#
# Stress axis : x y z
#
# Youngs Moduli (GPa) = 68.41533 4.65295 -4.54451
#
# Poissons Ratio (x) = -0.04330 0.12324
# Poissons Ratio (y) = -0.63665 -0.55823
# Poissons Ratio (z) = -1.85533 0.57155
#
# Static dielectric constant tensor:
#      x y z
#    x 1.659040 0.000000 0.000000 
#    y 0.000000 1.602610 0.000000 
#    z 0.000000 0.000000 1.618320 
# 
# From -- ./inp_files/6082.got.cif
#   From: 2010.05.17/outbox.ucp.g08.bks.cvg/sg63_4_cif.got.tgz:6082.got - 2010.06.11 16:32:19.
