data_PCOD9476209
_publ_section_title
;
Structure prediction by ZEFSAII (Michael W. Deem and Ramdas Pophale) SiO2 
 PCOD9476209
Probable space group: C M C M
;
_chemical_formula_sum "Si O2"
_cell_formula_units_Z 44
_cell_length_a 12.000000
_cell_length_b 15.000000
_cell_length_c 24.000000
_cell_angle_alpha 90.000000
_cell_angle_beta 90.000000
_cell_angle_gamma 90.000000
_cell_volume 4320.000000
_symmetry_space_group_name_H-M "C M C M"
_symmetry_group_IT_number 63
_symmetry_cell_setting 'orthorhombic'
loop_
_space_group_symop_operation_xyz
x,y,z
-x,-y,1/2+z
x,-y,-z
-x,y,1/2-z
-x,-y,-z
x,y,1/2-z
-x,y,z
x,-y,1/2+z
1/2+x,1/2+y,z
1/2-x,1/2-y,1/2+z
1/2+x,1/2-y,-z
1/2-x,1/2+y,1/2-z
1/2-x,1/2-y,-z
1/2+x,1/2+y,1/2-z
1/2-x,1/2+y,z
1/2+x,1/2-y,1/2+z
loop_
_atom_site_type_symbol
_atom_site_label
_atom_site_fract_x
_atom_site_fract_y
_atom_site_fract_z
Si Si1 0.715429 0.778307 0.315593
Si Si2 0.000000 0.595710 0.813968
Si Si3 0.000000 0.604913 0.503644
Si Si4 0.247265 0.100940 0.122386
Si Si5 0.758223 0.645257 0.507955
Si Si6 0.000000 0.415388 0.624115
Si Si7 0.866423 0.912500 0.382649
O O1 0.737383 0.759982 0.250000
O O2 0.608588 0.842845 0.318674
O O3 0.692011 0.687639 0.349968
O O4 0.815443 0.833063 0.345061
O O5 0.000000 0.556639 0.750000
O O6 0.000000 0.521400 0.862378
O O7 0.000000 0.500000 0.500000
O O8 0.116089 0.631409 0.530100
O O9 0.000000 0.628824 0.437862
O O10 0.247888 0.104706 0.054339
O O11 0.375403 0.107854 0.144099
O O12 0.188898 0.006785 0.135759
O O13 0.750000 0.750000 0.500000
O O14 0.673384 0.608098 0.553752
O O15 0.000000 0.916326 0.379610
#
# Coordination Sequence:
#
# PCOD9476209 Si02
#       7
#    16   8   8  16  16   8  16
#     4  11  26  46  71 102 134 178 234 282 339 406
#     4  10  22  44  70  96 128 170 231 291 329 395
#     4  10  22  36  64  97 127 170 221 272 328 404
#     4  11  24  43  69 101 137 182 225 281 342 407
#     4  11  23  41  67 101 136 179 226 277 340 408
#     4  10  20  40  70  93 129 169 229 276 333 397
#     4  12  27  46  68 101 146 181 226 281 344 413
#
# _framework density 10.185185000000001
#
# number of rings (size 3 to 8) (size 9 to 14) (size 15 to 20)
#    0.000    1.091    3.636    2.727    3.818    3.273 
#    0.000    0.000    0.000    0.000    0.000    0.000 
#    0.000    0.000    0.000    0.000    0.000    0.000 
#
# Total GULP energy -245662.239527 kJ/mol
# GULP energy per Si atom -5583.232717 kJ/mol
# Density = 1.016200 g / cm^3
# Si number density = 10.185185 Si / 1000 Ang^3
#
#
#
# Elastic Constant Matrix: (Units=GPa)
#
#
# Indices 1 2 3 4 5 6 
#
# 1 116.5857 13.3943 12.8710 0.0000 0.0000 0.0000
# 2 13.3943 90.0229 9.1730 0.0000 0.0000 0.0000
# 3 12.8710 9.1730 84.2524 0.0000 0.0000 0.0000
# 4 0.0000 0.0000 0.0000 26.7853 0.0000 0.0000
# 5 0.0000 0.0000 0.0000 0.0000 24.1957 0.0000
# 6 0.0000 0.0000 0.0000 0.0000 0.0000 26.9063
#
#
#
# Elastic Compliance Matrix: (Units=1/GPa)
#
#
# Indices 1 2 3 4 5 6 
#
# 1 0.008849 -0.001192 -0.001222 0.000000 0.000000 0.000000
# 2 -0.001192 0.011394 -0.001058 0.000000 0.000000 0.000000
# 3 -0.001222 -0.001058 0.012171 0.000000 0.000000 0.000000
# 4 0.000000 0.000000 0.000000 0.037334 0.000000 0.000000
# 5 0.000000 0.000000 0.000000 0.000000 0.041330 0.000000
# 6 0.000000 0.000000 0.000000 0.000000 0.000000 0.037166
#
#
# Mechanical properties :
#
#
# Convention : Reuss Voigt Hill
#
# Bulk Modulus (GPa) = 39.26394 40.19305 39.72849
# Shear Modulus (GPa) = 30.54778 32.60564 31.57671
#
# Velocity S-wave (km/s) = 3.87669 4.00514 3.94144
# Velocity P-wave (km/s) = 6.27337 6.41578 6.34497
#
# Compressibility (1/GPa) = 0.02546866
#
# Stress axis : x y z
#
# Youngs Moduli (GPa) = 113.00376 87.76931 82.16237
#
# Poissons Ratio (x) = 0.10463 0.10041
# Poissons Ratio (y) = 0.13472 0.08696
# Poissons Ratio (z) = 0.13810 0.09289
#
# Static dielectric constant tensor:
#      x y z
#    x 1.717210 0.000000 0.000000 
#    y 0.000000 1.709460 0.000000 
#    z 0.000000 0.000000 1.680390 
# 
# From -- ./inp_files/61293.got.cif
#   From: 2010.05.17/outbox.ucp.g08.bks.cvg/sg63_31_cif.got.tgz:61293.got - 2010.06.11 16:32:19.
