data_PCOD9476173
_publ_section_title
;
Structure prediction by ZEFSAII (Michael W. Deem and Ramdas Pophale) SiO2 
 PCOD9476173
Probable space group: C M C M
;
_chemical_formula_sum "Si O2"
_cell_formula_units_Z 48
_cell_length_a 9.000000
_cell_length_b 21.000000
_cell_length_c 27.000000
_cell_angle_alpha 90.000000
_cell_angle_beta 90.000000
_cell_angle_gamma 90.000000
_cell_volume 5103.000000
_symmetry_space_group_name_H-M "C M C M"
_symmetry_group_IT_number 63
_symmetry_cell_setting 'orthorhombic'
loop_
_space_group_symop_operation_xyz
x,y,z
-x,-y,1/2+z
x,-y,-z
-x,y,1/2-z
-x,-y,-z
x,y,1/2-z
-x,y,z
x,-y,1/2+z
1/2+x,1/2+y,z
1/2-x,1/2-y,1/2+z
1/2+x,1/2-y,-z
1/2-x,1/2+y,1/2-z
1/2-x,1/2-y,-z
1/2+x,1/2+y,1/2-z
1/2-x,1/2+y,z
1/2+x,1/2-y,1/2+z
loop_
_atom_site_type_symbol
_atom_site_label
_atom_site_fract_x
_atom_site_fract_y
_atom_site_fract_z
Si Si1 0.322452 0.513781 0.808582
Si Si2 0.680802 0.429397 0.514173
Si Si3 0.820612 0.107924 0.373685
Si Si4 0.177820 0.198737 0.536153
Si Si5 0.166472 0.642476 0.691184
Si Si6 0.323545 0.756346 0.856482
O O1 0.291383 0.505078 0.750000
O O2 0.500000 0.521456 0.813978
O O3 0.277419 0.451299 0.838918
O O4 0.246684 0.578523 0.827621
O O5 0.734071 0.500000 0.500000
O O6 0.500000 0.431767 0.512947
O O7 0.722402 0.408704 0.569812
O O8 0.728121 0.372657 0.477457
O O9 0.749470 0.174226 0.356958
O O10 0.000000 0.114037 0.371992
O O11 0.250000 0.250000 0.500000
O O12 0.209558 0.221648 0.591327
O O13 0.000000 0.200358 0.529165
O O14 0.157286 0.633580 0.750000
O O15 0.256185 0.706890 0.682161
O O16 0.000000 0.648248 0.670748
O O17 0.500000 0.762289 0.850798
#
# Coordination Sequence:
#
# PCOD9476173 Si02
#       6
#    16  16  16  16  16  16
#     4   9  19  36  58  84 112 142 181 231 283 335
#     4   9  18  32  53  79 106 142 188 233 274 323
#     4  10  20  35  57  81 112 153 193 231 277 334
#     4  10  20  35  56  80 111 148 186 228 276 331
#     4  10  22  40  61  84 111 146 188 231 280 342
#     4  11  23  36  56  85 117 150 188 235 284 333
#
# _framework density 9.4062319999999993
#
# number of rings (size 3 to 8) (size 9 to 14) (size 15 to 20)
#    0.000    2.167    1.667    1.000    2.333    3.000 
#    0.000    1.667    0.000    1.000    0.000    0.000 
#    0.000    0.000    0.000    0.000    0.000    0.000 
#
# Total GULP energy -267795.296929 kJ/mol
# GULP energy per Si atom -5579.068686 kJ/mol
# Density = 0.938482 g / cm^3
# Si number density = 9.406232 Si / 1000 Ang^3
#
#
#
# Elastic Constant Matrix: (Units=GPa)
#
#
# Indices 1 2 3 4 5 6 
#
# 1 19.0762 39.6062 26.8540 0.0000 0.0000 0.0000
# 2 39.6062 187.6501 35.3347 0.0000 0.0000 0.0000
# 3 26.8540 35.3347 24.9542 0.0000 0.0000 0.0000
# 4 0.0000 0.0000 0.0000 35.9316 0.0000 0.0000
# 5 0.0000 0.0000 0.0000 0.0000 15.8395 0.0000
# 6 0.0000 0.0000 0.0000 0.0000 0.0000 35.7109
#
#
#
# Elastic Compliance Matrix: (Units=1/GPa)
#
#
# Indices 1 2 3 4 5 6 
#
# 1 -0.101622 0.001168 0.107705 0.000000 0.000000 0.000000
# 2 0.001168 0.007253 -0.011527 0.000000 0.000000 0.000000
# 3 0.107705 -0.011527 -0.059509 0.000000 0.000000 0.000000
# 4 0.000000 0.000000 0.000000 0.027831 0.000000 0.000000
# 5 0.000000 0.000000 0.000000 0.000000 0.063133 0.000000
# 6 0.000000 0.000000 0.000000 0.000000 0.000000 0.028003
#
#
# Mechanical properties :
#
#
# Convention : Reuss Voigt Hill
#
# Bulk Modulus (GPa) = 24.50172 48.36337 36.43255
# Shear Modulus (GPa) = -23.14830 26.15545 1.50358
#
# Velocity S-wave (km/s) = -3.51162 3.73275 0.89497
# Velocity P-wave (km/s) = 1.84106 6.65897 4.52506
#
# Compressibility (1/GPa) = 0.04081345
#
# Stress axis : x y z
#
# Youngs Moduli (GPa) = -9.84038 137.87164 -16.80414
#
# Poissons Ratio (x) = -0.16102 1.80989
# Poissons Ratio (y) = 0.01149 -0.19370
# Poissons Ratio (z) = 1.05986 1.58926
#
# Static dielectric constant tensor:
#      x y z
#    x 1.687070 0.000000 0.000000 
#    y 0.000000 1.626150 0.000000 
#    z 0.000000 0.000000 1.686140 
# 
# From -- ./inp_files/66886.got.cif
#   From: 2010.05.17/outbox.ucp.g08.bks.cvg/sg63_34_cif.got.tgz:66886.got - 2010.06.11 16:32:19.
