data_PCOD9476641
_publ_section_title
;
Structure prediction by ZEFSAII (Michael W. Deem and Ramdas Pophale) SiO2 
 PCOD9476641
Probable space group: C M C A
;
_chemical_formula_sum "Si O2"
_cell_formula_units_Z 96
_cell_length_a 8.571571
_cell_length_b 27.704414
_cell_length_c 23.513231
_cell_angle_alpha 90.000000
_cell_angle_beta 90.000000
_cell_angle_gamma 90.000000
_cell_volume 5583.695233
_symmetry_space_group_name_H-M "C M C A"
_symmetry_group_IT_number 64
_symmetry_cell_setting 'orthorhombic'
loop_
_space_group_symop_operation_xyz
x,y,z
-x,1/2-y,1/2+z
x,-y,-z
-x,1/2+y,1/2-z
-x,-y,-z
x,1/2+y,1/2-z
-x,y,z
x,1/2-y,1/2+z
1/2+x,1/2+y,z
1/2-x,-y,1/2+z
1/2+x,1/2-y,-z
1/2-x,y,1/2-z
1/2-x,1/2-y,-z
1/2+x,y,1/2-z
1/2-x,1/2+y,z
1/2+x,-y,1/2+z
loop_
_atom_site_type_symbol
_atom_site_label
_atom_site_fract_x
_atom_site_fract_y
_atom_site_fract_z
Si Si1 0.318897 0.872999 0.096326
Si Si2 0.684816 0.695300 0.813591
Si Si3 0.323141 0.373128 0.907700
Si Si4 0.311451 0.200896 0.314535
Si Si5 0.188206 0.444535 0.999274
Si Si6 0.677324 0.699150 0.987509
O O1 0.500000 0.881383 0.109751
O O2 0.231907 0.852387 0.151299
O O3 0.294705 0.828658 0.053362
O O4 0.257071 0.917051 0.057044
O O5 0.500000 0.700334 0.812300
O O6 0.750000 0.690810 0.750000
O O7 0.754136 0.746440 0.836558
O O8 0.500000 0.389049 0.894322
O O9 0.257390 0.344780 0.852757
O O10 0.239638 0.416122 0.942251
O O11 0.331238 0.331044 0.954727
O O12 0.500000 0.201334 0.315223
O O13 0.250000 0.196488 0.250000
O O14 0.000000 0.442931 0.000919
O O15 0.239539 0.500000 0.000000
O O16 0.500000 0.701351 0.963679
O O17 0.750000 0.750000 0.000000
#
# Coordination Sequence:
#
# PCOD9476641 Si02
#       6
#    16  16  16  16  16  16
#     4  10  19  32  49  70  98 128 161 202 246 294
#     4  11  21  33  50  73 102 136 172 203 239 286
#     4   9  19  32  47  69  97 128 162 201 242 290
#     4  10  19  32  49  72 103 137 172 204 239 283
#     4   9  19  35  55  77  98 123 158 203 255 304
#     4  10  18  28  43  66  96 128 161 197 242 292
#
# _framework density 17.192914999999999
#
# number of rings (size 3 to 8) (size 9 to 14) (size 15 to 20)
#    0.000    2.167    0.000    5.000    0.000    4.333 
#    0.000    0.000    0.000    1.000    0.000    2.333 
#    0.000    0.000    0.000    0.000    0.000    0.000 
#
# Total GULP energy -267345.820319 kJ/mol
# GULP energy per Si atom -5569.704590 kJ/mol
# Density = 1.715378 g / cm^3
# Si number density = 17.192915 Si / 1000 Ang^3
#
#
#
# Elastic Constant Matrix: (Units=GPa)
#
#
# Indices 1 2 3 4 5 6 
#
# 1 55.7273 25.7122 17.9077 0.0000 0.0000 0.0000
# 2 25.7122 130.0232 46.7060 0.0000 0.0000 0.0000
# 3 17.9077 46.7060 76.8187 0.0000 0.0000 0.0000
# 4 0.0000 0.0000 0.0000 22.5539 0.0000 0.0000
# 5 0.0000 0.0000 0.0000 0.0000 24.3898 0.0000
# 6 0.0000 0.0000 0.0000 0.0000 0.0000 16.9105
#
#
#
# Elastic Compliance Matrix: (Units=1/GPa)
#
#
# Indices 1 2 3 4 5 6 
#
# 1 0.020247 -0.002953 -0.002924 0.000000 0.000000 0.000000
# 2 -0.002953 0.010271 -0.005556 0.000000 0.000000 0.000000
# 3 -0.002924 -0.005556 0.017078 0.000000 0.000000 0.000000
# 4 0.000000 0.000000 0.000000 0.044338 0.000000 0.000000
# 5 0.000000 0.000000 0.000000 0.000000 0.041001 0.000000
# 6 0.000000 0.000000 0.000000 0.000000 0.000000 0.059135
#
#
# Mechanical properties :
#
#
# Convention : Reuss Voigt Hill
#
# Bulk Modulus (GPa) = 40.44062 49.24678 44.84370
# Shear Modulus (GPa) = 22.40350 24.25372 23.32861
#
# Velocity S-wave (km/s) = 3.61372 3.75998 3.68757
# Velocity P-wave (km/s) = 6.40193 6.89607 6.65359
#
# Compressibility (1/GPa) = 0.02472761
#
# Stress axis : x y z
#
# Youngs Moduli (GPa) = 49.39022 97.36306 58.55645
#
# Poissons Ratio (x) = 0.28756 0.17123
# Poissons Ratio (y) = 0.14587 0.32535
# Poissons Ratio (z) = 0.14443 0.54097
#
# Static dielectric constant tensor:
#      x y z
#    x 1.599100 0.000000 0.000000 
#    y 0.000000 1.563420 0.000000 
#    z 0.000000 0.000000 1.607850 
# 
# From -- ./inp_files/43209.got.cif
#   From: 2010.05.17/outbox.cif.g08.bks.cpg/sg64_22_cif.got.tgz:43209.got - 2010.06.03 16:29:19.
