data_PCOD9476942
_publ_section_title
;
Structure prediction by ZEFSAII (Michael W. Deem and Ramdas Pophale) SiO2 
 PCOD9476942
Probable space group: C M C A
;
_chemical_formula_sum "Si O2"
_cell_formula_units_Z 88
_cell_length_a 34.355796
_cell_length_b 5.481387
_cell_length_c 18.307681
_cell_angle_alpha 90.000000
_cell_angle_beta 90.000000
_cell_angle_gamma 90.000000
_cell_volume 3447.655134
_symmetry_space_group_name_H-M "C M C A"
_symmetry_group_IT_number 64
_symmetry_cell_setting 'orthorhombic'
loop_
_space_group_symop_operation_xyz
x,y,z
-x,1/2-y,1/2+z
x,-y,-z
-x,1/2+y,1/2-z
-x,-y,-z
x,1/2+y,1/2-z
-x,y,z
x,1/2-y,1/2+z
1/2+x,1/2+y,z
1/2-x,-y,1/2+z
1/2+x,1/2-y,-z
1/2-x,y,1/2-z
1/2-x,1/2-y,-z
1/2+x,y,1/2-z
1/2-x,1/2+y,z
1/2+x,-y,1/2+z
loop_
_atom_site_type_symbol
_atom_site_label
_atom_site_fract_x
_atom_site_fract_y
_atom_site_fract_z
Si Si1 0.500000 0.717141 0.203563
Si Si2 0.633681 0.000000 0.500000
Si Si3 0.149361 0.815972 0.370692
Si Si4 0.000000 0.747858 0.047782
Si Si5 0.915993 0.381942 0.708445
Si Si6 0.772786 0.010536 0.411768
Si Si7 0.918528 0.859534 0.577602
O O1 0.500000 0.484875 0.259148
O O2 0.542775 0.685069 0.164532
O O3 0.656735 0.813490 0.550190
O O4 0.605241 0.880446 0.441701
O O5 0.130294 0.630274 0.314006
O O6 0.187811 0.974386 0.364728
O O7 0.110340 0.978556 0.376077
O O8 0.961686 0.715688 0.095445
O O9 0.000000 0.500000 0.000000
O O10 0.000000 0.000000 0.000000
O O11 0.919949 0.664547 0.731893
O O12 0.746033 0.773847 0.395442
O O13 0.778971 0.000000 0.500000
O O14 0.920225 0.000000 0.500000
#
# Coordination Sequence:
#
# PCOD9476942 Si02
#       7
#     8   8  16   8  16  16  16
#     4   8  16  37  63  87 119 159 219 275 312 362
#     4  10  20  35  58  90 124 170 202 262 322 381
#     4  11  24  38  65  93 129 163 221 273 331 397
#     4  10  18  33  49  74 122 168 200 231 290 383
#     4  10  23  42  66  94 126 171 220 273 328 382
#     4  10  23  40  63  95 129 166 206 260 323 394
#     4   9  19  33  52  81 118 164 200 244 302 369
#
# _framework density 25.524594
#
# number of rings (size 3 to 8) (size 9 to 14) (size 15 to 20)
#    0.000    2.182    0.909    1.636    8.909    0.727 
#    0.000    1.818    0.000    3.273    0.000    0.000 
#    0.000    0.000    0.000    0.000    0.000    0.000 
#
# Total GULP energy -245268.694156 kJ/mol
# GULP energy per Si atom -5574.288504 kJ/mol
# Density = 2.546650 g / cm^3
# Si number density = 25.524594 Si / 1000 Ang^3
#
#
#
# Elastic Constant Matrix: (Units=GPa)
#
#
# Indices 1 2 3 4 5 6 
#
# 1 149.2348 42.1529 23.4125 0.0000 0.0000 0.0000
# 2 42.1529 153.3213 18.6156 0.0000 0.0000 0.0000
# 3 23.4125 18.6156 26.9043 0.0000 0.0000 0.0000
# 4 0.0000 0.0000 0.0000 48.4803 0.0000 0.0000
# 5 0.0000 0.0000 0.0000 0.0000 23.6032 0.0000
# 6 0.0000 0.0000 0.0000 0.0000 0.0000 30.8452
#
#
#
# Elastic Compliance Matrix: (Units=1/GPa)
#
#
# Indices 1 2 3 4 5 6 
#
# 1 0.008060 -0.001490 -0.005984 0.000000 0.000000 0.000000
# 2 -0.001490 0.007396 -0.003821 0.000000 0.000000 0.000000
# 3 -0.005984 -0.003821 0.045020 0.000000 0.000000 0.000000
# 4 0.000000 0.000000 0.000000 0.020627 0.000000 0.000000
# 5 0.000000 0.000000 0.000000 0.000000 0.042367 0.000000
# 6 0.000000 0.000000 0.000000 0.000000 0.000000 0.032420
#
#
# Mechanical properties :
#
#
# Convention : Reuss Voigt Hill
#
# Bulk Modulus (GPa) = 26.39402 55.31361 40.85381
# Shear Modulus (GPa) = 26.16337 36.93771 31.55054
#
# Velocity S-wave (km/s) = 3.20508 3.80826 3.51961
# Velocity P-wave (km/s) = 4.90507 6.40741 5.70590
#
# Compressibility (1/GPa) = 0.03788737
#
# Stress axis : x y z
#
# Youngs Moduli (GPa) = 124.06476 135.21363 22.21256
#
# Poissons Ratio (x) = 0.20141 0.13291
# Poissons Ratio (y) = 0.18480 0.08487
# Poissons Ratio (z) = 0.74235 0.51665
#
# Static dielectric constant tensor:
#      x y z
#    x 2.019320 0.000000 0.000000 
#    y 0.000000 1.496720 0.000000 
#    z 0.000000 0.000000 3.431060 
# 
# From -- ./inp_files/47111.got.cif
#   From: 2010.05.17/outbox.cif.g08.bks.cpg/sg64_24_cif.got.tgz:47111.got - 2010.06.03 16:29:19.
