data_PCOD9476513
_publ_section_title
;
Structure prediction by ZEFSAII (Michael W. Deem and Ramdas Pophale) SiO2 
 PCOD9476513
Probable space group: C M C A
;
_chemical_formula_sum "Si O2"
_cell_formula_units_Z 104
_cell_length_a 9.188347
_cell_length_b 23.034360
_cell_length_c 27.480453
_cell_angle_alpha 90.000000
_cell_angle_beta 90.000000
_cell_angle_gamma 90.000000
_cell_volume 5816.174469
_symmetry_space_group_name_H-M "C M C A"
_symmetry_group_IT_number 64
_symmetry_cell_setting 'orthorhombic'
loop_
_space_group_symop_operation_xyz
x,y,z
-x,1/2-y,1/2+z
x,-y,-z
-x,1/2+y,1/2-z
-x,-y,-z
x,1/2+y,1/2-z
-x,y,z
x,1/2-y,1/2+z
1/2+x,1/2+y,z
1/2-x,-y,1/2+z
1/2+x,1/2-y,-z
1/2-x,y,1/2-z
1/2-x,1/2-y,-z
1/2+x,y,1/2-z
1/2-x,1/2+y,z
1/2+x,-y,1/2+z
loop_
_atom_site_type_symbol
_atom_site_label
_atom_site_fract_x
_atom_site_fract_y
_atom_site_fract_z
Si Si1 0.669585 0.823260 0.921107
Si Si2 0.332818 0.952879 0.890475
Si Si3 0.328051 0.151613 0.700274
Si Si4 0.670740 0.880271 0.024262
Si Si5 0.828413 0.708560 0.888672
Si Si6 0.673254 0.985790 0.301385
Si Si7 0.229527 0.000000 0.500000
O O1 0.500000 0.808972 0.911263
O O2 0.703263 0.884503 0.895004
O O3 0.770734 0.770119 0.907341
O O4 0.682706 0.838464 0.978052
O O5 0.500000 0.958933 0.874627
O O6 0.234453 0.982803 0.849554
O O7 0.327027 0.978856 0.945796
O O8 0.500000 0.159311 0.703933
O O9 0.250000 0.167675 0.750000
O O10 0.261151 0.189560 0.657904
O O11 0.299078 0.083093 0.691687
O O12 0.500000 0.902490 0.024482
O O13 0.694875 0.841978 0.071445
O O14 0.777064 0.935348 0.017519
O O15 0.000000 0.711303 0.878741
O O16 0.500000 0.994812 0.297047
O O17 0.750000 0.002717 0.250000
#
# Coordination Sequence:
#
# PCOD9476513 Si02
#       7
#    16  16  16  16  16  16   8
#     4   9  19  35  52  74 107 146 184 220 259 308
#     4  10  19  33  56  82 110 145 183 222 265 317
#     4  10  21  37  56  79 106 135 169 214 265 317
#     4   9  17  29  49  77 107 140 178 217 260 311
#     4  11  21  33  53  79 105 139 181 223 266 312
#     4  10  21  37  58  83 111 142 177 220 272 325
#     4  10  17  30  53  82 113 144 179 220 267 324
#
# _framework density 17.881170000000001
#
# number of rings (size 3 to 8) (size 9 to 14) (size 15 to 20)
#    0.000    2.154    0.000    5.077    0.000    3.692 
#    0.000    1.923    0.000    6.462    0.000    0.000 
#    0.000    0.000    0.000    0.000    0.000    0.000 
#
# Total GULP energy -289501.233791 kJ/mol
# GULP energy per Si atom -5567.331419 kJ/mol
# Density = 1.784047 g / cm^3
# Si number density = 17.881170 Si / 1000 Ang^3
#
#
#
# Elastic Constant Matrix: (Units=GPa)
#
#
# Indices 1 2 3 4 5 6 
#
# 1 33.3858 37.8287 29.6266 0.0000 0.0000 0.0000
# 2 37.8287 71.3287 46.3262 0.0000 0.0000 0.0000
# 3 29.6266 46.3262 87.3969 0.0000 0.0000 0.0000
# 4 0.0000 0.0000 0.0000 17.0641 0.0000 0.0000
# 5 0.0000 0.0000 0.0000 0.0000 13.7318 0.0000
# 6 0.0000 0.0000 0.0000 0.0000 0.0000 23.8515
#
#
#
# Elastic Compliance Matrix: (Units=1/GPa)
#
#
# Indices 1 2 3 4 5 6 
#
# 1 0.077656 -0.036733 -0.006853 0.000000 0.000000 0.000000
# 2 -0.036733 0.038756 -0.008091 0.000000 0.000000 0.000000
# 3 -0.006853 -0.008091 0.018054 0.000000 0.000000 0.000000
# 4 0.000000 0.000000 0.000000 0.058603 0.000000 0.000000
# 5 0.000000 0.000000 0.000000 0.000000 0.072824 0.000000
# 6 0.000000 0.000000 0.000000 0.000000 0.000000 0.041926
#
#
# Mechanical properties :
#
#
# Convention : Reuss Voigt Hill
#
# Bulk Modulus (GPa) = 32.14341 46.63049 39.38695
# Shear Modulus (GPa) = 11.86115 16.15147 14.00631
#
# Velocity S-wave (km/s) = 2.57832 3.00870 2.80179
# Velocity P-wave (km/s) = 5.18447 6.18096 5.70452
#
# Compressibility (1/GPa) = 0.03111057
#
# Stress axis : x y z
#
# Youngs Moduli (GPa) = 12.87726 25.80263 55.38922
#
# Poissons Ratio (x) = 0.94782 0.37961
# Poissons Ratio (y) = 0.47302 0.44815
# Poissons Ratio (z) = 0.08825 0.20877
#
# Static dielectric constant tensor:
#      x y z
#    x 1.615960 0.000000 0.000000 
#    y 0.000000 1.604300 0.000000 
#    z 0.000000 0.000000 1.644720 
# 
# From -- ./inp_files/52111.got.cif
#   From: 2010.05.17/outbox.cif.g08.bks.cpg/sg64_27_cif.got.tgz:52111.got - 2010.06.03 16:29:19.
