data_PCOD9476925
_publ_section_title
;
Structure prediction by ZEFSAII (Michael W. Deem and Ramdas Pophale) SiO2 
 PCOD9476925
Probable space group: C M C A
;
_chemical_formula_sum "Si O2"
_cell_formula_units_Z 72
_cell_length_a 16.703058
_cell_length_b 15.451581
_cell_length_c 15.023476
_cell_angle_alpha 90.000000
_cell_angle_beta 90.000000
_cell_angle_gamma 90.000000
_cell_volume 3877.388694
_symmetry_space_group_name_H-M "C M C A"
_symmetry_group_IT_number 64
_symmetry_cell_setting 'orthorhombic'
loop_
_space_group_symop_operation_xyz
x,y,z
-x,1/2-y,1/2+z
x,-y,-z
-x,1/2+y,1/2-z
-x,-y,-z
x,1/2+y,1/2-z
-x,y,z
x,1/2-y,1/2+z
1/2+x,1/2+y,z
1/2-x,-y,1/2+z
1/2+x,1/2-y,-z
1/2-x,y,1/2-z
1/2-x,1/2-y,-z
1/2+x,y,1/2-z
1/2-x,1/2+y,z
1/2+x,-y,1/2+z
loop_
_atom_site_type_symbol
_atom_site_label
_atom_site_fract_x
_atom_site_fract_y
_atom_site_fract_z
Si Si1 0.159762 0.796220 0.824248
Si Si2 0.667448 0.275856 0.136227
Si Si3 0.750000 0.452146 0.750000
Si Si4 0.764926 0.935056 0.419919
Si Si5 0.589356 0.691887 0.528781
O O1 0.246972 0.773513 0.865236
O O2 0.143341 0.733943 0.739378
O O3 0.177246 0.891089 0.785240
O O4 0.099282 0.771556 0.901569
O O5 0.691453 0.370818 0.102910
O O6 0.608613 0.228985 0.068744
O O7 0.779807 0.510238 0.831076
O O8 0.842326 0.877640 0.445897
O O9 0.746475 0.000000 0.500000
O O10 0.500000 0.656312 0.533690
#
# Coordination Sequence:
#
# PCOD9476925 Si02
#       5
#    16  16   8  16  16
#     4   9  18  36  57  75  98 136 181 215 250 304
#     4   9  18  35  55  75  99 134 180 214 246 300
#     4  10  18  32  58  82  98 122 174 232 264 288
#     4  11  19  32  55  80 103 128 170 225 266 295
#     4  11  22  35  51  75 110 145 171 200 251 320
#
# _framework density 18.569199000000001
#
# number of rings (size 3 to 8) (size 9 to 14) (size 15 to 20)
#    0.000    2.222    0.000    9.333    0.000    1.333 
#    0.000    1.111    0.000    6.000    0.000    0.000 
#    0.000    0.000    0.000    0.000    0.000    0.000 
#
# Total GULP energy -200646.554055 kJ/mol
# GULP energy per Si atom -5573.515390 kJ/mol
# Density = 1.852693 g / cm^3
# Si number density = 18.569199 Si / 1000 Ang^3
#
#
#
# Elastic Constant Matrix: (Units=GPa)
#
#
# Indices 1 2 3 4 5 6 
#
# 1 19.5180 -2.2263 33.6393 0.0000 0.0000 0.0000
# 2 -2.2263 72.4590 20.9426 0.0000 0.0000 0.0000
# 3 33.6393 20.9426 78.5273 0.0000 0.0000 0.0000
# 4 0.0000 0.0000 0.0000 27.3132 0.0000 0.0000
# 5 0.0000 0.0000 0.0000 0.0000 5.3994 0.0000
# 6 0.0000 0.0000 0.0000 0.0000 0.0000 0.6640
#
#
#
# Elastic Compliance Matrix: (Units=1/GPa)
#
#
# Indices 1 2 3 4 5 6 
#
# 1 0.309337 0.051797 -0.146326 0.000000 0.000000 0.000000
# 2 0.051797 0.023627 -0.028489 0.000000 0.000000 0.000000
# 3 -0.146326 -0.028489 0.083015 0.000000 0.000000 0.000000
# 4 0.000000 0.000000 0.000000 0.036612 0.000000 0.000000
# 5 0.000000 0.000000 0.000000 0.000000 0.185205 0.000000
# 6 0.000000 0.000000 0.000000 0.000000 0.000000 1.506015
#
#
# Mechanical properties :
#
#
# Convention : Reuss Voigt Hill
#
# Bulk Modulus (GPa) = 5.88442 30.57949 18.23196
# Shear Modulus (GPa) = 2.04374 14.55190 8.29782
#
# Velocity S-wave (km/s) = 1.05024 2.80243 2.11620
# Velocity P-wave (km/s) = 2.15556 5.19375 3.97627
#
# Compressibility (1/GPa) = 0.16994017
#
# Stress axis : x y z
#
# Youngs Moduli (GPa) = 3.23272 42.32522 12.04600
#
# Poissons Ratio (x) = -2.19230 1.76265
# Poissons Ratio (y) = -0.16744 0.34318
# Poissons Ratio (z) = 0.47303 1.20582
#
# Static dielectric constant tensor:
#      x y z
#    x 1.628860 0.000000 0.000000 
#    y 0.000000 1.695710 0.000000 
#    z 0.000000 0.000000 1.665530 
# 
# From -- ./inp_files/25125.got.cif
#   From: 2010.05.17/outbox.cif.g08.bks.cpg/sg64_13_cif.got.tgz:25125.got - 2010.06.03 16:29:19.
