data_PCOD9476477
_publ_section_title
;
Structure prediction by ZEFSAII (Michael W. Deem and Ramdas Pophale) SiO2 
 PCOD9476477
Probable space group: C M C A
;
_chemical_formula_sum "Si O2"
_cell_formula_units_Z 64
_cell_length_a 5.498349
_cell_length_b 25.816136
_cell_length_c 19.936044
_cell_angle_alpha 90.000000
_cell_angle_beta 90.000000
_cell_angle_gamma 90.000000
_cell_volume 2829.844205
_symmetry_space_group_name_H-M "C M C A"
_symmetry_group_IT_number 64
_symmetry_cell_setting 'orthorhombic'
loop_
_space_group_symop_operation_xyz
x,y,z
-x,1/2-y,1/2+z
x,-y,-z
-x,1/2+y,1/2-z
-x,-y,-z
x,1/2+y,1/2-z
-x,y,z
x,1/2-y,1/2+z
1/2+x,1/2+y,z
1/2-x,-y,1/2+z
1/2+x,1/2-y,-z
1/2-x,y,1/2-z
1/2-x,1/2-y,-z
1/2+x,y,1/2-z
1/2-x,1/2+y,z
1/2+x,-y,1/2+z
loop_
_atom_site_type_symbol
_atom_site_label
_atom_site_fract_x
_atom_site_fract_y
_atom_site_fract_z
Si Si1 0.000000 0.130761 0.153869
Si Si2 0.000000 0.924548 0.639306
Si Si3 0.500000 0.532065 0.706409
Si Si4 0.000000 0.353059 0.490356
Si Si5 0.500000 0.241254 0.356358
Si Si6 0.000000 0.624410 0.994304
Si Si7 0.500000 0.237439 0.062219
Si Si8 0.500000 0.853503 0.208171
O O1 0.251306 0.100920 0.167739
O O2 0.000000 0.138355 0.071357
O O3 0.000000 0.187971 0.186398
O O4 0.000000 0.911469 0.560073
O O5 0.000000 0.984978 0.654671
O O6 0.750000 0.527445 0.750000
O O7 0.500000 0.589623 0.675326
O O8 0.759718 0.378903 0.460092
O O9 0.000000 0.291849 0.476273
O O10 0.244529 0.236846 0.394933
O O11 0.500000 0.299461 0.330199
O O12 0.000000 0.684743 0.019665
O O13 0.750000 0.852304 0.250000
#
# Coordination Sequence:
#
# PCOD9476477 Si02
#       8
#     8   8   8   8   8   8   8   8
#     4  10  19  32  49  78 116 138 168 200 257 318
#     4  10  18  33  52  75 106 133 163 217 260 313
#     4  10  21  39  61  80  94 124 178 233 266 308
#     4  10  18  28  46  75 111 151 174 205 241 296
#     4  12  21  34  53  78 109 144 170 220 257 312
#     4  10  17  29  45  71 108 144 171 201 251 304
#     4  12  19  30  50  78 115 142 183 209 242 305
#     4  10  23  43  60  75  99 133 181 224 265 311
#
# _framework density 22.616088000000001
#
# number of rings (size 3 to 8) (size 9 to 14) (size 15 to 20)
#    0.000    1.500    5.000    3.000    0.000    0.000 
#    0.000    3.750    0.000    0.000    0.000   21.000 
#    0.000    0.000    0.000    0.000    0.000    0.000 
#
# Total GULP energy -178690.728167 kJ/mol
# GULP energy per Si atom -5584.085255 kJ/mol
# Density = 2.256461 g / cm^3
# Si number density = 22.616088 Si / 1000 Ang^3
#
#
#
# Elastic Constant Matrix: (Units=GPa)
#
#
# Indices 1 2 3 4 5 6 
#
# 1 244.6726 72.5081 30.3494 0.0000 0.0000 0.0000
# 2 72.5081 118.4106 16.3233 0.0000 0.0000 0.0000
# 3 30.3494 16.3233 17.8031 0.0000 0.0000 0.0000
# 4 0.0000 0.0000 0.0000 42.7952 0.0000 0.0000
# 5 0.0000 0.0000 0.0000 0.0000 13.1830 0.0000
# 6 0.0000 0.0000 0.0000 0.0000 0.0000 26.2864
#
#
#
# Elastic Compliance Matrix: (Units=1/GPa)
#
#
# Indices 1 2 3 4 5 6 
#
# 1 0.005759 -0.002488 -0.007537 0.000000 0.000000 0.000000
# 2 -0.002488 0.010742 -0.005608 0.000000 0.000000 0.000000
# 3 -0.007537 -0.005608 0.074160 0.000000 0.000000 0.000000
# 4 0.000000 0.000000 0.000000 0.023367 0.000000 0.000000
# 5 0.000000 0.000000 0.000000 0.000000 0.075855 0.000000
# 6 0.000000 0.000000 0.000000 0.000000 0.000000 0.038043
#
#
# Mechanical properties :
#
#
# Convention : Reuss Voigt Hill
#
# Bulk Modulus (GPa) = 16.83618 68.80533 42.82076
# Shear Modulus (GPa) = 17.92180 33.89996 25.91088
#
# Velocity S-wave (km/s) = 2.81808 3.87580 3.38847
# Velocity P-wave (km/s) = 4.24844 7.10763 5.85524
#
# Compressibility (1/GPa) = 0.05939589
#
# Stress axis : x y z
#
# Youngs Moduli (GPa) = 173.63560 93.09644 13.48429
#
# Poissons Ratio (x) = 0.23159 0.10163
# Poissons Ratio (y) = 0.43194 0.07562
# Poissons Ratio (z) = 1.30869 0.52209
#
# Static dielectric constant tensor:
#      x y z
#    x 1.890650 0.000000 0.000000 
#    y 0.000000 1.806430 0.000000 
#    z 0.000000 0.000000 1.895460 
# 
# From -- ./inp_files/42235.got.cif
#   From: 2010.05.17/outbox.cif.g08.bks.cpg/sg64_22_cif.got.tgz:42235.got - 2010.06.03 16:29:19.
