data_PCOD9476666
_publ_section_title
;
Structure prediction by ZEFSAII (Michael W. Deem and Ramdas Pophale) SiO2 
 PCOD9476666
Probable space group: C M C A
;
_chemical_formula_sum "Si O2"
_cell_formula_units_Z 120
_cell_length_a 20.926608
_cell_length_b 10.648204
_cell_length_c 29.694923
_cell_angle_alpha 90.000000
_cell_angle_beta 90.000000
_cell_angle_gamma 90.000000
_cell_volume 6616.943181
_symmetry_space_group_name_H-M "C M C A"
_symmetry_group_IT_number 64
_symmetry_cell_setting 'orthorhombic'
loop_
_space_group_symop_operation_xyz
x,y,z
-x,1/2-y,1/2+z
x,-y,-z
-x,1/2+y,1/2-z
-x,-y,-z
x,1/2+y,1/2-z
-x,y,z
x,1/2-y,1/2+z
1/2+x,1/2+y,z
1/2-x,-y,1/2+z
1/2+x,1/2-y,-z
1/2-x,y,1/2-z
1/2-x,1/2-y,-z
1/2+x,y,1/2-z
1/2-x,1/2+y,z
1/2+x,-y,1/2+z
loop_
_atom_site_type_symbol
_atom_site_label
_atom_site_fract_x
_atom_site_fract_y
_atom_site_fract_z
Si Si1 0.317989 0.677538 0.854985
Si Si2 0.663602 0.661969 0.647191
Si Si3 0.609789 0.500000 0.500000
Si Si4 0.673386 0.918726 0.796897
Si Si5 0.175044 0.128643 0.026409
Si Si6 0.927671 0.785705 0.435379
Si Si7 0.808464 0.820268 0.555424
Si Si8 0.672053 0.425464 0.806055
O O1 0.240735 0.661407 0.859350
O O2 0.337696 0.780902 0.817652
O O3 0.335175 0.742439 0.902531
O O4 0.344074 0.542715 0.838644
O O5 0.647803 0.534796 0.674012
O O6 0.620652 0.666258 0.602875
O O7 0.651827 0.791683 0.673971
O O8 0.572723 0.613700 0.523640
O O9 0.653302 0.557320 0.460055
O O10 0.650263 0.934713 0.745753
O O11 0.750696 0.928268 0.800652
O O12 0.106968 0.158626 0.047956
O O13 0.234039 0.141328 0.061280
O O14 0.186160 0.233583 0.988473
O O15 0.178959 0.000000 0.000000
O O16 0.000000 0.768202 0.419807
#
# Coordination Sequence:
#
# PCOD9476666 Si02
#       8
#    16  16   8  16  16  16  16  16
#     4  10  18  28  50  78 109 139 170 209 267 329
#     4  10  19  31  51  75 102 141 178 215 257 315
#     4  10  21  38  56  78 103 140 176 230 268 310
#     4   9  17  30  47  76 111 141 169 209 269 329
#     4  10  21  33  52  75 109 139 170 218 269 318
#     4  11  23  38  54  75 104 144 187 218 256 311
#     4  10  19  31  52  82 107 134 171 216 274 321
#     4   9  18  29  47  77 113 139 163 214 275 328
#
# _framework density 18.135262000000001
#
# number of rings (size 3 to 8) (size 9 to 14) (size 15 to 20)
#    0.000    2.133    2.000    1.800    1.867    4.533 
#    0.000    0.000    0.000    0.800    0.000    0.000 
#    0.000    0.000    0.000    0.000    0.000    0.000 
#
# Total GULP energy -334239.507774 kJ/mol
# GULP energy per Si atom -5570.658463 kJ/mol
# Density = 1.809399 g / cm^3
# Si number density = 18.135262 Si / 1000 Ang^3
#
#
#
# Elastic Constant Matrix: (Units=GPa)
#
#
# Indices 1 2 3 4 5 6 
#
# 1 49.1853 22.1013 15.2161 0.0000 0.0000 0.0000
# 2 22.1013 65.4597 -4.2964 0.0000 0.0000 0.0000
# 3 15.2161 -4.2964 56.0414 0.0000 0.0000 0.0000
# 4 0.0000 0.0000 0.0000 31.3405 0.0000 0.0000
# 5 0.0000 0.0000 0.0000 0.0000 15.6096 0.0000
# 6 0.0000 0.0000 0.0000 0.0000 0.0000 19.2229
#
#
#
# Elastic Compliance Matrix: (Units=1/GPa)
#
#
# Indices 1 2 3 4 5 6 
#
# 1 0.027217 -0.009723 -0.008135 0.000000 0.000000 0.000000
# 2 -0.009723 0.018828 0.004083 0.000000 0.000000 0.000000
# 3 -0.008135 0.004083 0.020366 0.000000 0.000000 0.000000
# 4 0.000000 0.000000 0.000000 0.031908 0.000000 0.000000
# 5 0.000000 0.000000 0.000000 0.000000 0.064063 0.000000
# 6 0.000000 0.000000 0.000000 0.000000 0.000000 0.052021
#
#
# Mechanical properties :
#
#
# Convention : Reuss Voigt Hill
#
# Bulk Modulus (GPa) = 25.73332 26.30314 26.01823
# Shear Modulus (GPa) = 19.61503 22.41230 21.01366
#
# Velocity S-wave (km/s) = 3.29233 3.51927 3.40769
# Velocity P-wave (km/s) = 5.35472 5.57216 5.46452
#
# Compressibility (1/GPa) = 0.03886012
#
# Stress axis : x y z
#
# Youngs Moduli (GPa) = 36.74144 53.11379 49.10176
#
# Poissons Ratio (x) = 0.51644 0.39946
# Poissons Ratio (y) = 0.35725 -0.20050
# Poissons Ratio (z) = 0.29890 -0.21689
#
# Static dielectric constant tensor:
#      x y z
#    x 1.608460 0.000000 0.000000 
#    y 0.000000 1.678830 0.000000 
#    z 0.000000 0.000000 1.655960 
# 
# From -- ./inp_files/53816.got.cif
#   From: 2010.05.17/outbox.cif.g08.bks.cpg/sg64_27_cif.got.tgz:53816.got - 2010.06.03 16:29:19.
