data_PCOD9476021
_publ_section_title
;
Structure prediction by ZEFSAII (Michael W. Deem and Ramdas Pophale) SiO2 
 PCOD9476021
Probable space group: C M C M
;
_chemical_formula_sum "Si O2"
_cell_formula_units_Z 112
_cell_length_a 28.909324
_cell_length_b 28.639381
_cell_length_c 7.561393
_cell_angle_alpha 90.000000
_cell_angle_beta 90.000000
_cell_angle_gamma 90.000000
_cell_volume 6260.418620
_symmetry_space_group_name_H-M "C M C M"
_symmetry_group_IT_number 63
_symmetry_cell_setting 'orthorhombic'
loop_
_space_group_symop_operation_xyz
x,y,z
-x,-y,1/2+z
x,-y,-z
-x,y,1/2-z
-x,-y,-z
x,y,1/2-z
-x,y,z
x,-y,1/2+z
1/2+x,1/2+y,z
1/2-x,1/2-y,1/2+z
1/2+x,1/2-y,-z
1/2-x,1/2+y,1/2-z
1/2-x,1/2-y,-z
1/2+x,1/2+y,1/2-z
1/2-x,1/2+y,z
1/2+x,1/2-y,1/2+z
loop_
_atom_site_type_symbol
_atom_site_label
_atom_site_fract_x
_atom_site_fract_y
_atom_site_fract_z
Si Si1 0.358639 0.797013 0.045778
Si Si2 0.309359 0.703110 0.962852
Si Si3 0.619954 0.448014 0.037801
Si Si4 0.722025 0.143913 0.967254
Si Si5 0.050880 0.246919 0.459118
Si Si6 0.273800 0.552078 0.961651
Si Si7 0.096767 0.150694 0.962150
O O1 0.368180 0.808819 0.250000
O O2 0.328165 0.839103 0.969513
O O3 0.406544 0.777572 0.965787
O O4 0.324436 0.752301 0.041749
O O5 0.308345 0.708252 0.750000
O O6 0.261093 0.681415 0.021263
O O7 0.350932 0.667237 0.004670
O O8 0.622153 0.444009 0.250000
O O9 0.673177 0.445086 0.970403
O O10 0.592068 0.402539 0.973889
O O11 0.602103 0.500000 0.000000
O O12 0.721106 0.144202 0.750000
O O13 0.740972 0.093634 0.025447
O O14 0.049268 0.256744 0.250000
O O15 0.064024 0.192233 0.474060
O O16 0.000000 0.255650 0.534378
O O17 0.276849 0.557603 0.750000
O O18 0.256624 0.500000 0.000000
O O19 0.092238 0.150975 0.750000
#
# Coordination Sequence:
#
# PCOD9476021 Si02
#       7
#    16  16  16  16  16  16  16
#     4   9  17  27  40  59  79 104 136 162 192 238
#     4   9  15  25  39  56  81 109 131 158 193 228
#     4   9  16  26  40  58  80 105 133 165 197 231
#     4   9  15  25  41  57  80 111 136 159 191 232
#     4   9  18  31  44  59  81 104 128 166 209 241
#     4   9  16  27  40  56  80 111 140 164 192 227
#     4   9  16  27  43  61  79 103 135 164 195 239
#
# _framework density 17.890177999999999
#
# number of rings (size 3 to 8) (size 9 to 14) (size 15 to 20)
#    0.000    3.000    1.429    0.429    0.000    0.857 
#    0.000    1.429    0.000    0.429    0.000    0.000 
#    0.000    0.571    0.000    0.429    0.000    0.857 
#
# Total GULP energy -312002.599699 kJ/mol
# GULP energy per Si atom -5571.474995 kJ/mol
# Density = 1.784946 g / cm^3
# Si number density = 17.890178 Si / 1000 Ang^3
#
#
#
# Elastic Constant Matrix: (Units=GPa)
#
#
# Indices 1 2 3 4 5 6 
#
# 1 92.6549 25.3976 2.4193 0.0000 0.0000 0.0000
# 2 25.3976 25.4770 -2.7303 0.0000 0.0000 0.0000
# 3 2.4193 -2.7303 38.2868 0.0000 0.0000 0.0000
# 4 0.0000 0.0000 0.0000 -0.2717 0.0000 0.0000
# 5 0.0000 0.0000 0.0000 0.0000 5.0910 0.0000
# 6 0.0000 0.0000 0.0000 0.0000 0.0000 7.7769
#
#
#
# Elastic Compliance Matrix: (Units=1/GPa)
#
#
# Indices 1 2 3 4 5 6 
#
# 1 0.015006 -0.015177 -0.002030 0.000000 0.000000 0.000000
# 2 -0.015177 0.054903 0.004874 0.000000 0.000000 0.000000
# 3 -0.002030 0.004874 0.026595 0.000000 0.000000 0.000000
# 4 0.000000 0.000000 0.000000 -3.681054 0.000000 0.000000
# 5 0.000000 0.000000 0.000000 0.000000 0.196425 0.000000
# 6 0.000000 0.000000 0.000000 0.000000 0.000000 0.128586
#
#
# Mechanical properties :
#
#
# Convention : Reuss Voigt Hill
#
# Bulk Modulus (GPa) = 13.92034 22.95467 18.43750
# Shear Modulus (GPa) = -1.55718 11.27472 4.85877
#
# Velocity S-wave (km/s) = -0.93397 2.51314 1.64978
# Velocity P-wave (km/s) = 2.57581 4.61301 3.73595
#
# Compressibility (1/GPa) = 0.07183732
#
# Stress axis : x y z
#
# Youngs Moduli (GPa) = 66.64089 18.21404 37.60169
#
# Poissons Ratio (x) = 0.27643 0.07635
# Poissons Ratio (y) = 1.01138 -0.18328
# Poissons Ratio (z) = 0.13531 -0.08878
#
# Static dielectric constant tensor:
#      x y z
#    x 1.627480 0.000000 0.000000 
#    y 0.000000 1.633240 0.000000 
#    z 0.000000 0.000000 1.681110 
# 
# From -- ./inp_files/24099.got.cif
#   From: 2010.05.17/outbox.cif.g08.bks.cpg/sg63_13_cif.got.tgz:24099.got - 2010.06.03 15:47:04.
