data_PCOD9476822
_publ_section_title
;
Structure prediction by ZEFSAII (Michael W. Deem and Ramdas Pophale) SiO2 
 PCOD9476822
Probable space group: C M C A
;
_chemical_formula_sum "Si O2"
_cell_formula_units_Z 96
_cell_length_a 8.965009
_cell_length_b 24.652811
_cell_length_c 19.977108
_cell_angle_alpha 90.000000
_cell_angle_beta 90.000000
_cell_angle_gamma 90.000000
_cell_volume 4415.194028
_symmetry_space_group_name_H-M "C M C A"
_symmetry_group_IT_number 64
_symmetry_cell_setting 'orthorhombic'
loop_
_space_group_symop_operation_xyz
x,y,z
-x,1/2-y,1/2+z
x,-y,-z
-x,1/2+y,1/2-z
-x,-y,-z
x,1/2+y,1/2-z
-x,y,z
x,1/2-y,1/2+z
1/2+x,1/2+y,z
1/2-x,-y,1/2+z
1/2+x,1/2-y,-z
1/2-x,y,1/2-z
1/2-x,1/2-y,-z
1/2+x,y,1/2-z
1/2-x,1/2+y,z
1/2+x,-y,1/2+z
loop_
_atom_site_type_symbol
_atom_site_label
_atom_site_fract_x
_atom_site_fract_y
_atom_site_fract_z
Si Si1 0.829217 0.233014 0.093064
Si Si2 0.324557 0.051311 0.684681
Si Si3 0.680364 0.329325 0.318675
Si Si4 0.828887 0.629954 0.320773
Si Si5 0.670006 0.955897 0.057835
Si Si6 0.177693 0.633700 0.043215
O O1 0.778486 0.291055 0.119161
O O2 0.831069 0.194339 0.159973
O O3 0.000000 0.236223 0.069252
O O4 0.767681 0.303939 0.956478
O O5 0.500000 0.055902 0.693594
O O6 0.250000 0.025487 0.750000
O O7 0.249149 0.110773 0.676527
O O8 0.277092 0.024040 0.616036
O O9 0.500000 0.331463 0.314745
O O10 0.750000 0.306633 0.250000
O O11 0.750000 0.620642 0.250000
O O12 0.744223 0.609272 0.387517
O O13 0.000000 0.610899 0.318827
O O14 0.500000 0.947404 0.083523
O O15 0.723806 0.901180 0.020856
O O16 0.662374 0.000000 0.000000
O O17 0.000000 0.631515 0.046369
#
# Coordination Sequence:
#
# PCOD9476822 Si02
#       6
#    16  16  16  16  16  16
#     4   8  17  29  46  75 114 155 195 239 280 335
#     4  11  23  40  64  93 122 152 192 243 292 344
#     4  10  18  31  52  81 117 158 200 241 288 339
#     4   9  16  27  44  70 107 149 192 235 277 329
#     4  10  22  43  68  90 115 150 193 243 303 364
#     4   9  18  32  53  80 111 148 189 236 290 347
#
# _framework density 21.743099000000001
#
# number of rings (size 3 to 8) (size 9 to 14) (size 15 to 20)
#    1.000    1.500    0.000    4.000    0.000    3.000 
#    0.000    1.667    0.000    0.000    0.000    0.000 
#    0.000    0.000    0.000    0.000    0.000    0.000 
#
# Total GULP energy -267737.619599 kJ/mol
# GULP energy per Si atom -5577.867075 kJ/mol
# Density = 2.169361 g / cm^3
# Si number density = 21.743099 Si / 1000 Ang^3
#
#
#
# Elastic Constant Matrix: (Units=GPa)
#
#
# Indices 1 2 3 4 5 6 
#
# 1 93.8621 6.5492 45.9214 0.0000 0.0000 0.0000
# 2 6.5492 48.5128 7.2159 0.0000 0.0000 0.0000
# 3 45.9214 7.2159 109.7180 0.0000 0.0000 0.0000
# 4 0.0000 0.0000 0.0000 20.8967 0.0000 0.0000
# 5 0.0000 0.0000 0.0000 0.0000 31.1956 0.0000
# 6 0.0000 0.0000 0.0000 0.0000 0.0000 12.8387
#
#
#
# Elastic Compliance Matrix: (Units=1/GPa)
#
#
# Indices 1 2 3 4 5 6 
#
# 1 0.013444 -0.000988 -0.005562 0.000000 0.000000 0.000000
# 2 -0.000988 0.020889 -0.000960 0.000000 0.000000 0.000000
# 3 -0.005562 -0.000960 0.011505 0.000000 0.000000 0.000000
# 4 0.000000 0.000000 0.000000 0.047854 0.000000 0.000000
# 5 0.000000 0.000000 0.000000 0.000000 0.032056 0.000000
# 6 0.000000 0.000000 0.000000 0.000000 0.000000 0.077890
#
#
# Mechanical properties :
#
#
# Convention : Reuss Voigt Hill
#
# Bulk Modulus (GPa) = 32.44793 41.27397 36.86095
# Shear Modulus (GPa) = 21.84062 25.81330 23.82696
#
# Velocity S-wave (km/s) = 3.17280 3.44931 3.31394
# Velocity P-wave (km/s) = 5.32709 5.90656 5.62429
#
# Compressibility (1/GPa) = 0.03081861
#
# Stress axis : x y z
#
# Youngs Moduli (GPa) = 74.38294 47.87136 86.91642
#
# Poissons Ratio (x) = 0.04728 0.48342
# Poissons Ratio (y) = 0.07346 0.08348
# Poissons Ratio (z) = 0.41371 0.04598
#
# Static dielectric constant tensor:
#      x y z
#    x 1.743890 0.000000 0.000000 
#    y 0.000000 1.860060 0.000000 
#    z 0.000000 0.000000 1.863810 
# 
# From -- ./inp_files/37084.got.cif
#   From: 2010.05.17/outbox.cif.g08.bks.cpg/sg64_19_cif.got.tgz:37084.got - 2010.06.03 16:29:19.
