data_PCOD9476956
_publ_section_title
;
Structure prediction by ZEFSAII (Michael W. Deem and Ramdas Pophale) SiO2 
 PCOD9476956
Probable space group: C M C A
;
_chemical_formula_sum "Si O2"
_cell_formula_units_Z 120
_cell_length_a 18.877093
_cell_length_b 14.738493
_cell_length_c 24.575260
_cell_angle_alpha 90.000000
_cell_angle_beta 90.000000
_cell_angle_gamma 90.000000
_cell_volume 6837.326454
_symmetry_space_group_name_H-M "C M C A"
_symmetry_group_IT_number 64
_symmetry_cell_setting 'orthorhombic'
loop_
_space_group_symop_operation_xyz
x,y,z
-x,1/2-y,1/2+z
x,-y,-z
-x,1/2+y,1/2-z
-x,-y,-z
x,1/2+y,1/2-z
-x,y,z
x,1/2-y,1/2+z
1/2+x,1/2+y,z
1/2-x,-y,1/2+z
1/2+x,1/2-y,-z
1/2-x,y,1/2-z
1/2-x,1/2-y,-z
1/2+x,y,1/2-z
1/2-x,1/2+y,z
1/2+x,-y,1/2+z
loop_
_atom_site_type_symbol
_atom_site_label
_atom_site_fract_x
_atom_site_fract_y
_atom_site_fract_z
Si Si1 0.781328 0.477455 0.377933
Si Si2 0.918078 0.393483 0.334511
Si Si3 0.692174 0.138744 0.163642
Si Si4 0.237597 0.000000 0.500000
Si Si5 0.196170 0.788296 0.370828
Si Si6 0.580529 0.714690 0.409775
Si Si7 0.676203 0.801984 0.010694
Si Si8 0.668021 0.783719 0.247608
O O1 0.861227 0.466257 0.356261
O O2 0.734610 0.545671 0.341130
O O3 0.779150 0.504195 0.442148
O O4 0.741743 0.380718 0.373426
O O5 0.917010 0.309272 0.376869
O O6 0.884136 0.349012 0.280330
O O7 0.000000 0.422399 0.327940
O O8 0.745421 0.209878 0.134899
O O9 0.622522 0.141278 0.126526
O O10 0.672669 0.186136 0.221253
O O11 0.191477 0.908752 0.496540
O O12 0.155412 0.781839 0.427318
O O13 0.150984 0.780634 0.315945
O O14 0.500000 0.687448 0.417503
O O15 0.619998 0.727613 0.466387
O O16 0.750000 0.750000 0.000000
O O17 0.750000 0.817732 0.250000
#
# Coordination Sequence:
#
# PCOD9476956 Si02
#       8
#    16  16  16   8  16  16  16  16
#     4  11  18  33  57  86 112 149 184 230 282 332
#     4  10  20  35  59  85 112 147 185 232 284 333
#     4  10  18  33  54  85 110 142 187 234 272 334
#     4  10  20  28  54  84 116 142 188 228 276 332
#     4  10  19  34  55  84 111 139 198 230 278 324
#     4  10  18  33  55  85 115 145 185 234 288 335
#     4  11  18  33  55  80 116 148 184 236 280 337
#     4   9  17  36  52  83 107 137 194 229 270 330
#
# _framework density 17.550719000000001
#
# number of rings (size 3 to 8) (size 9 to 14) (size 15 to 20)
#    0.000    1.867    6.667    0.800    0.000    0.000 
#    7.200    1.333    0.000    7.200    0.000    0.000 
#    0.000    0.000    0.000    0.000    0.000    0.000 
#
# Total GULP energy -334354.379923 kJ/mol
# GULP energy per Si atom -5572.572999 kJ/mol
# Density = 1.751077 g / cm^3
# Si number density = 17.550719 Si / 1000 Ang^3
#
#
#
# Elastic Constant Matrix: (Units=GPa)
#
#
# Indices 1 2 3 4 5 6 
#
# 1 100.2808 2.8458 49.3041 0.0000 0.0000 0.0000
# 2 2.8458 34.5172 -7.3125 0.0000 0.0000 0.0000
# 3 49.3041 -7.3125 147.9892 0.0000 0.0000 0.0000
# 4 0.0000 0.0000 0.0000 12.9114 0.0000 0.0000
# 5 0.0000 0.0000 0.0000 0.0000 23.1535 0.0000
# 6 0.0000 0.0000 0.0000 0.0000 0.0000 20.3109
#
#
#
# Elastic Compliance Matrix: (Units=1/GPa)
#
#
# Indices 1 2 3 4 5 6 
#
# 1 0.012043 -0.001862 -0.004104 0.000000 0.000000 0.000000
# 2 -0.001862 0.029566 0.002081 0.000000 0.000000 0.000000
# 3 -0.004104 0.002081 0.008227 0.000000 0.000000 0.000000
# 4 0.000000 0.000000 0.000000 0.077451 0.000000 0.000000
# 5 0.000000 0.000000 0.000000 0.000000 0.043190 0.000000
# 6 0.000000 0.000000 0.000000 0.000000 0.000000 0.049235
#
#
# Mechanical properties :
#
#
# Convention : Reuss Voigt Hill
#
# Bulk Modulus (GPa) = 23.77251 41.38468 32.57860
# Shear Modulus (GPa) = 20.70362 27.13847 23.92105
#
# Velocity S-wave (km/s) = 3.43832 3.93655 3.69584
# Velocity P-wave (km/s) = 5.41638 6.65531 6.06755
#
# Compressibility (1/GPa) = 0.04206540
#
# Stress axis : x y z
#
# Youngs Moduli (GPa) = 83.03783 33.82313 121.54450
#
# Poissons Ratio (x) = 0.06299 0.49884
# Poissons Ratio (y) = 0.15464 -0.25298
# Poissons Ratio (z) = 0.34080 -0.07040
#
# Static dielectric constant tensor:
#      x y z
#    x 1.586060 0.000000 0.000000 
#    y 0.000000 1.611480 0.000000 
#    z 0.000000 0.000000 1.651810 
# 
# From -- ./inp_files/50892.got.cif
#   From: 2010.05.17/outbox.cif.g08.bks.cpg/sg64_26_cif.got.tgz:50892.got - 2010.06.03 16:29:19.
