data_PCOD9476039
_publ_section_title
;
Structure prediction by ZEFSAII (Michael W. Deem and Ramdas Pophale) SiO2 
 PCOD9476039
Probable space group: C M C M
;
_chemical_formula_sum "Si O2"
_cell_formula_units_Z 48
_cell_length_a 21.000000
_cell_length_b 15.000000
_cell_length_c 15.000000
_cell_angle_alpha 90.000000
_cell_angle_beta 90.000000
_cell_angle_gamma 90.000000
_cell_volume 4725.000000
_symmetry_space_group_name_H-M "C M C M"
_symmetry_group_IT_number 63
_symmetry_cell_setting 'orthorhombic'
loop_
_space_group_symop_operation_xyz
x,y,z
-x,-y,1/2+z
x,-y,-z
-x,y,1/2-z
-x,-y,-z
x,y,1/2-z
-x,y,z
x,-y,1/2+z
1/2+x,1/2+y,z
1/2-x,1/2-y,1/2+z
1/2+x,1/2-y,-z
1/2-x,1/2+y,1/2-z
1/2-x,1/2-y,-z
1/2+x,1/2+y,1/2-z
1/2-x,1/2+y,z
1/2+x,1/2-y,1/2+z
loop_
_atom_site_type_symbol
_atom_site_label
_atom_site_fract_x
_atom_site_fract_y
_atom_site_fract_z
Si Si1 0.572028 0.080083 0.641181
Si Si2 0.928833 0.961755 0.900548
Si Si3 0.223569 0.259550 0.641300
Si Si4 0.626696 0.727462 0.358052
Si Si5 0.316059 0.050704 0.359467
Si Si6 0.196429 0.935290 0.146331
O O1 0.572354 0.079264 0.750000
O O2 0.500000 0.063136 0.611537
O O3 0.595124 0.178961 0.615522
O O4 0.622925 0.006121 0.612532
O O5 0.907860 0.858683 0.897714
O O6 0.871653 0.017721 0.857296
O O7 0.000000 0.970902 0.861536
O O8 0.931276 0.000000 0.000000
O O9 0.218762 0.260322 0.750000
O O10 0.298322 0.269636 0.620347
O O11 0.186854 0.347331 0.609168
O O12 0.198571 0.164306 0.607285
O O13 0.621994 0.719152 0.250000
O O14 0.315792 0.052547 0.250000
O O15 0.251897 0.999572 0.389466
O O16 0.213636 0.923846 0.250000
#
# Coordination Sequence:
#
# PCOD9476039 Si02
#       6
#    16  16  16  16  16  16
#     4   9  16  25  42  72 103 127 156 201 257 306
#     4  11  24  38  50  71 106 141 173 215 265 309
#     4   9  16  27  49  80 104 126 164 211 254 296
#     4  10  17  30  54  79  99 124 167 218 259 302
#     4   9  15  26  46  72 105 134 159 201 252 299
#     4  10  18  32  55  77 101 134 172 211 252 306
#
# _framework density 10.15873
#
# number of rings (size 3 to 8) (size 9 to 14) (size 15 to 20)
#    0.000    2.333    3.333    1.000    0.000    2.000 
#    0.000    1.667    0.000    3.000    0.000    0.000 
#    0.000    4.667    0.000    0.000    0.000    0.000 
#
# Total GULP energy -268014.325283 kJ/mol
# GULP energy per Si atom -5583.631777 kJ/mol
# Density = 1.013561 g / cm^3
# Si number density = 10.158730 Si / 1000 Ang^3
#
#
#
# Elastic Constant Matrix: (Units=GPa)
#
#
# Indices 1 2 3 4 5 6 
#
# 1 128.3165 63.8715 -20.0948 0.0000 0.0000 0.0000
# 2 63.8715 136.2788 -18.8298 0.0000 0.0000 0.0000
# 3 -20.0948 -18.8298 11.8562 0.0000 0.0000 0.0000
# 4 0.0000 0.0000 0.0000 -11.3666 0.0000 0.0000
# 5 0.0000 0.0000 0.0000 0.0000 -32.4400 0.0000
# 6 0.0000 0.0000 0.0000 0.0000 0.0000 25.7227
#
#
#
# Elastic Compliance Matrix: (Units=1/GPa)
#
#
# Indices 1 2 3 4 5 6 
#
# 1 0.011812 -0.003549 0.014384 0.000000 0.000000 0.000000
# 2 -0.003549 0.010467 0.010609 0.000000 0.000000 0.000000
# 3 0.014384 0.010609 0.125573 0.000000 0.000000 0.000000
# 4 0.000000 0.000000 0.000000 -0.087977 0.000000 0.000000
# 5 0.000000 0.000000 0.000000 0.000000 -0.030826 0.000000
# 6 0.000000 0.000000 0.000000 0.000000 0.000000 0.038876
#
#
# Mechanical properties :
#
#
# Convention : Reuss Voigt Hill
#
# Bulk Modulus (GPa) = 5.24271 36.26058 20.75164
# Shear Modulus (GPa) = 56.42319 13.15020 34.78669
#
# Velocity S-wave (km/s) = 5.27552 2.54684 4.14231
# Velocity P-wave (km/s) = 6.30033 5.15115 5.75449
#
# Compressibility (1/GPa) = 0.19074102
#
# Stress axis : x y z
#
# Youngs Moduli (GPa) = 84.65745 95.53875 7.96352
#
# Poissons Ratio (x) = 0.33904 -0.11455
# Poissons Ratio (y) = 0.30042 -0.08448
# Poissons Ratio (z) = -1.21775 -1.01355
#
# Static dielectric constant tensor:
#      x y z
#    x 1.695170 0.000000 0.000000 
#    y 0.000000 1.714950 0.000000 
#    z 0.000000 0.000000 1.822590 
# 
# From -- ./inp_files/35374.got.cif
#   From: 2010.05.17/outbox.ucp.g08.bks.cvg/sg63_18_cif.got.tgz:35374.got - 2010.06.11 16:32:19.
