data_PCOD9476276
_publ_section_title
;
Structure prediction by ZEFSAII (Michael W. Deem and Ramdas Pophale) SiO2 
 PCOD9476276
Probable space group: C M C M
;
_chemical_formula_sum "Si O2"
_cell_formula_units_Z 48
_cell_length_a 9.000000
_cell_length_b 24.000000
_cell_length_c 24.000000
_cell_angle_alpha 90.000000
_cell_angle_beta 90.000000
_cell_angle_gamma 90.000000
_cell_volume 5184.000000
_symmetry_space_group_name_H-M "C M C M"
_symmetry_group_IT_number 63
_symmetry_cell_setting 'orthorhombic'
loop_
_space_group_symop_operation_xyz
x,y,z
-x,-y,1/2+z
x,-y,-z
-x,y,1/2-z
-x,-y,-z
x,y,1/2-z
-x,y,z
x,-y,1/2+z
1/2+x,1/2+y,z
1/2-x,1/2-y,1/2+z
1/2+x,1/2-y,-z
1/2-x,1/2+y,1/2-z
1/2-x,1/2-y,-z
1/2+x,1/2+y,1/2-z
1/2-x,1/2+y,z
1/2+x,1/2-y,1/2+z
loop_
_atom_site_type_symbol
_atom_site_label
_atom_site_fract_x
_atom_site_fract_y
_atom_site_fract_z
Si Si1 0.178884 0.385275 0.911097
Si Si2 0.819929 0.304763 0.812655
Si Si3 0.329364 0.682314 0.816598
Si Si4 0.324824 0.884171 0.398949
Si Si5 0.826971 0.998678 0.432874
Si Si6 0.178503 0.810498 0.492422
O O1 0.217239 0.353985 0.853982
O O2 0.240551 0.447353 0.911686
O O3 0.260709 0.350715 0.959198
O O4 0.000000 0.384077 0.919434
O O5 0.764039 0.313028 0.750000
O O6 0.775512 0.243875 0.834828
O O7 0.000000 0.301938 0.810118
O O8 0.334009 0.684924 0.750000
O O9 0.500000 0.672890 0.835906
O O10 0.220072 0.634986 0.837462
O O11 0.500000 0.883357 0.409127
O O12 0.255707 0.943541 0.413015
O O13 0.240472 0.838812 0.436731
O O14 0.000000 0.998744 0.415878
O O15 0.823193 0.000000 0.500000
O O16 0.250000 0.750000 0.500000
O O17 0.000000 0.807760 0.492308
#
# Coordination Sequence:
#
# PCOD9476276 Si02
#       6
#    16  16  16  16  16  16
#     4  11  21  35  59  88 116 149 191 240 290 347
#     4   8  16  33  58  87 117 150 186 226 280 342
#     4   9  18  36  62  88 118 157 195 233 284 349
#     4  12  24  38  59  86 116 151 194 244 294 350
#     4  11  23  40  60  80 110 157 200 242 291 349
#     4  12  24  38  56  83 118 152 188 236 292 351
#
# _framework density 9.2592590000000001
#
# number of rings (size 3 to 8) (size 9 to 14) (size 15 to 20)
#    0.000    1.500    1.667    6.000    0.000    2.333 
#    0.000    1.667    0.000    7.000    0.000    0.000 
#    0.000    0.000    0.000    0.000    0.000    0.000 
#
# Total GULP energy -268008.618158 kJ/mol
# GULP energy per Si atom -5583.512878 kJ/mol
# Density = 0.923818 g / cm^3
# Si number density = 9.259259 Si / 1000 Ang^3
#
#
#
# Elastic Constant Matrix: (Units=GPa)
#
#
# Indices 1 2 3 4 5 6 
#
# 1 138.0684 66.8977 30.9522 0.0000 0.0000 0.0000
# 2 66.8977 149.9575 43.1033 0.0000 0.0000 0.0000
# 3 30.9522 43.1033 52.4088 0.0000 0.0000 0.0000
# 4 0.0000 0.0000 0.0000 16.9570 0.0000 0.0000
# 5 0.0000 0.0000 0.0000 0.0000 18.5743 0.0000
# 6 0.0000 0.0000 0.0000 0.0000 0.0000 30.5349
#
#
#
# Elastic Compliance Matrix: (Units=1/GPa)
#
#
# Indices 1 2 3 4 5 6 
#
# 1 0.009543 -0.003454 -0.002796 0.000000 0.000000 0.000000
# 2 -0.003454 0.009983 -0.006171 0.000000 0.000000 0.000000
# 3 -0.002796 -0.006171 0.025807 0.000000 0.000000 0.000000
# 4 0.000000 0.000000 0.000000 0.058973 0.000000 0.000000
# 5 0.000000 0.000000 0.000000 0.000000 0.053838 0.000000
# 6 0.000000 0.000000 0.000000 0.000000 0.000000 0.032749
#
#
# Mechanical properties :
#
#
# Convention : Reuss Voigt Hill
#
# Bulk Modulus (GPa) = 48.79739 69.14901 58.97320
# Shear Modulus (GPa) = 22.46552 26.51201 24.48877
#
# Velocity S-wave (km/s) = 3.48679 3.78782 3.64042
# Velocity P-wave (km/s) = 6.52825 7.52008 7.04165
#
# Compressibility (1/GPa) = 0.02049290
#
# Stress axis : x y z
#
# Youngs Moduli (GPa) = 104.79033 100.17075 38.74943
#
# Poissons Ratio (x) = 0.34595 0.10832
# Poissons Ratio (y) = 0.36191 0.23911
# Poissons Ratio (z) = 0.29294 0.61813
#
# Static dielectric constant tensor:
#      x y z
#    x 1.973920 0.000000 0.000000 
#    y 0.000000 1.630160 0.000000 
#    z 0.000000 0.000000 1.722120 
# 
# From -- ./inp_files/59967.got.cif
#   From: 2010.05.17/outbox.ucp.g08.bks.cvg/sg63_30_cif.got.tgz:59967.got - 2010.06.11 16:32:19.
