data_PCOD9476357
_publ_section_title
;
Structure prediction by ZEFSAII (Michael W. Deem and Ramdas Pophale) SiO2 
 PCOD9476357
Probable space group: C M C A
;
_chemical_formula_sum "Si O2"
_cell_formula_units_Z 120
_cell_length_a 7.631851
_cell_length_b 25.052835
_cell_length_c 25.242684
_cell_angle_alpha 90.000000
_cell_angle_beta 90.000000
_cell_angle_gamma 90.000000
_cell_volume 4826.388657
_symmetry_space_group_name_H-M "C M C A"
_symmetry_group_IT_number 64
_symmetry_cell_setting 'orthorhombic'
loop_
_space_group_symop_operation_xyz
x,y,z
-x,1/2-y,1/2+z
x,-y,-z
-x,1/2+y,1/2-z
-x,-y,-z
x,1/2+y,1/2-z
-x,y,z
x,1/2-y,1/2+z
1/2+x,1/2+y,z
1/2-x,-y,1/2+z
1/2+x,1/2-y,-z
1/2-x,y,1/2-z
1/2-x,1/2-y,-z
1/2+x,y,1/2-z
1/2-x,1/2+y,z
1/2+x,-y,1/2+z
loop_
_atom_site_type_symbol
_atom_site_label
_atom_site_fract_x
_atom_site_fract_y
_atom_site_fract_z
Si Si1 0.214379 0.710467 0.337388
Si Si2 0.206613 0.361068 0.342707
Si Si3 0.702787 0.565474 0.929263
Si Si4 0.798263 0.051940 0.416722
Si Si5 0.710849 0.224224 0.934915
Si Si6 0.800551 0.145423 0.481432
Si Si7 0.750000 0.205337 0.750000
Si Si8 0.207426 0.090503 0.190402
O O1 0.257136 0.723783 0.399100
O O2 0.303143 0.751146 0.295453
O O3 0.266606 0.651290 0.320896
O O4 0.000000 0.716982 0.331313
O O5 0.255327 0.417009 0.369780
O O6 0.232790 0.320215 0.391472
O O7 0.313745 0.338118 0.293553
O O8 0.000000 0.361003 0.327191
O O9 0.500000 0.581175 0.935231
O O10 0.717775 0.502635 0.937207
O O11 0.804616 0.601155 0.971311
O O12 0.715363 0.108010 0.436634
O O13 0.788761 0.053174 0.353742
O O14 0.000000 0.052134 0.433438
O O15 0.500000 0.223234 0.939154
O O16 0.780343 0.198439 0.990620
O O17 0.000000 0.159008 0.466750
O O18 0.250000 0.075848 0.250000
O O19 0.000000 0.089415 0.182840
#
# Coordination Sequence:
#
# PCOD9476357 Si02
#       8
#    16  16  16  16  16  16   8  16
#     4   9  17  30  53  81 107 139 179 221 275 333
#     4   9  18  30  47  76 111 140 174 221 271 328
#     4  10  20  35  55  83 116 148 184 232 286 336
#     4  11  23  39  58  81 108 150 197 237 278 327
#     4   8  15  30  52  79 111 144 173 216 273 330
#     4   9  18  34  58  85 115 148 188 229 274 338
#     4  10  16  30  52  78 106 140 176 218 276 332
#     4  11  23  41  60  82 109 144 189 237 279 328
#
# _framework density 24.863310999999999
#
# number of rings (size 3 to 8) (size 9 to 14) (size 15 to 20)
#    0.000    2.400    0.667    2.000    0.000    3.733 
#    1.200    1.333    0.000    0.000    0.000    0.000 
#    0.000    0.000    0.000    0.000    0.000    0.000 
#
# Total GULP energy -334443.315463 kJ/mol
# GULP energy per Si atom -5574.055258 kJ/mol
# Density = 2.480672 g / cm^3
# Si number density = 24.863311 Si / 1000 Ang^3
#
#
#
# Elastic Constant Matrix: (Units=GPa)
#
#
# Indices 1 2 3 4 5 6 
#
# 1 95.4621 17.8881 25.8278 0.0000 0.0000 0.0000
# 2 17.8881 104.8754 -4.3670 0.0000 0.0000 0.0000
# 3 25.8278 -4.3670 86.0726 0.0000 0.0000 0.0000
# 4 0.0000 0.0000 0.0000 22.5228 0.0000 0.0000
# 5 0.0000 0.0000 0.0000 0.0000 -5.6066 0.0000
# 6 0.0000 0.0000 0.0000 0.0000 0.0000 14.4441
#
#
#
# Elastic Compliance Matrix: (Units=1/GPa)
#
#
# Indices 1 2 3 4 5 6 
#
# 1 0.011878 -0.002179 -0.003675 0.000000 0.000000 0.000000
# 2 -0.002179 0.009955 0.001159 0.000000 0.000000 0.000000
# 3 -0.003675 0.001159 0.012780 0.000000 0.000000 0.000000
# 4 0.000000 0.000000 0.000000 0.044400 0.000000 0.000000
# 5 0.000000 0.000000 0.000000 0.000000 -0.178363 0.000000
# 6 0.000000 0.000000 0.000000 0.000000 0.000000 0.069233
#
#
# Mechanical properties :
#
#
# Convention : Reuss Voigt Hill
#
# Bulk Modulus (GPa) = 39.64647 40.56753 40.10700
# Shear Modulus (GPa) = -405.81954 22.74280 -191.53837
#
# Velocity S-wave (km/s) = -12.78963 3.02770 -8.78657
# Velocity P-wave (km/s) = 14.21686 5.34549 9.31517
#
# Compressibility (1/GPa) = 0.02522292
#
# Stress axis : x y z
#
# Youngs Moduli (GPa) = 84.19010 100.45165 78.24982
#
# Poissons Ratio (x) = 0.21888 0.28755
# Poissons Ratio (y) = 0.18345 -0.09069
# Poissons Ratio (z) = 0.30938 -0.11642
#
# Static dielectric constant tensor:
#      x y z
#    x 1.998930 0.000000 0.000000 
#    y 0.000000 2.031540 0.000000 
#    z 0.000000 0.000000 2.015620 
# 
# From -- ./inp_files/48726.got.cif
#   From: 2010.05.17/outbox.cif.g08.bks.cpg/sg64_25_cif.got.tgz:48726.got - 2010.06.03 16:29:19.
