data_PCOD9476156
_publ_section_title
;
Structure prediction by ZEFSAII (Michael W. Deem and Ramdas Pophale) SiO2 
 PCOD9476156
Probable space group: C M C M
;
_chemical_formula_sum "Si O2"
_cell_formula_units_Z 56
_cell_length_a 15.000000
_cell_length_b 27.000000
_cell_length_c 15.000000
_cell_angle_alpha 90.000000
_cell_angle_beta 90.000000
_cell_angle_gamma 90.000000
_cell_volume 6075.000000
_symmetry_space_group_name_H-M "C M C M"
_symmetry_group_IT_number 63
_symmetry_cell_setting 'orthorhombic'
loop_
_space_group_symop_operation_xyz
x,y,z
-x,-y,1/2+z
x,-y,-z
-x,y,1/2-z
-x,-y,-z
x,y,1/2-z
-x,y,z
x,-y,1/2+z
1/2+x,1/2+y,z
1/2-x,1/2-y,1/2+z
1/2+x,1/2-y,-z
1/2-x,1/2+y,1/2-z
1/2-x,1/2-y,-z
1/2+x,1/2+y,1/2-z
1/2-x,1/2+y,z
1/2+x,1/2-y,1/2+z
loop_
_atom_site_type_symbol
_atom_site_label
_atom_site_fract_x
_atom_site_fract_y
_atom_site_fract_z
Si Si1 0.719515 0.454370 0.144953
Si Si2 0.103404 0.206938 0.080469
Si Si3 0.902606 0.886642 0.027614
Si Si4 0.895526 0.682841 0.986524
Si Si5 0.159598 0.065242 0.352134
Si Si6 0.273696 0.841857 0.653109
Si Si7 0.399283 0.908345 0.144892
O O1 0.704848 0.445170 0.250000
O O2 0.670085 0.413219 0.087097
O O3 0.682949 0.508881 0.125869
O O4 0.824489 0.449176 0.127276
O O5 0.120946 0.263437 0.055704
O O6 0.178761 0.186416 0.145846
O O7 0.000000 0.202057 0.110809
O O8 0.112696 0.171028 0.994070
O O9 0.000000 0.893438 0.068223
O O10 0.900328 0.912299 0.930036
O O11 0.879922 0.639843 0.914244
O O12 0.000000 0.680977 0.011313
O O13 0.834475 0.674196 0.071845
O O14 0.125012 0.068014 0.250000
O O15 0.246978 0.100321 0.354521
O O16 0.313994 0.832553 0.750000
O O17 0.394638 0.895454 0.250000
O O18 0.500000 0.924952 0.125882
#
# Coordination Sequence:
#
# PCOD9476156 Si02
#       7
#    16  16  16  16  16  16  16
#     4  10  20  34  52  74 103 134 164 206 255 300
#     4   9  19  35  53  73 100 133 168 209 255 295
#     4  10  20  34  52  73 100 135 170 205 247 297
#     4  10  20  35  54  76 105 136 166 207 253 298
#     4   9  19  34  51  73 101 133 168 207 250 293
#     4  10  20  34  53  76 103 135 170 206 246 298
#     4   9  18  33  54  78 100 127 167 211 255 301
#
# _framework density 9.2181069999999998
#
# number of rings (size 3 to 8) (size 9 to 14) (size 15 to 20)
#    0.000    2.429    0.000    2.571    0.000    2.857 
#    0.000    8.571    0.000    8.571    0.000    0.000 
#    0.000    0.000    0.000    0.000    0.000    0.000 
#
# Total GULP energy -312114.993147 kJ/mol
# GULP energy per Si atom -5573.482020 kJ/mol
# Density = 0.919713 g / cm^3
# Si number density = 9.218107 Si / 1000 Ang^3
#
#
#
# Elastic Constant Matrix: (Units=GPa)
#
#
# Indices 1 2 3 4 5 6 
#
# 1 30.7739 -9.3003 5.9850 0.0000 0.0000 0.0000
# 2 -9.3003 6.2637 -20.3722 0.0000 0.0000 0.0000
# 3 5.9850 -20.3722 10.9017 0.0000 0.0000 0.0000
# 4 0.0000 0.0000 0.0000 8.5297 0.0000 0.0000
# 5 0.0000 0.0000 0.0000 0.0000 1.2415 0.0000
# 6 0.0000 0.0000 0.0000 0.0000 0.0000 10.9305
#
#
#
# Elastic Compliance Matrix: (Units=1/GPa)
#
#
# Indices 1 2 3 4 5 6 
#
# 1 0.036232 0.002146 -0.015881 0.000000 0.000000 0.000000
# 2 0.002146 -0.031313 -0.059694 0.000000 0.000000 0.000000
# 3 -0.015881 -0.059694 -0.011104 0.000000 0.000000 0.000000
# 4 0.000000 0.000000 0.000000 0.117237 0.000000 0.000000
# 5 0.000000 0.000000 0.000000 0.000000 0.805477 0.000000
# 6 0.000000 0.000000 0.000000 0.000000 0.000000 0.091487
#
#
# Mechanical properties :
#
#
# Convention : Reuss Voigt Hill
#
# Bulk Modulus (GPa) = -6.53415 0.06269 -3.23573
# Shear Modulus (GPa) = 4.52956 8.91546 6.72251
#
# Velocity S-wave (km/s) = 1.56914 2.20144 1.91162
# Velocity P-wave (km/s) = 0.51859 2.54870 1.76450
#
# Compressibility (1/GPa) = -0.15304216
#
# Stress axis : x y z
#
# Youngs Moduli (GPa) = 27.59974 -31.93544 -90.05955
#
# Poissons Ratio (x) = 0.06854 -1.43023
# Poissons Ratio (y) = -0.05923 -5.37601
# Poissons Ratio (z) = 0.43831 -1.90635
#
# Static dielectric constant tensor:
#      x y z
#    x 1.645340 0.000000 0.000000 
#    y 0.000000 1.623150 0.000000 
#    z 0.000000 0.000000 1.623700 
# 
# From -- ./inp_files/32496.got.cif
#   From: 2010.05.17/outbox.ucp.g08.bks.cvg/sg63_17_cif.got.tgz:32496.got - 2010.06.11 16:32:19.
