data_PCOD9476023
_publ_section_title
;
Structure prediction by ZEFSAII (Michael W. Deem and Ramdas Pophale) SiO2 
 PCOD9476023
Probable space group: C M C M
;
_chemical_formula_sum "Si O2"
_cell_formula_units_Z 80
_cell_length_a 7.313886
_cell_length_b 30.173338
_cell_length_c 16.333804
_cell_angle_alpha 90.000000
_cell_angle_beta 90.000000
_cell_angle_gamma 90.000000
_cell_volume 3604.614990
_symmetry_space_group_name_H-M "C M C M"
_symmetry_group_IT_number 63
_symmetry_cell_setting 'orthorhombic'
loop_
_space_group_symop_operation_xyz
x,y,z
-x,-y,1/2+z
x,-y,-z
-x,y,1/2-z
-x,-y,-z
x,y,1/2-z
-x,y,z
x,-y,1/2+z
1/2+x,1/2+y,z
1/2-x,1/2-y,1/2+z
1/2+x,1/2-y,-z
1/2-x,1/2+y,1/2-z
1/2-x,1/2-y,-z
1/2+x,1/2+y,1/2-z
1/2-x,1/2+y,z
1/2+x,1/2-y,1/2+z
loop_
_atom_site_type_symbol
_atom_site_label
_atom_site_fract_x
_atom_site_fract_y
_atom_site_fract_z
Si Si1 0.722742 0.962485 0.250000
Si Si2 0.224259 0.359542 0.250000
Si Si3 0.221252 0.298489 0.585524
Si Si4 0.776946 0.517023 0.088392
Si Si5 0.222397 0.608740 0.157496
Si Si6 0.212097 0.299751 0.399064
O O1 0.500000 0.963335 0.250000
O O2 0.777907 0.910960 0.250000
O O3 0.780083 0.987853 0.332967
O O4 0.286583 0.332606 0.330447
O O5 0.000000 0.358424 0.250000
O O6 0.282624 0.342770 0.630412
O O7 0.288294 0.300882 0.491332
O O8 0.277462 0.251939 0.625209
O O9 0.000000 0.297860 0.584926
O O10 0.720524 0.567843 0.101680
O O11 0.000000 0.515916 0.088644
O O12 0.716942 0.500000 0.000000
O O13 0.277815 0.599133 0.250000
O O14 0.000000 0.609478 0.155849
O O15 0.000000 0.312114 0.407840
#
# Coordination Sequence:
#
# PCOD9476023 Si02
#       6
#     8   8  16  16  16  16
#     4   9  16  26  37  55  81 113 149 177 210 263
#     4   9  18  28  42  59  85 121 151 179 218 265
#     4   9  18  30  47  66  88 117 150 185 221 261
#     4   9  16  24  37  56  82 114 144 176 215 262
#     4   9  16  26  39  59  86 113 142 180 223 261
#     4   9  18  32  45  63  90 119 150 184 219 260
#
# _framework density 22.193771000000002
#
# number of rings (size 3 to 8) (size 9 to 14) (size 15 to 20)
#    0.000    3.000    1.000    0.000    4.200    0.000 
#    0.000    0.000    0.000    0.000    0.000    0.000 
#    0.000    4.000    0.000    0.000    0.000    0.000 
#
# Total GULP energy -223341.152835 kJ/mol
# GULP energy per Si atom -5583.528821 kJ/mol
# Density = 2.214326 g / cm^3
# Si number density = 22.193771 Si / 1000 Ang^3
#
#
#
# Elastic Constant Matrix: (Units=GPa)
#
#
# Indices 1 2 3 4 5 6 
#
# 1 86.6325 -17.0806 -6.2268 0.0000 0.0000 0.0000
# 2 -17.0806 117.4791 42.1632 0.0000 0.0000 0.0000
# 3 -6.2268 42.1632 91.6588 0.0000 0.0000 0.0000
# 4 0.0000 0.0000 0.0000 41.1005 0.0000 0.0000
# 5 0.0000 0.0000 0.0000 0.0000 -21.6334 0.0000
# 6 0.0000 0.0000 0.0000 0.0000 0.0000 9.3507
#
#
#
# Elastic Compliance Matrix: (Units=1/GPa)
#
#
# Indices 1 2 3 4 5 6 
#
# 1 0.011884 0.001722 0.000015 0.000000 0.000000 0.000000
# 2 0.001722 0.010445 -0.004688 0.000000 0.000000 0.000000
# 3 0.000015 -0.004688 0.013067 0.000000 0.000000 0.000000
# 4 0.000000 0.000000 0.000000 0.024331 0.000000 0.000000
# 5 0.000000 0.000000 0.000000 0.000000 -0.046225 0.000000
# 6 0.000000 0.000000 0.000000 0.000000 0.000000 0.106944
#
#
# Mechanical properties :
#
#
# Convention : Reuss Voigt Hill
#
# Bulk Modulus (GPa) = 33.90346 37.05354 35.47850
# Shear Modulus (GPa) = 36.71663 24.22454 30.47058
#
# Velocity S-wave (km/s) = 4.07180 3.30737 3.70933
# Velocity P-wave (km/s) = 6.11681 5.59613 5.86225
#
# Compressibility (1/GPa) = 0.02949551
#
# Stress axis : x y z
#
# Youngs Moduli (GPa) = 84.14896 95.73964 76.52631
#
# Poissons Ratio (x) = -0.16490 -0.00115
# Poissons Ratio (y) = -0.14494 0.35873
# Poissons Ratio (z) = -0.00126 0.44880
#
# Static dielectric constant tensor:
#      x y z
#    x 1.923200 0.000000 0.000000 
#    y 0.000000 1.768720 0.000000 
#    z 0.000000 0.000000 1.785830 
# 
# From -- ./inp_files/30049.got.cif
#   From: 2010.05.17/outbox.cif.g08.bks.cpg/sg63_16_cif.got.tgz:30049.got - 2010.06.03 15:47:04.
