data_PCOD9476251
_publ_section_title
;
Structure prediction by ZEFSAII (Michael W. Deem and Ramdas Pophale) SiO2 
 PCOD9476251
Probable space group: C M C M
;
_chemical_formula_sum "Si O2"
_cell_formula_units_Z 56
_cell_length_a 30.000000
_cell_length_b 12.000000
_cell_length_c 15.000000
_cell_angle_alpha 90.000000
_cell_angle_beta 90.000000
_cell_angle_gamma 90.000000
_cell_volume 5400.000000
_symmetry_space_group_name_H-M "C M C M"
_symmetry_group_IT_number 63
_symmetry_cell_setting 'orthorhombic'
loop_
_space_group_symop_operation_xyz
x,y,z
-x,-y,1/2+z
x,-y,-z
-x,y,1/2-z
-x,-y,-z
x,y,1/2-z
-x,y,z
x,-y,1/2+z
1/2+x,1/2+y,z
1/2-x,1/2-y,1/2+z
1/2+x,1/2-y,-z
1/2-x,1/2+y,1/2-z
1/2-x,1/2-y,-z
1/2+x,1/2+y,1/2-z
1/2-x,1/2+y,z
1/2+x,1/2-y,1/2+z
loop_
_atom_site_type_symbol
_atom_site_label
_atom_site_fract_x
_atom_site_fract_y
_atom_site_fract_z
Si Si1 0.202806 0.192262 0.145355
Si Si2 0.627280 0.946704 0.907721
Si Si3 0.851049 0.974791 0.397278
Si Si4 0.051863 0.287558 0.517402
Si Si5 0.949666 0.922577 0.148645
Si Si6 0.196856 0.741725 0.144229
Si Si7 0.886471 0.689372 0.851512
O O1 0.205349 0.218927 0.250000
O O2 0.252556 0.218028 0.109184
O O3 0.161118 0.265749 0.111167
O O4 0.184670 0.065892 0.137148
O O5 0.582491 0.877758 0.931212
O O6 0.664593 0.863264 0.872299
O O7 0.616174 0.055210 0.850061
O O8 0.643897 0.000000 0.000000
O O9 0.901431 0.984092 0.357467
O O10 0.828719 0.852728 0.388602
O O11 0.857369 0.000000 0.500000
O O12 0.053533 0.174266 0.574852
O O13 0.075362 0.275088 0.421048
O O14 0.000000 0.320524 0.509356
O O15 0.950491 0.876871 0.250000
O O16 0.000000 0.975994 0.136105
O O17 0.200597 0.756752 0.250000
O O18 0.893128 0.730520 0.750000
#
# Coordination Sequence:
#
# PCOD9476251 Si02
#       7
#    16  16  16  16  16  16  16
#     4  10  24  42  63  91 129 172 216 269 328 391
#     4  10  22  38  64  93 127 167 214 273 330 388
#     4  12  25  41  66  97 134 172 221 277 336 399
#     4  10  21  40  64  95 129 165 215 276 336 392
#     4  10  21  40  69 100 131 171 223 281 336 395
#     4  11  24  43  67  94 127 173 224 269 326 395
#     4  10  22  41  62  91 134 177 219 266 329 400
#
# _framework density 10.370369999999999
#
# number of rings (size 3 to 8) (size 9 to 14) (size 15 to 20)
#    0.000    1.571    1.429    2.571    4.000    4.857 
#    0.000    0.714    0.000    0.857    0.000    0.000 
#    0.000    0.000    0.000    0.000    0.000    0.000 
#
# Total GULP energy -312540.969756 kJ/mol
# GULP energy per Si atom -5581.088746 kJ/mol
# Density = 1.034677 g / cm^3
# Si number density = 10.370370 Si / 1000 Ang^3
#
#
#
# Elastic Constant Matrix: (Units=GPa)
#
#
# Indices 1 2 3 4 5 6 
#
# 1 198.1147 43.5104 41.0969 0.0000 0.0000 0.0000
# 2 43.5104 52.7501 14.6176 0.0000 0.0000 0.0000
# 3 41.0969 14.6176 97.8407 0.0000 0.0000 0.0000
# 4 0.0000 0.0000 0.0000 25.4103 0.0000 0.0000
# 5 0.0000 0.0000 0.0000 0.0000 35.2633 0.0000
# 6 0.0000 0.0000 0.0000 0.0000 0.0000 23.5228
#
#
#
# Elastic Compliance Matrix: (Units=1/GPa)
#
#
# Indices 1 2 3 4 5 6 
#
# 1 0.006526 -0.004823 -0.002021 0.000000 0.000000 0.000000
# 2 -0.004823 0.023340 -0.001461 0.000000 0.000000 0.000000
# 3 -0.002021 -0.001461 0.011288 0.000000 0.000000 0.000000
# 4 0.000000 0.000000 0.000000 0.039354 0.000000 0.000000
# 5 0.000000 0.000000 0.000000 0.000000 0.028358 0.000000
# 6 0.000000 0.000000 0.000000 0.000000 0.000000 0.042512
#
#
# Mechanical properties :
#
#
# Convention : Reuss Voigt Hill
#
# Bulk Modulus (GPa) = 40.74235 60.79503 50.76869
# Shear Modulus (GPa) = 28.38178 33.47133 30.92656
#
# Velocity S-wave (km/s) = 3.70321 4.02157 3.86567
# Velocity P-wave (km/s) = 6.16209 7.13719 6.66749
#
# Compressibility (1/GPa) = 0.02454448
#
# Stress axis : x y z
#
# Youngs Moduli (GPa) = 153.23415 42.84412 88.59163
#
# Poissons Ratio (x) = 0.20664 0.17901
# Poissons Ratio (y) = 0.73904 0.12946
# Poissons Ratio (z) = 0.30963 0.06261
#
# Static dielectric constant tensor:
#      x y z
#    x 1.754300 0.000000 0.000000 
#    y 0.000000 1.762570 0.000000 
#    z 0.000000 0.000000 1.792260 
# 
# From -- ./inp_files/38499.got.cif
#   From: 2010.05.17/outbox.ucp.g08.bks.cvg/sg63_20_cif.got.tgz:38499.got - 2010.06.11 16:32:19.
