data_PCOD9476192
_publ_section_title
;
Structure prediction by ZEFSAII (Michael W. Deem and Ramdas Pophale) SiO2 
 PCOD9476192
Probable space group: C M C M
;
_chemical_formula_sum "Si O2"
_cell_formula_units_Z 40
_cell_length_a 9.000000
_cell_length_b 27.000000
_cell_length_c 18.000000
_cell_angle_alpha 90.000000
_cell_angle_beta 90.000000
_cell_angle_gamma 90.000000
_cell_volume 4374.000000
_symmetry_space_group_name_H-M "C M C M"
_symmetry_group_IT_number 63
_symmetry_cell_setting 'orthorhombic'
loop_
_space_group_symop_operation_xyz
x,y,z
-x,-y,1/2+z
x,-y,-z
-x,y,1/2-z
-x,-y,-z
x,y,1/2-z
-x,y,z
x,-y,1/2+z
1/2+x,1/2+y,z
1/2-x,1/2-y,1/2+z
1/2+x,1/2-y,-z
1/2-x,1/2+y,1/2-z
1/2-x,1/2-y,-z
1/2+x,1/2+y,1/2-z
1/2-x,1/2+y,z
1/2+x,1/2-y,1/2+z
loop_
_atom_site_type_symbol
_atom_site_label
_atom_site_fract_x
_atom_site_fract_y
_atom_site_fract_z
Si Si1 0.677622 0.332889 0.590422
Si Si2 0.677536 0.026080 0.920614
Si Si3 0.171692 0.063320 0.338353
Si Si4 0.177547 0.864575 0.420705
Si Si5 0.679055 0.264611 0.162790
O O1 0.500000 0.328427 0.603088
O O2 0.728970 0.383912 0.630386
O O3 0.703160 0.343208 0.503465
O O4 0.752311 0.282406 0.619414
O O5 0.500000 0.030455 0.914166
O O6 0.747007 0.081249 0.913269
O O7 0.740380 0.985421 0.863403
O O8 0.712186 0.000000 0.000000
O O9 0.171819 0.066559 0.250000
O O10 0.000000 0.058239 0.364773
O O11 0.225661 0.819197 0.366994
O O12 0.000000 0.871909 0.410967
O O13 0.715157 0.260046 0.250000
O O14 0.500000 0.262423 0.154124
#
# Coordination Sequence:
#
# PCOD9476192 Si02
#       5
#    16  16  16  16  16
#     4  10  20  36  60  86 112 148 195 241 283 337
#     4  11  23  38  58  86 118 151 189 237 290 345
#     4  10  21  37  59  86 115 151 195 239 287 344
#     4  10  21  38  61  84 112 153 197 238 282 341
#     4  10  22  38  56  83 118 152 187 232 289 345
#
# _framework density 9.1449470000000002
#
# number of rings (size 3 to 8) (size 9 to 14) (size 15 to 20)
#    0.000    1.800    2.000    1.800    0.000    5.600 
#    0.000    2.000    0.000    0.000    0.000    0.000 
#    0.000    0.000    0.000    0.000    0.000    0.000 
#
# Total GULP energy -223228.412747 kJ/mol
# GULP energy per Si atom -5580.710319 kJ/mol
# Density = 0.912413 g / cm^3
# Si number density = 9.144947 Si / 1000 Ang^3
#
#
#
# Elastic Constant Matrix: (Units=GPa)
#
#
# Indices 1 2 3 4 5 6 
#
# 1 36.1331 48.1207 23.4204 0.0000 0.0000 0.0000
# 2 48.1207 194.1767 45.7126 0.0000 0.0000 0.0000
# 3 23.4204 45.7126 52.5093 0.0000 0.0000 0.0000
# 4 0.0000 0.0000 0.0000 38.5490 0.0000 0.0000
# 5 0.0000 0.0000 0.0000 0.0000 21.7642 0.0000
# 6 0.0000 0.0000 0.0000 0.0000 0.0000 45.2684
#
#
#
# Elastic Compliance Matrix: (Units=1/GPa)
#
#
# Indices 1 2 3 4 5 6 
#
# 1 0.048296 -0.008676 -0.013989 0.000000 0.000000 0.000000
# 2 -0.008676 0.008036 -0.003126 0.000000 0.000000 0.000000
# 3 -0.013989 -0.003126 0.028005 0.000000 0.000000 0.000000
# 4 0.000000 0.000000 0.000000 0.025941 0.000000 0.000000
# 5 0.000000 0.000000 0.000000 0.000000 0.045947 0.000000
# 6 0.000000 0.000000 0.000000 0.000000 0.000000 0.022090
#
#
# Mechanical properties :
#
#
# Convention : Reuss Voigt Hill
#
# Bulk Modulus (GPa) = 30.52842 57.48070 44.00456
# Shear Modulus (GPa) = 20.76278 32.15401 26.45840
#
# Velocity S-wave (km/s) = 3.37294 4.19742 3.80756
# Velocity P-wave (km/s) = 5.64771 7.41532 6.59104
#
# Compressibility (1/GPa) = 0.03275636
#
# Stress axis : x y z
#
# Youngs Moduli (GPa) = 20.70550 124.44175 35.70782
#
# Poissons Ratio (x) = 1.07960 0.49950
# Poissons Ratio (y) = 0.17963 0.11163
# Poissons Ratio (z) = 0.28964 0.38903
#
# Static dielectric constant tensor:
#      x y z
#    x 1.635780 0.000000 0.000000 
#    y 0.000000 1.597100 0.000000 
#    z 0.000000 0.000000 1.646580 
# 
# From -- ./inp_files/40454.got.cif
#   From: 2010.05.17/outbox.ucp.g08.bks.cvg/sg63_21_cif.got.tgz:40454.got - 2010.06.11 16:32:19.
