data_PCOD9476655
_publ_section_title
;
Structure prediction by ZEFSAII (Michael W. Deem and Ramdas Pophale) SiO2 
 PCOD9476655
Probable space group: C M C A
;
_chemical_formula_sum "Si O2"
_cell_formula_units_Z 128
_cell_length_a 24.195713
_cell_length_b 12.109940
_cell_length_c 25.628167
_cell_angle_alpha 90.000000
_cell_angle_beta 90.000000
_cell_angle_gamma 90.000000
_cell_volume 7509.274171
_symmetry_space_group_name_H-M "C M C A"
_symmetry_group_IT_number 64
_symmetry_cell_setting 'orthorhombic'
loop_
_space_group_symop_operation_xyz
x,y,z
-x,1/2-y,1/2+z
x,-y,-z
-x,1/2+y,1/2-z
-x,-y,-z
x,1/2+y,1/2-z
-x,y,z
x,1/2-y,1/2+z
1/2+x,1/2+y,z
1/2-x,-y,1/2+z
1/2+x,1/2-y,-z
1/2-x,y,1/2-z
1/2-x,1/2-y,-z
1/2+x,y,1/2-z
1/2-x,1/2+y,z
1/2+x,-y,1/2+z
loop_
_atom_site_type_symbol
_atom_site_label
_atom_site_fract_x
_atom_site_fract_y
_atom_site_fract_z
Si Si1 0.386773 0.688477 0.793048
Si Si2 0.303388 0.839566 0.855220
Si Si3 0.687827 0.001794 0.757189
Si Si4 0.161594 0.470796 0.560111
Si Si5 0.060937 0.518086 0.635072
Si Si6 0.315135 0.743147 0.612412
Si Si7 0.212356 0.987387 0.437834
Si Si8 0.886048 0.831074 0.800769
O O1 0.346164 0.749062 0.834015
O O2 0.352190 0.602575 0.757009
O O3 0.430678 0.620341 0.825964
O O4 0.408769 0.777104 0.751717
O O5 0.308665 0.937976 0.812305
O O6 0.243831 0.780368 0.862582
O O7 0.312525 0.904874 0.909329
O O8 0.750000 0.042135 0.750000
O O9 0.665972 0.908119 0.716973
O O10 0.152876 0.500000 0.500000
O O11 0.111480 0.516785 0.594426
O O12 0.167623 0.340382 0.572261
O O13 0.221969 0.516823 0.575617
O O14 0.071003 0.409095 0.669965
O O15 0.000000 0.518188 0.611490
O O16 0.311702 0.626188 0.584206
O O17 0.360516 0.745887 0.658046
O O18 0.207511 0.000000 0.500000
#
# Coordination Sequence:
#
# PCOD9476655 Si02
#       8
#    16  16  16  16  16  16  16  16
#     4  10  21  30  50  74 104 133 165 205 247 296
#     4  10  20  30  47  72 102 138 169 199 238 297
#     4  10  18  28  46  75 105 133 167 194 238 297
#     4   9  20  35  51  74 100 126 168 213 250 299
#     4  10  21  37  53  71  96 127 171 220 255 288
#     4  10  18  31  50  70 105 141 164 195 241 298
#     4  10  21  33  49  74 105 140 169 195 244 309
#     4   9  19  33  46  75 101 134 168 197 242 297
#
# _framework density 17.045589
#
# number of rings (size 3 to 8) (size 9 to 14) (size 15 to 20)
#    0.000    2.250    1.250    1.500    5.250    6.250 
#    0.000    0.000    0.000    0.000    0.000    0.875 
#    0.000    9.500    0.000    0.000    0.000    0.000 
#
# Total GULP energy -356550.234555 kJ/mol
# GULP energy per Si atom -5571.097415 kJ/mol
# Density = 1.700679 g / cm^3
# Si number density = 17.045589 Si / 1000 Ang^3
#
#
#
# Elastic Constant Matrix: (Units=GPa)
#
#
# Indices 1 2 3 4 5 6 
#
# 1 38.3232 16.8951 26.5599 0.0000 0.0000 0.0000
# 2 16.8951 65.9595 37.8313 0.0000 0.0000 0.0000
# 3 26.5599 37.8313 69.4826 0.0000 0.0000 0.0000
# 4 0.0000 0.0000 0.0000 27.0547 0.0000 0.0000
# 5 0.0000 0.0000 0.0000 0.0000 10.0976 0.0000
# 6 0.0000 0.0000 0.0000 0.0000 0.0000 3.5138
#
#
#
# Elastic Compliance Matrix: (Units=1/GPa)
#
#
# Indices 1 2 3 4 5 6 
#
# 1 0.035663 -0.001914 -0.012590 0.000000 0.000000 0.000000
# 2 -0.001914 0.022148 -0.011327 0.000000 0.000000 0.000000
# 3 -0.012590 -0.011327 0.025372 0.000000 0.000000 0.000000
# 4 0.000000 0.000000 0.000000 0.036962 0.000000 0.000000
# 5 0.000000 0.000000 0.000000 0.000000 0.099034 0.000000
# 6 0.000000 0.000000 0.000000 0.000000 0.000000 0.284596
#
#
# Mechanical properties :
#
#
# Convention : Reuss Voigt Hill
#
# Bulk Modulus (GPa) = 31.72540 37.37087 34.54813
# Shear Modulus (GPa) = 8.83479 14.29848 11.56664
#
# Velocity S-wave (km/s) = 2.27910 2.89941 2.60776
# Velocity P-wave (km/s) = 5.05749 5.76025 5.42027
#
# Compressibility (1/GPa) = 0.03152049
#
# Stress axis : x y z
#
# Youngs Moduli (GPa) = 28.04003 45.15111 39.41309
#
# Poissons Ratio (x) = 0.08640 0.49623
# Poissons Ratio (y) = 0.05366 0.44645
# Poissons Ratio (z) = 0.35304 0.51145
#
# Static dielectric constant tensor:
#      x y z
#    x 1.556800 0.000000 0.000000 
#    y 0.000000 1.600480 0.000000 
#    z 0.000000 0.000000 1.594090 
# 
# From -- ./inp_files/46770.got.cif
#   From: 2010.05.17/outbox.cif.g08.bks.cpg/sg64_24_cif.got.tgz:46770.got - 2010.06.03 16:29:19.
