data_PCOD9476755
_publ_section_title
;
Structure prediction by ZEFSAII (Michael W. Deem and Ramdas Pophale) SiO2 
 PCOD9476755
Probable space group: C M C A
;
_chemical_formula_sum "Si O2"
_cell_formula_units_Z 56
_cell_length_a 5.536429
_cell_length_b 19.003370
_cell_length_c 20.438085
_cell_angle_alpha 90.000000
_cell_angle_beta 90.000000
_cell_angle_gamma 90.000000
_cell_volume 2150.307452
_symmetry_space_group_name_H-M "C M C A"
_symmetry_group_IT_number 64
_symmetry_cell_setting 'orthorhombic'
loop_
_space_group_symop_operation_xyz
x,y,z
-x,1/2-y,1/2+z
x,-y,-z
-x,1/2+y,1/2-z
-x,-y,-z
x,1/2+y,1/2-z
-x,y,z
x,1/2-y,1/2+z
1/2+x,1/2+y,z
1/2-x,-y,1/2+z
1/2+x,1/2-y,-z
1/2-x,y,1/2-z
1/2-x,1/2-y,-z
1/2+x,y,1/2-z
1/2-x,1/2+y,z
1/2+x,-y,1/2+z
loop_
_atom_site_type_symbol
_atom_site_label
_atom_site_fract_x
_atom_site_fract_y
_atom_site_fract_z
Si Si1 0.000000 0.881825 0.566579
Si Si2 0.500000 0.452815 0.288642
Si Si3 0.500000 0.830293 0.393850
Si Si4 0.500000 0.604197 0.022409
Si Si5 0.500000 0.228494 0.945368
Si Si6 0.500000 0.394154 0.707646
Si Si7 0.000000 0.693044 0.752059
O O1 0.250524 0.922345 0.552345
O O2 0.000000 0.821338 0.509629
O O3 0.000000 0.850315 0.640224
O O4 0.250000 0.459426 0.250000
O O5 0.500000 0.526977 0.325619
O O6 0.500000 0.369638 0.305590
O O7 0.500000 0.896324 0.443637
O O8 0.249950 0.789887 0.409353
O O9 0.500000 0.846582 0.317682
O O10 0.500000 0.688532 0.039890
O O11 0.750000 0.387435 0.750000
O O12 0.750000 0.734063 0.750000
#
# Coordination Sequence:
#
# PCOD9476755 Si02
#       7
#     8   8   8   8   8   8   8
#     4  10  18  30  51  75  97 127 169 206 240 294
#     4   8  16  30  48  70  92 124 160 194 238 288
#     4  10  18  30  51  75  97 127 169 206 240 294
#     4  10  19  33  53  72  95 131 170 209 249 286
#     4  10  19  33  53  72  95 131 170 209 249 286
#     4  10  19  32  50  75 101 128 165 200 245 299
#     4  10  19  32  50  75 101 128 165 200 245 299
#
# _framework density 26.042784999999999
#
# number of rings (size 3 to 8) (size 9 to 14) (size 15 to 20)
#    0.000    2.286    0.000    6.000    0.000    0.000 
#    0.000    0.000    0.000   29.143    0.000  216.000 
#    0.000    0.000    0.000    0.000    0.000    0.000 
#
# Total GULP energy -156028.267897 kJ/mol
# GULP energy per Si atom -5572.438139 kJ/mol
# Density = 2.598351 g / cm^3
# Si number density = 26.042785 Si / 1000 Ang^3
#
#
#
# Elastic Constant Matrix: (Units=GPa)
#
#
# Indices 1 2 3 4 5 6 
#
# 1 278.0385 16.8410 26.8605 0.0000 0.0000 0.0000
# 2 16.8410 86.1916 10.1563 0.0000 0.0000 0.0000
# 3 26.8605 10.1563 112.5612 0.0000 0.0000 0.0000
# 4 0.0000 0.0000 0.0000 7.6260 0.0000 0.0000
# 5 0.0000 0.0000 0.0000 0.0000 36.6369 0.0000
# 6 0.0000 0.0000 0.0000 0.0000 0.0000 -0.2104
#
#
#
# Elastic Compliance Matrix: (Units=1/GPa)
#
#
# Indices 1 2 3 4 5 6 
#
# 1 0.003715 -0.000628 -0.000830 0.000000 0.000000 0.000000
# 2 -0.000628 0.011833 -0.000918 0.000000 0.000000 0.000000
# 3 -0.000830 -0.000918 0.009165 0.000000 0.000000 0.000000
# 4 0.000000 0.000000 0.000000 0.131131 0.000000 0.000000
# 5 0.000000 0.000000 0.000000 0.000000 0.027295 0.000000
# 6 0.000000 0.000000 0.000000 0.000000 0.000000 -4.752614
#
#
# Mechanical properties :
#
#
# Convention : Reuss Voigt Hill
#
# Bulk Modulus (GPa) = 50.09691 64.94520 57.52105
# Shear Modulus (GPa) = -1.09696 37.00606 17.95455
#
# Velocity S-wave (km/s) = -0.64971 3.77367 2.62854
# Velocity P-wave (km/s) = 4.32612 6.63170 5.59887
#
# Compressibility (1/GPa) = 0.01996131
#
# Stress axis : x y z
#
# Youngs Moduli (GPa) = 269.19123 84.50993 109.11211
#
# Poissons Ratio (x) = 0.05308 0.09054
# Poissons Ratio (y) = 0.16907 0.10014
# Poissons Ratio (z) = 0.22338 0.07756
#
# Static dielectric constant tensor:
#      x y z
#    x 2.106180 0.000000 0.000000 
#    y 0.000000 2.112660 0.000000 
#    z 0.000000 0.000000 2.100010 
# 
# From -- ./inp_files/28692.got.cif
#   From: 2010.05.17/outbox.cif.g08.bks.cpg/sg64_15_cif.got.tgz:28692.got - 2010.06.03 16:29:19.
