data_PCOD9476531
_publ_section_title
;
Structure prediction by ZEFSAII (Michael W. Deem and Ramdas Pophale) SiO2 
 PCOD9476531
Probable space group: C M C A
;
_chemical_formula_sum "Si O2"
_cell_formula_units_Z 96
_cell_length_a 20.809191
_cell_length_b 9.812675
_cell_length_c 25.517856
_cell_angle_alpha 90.000000
_cell_angle_beta 90.000000
_cell_angle_gamma 90.000000
_cell_volume 5210.588707
_symmetry_space_group_name_H-M "C M C A"
_symmetry_group_IT_number 64
_symmetry_cell_setting 'orthorhombic'
loop_
_space_group_symop_operation_xyz
x,y,z
-x,1/2-y,1/2+z
x,-y,-z
-x,1/2+y,1/2-z
-x,-y,-z
x,1/2+y,1/2-z
-x,y,z
x,1/2-y,1/2+z
1/2+x,1/2+y,z
1/2-x,-y,1/2+z
1/2+x,1/2-y,-z
1/2-x,y,1/2-z
1/2-x,1/2-y,-z
1/2+x,y,1/2-z
1/2-x,1/2+y,z
1/2+x,-y,1/2+z
loop_
_atom_site_type_symbol
_atom_site_label
_atom_site_fract_x
_atom_site_fract_y
_atom_site_fract_z
Si Si1 0.643342 0.637160 0.098821
Si Si2 0.842883 0.352961 0.015278
Si Si3 0.350343 0.311546 0.249802
Si Si4 0.801225 0.876905 0.059053
Si Si5 0.574766 0.565416 0.200590
Si Si6 0.250400 0.775767 0.166283
O O1 0.628169 0.772388 0.065153
O O2 0.662921 0.520494 0.057994
O O3 0.589740 0.587659 0.139067
O O4 0.706273 0.666643 0.135096
O O5 0.768668 0.378522 0.032241
O O6 0.870691 0.500000 0.000000
O O7 0.839524 0.248564 0.966571
O O8 0.401389 0.203760 0.271468
O O9 0.383263 0.440701 0.222999
O O10 0.303502 0.353277 0.298165
O O11 0.304060 0.235796 0.207870
O O12 0.786231 0.853011 0.120251
O O13 0.500000 0.540744 0.209682
#
# Coordination Sequence:
#
# PCOD9476531 Si02
#       6
#    16  16  16  16  16  16
#     4  10  20  34  54  82 113 150 179 232 272 341
#     4  10  19  31  51  82 119 148 174 220 286 348
#     4  10  21  36  57  80 111 148 180 235 276 336
#     4  10  17  31  52  82 116 148 174 215 277 348
#     4  11  23  40  57  78 108 152 198 233 271 321
#     4   9  19  30  54  88 116 136 179 222 291 328
#
# _framework density 18.424022000000001
#
# number of rings (size 3 to 8) (size 9 to 14) (size 15 to 20)
#    0.000    2.000    1.667    4.000    2.333    1.333 
#    3.000    0.000    0.000    2.500    0.000    0.000 
#    0.000    0.000    0.000    0.000    0.000    0.000 
#
# Total GULP energy -267514.499013 kJ/mol
# GULP energy per Si atom -5573.218729 kJ/mol
# Density = 1.838209 g / cm^3
# Si number density = 18.424022 Si / 1000 Ang^3
#
#
#
# Elastic Constant Matrix: (Units=GPa)
#
#
# Indices 1 2 3 4 5 6 
#
# 1 51.5307 15.5311 27.8183 0.0000 0.0000 0.0000
# 2 15.5311 97.6823 51.1074 0.0000 0.0000 0.0000
# 3 27.8183 51.1074 114.6939 0.0000 0.0000 0.0000
# 4 0.0000 0.0000 0.0000 31.7268 0.0000 0.0000
# 5 0.0000 0.0000 0.0000 0.0000 12.7873 0.0000
# 6 0.0000 0.0000 0.0000 0.0000 0.0000 8.9681
#
#
#
# Elastic Compliance Matrix: (Units=1/GPa)
#
#
# Indices 1 2 3 4 5 6 
#
# 1 0.022395 -0.000937 -0.005014 0.000000 0.000000 0.000000
# 2 -0.000937 0.013389 -0.005739 0.000000 0.000000 0.000000
# 3 -0.005014 -0.005739 0.012492 0.000000 0.000000 0.000000
# 4 0.000000 0.000000 0.000000 0.031519 0.000000 0.000000
# 5 0.000000 0.000000 0.000000 0.000000 0.078202 0.000000
# 6 0.000000 0.000000 0.000000 0.000000 0.000000 0.111506
#
#
# Mechanical properties :
#
#
# Convention : Reuss Voigt Hill
#
# Bulk Modulus (GPa) = 40.16735 50.31340 45.24038
# Shear Modulus (GPa) = 16.60119 21.99311 19.29715
#
# Velocity S-wave (km/s) = 3.00503 3.45877 3.23985
# Velocity P-wave (km/s) = 5.82144 6.58169 6.21321
#
# Compressibility (1/GPa) = 0.02489584
#
# Stress axis : x y z
#
# Youngs Moduli (GPa) = 44.65229 74.68942 80.05021
#
# Poissons Ratio (x) = 0.07001 0.40138
# Poissons Ratio (y) = 0.04186 0.45938
# Poissons Ratio (z) = 0.22389 0.42862
#
# Static dielectric constant tensor:
#      x y z
#    x 1.599510 0.000000 0.000000 
#    y 0.000000 1.670150 0.000000 
#    z 0.000000 0.000000 1.685390 
# 
# From -- ./inp_files/50966.got.cif
#   From: 2010.05.17/outbox.cif.g08.bks.cpg/sg64_26_cif.got.tgz:50966.got - 2010.06.03 16:29:19.
