data_PCOD9476416
_publ_section_title
;
Structure prediction by ZEFSAII (Michael W. Deem and Ramdas Pophale) SiO2 
 PCOD9476416
Probable space group: C M C A
;
_chemical_formula_sum "Si O2"
_cell_formula_units_Z 80
_cell_length_a 15.417078
_cell_length_b 28.216591
_cell_length_c 6.867267
_cell_angle_alpha 90.000000
_cell_angle_beta 90.000000
_cell_angle_gamma 90.000000
_cell_volume 2987.380528
_symmetry_space_group_name_H-M "C M C A"
_symmetry_group_IT_number 64
_symmetry_cell_setting 'orthorhombic'
loop_
_space_group_symop_operation_xyz
x,y,z
-x,1/2-y,1/2+z
x,-y,-z
-x,1/2+y,1/2-z
-x,-y,-z
x,1/2+y,1/2-z
-x,y,z
x,1/2-y,1/2+z
1/2+x,1/2+y,z
1/2-x,-y,1/2+z
1/2+x,1/2-y,-z
1/2-x,y,1/2-z
1/2-x,1/2-y,-z
1/2+x,y,1/2-z
1/2-x,1/2+y,z
1/2+x,-y,1/2+z
loop_
_atom_site_type_symbol
_atom_site_label
_atom_site_fract_x
_atom_site_fract_y
_atom_site_fract_z
Si Si1 0.099263 0.185696 0.417463
Si Si2 0.101818 0.211969 0.966489
Si Si3 0.895671 0.987064 0.222460
Si Si4 0.398395 0.113161 0.646702
Si Si5 0.850601 0.911763 0.707563
O O1 0.142021 0.235445 0.481061
O O2 0.130175 0.131767 0.437793
O O3 0.000000 0.186392 0.483835
O O4 0.101442 0.193636 0.185443
O O5 0.137746 0.167272 0.842577
O O6 0.000000 0.218272 0.907114
O O7 0.859801 0.933761 0.248642
O O8 0.000000 0.983469 0.228385
O O9 0.873505 0.034149 0.344358
O O10 0.869028 0.000000 0.000000
O O11 0.500000 0.116361 0.697604
O O12 0.396545 0.099146 0.415391
O O13 0.750000 0.909797 0.750000
#
# Coordination Sequence:
#
# PCOD9476416 Si02
#       5
#    16  16  16  16  16
#     4   9  16  28  44  63  87 115 148 181 215 257
#     4   8  14  25  45  68  86 108 143 185 219 251
#     4   8  13  24  44  64  80 103 140 186 224 251
#     4   8  14  27  46  65  83 106 144 189 221 249
#     4  10  17  24  38  63  91 114 136 172 220 267
#
# _framework density 26.779312999999998
#
# number of rings (size 3 to 8) (size 9 to 14) (size 15 to 20)
#    0.000    3.400    0.000    4.200    0.000    0.000 
#    0.000    4.000    0.000    8.400    0.000    0.000 
#    0.000   60.000    0.000    0.000    0.000    0.000 
#
# Total GULP energy -223193.276490 kJ/mol
# GULP energy per Si atom -5579.831912 kJ/mol
# Density = 2.671836 g / cm^3
# Si number density = 26.779313 Si / 1000 Ang^3
#
#
#
# Elastic Constant Matrix: (Units=GPa)
#
#
# Indices 1 2 3 4 5 6 
#
# 1 43.0938 29.5604 -6.8547 0.0000 0.0000 0.0000
# 2 29.5604 374.4166 61.7575 0.0000 0.0000 0.0000
# 3 -6.8547 61.7575 79.3852 0.0000 0.0000 0.0000
# 4 0.0000 0.0000 0.0000 70.0524 0.0000 0.0000
# 5 0.0000 0.0000 0.0000 0.0000 -6.5965 0.0000
# 6 0.0000 0.0000 0.0000 0.0000 0.0000 -22.7532
#
#
#
# Elastic Compliance Matrix: (Units=1/GPa)
#
#
# Indices 1 2 3 4 5 6 
#
# 1 0.025792 -0.002757 0.004372 0.000000 0.000000 0.000000
# 2 -0.002757 0.003359 -0.002851 0.000000 0.000000 0.000000
# 3 0.004372 -0.002851 0.015192 0.000000 0.000000 0.000000
# 4 0.000000 0.000000 0.000000 0.014275 0.000000 0.000000
# 5 0.000000 0.000000 0.000000 0.000000 -0.151595 0.000000
# 6 0.000000 0.000000 0.000000 0.000000 0.000000 -0.043950
#
#
# Mechanical properties :
#
#
# Convention : Reuss Voigt Hill
#
# Bulk Modulus (GPa) = 23.88303 73.98023 48.93163
# Shear Modulus (GPa) = -41.49495 35.63602 -2.92946
#
# Velocity S-wave (km/s) = -3.94066 3.65187 -1.04704
# Velocity P-wave (km/s) = 3.43034 6.74295 4.10489
#
# Compressibility (1/GPa) = 0.04187073
#
# Stress axis : x y z
#
# Youngs Moduli (GPa) = 38.77144 297.72622 65.82274
#
# Poissons Ratio (x) = 0.82098 -0.28779
# Poissons Ratio (y) = 0.10691 0.18766
# Poissons Ratio (z) = -0.16952 0.84884
#
# Static dielectric constant tensor:
#      x y z
#    x 1.993320 0.000000 0.000000 
#    y 0.000000 2.245520 0.000000 
#    z 0.000000 0.000000 2.215120 
# 
# From -- ./inp_files/7061.got.cif
#   From: 2010.05.17/outbox.cif.g08.bks.cpg/sg64_4_cif.got.tgz:7061.got - 2010.06.03 16:29:19.
