data_PCOD9476863
_publ_section_title
;
Structure prediction by ZEFSAII (Michael W. Deem and Ramdas Pophale) SiO2 
 PCOD9476863
Probable space group: C M C A
;
_chemical_formula_sum "Si O2"
_cell_formula_units_Z 96
_cell_length_a 7.583474
_cell_length_b 24.206059
_cell_length_c 26.579426
_cell_angle_alpha 90.000000
_cell_angle_beta 90.000000
_cell_angle_gamma 90.000000
_cell_volume 4879.079420
_symmetry_space_group_name_H-M "C M C A"
_symmetry_group_IT_number 64
_symmetry_cell_setting 'orthorhombic'
loop_
_space_group_symop_operation_xyz
x,y,z
-x,1/2-y,1/2+z
x,-y,-z
-x,1/2+y,1/2-z
-x,-y,-z
x,1/2+y,1/2-z
-x,y,z
x,1/2-y,1/2+z
1/2+x,1/2+y,z
1/2-x,-y,1/2+z
1/2+x,1/2-y,-z
1/2-x,y,1/2-z
1/2-x,1/2-y,-z
1/2+x,y,1/2-z
1/2-x,1/2+y,z
1/2+x,-y,1/2+z
loop_
_atom_site_type_symbol
_atom_site_label
_atom_site_fract_x
_atom_site_fract_y
_atom_site_fract_z
Si Si1 0.289457 0.255601 0.441827
Si Si2 0.699025 0.628226 0.900672
Si Si3 0.709194 0.637635 0.092553
Si Si4 0.708349 0.816160 0.807981
Si Si5 0.216130 0.436042 0.498802
Si Si6 0.712224 0.809819 0.308107
O O1 0.500000 0.261281 0.433344
O O2 0.250000 0.250000 0.500000
O O3 0.195433 0.309861 0.422536
O O4 0.220702 0.198765 0.418889
O O5 0.500000 0.606601 0.892644
O O6 0.780948 0.642856 0.846199
O O7 0.777634 0.592410 0.946524
O O8 0.500000 0.638984 0.084180
O O9 0.734553 0.636471 0.152648
O O10 0.776036 0.595374 0.049934
O O11 0.500000 0.811785 0.812356
O O12 0.750000 0.828960 0.750000
O O13 0.780698 0.753235 0.818034
O O14 0.266212 0.500000 0.500000
O O15 0.000000 0.433157 0.498006
O O16 0.500000 0.808642 0.314635
O O17 0.750000 0.821712 0.250000
#
# Coordination Sequence:
#
# PCOD9476863 Si02
#       6
#    16  16  16  16  16  16
#     4  11  20  29  45  72 103 133 163 200 249 302
#     4  10  18  32  50  73 101 131 168 205 247 300
#     4  10  19  31  49  73 101 132 168 207 245 298
#     4  10  19  31  48  72 104 136 164 198 244 298
#     4   9  18  33  53  74  97 130 173 215 252 294
#     4   9  18  29  45  69 101 132 160 196 239 294
#
# _framework density 19.675844999999999
#
# number of rings (size 3 to 8) (size 9 to 14) (size 15 to 20)
#    0.000    2.167    3.333    1.000    0.000    2.000 
#    0.000    0.000    0.000    3.000    0.000    2.333 
#    0.000    0.000    0.000    0.000    0.000    0.000 
#
# Total GULP energy -267323.108997 kJ/mol
# GULP energy per Si atom -5569.231437 kJ/mol
# Density = 1.963106 g / cm^3
# Si number density = 19.675845 Si / 1000 Ang^3
#
#
#
# Elastic Constant Matrix: (Units=GPa)
#
#
# Indices 1 2 3 4 5 6 
#
# 1 56.0573 5.3683 -3.1012 0.0000 0.0000 0.0000
# 2 5.3683 101.0416 74.7111 0.0000 0.0000 0.0000
# 3 -3.1012 74.7111 182.3969 0.0000 0.0000 0.0000
# 4 0.0000 0.0000 0.0000 12.7036 0.0000 0.0000
# 5 0.0000 0.0000 0.0000 0.0000 18.8100 0.0000
# 6 0.0000 0.0000 0.0000 0.0000 0.0000 6.2185
#
#
#
# Elastic Compliance Matrix: (Units=1/GPa)
#
#
# Indices 1 2 3 4 5 6 
#
# 1 0.018057 -0.001702 0.001004 0.000000 0.000000 0.000000
# 2 -0.001702 0.014357 -0.005910 0.000000 0.000000 0.000000
# 3 0.001004 -0.005910 0.007920 0.000000 0.000000 0.000000
# 4 0.000000 0.000000 0.000000 0.078718 0.000000 0.000000
# 5 0.000000 0.000000 0.000000 0.000000 0.053163 0.000000
# 6 0.000000 0.000000 0.000000 0.000000 0.000000 0.160812
#
#
# Mechanical properties :
#
#
# Convention : Reuss Voigt Hill
#
# Bulk Modulus (GPa) = 36.87328 54.82799 45.85064
# Shear Modulus (GPa) = 14.07331 25.04758 19.56045
#
# Velocity S-wave (km/s) = 2.67733 3.57180 3.15641
# Velocity P-wave (km/s) = 5.32340 6.70347 6.05289
#
# Compressibility (1/GPa) = 0.02711991
#
# Stress axis : x y z
#
# Youngs Moduli (GPa) = 55.37892 69.65252 126.25850
#
# Poissons Ratio (x) = 0.11854 -0.12678
# Poissons Ratio (y) = 0.09424 0.74614
# Poissons Ratio (z) = -0.05561 0.41162
#
# Static dielectric constant tensor:
#      x y z
#    x 1.738630 0.000000 0.000000 
#    y 0.000000 1.708920 0.000000 
#    z 0.000000 0.000000 1.864970 
# 
# From -- ./inp_files/43044.got.cif
#   From: 2010.05.17/outbox.cif.g08.bks.cpg/sg64_22_cif.got.tgz:43044.got - 2010.06.03 16:29:19.
