data_PCOD9476721
_publ_section_title
;
Structure prediction by ZEFSAII (Michael W. Deem and Ramdas Pophale) SiO2 
 PCOD9476721
Probable space group: C M C A
;
_chemical_formula_sum "Si O2"
_cell_formula_units_Z 112
_cell_length_a 7.565835
_cell_length_b 30.669224
_cell_length_c 23.410651
_cell_angle_alpha 90.000000
_cell_angle_beta 90.000000
_cell_angle_gamma 90.000000
_cell_volume 5432.167387
_symmetry_space_group_name_H-M "C M C A"
_symmetry_group_IT_number 64
_symmetry_cell_setting 'orthorhombic'
loop_
_space_group_symop_operation_xyz
x,y,z
-x,1/2-y,1/2+z
x,-y,-z
-x,1/2+y,1/2-z
-x,-y,-z
x,1/2+y,1/2-z
-x,y,z
x,1/2-y,1/2+z
1/2+x,1/2+y,z
1/2-x,-y,1/2+z
1/2+x,1/2-y,-z
1/2-x,y,1/2-z
1/2-x,1/2-y,-z
1/2+x,y,1/2-z
1/2-x,1/2+y,z
1/2+x,-y,1/2+z
loop_
_atom_site_type_symbol
_atom_site_label
_atom_site_fract_x
_atom_site_fract_y
_atom_site_fract_z
Si Si1 0.288169 0.701187 0.979506
Si Si2 0.787993 0.903139 0.186257
Si Si3 0.791292 0.286758 0.686070
Si Si4 0.284677 0.443900 0.947921
Si Si5 0.289654 0.810084 0.351625
Si Si6 0.715797 0.958352 0.422988
Si Si7 0.216760 0.648097 0.411466
O O1 0.500000 0.696375 0.976742
O O2 0.217584 0.692879 0.916187
O O3 0.250000 0.750000 0.000000
O O4 0.225537 0.668660 0.028373
O O5 0.750000 0.919638 0.250000
O O6 0.720505 0.853242 0.179683
O O7 0.722973 0.931686 0.132413
O O8 0.000000 0.902628 0.181385
O O9 0.750000 0.301101 0.750000
O O10 0.734978 0.236729 0.677320
O O11 0.719148 0.320162 0.638793
O O12 0.000000 0.286325 0.678458
O O13 0.500000 0.444365 0.948152
O O14 0.228950 0.490936 0.924261
O O15 0.227675 0.402176 0.911602
O O16 0.231852 0.439750 0.014722
O O17 0.500000 0.815971 0.355805
O O18 0.500000 0.957477 0.422258
O O19 0.000000 0.648546 0.410274
#
# Coordination Sequence:
#
# PCOD9476721 Si02
#       7
#    16  16  16  16  16  16  16
#     4  10  18  30  48  73 100 126 156 197 245 288
#     4  10  20  33  48  72 101 131 164 200 242 289
#     4  11  22  35  49  66  93 130 169 205 239 282
#     4   8  13  25  48  75  97 120 153 199 249 289
#     4  10  20  33  51  72  98 130 163 201 244 290
#     4   8  14  26  47  74 100 122 153 198 244 289
#     4   9  17  29  46  69  97 126 157 196 241 288
#
# _framework density 20.617920999999999
#
# number of rings (size 3 to 8) (size 9 to 14) (size 15 to 20)
#    0.000    2.571    1.429    2.571    0.000    5.143 
#    0.000    0.714    0.000    0.000    0.000    4.000 
#    0.000    0.000    0.000    0.000    0.000    0.000 
#
# Total GULP energy -312511.515200 kJ/mol
# GULP energy per Si atom -5580.562771 kJ/mol
# Density = 2.057099 g / cm^3
# Si number density = 20.617921 Si / 1000 Ang^3
#
#
#
# Elastic Constant Matrix: (Units=GPa)
#
#
# Indices 1 2 3 4 5 6 
#
# 1 46.7129 1.8419 2.7247 0.0000 0.0000 0.0000
# 2 1.8419 137.6781 65.4205 0.0000 0.0000 0.0000
# 3 2.7247 65.4205 124.8727 0.0000 0.0000 0.0000
# 4 0.0000 0.0000 0.0000 21.2725 0.0000 0.0000
# 5 0.0000 0.0000 0.0000 0.0000 2.8110 0.0000
# 6 0.0000 0.0000 0.0000 0.0000 0.0000 -7.2265
#
#
#
# Elastic Compliance Matrix: (Units=1/GPa)
#
#
# Indices 1 2 3 4 5 6 
#
# 1 0.021435 -0.000086 -0.000423 0.000000 0.000000 0.000000
# 2 -0.000086 0.009671 -0.005065 0.000000 0.000000 0.000000
# 3 -0.000423 -0.005065 0.010671 0.000000 0.000000 0.000000
# 4 0.000000 0.000000 0.000000 0.047009 0.000000 0.000000
# 5 0.000000 0.000000 0.000000 0.000000 0.355748 0.000000
# 6 0.000000 0.000000 0.000000 0.000000 0.000000 -0.138379
#
#
# Mechanical properties :
#
#
# Convention : Reuss Voigt Hill
#
# Bulk Modulus (GPa) = 32.64721 49.91532 41.28127
# Shear Modulus (GPa) = 15.26661 19.32316 17.29488
#
# Velocity S-wave (km/s) = 2.72408 3.06470 2.89939
# Velocity P-wave (km/s) = 5.07572 6.06510 5.59233
#
# Compressibility (1/GPa) = 0.03063049
#
# Stress axis : x y z
#
# Youngs Moduli (GPa) = 46.65179 103.40079 93.71363
#
# Poissons Ratio (x) = 0.00888 0.03961
# Poissons Ratio (y) = 0.00401 0.47464
# Poissons Ratio (z) = 0.01972 0.52370
#
# Static dielectric constant tensor:
#      x y z
#    x 1.796670 0.000000 0.000000 
#    y 0.000000 1.735730 0.000000 
#    z 0.000000 0.000000 1.717890 
# 
# From -- ./inp_files/38576.got.cif
#   From: 2010.05.17/outbox.cif.g08.bks.cpg/sg64_20_cif.got.tgz:38576.got - 2010.06.03 16:29:19.
