data_PCOD9476289
_publ_section_title
;
Structure prediction by ZEFSAII (Michael W. Deem and Ramdas Pophale) SiO2 
 PCOD9476289
Probable space group: C M C A
;
_chemical_formula_sum "Si O2"
_cell_formula_units_Z 112
_cell_length_a 23.724204
_cell_length_b 14.607803
_cell_length_c 15.178478
_cell_angle_alpha 90.000000
_cell_angle_beta 90.000000
_cell_angle_gamma 90.000000
_cell_volume 5260.230543
_symmetry_space_group_name_H-M "C M C A"
_symmetry_group_IT_number 64
_symmetry_cell_setting 'orthorhombic'
loop_
_space_group_symop_operation_xyz
x,y,z
-x,1/2-y,1/2+z
x,-y,-z
-x,1/2+y,1/2-z
-x,-y,-z
x,1/2+y,1/2-z
-x,y,z
x,1/2-y,1/2+z
1/2+x,1/2+y,z
1/2-x,-y,1/2+z
1/2+x,1/2-y,-z
1/2-x,y,1/2-z
1/2-x,1/2-y,-z
1/2+x,y,1/2-z
1/2-x,1/2+y,z
1/2+x,-y,1/2+z
loop_
_atom_site_type_symbol
_atom_site_label
_atom_site_fract_x
_atom_site_fract_y
_atom_site_fract_z
Si Si1 0.835766 0.920073 0.299363
Si Si2 0.063967 0.245178 0.023026
Si Si3 0.242315 0.846175 0.947191
Si Si4 0.561068 0.048432 0.907028
Si Si5 0.651880 0.295978 0.629785
Si Si6 0.711278 0.601960 0.872752
Si Si7 0.357411 0.702393 0.174586
O O1 0.886419 0.971445 0.345803
O O2 0.773936 0.925251 0.342196
O O3 0.829982 0.946642 0.196519
O O4 0.850458 0.812574 0.315310
O O5 0.103612 0.260795 0.937082
O O6 0.000000 0.214406 0.002455
O O7 0.059344 0.344898 0.067647
O O8 0.096444 0.186554 0.097793
O O9 0.305875 0.867815 0.917278
O O10 0.201192 0.835412 0.864655
O O11 0.250000 0.750000 0.000000
O O12 0.212563 0.905983 0.022530
O O13 0.500000 0.022206 0.868786
O O14 0.567832 0.000000 0.000000
O O15 0.693433 0.208096 0.646257
O O16 0.631008 0.327566 0.725341
#
# Coordination Sequence:
#
# PCOD9476289 Si02
#       7
#    16  16  16  16  16  16  16
#     4   9  15  25  42  68  86 116 154 185 234 275
#     4  10  19  30  42  61  90 124 156 187 232 277
#     4  10  13  22  38  59  87 115 145 181 204 256
#     4   9  18  32  48  65  85 114 157 206 244 277
#     4  10  17  25  41  65  94 117 154 185 217 277
#     4   9  15  23  41  67  91 116 146 180 219 276
#     4  10  16  25  39  62  91 119 149 181 220 272
#
# _framework density 21.291841999999999
#
# number of rings (size 3 to 8) (size 9 to 14) (size 15 to 20)
#    0.000    2.429    5.714    1.286    0.000    0.571 
#    0.000    2.143    0.000    0.000   14.857    0.000 
#    0.000    0.000    0.000    5.143    1.429    0.571 
#
# Total GULP energy -311841.915419 kJ/mol
# GULP energy per Si atom -5568.605632 kJ/mol
# Density = 2.124338 g / cm^3
# Si number density = 21.291842 Si / 1000 Ang^3
#
#
#
# Elastic Constant Matrix: (Units=GPa)
#
#
# Indices 1 2 3 4 5 6 
#
# 1 169.2076 4.4391 92.2872 0.0000 0.0000 0.0000
# 2 4.4391 33.2410 -1.1101 0.0000 0.0000 0.0000
# 3 92.2872 -1.1101 169.6472 0.0000 0.0000 0.0000
# 4 0.0000 0.0000 0.0000 -2.0655 0.0000 0.0000
# 5 0.0000 0.0000 0.0000 0.0000 111.7383 0.0000
# 6 0.0000 0.0000 0.0000 0.0000 0.0000 6.4111
#
#
#
# Elastic Compliance Matrix: (Units=1/GPa)
#
#
# Indices 1 2 3 4 5 6 
#
# 1 0.008457 -0.001283 -0.004609 0.000000 0.000000 0.000000
# 2 -0.001283 0.030285 0.000896 0.000000 0.000000 0.000000
# 3 -0.004609 0.000896 0.008408 0.000000 0.000000 0.000000
# 4 0.000000 0.000000 0.000000 -0.484141 0.000000 0.000000
# 5 0.000000 0.000000 0.000000 0.000000 0.008949 0.000000
# 6 0.000000 0.000000 0.000000 0.000000 0.000000 0.155979
#
#
# Mechanical properties :
#
#
# Convention : Reuss Voigt Hill
#
# Bulk Modulus (GPa) = 26.91250 62.59202 44.75226
# Shear Modulus (GPa) = -20.02531 41.64876 10.81173
#
# Velocity S-wave (km/s) = -3.07011 4.42757 2.25586
# Velocity P-wave (km/s) = 0.31595 7.45646 5.27725
#
# Compressibility (1/GPa) = 0.03715746
#
# Stress axis : x y z
#
# Youngs Moduli (GPa) = 118.23856 33.02000 118.93654
#
# Poissons Ratio (x) = 0.04238 0.54821
# Poissons Ratio (y) = 0.15174 -0.10660
# Poissons Ratio (z) = 0.54499 -0.02960
#
# Static dielectric constant tensor:
#      x y z
#    x 1.844470 0.000000 0.000000 
#    y 0.000000 2.017500 0.000000 
#    z 0.000000 0.000000 1.845950 
# 
# From -- ./inp_files/34599.got.cif
#   From: 2010.05.17/outbox.cif.g08.bks.cpg/sg64_18_cif.got.tgz:34599.got - 2010.06.03 16:29:19.
