data_PCOD9476218
_publ_section_title
;
Structure prediction by ZEFSAII (Michael W. Deem and Ramdas Pophale) SiO2 
 PCOD9476218
Probable space group: C M C M
;
_chemical_formula_sum "Si O2"
_cell_formula_units_Z 56
_cell_length_a 24.000000
_cell_length_b 15.000000
_cell_length_c 15.000000
_cell_angle_alpha 90.000000
_cell_angle_beta 90.000000
_cell_angle_gamma 90.000000
_cell_volume 5400.000000
_symmetry_space_group_name_H-M "C M C M"
_symmetry_group_IT_number 63
_symmetry_cell_setting 'orthorhombic'
loop_
_space_group_symop_operation_xyz
x,y,z
-x,-y,1/2+z
x,-y,-z
-x,y,1/2-z
-x,-y,-z
x,y,1/2-z
-x,y,z
x,-y,1/2+z
1/2+x,1/2+y,z
1/2-x,1/2-y,1/2+z
1/2+x,1/2-y,-z
1/2-x,1/2+y,1/2-z
1/2-x,1/2-y,-z
1/2+x,1/2+y,1/2-z
1/2-x,1/2+y,z
1/2+x,1/2-y,1/2+z
loop_
_atom_site_type_symbol
_atom_site_label
_atom_site_fract_x
_atom_site_fract_y
_atom_site_fract_z
Si Si1 0.323142 0.245595 0.650526
Si Si2 0.765610 0.573316 0.599425
Si Si3 0.440477 0.557947 0.410771
Si Si4 0.610999 0.232196 0.350761
Si Si5 0.777998 0.625233 0.100582
Si Si6 0.649068 0.567410 0.847482
Si Si7 0.063652 0.265250 0.041816
O O1 0.339507 0.274696 0.750000
O O2 0.285143 0.157374 0.655391
O O3 0.280980 0.321939 0.611512
O O4 0.379516 0.216020 0.597960
O O5 0.788830 0.600893 0.502530
O O6 0.779361 0.475754 0.638475
O O7 0.699252 0.569983 0.584287
O O8 0.440245 0.500000 0.500000
O O9 0.500000 0.544850 0.364008
O O10 0.389554 0.518169 0.356732
O O11 0.437091 0.658764 0.442712
O O12 0.591112 0.209398 0.250000
O O13 0.672228 0.187557 0.363372
O O14 0.616242 0.339809 0.354659
O O15 0.575156 0.208787 0.438555
O O16 0.675884 0.566689 0.750000
O O17 0.000000 0.296086 0.066867
#
# Coordination Sequence:
#
# PCOD9476218 Si02
#       7
#    16  16  16  16  16  16  16
#     4  12  24  41  65  94 134 174 210 261 318 378
#     4  11  23  38  65  94 126 170 211 256 323 384
#     4  10  21  36  56  82 119 167 210 252 306 368
#     4  11  22  39  64  91 126 163 206 265 327 385
#     4  11  23  40  64  96 129 166 211 266 320 385
#     4  11  22  35  56  90 126 165 211 255 306 377
#     4  11  24  42  63  88 124 169 219 265 313 380
#
# _framework density 10.370369999999999
#
# number of rings (size 3 to 8) (size 9 to 14) (size 15 to 20)
#    0.000    1.000    4.286    3.000    2.000    4.857 
#    0.000    2.857    0.000    1.714    0.000    2.000 
#    0.000    0.000    0.000    0.000    0.000    0.000 
#
# Total GULP energy -312058.759747 kJ/mol
# GULP energy per Si atom -5572.477853 kJ/mol
# Density = 1.034677 g / cm^3
# Si number density = 10.370370 Si / 1000 Ang^3
#
#
#
# Elastic Constant Matrix: (Units=GPa)
#
#
# Indices 1 2 3 4 5 6 
#
# 1 111.4760 32.4710 25.8449 0.0000 0.0000 0.0000
# 2 32.4710 71.4538 23.5256 0.0000 0.0000 0.0000
# 3 25.8449 23.5256 91.6218 0.0000 0.0000 0.0000
# 4 0.0000 0.0000 0.0000 2.1727 0.0000 0.0000
# 5 0.0000 0.0000 0.0000 0.0000 13.2190 0.0000
# 6 0.0000 0.0000 0.0000 0.0000 0.0000 -443.7263
#
#
#
# Elastic Compliance Matrix: (Units=1/GPa)
#
#
# Indices 1 2 3 4 5 6 
#
# 1 0.010640 -0.004202 -0.001922 0.000000 0.000000 0.000000
# 2 -0.004202 0.016947 -0.003166 0.000000 0.000000 0.000000
# 3 -0.001922 -0.003166 0.012270 0.000000 0.000000 0.000000
# 4 0.000000 0.000000 0.000000 0.460260 0.000000 0.000000
# 5 0.000000 0.000000 0.000000 0.000000 0.075648 0.000000
# 6 0.000000 0.000000 0.000000 0.000000 0.000000 -0.002254
#
#
# Mechanical properties :
#
#
# Convention : Reuss Voigt Hill
#
# Bulk Modulus (GPa) = 47.00266 48.69275 47.84771
# Shear Modulus (GPa) = 8.34467 -72.81957 -32.23745
#
# Velocity S-wave (km/s) = 2.00800 -5.93175 -3.94675
# Velocity P-wave (km/s) = 5.29974 4.83595 1.53312
#
# Compressibility (1/GPa) = 0.02127539
#
# Stress axis : x y z
#
# Youngs Moduli (GPa) = 93.98211 59.00692 81.50183
#
# Poissons Ratio (x) = 0.24797 0.15668
# Poissons Ratio (y) = 0.39495 0.25804
# Poissons Ratio (z) = 0.18067 0.18682
#
# Static dielectric constant tensor:
#      x y z
#    x 1.783560 0.000000 0.000000 
#    y 0.000000 1.747320 0.000000 
#    z 0.000000 0.000000 1.831920 
# 
# From -- ./inp_files/36872.got.cif
#   From: 2010.05.17/outbox.ucp.g08.bks.cvg/sg63_19_cif.got.tgz:36872.got - 2010.06.11 16:32:19.
