data_PCOD9476024
_publ_section_title
;
Structure prediction by ZEFSAII (Michael W. Deem and Ramdas Pophale) SiO2 
 PCOD9476024
Probable space group: C M C M
;
_chemical_formula_sum "Si O2"
_cell_formula_units_Z 80
_cell_length_a 23.170895
_cell_length_b 29.677675
_cell_length_c 9.394745
_cell_angle_alpha 90.000000
_cell_angle_beta 90.000000
_cell_angle_gamma 90.000000
_cell_volume 6460.374294
_symmetry_space_group_name_H-M "C M C M"
_symmetry_group_IT_number 63
_symmetry_cell_setting 'orthorhombic'
loop_
_space_group_symop_operation_xyz
x,y,z
-x,-y,1/2+z
x,-y,-z
-x,y,1/2-z
-x,-y,-z
x,y,1/2-z
-x,y,z
x,-y,1/2+z
1/2+x,1/2+y,z
1/2-x,1/2-y,1/2+z
1/2+x,1/2-y,-z
1/2-x,1/2+y,1/2-z
1/2-x,1/2-y,-z
1/2+x,1/2+y,1/2-z
1/2-x,1/2+y,z
1/2+x,1/2-y,1/2+z
loop_
_atom_site_type_symbol
_atom_site_label
_atom_site_fract_x
_atom_site_fract_y
_atom_site_fract_z
Si Si1 0.665397 0.725576 0.913968
Si Si2 0.432461 0.226886 0.919215
Si Si3 0.137314 0.635216 0.580216
Si Si4 0.262567 0.819750 0.914044
Si Si5 0.432526 0.954090 0.420351
O O1 0.657134 0.712392 0.750000
O O2 0.702372 0.772218 0.914362
O O3 0.606182 0.738278 0.992419
O O4 0.703950 0.690037 0.000569
O O5 0.425651 0.235391 0.750000
O O6 0.500000 0.228413 0.954275
O O7 0.406516 0.176943 0.945720
O O8 0.149147 0.634968 0.750000
O O9 0.195332 0.645678 0.494002
O O10 0.106579 0.588587 0.540657
O O11 0.252132 0.831918 0.750000
O O12 0.428343 0.960366 0.250000
O O13 0.500000 0.944437 0.452999
O O14 0.416394 0.000000 0.500000
#
# Coordination Sequence:
#
# PCOD9476024 Si02
#       5
#    16  16  16  16  16
#     4   9  16  25  36  50  69  91 114 142 176 212
#     4   9  16  25  37  52  70  93 120 149 180 213
#     4   9  16  26  39  53  69  90 118 151 185 219
#     4   9  16  25  37  52  68  87 113 145 179 213
#     4   9  17  28  40  53  70  93 120 150 185 223
#
# _framework density 12.383184
#
# number of rings (size 3 to 8) (size 9 to 14) (size 15 to 20)
#    0.000    3.000    0.000    1.800    0.000    8.400 
#    0.000    0.000    0.000    3.600    0.000    0.000 
#    0.000    0.000    0.000    0.000    0.000    1.000 
#
# Total GULP energy -222733.003866 kJ/mol
# GULP energy per Si atom -5568.325097 kJ/mol
# Density = 1.235500 g / cm^3
# Si number density = 12.383184 Si / 1000 Ang^3
#
#
#
# Elastic Constant Matrix: (Units=GPa)
#
#
# Indices 1 2 3 4 5 6 
#
# 1 92.0949 53.8768 63.8940 0.0000 0.0000 0.0000
# 2 53.8768 64.6407 46.9638 0.0000 0.0000 0.0000
# 3 63.8940 46.9638 72.6633 0.0000 0.0000 0.0000
# 4 0.0000 0.0000 0.0000 17.1802 0.0000 0.0000
# 5 0.0000 0.0000 0.0000 0.0000 21.0859 0.0000
# 6 0.0000 0.0000 0.0000 0.0000 0.0000 23.1494
#
#
#
# Elastic Compliance Matrix: (Units=1/GPa)
#
#
# Indices 1 2 3 4 5 6 
#
# 1 0.031953 -0.011725 -0.020519 0.000000 0.000000 0.000000
# 2 -0.011725 0.033468 -0.011321 0.000000 0.000000 0.000000
# 3 -0.020519 -0.011321 0.039122 0.000000 0.000000 0.000000
# 4 0.000000 0.000000 0.000000 0.058206 0.000000 0.000000
# 5 0.000000 0.000000 0.000000 0.000000 0.047425 0.000000
# 6 0.000000 0.000000 0.000000 0.000000 0.000000 0.043198
#
#
# Mechanical properties :
#
#
# Convention : Reuss Voigt Hill
#
# Bulk Modulus (GPa) = 57.42823 62.09645 59.76234
# Shear Modulus (GPa) = 14.43807 16.59406 15.51607
#
# Velocity S-wave (km/s) = 3.41829 3.66464 3.54361
# Velocity P-wave (km/s) = 7.87758 8.25595 8.06899
#
# Compressibility (1/GPa) = 0.01741304
#
# Stress axis : x y z
#
# Youngs Moduli (GPa) = 31.29563 29.87971 25.56097
#
# Poissons Ratio (x) = 0.35033 0.52449
# Poissons Ratio (y) = 0.36693 0.28938
# Poissons Ratio (z) = 0.64216 0.33827
#
# Static dielectric constant tensor:
#      x y z
#    x 1.389560 0.000000 0.000000 
#    y 0.000000 1.373410 0.000000 
#    z 0.000000 0.000000 1.415490 
# 
# From -- ./inp_files/6647.got.cif
#   From: 2010.05.17/outbox.cif.g08.bks.cpg/sg63_4_cif.got.tgz:6647.got - 2010.06.03 15:47:04.
