data_PCOD9476370
_publ_section_title
;
Structure prediction by ZEFSAII (Michael W. Deem and Ramdas Pophale) SiO2 
 PCOD9476370
Probable space group: C M C A
;
_chemical_formula_sum "Si O2"
_cell_formula_units_Z 56
_cell_length_a 28.714630
_cell_length_b 5.268812
_cell_length_c 16.664517
_cell_angle_alpha 90.000000
_cell_angle_beta 90.000000
_cell_angle_gamma 90.000000
_cell_volume 2521.207891
_symmetry_space_group_name_H-M "C M C A"
_symmetry_group_IT_number 64
_symmetry_cell_setting 'orthorhombic'
loop_
_space_group_symop_operation_xyz
x,y,z
-x,1/2-y,1/2+z
x,-y,-z
-x,1/2+y,1/2-z
-x,-y,-z
x,1/2+y,1/2-z
-x,y,z
x,1/2-y,1/2+z
1/2+x,1/2+y,z
1/2-x,-y,1/2+z
1/2+x,1/2-y,-z
1/2-x,y,1/2-z
1/2-x,1/2-y,-z
1/2+x,y,1/2-z
1/2-x,1/2+y,z
1/2+x,-y,1/2+z
loop_
_atom_site_type_symbol
_atom_site_label
_atom_site_fract_x
_atom_site_fract_y
_atom_site_fract_z
Si Si1 0.269410 0.232233 0.841947
Si Si2 0.500000 0.291895 0.197939
Si Si3 0.553033 0.111684 0.417104
Si Si4 0.124491 0.361313 0.195968
O O1 0.250000 0.262594 0.750000
O O2 0.240140 0.004676 0.879815
O O3 0.323249 0.160612 0.838014
O O4 0.500000 0.510788 0.267206
O O5 0.456881 0.374878 0.142608
O O6 0.500000 0.214885 0.431461
O O7 0.586703 0.304797 0.372699
O O8 0.571297 0.000000 0.500000
O O9 0.119839 0.127895 0.258824
#
# Coordination Sequence:
#
# PCOD9476370 Si02
#       4
#    16   8  16  16
#     4  10  16  31  51  84 115 142 179 242 295 325
#     4  10  19  38  61  84 108 140 192 238 271 326
#     4   9  22  42  58  83 124 159 187 235 298 348
#     4  12  21  34  62  90 112 150 199 242 280 343
#
# _framework density 22.211576000000001
#
# number of rings (size 3 to 8) (size 9 to 14) (size 15 to 20)
#    0.857    0.857    5.714    1.714    0.000    0.000 
#    0.000    7.143    0.000    1.714    0.000    0.000 
#    0.000    0.000    0.000    0.000    0.000    0.000 
#
# Total GULP energy -156360.943904 kJ/mol
# GULP energy per Si atom -5584.319425 kJ/mol
# Density = 2.216102 g / cm^3
# Si number density = 22.211576 Si / 1000 Ang^3
#
#
#
# Elastic Constant Matrix: (Units=GPa)
#
#
# Indices 1 2 3 4 5 6 
#
# 1 81.6386 -14.5927 0.0576 0.0000 0.0000 0.0000
# 2 -14.5927 99.0344 8.2851 0.0000 0.0000 0.0000
# 3 0.0576 8.2851 48.3954 0.0000 0.0000 0.0000
# 4 0.0000 0.0000 0.0000 0.0375 0.0000 0.0000
# 5 0.0000 0.0000 0.0000 0.0000 6.8351 0.0000
# 6 0.0000 0.0000 0.0000 0.0000 0.0000 18.2479
#
#
#
# Elastic Compliance Matrix: (Units=1/GPa)
#
#
# Indices 1 2 3 4 5 6 
#
# 1 0.012586 0.001883 -0.000337 0.000000 0.000000 0.000000
# 2 0.001883 0.010526 -0.001804 0.000000 0.000000 0.000000
# 3 -0.000337 -0.001804 0.020972 0.000000 0.000000 0.000000
# 4 0.000000 0.000000 0.000000 26.681944 0.000000 0.000000
# 5 0.000000 0.000000 0.000000 0.000000 0.146303 0.000000
# 6 0.000000 0.000000 0.000000 0.000000 0.000000 0.054801
#
#
# Mechanical properties :
#
#
# Convention : Reuss Voigt Hill
#
# Bulk Modulus (GPa) = 22.95334 24.06313 23.50824
# Shear Modulus (GPa) = 0.18558 20.71200 10.44879
#
# Velocity S-wave (km/s) = 0.28937 3.05698 2.17127
# Velocity P-wave (km/s) = 3.23543 4.82880 4.11007
#
# Compressibility (1/GPa) = 0.04356664
#
# Stress axis : x y z
#
# Youngs Moduli (GPa) = 79.45410 95.00409 47.68167
#
# Poissons Ratio (x) = -0.17887 0.01608
# Poissons Ratio (y) = -0.14959 0.08603
# Poissons Ratio (z) = 0.02680 0.17141
#
# Static dielectric constant tensor:
#      x y z
#    x 1.843560 0.000000 0.000000 
#    y 0.000000 1.864730 0.000000 
#    z 0.000000 0.000000 1.913100 
# 
# From -- ./inp_files/28197.got.cif
#   From: 2010.05.17/outbox.cif.g08.bks.cpg/sg64_15_cif.got.tgz:28197.got - 2010.06.03 16:29:19.
