data_PCOD9476030
_publ_section_title
;
Structure prediction by ZEFSAII (Michael W. Deem and Ramdas Pophale) SiO2 
 PCOD9476030
Probable space group: C M C M
;
_chemical_formula_sum "Si O2"
_cell_formula_units_Z 64
_cell_length_a 8.061084
_cell_length_b 29.110967
_cell_length_c 14.153021
_cell_angle_alpha 90.000000
_cell_angle_beta 90.000000
_cell_angle_gamma 90.000000
_cell_volume 3321.232123
_symmetry_space_group_name_H-M "C M C M"
_symmetry_group_IT_number 63
_symmetry_cell_setting 'orthorhombic'
loop_
_space_group_symop_operation_xyz
x,y,z
-x,-y,1/2+z
x,-y,-z
-x,y,1/2-z
-x,-y,-z
x,y,1/2-z
-x,y,z
x,-y,1/2+z
1/2+x,1/2+y,z
1/2-x,1/2-y,1/2+z
1/2+x,1/2-y,-z
1/2-x,1/2+y,1/2-z
1/2-x,1/2-y,-z
1/2+x,1/2+y,1/2-z
1/2-x,1/2+y,z
1/2+x,1/2-y,1/2+z
loop_
_atom_site_type_symbol
_atom_site_label
_atom_site_fract_x
_atom_site_fract_y
_atom_site_fract_z
Si Si1 0.814132 0.301038 0.512283
Si Si2 0.000000 0.543129 0.634831
Si Si3 0.200882 0.617488 0.138489
Si Si4 0.814430 0.983420 0.865010
Si Si5 0.000000 0.649370 0.861972
O O1 0.750000 0.250000 0.500000
O O2 0.732953 0.338861 0.580029
O O3 0.844585 0.325206 0.410889
O O4 0.000000 0.295457 0.552924
O O5 0.165860 0.516655 0.603965
O O6 0.000000 0.542527 0.750000
O O7 0.000000 0.596322 0.607090
O O8 0.233217 0.623560 0.250000
O O9 0.277954 0.569120 0.106953
O O10 0.000000 0.613436 0.126929
O O11 0.808873 0.983377 0.750000
O O12 0.000000 0.997754 0.892416
O O13 0.000000 0.652609 0.750000
#
# Coordination Sequence:
#
# PCOD9476030 Si02
#       5
#    16   8  16  16   8
#     4   9  20  36  54  78 106 142 182 237 285 328
#     4   9  16  31  53  76 114 153 183 230 275 333
#     4   9  16  30  51  77 107 143 183 228 287 340
#     4   9  16  27  49  81 114 148 188 230 277 333
#     4   9  20  37  58  80 108 155 193 216 280 351
#
# _framework density 19.269956000000001
#
# number of rings (size 3 to 8) (size 9 to 14) (size 15 to 20)
#    0.750    2.250    1.250    0.000    0.000    2.000 
#    0.000    3.750    0.000    3.000    0.000    0.000 
#    0.000    0.000    0.000    0.000    0.000    0.000 
#
# Total GULP energy -178236.736012 kJ/mol
# GULP energy per Si atom -5569.898000 kJ/mol
# Density = 1.922610 g / cm^3
# Si number density = 19.269956 Si / 1000 Ang^3
#
#
#
# Elastic Constant Matrix: (Units=GPa)
#
#
# Indices 1 2 3 4 5 6 
#
# 1 89.0179 70.6062 13.1656 0.0000 0.0000 0.0000
# 2 70.6062 193.1523 55.4283 0.0000 0.0000 0.0000
# 3 13.1656 55.4283 89.3342 0.0000 0.0000 0.0000
# 4 0.0000 0.0000 0.0000 34.4292 0.0000 0.0000
# 5 0.0000 0.0000 0.0000 0.0000 0.4402 0.0000
# 6 0.0000 0.0000 0.0000 0.0000 0.0000 -3.9588
#
#
#
# Elastic Compliance Matrix: (Units=1/GPa)
#
#
# Indices 1 2 3 4 5 6 
#
# 1 0.015994 -0.006290 0.001546 0.000000 0.000000 0.000000
# 2 -0.006290 0.008773 -0.004516 0.000000 0.000000 0.000000
# 3 0.001546 -0.004516 0.013768 0.000000 0.000000 0.000000
# 4 0.000000 0.000000 0.000000 0.029045 0.000000 0.000000
# 5 0.000000 0.000000 0.000000 0.000000 2.271711 0.000000
# 6 0.000000 0.000000 0.000000 0.000000 0.000000 -0.252600
#
#
# Mechanical properties :
#
#
# Convention : Reuss Voigt Hill
#
# Bulk Modulus (GPa) = 49.96526 72.21162 61.08844
# Shear Modulus (GPa) = 2.36755 21.66906 12.01831
#
# Velocity S-wave (km/s) = 1.10964 3.35699 2.50007
# Velocity P-wave (km/s) = 5.25615 7.25127 6.33277
#
# Compressibility (1/GPa) = 0.02001391
#
# Stress axis : x y z
#
# Youngs Moduli (GPa) = 62.52220 113.99149 72.63150
#
# Poissons Ratio (x) = 0.71703 -0.11227
# Poissons Ratio (y) = 0.39328 0.32801
# Poissons Ratio (z) = -0.09664 0.51479
#
# Static dielectric constant tensor:
#      x y z
#    x 1.657780 0.000000 0.000000 
#    y 0.000000 1.664330 0.000000 
#    z 0.000000 0.000000 1.703900 
# 
# From -- ./inp_files/28053.got.cif
#   From: 2010.05.17/outbox.cif.g08.bks.cpg/sg63_15_cif.got.tgz:28053.got - 2010.06.03 15:47:04.
