data_PCOD9476309
_publ_section_title
;
Structure prediction by ZEFSAII (Michael W. Deem and Ramdas Pophale) SiO2 
 PCOD9476309
Probable space group: C M C A
;
_chemical_formula_sum "Si O2"
_cell_formula_units_Z 56
_cell_length_a 31.645290
_cell_length_b 14.214092
_cell_length_c 5.245489
_cell_angle_alpha 90.000000
_cell_angle_beta 90.000000
_cell_angle_gamma 90.000000
_cell_volume 2359.468494
_symmetry_space_group_name_H-M "C M C A"
_symmetry_group_IT_number 64
_symmetry_cell_setting 'orthorhombic'
loop_
_space_group_symop_operation_xyz
x,y,z
-x,1/2-y,1/2+z
x,-y,-z
-x,1/2+y,1/2-z
-x,-y,-z
x,1/2+y,1/2-z
-x,y,z
x,1/2-y,1/2+z
1/2+x,1/2+y,z
1/2-x,-y,1/2+z
1/2+x,1/2-y,-z
1/2-x,y,1/2-z
1/2-x,1/2-y,-z
1/2+x,y,1/2-z
1/2-x,1/2+y,z
1/2+x,-y,1/2+z
loop_
_atom_site_type_symbol
_atom_site_label
_atom_site_fract_x
_atom_site_fract_y
_atom_site_fract_z
Si Si1 0.500000 0.431191 0.241028
Si Si2 0.633109 0.385409 0.513499
Si Si3 0.268971 0.644971 0.494813
Si Si4 0.913481 0.613645 0.525212
O O1 0.500000 0.500000 0.500000
O O2 0.542018 0.370844 0.177298
O O3 0.500000 0.500000 0.000000
O O4 0.632414 0.500000 0.500000
O O5 0.681021 0.353831 0.545835
O O6 0.620010 0.352901 0.232046
O O7 0.600325 0.356351 0.739654
O O8 0.250000 0.602370 0.750000
O O9 0.250000 0.750000 0.500000
O O10 0.250000 0.596413 0.250000
O O11 0.911345 0.500000 0.500000
#
# Coordination Sequence:
#
# PCOD9476309 Si02
#       4
#     8  16  16  16
#     4  10  16  26  44  68 104 146 176 200 241 300
#     4  10  19  31  48  72 102 133 167 211 258 300
#     4  10  21  36  52  70  96 127 170 217 261 316
#     4   9  17  28  44  70 103 137 169 202 245 298
#
# _framework density 23.734159999999999
#
# number of rings (size 3 to 8) (size 9 to 14) (size 15 to 20)
#    0.000    2.286    0.000    6.000    0.000    1.143 
#    0.000    0.000    0.000    0.000    0.000    0.000 
#    0.000   91.429    0.000    0.000    0.000    0.000 
#
# Total GULP energy -155905.415959 kJ/mol
# GULP energy per Si atom -5568.050570 kJ/mol
# Density = 2.368014 g / cm^3
# Si number density = 23.734160 Si / 1000 Ang^3
#
#
#
# Elastic Constant Matrix: (Units=GPa)
#
#
# Indices 1 2 3 4 5 6 
#
# 1 165.7409 1.0178 62.4061 0.0000 0.0000 0.0000
# 2 1.0178 100.6309 -0.0563 0.0000 0.0000 0.0000
# 3 62.4061 -0.0563 218.7331 0.0000 0.0000 0.0000
# 4 0.0000 0.0000 0.0000 -53.4713 0.0000 0.0000
# 5 0.0000 0.0000 0.0000 0.0000 45.9290 0.0000
# 6 0.0000 0.0000 0.0000 0.0000 0.0000 27.3069
#
#
#
# Elastic Compliance Matrix: (Units=1/GPa)
#
#
# Indices 1 2 3 4 5 6 
#
# 1 0.006760 -0.000069 -0.001929 0.000000 0.000000 0.000000
# 2 -0.000069 0.009938 0.000022 0.000000 0.000000 0.000000
# 3 -0.001929 0.000022 0.005122 0.000000 0.000000 0.000000
# 4 0.000000 0.000000 0.000000 -0.018702 0.000000 0.000000
# 5 0.000000 0.000000 0.000000 0.000000 0.021773 0.000000
# 6 0.000000 0.000000 0.000000 0.000000 0.000000 0.036621
#
#
# Mechanical properties :
#
#
# Convention : Reuss Voigt Hill
#
# Bulk Modulus (GPa) = 55.96404 67.98223 61.97313
# Shear Modulus (GPa) = 70.00844 32.06875 51.03860
#
# Velocity S-wave (km/s) = 5.43700 3.67981 4.64230
# Velocity P-wave (km/s) = 7.94011 6.83813 7.40963
#
# Compressibility (1/GPa) = 0.01786862
#
# Stress axis : x y z
#
# Youngs Moduli (GPa) = 147.92539 100.62366 195.23348
#
# Poissons Ratio (x) = 0.00699 0.37655
# Poissons Ratio (y) = 0.01027 -0.00437
# Poissons Ratio (z) = 0.28531 -0.00225
#
# Static dielectric constant tensor:
#      x y z
#    x 2.027530 0.000000 0.000000 
#    y 0.000000 1.470790 0.000000 
#    z 0.000000 0.000000 2.061330 
# 
# From -- ./inp_files/2645.got.cif
#   From: 2010.05.17/outbox.cif.g08.bks.cpg/sg64_2_cif.got.tgz:2645.got - 2010.06.03 16:29:19.
