data_PCOD9476763
_publ_section_title
;
Structure prediction by ZEFSAII (Michael W. Deem and Ramdas Pophale) SiO2 
 PCOD9476763
Probable space group: C M C A
;
_chemical_formula_sum "Si O2"
_cell_formula_units_Z 80
_cell_length_a 17.779007
_cell_length_b 8.729406
_cell_length_c 26.045114
_cell_angle_alpha 90.000000
_cell_angle_beta 90.000000
_cell_angle_gamma 90.000000
_cell_volume 4042.206130
_symmetry_space_group_name_H-M "C M C A"
_symmetry_group_IT_number 64
_symmetry_cell_setting 'orthorhombic'
loop_
_space_group_symop_operation_xyz
x,y,z
-x,1/2-y,1/2+z
x,-y,-z
-x,1/2+y,1/2-z
-x,-y,-z
x,1/2+y,1/2-z
-x,y,z
x,1/2-y,1/2+z
1/2+x,1/2+y,z
1/2-x,-y,1/2+z
1/2+x,1/2-y,-z
1/2-x,y,1/2-z
1/2-x,1/2-y,-z
1/2+x,y,1/2-z
1/2-x,1/2+y,z
1/2+x,-y,1/2+z
loop_
_atom_site_type_symbol
_atom_site_label
_atom_site_fract_x
_atom_site_fract_y
_atom_site_fract_z
Si Si1 0.331940 0.108059 0.775260
Si Si2 0.584031 0.691708 0.299947
Si Si3 0.649410 0.810322 0.906268
Si Si4 0.812078 0.667058 0.890059
Si Si5 0.334157 0.681440 0.008664
O O1 0.250000 0.122319 0.750000
O O2 0.352541 0.933377 0.787022
O O3 0.393618 0.167646 0.735591
O O4 0.335267 0.190257 0.830851
O O5 0.500000 0.637050 0.288932
O O6 0.592366 0.721236 0.360348
O O7 0.724011 0.710293 0.893657
O O8 0.621143 0.762294 0.962497
O O9 0.673522 0.989320 0.904665
O O10 0.852995 0.769933 0.933260
O O11 0.333956 0.500000 0.000000
O O12 0.250000 0.750000 0.000000
#
# Coordination Sequence:
#
# PCOD9476763 Si02
#       5
#    16  16  16  16  16
#     4  11  22  38  61  86 116 153 203 247 289 345
#     4  11  24  39  58  85 122 159 193 242 302 355
#     4  10  19  33  54  81 116 147 189 234 293 340
#     4  10  19  31  54  85 113 145 192 245 286 334
#     4  10  18  30  51  83 117 145 183 239 294 339
#
# _framework density 19.791173000000001
#
# number of rings (size 3 to 8) (size 9 to 14) (size 15 to 20)
#    0.000    1.600    2.000    6.600    2.800    1.600 
#    0.000    0.000    0.000   11.400    0.000    0.000 
#    0.000    0.000    0.000    0.000    0.000    0.000 
#
# Total GULP energy -223107.283814 kJ/mol
# GULP energy per Si atom -5577.682095 kJ/mol
# Density = 1.974613 g / cm^3
# Si number density = 19.791173 Si / 1000 Ang^3
#
#
#
# Elastic Constant Matrix: (Units=GPa)
#
#
# Indices 1 2 3 4 5 6 
#
# 1 43.5858 14.1104 33.8949 0.0000 0.0000 0.0000
# 2 14.1104 80.7906 48.5129 0.0000 0.0000 0.0000
# 3 33.8949 48.5129 145.9277 0.0000 0.0000 0.0000
# 4 0.0000 0.0000 0.0000 31.6504 0.0000 0.0000
# 5 0.0000 0.0000 0.0000 0.0000 11.6092 0.0000
# 6 0.0000 0.0000 0.0000 0.0000 0.0000 8.8200
#
#
#
# Elastic Compliance Matrix: (Units=1/GPa)
#
#
# Indices 1 2 3 4 5 6 
#
# 1 0.028099 -0.001235 -0.006116 0.000000 0.000000 0.000000
# 2 -0.001235 0.015519 -0.004872 0.000000 0.000000 0.000000
# 3 -0.006116 -0.004872 0.009893 0.000000 0.000000 0.000000
# 4 0.000000 0.000000 0.000000 0.031595 0.000000 0.000000
# 5 0.000000 0.000000 0.000000 0.000000 0.086139 0.000000
# 6 0.000000 0.000000 0.000000 0.000000 0.000000 0.113378
#
#
# Mechanical properties :
#
#
# Convention : Reuss Voigt Hill
#
# Bulk Modulus (GPa) = 34.40625 51.48226 42.94426
# Shear Modulus (GPa) = 15.68581 22.00164 18.84373
#
# Velocity S-wave (km/s) = 2.81831 3.33782 3.08900
# Velocity P-wave (km/s) = 5.29272 6.39718 5.87098
#
# Compressibility (1/GPa) = 0.02906448
#
# Stress axis : x y z
#
# Youngs Moduli (GPa) = 35.58803 64.43649 101.08050
#
# Poissons Ratio (x) = 0.07958 0.61822
# Poissons Ratio (y) = 0.04395 0.49250
# Poissons Ratio (z) = 0.21766 0.31396
#
# Static dielectric constant tensor:
#      x y z
#    x 1.656590 0.000000 0.000000 
#    y 0.000000 1.690600 0.000000 
#    z 0.000000 0.000000 1.807710 
# 
# From -- ./inp_files/50309.got.cif
#   From: 2010.05.17/outbox.cif.g08.bks.cpg/sg64_26_cif.got.tgz:50309.got - 2010.06.03 16:29:19.
