data_PCOD9476631
_publ_section_title
;
Structure prediction by ZEFSAII (Michael W. Deem and Ramdas Pophale) SiO2 
 PCOD9476631
Probable space group: C M C A
;
_chemical_formula_sum "Si O2"
_cell_formula_units_Z 88
_cell_length_a 26.135341
_cell_length_b 8.851287
_cell_length_c 17.544880
_cell_angle_alpha 90.000000
_cell_angle_beta 90.000000
_cell_angle_gamma 90.000000
_cell_volume 4058.681724
_symmetry_space_group_name_H-M "C M C A"
_symmetry_group_IT_number 64
_symmetry_cell_setting 'orthorhombic'
loop_
_space_group_symop_operation_xyz
x,y,z
-x,1/2-y,1/2+z
x,-y,-z
-x,1/2+y,1/2-z
-x,-y,-z
x,1/2+y,1/2-z
-x,y,z
x,1/2-y,1/2+z
1/2+x,1/2+y,z
1/2-x,-y,1/2+z
1/2+x,1/2-y,-z
1/2-x,y,1/2-z
1/2-x,1/2-y,-z
1/2+x,y,1/2-z
1/2-x,1/2+y,z
1/2+x,-y,1/2+z
loop_
_atom_site_type_symbol
_atom_site_label
_atom_site_fract_x
_atom_site_fract_y
_atom_site_fract_z
Si Si1 0.900465 0.456409 0.319572
Si Si2 0.500000 0.551769 0.355713
Si Si3 0.000000 0.807360 0.253592
Si Si4 0.393723 0.829656 0.923826
Si Si5 0.939260 0.652639 0.449426
Si Si6 0.821067 0.475783 0.816049
Si Si7 0.750000 0.279699 0.250000
O O1 0.949512 0.375542 0.284096
O O2 0.880965 0.325968 0.377416
O O3 0.918818 0.602934 0.366879
O O4 0.862265 0.500202 0.252091
O O5 0.500000 0.375003 0.337842
O O6 0.551087 0.606225 0.396896
O O7 0.500000 0.635519 0.273235
O O8 0.351024 0.945934 0.894542
O O9 0.404890 0.780102 0.010301
O O10 0.933174 0.500000 0.500000
O O11 0.000000 0.682308 0.454953
O O12 0.782262 0.615296 0.807630
O O13 0.788375 0.328247 0.795169
#
# Coordination Sequence:
#
# PCOD9476631 Si02
#       7
#    16   8   8  16  16  16   8
#     4  10  18  30  52  81 113 147 175 209 265 320
#     4  10  18  27  45  81 115 139 170 210 250 320
#     4  10  18  27  45  81 115 139 170 210 250 320
#     4  10  18  30  52  81 113 147 175 209 265 320
#     4   9  16  28  48  80 122 151 174 205 247 324
#     4  11  20  37  58  80 102 139 184 235 282 316
#     4  10  24  38  56  78 104 130 188 252 280 312
#
# _framework density 21.681916999999999
#
# number of rings (size 3 to 8) (size 9 to 14) (size 15 to 20)
#    0.000    2.000    5.455    0.000    0.000    0.000 
#    0.000    0.000    0.000    7.636    0.000    2.545 
#    0.000    0.000    0.000    0.000    0.000    0.000 
#
# Total GULP energy -245768.453332 kJ/mol
# GULP energy per Si atom -5585.646667 kJ/mol
# Density = 2.163257 g / cm^3
# Si number density = 21.681917 Si / 1000 Ang^3
#
#
#
# Elastic Constant Matrix: (Units=GPa)
#
#
# Indices 1 2 3 4 5 6 
#
# 1 104.8438 39.9932 14.9059 0.0000 0.0000 0.0000
# 2 39.9932 92.6366 26.7330 0.0000 0.0000 0.0000
# 3 14.9059 26.7330 44.9541 0.0000 0.0000 0.0000
# 4 0.0000 0.0000 0.0000 31.7589 0.0000 0.0000
# 5 0.0000 0.0000 0.0000 0.0000 19.0658 0.0000
# 6 0.0000 0.0000 0.0000 0.0000 0.0000 7.3488
#
#
#
# Elastic Compliance Matrix: (Units=1/GPa)
#
#
# Indices 1 2 3 4 5 6 
#
# 1 0.011458 -0.004648 -0.001035 0.000000 0.000000 0.000000
# 2 -0.004648 0.014917 -0.007329 0.000000 0.000000 0.000000
# 3 -0.001035 -0.007329 0.026947 0.000000 0.000000 0.000000
# 4 0.000000 0.000000 0.000000 0.031487 0.000000 0.000000
# 5 0.000000 0.000000 0.000000 0.000000 0.052450 0.000000
# 6 0.000000 0.000000 0.000000 0.000000 0.000000 0.136077
#
#
# Mechanical properties :
#
#
# Convention : Reuss Voigt Hill
#
# Bulk Modulus (GPa) = 36.63493 45.07763 40.85628
# Shear Modulus (GPa) = 16.20958 22.35484 19.28221
#
# Velocity S-wave (km/s) = 2.73721 3.21446 2.98539
# Velocity P-wave (km/s) = 5.18873 5.88324 5.54687
#
# Compressibility (1/GPa) = 0.02729635
#
# Stress axis : x y z
#
# Youngs Moduli (GPa) = 87.27386 67.03942 37.11024
#
# Poissons Ratio (x) = 0.31160 0.03842
# Poissons Ratio (y) = 0.40565 0.27199
# Poissons Ratio (z) = 0.09035 0.49135
#
# Static dielectric constant tensor:
#      x y z
#    x 1.759860 0.000000 0.000000 
#    y 0.000000 1.847490 0.000000 
#    z 0.000000 0.000000 1.827470 
# 
# From -- ./inp_files/42061.got.cif
#   From: 2010.05.17/outbox.cif.g08.bks.cpg/sg64_22_cif.got.tgz:42061.got - 2010.06.03 16:29:19.
