data_PCOD9476818
_publ_section_title
;
Structure prediction by ZEFSAII (Michael W. Deem and Ramdas Pophale) SiO2 
 PCOD9476818
Probable space group: C M C A
;
_chemical_formula_sum "Si O2"
_cell_formula_units_Z 80
_cell_length_a 18.403725
_cell_length_b 8.866481
_cell_length_c 18.939948
_cell_angle_alpha 90.000000
_cell_angle_beta 90.000000
_cell_angle_gamma 90.000000
_cell_volume 3090.550221
_symmetry_space_group_name_H-M "C M C A"
_symmetry_group_IT_number 64
_symmetry_cell_setting 'orthorhombic'
loop_
_space_group_symop_operation_xyz
x,y,z
-x,1/2-y,1/2+z
x,-y,-z
-x,1/2+y,1/2-z
-x,-y,-z
x,1/2+y,1/2-z
-x,y,z
x,1/2-y,1/2+z
1/2+x,1/2+y,z
1/2-x,-y,1/2+z
1/2+x,1/2-y,-z
1/2-x,y,1/2-z
1/2-x,1/2-y,-z
1/2+x,y,1/2-z
1/2-x,1/2+y,z
1/2+x,-y,1/2+z
loop_
_atom_site_type_symbol
_atom_site_label
_atom_site_fract_x
_atom_site_fract_y
_atom_site_fract_z
Si Si1 0.916120 0.473024 0.604539
Si Si2 0.284064 0.348968 0.318475
Si Si3 0.579794 0.817934 0.746275
Si Si4 0.850912 0.803389 0.612202
Si Si5 0.325806 0.305045 0.463271
O O1 0.919166 0.449318 0.688724
O O2 0.874014 0.628230 0.596699
O O3 0.871761 0.335151 0.568890
O O4 0.000000 0.476508 0.580076
O O5 0.250000 0.432028 0.250000
O O6 0.356649 0.285696 0.283808
O O7 0.227110 0.220583 0.346948
O O8 0.305921 0.411209 0.395672
O O9 0.500000 0.747568 0.742981
O O10 0.597408 0.863618 0.825917
O O11 0.863659 0.864597 0.533652
O O12 0.250000 0.250000 0.500000
#
# Coordination Sequence:
#
# PCOD9476818 Si02
#       5
#    16  16  16  16  16
#     4  10  20  33  53  81 109 141 184 233 284 336
#     4   8  16  32  49  70 102 142 180 215 267 331
#     4   9  18  33  50  72 106 142 178 225 279 330
#     4  10  18  31  52  78 107 140 182 231 280 332
#     4   9  18  32  50  74 108 142 173 218 276 336
#
# _framework density 25.885359000000001
#
# number of rings (size 3 to 8) (size 9 to 14) (size 15 to 20)
#    0.000    2.800    0.000    1.200    0.000    2.400 
#    0.000   30.000    0.000    2.400    0.000    1.400 
#    0.000   30.400    0.000    0.000    0.000    0.000 
#
# Total GULP energy -223169.119995 kJ/mol
# GULP energy per Si atom -5579.228000 kJ/mol
# Density = 2.582644 g / cm^3
# Si number density = 25.885359 Si / 1000 Ang^3
#
#
#
# Elastic Constant Matrix: (Units=GPa)
#
#
# Indices 1 2 3 4 5 6 
#
# 1 163.0302 27.5346 40.3741 0.0000 0.0000 0.0000
# 2 27.5346 66.6031 59.2455 0.0000 0.0000 0.0000
# 3 40.3741 59.2455 316.9126 0.0000 0.0000 0.0000
# 4 0.0000 0.0000 0.0000 56.0460 0.0000 0.0000
# 5 0.0000 0.0000 0.0000 0.0000 26.7803 0.0000
# 6 0.0000 0.0000 0.0000 0.0000 0.0000 16.9208
#
#
#
# Elastic Compliance Matrix: (Units=1/GPa)
#
#
# Indices 1 2 3 4 5 6 
#
# 1 0.006636 -0.002389 -0.000399 0.000000 0.000000 0.000000
# 2 -0.002389 0.018869 -0.003223 0.000000 0.000000 0.000000
# 3 -0.000399 -0.003223 0.003809 0.000000 0.000000 0.000000
# 4 0.000000 0.000000 0.000000 0.017842 0.000000 0.000000
# 5 0.000000 0.000000 0.000000 0.000000 0.037341 0.000000
# 6 0.000000 0.000000 0.000000 0.000000 0.000000 0.059099
#
#
# Mechanical properties :
#
#
# Convention : Reuss Voigt Hill
#
# Bulk Modulus (GPa) = 57.82871 88.98382 73.40626
# Shear Modulus (GPa) = 30.98249 47.90887 39.44568
#
# Velocity S-wave (km/s) = 3.46339 4.30677 3.90790
# Velocity P-wave (km/s) = 6.19534 7.69297 6.98441
#
# Compressibility (1/GPa) = 0.01729245
#
# Stress axis : x y z
#
# Youngs Moduli (GPa) = 150.69248 52.99733 262.54879
#
# Poissons Ratio (x) = 0.12659 0.10473
# Poissons Ratio (y) = 0.35994 0.84623
# Poissons Ratio (z) = 0.06011 0.17082
#
# Static dielectric constant tensor:
#      x y z
#    x 2.117800 0.000000 0.000000 
#    y 0.000000 2.197500 0.000000 
#    z 0.000000 0.000000 2.141860 
# 
# From -- ./inp_files/32976.got.cif
#   From: 2010.05.17/outbox.cif.g08.bks.cpg/sg64_17_cif.got.tgz:32976.got - 2010.06.03 16:29:19.
