data_PCOD9476207
_publ_section_title
;
Structure prediction by ZEFSAII (Michael W. Deem and Ramdas Pophale) SiO2 
 PCOD9476207
Probable space group: C M C M
;
_chemical_formula_sum "Si O2"
_cell_formula_units_Z 58
_cell_length_a 18.000000
_cell_length_b 18.000000
_cell_length_c 18.000000
_cell_angle_alpha 90.000000
_cell_angle_beta 90.000000
_cell_angle_gamma 90.000000
_cell_volume 5832.000000
_symmetry_space_group_name_H-M "C M C M"
_symmetry_group_IT_number 63
_symmetry_cell_setting 'orthorhombic'
loop_
_space_group_symop_operation_xyz
x,y,z
-x,-y,1/2+z
x,-y,-z
-x,y,1/2-z
-x,-y,-z
x,y,1/2-z
-x,y,z
x,-y,1/2+z
1/2+x,1/2+y,z
1/2-x,1/2-y,1/2+z
1/2+x,1/2-y,-z
1/2-x,1/2+y,1/2-z
1/2-x,1/2-y,-z
1/2+x,1/2+y,1/2-z
1/2-x,1/2+y,z
1/2+x,1/2-y,1/2+z
loop_
_atom_site_type_symbol
_atom_site_label
_atom_site_fract_x
_atom_site_fract_y
_atom_site_fract_z
Si Si1 0.158499 0.524967 0.336321
Si Si2 0.372262 0.592430 0.635500
Si Si3 0.206032 0.357849 0.336909
Si Si4 0.086338 0.132776 0.025411
Si Si5 0.168909 0.277890 0.025126
Si Si6 0.915365 0.418155 0.967876
Si Si7 0.000000 0.863893 0.250000
Si Si8 0.673601 0.573554 0.333904
O O1 0.143574 0.528463 0.250000
O O2 0.168462 0.437606 0.354945
O O3 0.095826 0.567140 0.381129
O O4 0.238883 0.562630 0.349654
O O5 0.293028 0.632834 0.643979
O O6 0.392741 0.587410 0.548596
O O7 0.435003 0.631120 0.684609
O O8 0.360503 0.509370 0.665847
O O9 0.197956 0.344528 0.250000
O O10 0.172563 0.293704 0.387152
O O11 0.108038 0.216956 0.005088
O O12 0.134641 0.114074 0.097842
O O13 0.000000 0.123209 0.041903
O O14 0.250000 0.250000 0.000000
O O15 0.143212 0.356093 0.991303
O O16 0.000000 0.398283 0.988050
O O17 0.898473 0.500000 0.000000
O O18 0.664383 0.604446 0.250000
#
# Coordination Sequence:
#
# PCOD9476207 Si02
#       8
#    16  16  16  16  16  16   4  16
#     4   9  19  38  66  95 120 154 214 276 316 374
#     4  11  21  37  62  93 122 168 213 263 316 383
#     4  10  20  39  64  91 118 158 215 264 315 375
#     4  12  26  38  58  91 131 171 212 258 315 396
#     4  12  24  42  64  92 127 171 214 264 323 391
#     4  11  23  41  68  96 127 167 213 278 341 387
#     4  12  20  36  66  92 134 160 216 270 328 376
#     4  10  22  39  61  92 130 172 218 266 313 369
#
# _framework density 9.9451300000000007
#
# number of rings (size 3 to 8) (size 9 to 14) (size 15 to 20)
#    0.000    1.241    4.828    2.483    0.966    1.655 
#    0.000    0.690    1.517    1.241    0.000    0.000 
#    0.000    0.000    0.000    0.000    0.000    0.000 
#
# Total GULP energy -323202.396685 kJ/mol
# GULP energy per Si atom -5572.455115 kJ/mol
# Density = 0.992249 g / cm^3
# Si number density = 9.945130 Si / 1000 Ang^3
#
#
#
# Elastic Constant Matrix: (Units=GPa)
#
#
# Indices 1 2 3 4 5 6 
#
# 1 13.3330 29.2569 15.4164 0.0000 0.0000 0.0000
# 2 29.2569 41.9158 25.1672 0.0000 0.0000 0.0000
# 3 15.4164 25.1672 101.5232 0.0000 0.0000 0.0000
# 4 0.0000 0.0000 0.0000 22.7889 0.0000 0.0000
# 5 0.0000 0.0000 0.0000 0.0000 33.6601 0.0000
# 6 0.0000 0.0000 0.0000 0.0000 0.0000 11.2782
#
#
#
# Elastic Compliance Matrix: (Units=1/GPa)
#
#
# Indices 1 2 3 4 5 6 
#
# 1 -0.140024 0.099828 -0.003484 0.000000 0.000000 0.000000
# 2 0.099828 -0.043141 -0.004464 0.000000 0.000000 0.000000
# 3 -0.003484 -0.004464 0.011486 0.000000 0.000000 0.000000
# 4 0.000000 0.000000 0.000000 0.043881 0.000000 0.000000
# 5 0.000000 0.000000 0.000000 0.000000 0.029709 0.000000
# 6 0.000000 0.000000 0.000000 0.000000 0.000000 0.088666
#
#
# Mechanical properties :
#
#
# Convention : Reuss Voigt Hill
#
# Bulk Modulus (GPa) = 82.78932 32.93921 57.86427
# Shear Modulus (GPa) = -26.43326 19.34088 -3.54619
#
# Velocity S-wave (km/s) = -3.64944 3.12168 -1.33669
# Velocity P-wave (km/s) = 4.89444 5.43963 5.17422
#
# Compressibility (1/GPa) = 0.01207885
#
# Stress axis : x y z
#
# Youngs Moduli (GPa) = -7.14162 -23.17972 87.06441
#
# Poissons Ratio (x) = 2.31398 0.30335
# Poissons Ratio (y) = 0.71293 0.38869
# Poissons Ratio (z) = -0.02488 -0.10348
#
# Static dielectric constant tensor:
#      x y z
#    x 1.683850 0.000000 0.000000 
#    y 0.000000 1.743550 0.000000 
#    z 0.000000 0.000000 1.735270 
# 
# From -- ./inp_files/45905.got.cif
#   From: 2010.05.17/outbox.ucp.g08.bks.cvg/sg63_23_cif.got.tgz:45905.got - 2010.06.11 16:32:19.
