data_PCOD9476698
_publ_section_title
;
Structure prediction by ZEFSAII (Michael W. Deem and Ramdas Pophale) SiO2 
 PCOD9476698
Probable space group: C M C A
;
_chemical_formula_sum "Si O2"
_cell_formula_units_Z 112
_cell_length_a 9.633702
_cell_length_b 21.061076
_cell_length_c 29.883724
_cell_angle_alpha 90.000000
_cell_angle_beta 90.000000
_cell_angle_gamma 90.000000
_cell_volume 6063.291949
_symmetry_space_group_name_H-M "C M C A"
_symmetry_group_IT_number 64
_symmetry_cell_setting 'orthorhombic'
loop_
_space_group_symop_operation_xyz
x,y,z
-x,1/2-y,1/2+z
x,-y,-z
-x,1/2+y,1/2-z
-x,-y,-z
x,1/2+y,1/2-z
-x,y,z
x,1/2-y,1/2+z
1/2+x,1/2+y,z
1/2-x,-y,1/2+z
1/2+x,1/2-y,-z
1/2-x,y,1/2-z
1/2-x,1/2-y,-z
1/2+x,y,1/2-z
1/2-x,1/2+y,z
1/2+x,-y,1/2+z
loop_
_atom_site_type_symbol
_atom_site_label
_atom_site_fract_x
_atom_site_fract_y
_atom_site_fract_z
Si Si1 0.662957 0.466968 0.047649
Si Si2 0.646837 0.198409 0.453125
Si Si3 0.162778 0.960071 0.860838
Si Si4 0.158291 0.202133 0.848791
Si Si5 0.667785 0.579158 0.795844
Si Si6 0.265449 0.168811 0.552058
Si Si7 0.667400 0.161901 0.126362
O O1 0.500000 0.445311 0.050446
O O2 0.683097 0.514891 0.088489
O O3 0.761984 0.406036 0.052169
O O4 0.681352 0.500000 0.000000
O O5 0.500000 0.174187 0.434970
O O6 0.657073 0.180698 0.505092
O O7 0.653261 0.274810 0.449228
O O8 0.772472 0.170747 0.424036
O O9 0.262272 0.900379 0.853543
O O10 0.000000 0.943351 0.855360
O O11 0.192358 0.019447 0.828456
O O12 0.217703 0.144210 0.820164
O O13 0.158805 0.181839 0.900969
O O14 0.216497 0.273519 0.848478
O O15 0.000000 0.208395 0.833774
O O16 0.500000 0.582566 0.789232
O O17 0.750000 0.571292 0.750000
O O18 0.500000 0.159248 0.125922
#
# Coordination Sequence:
#
# PCOD9476698 Si02
#       7
#    16  16  16  16  16  16  16
#     4  10  18  29  50  79 109 147 193 234 275 333
#     4  10  20  32  51  79 113 150 192 238 282 336
#     4  10  20  36  59  85 115 150 191 238 283 336
#     4   9  17  34  58  81 106 143 190 235 280 334
#     4  10  21  39  63  88 112 143 188 240 291 344
#     4  10  18  30  51  77 107 145 195 241 279 325
#     4  10  21  36  57  83 116 154 189 232 286 343
#
# _framework density 18.471814999999999
#
# number of rings (size 3 to 8) (size 9 to 14) (size 15 to 20)
#    0.000    2.143    1.429    2.571    0.000    5.714 
#    0.000    5.000    0.000    5.143    0.000    0.000 
#    0.000    0.000    0.000    0.000    0.000    0.000 
#
# Total GULP energy -311916.123383 kJ/mol
# GULP energy per Si atom -5569.930775 kJ/mol
# Density = 1.842977 g / cm^3
# Si number density = 18.471815 Si / 1000 Ang^3
#
#
#
# Elastic Constant Matrix: (Units=GPa)
#
#
# Indices 1 2 3 4 5 6 
#
# 1 58.1178 46.1996 30.6449 0.0000 0.0000 0.0000
# 2 46.1996 142.0400 51.8645 0.0000 0.0000 0.0000
# 3 30.6449 51.8645 90.1307 0.0000 0.0000 0.0000
# 4 0.0000 0.0000 0.0000 21.4357 0.0000 0.0000
# 5 0.0000 0.0000 0.0000 0.0000 7.5192 0.0000
# 6 0.0000 0.0000 0.0000 0.0000 0.0000 17.3855
#
#
#
# Elastic Compliance Matrix: (Units=1/GPa)
#
#
# Indices 1 2 3 4 5 6 
#
# 1 0.024737 -0.006298 -0.004787 0.000000 0.000000 0.000000
# 2 -0.006298 0.010517 -0.003910 0.000000 0.000000 0.000000
# 3 -0.004787 -0.003910 0.014973 0.000000 0.000000 0.000000
# 4 0.000000 0.000000 0.000000 0.046651 0.000000 0.000000
# 5 0.000000 0.000000 0.000000 0.000000 0.132993 0.000000
# 6 0.000000 0.000000 0.000000 0.000000 0.000000 0.057519
#
#
# Mechanical properties :
#
#
# Convention : Reuss Voigt Hill
#
# Bulk Modulus (GPa) = 49.41619 60.85627 55.13623
# Shear Modulus (GPa) = 15.42616 20.04004 17.73310
#
# Velocity S-wave (km/s) = 2.89298 3.29735 3.10176
# Velocity P-wave (km/s) = 6.16193 6.89302 6.53770
#
# Compressibility (1/GPa) = 0.02023628
#
# Stress axis : x y z
#
# Youngs Moduli (GPa) = 40.42548 95.08820 66.78902
#
# Poissons Ratio (x) = 0.59888 0.31969
# Poissons Ratio (y) = 0.25460 0.26116
# Poissons Ratio (z) = 0.19350 0.37182
#
# Static dielectric constant tensor:
#      x y z
#    x 1.644470 0.000000 0.000000 
#    y 0.000000 1.680980 0.000000 
#    z 0.000000 0.000000 1.613790 
# 
# From -- ./inp_files/44420.got.cif
#   From: 2010.05.17/outbox.cif.g08.bks.cpg/sg64_23_cif.got.tgz:44420.got - 2010.06.03 16:29:19.
