data_PCOD9476261
_publ_section_title
;
Structure prediction by ZEFSAII (Michael W. Deem and Ramdas Pophale) SiO2 
 PCOD9476261
Probable space group: C M C M
;
_chemical_formula_sum "Si O2"
_cell_formula_units_Z 34
_cell_length_a 21.000000
_cell_length_b 9.000000
_cell_length_c 18.000000
_cell_angle_alpha 90.000000
_cell_angle_beta 90.000000
_cell_angle_gamma 90.000000
_cell_volume 3402.000000
_symmetry_space_group_name_H-M "C M C M"
_symmetry_group_IT_number 63
_symmetry_cell_setting 'orthorhombic'
loop_
_space_group_symop_operation_xyz
x,y,z
-x,-y,1/2+z
x,-y,-z
-x,y,1/2-z
-x,-y,-z
x,y,1/2-z
-x,y,z
x,-y,1/2+z
1/2+x,1/2+y,z
1/2-x,1/2-y,1/2+z
1/2+x,1/2-y,-z
1/2-x,1/2+y,1/2-z
1/2-x,1/2-y,-z
1/2+x,1/2+y,1/2-z
1/2-x,1/2+y,z
1/2+x,1/2-y,1/2+z
loop_
_atom_site_type_symbol
_atom_site_label
_atom_site_fract_x
_atom_site_fract_y
_atom_site_fract_z
Si Si1 0.639132 0.672243 0.970914
Si Si2 0.669021 0.163948 0.623718
Si Si3 0.208838 0.670148 0.336962
Si Si4 0.500000 0.383893 0.072409
Si Si5 0.571109 0.217633 0.750000
Si Si6 0.000000 0.991907 0.250000
O O1 0.678510 0.716569 0.897367
O O2 0.566378 0.695515 0.944773
O O3 0.647736 0.500000 0.000000
O O4 0.656585 0.780712 0.039701
O O5 0.717620 0.282714 0.659405
O O6 0.606982 0.171077 0.675551
O O7 0.696121 0.996927 0.633498
O O8 0.187523 0.681665 0.250000
O O9 0.500000 0.424993 0.163166
O O10 0.500000 0.500000 0.000000
O O11 0.500000 0.153749 0.750000
O O12 0.560323 0.395967 0.750000
#
# Coordination Sequence:
#
# PCOD9476261 Si02
#       6
#    16  16  16   8   8   4
#     4  11  25  44  71 100 146 186 241 290 357 426
#     4  12  24  46  70 104 141 191 233 296 360 431
#     4  12  25  46  69 107 143 184 245 292 360 425
#     4  10  22  44  66 106 143 192 243 290 356 436
#     4  10  22  40  69 104 136 176 234 288 358 414
#     4  10  22  38  70 100 146 186 242 288 356 426
#
# _framework density 9.9941209999999998
#
# number of rings (size 3 to 8) (size 9 to 14) (size 15 to 20)
#    0.353    0.471    2.353    5.647    3.294    0.000 
#    4.235    1.176    0.000    0.000    0.000    0.000 
#    0.000    0.000    0.000    0.000    0.000    0.000 
#
# Total GULP energy -189519.622787 kJ/mol
# GULP energy per Si atom -5574.106553 kJ/mol
# Density = 0.997137 g / cm^3
# Si number density = 9.994121 Si / 1000 Ang^3
#
#
#
# Elastic Constant Matrix: (Units=GPa)
#
#
# Indices 1 2 3 4 5 6 
#
# 1 112.7980 38.1456 44.1689 0.0000 0.0000 0.0000
# 2 38.1456 108.1864 54.1719 0.0000 0.0000 0.0000
# 3 44.1689 54.1719 189.1496 0.0000 0.0000 0.0000
# 4 0.0000 0.0000 0.0000 34.8644 0.0000 0.0000
# 5 0.0000 0.0000 0.0000 0.0000 43.2248 0.0000
# 6 0.0000 0.0000 0.0000 0.0000 0.0000 20.8428
#
#
#
# Elastic Compliance Matrix: (Units=1/GPa)
#
#
# Indices 1 2 3 4 5 6 
#
# 1 0.010475 -0.002882 -0.001621 0.000000 0.000000 0.000000
# 2 -0.002882 0.011584 -0.002645 0.000000 0.000000 0.000000
# 3 -0.001621 -0.002645 0.006423 0.000000 0.000000 0.000000
# 4 0.000000 0.000000 0.000000 0.028683 0.000000 0.000000
# 5 0.000000 0.000000 0.000000 0.000000 0.023135 0.000000
# 6 0.000000 0.000000 0.000000 0.000000 0.000000 0.047978
#
#
# Mechanical properties :
#
#
# Convention : Reuss Voigt Hill
#
# Bulk Modulus (GPa) = 70.48758 75.90077 73.19417
# Shear Modulus (GPa) = 33.94448 38.02958 35.98703
#
# Velocity S-wave (km/s) = 4.12542 4.36661 4.24773
# Velocity P-wave (km/s) = 7.61795 7.96732 7.79459
#
# Compressibility (1/GPa) = 0.01418690
#
# Stress axis : x y z
#
# Youngs Moduli (GPa) = 95.46964 86.32892 155.69881
#
# Poissons Ratio (x) = 0.24878 0.25233
# Poissons Ratio (y) = 0.27512 0.41176
# Poissons Ratio (z) = 0.15472 0.22830
#
# Static dielectric constant tensor:
#      x y z
#    x 1.774330 0.000000 0.000000 
#    y 0.000000 1.714620 0.000000 
#    z 0.000000 0.000000 1.714100 
# 
# From -- ./inp_files/46666.got.cif
#   From: 2010.05.17/outbox.ucp.g08.bks.cvg/sg63_24_cif.got.tgz:46666.got - 2010.06.11 16:32:19.
