data_PCOD9476867
_publ_section_title
;
Structure prediction by ZEFSAII (Michael W. Deem and Ramdas Pophale) SiO2 
 PCOD9476867
Probable space group: C M C A
;
_chemical_formula_sum "Si O2"
_cell_formula_units_Z 96
_cell_length_a 8.887357
_cell_length_b 24.413507
_cell_length_c 26.338664
_cell_angle_alpha 90.000000
_cell_angle_beta 90.000000
_cell_angle_gamma 90.000000
_cell_volume 5714.740814
_symmetry_space_group_name_H-M "C M C A"
_symmetry_group_IT_number 64
_symmetry_cell_setting 'orthorhombic'
loop_
_space_group_symop_operation_xyz
x,y,z
-x,1/2-y,1/2+z
x,-y,-z
-x,1/2+y,1/2-z
-x,-y,-z
x,1/2+y,1/2-z
-x,y,z
x,1/2-y,1/2+z
1/2+x,1/2+y,z
1/2-x,-y,1/2+z
1/2+x,1/2-y,-z
1/2-x,y,1/2-z
1/2-x,1/2-y,-z
1/2+x,y,1/2-z
1/2-x,1/2+y,z
1/2+x,-y,1/2+z
loop_
_atom_site_type_symbol
_atom_site_label
_atom_site_fract_x
_atom_site_fract_y
_atom_site_fract_z
Si Si1 0.320827 0.169726 0.694603
Si Si2 0.819620 0.761011 0.612623
Si Si3 0.817768 0.518664 0.057491
Si Si4 0.825360 0.179857 0.533486
Si Si5 0.320557 0.637385 0.069832
Si Si6 0.173617 0.413177 0.119596
O O1 0.500000 0.169111 0.698351
O O2 0.250000 0.171782 0.750000
O O3 0.277647 0.222798 0.660542
O O4 0.266764 0.116324 0.663508
O O5 0.755661 0.728364 0.563797
O O6 0.747431 0.821041 0.611443
O O7 0.000000 0.764443 0.609728
O O8 0.743659 0.576079 0.071851
O O9 0.774615 0.471175 0.097260
O O10 0.000000 0.524022 0.057969
O O11 0.776604 0.500000 0.000000
O O12 0.738499 0.161562 0.483600
O O13 0.824843 0.128367 0.571863
O O14 0.000000 0.193501 0.522280
O O15 0.500000 0.637590 0.071734
O O16 0.000000 0.418380 0.136324
#
# Coordination Sequence:
#
# PCOD9476867 Si02
#       6
#    16  16  16  16  16  16
#     4  10  21  37  60  84 106 132 170 220 275 324
#     4  10  21  36  52  75 104 137 176 220 266 318
#     4  10  19  35  54  75 106 148 187 218 259 310
#     4  10  18  32  51  73 104 142 179 218 260 311
#     4  12  23  32  47  74 108 147 182 217 259 310
#     4   9  18  33  55  79 106 140 179 220 264 311
#
# _framework density 16.798662
#
# number of rings (size 3 to 8) (size 9 to 14) (size 15 to 20)
#    0.000    1.833    1.667    3.500    0.000    3.667 
#    0.000    0.000    0.000    1.000    0.000    4.667 
#    0.000    0.000    0.000    0.000    0.000    0.000 
#
# Total GULP energy -267975.287233 kJ/mol
# GULP energy per Si atom -5582.818484 kJ/mol
# Density = 1.676043 g / cm^3
# Si number density = 16.798662 Si / 1000 Ang^3
#
#
#
# Elastic Constant Matrix: (Units=GPa)
#
#
# Indices 1 2 3 4 5 6 
#
# 1 76.3455 62.7138 44.6196 0.0000 0.0000 0.0000
# 2 62.7138 160.2017 65.0344 0.0000 0.0000 0.0000
# 3 44.6196 65.0344 95.6336 0.0000 0.0000 0.0000
# 4 0.0000 0.0000 0.0000 8.7387 0.0000 0.0000
# 5 0.0000 0.0000 0.0000 0.0000 21.2871 0.0000
# 6 0.0000 0.0000 0.0000 0.0000 0.0000 28.9697
#
#
#
# Elastic Compliance Matrix: (Units=1/GPa)
#
#
# Indices 1 2 3 4 5 6 
#
# 1 0.021509 -0.006004 -0.005953 0.000000 0.000000 0.000000
# 2 -0.006004 0.010298 -0.004202 0.000000 0.000000 0.000000
# 3 -0.005953 -0.004202 0.016092 0.000000 0.000000 0.000000
# 4 0.000000 0.000000 0.000000 0.114433 0.000000 0.000000
# 5 0.000000 0.000000 0.000000 0.000000 0.046977 0.000000
# 6 0.000000 0.000000 0.000000 0.000000 0.000000 0.034519
#
#
# Mechanical properties :
#
#
# Convention : Reuss Voigt Hill
#
# Bulk Modulus (GPa) = 64.17707 75.21295 69.69501
# Shear Modulus (GPa) = 17.77217 22.45328 20.11273
#
# Velocity S-wave (km/s) = 3.25615 3.65994 3.46393
# Velocity P-wave (km/s) = 7.24039 7.92026 7.58794
#
# Compressibility (1/GPa) = 0.01558189
#
# Stress axis : x y z
#
# Youngs Moduli (GPa) = 46.49218 97.10472 62.14440
#
# Poissons Ratio (x) = 0.58297 0.36993
# Poissons Ratio (y) = 0.27912 0.26114
# Poissons Ratio (z) = 0.27676 0.40804
#
# Static dielectric constant tensor:
#      x y z
#    x 1.561870 0.000000 0.000000 
#    y 0.000000 1.585170 0.000000 
#    z 0.000000 0.000000 1.550030 
# 
# From -- ./inp_files/48395.got.cif
#   From: 2010.05.17/outbox.cif.g08.bks.cpg/sg64_25_cif.got.tgz:48395.got - 2010.06.03 16:29:19.
