data_PCOD9476735
_publ_section_title
;
Structure prediction by ZEFSAII (Michael W. Deem and Ramdas Pophale) SiO2 
 PCOD9476735
Probable space group: C M C A
;
_chemical_formula_sum "Si O2"
_cell_formula_units_Z 128
_cell_length_a 18.603236
_cell_length_b 20.950119
_cell_length_c 18.330888
_cell_angle_alpha 90.000000
_cell_angle_beta 90.000000
_cell_angle_gamma 90.000000
_cell_volume 7144.280435
_symmetry_space_group_name_H-M "C M C A"
_symmetry_group_IT_number 64
_symmetry_cell_setting 'orthorhombic'
loop_
_space_group_symop_operation_xyz
x,y,z
-x,1/2-y,1/2+z
x,-y,-z
-x,1/2+y,1/2-z
-x,-y,-z
x,1/2+y,1/2-z
-x,y,z
x,1/2-y,1/2+z
1/2+x,1/2+y,z
1/2-x,-y,1/2+z
1/2+x,1/2-y,-z
1/2-x,y,1/2-z
1/2-x,1/2-y,-z
1/2+x,y,1/2-z
1/2-x,1/2+y,z
1/2+x,-y,1/2+z
loop_
_atom_site_type_symbol
_atom_site_label
_atom_site_fract_x
_atom_site_fract_y
_atom_site_fract_z
Si Si1 0.919954 0.170310 0.900035
Si Si2 0.581581 0.735939 0.744415
Si Si3 0.272343 0.851591 0.876504
Si Si4 0.583938 0.377673 0.692872
Si Si5 0.815642 0.959325 0.793128
Si Si6 0.278607 0.681750 0.974962
Si Si7 0.582237 0.482340 0.084971
Si Si8 0.222370 0.790026 0.329040
O O1 0.901465 0.198805 0.820392
O O2 0.862446 0.189688 0.959967
O O3 0.919448 0.093762 0.902582
O O4 0.000000 0.193707 0.916508
O O5 0.500000 0.719685 0.725183
O O6 0.585809 0.811451 0.761296
O O7 0.637760 0.718498 0.682269
O O8 0.357537 0.864613 0.870691
O O9 0.227436 0.898835 0.825666
O O10 0.255977 0.779939 0.847339
O O11 0.242881 0.861878 0.957901
O O12 0.500000 0.389292 0.674216
O O13 0.621583 0.433687 0.739482
O O14 0.750000 0.994995 0.750000
O O15 0.857518 0.992040 0.859829
O O16 0.244279 0.665992 0.896646
O O17 0.250000 0.750000 0.000000
O O18 0.500000 0.506245 0.100448
O O19 0.596887 0.500000 0.000000
O O20 0.250000 0.811007 0.250000
#
# Coordination Sequence:
#
# PCOD9476735 Si02
#       8
#    16  16  16  16  16  16  16  16
#     4  10  20  35  53  75 107 143 177 219 271 327
#     4  10  18  30  49  74 100 132 173 214 263 314
#     4  10  18  31  48  74 107 133 165 218 266 313
#     4  10  18  30  53  78 102 139 172 211 266 320
#     4  10  19  34  55  78 108 132 178 229 263 320
#     4  10  20  31  50  75 103 138 173 207 264 319
#     4  10  21  37  55  77 109 146 182 228 280 327
#     4  11  16  31  47  70 100 134 173 212 256 316
#
# _framework density 17.916429000000001
#
# number of rings (size 3 to 8) (size 9 to 14) (size 15 to 20)
#    0.000    1.875    3.750    2.250    0.000    0.000 
#    2.250    3.750    0.000    0.000    0.000    0.000 
#    0.000    5.750    0.000    0.000    0.000    0.000 
#
# Total GULP energy -356479.828695 kJ/mol
# GULP energy per Si atom -5569.997323 kJ/mol
# Density = 1.787565 g / cm^3
# Si number density = 17.916429 Si / 1000 Ang^3
#
#
#
# Elastic Constant Matrix: (Units=GPa)
#
#
# Indices 1 2 3 4 5 6 
#
# 1 162.7629 12.2486 60.3486 0.0000 0.0000 0.0000
# 2 12.2486 21.5015 3.9925 0.0000 0.0000 0.0000
# 3 60.3486 3.9925 105.4216 0.0000 0.0000 0.0000
# 4 0.0000 0.0000 0.0000 15.3962 0.0000 0.0000
# 5 0.0000 0.0000 0.0000 0.0000 32.8912 0.0000
# 6 0.0000 0.0000 0.0000 0.0000 0.0000 16.5029
#
#
#
# Elastic Compliance Matrix: (Units=1/GPa)
#
#
# Indices 1 2 3 4 5 6 
#
# 1 0.008093 -0.003776 -0.004490 0.000000 0.000000 0.000000
# 2 -0.003776 0.048600 0.000321 0.000000 0.000000 0.000000
# 3 -0.004490 0.000321 0.012044 0.000000 0.000000 0.000000
# 4 0.000000 0.000000 0.000000 0.064951 0.000000 0.000000
# 5 0.000000 0.000000 0.000000 0.000000 0.030403 0.000000
# 6 0.000000 0.000000 0.000000 0.000000 0.000000 0.060595
#
#
# Mechanical properties :
#
#
# Convention : Reuss Voigt Hill
#
# Bulk Modulus (GPa) = 18.92267 49.20726 34.06496
# Shear Modulus (GPa) = 19.36549 27.16450 23.26499
#
# Velocity S-wave (km/s) = 3.29124 3.89804 3.60742
# Velocity P-wave (km/s) = 5.00276 6.91260 6.03372
#
# Compressibility (1/GPa) = 0.05284667
#
# Stress axis : x y z
#
# Youngs Moduli (GPa) = 123.56710 20.57614 83.03119
#
# Poissons Ratio (x) = 0.07771 0.37278
# Poissons Ratio (y) = 0.46665 -0.02668
# Poissons Ratio (z) = 0.55478 -0.00661
#
# Static dielectric constant tensor:
#      x y z
#    x 1.774150 0.000000 0.000000 
#    y 0.000000 1.617130 0.000000 
#    z 0.000000 0.000000 1.655680 
# 
# From -- ./inp_files/33761.got.cif
#   From: 2010.05.17/outbox.cif.g08.bks.cpg/sg64_17_cif.got.tgz:33761.got - 2010.06.03 16:29:19.
