data_PCOD9476022
_publ_section_title
;
Structure prediction by ZEFSAII (Michael W. Deem and Ramdas Pophale) SiO2 
 PCOD9476022
Probable space group: C M C M
;
_chemical_formula_sum "Si O2"
_cell_formula_units_Z 80
_cell_length_a 13.024132
_cell_length_b 20.738990
_cell_length_c 11.403735
_cell_angle_alpha 90.000000
_cell_angle_beta 90.000000
_cell_angle_gamma 90.000000
_cell_volume 3080.232565
_symmetry_space_group_name_H-M "C M C M"
_symmetry_group_IT_number 63
_symmetry_cell_setting 'orthorhombic'
loop_
_space_group_symop_operation_xyz
x,y,z
-x,-y,1/2+z
x,-y,-z
-x,y,1/2-z
-x,-y,-z
x,y,1/2-z
-x,y,z
x,-y,1/2+z
1/2+x,1/2+y,z
1/2-x,1/2-y,1/2+z
1/2+x,1/2-y,-z
1/2-x,1/2+y,1/2-z
1/2-x,1/2-y,-z
1/2+x,1/2+y,1/2-z
1/2-x,1/2+y,z
1/2+x,1/2-y,1/2+z
loop_
_atom_site_type_symbol
_atom_site_label
_atom_site_fract_x
_atom_site_fract_y
_atom_site_fract_z
Si Si1 0.180877 0.878180 0.376114
Si Si2 0.339948 0.375749 0.623807
Si Si3 0.609694 0.845679 0.879070
Si Si4 0.344125 0.778447 0.379550
Si Si5 0.385934 0.964294 0.123411
O O1 0.129444 0.886908 0.250000
O O2 0.123398 0.897079 0.495506
O O3 0.226646 0.805254 0.384083
O O4 0.287790 0.917908 0.373945
O O5 0.376930 0.401415 0.750000
O O6 0.216335 0.384157 0.619640
O O7 0.354486 0.298388 0.624745
O O8 0.612507 0.812218 0.750000
O O9 0.500000 0.881400 0.879744
O O10 0.610532 0.804690 0.998917
O O11 0.382157 0.800667 0.250000
O O12 0.380956 0.999751 0.250000
O O13 0.500000 0.933227 0.123672
O O14 0.379664 0.000000 0.000000
#
# Coordination Sequence:
#
# PCOD9476022 Si02
#       5
#    16  16  16  16  16
#     4   9  16  25  39  57  72  91 124 162 198 237
#     4   9  17  28  40  56  79 104 130 160 198 246
#     4   9  16  24  34  50  72  96 123 157 193 226
#     4   9  17  28  41  56  76 103 132 162 198 243
#     4   9  18  31  43  55  74 101 134 173 215 253
#
# _framework density 25.972065000000001
#
# number of rings (size 3 to 8) (size 9 to 14) (size 15 to 20)
#    0.000    3.000    0.000    2.400    0.000    6.800 
#    0.000    4.000    0.000    2.400    0.000    0.000 
#    0.000    0.000    0.000    0.000    0.000   16.000 
#
# Total GULP energy -222841.463541 kJ/mol
# GULP energy per Si atom -5571.036589 kJ/mol
# Density = 2.591295 g / cm^3
# Si number density = 25.972065 Si / 1000 Ang^3
#
#
#
# Elastic Constant Matrix: (Units=GPa)
#
#
# Indices 1 2 3 4 5 6 
#
# 1 79.1121 10.9904 26.6905 0.0000 0.0000 0.0000
# 2 10.9904 33.8549 37.8710 0.0000 0.0000 0.0000
# 3 26.6905 37.8710 379.6254 0.0000 0.0000 0.0000
# 4 0.0000 0.0000 0.0000 41.3927 0.0000 0.0000
# 5 0.0000 0.0000 0.0000 0.0000 1.3199 0.0000
# 6 0.0000 0.0000 0.0000 0.0000 0.0000 -31.5300
#
#
#
# Elastic Compliance Matrix: (Units=1/GPa)
#
#
# Indices 1 2 3 4 5 6 
#
# 1 0.013346 -0.003695 -0.000570 0.000000 0.000000 0.000000
# 2 -0.003695 0.034271 -0.003159 0.000000 0.000000 0.000000
# 3 -0.000570 -0.003159 0.002989 0.000000 0.000000 0.000000
# 4 0.000000 0.000000 0.000000 0.024159 0.000000 0.000000
# 5 0.000000 0.000000 0.000000 0.000000 0.757621 0.000000
# 6 0.000000 0.000000 0.000000 0.000000 0.000000 -0.031716
#
#
# Mechanical properties :
#
#
# Convention : Reuss Voigt Hill
#
# Bulk Modulus (GPa) = 27.96536 71.52179 49.74357
# Shear Modulus (GPa) = 6.04275 30.03924 18.04099
#
# Velocity S-wave (km/s) = 1.52699 3.40457 2.63844
# Velocity P-wave (km/s) = 3.72824 6.56144 5.33630
#
# Compressibility (1/GPa) = 0.03575853
#
# Stress axis : x y z
#
# Youngs Moduli (GPa) = 74.92974 29.17898 334.51828
#
# Poissons Ratio (x) = 0.10782 0.19057
# Poissons Ratio (y) = 0.27688 1.05676
# Poissons Ratio (z) = 0.04269 0.09218
#
# Static dielectric constant tensor:
#      x y z
#    x 1.894260 0.000000 0.000000 
#    y 0.000000 2.149020 0.000000 
#    z 0.000000 0.000000 2.134480 
# 
# From -- ./inp_files/19416.got.cif
#   From: 2010.05.17/outbox.cif.g08.bks.cpg/sg63_10_cif.got.tgz:19416.got - 2010.06.03 15:47:04.
