data_PCOD9476690
_publ_section_title
;
Structure prediction by ZEFSAII (Michael W. Deem and Ramdas Pophale) SiO2 
 PCOD9476690
Probable space group: C M C A
;
_chemical_formula_sum "Si O2"
_cell_formula_units_Z 104
_cell_length_a 14.737293
_cell_length_b 21.681775
_cell_length_c 20.847684
_cell_angle_alpha 90.000000
_cell_angle_beta 90.000000
_cell_angle_gamma 90.000000
_cell_volume 6661.474456
_symmetry_space_group_name_H-M "C M C A"
_symmetry_group_IT_number 64
_symmetry_cell_setting 'orthorhombic'
loop_
_space_group_symop_operation_xyz
x,y,z
-x,1/2-y,1/2+z
x,-y,-z
-x,1/2+y,1/2-z
-x,-y,-z
x,1/2+y,1/2-z
-x,y,z
x,1/2-y,1/2+z
1/2+x,1/2+y,z
1/2-x,-y,1/2+z
1/2+x,1/2-y,-z
1/2-x,y,1/2-z
1/2-x,1/2-y,-z
1/2+x,y,1/2-z
1/2-x,1/2+y,z
1/2+x,-y,1/2+z
loop_
_atom_site_type_symbol
_atom_site_label
_atom_site_fract_x
_atom_site_fract_y
_atom_site_fract_z
Si Si1 0.608659 0.293465 0.021437
Si Si2 0.396502 0.261185 0.811537
Si Si3 0.397130 0.323486 0.440304
Si Si4 0.722491 0.373778 0.111569
Si Si5 0.110268 0.870680 0.894403
Si Si6 0.250000 0.179754 0.750000
Si Si7 0.893389 0.007375 0.923083
O O1 0.500000 0.299887 0.031268
O O2 0.665240 0.316835 0.081614
O O3 0.625807 0.223638 0.998070
O O4 0.634770 0.338476 0.961982
O O5 0.500000 0.267775 0.789074
O O6 0.398562 0.220233 0.876912
O O7 0.359596 0.327100 0.836043
O O8 0.335191 0.224566 0.762135
O O9 0.500000 0.347002 0.449061
O O10 0.318687 0.372163 0.425769
O O11 0.737675 0.360755 0.186392
O O12 0.666524 0.435548 0.099116
O O13 0.000000 0.868946 0.893316
O O14 0.136726 0.941896 0.893557
O O15 0.000000 0.018077 0.907788
O O16 0.887980 0.000000 0.000000
#
# Coordination Sequence:
#
# PCOD9476690 Si02
#       7
#    16  16  16  16  16   8  16
#     4   9  15  26  47  74  97 116 144 195 249 289
#     4   8  15  30  48  63  89 126 156 191 233 277
#     4   8  16  29  45  66  92 123 159 193 232 282
#     4  11  19  29  45  68 102 130 156 192 239 281
#     4   8  14  27  47  71  95 117 148 187 240 294
#     4  10  22  32  42  70  98 126 170 190 216 288
#     4  10  18  29  48  78 103 117 147 199 254 297
#
# _framework density 15.612159999999999
#
# number of rings (size 3 to 8) (size 9 to 14) (size 15 to 20)
#    0.000    2.923    1.538    2.769    0.000    1.231 
#    0.000    0.769    0.000    0.462    0.000    1.077 
#    0.000    0.000    0.000    0.000    0.000    0.000 
#
# Total GULP energy -289530.988429 kJ/mol
# GULP energy per Si atom -5567.903624 kJ/mol
# Density = 1.557663 g / cm^3
# Si number density = 15.612160 Si / 1000 Ang^3
#
#
#
# Elastic Constant Matrix: (Units=GPa)
#
#
# Indices 1 2 3 4 5 6 
#
# 1 66.8556 45.2040 27.2129 0.0000 0.0000 0.0000
# 2 45.2040 79.0882 22.9917 0.0000 0.0000 0.0000
# 3 27.2129 22.9917 48.9278 0.0000 0.0000 0.0000
# 4 0.0000 0.0000 0.0000 9.3557 0.0000 0.0000
# 5 0.0000 0.0000 0.0000 0.0000 19.5933 0.0000
# 6 0.0000 0.0000 0.0000 0.0000 0.0000 21.0490
#
#
#
# Elastic Compliance Matrix: (Units=1/GPa)
#
#
# Indices 1 2 3 4 5 6 
#
# 1 0.027525 -0.013067 -0.009169 0.000000 0.000000 0.000000
# 2 -0.013067 0.020848 -0.002529 0.000000 0.000000 0.000000
# 3 -0.009169 -0.002529 0.026726 0.000000 0.000000 0.000000
# 4 0.000000 0.000000 0.000000 0.106886 0.000000 0.000000
# 5 0.000000 0.000000 0.000000 0.000000 0.051038 0.000000
# 6 0.000000 0.000000 0.000000 0.000000 0.000000 0.047508
#
#
# Mechanical properties :
#
#
# Convention : Reuss Voigt Hill
#
# Bulk Modulus (GPa) = 39.10864 42.85431 40.98148
# Shear Modulus (GPa) = 14.76745 16.63049 15.69897
#
# Velocity S-wave (km/s) = 3.07888 3.26732 3.17450
# Velocity P-wave (km/s) = 6.14360 6.46086 6.30423
#
# Compressibility (1/GPa) = 0.02556980
#
# Stress axis : x y z
#
# Youngs Moduli (GPa) = 36.33119 47.96669 37.41654
#
# Poissons Ratio (x) = 0.62677 0.34306
# Poissons Ratio (y) = 0.47473 0.09463
# Poissons Ratio (z) = 0.33310 0.12131
#
# Static dielectric constant tensor:
#      x y z
#    x 1.545810 0.000000 0.000000 
#    y 0.000000 1.525970 0.000000 
#    z 0.000000 0.000000 1.516420 
# 
# From -- ./inp_files/39606.got.cif
#   From: 2010.05.17/outbox.cif.g08.bks.cpg/sg64_20_cif.got.tgz:39606.got - 2010.06.03 16:29:19.
