data_PCOD9476028
_publ_section_title
;
Structure prediction by ZEFSAII (Michael W. Deem and Ramdas Pophale) SiO2 
 PCOD9476028
Probable space group: C M C M
;
_chemical_formula_sum "Si O2"
_cell_formula_units_Z 80
_cell_length_a 7.473151
_cell_length_b 28.502793
_cell_length_c 18.780555
_cell_angle_alpha 90.000000
_cell_angle_beta 90.000000
_cell_angle_gamma 90.000000
_cell_volume 4000.364814
_symmetry_space_group_name_H-M "C M C M"
_symmetry_group_IT_number 63
_symmetry_cell_setting 'orthorhombic'
loop_
_space_group_symop_operation_xyz
x,y,z
-x,-y,1/2+z
x,-y,-z
-x,y,1/2-z
-x,-y,-z
x,y,1/2-z
-x,y,z
x,-y,1/2+z
1/2+x,1/2+y,z
1/2-x,1/2-y,1/2+z
1/2+x,1/2-y,-z
1/2-x,1/2+y,1/2-z
1/2-x,1/2-y,-z
1/2+x,1/2+y,1/2-z
1/2-x,1/2+y,z
1/2+x,1/2-y,1/2+z
loop_
_atom_site_type_symbol
_atom_site_label
_atom_site_fract_x
_atom_site_fract_y
_atom_site_fract_z
Si Si1 0.216737 0.091614 0.829061
Si Si2 0.790240 0.449895 0.022187
Si Si3 0.784406 0.649229 0.464983
Si Si4 0.219184 0.292499 0.669106
Si Si5 0.212203 0.191665 0.614638
O O1 0.274484 0.077982 0.750000
O O2 0.275648 0.058697 0.893450
O O3 0.280931 0.144432 0.847469
O O4 0.000000 0.092295 0.830226
O O5 0.000000 0.450885 0.002831
O O6 0.712427 0.500000 0.000000
O O7 0.715295 0.402607 0.985550
O O8 0.722119 0.670280 0.390319
O O9 0.740365 0.683751 0.530633
O O10 0.000000 0.646778 0.462720
O O11 0.274266 0.302176 0.750000
O O12 0.280704 0.240752 0.644479
O O13 0.000000 0.292358 0.668195
O O14 0.000000 0.192316 0.627788
#
# Coordination Sequence:
#
# PCOD9476028 Si02
#       5
#    16  16  16  16  16
#     4   9  17  29  46  69  92 112 140 179 220 262
#     4   9  18  32  47  64  88 117 149 184 222 262
#     4   9  17  29  45  64  86 113 146 182 215 252
#     4   9  16  26  42  64  88 114 144 176 210 252
#     4   9  16  27  45  66  88 114 141 172 213 260
#
# _framework density 19.998176999999998
#
# number of rings (size 3 to 8) (size 9 to 14) (size 15 to 20)
#    0.000    3.000    0.000    1.200    0.000    3.200 
#    0.000    1.000    0.000    7.200    0.000    0.000 
#    0.000    0.000    0.000    0.000    0.000    0.000 
#
# Total GULP energy -223139.748271 kJ/mol
# GULP energy per Si atom -5578.493707 kJ/mol
# Density = 1.995266 g / cm^3
# Si number density = 19.998177 Si / 1000 Ang^3
#
#
#
# Elastic Constant Matrix: (Units=GPa)
#
#
# Indices 1 2 3 4 5 6 
#
# 1 49.4717 -10.1521 -30.3488 0.0000 0.0000 0.0000
# 2 -10.1521 92.3031 60.6993 0.0000 0.0000 0.0000
# 3 -30.3488 60.6993 112.9829 0.0000 0.0000 0.0000
# 4 0.0000 0.0000 0.0000 18.6314 0.0000 0.0000
# 5 0.0000 0.0000 0.0000 0.0000 17.8250 0.0000
# 6 0.0000 0.0000 0.0000 0.0000 0.0000 -40.6319
#
#
#
# Elastic Compliance Matrix: (Units=1/GPa)
#
#
# Indices 1 2 3 4 5 6 
#
# 1 0.024579 -0.002533 0.007963 0.000000 0.000000 0.000000
# 2 -0.002533 0.017014 -0.009821 0.000000 0.000000 0.000000
# 3 0.007963 -0.009821 0.016266 0.000000 0.000000 0.000000
# 4 0.000000 0.000000 0.000000 0.053673 0.000000 0.000000
# 5 0.000000 0.000000 0.000000 0.000000 0.056101 0.000000
# 6 0.000000 0.000000 0.000000 0.000000 0.000000 -0.024611
#
#
# Mechanical properties :
#
#
# Convention : Reuss Voigt Hill
#
# Bulk Modulus (GPa) = 20.37635 32.79493 26.58564
# Shear Modulus (GPa) = 29.73323 14.80218 22.26771
#
# Velocity S-wave (km/s) = 3.86008 2.72357 3.34052
# Velocity P-wave (km/s) = 5.48436 5.13079 5.31052
#
# Compressibility (1/GPa) = 0.04907651
#
# Stress axis : x y z
#
# Youngs Moduli (GPa) = 40.68542 58.77666 61.47730
#
# Poissons Ratio (x) = 0.14890 -0.48956
# Poissons Ratio (y) = 0.10307 0.60376
# Poissons Ratio (z) = -0.32399 0.57724
#
# Static dielectric constant tensor:
#      x y z
#    x 1.763760 0.000000 0.000000 
#    y 0.000000 1.702630 0.000000 
#    z 0.000000 0.000000 1.681590 
# 
# From -- ./inp_files/17863.got.cif
#   From: 2010.05.17/outbox.cif.g08.bks.cpg/sg63_9_cif.got.tgz:17863.got - 2010.06.03 15:47:04.
