data_PCOD9476747
_publ_section_title
;
Structure prediction by ZEFSAII (Michael W. Deem and Ramdas Pophale) SiO2 
 PCOD9476747
Probable space group: C M C A
;
_chemical_formula_sum "Si O2"
_cell_formula_units_Z 128
_cell_length_a 18.843722
_cell_length_b 23.673322
_cell_length_c 17.695944
_cell_angle_alpha 90.000000
_cell_angle_beta 90.000000
_cell_angle_gamma 90.000000
_cell_volume 7894.045570
_symmetry_space_group_name_H-M "C M C A"
_symmetry_group_IT_number 64
_symmetry_cell_setting 'orthorhombic'
loop_
_space_group_symop_operation_xyz
x,y,z
-x,1/2-y,1/2+z
x,-y,-z
-x,1/2+y,1/2-z
-x,-y,-z
x,1/2+y,1/2-z
-x,y,z
x,1/2-y,1/2+z
1/2+x,1/2+y,z
1/2-x,-y,1/2+z
1/2+x,1/2-y,-z
1/2-x,y,1/2-z
1/2-x,1/2-y,-z
1/2+x,y,1/2-z
1/2-x,1/2+y,z
1/2+x,-y,1/2+z
loop_
_atom_site_type_symbol
_atom_site_label
_atom_site_fract_x
_atom_site_fract_y
_atom_site_fract_z
Si Si1 0.083265 0.846960 0.203460
Si Si2 0.306377 0.278258 0.106499
Si Si3 0.584785 0.097946 0.979534
Si Si4 0.585898 0.946381 0.185401
Si Si5 0.153958 0.785301 0.456646
Si Si6 0.584791 0.569479 0.353931
Si Si7 0.177185 0.830629 0.715356
Si Si8 0.578658 0.259332 0.816733
O O1 0.139786 0.824383 0.141807
O O2 0.106877 0.903870 0.247403
O O3 0.082595 0.797361 0.266258
O O4 0.000000 0.852526 0.177638
O O5 0.224923 0.296450 0.093086
O O6 0.307383 0.222735 0.160176
O O7 0.330993 0.257709 0.024185
O O8 0.500000 0.107392 0.974428
O O9 0.595872 0.061746 0.055557
O O10 0.608318 0.074526 0.898088
O O11 0.624479 0.156931 0.990381
O O12 0.500000 0.944242 0.185018
O O13 0.605277 0.012181 0.189720
O O14 0.096607 0.759043 0.400728
O O15 0.500000 0.579592 0.343834
O O16 0.630393 0.622214 0.325711
O O17 0.250000 0.853505 0.750000
O O18 0.133246 0.803977 0.784158
O O19 0.500000 0.282708 0.809544
#
# Coordination Sequence:
#
# PCOD9476747 Si02
#       8
#    16  16  16  16  16  16  16  16
#     4   9  18  32  50  74 101 129 167 212 252 299
#     4  10  22  33  49  72 101 139 168 201 255 300
#     4  10  18  30  50  77 105 130 161 205 250 302
#     4   9  17  32  52  75 101 129 165 208 254 299
#     4  11  19  33  49  74 103 137 168 200 249 310
#     4  10  20  33  52  74  98 132 170 206 250 302
#     4  11  20  35  49  69 102 135 165 206 248 294
#     4  10  19  31  51  75 100 130 164 203 249 300
#
# _framework density 16.214753000000002
#
# number of rings (size 3 to 8) (size 9 to 14) (size 15 to 20)
#    0.000    2.000    3.750    1.125    0.000    3.000 
#    0.000    1.250    0.000    0.000    0.000    0.875 
#    0.000    4.000    0.000    0.000    0.000    0.000 
#
# Total GULP energy -356568.656566 kJ/mol
# GULP energy per Si atom -5571.385259 kJ/mol
# Density = 1.617785 g / cm^3
# Si number density = 16.214753 Si / 1000 Ang^3
#
#
#
# Elastic Constant Matrix: (Units=GPa)
#
#
# Indices 1 2 3 4 5 6 
#
# 1 60.3932 31.3210 29.2085 0.0000 0.0000 0.0000
# 2 31.3210 72.5493 25.1236 0.0000 0.0000 0.0000
# 3 29.2085 25.1236 55.3369 0.0000 0.0000 0.0000
# 4 0.0000 0.0000 0.0000 26.1759 0.0000 0.0000
# 5 0.0000 0.0000 0.0000 0.0000 24.1833 0.0000
# 6 0.0000 0.0000 0.0000 0.0000 0.0000 7.6263
#
#
#
# Elastic Compliance Matrix: (Units=1/GPa)
#
#
# Indices 1 2 3 4 5 6 
#
# 1 0.025226 -0.007451 -0.009932 0.000000 0.000000 0.000000
# 2 -0.007451 0.018556 -0.004492 0.000000 0.000000 0.000000
# 3 -0.009932 -0.004492 0.025353 0.000000 0.000000 0.000000
# 4 0.000000 0.000000 0.000000 0.038203 0.000000 0.000000
# 5 0.000000 0.000000 0.000000 0.000000 0.041351 0.000000
# 6 0.000000 0.000000 0.000000 0.000000 0.000000 0.131125
#
#
# Mechanical properties :
#
#
# Convention : Reuss Voigt Hill
#
# Bulk Modulus (GPa) = 39.39342 39.95394 39.67368
# Shear Modulus (GPa) = 15.05909 18.43886 16.74897
#
# Velocity S-wave (km/s) = 3.05081 3.37585 3.21744
# Velocity P-wave (km/s) = 6.06279 6.31578 6.19058
#
# Compressibility (1/GPa) = 0.02538495
#
# Stress axis : x y z
#
# Youngs Moduli (GPa) = 39.64159 53.89097 39.44317
#
# Poissons Ratio (x) = 0.40155 0.39176
# Poissons Ratio (y) = 0.29537 0.17717
# Poissons Ratio (z) = 0.39373 0.24206
#
# Static dielectric constant tensor:
#      x y z
#    x 1.550280 0.000000 0.000000 
#    y 0.000000 1.541260 0.000000 
#    z 0.000000 0.000000 1.547040 
# 
# From -- ./inp_files/33747.got.cif
#   From: 2010.05.17/outbox.cif.g08.bks.cpg/sg64_17_cif.got.tgz:33747.got - 2010.06.03 16:29:19.
