data_PCOD9476025
_publ_section_title
;
Structure prediction by ZEFSAII (Michael W. Deem and Ramdas Pophale) SiO2 
 PCOD9476025
Probable space group: C M C M
;
_chemical_formula_sum "Si O2"
_cell_formula_units_Z 96
_cell_length_a 25.048528
_cell_length_b 24.982587
_cell_length_c 7.501197
_cell_angle_alpha 90.000000
_cell_angle_beta 90.000000
_cell_angle_gamma 90.000000
_cell_volume 4694.076780
_symmetry_space_group_name_H-M "C M C M"
_symmetry_group_IT_number 63
_symmetry_cell_setting 'orthorhombic'
loop_
_space_group_symop_operation_xyz
x,y,z
-x,-y,1/2+z
x,-y,-z
-x,y,1/2-z
-x,-y,-z
x,y,1/2-z
-x,y,z
x,-y,1/2+z
1/2+x,1/2+y,z
1/2-x,1/2-y,1/2+z
1/2+x,1/2-y,-z
1/2-x,1/2+y,1/2-z
1/2-x,1/2-y,-z
1/2+x,1/2+y,1/2-z
1/2-x,1/2+y,z
1/2+x,1/2-y,1/2+z
loop_
_atom_site_type_symbol
_atom_site_label
_atom_site_fract_x
_atom_site_fract_y
_atom_site_fract_z
Si Si1 0.940598 0.442377 0.537782
Si Si2 0.059443 0.857273 0.534696
Si Si3 0.439477 0.768145 0.961228
Si Si4 0.648108 0.439359 0.536494
Si Si5 0.641825 0.145336 0.467471
Si Si6 0.230342 0.438222 0.964209
O O1 0.916407 0.500000 0.500000
O O2 0.944160 0.436627 0.750000
O O3 0.904545 0.395179 0.474702
O O4 0.000000 0.441516 0.461614
O O5 0.059412 0.860143 0.750000
O O6 0.067121 0.795193 0.486539
O O7 0.106108 0.895914 0.468109
O O8 0.000000 0.873207 0.473059
O O9 0.442162 0.779959 0.750000
O O10 0.500000 0.782406 0.030895
O O11 0.385881 0.798859 0.026349
O O12 0.630250 0.500000 0.500000
O O13 0.651099 0.432982 0.750000
O O14 0.708793 0.433726 0.468088
O O15 0.646559 0.147953 0.250000
O O16 0.694436 0.112239 0.527576
O O17 0.230600 0.434468 0.750000
O O18 0.212265 0.500000 0.000000
#
# Coordination Sequence:
#
# PCOD9476025 Si02
#       6
#    16  16  16  16  16  16
#     4   9  16  25  37  55  80 108 139 179 224 263
#     4   9  18  33  50  68  93 121 145 176 224 274
#     4   9  17  30  48  68  89 117 155 192 221 256
#     4   9  18  32  50  71  94 119 146 178 219 268
#     4   9  16  27  44  63  84 115 152 185 219 259
#     4   9  17  30  47  66  90 120 152 186 224 265
#
# _framework density 20.451307
#
# number of rings (size 3 to 8) (size 9 to 14) (size 15 to 20)
#    0.000    3.000    0.000    1.000    0.000    3.000 
#    0.000    2.500    0.000    4.000    0.000    0.000 
#    0.000    0.000    0.000    0.000    0.000    0.000 
#
# Total GULP energy -267244.134677 kJ/mol
# GULP energy per Si atom -5567.586139 kJ/mol
# Density = 2.040476 g / cm^3
# Si number density = 20.451307 Si / 1000 Ang^3
#
#
#
# Elastic Constant Matrix: (Units=GPa)
#
#
# Indices 1 2 3 4 5 6 
#
# 1 134.8383 91.2860 5.8755 0.0000 0.0000 0.0000
# 2 91.2860 111.3526 -3.7733 0.0000 0.0000 0.0000
# 3 5.8755 -3.7733 54.1131 0.0000 0.0000 0.0000
# 4 0.0000 0.0000 0.0000 20.0274 0.0000 0.0000
# 5 0.0000 0.0000 0.0000 0.0000 -1.4246 0.0000
# 6 0.0000 0.0000 0.0000 0.0000 0.0000 37.8399
#
#
#
# Elastic Compliance Matrix: (Units=1/GPa)
#
#
# Indices 1 2 3 4 5 6 
#
# 1 0.017090 -0.014107 -0.002839 0.000000 0.000000 0.000000
# 2 -0.014107 0.020646 0.002971 0.000000 0.000000 0.000000
# 3 -0.002839 0.002971 0.018995 0.000000 0.000000 0.000000
# 4 0.000000 0.000000 0.000000 0.049932 0.000000 0.000000
# 5 0.000000 0.000000 0.000000 0.000000 -0.701958 0.000000
# 6 0.000000 0.000000 0.000000 0.000000 0.000000 0.026427
#
#
# Mechanical properties :
#
#
# Convention : Reuss Voigt Hill
#
# Bulk Modulus (GPa) = 34.74401 54.12004 44.43203
# Shear Modulus (GPa) = -9.41045 25.08293 7.83624
#
# Velocity S-wave (km/s) = -2.14741 3.50590 1.95959
# Velocity P-wave (km/s) = 3.29803 6.55048 5.18584
#
# Compressibility (1/GPa) = 0.02878194
#
# Stress axis : x y z
#
# Youngs Moduli (GPa) = 58.51266 48.43612 52.64464
#
# Poissons Ratio (x) = 0.68327 0.14947
# Poissons Ratio (y) = 0.82542 -0.15642
# Poissons Ratio (z) = 0.16614 -0.14392
#
# Static dielectric constant tensor:
#      x y z
#    x 1.769630 0.000000 0.000000 
#    y 0.000000 1.710750 0.000000 
#    z 0.000000 0.000000 1.714060 
# 
# From -- ./inp_files/23939.got.cif
#   From: 2010.05.17/outbox.cif.g08.bks.cpg/sg63_12_cif.got.tgz:23939.got - 2010.06.03 15:47:04.
