data_PCOD9476927
_publ_section_title
;
Structure prediction by ZEFSAII (Michael W. Deem and Ramdas Pophale) SiO2 
 PCOD9476927
Probable space group: C M C A
;
_chemical_formula_sum "Si O2"
_cell_formula_units_Z 96
_cell_length_a 15.441840
_cell_length_b 14.742967
_cell_length_c 19.862860
_cell_angle_alpha 90.000000
_cell_angle_beta 90.000000
_cell_angle_gamma 90.000000
_cell_volume 4521.949659
_symmetry_space_group_name_H-M "C M C A"
_symmetry_group_IT_number 64
_symmetry_cell_setting 'orthorhombic'
loop_
_space_group_symop_operation_xyz
x,y,z
-x,1/2-y,1/2+z
x,-y,-z
-x,1/2+y,1/2-z
-x,-y,-z
x,1/2+y,1/2-z
-x,y,z
x,1/2-y,1/2+z
1/2+x,1/2+y,z
1/2-x,-y,1/2+z
1/2+x,1/2-y,-z
1/2-x,y,1/2-z
1/2-x,1/2-y,-z
1/2+x,y,1/2-z
1/2-x,1/2+y,z
1/2+x,-y,1/2+z
loop_
_atom_site_type_symbol
_atom_site_label
_atom_site_fract_x
_atom_site_fract_y
_atom_site_fract_z
Si Si1 0.606037 0.272479 0.060006
Si Si2 0.899937 0.537234 0.615513
Si Si3 0.851030 0.449950 0.234604
Si Si4 0.598802 0.620111 0.345251
Si Si5 0.394466 0.842782 0.584272
Si Si6 0.848946 0.244905 0.224286
O O1 0.500000 0.269272 0.065735
O O2 0.637369 0.363545 0.098858
O O3 0.638985 0.181165 0.095405
O O4 0.628092 0.286981 0.982343
O O5 0.895277 0.520430 0.695462
O O6 0.864381 0.447638 0.579605
O O7 0.000000 0.543164 0.594116
O O8 0.750000 0.444544 0.250000
O O9 0.861308 0.525201 0.177418
O O10 0.881582 0.348245 0.219131
O O11 0.500000 0.599603 0.362972
O O12 0.601413 0.686281 0.280233
O O13 0.500000 0.843697 0.589696
O O14 0.357335 0.800753 0.652017
O O15 0.750000 0.244326 0.250000
#
# Coordination Sequence:
#
# PCOD9476927 Si02
#       6
#    16  16  16  16  16  16
#     4   9  19  35  56  86 122 150 190 246 295 342
#     4  10  18  32  58  87 116 150 194 246 295 340
#     4  11  23  37  57  82 121 154 194 241 291 346
#     4  11  21  36  60  87 114 149 192 242 292 343
#     4  10  20  35  59  89 117 155 196 240 293 347
#     4  11  23  38  58  83 118 153 193 236 290 345
#
# _framework density 21.229780999999999
#
# number of rings (size 3 to 8) (size 9 to 14) (size 15 to 20)
#    0.000    1.667    3.333    2.000    0.000    4.000 
#    0.000    1.667    0.000    3.000    0.000    0.000 
#    0.000    0.000    0.000    0.000    0.000    0.000 
#
# Total GULP energy -268098.082208 kJ/mol
# GULP energy per Si atom -5585.376713 kJ/mol
# Density = 2.118146 g / cm^3
# Si number density = 21.229781 Si / 1000 Ang^3
#
#
#
# Elastic Constant Matrix: (Units=GPa)
#
#
# Indices 1 2 3 4 5 6 
#
# 1 23.9911 2.5554 -4.1826 0.0000 0.0000 0.0000
# 2 2.5554 92.8142 9.5715 0.0000 0.0000 0.0000
# 3 -4.1826 9.5715 75.5839 0.0000 0.0000 0.0000
# 4 0.0000 0.0000 0.0000 33.5139 0.0000 0.0000
# 5 0.0000 0.0000 0.0000 0.0000 7.5316 0.0000
# 6 0.0000 0.0000 0.0000 0.0000 0.0000 20.6575
#
#
#
# Elastic Compliance Matrix: (Units=1/GPa)
#
#
# Indices 1 2 3 4 5 6 
#
# 1 0.042273 -0.001424 0.002520 0.000000 0.000000 0.000000
# 2 -0.001424 0.010965 -0.001467 0.000000 0.000000 0.000000
# 3 0.002520 -0.001467 0.013556 0.000000 0.000000 0.000000
# 4 0.000000 0.000000 0.000000 0.029838 0.000000 0.000000
# 5 0.000000 0.000000 0.000000 0.000000 0.132773 0.000000
# 6 0.000000 0.000000 0.000000 0.000000 0.000000 0.048409
#
#
# Mechanical properties :
#
#
# Convention : Reuss Voigt Hill
#
# Bulk Modulus (GPa) = 15.13996 23.14200 19.14098
# Shear Modulus (GPa) = 16.63486 24.63692 20.63589
#
# Velocity S-wave (km/s) = 2.80226 3.41029 3.12111
# Velocity P-wave (km/s) = 4.19728 5.14112 4.69299
#
# Compressibility (1/GPa) = 0.06605039
#
# Stress axis : x y z
#
# Youngs Moduli (GPa) = 23.65573 91.20151 73.77046
#
# Poissons Ratio (x) = 0.12985 -0.18587
# Poissons Ratio (y) = 0.03368 0.10824
# Poissons Ratio (z) = -0.05960 0.13382
#
# Static dielectric constant tensor:
#      x y z
#    x 1.803300 0.000000 0.000000 
#    y 0.000000 1.799140 0.000000 
#    z 0.000000 0.000000 1.750920 
# 
# From -- ./inp_files/39195.got.cif
#   From: 2010.05.17/outbox.cif.g08.bks.cpg/sg64_20_cif.got.tgz:39195.got - 2010.06.03 16:29:19.
