data_PCOD9476987
_publ_section_title
;
Structure prediction by ZEFSAII (Michael W. Deem and Ramdas Pophale) SiO2 
 PCOD9476987
Probable space group: C M C A
;
_chemical_formula_sum "Si O2"
_cell_formula_units_Z 80
_cell_length_a 18.486432
_cell_length_b 14.451273
_cell_length_c 15.534059
_cell_angle_alpha 90.000000
_cell_angle_beta 90.000000
_cell_angle_gamma 90.000000
_cell_volume 4149.962318
_symmetry_space_group_name_H-M "C M C A"
_symmetry_group_IT_number 64
_symmetry_cell_setting 'orthorhombic'
loop_
_space_group_symop_operation_xyz
x,y,z
-x,1/2-y,1/2+z
x,-y,-z
-x,1/2+y,1/2-z
-x,-y,-z
x,1/2+y,1/2-z
-x,y,z
x,1/2-y,1/2+z
1/2+x,1/2+y,z
1/2-x,-y,1/2+z
1/2+x,1/2-y,-z
1/2-x,y,1/2-z
1/2-x,1/2-y,-z
1/2+x,y,1/2-z
1/2-x,1/2+y,z
1/2+x,-y,1/2+z
loop_
_atom_site_type_symbol
_atom_site_label
_atom_site_fract_x
_atom_site_fract_y
_atom_site_fract_z
Si Si1 0.686883 0.390163 0.007579
Si Si2 0.080891 0.418976 0.062279
Si Si3 0.289954 0.075669 0.835934
Si Si4 0.917576 0.757776 0.576092
Si Si5 0.219964 0.352857 0.842516
O O1 0.746649 0.384799 0.082800
O O2 0.616251 0.336456 0.039293
O O3 0.672716 0.500000 0.000000
O O4 0.722778 0.345915 0.921763
O O5 0.127468 0.399377 0.146375
O O6 0.000000 0.449772 0.084716
O O7 0.112985 0.500000 0.000000
O O8 0.078874 0.329207 0.003292
O O9 0.250000 0.105516 0.750000
O O10 0.290550 0.963884 0.836995
O O11 0.855652 0.802187 0.637008
O O12 0.000000 0.749025 0.610162
O O13 0.250000 0.322473 0.750000
#
# Coordination Sequence:
#
# PCOD9476987 Si02
#       5
#    16  16  16  16  16
#     4  10  21  40  59  83 122 163 206 244 292 361
#     4  10  18  33  58  86 118 150 190 251 311 352
#     4  10  19  34  59  89 118 159 202 243 298 358
#     4  11  22  37  60  87 117 155 199 249 304 357
#     4  10  20  36  61  90 118 154 202 251 299 354
#
# _framework density 19.277284000000002
#
# number of rings (size 3 to 8) (size 9 to 14) (size 15 to 20)
#    0.000    1.800    4.000    1.200    0.000    1.200 
#    0.000    2.000    0.000    7.200    0.000    0.000 
#    0.000    0.000    0.000    0.000    0.000    0.000 
#
# Total GULP energy -223119.253409 kJ/mol
# GULP energy per Si atom -5577.981335 kJ/mol
# Density = 1.923341 g / cm^3
# Si number density = 19.277284 Si / 1000 Ang^3
#
#
#
# Elastic Constant Matrix: (Units=GPa)
#
#
# Indices 1 2 3 4 5 6 
#
# 1 143.2213 35.6462 71.7650 0.0000 0.0000 0.0000
# 2 35.6462 78.6560 20.0577 0.0000 0.0000 0.0000
# 3 71.7650 20.0577 130.6407 0.0000 0.0000 0.0000
# 4 0.0000 0.0000 0.0000 2.9618 0.0000 0.0000
# 5 0.0000 0.0000 0.0000 0.0000 18.3138 0.0000
# 6 0.0000 0.0000 0.0000 0.0000 0.0000 96.4889
#
#
#
# Elastic Compliance Matrix: (Units=1/GPa)
#
#
# Indices 1 2 3 4 5 6 
#
# 1 0.010441 -0.003402 -0.005213 0.000000 0.000000 0.000000
# 2 -0.003402 0.014340 -0.000333 0.000000 0.000000 0.000000
# 3 -0.005213 -0.000333 0.010570 0.000000 0.000000 0.000000
# 4 0.000000 0.000000 0.000000 0.337637 0.000000 0.000000
# 5 0.000000 0.000000 0.000000 0.000000 0.054604 0.000000
# 6 0.000000 0.000000 0.000000 0.000000 0.000000 0.010364
#
#
# Mechanical properties :
#
#
# Convention : Reuss Voigt Hill
#
# Bulk Modulus (GPa) = 57.29252 67.49507 62.39379
# Shear Modulus (GPa) = 10.83023 38.55619 24.69321
#
# Velocity S-wave (km/s) = 2.37283 4.47708 3.58292
# Velocity P-wave (km/s) = 6.10671 7.86222 7.03940
#
# Compressibility (1/GPa) = 0.01745429
#
# Stress axis : x y z
#
# Youngs Moduli (GPa) = 95.77320 69.73311 94.61181
#
# Poissons Ratio (x) = 0.23727 0.49324
# Poissons Ratio (y) = 0.32587 0.03147
# Poissons Ratio (z) = 0.49930 0.02320
#
# Static dielectric constant tensor:
#      x y z
#    x 1.709710 0.000000 0.000000 
#    y 0.000000 1.720120 0.000000 
#    z 0.000000 0.000000 1.681890 
# 
# From -- ./inp_files/33000.got.cif
#   From: 2010.05.17/outbox.cif.g08.bks.cpg/sg64_17_cif.got.tgz:33000.got - 2010.06.03 16:29:19.
