data_PCOD9476941
_publ_section_title
;
Structure prediction by ZEFSAII (Michael W. Deem and Ramdas Pophale) SiO2 
 PCOD9476941
Probable space group: C M C A
;
_chemical_formula_sum "Si O2"
_cell_formula_units_Z 104
_cell_length_a 9.135458
_cell_length_b 24.945409
_cell_length_c 23.049855
_cell_angle_alpha 90.000000
_cell_angle_beta 90.000000
_cell_angle_gamma 90.000000
_cell_volume 5252.779276
_symmetry_space_group_name_H-M "C M C A"
_symmetry_group_IT_number 64
_symmetry_cell_setting 'orthorhombic'
loop_
_space_group_symop_operation_xyz
x,y,z
-x,1/2-y,1/2+z
x,-y,-z
-x,1/2+y,1/2-z
-x,-y,-z
x,1/2+y,1/2-z
-x,y,z
x,1/2-y,1/2+z
1/2+x,1/2+y,z
1/2-x,-y,1/2+z
1/2+x,1/2-y,-z
1/2-x,y,1/2-z
1/2-x,1/2-y,-z
1/2+x,y,1/2-z
1/2-x,1/2+y,z
1/2+x,-y,1/2+z
loop_
_atom_site_type_symbol
_atom_site_label
_atom_site_fract_x
_atom_site_fract_y
_atom_site_fract_z
Si Si1 0.672855 0.123854 0.483085
Si Si2 0.173060 0.886529 0.637977
Si Si3 0.172383 0.418706 0.393250
Si Si4 0.750000 0.250000 0.500000
Si Si5 0.328486 0.237679 0.137684
Si Si6 0.326758 0.336930 0.309592
Si Si7 0.672991 0.485422 0.807725
O O1 0.500000 0.122052 0.468330
O O2 0.766994 0.107876 0.427517
O O3 0.699845 0.085898 0.538355
O O4 0.710878 0.184975 0.500941
O O5 0.197172 0.824247 0.653758
O O6 0.258354 0.928023 0.677857
O O7 0.000000 0.897041 0.640132
O O8 0.270723 0.375607 0.360284
O O9 0.198130 0.475449 0.362437
O O10 0.000000 0.405062 0.384583
O O11 0.706200 0.255380 0.569359
O O12 0.500000 0.250393 0.146980
O O13 0.227882 0.277723 0.173536
O O14 0.500000 0.338897 0.303921
O O15 0.250000 0.353389 0.250000
O O16 0.500000 0.481531 0.798063
O O17 0.750000 0.507545 0.750000
#
# Coordination Sequence:
#
# PCOD9476941 Si02
#       7
#    16  16  16   8  16  16  16
#     4  10  20  37  62  91 129 168 206 254 309 375
#     4  10  23  41  62  91 126 163 208 259 311 369
#     4  10  22  42  65  92 124 164 208 256 312 373
#     4  10  18  32  62  92 124 166 204 248 300 364
#     4  10  21  39  61  88 124 163 205 254 306 369
#     4  12  25  39  60  89 124 164 207 257 314 373
#     4  11  24  43  68  90 118 161 211 261 317 377
#
# _framework density 19.799042
#
# number of rings (size 3 to 8) (size 9 to 14) (size 15 to 20)
#    0.000    1.538    1.538    3.231    0.000    8.615 
#    0.000    3.077    0.000    0.000    0.000    0.000 
#    0.000    0.000    0.000    0.000    0.000    0.000 
#
# Total GULP energy -289592.744644 kJ/mol
# GULP energy per Si atom -5569.091243 kJ/mol
# Density = 1.975398 g / cm^3
# Si number density = 19.799042 Si / 1000 Ang^3
#
#
#
# Elastic Constant Matrix: (Units=GPa)
#
#
# Indices 1 2 3 4 5 6 
#
# 1 68.0800 40.3556 18.2070 0.0000 0.0000 0.0000
# 2 40.3556 58.0969 13.5805 0.0000 0.0000 0.0000
# 3 18.2070 13.5805 28.9979 0.0000 0.0000 0.0000
# 4 0.0000 0.0000 0.0000 12.9145 0.0000 0.0000
# 5 0.0000 0.0000 0.0000 0.0000 26.1367 0.0000
# 6 0.0000 0.0000 0.0000 0.0000 0.0000 16.9350
#
#
#
# Elastic Compliance Matrix: (Units=1/GPa)
#
#
# Indices 1 2 3 4 5 6 
#
# 1 0.026978 -0.016597 -0.009166 0.000000 0.000000 0.000000
# 2 -0.016597 0.029539 -0.003413 0.000000 0.000000 0.000000
# 3 -0.009166 -0.003413 0.041839 0.000000 0.000000 0.000000
# 4 0.000000 0.000000 0.000000 0.077432 0.000000 0.000000
# 5 0.000000 0.000000 0.000000 0.000000 0.038260 0.000000
# 6 0.000000 0.000000 0.000000 0.000000 0.000000 0.059049
#
#
# Mechanical properties :
#
#
# Convention : Reuss Voigt Hill
#
# Bulk Modulus (GPa) = 24.99769 33.27345 29.13557
# Shear Modulus (GPa) = 14.50178 16.73268 15.61723
#
# Velocity S-wave (km/s) = 2.70931 2.91026 2.81158
# Velocity P-wave (km/s) = 4.73712 5.30423 5.02868
#
# Compressibility (1/GPa) = 0.04000370
#
# Stress axis : x y z
#
# Youngs Moduli (GPa) = 37.06704 33.85322 23.90130
#
# Poissons Ratio (x) = 0.56187 0.21908
# Poissons Ratio (y) = 0.61521 0.08158
# Poissons Ratio (z) = 0.33975 0.11555
#
# Static dielectric constant tensor:
#      x y z
#    x 1.673370 0.000000 0.000000 
#    y 0.000000 1.697500 0.000000 
#    z 0.000000 0.000000 1.689600 
# 
# From -- ./inp_files/37201.got.cif
#   From: 2010.05.17/outbox.cif.g08.bks.cpg/sg64_19_cif.got.tgz:37201.got - 2010.06.03 16:29:19.
