data_PCOD9476799
_publ_section_title
;
Structure prediction by ZEFSAII (Michael W. Deem and Ramdas Pophale) SiO2 
 PCOD9476799
Probable space group: C M C A
;
_chemical_formula_sum "Si O2"
_cell_formula_units_Z 104
_cell_length_a 17.710539
_cell_length_b 11.546352
_cell_length_c 20.615889
_cell_angle_alpha 90.000000
_cell_angle_beta 90.000000
_cell_angle_gamma 90.000000
_cell_volume 4215.786794
_symmetry_space_group_name_H-M "C M C A"
_symmetry_group_IT_number 64
_symmetry_cell_setting 'orthorhombic'
loop_
_space_group_symop_operation_xyz
x,y,z
-x,1/2-y,1/2+z
x,-y,-z
-x,1/2+y,1/2-z
-x,-y,-z
x,1/2+y,1/2-z
-x,y,z
x,1/2-y,1/2+z
1/2+x,1/2+y,z
1/2-x,-y,1/2+z
1/2+x,1/2-y,-z
1/2-x,y,1/2-z
1/2-x,1/2-y,-z
1/2+x,y,1/2-z
1/2-x,1/2+y,z
1/2+x,-y,1/2+z
loop_
_atom_site_type_symbol
_atom_site_label
_atom_site_fract_x
_atom_site_fract_y
_atom_site_fract_z
Si Si1 0.500000 0.591928 0.407562
Si Si2 0.232175 0.374633 0.320261
Si Si3 0.413551 0.726004 0.310111
Si Si4 0.500000 0.169542 0.871069
Si Si5 0.148653 0.150688 0.039112
Si Si6 0.796641 0.908211 0.457129
Si Si7 0.500000 0.697254 0.000811
Si Si8 0.362932 0.802180 0.676698
O O1 0.425588 0.635615 0.368204
O O2 0.500000 0.454772 0.404277
O O3 0.500000 0.679034 0.467031
O O4 0.250000 0.431326 0.250000
O O5 0.146355 0.327789 0.323526
O O6 0.264538 0.434986 0.385399
O O7 0.281334 0.255690 0.319410
O O8 0.500000 0.770825 0.302000
O O9 0.387359 0.654051 0.246894
O O10 0.500000 0.272530 0.923396
O O11 0.576108 0.197016 0.831846
O O12 0.157157 0.289865 0.046469
O O13 0.137167 0.114472 0.114110
O O14 0.077967 0.130272 0.991753
O O15 0.224856 0.114745 0.004106
O O16 0.842717 0.000000 0.500000
#
# Coordination Sequence:
#
# PCOD9476799 Si02
#       8
#     8  16  16   8  16  16   8  16
#     4  10  20  29  49  81 108 138 175 240 284 326
#     4   9  18  34  57  81 109 147 191 227 277 340
#     4   9  18  33  56  77 104 145 183 228 281 343
#     4  10  18  31  49  75 108 140 179 226 286 336
#     4   9  20  35  58  80 108 151 183 233 288 333
#     4  10  20  37  58  83 116 148 188 238 289 339
#     4  10  19  32  51  74 106 140 186 222 278 344
#     4   9  17  34  54  74 103 148 184 222 276 346
#
# _framework density 24.669180000000001
#
# number of rings (size 3 to 8) (size 9 to 14) (size 15 to 20)
#    0.462    2.154    0.769    1.154    0.000    3.692 
#    0.000    3.462    0.000   12.923    0.000    0.000 
#    0.000    0.000    0.000    0.000    0.000    0.000 
#
# Total GULP energy -289903.420598 kJ/mol
# GULP energy per Si atom -5575.065781 kJ/mol
# Density = 2.461303 g / cm^3
# Si number density = 24.669180 Si / 1000 Ang^3
#
#
#
# Elastic Constant Matrix: (Units=GPa)
#
#
# Indices 1 2 3 4 5 6 
#
# 1 121.8380 1.6495 0.4929 0.0000 0.0000 0.0000
# 2 1.6495 60.0239 3.6726 0.0000 0.0000 0.0000
# 3 0.4929 3.6726 137.3276 0.0000 0.0000 0.0000
# 4 0.0000 0.0000 0.0000 7.2864 0.0000 0.0000
# 5 0.0000 0.0000 0.0000 0.0000 35.4089 0.0000
# 6 0.0000 0.0000 0.0000 0.0000 0.0000 10.6681
#
#
#
# Elastic Compliance Matrix: (Units=1/GPa)
#
#
# Indices 1 2 3 4 5 6 
#
# 1 0.008211 -0.000224 -0.000023 0.000000 0.000000 0.000000
# 2 -0.000224 0.016693 -0.000446 0.000000 0.000000 0.000000
# 3 -0.000023 -0.000446 0.007294 0.000000 0.000000 0.000000
# 4 0.000000 0.000000 0.000000 0.137243 0.000000 0.000000
# 5 0.000000 0.000000 0.000000 0.000000 0.028242 0.000000
# 6 0.000000 0.000000 0.000000 0.000000 0.000000 0.093737
#
#
# Mechanical properties :
#
#
# Convention : Reuss Voigt Hill
#
# Bulk Modulus (GPa) = 32.45547 36.75773 34.60660
# Shear Modulus (GPa) = 16.49748 31.56430 24.03089
#
# Velocity S-wave (km/s) = 2.58882 3.58090 3.12449
# Velocity P-wave (km/s) = 4.70328 5.65948 5.20339
#
# Compressibility (1/GPa) = 0.03081144
#
# Stress axis : x y z
#
# Youngs Moduli (GPa) = 121.79158 59.90370 137.10161
#
# Poissons Ratio (x) = 0.01343 0.00322
# Poissons Ratio (y) = 0.02731 0.06110
# Poissons Ratio (z) = 0.00286 0.02670
#
# Static dielectric constant tensor:
#      x y z
#    x 2.026650 0.000000 0.000000 
#    y 0.000000 1.986410 0.000000 
#    z 0.000000 0.000000 2.058780 
# 
# From -- ./inp_files/41021.got.cif
#   From: 2010.05.17/outbox.cif.g08.bks.cpg/sg64_21_cif.got.tgz:41021.got - 2010.06.03 16:29:19.
