data_PCOD9476960
_publ_section_title
;
Structure prediction by ZEFSAII (Michael W. Deem and Ramdas Pophale) SiO2 
 PCOD9476960
Probable space group: C M C A
;
_chemical_formula_sum "Si O2"
_cell_formula_units_Z 112
_cell_length_a 20.309993
_cell_length_b 17.532263
_cell_length_c 17.204328
_cell_angle_alpha 90.000000
_cell_angle_beta 90.000000
_cell_angle_gamma 90.000000
_cell_volume 6126.119502
_symmetry_space_group_name_H-M "C M C A"
_symmetry_group_IT_number 64
_symmetry_cell_setting 'orthorhombic'
loop_
_space_group_symop_operation_xyz
x,y,z
-x,1/2-y,1/2+z
x,-y,-z
-x,1/2+y,1/2-z
-x,-y,-z
x,1/2+y,1/2-z
-x,y,z
x,1/2-y,1/2+z
1/2+x,1/2+y,z
1/2-x,-y,1/2+z
1/2+x,1/2-y,-z
1/2-x,y,1/2-z
1/2-x,1/2-y,-z
1/2+x,y,1/2-z
1/2-x,1/2+y,z
1/2+x,-y,1/2+z
loop_
_atom_site_type_symbol
_atom_site_label
_atom_site_fract_x
_atom_site_fract_y
_atom_site_fract_z
Si Si1 0.181313 0.941724 0.794437
Si Si2 0.923725 0.567661 0.679588
Si Si3 0.624227 0.196009 0.217581
Si Si4 0.755798 0.683642 0.111561
Si Si5 0.833509 0.695690 0.967337
Si Si6 0.077072 0.827278 0.330083
Si Si7 0.072818 0.283367 0.423571
O O1 0.250000 0.964514 0.750000
O O2 0.131214 0.892171 0.740500
O O3 0.206748 0.880535 0.857624
O O4 0.136002 0.008630 0.827188
O O5 0.918052 0.608134 0.763930
O O6 0.915512 0.635594 0.617121
O O7 0.000000 0.539022 0.672160
O O8 0.696552 0.209526 0.181332
O O9 0.605448 0.250199 0.289446
O O10 0.577825 0.221662 0.146676
O O11 0.720778 0.759317 0.081407
O O12 0.798838 0.652401 0.038836
O O13 0.881030 0.654178 0.906738
O O14 0.875881 0.760249 0.011487
O O15 0.000000 0.816091 0.347734
O O16 0.000000 0.282405 0.457000
#
# Coordination Sequence:
#
# PCOD9476960 Si02
#       7
#    16  16  16  16  16  16  16
#     4  10  19  36  54  79 108 144 186 230 268 336
#     4   9  20  37  54  79 114 144 183 234 283 332
#     4   9  17  32  56  75 105 135 180 232 273 317
#     4   9  19  33  52  76 110 140 179 222 270 329
#     4  10  18  33  55  81 107 142 177 226 278 323
#     4  10  19  33  56  86 109 137 186 233 277 333
#     4   9  18  34  53  79 108 140 180 224 278 339
#
# _framework density 18.282371999999999
#
# number of rings (size 3 to 8) (size 9 to 14) (size 15 to 20)
#    0.000    2.571    1.429    1.714    0.000    1.143 
#   10.286    0.714    3.143    4.286    0.000   19.000 
#    0.000    0.000    0.000    0.000    0.000    0.000 
#
# Total GULP energy -311747.233780 kJ/mol
# GULP energy per Si atom -5566.914889 kJ/mol
# Density = 1.824076 g / cm^3
# Si number density = 18.282372 Si / 1000 Ang^3
#
#
#
# Elastic Constant Matrix: (Units=GPa)
#
#
# Indices 1 2 3 4 5 6 
#
# 1 72.1893 31.8357 5.9644 0.0000 0.0000 0.0000
# 2 31.8357 34.7194 -9.8014 0.0000 0.0000 0.0000
# 3 5.9644 -9.8014 28.6603 0.0000 0.0000 0.0000
# 4 0.0000 0.0000 0.0000 4.7328 0.0000 0.0000
# 5 0.0000 0.0000 0.0000 0.0000 33.8194 0.0000
# 6 0.0000 0.0000 0.0000 0.0000 0.0000 34.5505
#
#
#
# Elastic Compliance Matrix: (Units=1/GPa)
#
#
# Indices 1 2 3 4 5 6 
#
# 1 0.029100 -0.031427 -0.016804 0.000000 0.000000 0.000000
# 2 -0.031427 0.065820 0.029050 0.000000 0.000000 0.000000
# 3 -0.016804 0.029050 0.048323 0.000000 0.000000 0.000000
# 4 0.000000 0.000000 0.000000 0.211290 0.000000 0.000000
# 5 0.000000 0.000000 0.000000 0.000000 0.029569 0.000000
# 6 0.000000 0.000000 0.000000 0.000000 0.000000 0.028943
#
#
# Mechanical properties :
#
#
# Convention : Reuss Voigt Hill
#
# Bulk Modulus (GPa) = 9.53453 21.28516 15.40985
# Shear Modulus (GPa) = 10.28028 21.79189 16.03609
#
# Velocity S-wave (km/s) = 2.37387 3.45623 2.96486
# Velocity P-wave (km/s) = 3.56934 5.25310 4.49084
#
# Compressibility (1/GPa) = 0.10488190
#
# Stress axis : x y z
#
# Youngs Moduli (GPa) = 34.36387 15.19289 20.69401
#
# Poissons Ratio (x) = 0.47747 0.34774
# Poissons Ratio (y) = 1.07996 -0.60116
# Poissons Ratio (z) = 0.57744 -0.44135
#
# Static dielectric constant tensor:
#      x y z
#    x 1.663970 0.000000 0.000000 
#    y 0.000000 1.616040 0.000000 
#    z 0.000000 0.000000 1.653330 
# 
# From -- ./inp_files/34466.got.cif
#   From: 2010.05.17/outbox.cif.g08.bks.cpg/sg64_18_cif.got.tgz:34466.got - 2010.06.03 16:29:19.
