data_PCOD9476007
_publ_section_title
;
Structure prediction by ZEFSAII (Michael W. Deem and Ramdas Pophale) SiO2 
 PCOD9476007
Probable space group: C M C M
;
_chemical_formula_sum "Si O2"
_cell_formula_units_Z 80
_cell_length_a 20.072991
_cell_length_b 26.917471
_cell_length_c 7.640303
_cell_angle_alpha 90.000000
_cell_angle_beta 90.000000
_cell_angle_gamma 90.000000
_cell_volume 4128.163845
_symmetry_space_group_name_H-M "C M C M"
_symmetry_group_IT_number 63
_symmetry_cell_setting 'orthorhombic'
loop_
_space_group_symop_operation_xyz
x,y,z
-x,-y,1/2+z
x,-y,-z
-x,y,1/2-z
-x,-y,-z
x,y,1/2-z
-x,y,z
x,-y,1/2+z
1/2+x,1/2+y,z
1/2-x,1/2-y,1/2+z
1/2+x,1/2-y,-z
1/2-x,1/2+y,1/2-z
1/2-x,1/2-y,-z
1/2+x,1/2+y,1/2-z
1/2-x,1/2+y,z
1/2+x,1/2-y,1/2+z
loop_
_atom_site_type_symbol
_atom_site_label
_atom_site_fract_x
_atom_site_fract_y
_atom_site_fract_z
Si Si1 0.424044 0.055809 0.539916
Si Si2 0.924299 0.056391 0.960606
Si Si3 0.329414 0.144365 0.965157
Si Si4 0.328730 0.252802 0.542338
Si Si5 0.677006 0.361734 0.044520
O O1 0.426648 0.060354 0.750000
O O2 0.500000 0.060439 0.472887
O O3 0.375753 0.099282 0.476065
O O4 0.400306 0.000000 0.500000
O O5 0.927053 0.061511 0.750000
O O6 0.872706 0.097158 0.029991
O O7 0.000000 0.062996 0.027205
O O8 0.903364 0.000000 0.000000
O O9 0.328488 0.144839 0.750000
O O10 0.354972 0.199196 0.019674
O O11 0.252769 0.137863 0.025856
O O12 0.337419 0.255042 0.750000
O O13 0.250000 0.250000 0.500000
O O14 0.351548 0.305823 0.470771
O O15 0.684103 0.372600 0.250000
#
# Coordination Sequence:
#
# PCOD9476007 Si02
#       5
#    16  16  16  16  16
#     4   9  17  30  46  62  84 114 144 175 214 258
#     4   9  18  32  48  65  88 119 151 184 227 275
#     4   8  15  28  45  64  86 113 143 175 213 257
#     4   9  16  28  46  67  91 118 148 181 221 267
#     4   9  17  30  47  66  90 118 148 184 224 266
#
# _framework density 19.379075
#
# number of rings (size 3 to 8) (size 9 to 14) (size 15 to 20)
#    0.000    3.200    0.000    1.800    0.000    1.600 
#    0.000    6.000    0.000    1.200    0.000    0.000 
#    0.000    0.000    0.000    0.000    0.000    0.000 
#
# Total GULP energy -222774.050157 kJ/mol
# GULP energy per Si atom -5569.351254 kJ/mol
# Density = 1.933497 g / cm^3
# Si number density = 19.379075 Si / 1000 Ang^3
#
#
#
# Elastic Constant Matrix: (Units=GPa)
#
#
# Indices 1 2 3 4 5 6 
#
# 1 69.2799 96.5456 2.8808 0.0000 0.0000 0.0000
# 2 96.5456 202.2794 -9.8416 0.0000 0.0000 0.0000
# 3 2.8808 -9.8416 31.9537 0.0000 0.0000 0.0000
# 4 0.0000 0.0000 0.0000 23.6393 0.0000 0.0000
# 5 0.0000 0.0000 0.0000 0.0000 1.8173 0.0000
# 6 0.0000 0.0000 0.0000 0.0000 0.0000 -26.2314
#
#
#
# Elastic Compliance Matrix: (Units=1/GPa)
#
#
# Indices 1 2 3 4 5 6 
#
# 1 0.046783 -0.022877 -0.011264 0.000000 0.000000 0.000000
# 2 -0.022877 0.016206 0.007054 0.000000 0.000000 0.000000
# 3 -0.011264 0.007054 0.034483 0.000000 0.000000 0.000000
# 4 0.000000 0.000000 0.000000 0.042303 0.000000 0.000000
# 5 0.000000 0.000000 0.000000 0.000000 0.550281 0.000000
# 6 0.000000 0.000000 0.000000 0.000000 0.000000 -0.038122
#
#
# Mechanical properties :
#
#
# Convention : Reuss Voigt Hill
#
# Bulk Modulus (GPa) = 23.09568 53.63139 38.36353
# Shear Modulus (GPa) = 6.93924 14.10690 10.52307
#
# Velocity S-wave (km/s) = 1.89435 2.70097 2.33279
# Velocity P-wave (km/s) = 4.09004 6.12062 5.20531
#
# Compressibility (1/GPa) = 0.04329815
#
# Stress axis : x y z
#
# Youngs Moduli (GPa) = 21.37524 61.70631 28.99960
#
# Poissons Ratio (x) = 1.41166 0.32664
# Poissons Ratio (y) = 0.48900 -0.20456
# Poissons Ratio (z) = 0.24076 -0.43526
#
# Static dielectric constant tensor:
#      x y z
#    x 1.668820 0.000000 0.000000 
#    y 0.000000 1.692720 0.000000 
#    z 0.000000 0.000000 1.639720 
# 
# From -- ./inp_files/6421.got.cif
#   From: 2010.05.17/outbox.cif.g08.bks.cpg/sg63_4_cif.got.tgz:6421.got - 2010.06.03 15:47:04.
