data_PCOD9476824
_publ_section_title
;
Structure prediction by ZEFSAII (Michael W. Deem and Ramdas Pophale) SiO2 
 PCOD9476824
Probable space group: C M C A
;
_chemical_formula_sum "Si O2"
_cell_formula_units_Z 128
_cell_length_a 23.963409
_cell_length_b 23.726655
_cell_length_c 12.676402
_cell_angle_alpha 90.000000
_cell_angle_beta 90.000000
_cell_angle_gamma 90.000000
_cell_volume 7207.441381
_symmetry_space_group_name_H-M "C M C A"
_symmetry_group_IT_number 64
_symmetry_cell_setting 'orthorhombic'
loop_
_space_group_symop_operation_xyz
x,y,z
-x,1/2-y,1/2+z
x,-y,-z
-x,1/2+y,1/2-z
-x,-y,-z
x,1/2+y,1/2-z
-x,y,z
x,1/2-y,1/2+z
1/2+x,1/2+y,z
1/2-x,-y,1/2+z
1/2+x,1/2-y,-z
1/2-x,y,1/2-z
1/2-x,1/2-y,-z
1/2+x,y,1/2-z
1/2-x,1/2+y,z
1/2+x,-y,1/2+z
loop_
_atom_site_type_symbol
_atom_site_label
_atom_site_fract_x
_atom_site_fract_y
_atom_site_fract_z
Si Si1 0.607943 0.634663 0.578574
Si Si2 0.937422 0.605797 0.583775
Si Si3 0.665995 0.063808 0.462078
Si Si4 0.644272 0.570509 0.279163
Si Si5 0.933670 0.167479 0.346770
Si Si6 0.709649 0.068083 0.011878
Si Si7 0.935088 0.208832 0.758981
Si Si8 0.562362 0.467798 0.294567
O O1 0.585683 0.658284 0.467731
O O2 0.667761 0.604703 0.559921
O O3 0.603204 0.683314 0.666551
O O4 0.570372 0.583378 0.623648
O O5 0.887373 0.597724 0.503101
O O6 0.933064 0.665187 0.643845
O O7 0.932412 0.559612 0.677975
O O8 0.000000 0.600344 0.537868
O O9 0.668955 0.063992 0.336288
O O10 0.725842 0.083080 0.506315
O O11 0.657452 0.000000 0.500000
O O12 0.600499 0.621484 0.281514
O O13 0.690182 0.580258 0.368707
O O14 0.608959 0.514834 0.308958
O O15 0.921221 0.229409 0.301188
O O16 0.000000 0.158846 0.340614
O O17 0.704069 0.000000 0.000000
O O18 0.000000 0.208705 0.721063
O O19 0.500000 0.491462 0.305727
#
# Coordination Sequence:
#
# PCOD9476824 Si02
#       8
#    16  16  16  16  16  16  16  16
#     4  10  19  36  59  80 114 149 189 239 282 332
#     4   9  19  35  56  81 111 144 180 223 278 339
#     4  11  22  36  55  81 114 149 180 229 283 341
#     4  11  21  35  52  81 116 146 181 234 281 339
#     4  10  21  34  55  85 112 148 189 229 285 339
#     4  10  21  37  56  80 109 145 191 231 281 338
#     4   9  19  37  58  83 114 149 193 234 276 333
#     4  10  18  31  52  82 114 145 177 224 283 339
#
# _framework density 17.759423999999999
#
# number of rings (size 3 to 8) (size 9 to 14) (size 15 to 20)
#    0.000    2.000    2.500    2.625    0.000    2.250 
#    0.000    6.875    0.000    9.750    0.000    0.000 
#    0.000    0.000    0.000    0.000    0.000    0.000 
#
# Total GULP energy -357029.225338 kJ/mol
# GULP energy per Si atom -5578.581646 kJ/mol
# Density = 1.771900 g / cm^3
# Si number density = 17.759424 Si / 1000 Ang^3
#
#
#
# Elastic Constant Matrix: (Units=GPa)
#
#
# Indices 1 2 3 4 5 6 
#
# 1 100.3404 37.8929 32.5651 0.0000 0.0000 0.0000
# 2 37.8929 77.0153 13.0942 0.0000 0.0000 0.0000
# 3 32.5651 13.0942 55.9875 0.0000 0.0000 0.0000
# 4 0.0000 0.0000 0.0000 22.1899 0.0000 0.0000
# 5 0.0000 0.0000 0.0000 0.0000 20.0854 0.0000
# 6 0.0000 0.0000 0.0000 0.0000 0.0000 15.3009
#
#
#
# Elastic Compliance Matrix: (Units=1/GPa)
#
#
# Indices 1 2 3 4 5 6 
#
# 1 0.014492 -0.005933 -0.007042 0.000000 0.000000 0.000000
# 2 -0.005933 0.015951 -0.000280 0.000000 0.000000 0.000000
# 3 -0.007042 -0.000280 0.022022 0.000000 0.000000 0.000000
# 4 0.000000 0.000000 0.000000 0.045065 0.000000 0.000000
# 5 0.000000 0.000000 0.000000 0.000000 0.049787 0.000000
# 6 0.000000 0.000000 0.000000 0.000000 0.000000 0.065356
#
#
# Mechanical properties :
#
#
# Convention : Reuss Voigt Hill
#
# Bulk Modulus (GPa) = 38.52567 44.49417 41.50992
# Shear Modulus (GPa) = 20.17470 21.50131 20.83800
#
# Velocity S-wave (km/s) = 3.37412 3.48328 3.42913
# Velocity P-wave (km/s) = 6.07616 6.42541 6.25322
#
# Compressibility (1/GPa) = 0.02595672
#
# Stress axis : x y z
#
# Youngs Moduli (GPa) = 69.00348 62.69137 45.40847
#
# Poissons Ratio (x) = 0.37195 0.31975
# Poissons Ratio (y) = 0.40940 0.01270
# Poissons Ratio (z) = 0.48590 0.01753
#
# Static dielectric constant tensor:
#      x y z
#    x 1.606540 0.000000 0.000000 
#    y 0.000000 1.596300 0.000000 
#    z 0.000000 0.000000 1.607970 
# 
# From -- ./inp_files/18698.got.cif
#   From: 2010.05.17/outbox.cif.g08.bks.cpg/sg64_10_cif.got.tgz:18698.got - 2010.06.03 16:29:19.
