data_PCOD9476449
_publ_section_title
;
Structure prediction by ZEFSAII (Michael W. Deem and Ramdas Pophale) SiO2 
 PCOD9476449
Probable space group: C M C A
;
_chemical_formula_sum "Si O2"
_cell_formula_units_Z 120
_cell_length_a 21.513955
_cell_length_b 16.899797
_cell_length_c 21.315229
_cell_angle_alpha 90.000000
_cell_angle_beta 90.000000
_cell_angle_gamma 90.000000
_cell_volume 7749.822339
_symmetry_space_group_name_H-M "C M C A"
_symmetry_group_IT_number 64
_symmetry_cell_setting 'orthorhombic'
loop_
_space_group_symop_operation_xyz
x,y,z
-x,1/2-y,1/2+z
x,-y,-z
-x,1/2+y,1/2-z
-x,-y,-z
x,1/2+y,1/2-z
-x,y,z
x,1/2-y,1/2+z
1/2+x,1/2+y,z
1/2-x,-y,1/2+z
1/2+x,1/2-y,-z
1/2-x,y,1/2-z
1/2-x,1/2-y,-z
1/2+x,y,1/2-z
1/2-x,1/2+y,z
1/2+x,-y,1/2+z
loop_
_atom_site_type_symbol
_atom_site_label
_atom_site_fract_x
_atom_site_fract_y
_atom_site_fract_z
Si Si1 0.680483 0.581905 0.105621
Si Si2 0.813285 0.585930 0.833151
Si Si3 0.598266 0.000000 0.500000
Si Si4 0.660254 0.276768 0.552644
Si Si5 0.322303 0.955622 0.933097
Si Si6 0.333155 0.058592 0.689783
Si Si7 0.700976 0.759221 0.091729
Si Si8 0.929428 0.361968 0.405416
O O1 0.638336 0.549229 0.049878
O O2 0.750027 0.563782 0.081197
O O3 0.664112 0.532801 0.167830
O O4 0.675797 0.674955 0.113998
O O5 0.839229 0.517655 0.878758
O O6 0.737831 0.580264 0.828875
O O7 0.838875 0.574378 0.763355
O O8 0.822859 0.670769 0.864569
O O9 0.567327 0.931758 0.457775
O O10 0.646530 0.368872 0.568024
O O11 0.678201 0.273769 0.479233
O O12 0.723569 0.248058 0.588090
O O13 0.605422 0.215489 0.567602
O O14 0.328076 0.000000 0.000000
O O15 0.384317 0.105138 0.649405
O O16 0.000000 0.345159 0.385019
#
# Coordination Sequence:
#
# PCOD9476449 Si02
#       8
#    16  16   8  16  16  16  16  16
#     4   9  17  27  47  75 112 135 159 209 263 316
#     4  10  18  33  50  75 110 135 171 215 263 322
#     4  10  17  30  52  80 106 130 169 210 260 316
#     4  10  19  29  48  82 105 132 173 206 270 318
#     4  10  17  27  49  78 106 138 161 205 271 320
#     4   9  20  34  47  73 104 144 176 208 260 313
#     4  10  17  28  51  79 109 132 160 216 271 317
#     4  11  21  35  53  75 107 141 176 216 256 307
#
# _framework density 15.484226
#
# number of rings (size 3 to 8) (size 9 to 14) (size 15 to 20)
#    0.000    2.133    4.667    0.200    0.000    0.000 
#    2.400    1.333    0.000    2.000    0.000    0.000 
#    0.000    0.000    0.000    0.000    0.000    0.000 
#
# Total GULP energy -334035.957337 kJ/mol
# GULP energy per Si atom -5567.265956 kJ/mol
# Density = 1.544898 g / cm^3
# Si number density = 15.484226 Si / 1000 Ang^3
#
#
#
# Elastic Constant Matrix: (Units=GPa)
#
#
# Indices 1 2 3 4 5 6 
#
# 1 57.5084 36.2246 27.1511 0.0000 0.0000 0.0000
# 2 36.2246 153.7386 71.0558 0.0000 0.0000 0.0000
# 3 27.1511 71.0558 106.4596 0.0000 0.0000 0.0000
# 4 0.0000 0.0000 0.0000 17.0774 0.0000 0.0000
# 5 0.0000 0.0000 0.0000 0.0000 2.9373 0.0000
# 6 0.0000 0.0000 0.0000 0.0000 0.0000 5.8046
#
#
#
# Elastic Compliance Matrix: (Units=1/GPa)
#
#
# Indices 1 2 3 4 5 6 
#
# 1 0.021052 -0.003585 -0.002976 0.000000 0.000000 0.000000
# 2 -0.003585 0.010017 -0.005771 0.000000 0.000000 0.000000
# 3 -0.002976 -0.005771 0.014004 0.000000 0.000000 0.000000
# 4 0.000000 0.000000 0.000000 0.058557 0.000000 0.000000
# 5 0.000000 0.000000 0.000000 0.000000 0.340450 0.000000
# 6 0.000000 0.000000 0.000000 0.000000 0.000000 0.172277
#
#
# Mechanical properties :
#
#
# Convention : Reuss Voigt Hill
#
# Bulk Modulus (GPa) = 49.00013 65.17437 57.08725
# Shear Modulus (GPa) = 7.71814 17.38221 12.55018
#
# Velocity S-wave (km/s) = 2.23503 3.35412 2.85004
# Velocity P-wave (km/s) = 6.19470 7.56190 6.91219
#
# Compressibility (1/GPa) = 0.02040811
#
# Stress axis : x y z
#
# Youngs Moduli (GPa) = 47.50136 99.83436 71.40642
#
# Poissons Ratio (x) = 0.35788 0.21254
# Poissons Ratio (y) = 0.17028 0.41211
# Poissons Ratio (z) = 0.14139 0.57617
#
# Static dielectric constant tensor:
#      x y z
#    x 1.494810 0.000000 0.000000 
#    y 0.000000 1.533110 0.000000 
#    z 0.000000 0.000000 1.507700 
# 
# From -- ./inp_files/41622.got.cif
#   From: 2010.05.17/outbox.cif.g08.bks.cpg/sg64_21_cif.got.tgz:41622.got - 2010.06.03 16:29:19.
