data_PCOD9476542
_publ_section_title
;
Structure prediction by ZEFSAII (Michael W. Deem and Ramdas Pophale) SiO2 
 PCOD9476542
Probable space group: C M C A
;
_chemical_formula_sum "Si O2"
_cell_formula_units_Z 80
_cell_length_a 18.562607
_cell_length_b 14.200799
_cell_length_c 14.734271
_cell_angle_alpha 90.000000
_cell_angle_beta 90.000000
_cell_angle_gamma 90.000000
_cell_volume 3884.010576
_symmetry_space_group_name_H-M "C M C A"
_symmetry_group_IT_number 64
_symmetry_cell_setting 'orthorhombic'
loop_
_space_group_symop_operation_xyz
x,y,z
-x,1/2-y,1/2+z
x,-y,-z
-x,1/2+y,1/2-z
-x,-y,-z
x,1/2+y,1/2-z
-x,y,z
x,1/2-y,1/2+z
1/2+x,1/2+y,z
1/2-x,-y,1/2+z
1/2+x,1/2-y,-z
1/2-x,y,1/2-z
1/2-x,1/2-y,-z
1/2+x,y,1/2-z
1/2-x,1/2+y,z
1/2+x,-y,1/2+z
loop_
_atom_site_type_symbol
_atom_site_label
_atom_site_fract_x
_atom_site_fract_y
_atom_site_fract_z
Si Si1 0.821119 0.082188 0.701207
Si Si2 0.344250 0.216568 0.071169
Si Si3 0.271283 0.095631 0.531593
Si Si4 0.335803 0.374156 0.756123
Si Si5 0.415653 0.238536 0.879689
O O1 0.750000 0.123321 0.750000
O O2 0.788873 0.058397 0.602107
O O3 0.883885 0.155553 0.683512
O O4 0.843469 0.986596 0.750443
O O5 0.321086 0.325785 0.077865
O O6 0.369867 0.173847 0.166118
O O7 0.273838 0.155039 0.042590
O O8 0.396232 0.213742 0.983823
O O9 0.308978 0.000000 0.500000
O O10 0.250000 0.354849 0.750000
O O11 0.371338 0.329165 0.844810
O O12 0.500000 0.251260 0.868681
#
# Coordination Sequence:
#
# PCOD9476542 Si02
#       5
#    16  16  16  16  16
#     4  10  21  36  63  91 118 150 203 262 311 358
#     4  10  21  36  58  88 123 152 197 248 311 360
#     4  10  17  31  57  89 114 144 187 251 307 357
#     4  11  21  39  65  95 118 155 206 265 317 355
#     4  11  25  41  58  87 128 170 207 242 299 379
#
# _framework density 20.597266999999999
#
# number of rings (size 3 to 8) (size 9 to 14) (size 15 to 20)
#    0.000    1.600    2.000    5.400    2.800    1.600 
#    0.000    1.000    0.000    0.600    0.000    0.000 
#    0.000    0.000    0.000    0.000    0.000    0.000 
#
# Total GULP energy -223327.610660 kJ/mol
# GULP energy per Si atom -5583.190267 kJ/mol
# Density = 2.055039 g / cm^3
# Si number density = 20.597267 Si / 1000 Ang^3
#
#
#
# Elastic Constant Matrix: (Units=GPa)
#
#
# Indices 1 2 3 4 5 6 
#
# 1 100.8860 32.1268 19.4299 0.0000 0.0000 0.0000
# 2 32.1268 119.5422 -2.1445 0.0000 0.0000 0.0000
# 3 19.4299 -2.1445 73.8672 0.0000 0.0000 0.0000
# 4 0.0000 0.0000 0.0000 28.9836 0.0000 0.0000
# 5 0.0000 0.0000 0.0000 0.0000 17.4458 0.0000
# 6 0.0000 0.0000 0.0000 0.0000 0.0000 7.4322
#
#
#
# Elastic Compliance Matrix: (Units=1/GPa)
#
#
# Indices 1 2 3 4 5 6 
#
# 1 0.011517 -0.003151 -0.003121 0.000000 0.000000 0.000000
# 2 -0.003151 0.009232 0.001097 0.000000 0.000000 0.000000
# 3 -0.003121 0.001097 0.014391 0.000000 0.000000 0.000000
# 4 0.000000 0.000000 0.000000 0.034502 0.000000 0.000000
# 5 0.000000 0.000000 0.000000 0.000000 0.057320 0.000000
# 6 0.000000 0.000000 0.000000 0.000000 0.000000 0.134549
#
#
# Mechanical properties :
#
#
# Convention : Reuss Voigt Hill
#
# Bulk Modulus (GPa) = 40.34055 43.67999 42.01027
# Shear Modulus (GPa) = 17.84925 27.09787 22.47356
#
# Velocity S-wave (km/s) = 2.94697 3.63106 3.30676
# Velocity P-wave (km/s) = 5.58636 6.23155 5.91775
#
# Compressibility (1/GPa) = 0.02478895
#
# Stress axis : x y z
#
# Youngs Moduli (GPa) = 86.83067 108.32154 69.49007
#
# Poissons Ratio (x) = 0.34133 0.21687
# Poissons Ratio (y) = 0.27361 -0.07622
# Poissons Ratio (z) = 0.27098 -0.11881
#
# Static dielectric constant tensor:
#      x y z
#    x 1.699150 0.000000 0.000000 
#    y 0.000000 1.752450 0.000000 
#    z 0.000000 0.000000 1.835770 
# 
# From -- ./inp_files/26146.got.cif
#   From: 2010.05.17/outbox.cif.g08.bks.cpg/sg64_14_cif.got.tgz:26146.got - 2010.06.03 16:29:19.
