data_PCOD9476331
_publ_section_title
;
Structure prediction by ZEFSAII (Michael W. Deem and Ramdas Pophale) SiO2 
 PCOD9476331
Probable space group: C M C A
;
_chemical_formula_sum "Si O2"
_cell_formula_units_Z 120
_cell_length_a 18.755317
_cell_length_b 13.869411
_cell_length_c 26.394333
_cell_angle_alpha 90.000000
_cell_angle_beta 90.000000
_cell_angle_gamma 90.000000
_cell_volume 6865.831148
_symmetry_space_group_name_H-M "C M C A"
_symmetry_group_IT_number 64
_symmetry_cell_setting 'orthorhombic'
loop_
_space_group_symop_operation_xyz
x,y,z
-x,1/2-y,1/2+z
x,-y,-z
-x,1/2+y,1/2-z
-x,-y,-z
x,1/2+y,1/2-z
-x,y,z
x,1/2-y,1/2+z
1/2+x,1/2+y,z
1/2-x,-y,1/2+z
1/2+x,1/2-y,-z
1/2-x,y,1/2-z
1/2-x,1/2-y,-z
1/2+x,y,1/2-z
1/2-x,1/2+y,z
1/2+x,-y,1/2+z
loop_
_atom_site_type_symbol
_atom_site_label
_atom_site_fract_x
_atom_site_fract_y
_atom_site_fract_z
Si Si1 0.331412 0.785669 0.509263
Si Si2 0.813260 0.694235 0.381580
Si Si3 0.307821 0.007304 0.791265
Si Si4 0.285630 0.024876 0.610453
Si Si5 0.785661 0.000000 0.000000
Si Si6 0.348759 0.264764 0.100082
Si Si7 0.082429 0.662712 0.192007
Si Si8 0.169947 0.279570 0.228502
O O1 0.250000 0.750000 0.500000
O O2 0.349397 0.762564 0.567461
O O3 0.370114 0.749427 0.458716
O O4 0.330025 0.902067 0.506687
O O5 0.823289 0.578472 0.380422
O O6 0.728421 0.714795 0.389171
O O7 0.834489 0.741291 0.328793
O O8 0.250000 0.969994 0.750000
O O9 0.267442 0.035728 0.842874
O O10 0.338802 0.105741 0.769100
O O11 0.367369 0.930474 0.804389
O O12 0.248612 0.015211 0.554650
O O13 0.334208 0.120709 0.608357
O O14 0.402233 0.219204 0.139874
O O15 0.111782 0.729676 0.236827
O O16 0.000000 0.639397 0.197396
O O17 0.250000 0.259946 0.250000
#
# Coordination Sequence:
#
# PCOD9476331 Si02
#       8
#    16  16  16  16   8  16  16  16
#     4   8  16  25  45  76 111 134 160 213 265 312
#     4  10  16  29  52  83 110 131 172 222 273 300
#     4  11  21  35  57  78 102 135 176 224 268 310
#     4  10  16  28  51  81 110 138 165 218 273 310
#     4   8  16  24  40  78 116 130 156 208 268 308
#     4  10  17  32  50  79 112 136 177 215 265 314
#     4  12  25  38  53  76 108 145 178 216 267 329
#     4  11  20  36  57  80 105 137 178 227 269 311
#
# _framework density 17.477855000000002
#
# number of rings (size 3 to 8) (size 9 to 14) (size 15 to 20)
#    0.000    1.867    4.000    2.000    0.000    0.533 
#    0.000    0.000    0.000    0.800    0.000   19.133 
#    0.000    0.000    0.000    0.000    0.000    0.000 
#
# Total GULP energy -334176.476220 kJ/mol
# GULP energy per Si atom -5569.607937 kJ/mol
# Density = 1.743808 g / cm^3
# Si number density = 17.477855 Si / 1000 Ang^3
#
#
#
# Elastic Constant Matrix: (Units=GPa)
#
#
# Indices 1 2 3 4 5 6 
#
# 1 38.7146 17.9212 28.7493 0.0000 0.0000 0.0000
# 2 17.9212 88.9330 19.2427 0.0000 0.0000 0.0000
# 3 28.7493 19.2427 141.0086 0.0000 0.0000 0.0000
# 4 0.0000 0.0000 0.0000 28.0106 0.0000 0.0000
# 5 0.0000 0.0000 0.0000 0.0000 7.8724 0.0000
# 6 0.0000 0.0000 0.0000 0.0000 0.0000 -2.1382
#
#
#
# Elastic Compliance Matrix: (Units=1/GPa)
#
#
# Indices 1 2 3 4 5 6 
#
# 1 0.032698 -0.005303 -0.005943 0.000000 0.000000 0.000000
# 2 -0.005303 0.012447 -0.000617 0.000000 0.000000 0.000000
# 3 -0.005943 -0.000617 0.008388 0.000000 0.000000 0.000000
# 4 0.000000 0.000000 0.000000 0.035701 0.000000 0.000000
# 5 0.000000 0.000000 0.000000 0.000000 0.127027 0.000000
# 6 0.000000 0.000000 0.000000 0.000000 0.000000 -0.467672
#
#
# Mechanical properties :
#
#
# Convention : Reuss Voigt Hill
#
# Bulk Modulus (GPa) = 33.55074 44.49808 39.02441
# Shear Modulus (GPa) = -22.96210 20.26512 -1.34849
#
# Velocity S-wave (km/s) = -3.62855 3.40880 -0.87933
# Velocity P-wave (km/s) = 1.29718 6.40376 4.62011
#
# Compressibility (1/GPa) = 0.02980560
#
# Stress axis : x y z
#
# Youngs Moduli (GPa) = 30.58275 80.34283 119.22264
#
# Poissons Ratio (x) = 0.42608 0.70853
# Poissons Ratio (y) = 0.16219 0.07359
# Poissons Ratio (z) = 0.18175 0.04959
#
# Static dielectric constant tensor:
#      x y z
#    x 1.554580 0.000000 0.000000 
#    y 0.000000 1.628290 0.000000 
#    z 0.000000 0.000000 1.665790 
# 
# From -- ./inp_files/50899.got.cif
#   From: 2010.05.17/outbox.cif.g08.bks.cpg/sg64_26_cif.got.tgz:50899.got - 2010.06.03 16:29:19.
