data_PCOD9476297
_publ_section_title
;
Structure prediction by ZEFSAII (Michael W. Deem and Ramdas Pophale) SiO2 
 PCOD9476297
Probable space group: C M C A
;
_chemical_formula_sum "Si O2"
_cell_formula_units_Z 112
_cell_length_a 16.203458
_cell_length_b 22.949849
_cell_length_c 18.506090
_cell_angle_alpha 90.000000
_cell_angle_beta 90.000000
_cell_angle_gamma 90.000000
_cell_volume 6881.802585
_symmetry_space_group_name_H-M "C M C A"
_symmetry_group_IT_number 64
_symmetry_cell_setting 'orthorhombic'
loop_
_space_group_symop_operation_xyz
x,y,z
-x,1/2-y,1/2+z
x,-y,-z
-x,1/2+y,1/2-z
-x,-y,-z
x,1/2+y,1/2-z
-x,y,z
x,1/2-y,1/2+z
1/2+x,1/2+y,z
1/2-x,-y,1/2+z
1/2+x,1/2-y,-z
1/2-x,y,1/2-z
1/2-x,1/2-y,-z
1/2+x,y,1/2-z
1/2-x,1/2+y,z
1/2+x,-y,1/2+z
loop_
_atom_site_type_symbol
_atom_site_label
_atom_site_fract_x
_atom_site_fract_y
_atom_site_fract_z
Si Si1 0.592774 0.843280 0.631789
Si Si2 0.407470 0.083108 0.932943
Si Si3 0.263307 0.717925 0.397041
Si Si4 0.162429 0.631720 0.216188
Si Si5 0.741078 0.159109 0.949436
Si Si6 0.355569 0.045195 0.091098
Si Si7 0.670387 0.938874 0.531944
O O1 0.500000 0.824083 0.614958
O O2 0.666238 0.798161 0.612587
O O3 0.603873 0.855314 0.716840
O O4 0.614150 0.902237 0.586974
O O5 0.500000 0.100493 0.915494
O O6 0.338775 0.130275 0.913942
O O7 0.384954 0.020648 0.899160
O O8 0.398583 0.070870 0.019293
O O9 0.312666 0.687791 0.332170
O O10 0.285523 0.686619 0.472815
O O11 0.275669 0.786555 0.405099
O O12 0.250000 0.611043 0.250000
O O13 0.129205 0.584315 0.160514
O O14 0.804049 0.107127 0.969134
O O15 0.257731 0.046986 0.071803
O O16 0.638714 0.000000 0.500000
#
# Coordination Sequence:
#
# PCOD9476297 Si02
#       7
#    16  16  16  16  16  16  16
#     4  10  21  32  48  74 100 130 163 206 253 290
#     4  10  18  26  43  75 105 124 151 200 260 296
#     4   9  17  31  49  68  93 125 167 201 234 293
#     4  10  17  31  50  68  92 129 168 206 232 288
#     4   9  16  29  49  71  94 126 159 200 248 289
#     4  10  15  28  46  70  97 131 161 197 240 293
#     4  10  16  31  54  75 100 125 164 209 245 298
#
# _framework density 16.274805000000001
#
# number of rings (size 3 to 8) (size 9 to 14) (size 15 to 20)
#    0.000    2.286    8.571    0.857    0.000    2.000 
#    0.000    0.000    0.000    8.571    0.000    2.000 
#    0.000    0.000    0.000    0.000    0.000    0.000 
#
# Total GULP energy -311879.791742 kJ/mol
# GULP energy per Si atom -5569.281995 kJ/mol
# Density = 1.623776 g / cm^3
# Si number density = 16.274805 Si / 1000 Ang^3
#
#
#
# Elastic Constant Matrix: (Units=GPa)
#
#
# Indices 1 2 3 4 5 6 
#
# 1 49.8539 16.4414 11.1254 0.0000 0.0000 0.0000
# 2 16.4414 113.5413 35.1755 0.0000 0.0000 0.0000
# 3 11.1254 35.1755 52.9143 0.0000 0.0000 0.0000
# 4 0.0000 0.0000 0.0000 18.2388 0.0000 0.0000
# 5 0.0000 0.0000 0.0000 0.0000 9.4991 0.0000
# 6 0.0000 0.0000 0.0000 0.0000 0.0000 7.3431
#
#
#
# Elastic Compliance Matrix: (Units=1/GPa)
#
#
# Indices 1 2 3 4 5 6 
#
# 1 0.021456 -0.002153 -0.003080 0.000000 0.000000 0.000000
# 2 -0.002153 0.011308 -0.007064 0.000000 0.000000 0.000000
# 3 -0.003080 -0.007064 0.024242 0.000000 0.000000 0.000000
# 4 0.000000 0.000000 0.000000 0.054828 0.000000 0.000000
# 5 0.000000 0.000000 0.000000 0.000000 0.105273 0.000000
# 6 0.000000 0.000000 0.000000 0.000000 0.000000 0.136183
#
#
# Mechanical properties :
#
#
# Convention : Reuss Voigt Hill
#
# Bulk Modulus (GPa) = 30.85326 37.97711 34.41519
# Shear Modulus (GPa) = 12.86380 17.25402 15.05891
#
# Velocity S-wave (km/s) = 2.81448 3.25955 3.04516
# Velocity P-wave (km/s) = 5.43696 6.12795 5.79277
#
# Compressibility (1/GPa) = 0.03241148
#
# Stress axis : x y z
#
# Youngs Moduli (GPa) = 46.60718 88.43580 41.25039
#
# Poissons Ratio (x) = 0.19037 0.12706
# Poissons Ratio (y) = 0.10033 0.29141
# Poissons Ratio (z) = 0.14356 0.62474
#
# Static dielectric constant tensor:
#      x y z
#    x 1.547290 0.000000 0.000000 
#    y 0.000000 1.556410 0.000000 
#    z 0.000000 0.000000 1.538380 
# 
# From -- ./inp_files/33730.got.cif
#   From: 2010.05.17/outbox.cif.g08.bks.cpg/sg64_17_cif.got.tgz:33730.got - 2010.06.03 16:29:19.
