data_PCOD9476181
_publ_section_title
;
Structure prediction by ZEFSAII (Michael W. Deem and Ramdas Pophale) SiO2 
 PCOD9476181
Probable space group: C M C M
;
_chemical_formula_sum "Si O2"
_cell_formula_units_Z 56
_cell_length_a 24.000000
_cell_length_b 15.000000
_cell_length_c 15.000000
_cell_angle_alpha 90.000000
_cell_angle_beta 90.000000
_cell_angle_gamma 90.000000
_cell_volume 5400.000000
_symmetry_space_group_name_H-M "C M C M"
_symmetry_group_IT_number 63
_symmetry_cell_setting 'orthorhombic'
loop_
_space_group_symop_operation_xyz
x,y,z
-x,-y,1/2+z
x,-y,-z
-x,y,1/2-z
-x,-y,-z
x,y,1/2-z
-x,y,z
x,-y,1/2+z
1/2+x,1/2+y,z
1/2-x,1/2-y,1/2+z
1/2+x,1/2-y,-z
1/2-x,1/2+y,1/2-z
1/2-x,1/2-y,-z
1/2+x,1/2+y,1/2-z
1/2-x,1/2+y,z
1/2+x,1/2-y,1/2+z
loop_
_atom_site_type_symbol
_atom_site_label
_atom_site_fract_x
_atom_site_fract_y
_atom_site_fract_z
Si Si1 0.435659 0.105629 0.492444
Si Si2 0.162234 0.618162 0.357378
Si Si3 0.855472 0.054143 0.642961
Si Si4 0.066201 0.277513 0.149673
Si Si5 0.222465 0.564211 0.645577
Si Si6 0.771584 0.768583 0.858241
Si Si7 0.628973 0.630157 0.452141
O O1 0.500000 0.136113 0.476793
O O2 0.392809 0.134070 0.415649
O O3 0.415954 0.139261 0.589660
O O4 0.436861 0.000000 0.500000
O O5 0.151516 0.614834 0.250000
O O6 0.188966 0.522493 0.387657
O O7 0.209028 0.694477 0.371673
O O8 0.869237 0.070454 0.750000
O O9 0.788467 0.044738 0.639795
O O10 0.870974 0.120476 0.560016
O O11 0.878692 0.962025 0.602311
O O12 0.090000 0.273970 0.250000
O O13 0.082935 0.195433 0.087894
O O14 0.000000 0.281700 0.158376
O O15 0.207867 0.569401 0.750000
O O16 0.217892 0.666185 0.612593
O O17 0.781080 0.776870 0.750000
O O18 0.813084 0.829084 0.915509
#
# Coordination Sequence:
#
# PCOD9476181 Si02
#       7
#    16  16  16  16  16  16  16
#     4  10  24  43  61  87 125 167 217 272 325 385
#     4  10  21  38  62  94 133 172 214 268 324 395
#     4  10  21  39  59  90 135 170 204 257 327 395
#     4  10  23  45  70  94 122 162 219 280 327 379
#     4   9  19  35  56  87 128 170 210 256 316 385
#     4  10  20  35  58  92 130 166 214 267 318 385
#     4  11  22  37  67  95 121 168 217 267 320 388
#
# _framework density 10.370369999999999
#
# number of rings (size 3 to 8) (size 9 to 14) (size 15 to 20)
#    0.000    2.000    1.429    1.286    4.000    2.571 
#    0.000    2.857    0.000    2.143    0.000    0.000 
#    0.000    0.000    0.000    0.000    0.000    0.000 
#
# Total GULP energy -312571.902688 kJ/mol
# GULP energy per Si atom -5581.641119 kJ/mol
# Density = 1.034677 g / cm^3
# Si number density = 10.370370 Si / 1000 Ang^3
#
#
#
# Elastic Constant Matrix: (Units=GPa)
#
#
# Indices 1 2 3 4 5 6 
#
# 1 68.2678 21.8444 35.3714 0.0000 0.0000 0.0000
# 2 21.8444 104.4661 43.1875 0.0000 0.0000 0.0000
# 3 35.3714 43.1875 153.4811 0.0000 0.0000 0.0000
# 4 0.0000 0.0000 0.0000 16.4866 0.0000 0.0000
# 5 0.0000 0.0000 0.0000 0.0000 32.6519 0.0000
# 6 0.0000 0.0000 0.0000 0.0000 0.0000 41.6484
#
#
#
# Elastic Compliance Matrix: (Units=1/GPa)
#
#
# Indices 1 2 3 4 5 6 
#
# 1 0.017069 -0.002199 -0.003315 0.000000 0.000000 0.000000
# 2 -0.002199 0.011116 -0.002621 0.000000 0.000000 0.000000
# 3 -0.003315 -0.002621 0.008017 0.000000 0.000000 0.000000
# 4 0.000000 0.000000 0.000000 0.060655 0.000000 0.000000
# 5 0.000000 0.000000 0.000000 0.000000 0.030626 0.000000
# 6 0.000000 0.000000 0.000000 0.000000 0.000000 0.024011
#
#
# Mechanical properties :
#
#
# Convention : Reuss Voigt Hill
#
# Bulk Modulus (GPa) = 50.16998 58.55794 54.36396
# Shear Modulus (GPa) = 28.66837 33.21150 30.93993
#
# Velocity S-wave (km/s) = 3.72186 4.00593 3.86650
# Velocity P-wave (km/s) = 6.53539 7.04920 6.79715
#
# Compressibility (1/GPa) = 0.01993224
#
# Stress axis : x y z
#
# Youngs Moduli (GPa) = 58.58427 89.96152 124.73474
#
# Poissons Ratio (x) = 0.19781 0.41351
# Poissons Ratio (y) = 0.12881 0.32694
# Poissons Ratio (z) = 0.19421 0.23580
#
# Static dielectric constant tensor:
#      x y z
#    x 1.755040 0.000000 0.000000 
#    y 0.000000 1.811390 0.000000 
#    z 0.000000 0.000000 1.732050 
# 
# From -- ./inp_files/36857.got.cif
#   From: 2010.05.17/outbox.ucp.g08.bks.cvg/sg63_19_cif.got.tgz:36857.got - 2010.06.11 16:32:19.
