data_PCOD9476686
_publ_section_title
;
Structure prediction by ZEFSAII (Michael W. Deem and Ramdas Pophale) SiO2 
 PCOD9476686
Probable space group: C M C A
;
_chemical_formula_sum "Si O2"
_cell_formula_units_Z 64
_cell_length_a 17.000421
_cell_length_b 22.206225
_cell_length_c 7.051688
_cell_angle_alpha 90.000000
_cell_angle_beta 90.000000
_cell_angle_gamma 90.000000
_cell_volume 2662.119221
_symmetry_space_group_name_H-M "C M C A"
_symmetry_group_IT_number 64
_symmetry_cell_setting 'orthorhombic'
loop_
_space_group_symop_operation_xyz
x,y,z
-x,1/2-y,1/2+z
x,-y,-z
-x,1/2+y,1/2-z
-x,-y,-z
x,1/2+y,1/2-z
-x,y,z
x,1/2-y,1/2+z
1/2+x,1/2+y,z
1/2-x,-y,1/2+z
1/2+x,1/2-y,-z
1/2-x,y,1/2-z
1/2-x,1/2-y,-z
1/2+x,y,1/2-z
1/2-x,1/2+y,z
1/2+x,-y,1/2+z
loop_
_atom_site_type_symbol
_atom_site_label
_atom_site_fract_x
_atom_site_fract_y
_atom_site_fract_z
Si Si1 0.409643 0.703600 0.415483
Si Si2 0.343079 0.954770 0.252419
Si Si3 0.590008 0.166872 0.644873
Si Si4 0.594693 0.922707 0.830419
O O1 0.500000 0.714467 0.350052
O O2 0.413069 0.679859 0.629334
O O3 0.372930 0.770094 0.425087
O O4 0.378558 0.646650 0.294876
O O5 0.250000 0.960147 0.250000
O O6 0.367552 0.896822 0.375760
O O7 0.377958 0.020773 0.294296
O O8 0.373864 0.938778 0.040793
O O9 0.500000 0.159572 0.575348
O O10 0.500000 0.921859 0.835390
#
# Coordination Sequence:
#
# PCOD9476686 Si02
#       4
#    16  16  16  16
#     4   8  15  28  51  74  93 122 170 213 243 287
#     4  10  18  29  47  73  98 123 162 210 250 290
#     4   9  16  30  49  71  96 128 164 205 248 297
#     4   9  17  34  55  72  92 132 177 206 239 302
#
# _framework density 24.040997000000001
#
# number of rings (size 3 to 8) (size 9 to 14) (size 15 to 20)
#    0.000    3.000    0.000    4.500    0.000    0.000 
#    0.000   11.250    0.000    0.000    0.000   33.250 
#    0.000    0.000    0.000    0.000    0.000    0.000 
#
# Total GULP energy -178536.068331 kJ/mol
# GULP energy per Si atom -5579.252135 kJ/mol
# Density = 2.398628 g / cm^3
# Si number density = 24.040997 Si / 1000 Ang^3
#
#
#
# Elastic Constant Matrix: (Units=GPa)
#
#
# Indices 1 2 3 4 5 6 
#
# 1 79.4164 62.9655 6.2805 0.0000 0.0000 0.0000
# 2 62.9655 287.5782 45.0281 0.0000 0.0000 0.0000
# 3 6.2805 45.0281 69.1444 0.0000 0.0000 0.0000
# 4 0.0000 0.0000 0.0000 52.2465 0.0000 0.0000
# 5 0.0000 0.0000 0.0000 0.0000 -18.3524 0.0000
# 6 0.0000 0.0000 0.0000 0.0000 0.0000 27.0188
#
#
#
# Elastic Compliance Matrix: (Units=1/GPa)
#
#
# Indices 1 2 3 4 5 6 
#
# 1 0.015285 -0.003485 0.000881 0.000000 0.000000 0.000000
# 2 -0.003485 0.004667 -0.002722 0.000000 0.000000 0.000000
# 3 0.000881 -0.002722 0.016155 0.000000 0.000000 0.000000
# 4 0.000000 0.000000 0.000000 0.019140 0.000000 0.000000
# 5 0.000000 0.000000 0.000000 0.000000 -0.054489 0.000000
# 6 0.000000 0.000000 0.000000 0.000000 0.000000 0.037011
#
#
# Mechanical properties :
#
#
# Convention : Reuss Voigt Hill
#
# Bulk Modulus (GPa) = 39.28564 73.85411 56.56988
# Shear Modulus (GPa) = 87.86335 33.64025 60.75180
#
# Velocity S-wave (km/s) = 6.05199 3.74476 5.03239
# Velocity P-wave (km/s) = 8.07540 7.03452 7.57286
#
# Compressibility (1/GPa) = 0.02545459
#
# Stress axis : x y z
#
# Youngs Moduli (GPa) = 65.42381 214.29184 61.89894
#
# Poissons Ratio (x) = 0.74672 -0.05452
# Poissons Ratio (y) = 0.22797 0.16851
# Poissons Ratio (z) = -0.05763 0.58339
#
# Static dielectric constant tensor:
#      x y z
#    x 1.809120 0.000000 0.000000 
#    y 0.000000 2.036630 0.000000 
#    z 0.000000 0.000000 1.977690 
# 
# From -- ./inp_files/5558.got.cif
#   From: 2010.05.17/outbox.cif.g08.bks.cpg/sg64_3_cif.got.tgz:5558.got - 2010.06.03 16:29:19.
