data_PCOD9476924
_publ_section_title
;
Structure prediction by ZEFSAII (Michael W. Deem and Ramdas Pophale) SiO2 
 PCOD9476924
Probable space group: C M C A
;
_chemical_formula_sum "Si O2"
_cell_formula_units_Z 104
_cell_length_a 18.904271
_cell_length_b 24.902017
_cell_length_c 12.188251
_cell_angle_alpha 90.000000
_cell_angle_beta 90.000000
_cell_angle_gamma 90.000000
_cell_volume 5737.673735
_symmetry_space_group_name_H-M "C M C A"
_symmetry_group_IT_number 64
_symmetry_cell_setting 'orthorhombic'
loop_
_space_group_symop_operation_xyz
x,y,z
-x,1/2-y,1/2+z
x,-y,-z
-x,1/2+y,1/2-z
-x,-y,-z
x,1/2+y,1/2-z
-x,y,z
x,1/2-y,1/2+z
1/2+x,1/2+y,z
1/2-x,-y,1/2+z
1/2+x,1/2-y,-z
1/2-x,y,1/2-z
1/2-x,1/2-y,-z
1/2+x,y,1/2-z
1/2-x,1/2+y,z
1/2+x,-y,1/2+z
loop_
_atom_site_type_symbol
_atom_site_label
_atom_site_fract_x
_atom_site_fract_y
_atom_site_fract_z
Si Si1 0.818309 0.061647 0.175919
Si Si2 0.669060 0.718099 0.207217
Si Si3 0.664469 0.339265 0.241596
Si Si4 0.917019 0.120956 0.319415
Si Si5 0.252872 0.000000 0.000000
Si Si6 0.161882 0.609709 0.959917
Si Si7 0.688844 0.155375 0.497471
O O1 0.750000 0.076286 0.250000
O O2 0.883766 0.068945 0.257093
O O3 0.828468 0.105159 0.080239
O O4 0.795528 0.009305 0.107920
O O5 0.750000 0.712959 0.250000
O O6 0.644220 0.778104 0.231622
O O7 0.622619 0.672749 0.267508
O O8 0.670121 0.706243 0.077060
O O9 0.750000 0.343241 0.250000
O O10 0.636874 0.378791 0.336207
O O11 0.650305 0.349266 0.113636
O O12 0.896032 0.117233 0.446645
O O13 0.000000 0.124505 0.302814
O O14 0.301532 0.051687 0.976987
O O15 0.226588 0.651373 0.983484
#
# Coordination Sequence:
#
# PCOD9476924 Si02
#       7
#    16  16  16  16   8  16  16
#     4  10  18  36  60  86 112 146 192 243 285 343
#     4  10  18  32  58  80 114 152 194 245 291 345
#     4   9  20  28  52  88 116 144 187 251 299 341
#     4  11  21  37  59  83 118 157 193 230 284 358
#     4  10  20  32  64  86 108 146 192 254 296 346
#     4  10  19  36  52  86 116 146 189 241 295 342
#     4   9  16  31  51  83 112 139 184 248 292 336
#
# _framework density 18.125813000000001
#
# number of rings (size 3 to 8) (size 9 to 14) (size 15 to 20)
#    0.000    2.154    4.615    0.923    2.154    4.923 
#    0.000    1.538    0.000    3.692    0.000    0.000 
#    0.000    0.000    0.000    0.000    0.000    0.000 
#
# Total GULP energy -289668.280262 kJ/mol
# GULP energy per Si atom -5570.543851 kJ/mol
# Density = 1.808456 g / cm^3
# Si number density = 18.125813 Si / 1000 Ang^3
#
#
#
# Elastic Constant Matrix: (Units=GPa)
#
#
# Indices 1 2 3 4 5 6 
#
# 1 74.0581 22.6594 29.2739 0.0000 0.0000 0.0000
# 2 22.6594 56.6903 38.9973 0.0000 0.0000 0.0000
# 3 29.2739 38.9973 164.7993 0.0000 0.0000 0.0000
# 4 0.0000 0.0000 0.0000 24.0387 0.0000 0.0000
# 5 0.0000 0.0000 0.0000 0.0000 14.8709 0.0000
# 6 0.0000 0.0000 0.0000 0.0000 0.0000 4.0270
#
#
#
# Elastic Compliance Matrix: (Units=1/GPa)
#
#
# Indices 1 2 3 4 5 6 
#
# 1 0.015713 -0.005208 -0.001559 0.000000 0.000000 0.000000
# 2 -0.005208 0.022796 -0.004469 0.000000 0.000000 0.000000
# 3 -0.001559 -0.004469 0.007402 0.000000 0.000000 0.000000
# 4 0.000000 0.000000 0.000000 0.041600 0.000000 0.000000
# 5 0.000000 0.000000 0.000000 0.000000 0.067245 0.000000
# 6 0.000000 0.000000 0.000000 0.000000 0.000000 0.248322
#
#
# Mechanical properties :
#
#
# Convention : Reuss Voigt Hill
#
# Bulk Modulus (GPa) = 42.66428 53.04543 47.85486
# Shear Modulus (GPa) = 11.53767 22.22846 16.88307
#
# Velocity S-wave (km/s) = 2.52570 3.50572 3.05526
# Velocity P-wave (km/s) = 5.66520 6.76132 6.23738
#
# Compressibility (1/GPa) = 0.02343881
#
# Stress axis : x y z
#
# Youngs Moduli (GPa) = 63.64337 43.86777 135.09117
#
# Poissons Ratio (x) = 0.22847 0.21056
# Poissons Ratio (y) = 0.33147 0.60374
# Poissons Ratio (z) = 0.09920 0.19605
#
# Static dielectric constant tensor:
#      x y z
#    x 1.582710 0.000000 0.000000 
#    y 0.000000 1.671120 0.000000 
#    z 0.000000 0.000000 1.683420 
# 
# From -- ./inp_files/16442.got.cif
#   From: 2010.05.17/outbox.cif.g08.bks.cpg/sg64_9_cif.got.tgz:16442.got - 2010.06.03 16:29:19.
