data_PCOD9476148
_publ_section_title
;
Structure prediction by ZEFSAII (Michael W. Deem and Ramdas Pophale) SiO2 
 PCOD9476148
Probable space group: C M C M
;
_chemical_formula_sum "Si O2"
_cell_formula_units_Z 48
_cell_length_a 12.000000
_cell_length_b 24.000000
_cell_length_c 18.000000
_cell_angle_alpha 90.000000
_cell_angle_beta 90.000000
_cell_angle_gamma 90.000000
_cell_volume 5184.000000
_symmetry_space_group_name_H-M "C M C M"
_symmetry_group_IT_number 63
_symmetry_cell_setting 'orthorhombic'
loop_
_space_group_symop_operation_xyz
x,y,z
-x,-y,1/2+z
x,-y,-z
-x,y,1/2-z
-x,-y,-z
x,y,1/2-z
-x,y,z
x,-y,1/2+z
1/2+x,1/2+y,z
1/2-x,1/2-y,1/2+z
1/2+x,1/2-y,-z
1/2-x,1/2+y,1/2-z
1/2-x,1/2-y,-z
1/2+x,1/2+y,1/2-z
1/2-x,1/2+y,z
1/2+x,1/2-y,1/2+z
loop_
_atom_site_type_symbol
_atom_site_label
_atom_site_fract_x
_atom_site_fract_y
_atom_site_fract_z
Si Si1 0.866593 0.272375 0.833829
Si Si2 0.374342 0.442571 0.663711
Si Si3 0.281486 0.868027 0.563641
Si Si4 0.626434 0.050376 0.549575
Si Si5 0.372861 0.326766 0.436405
Si Si6 0.186255 0.069943 0.663106
O O1 0.821970 0.272128 0.750000
O O2 0.839011 0.328388 0.877284
O O3 0.824626 0.221062 0.883284
O O4 0.000000 0.266068 0.829254
O O5 0.348696 0.429280 0.750000
O O6 0.500000 0.423592 0.647156
O O7 0.288262 0.413861 0.608927
O O8 0.369908 0.509437 0.657381
O O9 0.364320 0.897442 0.505794
O O10 0.197211 0.834697 0.510548
O O11 0.500000 0.036250 0.567526
O O12 0.694175 0.061583 0.624140
O O13 0.675320 0.000000 0.500000
O O14 0.500000 0.313181 0.455408
O O15 0.370208 0.383255 0.387637
O O16 0.189328 0.085672 0.750000
#
# Coordination Sequence:
#
# PCOD9476148 Si02
#       6
#    16  16  16  16  16  16
#     4  10  21  37  56  79 106 138 180 228 271 314
#     4  10  20  33  51  78 111 142 175 217 265 319
#     4  11  20  35  55  79 107 143 178 221 266 326
#     4  10  20  35  52  75 107 142 178 218 264 315
#     4  10  21  35  56  82 109 141 180 223 269 320
#     4  10  20  35  55  80 109 145 181 218 266 320
#
# _framework density 9.2592590000000001
#
# number of rings (size 3 to 8) (size 9 to 14) (size 15 to 20)
#    0.000    1.833    1.667    3.000    0.000    2.000 
#    0.000    2.500    0.000    1.000    0.000    0.000 
#    0.000    0.000    0.000    0.000    0.000    0.000 
#
# Total GULP energy -267629.518633 kJ/mol
# GULP energy per Si atom -5575.614972 kJ/mol
# Density = 0.923818 g / cm^3
# Si number density = 9.259259 Si / 1000 Ang^3
#
#
#
# Elastic Constant Matrix: (Units=GPa)
#
#
# Indices 1 2 3 4 5 6 
#
# 1 30.9081 -7.6319 6.2227 0.0000 0.0000 0.0000
# 2 -7.6319 41.3790 0.6682 0.0000 0.0000 0.0000
# 3 6.2227 0.6682 36.2326 0.0000 0.0000 0.0000
# 4 0.0000 0.0000 0.0000 33.8600 0.0000 0.0000
# 5 0.0000 0.0000 0.0000 0.0000 7.2341 0.0000
# 6 0.0000 0.0000 0.0000 0.0000 0.0000 21.1702
#
#
#
# Elastic Compliance Matrix: (Units=1/GPa)
#
#
# Indices 1 2 3 4 5 6 
#
# 1 0.035225 0.006597 -0.006171 0.000000 0.000000 0.000000
# 2 0.006597 0.025409 -0.001602 0.000000 0.000000 0.000000
# 3 -0.006171 -0.001602 0.028689 0.000000 0.000000 0.000000
# 4 0.000000 0.000000 0.000000 0.029533 0.000000 0.000000
# 5 0.000000 0.000000 0.000000 0.000000 0.138233 0.000000
# 6 0.000000 0.000000 0.000000 0.000000 0.000000 0.047236
#
#
# Mechanical properties :
#
#
# Convention : Reuss Voigt Hill
#
# Bulk Modulus (GPa) = 11.49807 11.89306 11.69556
# Shear Modulus (GPa) = 14.89561 19.73691 17.31626
#
# Velocity S-wave (km/s) = 2.83921 3.26819 3.06122
# Velocity P-wave (km/s) = 4.11953 4.54727 4.33867
#
# Compressibility (1/GPa) = 0.08697110
#
# Stress axis : x y z
#
# Youngs Moduli (GPa) = 28.38869 39.35552 34.85670
#
# Poissons Ratio (x) = -0.25961 0.21511
# Poissons Ratio (y) = -0.18727 0.05582
# Poissons Ratio (z) = 0.17520 0.06303
#
# Static dielectric constant tensor:
#      x y z
#    x 1.634810 0.000000 0.000000 
#    y 0.000000 1.656050 0.000000 
#    z 0.000000 0.000000 1.610090 
# 
# From -- ./inp_files/42468.got.cif
#   From: 2010.05.17/outbox.ucp.g08.bks.cvg/sg63_22_cif.got.tgz:42468.got - 2010.06.11 16:32:19.
