data_PCOD9476866
_publ_section_title
;
Structure prediction by ZEFSAII (Michael W. Deem and Ramdas Pophale) SiO2 
 PCOD9476866
Probable space group: C M C A
;
_chemical_formula_sum "Si O2"
_cell_formula_units_Z 72
_cell_length_a 22.162860
_cell_length_b 18.617958
_cell_length_c 10.425528
_cell_angle_alpha 90.000000
_cell_angle_beta 90.000000
_cell_angle_gamma 90.000000
_cell_volume 4301.856392
_symmetry_space_group_name_H-M "C M C A"
_symmetry_group_IT_number 64
_symmetry_cell_setting 'orthorhombic'
loop_
_space_group_symop_operation_xyz
x,y,z
-x,1/2-y,1/2+z
x,-y,-z
-x,1/2+y,1/2-z
-x,-y,-z
x,1/2+y,1/2-z
-x,y,z
x,1/2-y,1/2+z
1/2+x,1/2+y,z
1/2-x,-y,1/2+z
1/2+x,1/2-y,-z
1/2-x,y,1/2-z
1/2-x,1/2-y,-z
1/2+x,y,1/2-z
1/2-x,1/2+y,z
1/2+x,-y,1/2+z
loop_
_atom_site_type_symbol
_atom_site_label
_atom_site_fract_x
_atom_site_fract_y
_atom_site_fract_z
Si Si1 0.327467 0.399982 0.605768
Si Si2 0.250000 0.785039 0.750000
Si Si3 0.627715 0.801541 0.227342
Si Si4 0.071506 0.792278 0.551550
Si Si5 0.814366 0.944582 0.313299
O O1 0.279489 0.339507 0.647342
O O2 0.392710 0.362799 0.599979
O O3 0.311331 0.424704 0.463123
O O4 0.328285 0.470633 0.694225
O O5 0.306216 0.735367 0.709175
O O6 0.596466 0.769371 0.353570
O O7 0.638270 0.886893 0.240954
O O8 0.591065 0.783973 0.097319
O O9 0.000000 0.798016 0.561254
O O10 0.750000 0.932278 0.250000
#
# Coordination Sequence:
#
# PCOD9476866 Si02
#       5
#    16   8  16  16  16
#     4   9  20  32  51  76 107 138 170 210 269 311
#     4  10  18  32  50  84 106 134 162 218 278 316
#     4  10  21  32  57  79 107 134 177 220 267 307
#     4  10  21  38  54  75 106 145 182 215 252 309
#     4  10  18  32  50  79 107 132 168 213 265 322
#
# _framework density 16.73696
#
# number of rings (size 3 to 8) (size 9 to 14) (size 15 to 20)
#    0.000    2.222    2.222    0.667    3.111    2.667 
#    0.000   10.000    0.000    0.000    0.000    4.667 
#    0.000    0.000    0.000    0.000    0.000    0.000 
#
# Total GULP energy -200524.835150 kJ/mol
# GULP energy per Si atom -5570.134310 kJ/mol
# Density = 1.669887 g / cm^3
# Si number density = 16.736960 Si / 1000 Ang^3
#
#
#
# Elastic Constant Matrix: (Units=GPa)
#
#
# Indices 1 2 3 4 5 6 
#
# 1 115.6096 20.0856 24.8367 0.0000 0.0000 0.0000
# 2 20.0856 75.5695 15.9923 0.0000 0.0000 0.0000
# 3 24.8367 15.9923 35.4113 0.0000 0.0000 0.0000
# 4 0.0000 0.0000 0.0000 25.6387 0.0000 0.0000
# 5 0.0000 0.0000 0.0000 0.0000 23.2253 0.0000
# 6 0.0000 0.0000 0.0000 0.0000 0.0000 4.3160
#
#
#
# Elastic Compliance Matrix: (Units=1/GPa)
#
#
# Indices 1 2 3 4 5 6 
#
# 1 0.010305 -0.001337 -0.006624 0.000000 0.000000 0.000000
# 2 -0.001337 0.014805 -0.005748 0.000000 0.000000 0.000000
# 3 -0.006624 -0.005748 0.035481 0.000000 0.000000 0.000000
# 4 0.000000 0.000000 0.000000 0.039004 0.000000 0.000000
# 5 0.000000 0.000000 0.000000 0.000000 0.043056 0.000000
# 6 0.000000 0.000000 0.000000 0.000000 0.000000 0.231694
#
#
# Mechanical properties :
#
#
# Convention : Reuss Voigt Hill
#
# Bulk Modulus (GPa) = 30.14524 38.71328 34.42926
# Shear Modulus (GPa) = 12.11178 21.68107 16.89643
#
# Velocity S-wave (km/s) = 2.69300 3.60307 3.18075
# Velocity P-wave (km/s) = 5.26497 6.36319 5.83995
#
# Compressibility (1/GPa) = 0.03317274
#
# Stress axis : x y z
#
# Youngs Moduli (GPa) = 97.03888 67.54606 28.18380
#
# Poissons Ratio (x) = 0.09032 0.18669
# Poissons Ratio (y) = 0.12976 0.16200
# Poissons Ratio (z) = 0.64277 0.38826
#
# Static dielectric constant tensor:
#      x y z
#    x 1.533920 0.000000 0.000000 
#    y 0.000000 1.609860 0.000000 
#    z 0.000000 0.000000 1.581230 
# 
# From -- ./inp_files/9141.got.cif
#   From: 2010.05.17/outbox.cif.g08.bks.cpg/sg64_5_cif.got.tgz:9141.got - 2010.06.03 16:29:19.
