data_PCOD9476676
_publ_section_title
;
Structure prediction by ZEFSAII (Michael W. Deem and Ramdas Pophale) SiO2 
 PCOD9476676
Probable space group: C M C A
;
_chemical_formula_sum "Si O2"
_cell_formula_units_Z 96
_cell_length_a 24.140676
_cell_length_b 24.252560
_cell_length_c 7.831425
_cell_angle_alpha 90.000000
_cell_angle_beta 90.000000
_cell_angle_gamma 90.000000
_cell_volume 4585.089402
_symmetry_space_group_name_H-M "C M C A"
_symmetry_group_IT_number 64
_symmetry_cell_setting 'orthorhombic'
loop_
_space_group_symop_operation_xyz
x,y,z
-x,1/2-y,1/2+z
x,-y,-z
-x,1/2+y,1/2-z
-x,-y,-z
x,1/2+y,1/2-z
-x,y,z
x,1/2-y,1/2+z
1/2+x,1/2+y,z
1/2-x,-y,1/2+z
1/2+x,1/2-y,-z
1/2-x,y,1/2-z
1/2-x,1/2-y,-z
1/2+x,y,1/2-z
1/2-x,1/2+y,z
1/2+x,-y,1/2+z
loop_
_atom_site_type_symbol
_atom_site_label
_atom_site_fract_x
_atom_site_fract_y
_atom_site_fract_z
Si Si1 0.877021 0.740467 0.483847
Si Si2 0.937334 0.680008 0.183734
Si Si3 0.332384 0.364815 0.088996
Si Si4 0.813925 0.480308 0.302255
Si Si5 0.222840 0.820835 0.566928
Si Si6 0.858418 0.090087 0.290485
O O1 0.892775 0.709225 0.309966
O O2 0.926727 0.782458 0.519569
O O3 0.870945 0.688457 0.614433
O O4 0.819931 0.775498 0.494250
O O5 0.916327 0.617826 0.158633
O O6 0.000000 0.682252 0.244441
O O7 0.332386 0.416686 0.214230
O O8 0.271805 0.338692 0.058701
O O9 0.348619 0.392285 0.907189
O O10 0.816795 0.500000 0.500000
O O11 0.750000 0.484598 0.250000
O O12 0.849345 0.525203 0.199071
O O13 0.250000 0.803684 0.750000
O O14 0.188293 0.876085 0.608008
#
# Coordination Sequence:
#
# PCOD9476676 Si02
#       6
#    16  16  16  16  16  16
#     4  10  20  32  49  74 100 126 160 197 238 289
#     4  10  20  35  53  69  90 123 165 212 249 276
#     4   9  17  27  44  71 103 127 148 185 233 284
#     4  10  18  29  46  68  98 129 156 185 225 282
#     4   9  16  29  47  70 103 136 158 181 227 295
#     4   8  16  30  46  65  91 127 163 192 226 279
#
# _framework density 20.937432999999999
#
# number of rings (size 3 to 8) (size 9 to 14) (size 15 to 20)
#    0.000    2.667    0.000    4.500    0.000    2.000 
#    0.000    0.000    0.000   13.500    0.000    0.000 
#    0.000    7.333    0.000    0.000    0.000    0.000 
#
# Total GULP energy -267693.281030 kJ/mol
# GULP energy per Si atom -5576.943355 kJ/mol
# Density = 2.088978 g / cm^3
# Si number density = 20.937433 Si / 1000 Ang^3
#
#
#
# Elastic Constant Matrix: (Units=GPa)
#
#
# Indices 1 2 3 4 5 6 
#
# 1 65.8079 31.0690 -5.8823 0.0000 0.0000 0.0000
# 2 31.0690 157.9637 4.8848 0.0000 0.0000 0.0000
# 3 -5.8823 4.8848 28.8665 0.0000 0.0000 0.0000
# 4 0.0000 0.0000 0.0000 20.8559 0.0000 0.0000
# 5 0.0000 0.0000 0.0000 0.0000 14.3932 0.0000
# 6 0.0000 0.0000 0.0000 0.0000 0.0000 10.1394
#
#
#
# Elastic Compliance Matrix: (Units=1/GPa)
#
#
# Indices 1 2 3 4 5 6 
#
# 1 0.017222 -0.003514 0.004104 0.000000 0.000000 0.000000
# 2 -0.003514 0.007081 -0.001914 0.000000 0.000000 0.000000
# 3 0.004104 -0.001914 0.035802 0.000000 0.000000 0.000000
# 4 0.000000 0.000000 0.000000 0.047948 0.000000 0.000000
# 5 0.000000 0.000000 0.000000 0.000000 0.069477 0.000000
# 6 0.000000 0.000000 0.000000 0.000000 0.000000 0.098626
#
#
# Mechanical properties :
#
#
# Convention : Reuss Voigt Hill
#
# Bulk Modulus (GPa) = 17.40459 34.75346 26.07902
# Shear Modulus (GPa) = 16.78094 23.91545 20.34820
#
# Velocity S-wave (km/s) = 2.83411 3.38336 3.12084
# Velocity P-wave (km/s) = 4.36352 5.64780 5.04668
#
# Compressibility (1/GPa) = 0.05745611
#
# Stress axis : x y z
#
# Youngs Moduli (GPa) = 58.06640 141.22411 27.93105
#
# Poissons Ratio (x) = 0.49628 -0.11463
# Poissons Ratio (y) = 0.20405 0.05347
# Poissons Ratio (z) = -0.23830 0.27035
#
# Static dielectric constant tensor:
#      x y z
#    x 1.719130 0.000000 0.000000 
#    y 0.000000 1.812120 0.000000 
#    z 0.000000 0.000000 1.851650 
# 
# From -- ./inp_files/9511.got.cif
#   From: 2010.05.17/outbox.cif.g08.bks.cpg/sg64_5_cif.got.tgz:9511.got - 2010.06.03 16:29:19.
