data_PCOD9476861
_publ_section_title
;
Structure prediction by ZEFSAII (Michael W. Deem and Ramdas Pophale) SiO2 
 PCOD9476861
Probable space group: C M C A
;
_chemical_formula_sum "Si O2"
_cell_formula_units_Z 104
_cell_length_a 38.397863
_cell_length_b 29.042512
_cell_length_c 5.312379
_cell_angle_alpha 90.000000
_cell_angle_beta 90.000000
_cell_angle_gamma 90.000000
_cell_volume 5924.207798
_symmetry_space_group_name_H-M "C M C A"
_symmetry_group_IT_number 64
_symmetry_cell_setting 'orthorhombic'
loop_
_space_group_symop_operation_xyz
x,y,z
-x,1/2-y,1/2+z
x,-y,-z
-x,1/2+y,1/2-z
-x,-y,-z
x,1/2+y,1/2-z
-x,y,z
x,1/2-y,1/2+z
1/2+x,1/2+y,z
1/2-x,-y,1/2+z
1/2+x,1/2-y,-z
1/2-x,y,1/2-z
1/2-x,1/2-y,-z
1/2+x,y,1/2-z
1/2-x,1/2+y,z
1/2+x,-y,1/2+z
loop_
_atom_site_type_symbol
_atom_site_label
_atom_site_fract_x
_atom_site_fract_y
_atom_site_fract_z
Si Si1 0.916689 0.453511 0.907463
Si Si2 0.183530 0.308471 0.848962
Si Si3 0.607275 0.849058 0.901857
Si Si4 0.000000 0.227750 0.937401
Si Si5 0.711568 0.206228 0.658078
Si Si6 0.065163 0.334256 0.404974
Si Si7 0.959587 0.438030 0.406068
O O1 0.895463 0.405231 0.901514
O O2 0.936009 0.456504 0.637651
O O3 0.896957 0.500000 0.000000
O O4 0.945529 0.450194 0.128982
O O5 0.144954 0.328190 0.838645
O O6 0.206977 0.319039 0.606107
O O7 0.188047 0.252538 0.867354
O O8 0.198431 0.324868 0.114574
O O9 0.583105 0.830312 0.676649
O O10 0.592813 0.834204 0.175742
O O11 0.964593 0.202568 0.860676
O O12 0.000000 0.270109 0.741173
O O13 0.750000 0.221064 0.750000
O O14 0.045751 0.383191 0.413329
O O15 0.000000 0.449570 0.438623
#
# Coordination Sequence:
#
# PCOD9476861 Si02
#       7
#    16  16  16   8  16  16  16
#     4  10  21  33  49  74  99 126 161 210 264 313
#     4  10  18  32  49  74 104 137 168 189 240 299
#     4  10  21  36  54  72 101 137 167 212 257 314
#     4  12  24  40  52  72  87 128 181 232 268 312
#     4  10  19  33  53  79 109 134 161 206 241 279
#     4  10  21  39  51  67  96 130 173 218 271 307
#     4  10  19  33  54  68  92 125 157 211 273 326
#
# _framework density 17.555088000000001
#
# number of rings (size 3 to 8) (size 9 to 14) (size 15 to 20)
#    0.000    1.846    0.769    5.077    0.000    1.846 
#   16.615    0.000    0.000    0.000    0.000    0.000 
#    0.000    3.692    0.000    0.154    0.000    0.000 
#
# Total GULP energy -289482.702514 kJ/mol
# GULP energy per Si atom -5566.975048 kJ/mol
# Density = 1.751513 g / cm^3
# Si number density = 17.555088 Si / 1000 Ang^3
#
#
#
# Elastic Constant Matrix: (Units=GPa)
#
#
# Indices 1 2 3 4 5 6 
#
# 1 78.4345 35.7453 10.2774 0.0000 0.0000 0.0000
# 2 35.7453 33.3008 4.2677 0.0000 0.0000 0.0000
# 3 10.2774 4.2677 117.0973 0.0000 0.0000 0.0000
# 4 0.0000 0.0000 0.0000 15.7487 0.0000 0.0000
# 5 0.0000 0.0000 0.0000 0.0000 20.4663 0.0000
# 6 0.0000 0.0000 0.0000 0.0000 0.0000 -26.7388
#
#
#
# Elastic Compliance Matrix: (Units=1/GPa)
#
#
# Indices 1 2 3 4 5 6 
#
# 1 0.025134 -0.026822 -0.001228 0.000000 0.000000 0.000000
# 2 -0.026822 0.058793 0.000211 0.000000 0.000000 0.000000
# 3 -0.001228 0.000211 0.008640 0.000000 0.000000 0.000000
# 4 0.000000 0.000000 0.000000 0.063497 0.000000 0.000000
# 5 0.000000 0.000000 0.000000 0.000000 0.048861 0.000000
# 6 0.000000 0.000000 0.000000 0.000000 0.000000 -0.037399
#
#
# Mechanical properties :
#
#
# Convention : Reuss Voigt Hill
#
# Bulk Modulus (GPa) = 27.10804 36.60148 31.85476
# Shear Modulus (GPa) = 21.23145 13.79805 17.51475
#
# Velocity S-wave (km/s) = 3.48144 2.80659 3.16207
# Velocity P-wave (km/s) = 5.62457 5.60333 5.61396
#
# Compressibility (1/GPa) = 0.03688942
#
# Stress axis : x y z
#
# Youngs Moduli (GPa) = 39.78684 17.00891 115.74048
#
# Poissons Ratio (x) = 0.45621 0.14218
# Poissons Ratio (y) = 1.06714 -0.02446
# Poissons Ratio (z) = 0.04888 -0.00359
#
# Static dielectric constant tensor:
#      x y z
#    x 1.604650 0.000000 0.000000 
#    y 0.000000 1.657040 0.000000 
#    z 0.000000 0.000000 1.688520 
# 
# From -- ./inp_files/3476.got.cif
#   From: 2010.05.17/outbox.cif.g08.bks.cpg/sg64_2_cif.got.tgz:3476.got - 2010.06.03 16:29:19.
