data_PCOD9476536
_publ_section_title
;
Structure prediction by ZEFSAII (Michael W. Deem and Ramdas Pophale) SiO2 
 PCOD9476536
Probable space group: C M C A
;
_chemical_formula_sum "Si O2"
_cell_formula_units_Z 88
_cell_length_a 13.540431
_cell_length_b 18.808084
_cell_length_c 20.974593
_cell_angle_alpha 90.000000
_cell_angle_beta 90.000000
_cell_angle_gamma 90.000000
_cell_volume 5341.590447
_symmetry_space_group_name_H-M "C M C A"
_symmetry_group_IT_number 64
_symmetry_cell_setting 'orthorhombic'
loop_
_space_group_symop_operation_xyz
x,y,z
-x,1/2-y,1/2+z
x,-y,-z
-x,1/2+y,1/2-z
-x,-y,-z
x,1/2+y,1/2-z
-x,y,z
x,1/2-y,1/2+z
1/2+x,1/2+y,z
1/2-x,-y,1/2+z
1/2+x,1/2-y,-z
1/2-x,y,1/2-z
1/2-x,1/2-y,-z
1/2+x,y,1/2-z
1/2-x,1/2+y,z
1/2+x,-y,1/2+z
loop_
_atom_site_type_symbol
_atom_site_label
_atom_site_fract_x
_atom_site_fract_y
_atom_site_fract_z
Si Si1 0.750000 0.341579 0.750000
Si Si2 0.886823 0.738420 0.831771
Si Si3 0.118688 0.570929 0.149812
Si Si4 0.186895 0.361470 0.983351
Si Si5 0.118612 0.410437 0.120098
Si Si6 0.610412 0.709647 0.021868
O O1 0.819917 0.290238 0.708897
O O2 0.818337 0.388783 0.796518
O O3 0.847593 0.657721 0.838901
O O4 0.000000 0.737288 0.807908
O O5 0.888881 0.767689 0.904042
O O6 0.141932 0.486816 0.149097
O O7 0.000000 0.580124 0.157912
O O8 0.150630 0.600478 0.080426
O O9 0.155612 0.401790 0.047640
O O10 0.304195 0.347977 0.986353
O O11 0.139295 0.282203 0.985175
O O12 0.000000 0.404110 0.116583
O O13 0.500000 0.686827 0.004305
#
# Coordination Sequence:
#
# PCOD9476536 Si02
#       6
#     8  16  16  16  16  16
#     4  12  22  34  52  78 102 142 176 216 252 306
#     4   9  18  35  53  72 100 139 175 208 255 312
#     4  11  22  35  53  81 108 135 176 221 261 307
#     4  10  17  31  55  82 105 132 170 218 270 311
#     4   9  19  35  56  78 104 134 169 218 272 315
#     4   9  17  30  52  79 108 135 167 213 263 313
#
# _framework density 16.474494
#
# number of rings (size 3 to 8) (size 9 to 14) (size 15 to 20)
#    0.000    2.182    1.818    3.818    0.000    2.182 
#    0.000    0.000    0.000    4.364    0.000    0.000 
#    0.000    0.000    0.000    0.000    0.000    0.000 
#
# Total GULP energy -245330.205414 kJ/mol
# GULP energy per Si atom -5575.686487 kJ/mol
# Density = 1.643700 g / cm^3
# Si number density = 16.474494 Si / 1000 Ang^3
#
#
#
# Elastic Constant Matrix: (Units=GPa)
#
#
# Indices 1 2 3 4 5 6 
#
# 1 93.5706 60.8137 41.7684 0.0000 0.0000 0.0000
# 2 60.8137 124.1818 68.3009 0.0000 0.0000 0.0000
# 3 41.7684 68.3009 64.7964 0.0000 0.0000 0.0000
# 4 0.0000 0.0000 0.0000 23.0410 0.0000 0.0000
# 5 0.0000 0.0000 0.0000 0.0000 18.5173 0.0000
# 6 0.0000 0.0000 0.0000 0.0000 0.0000 22.9504
#
#
#
# Elastic Compliance Matrix: (Units=1/GPa)
#
#
# Indices 1 2 3 4 5 6 
#
# 1 0.016327 -0.005252 -0.004989 0.000000 0.000000 0.000000
# 2 -0.005252 0.020851 -0.018594 0.000000 0.000000 0.000000
# 3 -0.004989 -0.018594 0.038248 0.000000 0.000000 0.000000
# 4 0.000000 0.000000 0.000000 0.043401 0.000000 0.000000
# 5 0.000000 0.000000 0.000000 0.000000 0.054004 0.000000
# 6 0.000000 0.000000 0.000000 0.000000 0.000000 0.043572
#
#
# Mechanical properties :
#
#
# Convention : Reuss Voigt Hill
#
# Bulk Modulus (GPa) = 56.31258 69.36830 62.84044
# Shear Modulus (GPa) = 17.85770 20.34612 19.10191
#
# Velocity S-wave (km/s) = 3.29593 3.51808 3.40881
# Velocity P-wave (km/s) = 6.98141 7.66162 7.32941
#
# Compressibility (1/GPa) = 0.01775802
#
# Stress axis : x y z
#
# Youngs Moduli (GPa) = 61.24685 47.95892 26.14511
#
# Poissons Ratio (x) = 0.25187 0.13044
# Poissons Ratio (y) = 0.32166 0.48613
# Poissons Ratio (z) = 0.30556 0.89173
#
# Static dielectric constant tensor:
#      x y z
#    x 1.561900 0.000000 0.000000 
#    y 0.000000 1.563670 0.000000 
#    z 0.000000 0.000000 1.527630 
# 
# From -- ./inp_files/32316.got.cif
#   From: 2010.05.17/outbox.cif.g08.bks.cpg/sg64_17_cif.got.tgz:32316.got - 2010.06.03 16:29:19.
