data_PCOD9476060
_publ_section_title
;
Structure prediction by ZEFSAII (Michael W. Deem and Ramdas Pophale) SiO2 
 PCOD9476060
Probable space group: C M C M
;
_chemical_formula_sum "Si O2"
_cell_formula_units_Z 44
_cell_length_a 30.000000
_cell_length_b 18.000000
_cell_length_c 9.000000
_cell_angle_alpha 90.000000
_cell_angle_beta 90.000000
_cell_angle_gamma 90.000000
_cell_volume 4860.000000
_symmetry_space_group_name_H-M "C M C M"
_symmetry_group_IT_number 63
_symmetry_cell_setting 'orthorhombic'
loop_
_space_group_symop_operation_xyz
x,y,z
-x,-y,1/2+z
x,-y,-z
-x,y,1/2-z
-x,-y,-z
x,y,1/2-z
-x,y,z
x,-y,1/2+z
1/2+x,1/2+y,z
1/2-x,1/2-y,1/2+z
1/2+x,1/2-y,-z
1/2-x,1/2+y,1/2-z
1/2-x,1/2-y,-z
1/2+x,1/2+y,1/2-z
1/2-x,1/2+y,z
1/2+x,1/2-y,1/2+z
loop_
_atom_site_type_symbol
_atom_site_label
_atom_site_fract_x
_atom_site_fract_y
_atom_site_fract_z
Si Si1 0.130757 0.079407 0.428010
Si Si2 0.192203 0.666660 0.423633
Si Si3 0.214490 0.156792 0.577271
Si Si4 0.594355 0.160937 0.570460
Si Si5 0.500000 0.080323 0.929296
Si Si6 0.551145 0.681673 0.430076
O O1 0.130870 0.077800 0.250000
O O2 0.174706 0.121363 0.483556
O O3 0.084112 0.116595 0.477663
O O4 0.132834 0.000000 0.500000
O O5 0.192138 0.643612 0.250000
O O6 0.202448 0.755291 0.427281
O O7 0.236458 0.638117 0.510534
O O8 0.143241 0.648503 0.495078
O O9 0.213187 0.133718 0.750000
O O10 0.600143 0.154246 0.750000
O O11 0.548662 0.115847 0.529176
O O12 0.578225 0.243983 0.532501
O O13 0.500000 0.080841 0.750000
O O14 0.500000 0.000000 0.000000
O O15 0.548246 0.680591 0.250000
O O16 0.500000 0.680757 0.485303
#
# Coordination Sequence:
#
# PCOD9476060 Si02
#       6
#    16  16  16  16   8  16
#     4  11  22  36  56  80 114 155 192 236 287 337
#     4  10  20  33  55  86 115 142 180 236 290 334
#     4  10  20  35  55  81 113 146 187 232 282 341
#     4  10  18  34  59  85 111 147 192 233 276 333
#     4  10  22  38  60  86 117 152 186 227 280 343
#     4   9  17  32  56  83 109 144 193 237 277 328
#
# _framework density 9.0534979999999994
#
# number of rings (size 3 to 8) (size 9 to 14) (size 15 to 20)
#    0.000    2.000    2.727    1.636    0.000    2.545 
#    0.000    0.909    0.000    6.000    0.000    0.000 
#    0.000    0.000    0.000    0.000    0.000    0.000 
#
# Total GULP energy -244998.487178 kJ/mol
# GULP energy per Si atom -5568.147436 kJ/mol
# Density = 0.903289 g / cm^3
# Si number density = 9.053498 Si / 1000 Ang^3
#
#
#
# Elastic Constant Matrix: (Units=GPa)
#
#
# Indices 1 2 3 4 5 6 
#
# 1 160.5558 -1.5958 45.4011 0.0000 0.0000 0.0000
# 2 -1.5958 18.5391 11.2481 0.0000 0.0000 0.0000
# 3 45.4011 11.2481 68.6449 0.0000 0.0000 0.0000
# 4 0.0000 0.0000 0.0000 17.3475 0.0000 0.0000
# 5 0.0000 0.0000 0.0000 0.0000 37.2673 0.0000
# 6 0.0000 0.0000 0.0000 0.0000 0.0000 37.8795
#
#
#
# Elastic Compliance Matrix: (Units=1/GPa)
#
#
# Indices 1 2 3 4 5 6 
#
# 1 0.007959 0.004307 -0.005970 0.000000 0.000000 0.000000
# 2 0.004307 0.062226 -0.013045 0.000000 0.000000 0.000000
# 3 -0.005970 -0.013045 0.020654 0.000000 0.000000 0.000000
# 4 0.000000 0.000000 0.000000 0.057645 0.000000 0.000000
# 5 0.000000 0.000000 0.000000 0.000000 0.026833 0.000000
# 6 0.000000 0.000000 0.000000 0.000000 0.000000 0.026400
#
#
# Mechanical properties :
#
#
# Convention : Reuss Voigt Hill
#
# Bulk Modulus (GPa) = 16.28049 39.76072 28.02060
# Shear Modulus (GPa) = 19.87227 31.34461 25.60844
#
# Velocity S-wave (km/s) = 3.31643 4.16514 3.76478
# Velocity P-wave (km/s) = 4.86578 6.71845 5.86572
#
# Compressibility (1/GPa) = 0.06142322
#
# Stress axis : x y z
#
# Youngs Moduli (GPa) = 125.63850 16.07054 48.41727
#
# Poissons Ratio (x) = -0.06922 0.28905
# Poissons Ratio (y) = -0.54116 0.63161
# Poissons Ratio (z) = 0.75006 0.20964
#
# Static dielectric constant tensor:
#      x y z
#    x 1.656430 0.000000 0.000000 
#    y 0.000000 2.057980 0.000000 
#    z 0.000000 0.000000 1.616290 
# 
# From -- ./inp_files/14213.got.cif
#   From: 2010.05.17/outbox.ucp.g08.bks.cvg/sg63_8_cif.got.tgz:14213.got - 2010.06.11 16:32:19.
