data_PCOD9476608
_publ_section_title
;
Structure prediction by ZEFSAII (Michael W. Deem and Ramdas Pophale) SiO2 
 PCOD9476608
Probable space group: C M C A
;
_chemical_formula_sum "Si O2"
_cell_formula_units_Z 112
_cell_length_a 15.839448
_cell_length_b 23.209817
_cell_length_c 15.354004
_cell_angle_alpha 90.000000
_cell_angle_beta 90.000000
_cell_angle_gamma 90.000000
_cell_volume 5644.603077
_symmetry_space_group_name_H-M "C M C A"
_symmetry_group_IT_number 64
_symmetry_cell_setting 'orthorhombic'
loop_
_space_group_symop_operation_xyz
x,y,z
-x,1/2-y,1/2+z
x,-y,-z
-x,1/2+y,1/2-z
-x,-y,-z
x,1/2+y,1/2-z
-x,y,z
x,1/2-y,1/2+z
1/2+x,1/2+y,z
1/2-x,-y,1/2+z
1/2+x,1/2-y,-z
1/2-x,y,1/2-z
1/2-x,1/2-y,-z
1/2+x,y,1/2-z
1/2-x,1/2+y,z
1/2+x,-y,1/2+z
loop_
_atom_site_type_symbol
_atom_site_label
_atom_site_fract_x
_atom_site_fract_y
_atom_site_fract_z
Si Si1 0.094167 0.177424 0.102966
Si Si2 0.351422 0.747914 0.752804
Si Si3 0.404535 0.848983 0.885504
Si Si4 0.188888 0.870874 0.176253
Si Si5 0.849878 0.579286 0.266031
Si Si6 0.253983 0.681536 0.509851
Si Si7 0.601470 0.018996 0.599007
O O1 0.112002 0.235297 0.158483
O O2 0.107396 0.127940 0.174103
O O3 0.000000 0.177360 0.067188
O O4 0.165334 0.164240 0.033379
O O5 0.250000 0.758458 0.750000
O O6 0.388758 0.793208 0.822774
O O7 0.363907 0.682220 0.782580
O O8 0.500000 0.846748 0.918397
O O9 0.390750 0.906749 0.827800
O O10 0.332805 0.843823 0.958121
O O11 0.250000 0.896819 0.250000
O O12 0.250532 0.839404 0.107834
O O13 0.135750 0.918521 0.126035
O O14 0.750000 0.588417 0.250000
O O15 0.865468 0.522665 0.323399
O O16 0.250000 0.750000 0.500000
O O17 0.500000 0.017474 0.600106
O O18 0.627745 0.000000 0.500000
#
# Coordination Sequence:
#
# PCOD9476608 Si02
#       7
#    16  16  16  16  16  16  16
#     4  11  21  36  63  98 128 165 214 263 321 382
#     4  10  17  37  60  88 132 170 204 255 318 384
#     4  11  21  36  63  97 129 169 216 265 320 379
#     4  11  24  42  64  87 127 175 211 258 334 391
#     4  11  20  39  67  93 127 163 212 272 325 381
#     4  12  22  41  61  92 135 169 216 266 317 391
#     4  11  25  43  64  95 127 163 220 279 327 392
#
# _framework density 19.841961999999999
#
# number of rings (size 3 to 8) (size 9 to 14) (size 15 to 20)
#    0.000    1.000    4.286    5.571    0.000    3.429 
#    0.000    0.714    0.000    0.000    0.000    3.000 
#    0.000    0.000    0.000    0.000    0.000    0.000 
#
# Total GULP energy -312625.807518 kJ/mol
# GULP energy per Si atom -5582.603706 kJ/mol
# Density = 1.979680 g / cm^3
# Si number density = 19.841962 Si / 1000 Ang^3
#
#
#
# Elastic Constant Matrix: (Units=GPa)
#
#
# Indices 1 2 3 4 5 6 
#
# 1 135.1182 12.2222 35.4296 0.0000 0.0000 0.0000
# 2 12.2222 94.2531 26.3020 0.0000 0.0000 0.0000
# 3 35.4296 26.3020 90.0004 0.0000 0.0000 0.0000
# 4 0.0000 0.0000 0.0000 28.7822 0.0000 0.0000
# 5 0.0000 0.0000 0.0000 0.0000 -6.4496 0.0000
# 6 0.0000 0.0000 0.0000 0.0000 0.0000 13.4103
#
#
#
# Elastic Compliance Matrix: (Units=1/GPa)
#
#
# Indices 1 2 3 4 5 6 
#
# 1 0.008256 -0.000178 -0.003198 0.000000 0.000000 0.000000
# 2 -0.000178 0.011556 -0.003307 0.000000 0.000000 0.000000
# 3 -0.003198 -0.003307 0.013336 0.000000 0.000000 0.000000
# 4 0.000000 0.000000 0.000000 0.034744 0.000000 0.000000
# 5 0.000000 0.000000 0.000000 0.000000 -0.155048 0.000000
# 6 0.000000 0.000000 0.000000 0.000000 0.000000 0.074570
#
#
# Mechanical properties :
#
#
# Convention : Reuss Voigt Hill
#
# Bulk Modulus (GPa) = 50.55169 51.91994 51.23581
# Shear Modulus (GPa) = 678.21762 23.50977 350.86369
#
# Velocity S-wave (km/s) = 18.50815 3.44590 13.31214
# Velocity P-wave (km/s) = 21.96061 6.48505 16.19142
#
# Compressibility (1/GPa) = 0.01978173
#
# Stress axis : x y z
#
# Youngs Moduli (GPa) = 121.13060 86.53776 74.98307
#
# Poissons Ratio (x) = 0.01542 0.23978
# Poissons Ratio (y) = 0.02158 0.24796
# Poissons Ratio (z) = 0.38735 0.28617
#
# Static dielectric constant tensor:
#      x y z
#    x 1.691950 0.000000 0.000000 
#    y 0.000000 1.753500 0.000000 
#    z 0.000000 0.000000 1.703590 
# 
# From -- ./inp_files/24186.got.cif
#   From: 2010.05.17/outbox.cif.g08.bks.cpg/sg64_13_cif.got.tgz:24186.got - 2010.06.03 16:29:19.
