data_PCOD9476385
_publ_section_title
;
Structure prediction by ZEFSAII (Michael W. Deem and Ramdas Pophale) SiO2 
 PCOD9476385
Probable space group: C M C A
;
_chemical_formula_sum "Si O2"
_cell_formula_units_Z 104
_cell_length_a 22.848806
_cell_length_b 16.834549
_cell_length_c 14.824263
_cell_angle_alpha 90.000000
_cell_angle_beta 90.000000
_cell_angle_gamma 90.000000
_cell_volume 5702.143041
_symmetry_space_group_name_H-M "C M C A"
_symmetry_group_IT_number 64
_symmetry_cell_setting 'orthorhombic'
loop_
_space_group_symop_operation_xyz
x,y,z
-x,1/2-y,1/2+z
x,-y,-z
-x,1/2+y,1/2-z
-x,-y,-z
x,1/2+y,1/2-z
-x,y,z
x,1/2-y,1/2+z
1/2+x,1/2+y,z
1/2-x,-y,1/2+z
1/2+x,1/2-y,-z
1/2-x,y,1/2-z
1/2-x,1/2-y,-z
1/2+x,y,1/2-z
1/2-x,1/2+y,z
1/2+x,-y,1/2+z
loop_
_atom_site_type_symbol
_atom_site_label
_atom_site_fract_x
_atom_site_fract_y
_atom_site_fract_z
Si Si1 0.651843 0.196277 0.312340
Si Si2 0.067815 0.662095 0.475148
Si Si3 0.752751 0.200025 0.593474
Si Si4 0.137290 0.000000 0.000000
Si Si5 0.372932 0.238380 0.117356
Si Si6 0.279822 0.034604 0.338595
Si Si7 0.180155 0.914005 0.522825
O O1 0.607470 0.199135 0.395942
O O2 0.705150 0.255169 0.336992
O O3 0.618492 0.215664 0.220658
O O4 0.681499 0.109500 0.304605
O O5 0.096824 0.576482 0.490206
O O6 0.077858 0.713910 0.564722
O O7 0.000000 0.656914 0.451474
O O8 0.750000 0.250000 0.500000
O O9 0.685280 0.205466 0.620530
O O10 0.783818 0.118659 0.563881
O O11 0.178063 0.991510 0.089097
O O12 0.359122 0.157931 0.060284
O O13 0.250000 0.995489 0.250000
O O14 0.228138 0.070211 0.399997
O O15 0.152828 0.000000 0.500000
#
# Coordination Sequence:
#
# PCOD9476385 Si02
#       7
#    16  16  16   8  16  16  16
#     4  11  19  35  61  85 114 157 195 246 294 358
#     4  11  24  43  63  82 114 161 210 254 286 338
#     4  10  16  32  54  83 119 148 183 227 303 362
#     4  10  23  40  60  90 124 154 195 240 296 354
#     4  11  21  37  59  87 118 153 198 242 297 355
#     4  11  18  32  55  86 123 154 181 227 294 367
#     4  11  20  32  54  84 127 156 182 228 290 368
#
# _framework density 18.238757
#
# number of rings (size 3 to 8) (size 9 to 14) (size 15 to 20)
#    0.000    1.231    8.462    1.615    0.000    0.615 
#    2.769    0.000    0.000    0.462    0.000    0.000 
#    0.000    0.000    0.000    0.154    0.000    0.000 
#
# Total GULP energy -290051.390193 kJ/mol
# GULP energy per Si atom -5577.911350 kJ/mol
# Density = 1.819725 g / cm^3
# Si number density = 18.238757 Si / 1000 Ang^3
#
#
#
# Elastic Constant Matrix: (Units=GPa)
#
#
# Indices 1 2 3 4 5 6 
#
# 1 66.4114 7.2256 15.0772 0.0000 0.0000 0.0000
# 2 7.2256 74.3074 12.7927 0.0000 0.0000 0.0000
# 3 15.0772 12.7927 90.3743 0.0000 0.0000 0.0000
# 4 0.0000 0.0000 0.0000 18.6078 0.0000 0.0000
# 5 0.0000 0.0000 0.0000 0.0000 10.2292 0.0000
# 6 0.0000 0.0000 0.0000 0.0000 0.0000 11.4905
#
#
#
# Elastic Compliance Matrix: (Units=1/GPa)
#
#
# Indices 1 2 3 4 5 6 
#
# 1 0.015738 -0.001105 -0.002469 0.000000 0.000000 0.000000
# 2 -0.001105 0.013871 -0.001779 0.000000 0.000000 0.000000
# 3 -0.002469 -0.001779 0.011729 0.000000 0.000000 0.000000
# 4 0.000000 0.000000 0.000000 0.053741 0.000000 0.000000
# 5 0.000000 0.000000 0.000000 0.000000 0.097760 0.000000
# 6 0.000000 0.000000 0.000000 0.000000 0.000000 0.087029
#
#
# Mechanical properties :
#
#
# Convention : Reuss Voigt Hill
#
# Bulk Modulus (GPa) = 32.64617 33.47602 33.06109
# Shear Modulus (GPa) = 16.62314 21.13201 18.87757
#
# Velocity S-wave (km/s) = 3.02225 3.40756 3.22067
# Velocity P-wave (km/s) = 5.48788 5.82032 5.65654
#
# Compressibility (1/GPa) = 0.03063147
#
# Stress axis : x y z
#
# Youngs Moduli (GPa) = 63.53852 72.09091 85.25970
#
# Poissons Ratio (x) = 0.07968 0.21052
# Poissons Ratio (y) = 0.07023 0.15169
# Poissons Ratio (z) = 0.15689 0.12826
#
# Static dielectric constant tensor:
#      x y z
#    x 1.589860 0.000000 0.000000 
#    y 0.000000 1.695370 0.000000 
#    z 0.000000 0.000000 1.660930 
# 
# From -- ./inp_files/27538.got.cif
#   From: 2010.05.17/outbox.cif.g08.bks.cpg/sg64_14_cif.got.tgz:27538.got - 2010.06.03 16:29:19.
