data_PCOD9476932
_publ_section_title
;
Structure prediction by ZEFSAII (Michael W. Deem and Ramdas Pophale) SiO2 
 PCOD9476932
Probable space group: C M C A
;
_chemical_formula_sum "Si O2"
_cell_formula_units_Z 64
_cell_length_a 11.188081
_cell_length_b 13.766338
_cell_length_c 17.145837
_cell_angle_alpha 90.000000
_cell_angle_beta 90.000000
_cell_angle_gamma 90.000000
_cell_volume 2640.783033
_symmetry_space_group_name_H-M "C M C A"
_symmetry_group_IT_number 64
_symmetry_cell_setting 'orthorhombic'
loop_
_space_group_symop_operation_xyz
x,y,z
-x,1/2-y,1/2+z
x,-y,-z
-x,1/2+y,1/2-z
-x,-y,-z
x,1/2+y,1/2-z
-x,y,z
x,1/2-y,1/2+z
1/2+x,1/2+y,z
1/2-x,-y,1/2+z
1/2+x,1/2-y,-z
1/2-x,y,1/2-z
1/2-x,1/2-y,-z
1/2+x,y,1/2-z
1/2-x,1/2+y,z
1/2+x,-y,1/2+z
loop_
_atom_site_type_symbol
_atom_site_label
_atom_site_fract_x
_atom_site_fract_y
_atom_site_fract_z
Si Si1 0.280446 0.539879 0.587303
Si Si2 0.871133 0.393762 0.659485
Si Si3 0.128986 0.187714 0.987542
Si Si4 0.871179 0.827775 0.291142
O O1 0.313174 0.500000 0.500000
O O2 0.247235 0.459114 0.652295
O O3 0.161561 0.605303 0.574856
O O4 0.370671 0.615712 0.626217
O O5 0.883221 0.368730 0.568143
O O6 0.858789 0.288100 0.697454
O O7 0.000000 0.435117 0.686594
O O8 0.000000 0.235911 0.970397
O O9 0.250000 0.250000 0.000000
O O10 0.750000 0.859685 0.250000
O O11 0.000000 0.844614 0.252957
#
# Coordination Sequence:
#
# PCOD9476932 Si02
#       4
#    16  16  16  16
#     4  10  21  38  68 101 131 168 222 278 338 391
#     4   9  19  38  61  89 127 167 210 260 319 387
#     4  10  18  32  58  92 127 163 202 255 319 383
#     4  11  25  45  66  92 132 176 221 277 337 404
#
# _framework density 24.235236
#
# number of rings (size 3 to 8) (size 9 to 14) (size 15 to 20)
#    0.000    2.000    2.500    0.750    0.000    6.500 
#    0.000    7.500    0.000    0.000    0.000    0.000 
#    0.000    0.000    0.000    0.000    0.000    0.000 
#
# Total GULP energy -178156.290979 kJ/mol
# GULP energy per Si atom -5567.384093 kJ/mol
# Density = 2.418008 g / cm^3
# Si number density = 24.235236 Si / 1000 Ang^3
#
#
#
# Elastic Constant Matrix: (Units=GPa)
#
#
# Indices 1 2 3 4 5 6 
#
# 1 158.7724 34.2264 30.8505 0.0000 0.0000 0.0000
# 2 34.2264 98.3023 12.0778 0.0000 0.0000 0.0000
# 3 30.8505 12.0778 48.5889 0.0000 0.0000 0.0000
# 4 0.0000 0.0000 0.0000 35.9616 0.0000 0.0000
# 5 0.0000 0.0000 0.0000 0.0000 5.3917 0.0000
# 6 0.0000 0.0000 0.0000 0.0000 0.0000 12.9064
#
#
#
# Elastic Compliance Matrix: (Units=1/GPa)
#
#
# Indices 1 2 3 4 5 6 
#
# 1 0.007588 -0.002115 -0.004292 0.000000 0.000000 0.000000
# 2 -0.002115 0.011082 -0.001412 0.000000 0.000000 0.000000
# 3 -0.004292 -0.001412 0.023657 0.000000 0.000000 0.000000
# 4 0.000000 0.000000 0.000000 0.027807 0.000000 0.000000
# 5 0.000000 0.000000 0.000000 0.000000 0.185471 0.000000
# 6 0.000000 0.000000 0.000000 0.000000 0.000000 0.077481
#
#
# Mechanical properties :
#
#
# Convention : Reuss Voigt Hill
#
# Bulk Modulus (GPa) = 37.46774 51.10812 44.28793
# Shear Modulus (GPa) = 13.98124 26.08585 20.03354
#
# Velocity S-wave (km/s) = 2.40447 3.28435 2.87823
# Velocity P-wave (km/s) = 4.81687 5.95959 5.41844
#
# Compressibility (1/GPa) = 0.02668963
#
# Stress axis : x y z
#
# Youngs Moduli (GPa) = 131.78342 90.23254 42.27049
#
# Poissons Ratio (x) = 0.19081 0.18144
# Poissons Ratio (y) = 0.27868 0.05969
# Poissons Ratio (z) = 0.56566 0.12742
#
# Static dielectric constant tensor:
#      x y z
#    x 1.859510 0.000000 0.000000 
#    y 0.000000 2.059100 0.000000 
#    z 0.000000 0.000000 1.982390 
# 
# From -- ./inp_files/37810.got.cif
#   From: 2010.05.17/outbox.cif.g08.bks.cpg/sg64_19_cif.got.tgz:37810.got - 2010.06.03 16:29:19.
