data_PCOD9476593
_publ_section_title
;
Structure prediction by ZEFSAII (Michael W. Deem and Ramdas Pophale) SiO2 
 PCOD9476593
Probable space group: C M C A
;
_chemical_formula_sum "Si O2"
_cell_formula_units_Z 112
_cell_length_a 14.511079
_cell_length_b 24.643301
_cell_length_c 13.863518
_cell_angle_alpha 90.000000
_cell_angle_beta 90.000000
_cell_angle_gamma 90.000000
_cell_volume 4957.606342
_symmetry_space_group_name_H-M "C M C A"
_symmetry_group_IT_number 64
_symmetry_cell_setting 'orthorhombic'
loop_
_space_group_symop_operation_xyz
x,y,z
-x,1/2-y,1/2+z
x,-y,-z
-x,1/2+y,1/2-z
-x,-y,-z
x,1/2+y,1/2-z
-x,y,z
x,1/2-y,1/2+z
1/2+x,1/2+y,z
1/2-x,-y,1/2+z
1/2+x,1/2-y,-z
1/2-x,y,1/2-z
1/2-x,1/2-y,-z
1/2+x,y,1/2-z
1/2-x,1/2+y,z
1/2+x,-y,1/2+z
loop_
_atom_site_type_symbol
_atom_site_label
_atom_site_fract_x
_atom_site_fract_y
_atom_site_fract_z
Si Si1 0.138904 0.147523 0.266020
Si Si2 0.181257 0.952587 0.838780
Si Si3 0.359864 0.265882 0.233160
Si Si4 0.393501 0.177452 0.533660
Si Si5 0.895386 0.873233 0.347103
Si Si6 0.891518 0.431653 0.342204
Si Si7 0.781297 0.133338 0.460338
O O1 0.250000 0.148842 0.250000
O O2 0.112245 0.093787 0.206254
O O3 0.103685 0.206551 0.239224
O O4 0.138185 0.144107 0.381870
O O5 0.250000 0.964301 0.750000
O O6 0.235894 0.922194 0.922807
O O7 0.143345 0.009762 0.871884
O O8 0.250000 0.266980 0.250000
O O9 0.380956 0.280189 0.121431
O O10 0.398691 0.314223 0.297506
O O11 0.500000 0.181292 0.497727
O O12 0.381309 0.118223 0.584228
O O13 0.303692 0.177078 0.463944
O O14 0.857715 0.912527 0.263161
O O15 0.827634 0.871102 0.436519
O O16 0.000000 0.888684 0.374516
O O17 0.000000 0.437323 0.328830
#
# Coordination Sequence:
#
# PCOD9476593 Si02
#       7
#    16  16  16  16  16  16  16
#     4   8  19  38  57  82 116 161 200 238 299 363
#     4   9  20  38  56  82 114 158 202 232 299 375
#     4  10  17  35  62  82 114 159 196 242 299 355
#     4  10  21  35  56  92 122 145 195 255 303 348
#     4  10  21  38  61  94 122 152 204 252 301 352
#     4   9  20  37  57  82 119 157 195 251 299 355
#     4  10  20  38  60  90 116 157 194 250 302 343
#
# _framework density 22.591546999999998
#
# number of rings (size 3 to 8) (size 9 to 14) (size 15 to 20)
#    0.000    2.857    1.429    1.286    2.000    1.714 
#    5.143    7.143    0.000   15.429    0.000    0.000 
#    0.000    0.000    0.000    0.000    0.000    0.000 
#
# Total GULP energy -312404.694748 kJ/mol
# GULP energy per Si atom -5578.655263 kJ/mol
# Density = 2.254013 g / cm^3
# Si number density = 22.591547 Si / 1000 Ang^3
#
#
#
# Elastic Constant Matrix: (Units=GPa)
#
#
# Indices 1 2 3 4 5 6 
#
# 1 99.0500 1.9139 9.3918 0.0000 0.0000 0.0000
# 2 1.9139 136.0973 10.9041 0.0000 0.0000 0.0000
# 3 9.3918 10.9041 61.3417 0.0000 0.0000 0.0000
# 4 0.0000 0.0000 0.0000 1.4791 0.0000 0.0000
# 5 0.0000 0.0000 0.0000 0.0000 -3.0548 0.0000
# 6 0.0000 0.0000 0.0000 0.0000 0.0000 162.7954
#
#
#
# Elastic Compliance Matrix: (Units=1/GPa)
#
#
# Indices 1 2 3 4 5 6 
#
# 1 0.010245 -0.000019 -0.001565 0.000000 0.000000 0.000000
# 2 -0.000019 0.007454 -0.001322 0.000000 0.000000 0.000000
# 3 -0.001565 -0.001322 0.016777 0.000000 0.000000 0.000000
# 4 0.000000 0.000000 0.000000 0.676072 0.000000 0.000000
# 5 0.000000 0.000000 0.000000 0.000000 -0.327356 0.000000
# 6 0.000000 0.000000 0.000000 0.000000 0.000000 0.006143
#
#
# Mechanical properties :
#
#
# Convention : Reuss Voigt Hill
#
# Bulk Modulus (GPa) = 34.88779 37.87874 36.38327
# Shear Modulus (GPa) = 12.35480 50.52922 31.44201
#
# Velocity S-wave (km/s) = 2.34108 4.73445 3.73468
# Velocity P-wave (km/s) = 4.77325 6.83299 5.89380
#
# Compressibility (1/GPa) = 0.02866332
#
# Stress axis : x y z
#
# Youngs Moduli (GPa) = 97.61156 134.15838 59.60610
#
# Poissons Ratio (x) = 0.00250 0.09330
# Poissons Ratio (y) = 0.00182 0.07881
# Poissons Ratio (z) = 0.15278 0.17738
#
# Static dielectric constant tensor:
#      x y z
#    x 1.882890 0.000000 0.000000 
#    y 0.000000 1.857730 0.000000 
#    z 0.000000 0.000000 1.941100 
# 
# From -- ./inp_files/24394.got.cif
#   From: 2010.05.17/outbox.cif.g08.bks.cpg/sg64_13_cif.got.tgz:24394.got - 2010.06.03 16:29:19.
