data_PCOD9476751
_publ_section_title
;
Structure prediction by ZEFSAII (Michael W. Deem and Ramdas Pophale) SiO2 
 PCOD9476751
Probable space group: C M C A
;
_chemical_formula_sum "Si O2"
_cell_formula_units_Z 128
_cell_length_a 17.376783
_cell_length_b 17.533484
_cell_length_c 21.997552
_cell_angle_alpha 90.000000
_cell_angle_beta 90.000000
_cell_angle_gamma 90.000000
_cell_volume 6702.116182
_symmetry_space_group_name_H-M "C M C A"
_symmetry_group_IT_number 64
_symmetry_cell_setting 'orthorhombic'
loop_
_space_group_symop_operation_xyz
x,y,z
-x,1/2-y,1/2+z
x,-y,-z
-x,1/2+y,1/2-z
-x,-y,-z
x,1/2+y,1/2-z
-x,y,z
x,1/2-y,1/2+z
1/2+x,1/2+y,z
1/2-x,-y,1/2+z
1/2+x,1/2-y,-z
1/2-x,y,1/2-z
1/2-x,1/2-y,-z
1/2+x,y,1/2-z
1/2-x,1/2+y,z
1/2+x,-y,1/2+z
loop_
_atom_site_type_symbol
_atom_site_label
_atom_site_fract_x
_atom_site_fract_y
_atom_site_fract_z
Si Si1 0.911571 0.663668 0.765649
Si Si2 0.836250 0.089342 0.073924
Si Si3 0.587690 0.023769 0.844001
Si Si4 0.844790 0.617748 0.094342
Si Si5 0.322693 0.775906 0.349467
Si Si6 0.355799 0.754922 0.625179
Si Si7 0.859571 0.614366 0.957272
Si Si8 0.680695 0.580811 0.935588
O O1 0.882662 0.582153 0.792465
O O2 0.857884 0.699984 0.714661
O O3 0.909603 0.718352 0.824265
O O4 0.000000 0.655205 0.744622
O O5 0.746027 0.110243 0.081008
O O6 0.875212 0.157826 0.110363
O O7 0.844539 0.000735 0.091360
O O8 0.854959 0.092351 0.002295
O O9 0.500000 0.005430 0.828984
O O10 0.590573 0.069929 0.907772
O O11 0.632890 0.946910 0.857709
O O12 0.860847 0.700643 0.121816
O O13 0.881979 0.606327 0.027547
O O14 0.231301 0.757170 0.349165
O O15 0.335052 0.848235 0.392928
O O16 0.357906 0.702616 0.564299
O O17 0.773323 0.580469 0.947014
#
# Coordination Sequence:
#
# PCOD9476751 Si02
#       8
#    16  16  16  16  16  16  16  16
#     4  10  22  40  55  69 102 148 186 220 264 314
#     4   9  16  29  52  83 111 130 166 212 267 322
#     4  10  20  33  50  73 105 146 182 214 263 326
#     4  10  18  30  50  80 107 132 168 219 268 319
#     4  10  20  34  55  78 105 139 182 221 265 307
#     4   9  18  33  55  80 106 137 178 220 260 314
#     4   9  16  29  50  77 112 136 161 209 274 325
#     4   9  16  29  52  81 110 137 162 212 269 317
#
# _framework density 19.098444000000001
#
# number of rings (size 3 to 8) (size 9 to 14) (size 15 to 20)
#    0.000    2.500    1.250    1.500    0.000    4.500 
#    2.250    0.000    0.000    2.250    0.000    1.750 
#    0.000    0.000    0.000    0.000    0.000    0.000 
#
# Total GULP energy -356699.210283 kJ/mol
# GULP energy per Si atom -5573.425161 kJ/mol
# Density = 1.905498 g / cm^3
# Si number density = 19.098444 Si / 1000 Ang^3
#
#
#
# Elastic Constant Matrix: (Units=GPa)
#
#
# Indices 1 2 3 4 5 6 
#
# 1 10.9090 7.0688 4.8439 0.0000 0.0000 0.0000
# 2 7.0688 150.4476 48.1760 0.0000 0.0000 0.0000
# 3 4.8439 48.1760 62.5275 0.0000 0.0000 0.0000
# 4 0.0000 0.0000 0.0000 19.1758 0.0000 0.0000
# 5 0.0000 0.0000 0.0000 0.0000 -3.8016 0.0000
# 6 0.0000 0.0000 0.0000 0.0000 0.0000 0.3665
#
#
#
# Elastic Compliance Matrix: (Units=1/GPa)
#
#
# Indices 1 2 3 4 5 6 
#
# 1 0.095827 -0.002821 -0.005250 0.000000 0.000000 0.000000
# 2 -0.002821 0.008907 -0.006644 0.000000 0.000000 0.000000
# 3 -0.005250 -0.006644 0.021519 0.000000 0.000000 0.000000
# 4 0.000000 0.000000 0.000000 0.052149 0.000000 0.000000
# 5 0.000000 0.000000 0.000000 0.000000 -0.263046 0.000000
# 6 0.000000 0.000000 0.000000 0.000000 0.000000 2.728750
#
#
# Mechanical properties :
#
#
# Convention : Reuss Voigt Hill
#
# Bulk Modulus (GPa) = 10.32822 38.22904 24.27863
# Shear Modulus (GPa) = 1.84788 14.06783 7.95785
#
# Velocity S-wave (km/s) = 0.98471 2.71697 2.04348
# Velocity P-wave (km/s) = 2.59085 5.46835 4.27875
#
# Compressibility (1/GPa) = 0.09682212
#
# Stress axis : x y z
#
# Youngs Moduli (GPa) = 10.43551 112.27215 46.47113
#
# Poissons Ratio (x) = 0.31676 0.24396
# Poissons Ratio (y) = 0.02944 0.30876
# Poissons Ratio (z) = 0.05478 0.74594
#
# Static dielectric constant tensor:
#      x y z
#    x 1.681810 0.000000 0.000000 
#    y 0.000000 1.690030 0.000000 
#    z 0.000000 0.000000 1.655930 
# 
# From -- ./inp_files/41163.got.cif
#   From: 2010.05.17/outbox.cif.g08.bks.cpg/sg64_21_cif.got.tgz:41163.got - 2010.06.03 16:29:19.
