data_PCOD9476962
_publ_section_title
;
Structure prediction by ZEFSAII (Michael W. Deem and Ramdas Pophale) SiO2 
 PCOD9476962
Probable space group: C M C A
;
_chemical_formula_sum "Si O2"
_cell_formula_units_Z 96
_cell_length_a 21.505440
_cell_length_b 25.507804
_cell_length_c 7.924612
_cell_angle_alpha 90.000000
_cell_angle_beta 90.000000
_cell_angle_gamma 90.000000
_cell_volume 4347.097807
_symmetry_space_group_name_H-M "C M C A"
_symmetry_group_IT_number 64
_symmetry_cell_setting 'orthorhombic'
loop_
_space_group_symop_operation_xyz
x,y,z
-x,1/2-y,1/2+z
x,-y,-z
-x,1/2+y,1/2-z
-x,-y,-z
x,1/2+y,1/2-z
-x,y,z
x,1/2-y,1/2+z
1/2+x,1/2+y,z
1/2-x,-y,1/2+z
1/2+x,1/2-y,-z
1/2-x,y,1/2-z
1/2-x,1/2-y,-z
1/2+x,y,1/2-z
1/2-x,1/2+y,z
1/2+x,-y,1/2+z
loop_
_atom_site_type_symbol
_atom_site_label
_atom_site_fract_x
_atom_site_fract_y
_atom_site_fract_z
Si Si1 0.881135 0.190914 0.695512
Si Si2 0.185614 0.280856 0.516304
Si Si3 0.574046 0.592425 0.809372
Si Si4 0.573698 0.521372 0.308787
Si Si5 0.377840 0.623372 0.180056
Si Si6 0.000000 0.777145 0.084155
Si Si7 0.500000 0.673488 0.286831
O O1 0.826015 0.195971 0.831705
O O2 0.864156 0.234719 0.559230
O O3 0.892758 0.129102 0.669117
O O4 0.940982 0.207826 0.803914
O O5 0.250000 0.250000 0.500000
O O6 0.172604 0.329556 0.647922
O O7 0.500000 0.599164 0.792219
O O8 0.586002 0.530985 0.797621
O O9 0.596214 0.611977 0.991941
O O10 0.500000 0.537926 0.277597
O O11 0.624978 0.565398 0.262768
O O12 0.924006 0.500000 0.000000
O O13 0.434457 0.645634 0.290240
O O14 0.000000 0.715123 0.065812
O O15 0.000000 0.801767 0.901002
#
# Coordination Sequence:
#
# PCOD9476962 Si02
#       7
#    16  16  16  16  16   8   8
#     4  11  20  36  57  84 121 155 201 252 312 384
#     4  11  24  38  56  84 119 164 214 262 310 374
#     4  10  18  33  55  83 120 159 196 239 305 390
#     4  10  21  34  51  88 129 159 197 251 317 386
#     4  11  19  36  57  79 120 167 204 249 306 391
#     4  12  18  36  53  88 120 157 199 250 317 384
#     4  12  20  34  53  87 125 163 202 241 323 386
#
# _framework density 22.083697000000001
#
# number of rings (size 3 to 8) (size 9 to 14) (size 15 to 20)
#    0.000    1.167    7.500    1.000    0.000    2.667 
#    3.000    0.000    0.000    0.000    0.000   28.000 
#    0.000    0.000    0.000    0.000    0.000    0.000 
#
# Total GULP energy -267671.295849 kJ/mol
# GULP energy per Si atom -5576.485330 kJ/mol
# Density = 2.203343 g / cm^3
# Si number density = 22.083697 Si / 1000 Ang^3
#
#
#
# Elastic Constant Matrix: (Units=GPa)
#
#
# Indices 1 2 3 4 5 6 
#
# 1 90.2280 51.7827 15.9425 0.0000 0.0000 0.0000
# 2 51.7827 150.0508 28.2003 0.0000 0.0000 0.0000
# 3 15.9425 28.2003 56.6911 0.0000 0.0000 0.0000
# 4 0.0000 0.0000 0.0000 35.0288 0.0000 0.0000
# 5 0.0000 0.0000 0.0000 0.0000 18.7332 0.0000
# 6 0.0000 0.0000 0.0000 0.0000 0.0000 31.5304
#
#
#
# Elastic Compliance Matrix: (Units=1/GPa)
#
#
# Indices 1 2 3 4 5 6 
#
# 1 0.013965 -0.004502 -0.001688 0.000000 0.000000 0.000000
# 2 -0.004502 0.008803 -0.003113 0.000000 0.000000 0.000000
# 3 -0.001688 -0.003113 0.019663 0.000000 0.000000 0.000000
# 4 0.000000 0.000000 0.000000 0.028548 0.000000 0.000000
# 5 0.000000 0.000000 0.000000 0.000000 0.053381 0.000000
# 6 0.000000 0.000000 0.000000 0.000000 0.000000 0.031715
#
#
# Mechanical properties :
#
#
# Convention : Reuss Voigt Hill
#
# Bulk Modulus (GPa) = 41.97235 54.31342 48.14289
# Shear Modulus (GPa) = 27.37889 30.46145 28.92017
#
# Velocity S-wave (km/s) = 3.52487 3.71801 3.62273
# Velocity P-wave (km/s) = 5.96771 6.56347 6.27267
#
# Compressibility (1/GPa) = 0.02382521
#
# Stress axis : x y z
#
# Youngs Moduli (GPa) = 71.60714 113.59559 50.85818
#
# Poissons Ratio (x) = 0.51143 0.08583
# Poissons Ratio (y) = 0.32239 0.15832
# Poissons Ratio (z) = 0.12085 0.35361
#
# Static dielectric constant tensor:
#      x y z
#    x 1.835360 0.000000 0.000000 
#    y 0.000000 1.960540 0.000000 
#    z 0.000000 0.000000 1.882400 
# 
# From -- ./inp_files/17494.got.cif
#   From: 2010.05.17/outbox.cif.g08.bks.cpg/sg64_9_cif.got.tgz:17494.got - 2010.06.03 16:29:19.
