data_PCOD9476100
_publ_section_title
;
Structure prediction by ZEFSAII (Michael W. Deem and Ramdas Pophale) SiO2 
 PCOD9476100
Probable space group: C M C M
;
_chemical_formula_sum "Si O2"
_cell_formula_units_Z 52
_cell_length_a 21.000000
_cell_length_b 30.000000
_cell_length_c 9.000000
_cell_angle_alpha 90.000000
_cell_angle_beta 90.000000
_cell_angle_gamma 90.000000
_cell_volume 5670.000000
_symmetry_space_group_name_H-M "C M C M"
_symmetry_group_IT_number 63
_symmetry_cell_setting 'orthorhombic'
loop_
_space_group_symop_operation_xyz
x,y,z
-x,-y,1/2+z
x,-y,-z
-x,y,1/2-z
-x,-y,-z
x,y,1/2-z
-x,y,z
x,-y,1/2+z
1/2+x,1/2+y,z
1/2-x,1/2-y,1/2+z
1/2+x,1/2-y,-z
1/2-x,1/2+y,1/2-z
1/2-x,1/2-y,-z
1/2+x,1/2+y,1/2-z
1/2-x,1/2+y,z
1/2+x,1/2-y,1/2+z
loop_
_atom_site_type_symbol
_atom_site_label
_atom_site_fract_x
_atom_site_fract_y
_atom_site_fract_z
Si Si1 0.070824 0.329292 0.575134
Si Si2 0.070332 0.766494 0.925459
Si Si3 0.760945 0.544973 0.079128
Si Si4 0.679018 0.323113 0.075409
Si Si5 0.194478 0.635472 0.573320
Si Si6 0.500000 0.547660 0.426663
Si Si7 0.132862 0.090193 0.422927
O O1 0.085240 0.331146 0.750000
O O2 0.069301 0.278580 0.519331
O O3 0.125061 0.352501 0.481512
O O4 0.000000 0.348139 0.551334
O O5 0.075677 0.756949 0.750000
O O6 0.000000 0.788764 0.947298
O O7 0.131458 0.793235 0.980480
O O8 0.780613 0.544782 0.250000
O O9 0.684331 0.550726 0.073810
O O10 0.780838 0.500000 0.000000
O O11 0.786798 0.589035 0.001060
O O12 0.673893 0.312541 0.250000
O O13 0.753531 0.326286 0.031099
O O14 0.655254 0.372792 0.038049
O O15 0.198152 0.631461 0.750000
O O16 0.500000 0.500000 0.500000
O O17 0.500000 0.541677 0.250000
O O18 0.563386 0.574206 0.464180
O O19 0.133059 0.107151 0.250000
#
# Coordination Sequence:
#
# PCOD9476100 Si02
#       7
#    16  16  16  16  16   8  16
#     4  10  21  38  60  85 111 139 174 217 265 320
#     4  10  21  36  55  78 107 146 187 225 268 321
#     4  10  19  33  54  78 106 140 178 222 269 318
#     4  10  21  35  52  77 107 140 182 228 271 314
#     4  10  21  37  57  82 111 143 180 220 266 322
#     4  10  20  32  46  66  94 130 176 224 272 322
#     4   9  19  33  48  69 100 138 178 223 272 321
#
# _framework density 9.1710759999999993
#
# number of rings (size 3 to 8) (size 9 to 14) (size 15 to 20)
#    0.000    2.154    0.000    2.769    1.077    5.538 
#    0.000    0.000    0.000    0.462    0.000    0.000 
#    0.000    0.000    0.000    0.000    0.000    0.000 
#
# Total GULP energy -289853.984903 kJ/mol
# GULP energy per Si atom -5574.115094 kJ/mol
# Density = 0.915020 g / cm^3
# Si number density = 9.171076 Si / 1000 Ang^3
#
#
#
# Elastic Constant Matrix: (Units=GPa)
#
#
# Indices 1 2 3 4 5 6 
#
# 1 68.0711 22.4879 36.3644 0.0000 0.0000 0.0000
# 2 22.4879 28.6620 9.5380 0.0000 0.0000 0.0000
# 3 36.3644 9.5380 49.1095 0.0000 0.0000 0.0000
# 4 0.0000 0.0000 0.0000 32.3769 0.0000 0.0000
# 5 0.0000 0.0000 0.0000 0.0000 27.0251 0.0000
# 6 0.0000 0.0000 0.0000 0.0000 0.0000 24.0693
#
#
#
# Elastic Compliance Matrix: (Units=1/GPa)
#
#
# Indices 1 2 3 4 5 6 
#
# 1 0.030989 -0.017830 -0.019484 0.000000 0.000000 0.000000
# 2 -0.017830 0.047559 0.003966 0.000000 0.000000 0.000000
# 3 -0.019484 0.003966 0.034020 0.000000 0.000000 0.000000
# 4 0.000000 0.000000 0.000000 0.030886 0.000000 0.000000
# 5 0.000000 0.000000 0.000000 0.000000 0.037003 0.000000
# 6 0.000000 0.000000 0.000000 0.000000 0.000000 0.041547
#
#
# Mechanical properties :
#
#
# Convention : Reuss Voigt Hill
#
# Bulk Modulus (GPa) = 21.79989 31.40258 26.60123
# Shear Modulus (GPa) = 16.44788 21.85776 19.15282
#
# Velocity S-wave (km/s) = 2.99779 3.45580 3.23491
# Velocity P-wave (km/s) = 4.88807 5.75161 5.33733
#
# Compressibility (1/GPa) = 0.04587180
#
# Stress axis : x y z
#
# Youngs Moduli (GPa) = 32.26914 21.02650 29.39473
#
# Poissons Ratio (x) = 0.37491 0.57272
# Poissons Ratio (y) = 0.57536 -0.11658
# Poissons Ratio (z) = 0.62873 -0.08339
#
# Static dielectric constant tensor:
#      x y z
#    x 1.687540 0.000000 0.000000 
#    y 0.000000 1.587920 0.000000 
#    z 0.000000 0.000000 1.607470 
# 
# From -- ./inp_files/9128.got.cif
#   From: 2010.05.17/outbox.ucp.g08.bks.cvg/sg63_5_cif.got.tgz:9128.got - 2010.06.11 16:32:19.
