data_PCOD9476541
_publ_section_title
;
Structure prediction by ZEFSAII (Michael W. Deem and Ramdas Pophale) SiO2 
 PCOD9476541
Probable space group: C M C A
;
_chemical_formula_sum "Si O2"
_cell_formula_units_Z 96
_cell_length_a 13.995627
_cell_length_b 19.400692
_cell_length_c 18.550244
_cell_angle_alpha 90.000000
_cell_angle_beta 90.000000
_cell_angle_gamma 90.000000
_cell_volume 5036.852197
_symmetry_space_group_name_H-M "C M C A"
_symmetry_group_IT_number 64
_symmetry_cell_setting 'orthorhombic'
loop_
_space_group_symop_operation_xyz
x,y,z
-x,1/2-y,1/2+z
x,-y,-z
-x,1/2+y,1/2-z
-x,-y,-z
x,1/2+y,1/2-z
-x,y,z
x,1/2-y,1/2+z
1/2+x,1/2+y,z
1/2-x,-y,1/2+z
1/2+x,1/2-y,-z
1/2-x,y,1/2-z
1/2-x,1/2-y,-z
1/2+x,y,1/2-z
1/2-x,1/2+y,z
1/2+x,-y,1/2+z
loop_
_atom_site_type_symbol
_atom_site_label
_atom_site_fract_x
_atom_site_fract_y
_atom_site_fract_z
Si Si1 0.392793 0.316752 0.085851
Si Si2 0.890566 0.810874 0.397129
Si Si3 0.315075 0.340016 0.927504
Si Si4 0.106370 0.483766 0.585378
Si Si5 0.765073 0.088776 0.832337
Si Si6 0.897388 0.841458 0.567960
O O1 0.500000 0.340215 0.068316
O O2 0.348280 0.355121 0.153254
O O3 0.396913 0.235833 0.098973
O O4 0.329910 0.330225 0.014103
O O5 0.840776 0.734926 0.394526
O O6 0.828752 0.870892 0.360381
O O7 0.896550 0.830419 0.481718
O O8 0.000000 0.805934 0.370541
O O9 0.382849 0.402014 0.904199
O O10 0.207759 0.367179 0.912770
O O11 0.111999 0.500000 0.500000
O O12 0.192716 0.524762 0.622811
O O13 0.000000 0.504938 0.610563
O O14 0.750000 0.070118 0.750000
O O15 0.000000 0.875011 0.587190
#
# Coordination Sequence:
#
# PCOD9476541 Si02
#       6
#    16  16  16  16  16  16
#     4  10  17  31  57  87 114 145 192 247 295 343
#     4  10  19  34  56  84 113 149 190 234 292 354
#     4  11  17  34  61  91 117 141 193 258 301 337
#     4  11  22  37  62  91 117 153 206 262 305 348
#     4  12  24  38  54  83 122 165 191 243 310 372
#     4   9  16  28  56  90 118 144 178 233 297 352
#
# _framework density 19.059522000000001
#
# number of rings (size 3 to 8) (size 9 to 14) (size 15 to 20)
#    0.000    1.500    5.000    4.000    0.000    1.333 
#    0.000    1.667    0.000    3.000    0.000    0.000 
#    0.000    0.000    0.000    0.000    0.000    0.000 
#
# Total GULP energy -267373.743416 kJ/mol
# GULP energy per Si atom -5570.286321 kJ/mol
# Density = 1.901614 g / cm^3
# Si number density = 19.059522 Si / 1000 Ang^3
#
#
#
# Elastic Constant Matrix: (Units=GPa)
#
#
# Indices 1 2 3 4 5 6 
#
# 1 160.6536 28.8922 22.3309 0.0000 0.0000 0.0000
# 2 28.8922 68.1987 20.5450 0.0000 0.0000 0.0000
# 3 22.3309 20.5450 42.4865 0.0000 0.0000 0.0000
# 4 0.0000 0.0000 0.0000 9.7860 0.0000 0.0000
# 5 0.0000 0.0000 0.0000 0.0000 1.6142 0.0000
# 6 0.0000 0.0000 0.0000 0.0000 0.0000 -20.5337
#
#
#
# Elastic Compliance Matrix: (Units=1/GPa)
#
#
# Indices 1 2 3 4 5 6 
#
# 1 0.006978 -0.002167 -0.002620 0.000000 0.000000 0.000000
# 2 -0.002167 0.017836 -0.007486 0.000000 0.000000 0.000000
# 3 -0.002620 -0.007486 0.028534 0.000000 0.000000 0.000000
# 4 0.000000 0.000000 0.000000 0.102187 0.000000 0.000000
# 5 0.000000 0.000000 0.000000 0.000000 0.619516 0.000000
# 6 0.000000 0.000000 0.000000 0.000000 0.000000 -0.048700
#
#
# Mechanical properties :
#
#
# Convention : Reuss Voigt Hill
#
# Bulk Modulus (GPa) = 34.71914 46.09724 40.40819
# Shear Modulus (GPa) = 6.57464 11.47800 9.02632
#
# Velocity S-wave (km/s) = 1.85931 2.45668 2.17856
# Velocity P-wave (km/s) = 4.78174 5.68203 5.25122
#
# Compressibility (1/GPa) = 0.02880256
#
# Stress axis : x y z
#
# Youngs Moduli (GPa) = 143.29745 56.06543 35.04610
#
# Poissons Ratio (x) = 0.12150 0.09182
# Poissons Ratio (y) = 0.31055 0.26235
# Poissons Ratio (z) = 0.37543 0.41970
#
# Static dielectric constant tensor:
#      x y z
#    x 1.762490 0.000000 0.000000 
#    y 0.000000 1.796140 0.000000 
#    z 0.000000 0.000000 1.627010 
# 
# From -- ./inp_files/39538.got.cif
#   From: 2010.05.17/outbox.cif.g08.bks.cpg/sg64_20_cif.got.tgz:39538.got - 2010.06.03 16:29:19.
