data_PCOD9476243
_publ_section_title
;
Structure prediction by ZEFSAII (Michael W. Deem and Ramdas Pophale) SiO2 
 PCOD9476243
Probable space group: C M C M
;
_chemical_formula_sum "Si O2"
_cell_formula_units_Z 52
_cell_length_a 21.000000
_cell_length_b 27.000000
_cell_length_c 9.000000
_cell_angle_alpha 90.000000
_cell_angle_beta 90.000000
_cell_angle_gamma 90.000000
_cell_volume 5103.000000
_symmetry_space_group_name_H-M "C M C M"
_symmetry_group_IT_number 63
_symmetry_cell_setting 'orthorhombic'
loop_
_space_group_symop_operation_xyz
x,y,z
-x,-y,1/2+z
x,-y,-z
-x,y,1/2-z
-x,-y,-z
x,y,1/2-z
-x,y,z
x,-y,1/2+z
1/2+x,1/2+y,z
1/2-x,1/2-y,1/2+z
1/2+x,1/2-y,-z
1/2-x,1/2+y,1/2-z
1/2-x,1/2-y,-z
1/2+x,1/2+y,1/2-z
1/2-x,1/2+y,z
1/2+x,1/2-y,1/2+z
loop_
_atom_site_type_symbol
_atom_site_label
_atom_site_fract_x
_atom_site_fract_y
_atom_site_fract_z
Si Si1 0.211695 0.448228 0.578941
Si Si2 0.330795 0.385352 0.579051
Si Si3 0.882866 0.623382 0.572941
Si Si4 0.000000 0.552658 0.574304
Si Si5 0.302113 0.714166 0.926778
Si Si6 0.573074 0.774539 0.927980
Si Si7 0.923958 0.051133 0.917990
O O1 0.198406 0.500000 0.500000
O O2 0.191355 0.451339 0.750000
O O3 0.285537 0.433491 0.573276
O O4 0.177121 0.402523 0.500666
O O5 0.338869 0.371123 0.750000
O O6 0.298688 0.340413 0.492644
O O7 0.395487 0.402290 0.503165
O O8 0.875677 0.627275 0.750000
O O9 0.939203 0.585224 0.536090
O O10 0.902292 0.675893 0.506613
O O11 0.000000 0.500000 0.500000
O O12 0.000000 0.545264 0.750000
O O13 0.292761 0.714159 0.750000
O O14 0.373659 0.733477 0.959772
O O15 0.250000 0.750000 0.000000
O O16 0.573331 0.782415 0.750000
O O17 0.500000 0.763403 0.972233
O O18 0.898859 0.050131 0.750000
O O19 0.000000 0.054516 0.913683
O O20 0.908313 0.000000 0.000000
#
# Coordination Sequence:
#
# PCOD9476243 Si02
#       7
#    16  16  16   8  16  16  16
#     4  11  24  40  59  87 121 159 203 248 298 358
#     4  11  24  41  62  89 122 159 203 254 308 368
#     4  11  22  38  59  86 119 155 199 246 296 353
#     4  10  22  36  52  80 114 148 190 238 285 340
#     4  11  24  42  64  91 123 160 207 260 317 377
#     4  10  22  41  64  89 119 159 204 252 307 365
#     4  10  21  38  62  92 126 163 202 246 300 366
#
# _framework density 10.190084000000001
#
# number of rings (size 3 to 8) (size 9 to 14) (size 15 to 20)
#    0.000    1.385    0.769    4.154    0.000   12.615 
#    0.000    1.538    0.000    0.000    0.000    0.000 
#    0.000    0.000    0.000    0.000    0.000    0.000 
#
# Total GULP energy -290531.062487 kJ/mol
# GULP energy per Si atom -5587.135817 kJ/mol
# Density = 1.016689 g / cm^3
# Si number density = 10.190084 Si / 1000 Ang^3
#
#
#
# Elastic Constant Matrix: (Units=GPa)
#
#
# Indices 1 2 3 4 5 6 
#
# 1 78.4670 50.3291 60.3550 0.0000 0.0000 0.0000
# 2 50.3291 81.2617 41.3078 0.0000 0.0000 0.0000
# 3 60.3550 41.3078 47.8592 0.0000 0.0000 0.0000
# 4 0.0000 0.0000 0.0000 34.4937 0.0000 0.0000
# 5 0.0000 0.0000 0.0000 0.0000 36.1614 0.0000
# 6 0.0000 0.0000 0.0000 0.0000 0.0000 21.8113
#
#
#
# Elastic Compliance Matrix: (Units=1/GPa)
#
#
# Indices 1 2 3 4 5 6 
#
# 1 0.437592 0.016924 -0.566453 0.000000 0.000000 0.000000
# 2 0.016924 0.022580 -0.040833 0.000000 0.000000 0.000000
# 3 -0.566453 -0.040833 0.770490 0.000000 0.000000 0.000000
# 4 0.000000 0.000000 0.000000 0.028991 0.000000 0.000000
# 5 0.000000 0.000000 0.000000 0.000000 0.027654 0.000000
# 6 0.000000 0.000000 0.000000 0.000000 0.000000 0.045848
#
#
# Mechanical properties :
#
#
# Convention : Reuss Voigt Hill
#
# Bulk Modulus (GPa) = 20.02436 56.84130 38.43283
# Shear Modulus (GPa) = 1.97588 22.19970 12.08779
#
# Velocity S-wave (km/s) = 0.98570 3.30400 2.43804
# Velocity P-wave (km/s) = 3.33800 6.51969 5.17921
#
# Compressibility (1/GPa) = 0.04993917
#
# Stress axis : x y z
#
# Youngs Moduli (GPa) = 2.28523 44.28638 1.29788
#
# Poissons Ratio (x) = -0.74952 0.73519
# Poissons Ratio (y) = -0.03868 0.05300
# Poissons Ratio (z) = 1.29448 1.80833
#
# Static dielectric constant tensor:
#      x y z
#    x 1.763400 0.000000 0.000000 
#    y 0.000000 1.708300 0.000000 
#    z 0.000000 0.000000 1.684070 
# 
# From -- ./inp_files/8748.got.cif
#   From: 2010.05.17/outbox.ucp.g08.bks.cvg/sg63_5_cif.got.tgz:8748.got - 2010.06.11 16:32:19.
