data_PCOD9476922
_publ_section_title
;
Structure prediction by ZEFSAII (Michael W. Deem and Ramdas Pophale) SiO2 
 PCOD9476922
Probable space group: C M C A
;
_chemical_formula_sum "Si O2"
_cell_formula_units_Z 88
_cell_length_a 30.423347
_cell_length_b 14.652877
_cell_length_c 7.758404
_cell_angle_alpha 90.000000
_cell_angle_beta 90.000000
_cell_angle_gamma 90.000000
_cell_volume 3458.615517
_symmetry_space_group_name_H-M "C M C A"
_symmetry_group_IT_number 64
_symmetry_cell_setting 'orthorhombic'
loop_
_space_group_symop_operation_xyz
x,y,z
-x,1/2-y,1/2+z
x,-y,-z
-x,1/2+y,1/2-z
-x,-y,-z
x,1/2+y,1/2-z
-x,y,z
x,1/2-y,1/2+z
1/2+x,1/2+y,z
1/2-x,-y,1/2+z
1/2+x,1/2-y,-z
1/2-x,y,1/2-z
1/2-x,1/2-y,-z
1/2+x,y,1/2-z
1/2-x,1/2+y,z
1/2+x,-y,1/2+z
loop_
_atom_site_type_symbol
_atom_site_label
_atom_site_fract_x
_atom_site_fract_y
_atom_site_fract_z
Si Si1 0.154652 0.606461 0.050448
Si Si2 0.060185 0.852788 0.446917
Si Si3 0.250000 0.607958 0.953453
Si Si4 0.345348 0.606461 0.050448
Si Si5 0.939815 0.147212 0.946917
Si Si6 0.000000 0.576773 0.250000
O O1 0.144306 0.616084 0.250000
O O2 0.156738 0.500000 0.000000
O O3 0.113006 0.644580 0.950484
O O4 0.203523 0.644719 0.020238
O O5 0.047360 0.750000 0.500000
O O6 0.046493 0.874626 0.250000
O O7 0.038187 0.586793 0.096027
O O8 0.250000 0.616443 0.750000
O O9 0.250000 0.500000 0.000000
O O10 0.296477 0.644719 0.020238
O O11 0.343262 0.500000 0.000000
O O12 0.386994 0.644580 0.950484
O O13 0.961813 0.086794 0.096027
#
# Coordination Sequence:
#
# PCOD9476922 Si02
#       6
#    16  16  16  16  16   8
#     4  11  21  39  62  92 127 162 201 250 303 361
#     4  12  24  41  66  92 121 160 207 255 305 362
#     4  10  18  32  57  90 119 164 203 237 293 367
#     4  11  21  39  62  92 127 162 201 250 303 361
#     4  12  24  41  66  92 121 160 207 255 305 362
#     4  12  24  44  64  90 120 158 216 246 316 354
#
# _framework density 25.443707
#
# number of rings (size 3 to 8) (size 9 to 14) (size 15 to 20)
#    0.000    0.727    3.636    8.182    0.000    0.000 
#    0.000    1.818    0.000    0.000    0.000    0.000 
#    0.000    0.000    0.000    0.000    0.000    0.000 
#
# Total GULP energy -245425.535736 kJ/mol
# GULP energy per Si atom -5577.853085 kJ/mol
# Density = 2.538580 g / cm^3
# Si number density = 25.443707 Si / 1000 Ang^3
#
#
#
# Elastic Constant Matrix: (Units=GPa)
#
#
# Indices 1 2 3 4 5 6 
#
# 1 264.1769 7.4461 50.9317 0.0000 0.0000 0.0000
# 2 7.4461 82.5469 8.4547 0.0000 0.0000 0.0000
# 3 50.9317 8.4547 265.1697 0.0000 0.0000 0.0000
# 4 0.0000 0.0000 0.0000 17.6649 0.0000 0.0000
# 5 0.0000 0.0000 0.0000 0.0000 76.6703 0.0000
# 6 0.0000 0.0000 0.0000 0.0000 0.0000 1331.9401
#
#
#
# Elastic Compliance Matrix: (Units=1/GPa)
#
#
# Indices 1 2 3 4 5 6 
#
# 1 0.003937 -0.000279 -0.000747 0.000000 0.000000 0.000000
# 2 -0.000279 0.012174 -0.000335 0.000000 0.000000 0.000000
# 3 -0.000747 -0.000335 0.003925 0.000000 0.000000 0.000000
# 4 0.000000 0.000000 0.000000 0.056610 0.000000 0.000000
# 5 0.000000 0.000000 0.000000 0.000000 0.013043 0.000000
# 6 0.000000 0.000000 0.000000 0.000000 0.000000 0.000751
#
#
# Mechanical properties :
#
#
# Convention : Reuss Voigt Hill
#
# Bulk Modulus (GPa) = 57.75278 82.83983 70.29630
# Shear Modulus (GPa) = 50.53949 321.59246 186.06598
#
# Velocity S-wave (km/s) = 4.46166 11.25469 8.56080
# Velocity P-wave (km/s) = 7.02064 14.19576 11.19841
#
# Compressibility (1/GPa) = 0.01731518
#
# Stress axis : x y z
#
# Youngs Moduli (GPa) = 253.98230 82.14411 254.75206
#
# Poissons Ratio (x) = 0.02289 0.19039
# Poissons Ratio (y) = 0.07076 0.08525
# Poissons Ratio (z) = 0.18982 0.02749
#
# Static dielectric constant tensor:
#      x y z
#    x 2.064420 0.000000 0.000000 
#    y 0.000000 2.065780 0.000000 
#    z 0.000000 0.000000 1.908880 
# 
# From -- ./inp_files/11150.got.cif
#   From: 2010.05.17/outbox.cif.g08.bks.cpg/sg64_6_cif.got.tgz:11150.got - 2010.06.03 16:29:19.
