data_PCOD9476103
_publ_section_title
;
Structure prediction by ZEFSAII (Michael W. Deem and Ramdas Pophale) SiO2 
 PCOD9476103
Probable space group: C M C M
;
_chemical_formula_sum "Si O2"
_cell_formula_units_Z 48
_cell_length_a 9.000000
_cell_length_b 24.000000
_cell_length_c 24.000000
_cell_angle_alpha 90.000000
_cell_angle_beta 90.000000
_cell_angle_gamma 90.000000
_cell_volume 5184.000000
_symmetry_space_group_name_H-M "C M C M"
_symmetry_group_IT_number 63
_symmetry_cell_setting 'orthorhombic'
loop_
_space_group_symop_operation_xyz
x,y,z
-x,-y,1/2+z
x,-y,-z
-x,y,1/2-z
-x,-y,-z
x,y,1/2-z
-x,y,z
x,-y,1/2+z
1/2+x,1/2+y,z
1/2-x,1/2-y,1/2+z
1/2+x,1/2-y,-z
1/2-x,1/2+y,1/2-z
1/2-x,1/2-y,-z
1/2+x,1/2+y,1/2-z
1/2-x,1/2+y,z
1/2+x,1/2-y,1/2+z
loop_
_atom_site_type_symbol
_atom_site_label
_atom_site_fract_x
_atom_site_fract_y
_atom_site_fract_z
Si Si1 0.318846 0.347846 0.750000
Si Si2 0.176845 0.160907 0.475321
Si Si3 0.824282 0.460425 0.144718
Si Si4 0.166401 0.033110 0.442459
Si Si5 0.680494 0.720618 0.361246
Si Si6 0.179365 0.339225 0.097210
Si Si7 0.321713 0.479723 0.750000
O O1 0.500000 0.347240 0.750000
O O2 0.270850 0.314731 0.806626
O O3 0.275141 0.413647 0.750000
O O4 0.196473 0.096948 0.456592
O O5 0.228884 0.196067 0.421465
O O6 0.255407 0.168923 0.534913
O O7 0.000000 0.171114 0.482916
O O8 0.786643 0.503627 0.095657
O O9 0.775010 0.398706 0.123926
O O10 0.740075 0.486420 0.197211
O O11 0.000000 0.457675 0.155985
O O12 0.000000 0.029725 0.416340
O O13 0.161411 0.000000 0.500000
O O14 0.500000 0.717005 0.360853
O O15 0.720068 0.786169 0.364126
O O16 0.000000 0.340067 0.092322
O O17 0.500000 0.479895 0.750000
#
# Coordination Sequence:
#
# PCOD9476103 Si02
#       7
#     8  16  16  16  16  16   8
#     4   9  18  36  61  83 103 133 182 235 278 326
#     4  10  19  33  55  82 112 145 187 233 277 325
#     4  11  23  37  55  83 118 151 185 226 280 338
#     4  10  19  33  55  82 111 146 189 232 275 325
#     4   9  18  33  55  81 107 141 183 228 275 328
#     4  10  21  35  53  81 115 147 182 222 274 336
#     4  11  23  40  63  85 109 143 188 235 280 332
#
# _framework density 9.2592590000000001
#
# number of rings (size 3 to 8) (size 9 to 14) (size 15 to 20)
#    0.000    2.000    1.667    2.250    0.000    5.000 
#    0.000    2.500    0.000    2.000    0.000    0.000 
#    0.000    0.000    0.000    0.000    0.000    0.000 
#
# Total GULP energy -267735.891907 kJ/mol
# GULP energy per Si atom -5577.831081 kJ/mol
# Density = 0.923818 g / cm^3
# Si number density = 9.259259 Si / 1000 Ang^3
#
#
#
# Elastic Constant Matrix: (Units=GPa)
#
#
# Indices 1 2 3 4 5 6 
#
# 1 27.3157 28.1876 30.0401 0.0000 0.0000 0.0000
# 2 28.1876 118.0126 65.3638 0.0000 0.0000 0.0000
# 3 30.0401 65.3638 135.1593 0.0000 0.0000 0.0000
# 4 0.0000 0.0000 0.0000 26.4864 0.0000 0.0000
# 5 0.0000 0.0000 0.0000 0.0000 35.4231 0.0000
# 6 0.0000 0.0000 0.0000 0.0000 0.0000 -90.7283
#
#
#
# Elastic Compliance Matrix: (Units=1/GPa)
#
#
# Indices 1 2 3 4 5 6 
#
# 1 0.054114 -0.008555 -0.007890 0.000000 0.000000 0.000000
# 2 -0.008555 0.012926 -0.004350 0.000000 0.000000 0.000000
# 3 -0.007890 -0.004350 0.011256 0.000000 0.000000 0.000000
# 4 0.000000 0.000000 0.000000 0.037755 0.000000 0.000000
# 5 0.000000 0.000000 0.000000 0.000000 0.028230 0.000000
# 6 0.000000 0.000000 0.000000 0.000000 0.000000 -0.011022
#
#
# Mechanical properties :
#
#
# Convention : Reuss Voigt Hill
#
# Bulk Modulus (GPa) = 27.24314 58.63006 42.93660
# Shear Modulus (GPa) = 26.72577 4.69599 15.71088
#
# Velocity S-wave (km/s) = 3.80306 1.59416 2.91587
# Velocity P-wave (km/s) = 5.83331 5.92599 5.87984
#
# Compressibility (1/GPa) = 0.03670649
#
# Stress axis : x y z
#
# Youngs Moduli (GPa) = 18.47941 77.36129 88.84289
#
# Poissons Ratio (x) = 0.66186 0.70096
# Poissons Ratio (y) = 0.15810 0.38645
# Poissons Ratio (z) = 0.14580 0.33650
#
# Static dielectric constant tensor:
#      x y z
#    x 1.639920 0.000000 0.000000 
#    y 0.000000 1.656910 0.000000 
#    z 0.000000 0.000000 1.362960 
# 
# From -- ./inp_files/60004.got.cif
#   From: 2010.05.17/outbox.ucp.g08.bks.cvg/sg63_31_cif.got.tgz:60004.got - 2010.06.11 16:32:19.
