data_PCOD9476267
_publ_section_title
;
Structure prediction by ZEFSAII (Michael W. Deem and Ramdas Pophale) SiO2 
 PCOD9476267
Probable space group: C M C M
;
_chemical_formula_sum "Si O2"
_cell_formula_units_Z 48
_cell_length_a 15.000000
_cell_length_b 21.000000
_cell_length_c 15.000000
_cell_angle_alpha 90.000000
_cell_angle_beta 90.000000
_cell_angle_gamma 90.000000
_cell_volume 4725.000000
_symmetry_space_group_name_H-M "C M C M"
_symmetry_group_IT_number 63
_symmetry_cell_setting 'orthorhombic'
loop_
_space_group_symop_operation_xyz
x,y,z
-x,-y,1/2+z
x,-y,-z
-x,y,1/2-z
-x,-y,-z
x,y,1/2-z
-x,y,z
x,-y,1/2+z
1/2+x,1/2+y,z
1/2-x,1/2-y,1/2+z
1/2+x,1/2-y,-z
1/2-x,1/2+y,1/2-z
1/2-x,1/2-y,-z
1/2+x,1/2+y,1/2-z
1/2-x,1/2+y,z
1/2+x,1/2-y,1/2+z
loop_
_atom_site_type_symbol
_atom_site_label
_atom_site_fract_x
_atom_site_fract_y
_atom_site_fract_z
Si Si1 0.106347 0.151535 0.346887
Si Si2 0.104492 0.479705 0.641408
Si Si3 0.259094 0.241860 0.895054
Si Si4 0.900531 0.926142 0.021455
Si Si5 0.399599 0.163502 0.144402
Si Si6 0.235691 0.406664 0.144368
O O1 0.128216 0.122177 0.250000
O O2 0.160737 0.216119 0.356650
O O3 0.130278 0.108791 0.431372
O O4 0.000000 0.161632 0.349657
O O5 0.108278 0.480756 0.750000
O O6 0.131484 0.407335 0.611676
O O7 0.165467 0.539293 0.610811
O O8 0.000000 0.488123 0.617053
O O9 0.167841 0.277474 0.865158
O O10 0.279825 0.168447 0.873626
O O11 0.250000 0.250000 0.000000
O O12 0.830409 0.917848 0.098814
O O13 0.000000 0.902218 0.044381
O O14 0.906627 0.000000 0.000000
O O15 0.408008 0.154911 0.250000
O O16 0.500000 0.175879 0.108329
O O17 0.241015 0.414688 0.250000
#
# Coordination Sequence:
#
# PCOD9476267 Si02
#       6
#    16  16  16  16  16  16
#     4  10  22  42  66  88 117 164 214 257 307 368
#     4   8  17  36  62  92 124 159 204 256 306 365
#     4  12  24  39  60  90 130 165 204 261 312 371
#     4  10  23  42  62  89 125 161 208 262 308 366
#     4   9  19  38  64  91 119 159 211 258 304 368
#     4  11  23  38  62  96 130 165 203 252 321 380
#
# _framework density 10.15873
#
# number of rings (size 3 to 8) (size 9 to 14) (size 15 to 20)
#    0.000    2.000    1.667    2.500    2.333    3.000 
#    0.000    3.333    0.000    2.500    0.000    0.000 
#    0.000    0.000    0.000    0.000    0.000    0.000 
#
# Total GULP energy -267629.892445 kJ/mol
# GULP energy per Si atom -5575.622759 kJ/mol
# Density = 1.013561 g / cm^3
# Si number density = 10.158730 Si / 1000 Ang^3
#
#
#
# Elastic Constant Matrix: (Units=GPa)
#
#
# Indices 1 2 3 4 5 6 
#
# 1 23.0194 0.0290 -13.3301 0.0000 0.0000 0.0000
# 2 0.0290 61.8799 -39.3172 0.0000 0.0000 0.0000
# 3 -13.3301 -39.3172 23.2567 0.0000 0.0000 0.0000
# 4 0.0000 0.0000 0.0000 -27.6278 0.0000 0.0000
# 5 0.0000 0.0000 0.0000 0.0000 18.3276 0.0000
# 6 0.0000 0.0000 0.0000 0.0000 0.0000 13.3649
#
#
#
# Elastic Compliance Matrix: (Units=1/GPa)
#
#
# Indices 1 2 3 4 5 6 
#
# 1 0.007951 -0.038998 -0.061372 0.000000 0.000000 0.000000
# 2 -0.038998 -0.026648 -0.067403 0.000000 0.000000 0.000000
# 3 -0.061372 -0.067403 -0.106128 0.000000 0.000000 0.000000
# 4 0.000000 0.000000 0.000000 -0.036195 0.000000 0.000000
# 5 0.000000 0.000000 0.000000 0.000000 0.054562 0.000000
# 6 0.000000 0.000000 0.000000 0.000000 0.000000 0.074823
#
#
# Mechanical properties :
#
#
# Convention : Reuss Voigt Hill
#
# Bulk Modulus (GPa) = -2.17216 0.32437 -0.92389
# Shear Modulus (GPa) = 33.23264 11.53123 22.38194
#
# Velocity S-wave (km/s) = 4.04873 2.38492 3.32265
# Velocity P-wave (km/s) = 4.55904 2.78277 3.77681
#
# Compressibility (1/GPa) = -0.46037194
#
# Stress axis : x y z
#
# Youngs Moduli (GPa) = 125.76460 -37.52635 -9.42254
#
# Poissons Ratio (x) = -1.46346 -0.57828
# Poissons Ratio (y) = 4.90460 -0.63511
# Poissons Ratio (z) = 7.71844 -2.52939
#
# Static dielectric constant tensor:
#      x y z
#    x 1.785720 0.000000 0.000000 
#    y 0.000000 1.881950 0.000000 
#    z 0.000000 0.000000 1.729650 
# 
# From -- ./inp_files/31874.got.cif
#   From: 2010.05.17/outbox.ucp.g08.bks.cvg/sg63_16_cif.got.tgz:31874.got - 2010.06.11 16:32:19.
