data_PCOD9476592
_publ_section_title
;
Structure prediction by ZEFSAII (Michael W. Deem and Ramdas Pophale) SiO2 
 PCOD9476592
Probable space group: C M C A
;
_chemical_formula_sum "Si O2"
_cell_formula_units_Z 72
_cell_length_a 22.614144
_cell_length_b 14.068347
_cell_length_c 9.490535
_cell_angle_alpha 90.000000
_cell_angle_beta 90.000000
_cell_angle_gamma 90.000000
_cell_volume 3019.353207
_symmetry_space_group_name_H-M "C M C A"
_symmetry_group_IT_number 64
_symmetry_cell_setting 'orthorhombic'
loop_
_space_group_symop_operation_xyz
x,y,z
-x,1/2-y,1/2+z
x,-y,-z
-x,1/2+y,1/2-z
-x,-y,-z
x,1/2+y,1/2-z
-x,y,z
x,1/2-y,1/2+z
1/2+x,1/2+y,z
1/2-x,-y,1/2+z
1/2+x,1/2-y,-z
1/2-x,y,1/2-z
1/2-x,1/2-y,-z
1/2+x,y,1/2-z
1/2-x,1/2+y,z
1/2+x,-y,1/2+z
loop_
_atom_site_type_symbol
_atom_site_label
_atom_site_fract_x
_atom_site_fract_y
_atom_site_fract_z
Si Si1 0.064642 0.896072 0.422431
Si Si2 0.256247 0.500000 0.000000
Si Si3 0.568169 0.513737 0.165161
Si Si4 0.284941 0.686458 0.883653
Si Si5 0.156697 0.628414 0.145640
O O1 0.119528 0.852049 0.502216
O O2 0.000000 0.850868 0.442708
O O3 0.062242 0.000000 0.500000
O O4 0.074573 0.917644 0.258512
O O5 0.298810 0.413323 0.044010
O O6 0.209643 0.554667 0.105875
O O7 0.500000 0.545857 0.193077
O O8 0.614611 0.584025 0.236863
O O9 0.573609 0.500000 0.000000
O O10 0.250000 0.647945 0.750000
O O11 0.324362 0.766834 0.811852
O O12 0.250000 0.750000 0.000000
#
# Coordination Sequence:
#
# PCOD9476592 Si02
#       5
#    16   8  16  16  16
#     4   8  13  25  52  91 131 174 222 265 324 408
#     4  10  20  38  65  86 129 178 236 274 332 392
#     4   9  16  28  54  99 144 177 219 277 343 414
#     4  10  24  44  66  95 130 175 235 286 339 410
#     4  10  17  35  61  93 133 179 221 276 338 410
#
# _framework density 23.846167000000001
#
# number of rings (size 3 to 8) (size 9 to 14) (size 15 to 20)
#    0.000    2.667    3.333    2.000    0.000    3.556 
#    4.000    0.000    0.000    0.000    0.000   34.222 
#    0.000    0.000    0.000    8.000    0.889    0.000 
#
# Total GULP energy -200737.013261 kJ/mol
# GULP energy per Si atom -5576.028146 kJ/mol
# Density = 2.379189 g / cm^3
# Si number density = 23.846167 Si / 1000 Ang^3
#
#
#
# Elastic Constant Matrix: (Units=GPa)
#
#
# Indices 1 2 3 4 5 6 
#
# 1 63.2688 18.1302 11.6135 0.0000 0.0000 0.0000
# 2 18.1302 125.4131 -0.7992 0.0000 0.0000 0.0000
# 3 11.6135 -0.7992 118.6996 0.0000 0.0000 0.0000
# 4 0.0000 0.0000 0.0000 18.7199 0.0000 0.0000
# 5 0.0000 0.0000 0.0000 0.0000 28.0589 0.0000
# 6 0.0000 0.0000 0.0000 0.0000 0.0000 0.6443
#
#
#
# Elastic Compliance Matrix: (Units=1/GPa)
#
#
# Indices 1 2 3 4 5 6 
#
# 1 0.016810 -0.002441 -0.001661 0.000000 0.000000 0.000000
# 2 -0.002441 0.008328 0.000295 0.000000 0.000000 0.000000
# 3 -0.001661 0.000295 0.008589 0.000000 0.000000 0.000000
# 4 0.000000 0.000000 0.000000 0.053419 0.000000 0.000000
# 5 0.000000 0.000000 0.000000 0.000000 0.035639 0.000000
# 6 0.000000 0.000000 0.000000 0.000000 0.000000 1.552118
#
#
# Mechanical properties :
#
#
# Convention : Reuss Voigt Hill
#
# Bulk Modulus (GPa) = 38.29431 40.58561 39.43996
# Shear Modulus (GPa) = 2.95644 28.04707 15.50175
#
# Velocity S-wave (km/s) = 1.11467 3.43325 2.55242
# Velocity P-wave (km/s) = 4.21312 5.72477 5.02610
#
# Compressibility (1/GPa) = 0.02611354
#
# Stress axis : x y z
#
# Youngs Moduli (GPa) = 59.48885 120.07162 116.42612
#
# Poissons Ratio (x) = 0.29306 0.19340
# Poissons Ratio (y) = 0.14519 -0.03433
# Poissons Ratio (z) = 0.09882 -0.03541
#
# Static dielectric constant tensor:
#      x y z
#    x 2.022550 0.000000 0.000000 
#    y 0.000000 1.975760 0.000000 
#    z 0.000000 0.000000 2.091580 
# 
# From -- ./inp_files/10970.got.cif
#   From: 2010.05.17/outbox.cif.g08.bks.cpg/sg64_6_cif.got.tgz:10970.got - 2010.06.03 16:29:19.
