data_PCOD9476090
_publ_section_title
;
Structure prediction by ZEFSAII (Michael W. Deem and Ramdas Pophale) SiO2 
 PCOD9476090
Probable space group: C M C M
;
_chemical_formula_sum "Si O2"
_cell_formula_units_Z 52
_cell_length_a 24.000000
_cell_length_b 27.000000
_cell_length_c 9.000000
_cell_angle_alpha 90.000000
_cell_angle_beta 90.000000
_cell_angle_gamma 90.000000
_cell_volume 5832.000000
_symmetry_space_group_name_H-M "C M C M"
_symmetry_group_IT_number 63
_symmetry_cell_setting 'orthorhombic'
loop_
_space_group_symop_operation_xyz
x,y,z
-x,-y,1/2+z
x,-y,-z
-x,y,1/2-z
-x,-y,-z
x,y,1/2-z
-x,y,z
x,-y,1/2+z
1/2+x,1/2+y,z
1/2-x,1/2-y,1/2+z
1/2+x,1/2-y,-z
1/2-x,1/2+y,1/2-z
1/2-x,1/2-y,-z
1/2+x,1/2+y,1/2-z
1/2-x,1/2+y,z
1/2+x,1/2-y,1/2+z
loop_
_atom_site_type_symbol
_atom_site_label
_atom_site_fract_x
_atom_site_fract_y
_atom_site_fract_z
Si Si1 0.379906 0.599328 0.071810
Si Si2 0.701902 0.794907 0.918312
Si Si3 0.500000 0.554750 0.429010
Si Si4 0.180586 0.190184 0.924639
Si Si5 0.440629 0.946186 0.929468
Si Si6 0.775456 0.949629 0.426234
Si Si7 0.674383 0.098444 0.078626
O O1 0.374608 0.596513 0.250000
O O2 0.443038 0.584050 0.031013
O O3 0.357397 0.652290 0.014887
O O4 0.335378 0.562836 0.995466
O O5 0.724897 0.787910 0.750000
O O6 0.664771 0.747226 0.950497
O O7 0.665357 0.843334 0.917554
O O8 0.755010 0.805419 0.022136
O O9 0.500000 0.500000 0.500000
O O10 0.500000 0.549339 0.250000
O O11 0.178175 0.177060 0.750000
O O12 0.437826 0.948612 0.750000
O O13 0.500000 0.920895 0.967093
O O14 0.382141 0.924466 0.980887
O O15 0.443007 0.000000 0.000000
O O16 0.778848 0.952077 0.250000
O O17 0.728680 0.911686 0.480935
O O18 0.755447 0.000000 0.500000
O O19 0.685740 0.081985 0.250000
#
# Coordination Sequence:
#
# PCOD9476090 Si02
#       7
#    16  16   8  16  16  16  16
#     4  11  22  39  59  81 109 144 183 228 280 334
#     4   9  18  32  52  78 112 144 176 217 266 321
#     4  10  24  42  62  84 108 144 190 234 285 344
#     4  10  19  32  53  82 110 141 179 219 266 324
#     4   9  18  32  50  72  99 135 177 215 256 308
#     4  12  24  36  52  79 111 142 176 219 269 329
#     4  10  19  33  53  77 106 141 176 220 271 317
#
# _framework density 8.9163239999999995
#
# number of rings (size 3 to 8) (size 9 to 14) (size 15 to 20)
#    0.000    1.846    1.538    3.231    0.000    4.923 
#    0.000    0.000    1.692    0.000    0.000    0.000 
#    0.000    0.000    0.000    0.000    0.000    0.000 
#
# Total GULP energy -289480.685729 kJ/mol
# GULP energy per Si atom -5566.936264 kJ/mol
# Density = 0.889603 g / cm^3
# Si number density = 8.916324 Si / 1000 Ang^3
#
#
#
# Elastic Constant Matrix: (Units=GPa)
#
#
# Indices 1 2 3 4 5 6 
#
# 1 38.2208 -1.5237 21.4586 0.0000 0.0000 0.0000
# 2 -1.5237 79.4574 20.8297 0.0000 0.0000 0.0000
# 3 21.4586 20.8297 66.4360 0.0000 0.0000 0.0000
# 4 0.0000 0.0000 0.0000 19.0673 0.0000 0.0000
# 5 0.0000 0.0000 0.0000 0.0000 3.1178 0.0000
# 6 0.0000 0.0000 0.0000 0.0000 0.0000 40.5700
#
#
#
# Elastic Compliance Matrix: (Units=1/GPa)
#
#
# Indices 1 2 3 4 5 6 
#
# 1 0.032942 0.003727 -0.011809 0.000000 0.000000 0.000000
# 2 0.003727 0.014134 -0.005635 0.000000 0.000000 0.000000
# 3 -0.011809 -0.005635 0.020633 0.000000 0.000000 0.000000
# 4 0.000000 0.000000 0.000000 0.052446 0.000000 0.000000
# 5 0.000000 0.000000 0.000000 0.000000 0.320735 0.000000
# 6 0.000000 0.000000 0.000000 0.000000 0.000000 0.024649
#
#
# Mechanical properties :
#
#
# Convention : Reuss Voigt Hill
#
# Bulk Modulus (GPa) = 24.82881 29.51594 27.17238
# Shear Modulus (GPa) = 9.87365 22.10767 15.99066
#
# Velocity S-wave (km/s) = 2.35560 3.52480 2.99776
# Velocity P-wave (km/s) = 4.62082 5.75788 5.22040
#
# Compressibility (1/GPa) = 0.04027579
#
# Stress axis : x y z
#
# Youngs Moduli (GPa) = 30.35611 70.75062 48.46565
#
# Poissons Ratio (x) = -0.26371 0.57233
# Poissons Ratio (y) = -0.11315 0.27312
# Poissons Ratio (z) = 0.35847 0.39871
#
# Static dielectric constant tensor:
#      x y z
#    x 1.603320 0.000000 0.000000 
#    y 0.000000 1.708480 0.000000 
#    z 0.000000 0.000000 1.619030 
# 
# From -- ./inp_files/10823.got.cif
#   From: 2010.05.17/outbox.ucp.g08.bks.cvg/sg63_6_cif.got.tgz:10823.got - 2010.06.11 16:32:19.
