data_PCOD9476419
_publ_section_title
;
Structure prediction by ZEFSAII (Michael W. Deem and Ramdas Pophale) SiO2 
 PCOD9476419
Probable space group: C M C A
;
_chemical_formula_sum "Si O2"
_cell_formula_units_Z 96
_cell_length_a 7.442020
_cell_length_b 24.970089
_cell_length_c 26.978162
_cell_angle_alpha 90.000000
_cell_angle_beta 90.000000
_cell_angle_gamma 90.000000
_cell_volume 5013.295237
_symmetry_space_group_name_H-M "C M C A"
_symmetry_group_IT_number 64
_symmetry_cell_setting 'orthorhombic'
loop_
_space_group_symop_operation_xyz
x,y,z
-x,1/2-y,1/2+z
x,-y,-z
-x,1/2+y,1/2-z
-x,-y,-z
x,1/2+y,1/2-z
-x,y,z
x,1/2-y,1/2+z
1/2+x,1/2+y,z
1/2-x,-y,1/2+z
1/2+x,1/2-y,-z
1/2-x,y,1/2-z
1/2-x,1/2-y,-z
1/2+x,y,1/2-z
1/2-x,1/2+y,z
1/2+x,-y,1/2+z
loop_
_atom_site_type_symbol
_atom_site_label
_atom_site_fract_x
_atom_site_fract_y
_atom_site_fract_z
Si Si1 0.283414 0.085209 0.386486
Si Si2 0.784222 0.758984 0.382785
Si Si3 0.716718 0.321257 0.964640
Si Si4 0.785029 0.331060 0.691949
Si Si5 0.713472 0.362277 0.068226
Si Si6 0.279981 0.516933 0.943961
O O1 0.500000 0.080699 0.381887
O O2 0.248662 0.126459 0.431322
O O3 0.217427 0.116235 0.337502
O O4 0.218276 0.027474 0.404361
O O5 0.715623 0.728726 0.432520
O O6 0.720407 0.722404 0.336904
O O7 0.740214 0.821454 0.386552
O O8 0.000000 0.755604 0.383025
O O9 0.500000 0.315302 0.967752
O O10 0.788190 0.332906 0.019111
O O11 0.750000 0.331023 0.750000
O O12 0.000000 0.331450 0.685747
O O13 0.500000 0.367144 0.061081
O O14 0.780234 0.423131 0.069671
O O15 0.500000 0.516164 0.943944
O O16 0.227450 0.500000 0.000000
#
# Coordination Sequence:
#
# PCOD9476419 Si02
#       6
#    16  16  16  16  16  16
#     4   8  13  24  42  66  92 115 143 183 226 261
#     4   9  18  30  42  60  89 121 145 174 225 276
#     4   8  13  23  39  61  89 118 148 177 209 253
#     4   9  18  32  51  69  85 110 146 189 235 274
#     4  10  17  24  41  68  92 118 152 183 206 244
#     4   9  14  22  40  67  95 121 150 183 214 250
#
# _framework density 19.149080999999999
#
# number of rings (size 3 to 8) (size 9 to 14) (size 15 to 20)
#    0.000    3.167    1.667    2.500    0.000    0.667 
#    0.000    0.000    0.000    3.500    0.000    4.667 
#    0.000    0.000    0.000    0.000    0.000    0.000 
#
# Total GULP energy -267465.335511 kJ/mol
# GULP energy per Si atom -5572.194490 kJ/mol
# Density = 1.910550 g / cm^3
# Si number density = 19.149081 Si / 1000 Ang^3
#
#
#
# Elastic Constant Matrix: (Units=GPa)
#
#
# Indices 1 2 3 4 5 6 
#
# 1 57.2774 5.4235 0.9078 0.0000 0.0000 0.0000
# 2 5.4235 184.5314 91.7695 0.0000 0.0000 0.0000
# 3 0.9078 91.7695 117.0940 0.0000 0.0000 0.0000
# 4 0.0000 0.0000 0.0000 9.5966 0.0000 0.0000
# 5 0.0000 0.0000 0.0000 0.0000 -2.9259 0.0000
# 6 0.0000 0.0000 0.0000 0.0000 0.0000 21.7638
#
#
#
# Elastic Compliance Matrix: (Units=1/GPa)
#
#
# Indices 1 2 3 4 5 6 
#
# 1 0.017521 -0.000733 0.000439 0.000000 0.000000 0.000000
# 2 -0.000733 0.008911 -0.006978 0.000000 0.000000 0.000000
# 3 0.000439 -0.006978 0.014006 0.000000 0.000000 0.000000
# 4 0.000000 0.000000 0.000000 0.104204 0.000000 0.000000
# 5 0.000000 0.000000 0.000000 0.000000 -0.341777 0.000000
# 6 0.000000 0.000000 0.000000 0.000000 0.000000 0.045948
#
#
# Mechanical properties :
#
#
# Convention : Reuss Voigt Hill
#
# Bulk Modulus (GPa) = 38.62046 61.67826 50.14936
# Shear Modulus (GPa) = -39.05904 23.07369 -7.99267
#
# Velocity S-wave (km/s) = -4.52124 3.47501 -2.04523
# Velocity P-wave (km/s) = 2.65394 6.95560 4.54626
#
# Compressibility (1/GPa) = 0.02589301
#
# Stress axis : x y z
#
# Youngs Moduli (GPa) = 57.07321 112.22164 71.39995
#
# Poissons Ratio (x) = 0.08228 -0.03133
# Poissons Ratio (y) = 0.04184 0.49823
# Poissons Ratio (z) = -0.02504 0.78309
#
# Static dielectric constant tensor:
#      x y z
#    x 1.756620 0.000000 0.000000 
#    y 0.000000 1.702440 0.000000 
#    z 0.000000 0.000000 1.652460 
# 
# From -- ./inp_files/44332.got.cif
#   From: 2010.05.17/outbox.cif.g08.bks.cpg/sg64_23_cif.got.tgz:44332.got - 2010.06.03 16:29:19.
