data_PCOD9476928
_publ_section_title
;
Structure prediction by ZEFSAII (Michael W. Deem and Ramdas Pophale) SiO2 
 PCOD9476928
Probable space group: C M C A
;
_chemical_formula_sum "Si O2"
_cell_formula_units_Z 80
_cell_length_a 27.711775
_cell_length_b 7.764426
_cell_length_c 14.276943
_cell_angle_alpha 90.000000
_cell_angle_beta 90.000000
_cell_angle_gamma 90.000000
_cell_volume 3071.913093
_symmetry_space_group_name_H-M "C M C A"
_symmetry_group_IT_number 64
_symmetry_cell_setting 'orthorhombic'
loop_
_space_group_symop_operation_xyz
x,y,z
-x,1/2-y,1/2+z
x,-y,-z
-x,1/2+y,1/2-z
-x,-y,-z
x,1/2+y,1/2-z
-x,y,z
x,1/2-y,1/2+z
1/2+x,1/2+y,z
1/2-x,-y,1/2+z
1/2+x,1/2-y,-z
1/2-x,y,1/2-z
1/2-x,1/2-y,-z
1/2+x,y,1/2-z
1/2-x,1/2+y,z
1/2+x,-y,1/2+z
loop_
_atom_site_type_symbol
_atom_site_label
_atom_site_fract_x
_atom_site_fract_y
_atom_site_fract_z
Si Si1 0.341374 0.668682 0.566928
Si Si2 0.155587 0.375377 0.396783
Si Si3 0.305465 0.560235 0.273188
Si Si4 0.447524 0.790510 0.359344
Si Si5 0.053470 0.376863 0.138568
O O1 0.339900 0.500000 0.500000
O O2 0.323875 0.822569 0.498548
O O3 0.311847 0.605334 0.657829
O O4 0.397680 0.692318 0.593341
O O5 0.169736 0.527666 0.326784
O O6 0.098160 0.376051 0.406304
O O7 0.170064 0.212431 0.331112
O O8 0.250000 0.589008 0.250000
O O9 0.500000 0.850939 0.391180
O O10 0.444525 0.584251 0.371478
O O11 0.444398 0.830250 0.248382
O O12 0.000000 0.321986 0.103861
#
# Coordination Sequence:
#
# PCOD9476928 Si02
#       5
#    16  16  16  16  16
#     4  10  20  36  59  87 116 147 200 241 282 351
#     4  11  21  40  63  85 118 153 194 246 287 354
#     4  11  23  40  61  84 116 154 195 247 301 340
#     4  10  18  32  58  88 119 155 189 231 290 350
#     4  10  19  33  58  88 120 155 195 235 288 352
#
# _framework density 26.042401000000002
#
# number of rings (size 3 to 8) (size 9 to 14) (size 15 to 20)
#    0.000    1.600    6.000    0.600    0.000    2.000 
#    0.000    3.000    0.000    0.000    0.000    8.400 
#    0.000    0.000    0.000    0.000    0.000    0.000 
#
# Total GULP energy -224046.997950 kJ/mol
# GULP energy per Si atom -5601.174949 kJ/mol
# Density = 2.598313 g / cm^3
# Si number density = 26.042401 Si / 1000 Ang^3
#
#
#
# Elastic Constant Matrix: (Units=GPa)
#
#
# Indices 1 2 3 4 5 6 
#
# 1 132.8898 18.3286 22.7341 0.0000 0.0000 0.0000
# 2 18.3286 84.1673 9.4053 0.0000 0.0000 0.0000
# 3 22.7341 9.4053 163.4821 0.0000 0.0000 0.0000
# 4 0.0000 0.0000 0.0000 43.7769 0.0000 0.0000
# 5 0.0000 0.0000 0.0000 0.0000 -49.3259 0.0000
# 6 0.0000 0.0000 0.0000 0.0000 0.0000 34.3100
#
#
#
# Elastic Compliance Matrix: (Units=1/GPa)
#
#
# Indices 1 2 3 4 5 6 
#
# 1 0.007920 -0.001612 -0.001009 0.000000 0.000000 0.000000
# 2 -0.001612 0.012286 -0.000483 0.000000 0.000000 0.000000
# 3 -0.001009 -0.000483 0.006285 0.000000 0.000000 0.000000
# 4 0.000000 0.000000 0.000000 0.022843 0.000000 0.000000
# 5 0.000000 0.000000 0.000000 0.000000 -0.020273 0.000000
# 6 0.000000 0.000000 0.000000 0.000000 0.000000 0.029146
#
#
# Mechanical properties :
#
#
# Convention : Reuss Voigt Hill
#
# Bulk Modulus (GPa) = 49.29902 53.49725 51.39813
# Shear Modulus (GPa) = 70.24979 27.75695 49.00337
#
# Velocity S-wave (km/s) = 5.19940 3.26826 4.34254
# Velocity P-wave (km/s) = 7.41730 5.90161 6.70244
#
# Compressibility (1/GPa) = 0.02028438
#
# Stress axis : x y z
#
# Youngs Moduli (GPa) = 126.26416 81.39307 159.11132
#
# Poissons Ratio (x) = 0.13120 0.16048
# Poissons Ratio (y) = 0.20353 0.07680
# Poissons Ratio (z) = 0.12735 0.03929
#
# Static dielectric constant tensor:
#      x y z
#    x 1.968320 0.000000 0.000000 
#    y 0.000000 2.200050 0.000000 
#    z 0.000000 0.000000 2.028290 
# 
# From -- ./inp_files/19578.got.cif
#   From: 2010.05.17/outbox.cif.g08.bks.cpg/sg64_10_cif.got.tgz:19578.got - 2010.06.03 16:29:19.
