data_PCOD9476498
_publ_section_title
;
Structure prediction by ZEFSAII (Michael W. Deem and Ramdas Pophale) SiO2 
 PCOD9476498
Probable space group: C M C A
;
_chemical_formula_sum "Si O2"
_cell_formula_units_Z 72
_cell_length_a 26.175747
_cell_length_b 18.145576
_cell_length_c 5.613923
_cell_angle_alpha 90.000000
_cell_angle_beta 90.000000
_cell_angle_gamma 90.000000
_cell_volume 2666.467500
_symmetry_space_group_name_H-M "C M C A"
_symmetry_group_IT_number 64
_symmetry_cell_setting 'orthorhombic'
loop_
_space_group_symop_operation_xyz
x,y,z
-x,1/2-y,1/2+z
x,-y,-z
-x,1/2+y,1/2-z
-x,-y,-z
x,1/2+y,1/2-z
-x,y,z
x,1/2-y,1/2+z
1/2+x,1/2+y,z
1/2-x,-y,1/2+z
1/2+x,1/2-y,-z
1/2-x,y,1/2-z
1/2-x,1/2-y,-z
1/2+x,y,1/2-z
1/2-x,1/2+y,z
1/2+x,-y,1/2+z
loop_
_atom_site_type_symbol
_atom_site_label
_atom_site_fract_x
_atom_site_fract_y
_atom_site_fract_z
Si Si1 0.202504 0.326710 0.359827
Si Si2 0.595453 0.819816 0.538351
Si Si3 0.250000 0.928035 0.750000
Si Si4 0.441882 0.843837 0.037322
Si Si5 0.851557 0.525406 0.761143
O O1 0.250000 0.280699 0.250000
O O2 0.154244 0.291636 0.498436
O O3 0.236210 0.376576 0.532758
O O4 0.170174 0.390552 0.220674
O O5 0.562652 0.745388 0.554511
O O6 0.589353 0.858943 0.793086
O O7 0.575585 0.864998 0.306833
O O8 0.200324 0.977380 0.729002
O O9 0.500000 0.866906 0.000471
O O10 0.872315 0.500000 0.500000
O O11 0.881177 0.500000 0.000000
#
# Coordination Sequence:
#
# PCOD9476498 Si02
#       5
#    16  16   8  16  16
#     4  11  21  31  50  77 119 149 180 224 245 306
#     4  10  21  33  58  86 102 136 186 221 270 333
#     4  10  18  32  48  66 108 160 180 204 252 288
#     4  10  20  42  62  76 104 134 174 243 292 325
#     4  10  17  30  47  67  96 152 183 207 245 287
#
# _framework density 27.002019000000001
#
# number of rings (size 3 to 8) (size 9 to 14) (size 15 to 20)
#    0.000    1.778    3.333    4.000    3.111    0.000 
#    0.000    4.444    0.000    0.000    0.000    0.000 
#    0.000  129.778    0.000    0.000    0.000    0.000 
#
# Total GULP energy -200780.371043 kJ/mol
# GULP energy per Si atom -5577.232529 kJ/mol
# Density = 2.694056 g / cm^3
# Si number density = 27.002019 Si / 1000 Ang^3
#
#
#
# Elastic Constant Matrix: (Units=GPa)
#
#
# Indices 1 2 3 4 5 6 
#
# 1 135.1302 3.1822 36.1611 0.0000 0.0000 0.0000
# 2 3.1822 51.9425 28.8634 0.0000 0.0000 0.0000
# 3 36.1611 28.8634 236.1781 0.0000 0.0000 0.0000
# 4 0.0000 0.0000 0.0000 36.4811 0.0000 0.0000
# 5 0.0000 0.0000 0.0000 0.0000 40.0151 0.0000
# 6 0.0000 0.0000 0.0000 0.0000 0.0000 21.0987
#
#
#
# Elastic Compliance Matrix: (Units=1/GPa)
#
#
# Indices 1 2 3 4 5 6 
#
# 1 0.007718 0.000197 -0.001206 0.000000 0.000000 0.000000
# 2 0.000197 0.020660 -0.002555 0.000000 0.000000 0.000000
# 3 -0.001206 -0.002555 0.004731 0.000000 0.000000 0.000000
# 4 0.000000 0.000000 0.000000 0.027411 0.000000 0.000000
# 5 0.000000 0.000000 0.000000 0.000000 0.024991 0.000000
# 6 0.000000 0.000000 0.000000 0.000000 0.000000 0.047396
#
#
# Mechanical properties :
#
#
# Convention : Reuss Voigt Hill
#
# Bulk Modulus (GPa) = 38.48862 62.18492 50.33677
# Shear Modulus (GPa) = 33.62582 43.18859 38.40721
#
# Velocity S-wave (km/s) = 3.53272 4.00366 3.77554
# Velocity P-wave (km/s) = 5.56103 6.66724 6.13910
#
# Compressibility (1/GPa) = 0.02598170
#
# Stress axis : x y z
#
# Youngs Moduli (GPa) = 129.56195 48.40329 211.37305
#
# Poissons Ratio (x) = -0.00955 0.25488
# Poissons Ratio (y) = -0.02555 0.54007
# Poissons Ratio (z) = 0.15623 0.12367
#
# Static dielectric constant tensor:
#      x y z
#    x 2.148420 0.000000 0.000000 
#    y 0.000000 2.281560 0.000000 
#    z 0.000000 0.000000 2.466280 
# 
# From -- ./inp_files/2261.got.cif
#   From: 2010.05.17/outbox.cif.g08.bks.cpg/sg64_2_cif.got.tgz:2261.got - 2010.06.03 16:29:19.
