data_PCOD9476893
_publ_section_title
;
Structure prediction by ZEFSAII (Michael W. Deem and Ramdas Pophale) SiO2 
 PCOD9476893
Probable space group: C M C A
;
_chemical_formula_sum "Si O2"
_cell_formula_units_Z 48
_cell_length_a 24.257761
_cell_length_b 13.987418
_cell_length_c 5.408593
_cell_angle_alpha 90.000000
_cell_angle_beta 90.000000
_cell_angle_gamma 90.000000
_cell_volume 1835.154226
_symmetry_space_group_name_H-M "C M C A"
_symmetry_group_IT_number 64
_symmetry_cell_setting 'orthorhombic'
loop_
_space_group_symop_operation_xyz
x,y,z
-x,1/2-y,1/2+z
x,-y,-z
-x,1/2+y,1/2-z
-x,-y,-z
x,1/2+y,1/2-z
-x,y,z
x,1/2-y,1/2+z
1/2+x,1/2+y,z
1/2-x,-y,1/2+z
1/2+x,1/2-y,-z
1/2-x,y,1/2-z
1/2-x,1/2-y,-z
1/2+x,y,1/2-z
1/2-x,1/2+y,z
1/2+x,-y,1/2+z
loop_
_atom_site_type_symbol
_atom_site_label
_atom_site_fract_x
_atom_site_fract_y
_atom_site_fract_z
Si Si1 0.726356 0.641599 0.495832
Si Si2 0.603592 0.887177 0.808669
Si Si3 0.436751 0.895435 0.302882
O O1 0.750000 0.595778 0.250000
O O2 0.750000 0.750000 0.500000
O O3 0.661718 0.632615 0.442451
O O4 0.750000 0.601805 0.750000
O O5 0.598183 0.848939 0.527312
O O6 0.588715 0.998773 0.752082
O O7 0.563122 0.852624 0.026072
O O8 0.500000 0.901289 0.388218
#
# Coordination Sequence:
#
# PCOD9476893 Si02
#       3
#    16  16  16
#     4  10  21  37  55  78 106 150 202 242 278 332
#     4  10  18  32  54  80 112 147 180 228 286 340
#     4  10  19  33  54  87 116 142 178 227 287 356
#
# _framework density 26.155842
#
# number of rings (size 3 to 8) (size 9 to 14) (size 15 to 20)
#    0.000    2.000    0.000    7.000    0.000    0.000 
#    0.000   13.333    0.000    0.000    0.000  158.667 
#    0.000    0.000    0.000    0.000    0.000    0.000 
#
# Total GULP energy -133795.945052 kJ/mol
# GULP energy per Si atom -5574.831044 kJ/mol
# Density = 2.609631 g / cm^3
# Si number density = 26.155842 Si / 1000 Ang^3
#
#
#
# Elastic Constant Matrix: (Units=GPa)
#
#
# Indices 1 2 3 4 5 6 
#
# 1 203.2672 10.5778 62.5264 0.0000 0.0000 0.0000
# 2 10.5778 146.4393 4.2459 0.0000 0.0000 0.0000
# 3 62.5264 4.2459 333.4364 0.0000 0.0000 0.0000
# 4 0.0000 0.0000 0.0000 -114.8368 0.0000 0.0000
# 5 0.0000 0.0000 0.0000 0.0000 59.6691 0.0000
# 6 0.0000 0.0000 0.0000 0.0000 0.0000 100.4653
#
#
#
# Elastic Compliance Matrix: (Units=1/GPa)
#
#
# Indices 1 2 3 4 5 6 
#
# 1 0.005239 -0.000350 -0.000978 0.000000 0.000000 0.000000
# 2 -0.000350 0.006855 -0.000022 0.000000 0.000000 0.000000
# 3 -0.000978 -0.000022 0.003183 0.000000 0.000000 0.000000
# 4 0.000000 0.000000 0.000000 -0.008708 0.000000 0.000000
# 5 0.000000 0.000000 0.000000 0.000000 0.016759 0.000000
# 6 0.000000 0.000000 0.000000 0.000000 0.000000 0.009954
#
#
# Mechanical properties :
#
#
# Convention : Reuss Voigt Hill
#
# Bulk Modulus (GPa) = 79.51102 93.09365 86.30233
# Shear Modulus (GPa) = 124.46386 49.44573 86.95479
#
# Velocity S-wave (km/s) = 6.90571 4.35262 5.77209
# Velocity P-wave (km/s) = 9.69794 7.80574 8.80283
#
# Compressibility (1/GPa) = 0.01257687
#
# Stress axis : x y z
#
# Youngs Moduli (GPa) = 190.88854 145.88569 314.19615
#
# Poissons Ratio (x) = 0.05107 0.30725
# Poissons Ratio (y) = 0.06682 0.00680
# Poissons Ratio (z) = 0.18667 0.00316
#
# Static dielectric constant tensor:
#      x y z
#    x 2.128320 0.000000 0.000000 
#    y 0.000000 2.314910 0.000000 
#    z 0.000000 0.000000 2.269290 
# 
# From -- ./inp_files/1099.got.cif
#   From: 2010.05.17/outbox.cif.g08.bks.cpg/sg64_1_cif.got.tgz:1099.got - 2010.06.03 16:29:19.
