data_PCOD9476433
_publ_section_title
;
Structure prediction by ZEFSAII (Michael W. Deem and Ramdas Pophale) SiO2 
 PCOD9476433
Probable space group: C M C A
;
_chemical_formula_sum "Si O2"
_cell_formula_units_Z 80
_cell_length_a 8.686556
_cell_length_b 18.660857
_cell_length_c 27.270882
_cell_angle_alpha 90.000000
_cell_angle_beta 90.000000
_cell_angle_gamma 90.000000
_cell_volume 4420.571230
_symmetry_space_group_name_H-M "C M C A"
_symmetry_group_IT_number 64
_symmetry_cell_setting 'orthorhombic'
loop_
_space_group_symop_operation_xyz
x,y,z
-x,1/2-y,1/2+z
x,-y,-z
-x,1/2+y,1/2-z
-x,-y,-z
x,1/2+y,1/2-z
-x,y,z
x,1/2-y,1/2+z
1/2+x,1/2+y,z
1/2-x,-y,1/2+z
1/2+x,1/2-y,-z
1/2-x,y,1/2-z
1/2-x,1/2-y,-z
1/2+x,y,1/2-z
1/2-x,1/2+y,z
1/2+x,-y,1/2+z
loop_
_atom_site_type_symbol
_atom_site_label
_atom_site_fract_x
_atom_site_fract_y
_atom_site_fract_z
Si Si1 0.316526 0.330426 0.800055
Si Si2 0.815148 0.665825 0.592299
Si Si3 0.684655 0.831970 0.299754
Si Si4 0.814317 0.582066 0.000187
Si Si5 0.185837 0.833954 0.597689
O O1 0.500000 0.328497 0.797727
O O2 0.250000 0.364031 0.750000
O O3 0.249832 0.249187 0.800850
O O4 0.259489 0.361653 0.851731
O O5 0.772771 0.637426 0.646803
O O6 0.742284 0.623155 0.547838
O O7 0.772090 0.750155 0.590225
O O8 0.000000 0.662379 0.588333
O O9 0.500000 0.828445 0.296623
O O10 0.750000 0.866300 0.250000
O O11 0.765325 0.622030 0.049953
O O12 0.000000 0.582626 0.999911
O O13 0.761200 0.500000 0.000000
O O14 0.000000 0.836922 0.602588
#
# Coordination Sequence:
#
# PCOD9476433 Si02
#       5
#    16  16  16  16  16
#     4  10  17  26  44  71 100 128 158 193 239 287
#     4   9  18  31  49  73  99 128 161 200 240 280
#     4   9  16  27  44  70 101 129 158 194 239 285
#     4  10  21  35  51  71  96 128 163 201 246 291
#     4   9  18  33  50  71 100 128 161 202 238 282
#
# _framework density 18.097208999999999
#
# number of rings (size 3 to 8) (size 9 to 14) (size 15 to 20)
#    0.000    2.600    0.000    5.400    0.000    5.200 
#    0.000    0.000    0.000    1.200    0.000    2.800 
#    0.000    0.000    0.000    0.000    0.000    0.000 
#
# Total GULP energy -222905.451430 kJ/mol
# GULP energy per Si atom -5572.636286 kJ/mol
# Density = 1.805602 g / cm^3
# Si number density = 18.097209 Si / 1000 Ang^3
#
#
#
# Elastic Constant Matrix: (Units=GPa)
#
#
# Indices 1 2 3 4 5 6 
#
# 1 49.7439 17.7905 56.3999 0.0000 0.0000 0.0000
# 2 17.7905 50.8064 65.8055 0.0000 0.0000 0.0000
# 3 56.3999 65.8055 235.9340 0.0000 0.0000 0.0000
# 4 0.0000 0.0000 0.0000 -4.6812 0.0000 0.0000
# 5 0.0000 0.0000 0.0000 0.0000 38.6945 0.0000
# 6 0.0000 0.0000 0.0000 0.0000 0.0000 9.7425
#
#
#
# Elastic Compliance Matrix: (Units=1/GPa)
#
#
# Indices 1 2 3 4 5 6 
#
# 1 0.027677 -0.001757 -0.006126 0.000000 0.000000 0.000000
# 2 -0.001757 0.030926 -0.008206 0.000000 0.000000 0.000000
# 3 -0.006126 -0.008206 0.007992 0.000000 0.000000 0.000000
# 4 0.000000 0.000000 0.000000 -0.213618 0.000000 0.000000
# 5 0.000000 0.000000 0.000000 0.000000 0.025843 0.000000
# 6 0.000000 0.000000 0.000000 0.000000 0.000000 0.102644
#
#
# Mechanical properties :
#
#
# Convention : Reuss Voigt Hill
#
# Bulk Modulus (GPa) = 29.05500 68.49736 48.77618
# Shear Modulus (GPa) = 199.09595 21.85036 110.47316
#
# Velocity S-wave (km/s) = 10.50017 3.47852 7.82156
# Velocity P-wave (km/s) = 12.77085 7.35291 10.42017
#
# Compressibility (1/GPa) = 0.03441748
#
# Stress axis : x y z
#
# Youngs Moduli (GPa) = 36.13079 32.33521 125.13015
#
# Poissons Ratio (x) = 0.05680 0.76658
# Poissons Ratio (y) = 0.06347 1.02679
# Poissons Ratio (z) = 0.22135 0.26534
#
# Static dielectric constant tensor:
#      x y z
#    x 1.607160 0.000000 0.000000 
#    y 0.000000 1.590580 0.000000 
#    z 0.000000 0.000000 1.672810 
# 
# From -- ./inp_files/47862.got.cif
#   From: 2010.05.17/outbox.cif.g08.bks.cpg/sg64_24_cif.got.tgz:47862.got - 2010.06.03 16:29:19.
