data_PCOD9476360
_publ_section_title
;
Structure prediction by ZEFSAII (Michael W. Deem and Ramdas Pophale) SiO2 
 PCOD9476360
Probable space group: C M C A
;
_chemical_formula_sum "Si O2"
_cell_formula_units_Z 104
_cell_length_a 9.424298
_cell_length_b 29.132639
_cell_length_c 20.993558
_cell_angle_alpha 90.000000
_cell_angle_beta 90.000000
_cell_angle_gamma 90.000000
_cell_volume 5763.879420
_symmetry_space_group_name_H-M "C M C A"
_symmetry_group_IT_number 64
_symmetry_cell_setting 'orthorhombic'
loop_
_space_group_symop_operation_xyz
x,y,z
-x,1/2-y,1/2+z
x,-y,-z
-x,1/2+y,1/2-z
-x,-y,-z
x,1/2+y,1/2-z
-x,y,z
x,1/2-y,1/2+z
1/2+x,1/2+y,z
1/2-x,-y,1/2+z
1/2+x,1/2-y,-z
1/2-x,y,1/2-z
1/2-x,1/2-y,-z
1/2+x,y,1/2-z
1/2-x,1/2+y,z
1/2+x,-y,1/2+z
loop_
_atom_site_type_symbol
_atom_site_label
_atom_site_fract_x
_atom_site_fract_y
_atom_site_fract_z
Si Si1 0.669725 0.298401 0.814524
Si Si2 0.830795 0.460301 0.685189
Si Si3 0.250000 0.631075 0.750000
Si Si4 0.337382 0.699705 0.642520
Si Si5 0.832023 0.119644 0.086232
Si Si6 0.328625 0.375492 0.453859
Si Si7 0.161504 0.436811 0.357900
O O1 0.500000 0.295276 0.801688
O O2 0.750000 0.311376 0.750000
O O3 0.725712 0.248532 0.837706
O O4 0.690083 0.336044 0.869123
O O5 0.750000 0.448794 0.750000
O O6 0.797160 0.424727 0.629096
O O7 0.797212 0.512344 0.664407
O O8 0.000000 0.457749 0.696530
O O9 0.332692 0.665032 0.702471
O O10 0.165879 0.597382 0.702768
O O11 0.500000 0.709707 0.626047
O O12 0.278327 0.670911 0.583082
O O13 0.000000 0.117547 0.069654
O O14 0.737791 0.122043 0.023405
O O15 0.500000 0.376518 0.454532
O O16 0.267113 0.416477 0.410381
O O17 0.000000 0.438251 0.382698
#
# Coordination Sequence:
#
# PCOD9476360 Si02
#       7
#    16  16   8  16  16  16  16
#     4  10  20  36  57  83 110 142 180 224 275 325
#     4  10  21  37  57  84 111 143 183 227 273 323
#     4  10  16  30  54  80 114 140 178 214 272 326
#     4   9  18  32  52  80 112 139 173 224 274 321
#     4  10  22  39  57  76 110 150 186 225 269 323
#     4  10  22  38  56  80 111 147 186 228 272 324
#     4  10  20  34  56  83 112 144 180 223 276 327
#
# _framework density 18.043403000000001
#
# number of rings (size 3 to 8) (size 9 to 14) (size 15 to 20)
#    0.000    2.154    1.538    1.385    0.000    3.692 
#    0.000    3.846    0.000    0.000    0.000    0.000 
#    0.000    0.000    0.000    0.000    0.000    0.000 
#
# Total GULP energy -289968.899176 kJ/mol
# GULP energy per Si atom -5576.324984 kJ/mol
# Density = 1.800234 g / cm^3
# Si number density = 18.043403 Si / 1000 Ang^3
#
#
#
# Elastic Constant Matrix: (Units=GPa)
#
#
# Indices 1 2 3 4 5 6 
#
# 1 54.1650 25.8336 59.8430 0.0000 0.0000 0.0000
# 2 25.8336 96.0409 48.7176 0.0000 0.0000 0.0000
# 3 59.8430 48.7176 136.4615 0.0000 0.0000 0.0000
# 4 0.0000 0.0000 0.0000 74.0555 0.0000 0.0000
# 5 0.0000 0.0000 0.0000 0.0000 32.3189 0.0000
# 6 0.0000 0.0000 0.0000 0.0000 0.0000 10.5745
#
#
#
# Elastic Compliance Matrix: (Units=1/GPa)
#
#
# Indices 1 2 3 4 5 6 
#
# 1 0.036143 -0.002054 -0.015117 0.000000 0.000000 0.000000
# 2 -0.002054 0.012832 -0.003680 0.000000 0.000000 0.000000
# 3 -0.015117 -0.003680 0.015271 0.000000 0.000000 0.000000
# 4 0.000000 0.000000 0.000000 0.013503 0.000000 0.000000
# 5 0.000000 0.000000 0.000000 0.000000 0.030942 0.000000
# 6 0.000000 0.000000 0.000000 0.000000 0.000000 0.094567
#
#
# Mechanical properties :
#
#
# Convention : Reuss Voigt Hill
#
# Bulk Modulus (GPa) = 44.35756 61.71732 53.03744
# Shear Modulus (GPa) = 19.80399 33.54131 26.67265
#
# Velocity S-wave (km/s) = 3.31656 4.31620 3.84897
# Velocity P-wave (km/s) = 6.26923 7.68886 7.01505
#
# Compressibility (1/GPa) = 0.02254407
#
# Stress axis : x y z
#
# Youngs Moduli (GPa) = 27.66778 77.93299 65.48293
#
# Poissons Ratio (x) = 0.16007 0.98989
# Poissons Ratio (y) = 0.05683 0.24099
# Poissons Ratio (z) = 0.41825 0.28681
#
# Static dielectric constant tensor:
#      x y z
#    x 1.618160 0.000000 0.000000 
#    y 0.000000 1.636450 0.000000 
#    z 0.000000 0.000000 1.587720 
# 
# From -- ./inp_files/37404.got.cif
#   From: 2010.05.17/outbox.cif.g08.bks.cpg/sg64_19_cif.got.tgz:37404.got - 2010.06.03 16:29:19.
