data_PCOD9476613
_publ_section_title
;
Structure prediction by ZEFSAII (Michael W. Deem and Ramdas Pophale) SiO2 
 PCOD9476613
Probable space group: C M C A
;
_chemical_formula_sum "Si O2"
_cell_formula_units_Z 96
_cell_length_a 19.301427
_cell_length_b 12.926882
_cell_length_c 17.313691
_cell_angle_alpha 90.000000
_cell_angle_beta 90.000000
_cell_angle_gamma 90.000000
_cell_volume 4319.891762
_symmetry_space_group_name_H-M "C M C A"
_symmetry_group_IT_number 64
_symmetry_cell_setting 'orthorhombic'
loop_
_space_group_symop_operation_xyz
x,y,z
-x,1/2-y,1/2+z
x,-y,-z
-x,1/2+y,1/2-z
-x,-y,-z
x,1/2+y,1/2-z
-x,y,z
x,1/2-y,1/2+z
1/2+x,1/2+y,z
1/2-x,-y,1/2+z
1/2+x,1/2-y,-z
1/2-x,y,1/2-z
1/2-x,1/2-y,-z
1/2+x,y,1/2-z
1/2-x,1/2+y,z
1/2+x,-y,1/2+z
loop_
_atom_site_type_symbol
_atom_site_label
_atom_site_fract_x
_atom_site_fract_y
_atom_site_fract_z
Si Si1 0.000000 0.707985 0.141836
Si Si2 0.781769 0.547707 0.615852
Si Si3 0.345047 0.860503 0.538908
Si Si4 0.862051 0.140466 0.606732
Si Si5 0.500000 0.636915 0.536644
Si Si6 0.111988 0.850221 0.223516
Si Si7 0.000000 0.632732 0.427550
Si Si8 0.000000 0.025231 0.236990
O O1 0.066963 0.776645 0.167148
O O2 0.000000 0.608329 0.195990
O O3 0.000000 0.672145 0.052629
O O4 0.811198 0.431505 0.606122
O O5 0.807336 0.605438 0.538472
O O6 0.699504 0.559086 0.617770
O O7 0.818024 0.610353 0.684404
O O8 0.340321 0.738550 0.554406
O O9 0.426905 0.888279 0.531467
O O10 0.929004 0.087908 0.566906
O O11 0.876707 0.191944 0.690508
O O12 0.500000 0.744561 0.583854
O O13 0.065940 0.951339 0.239603
O O14 0.000000 0.578258 0.346039
#
# Coordination Sequence:
#
# PCOD9476613 Si02
#       8
#     8  16  16  16   8  16   8   8
#     4  11  23  42  67 100 133 176 229 281 333 403
#     4  11  23  41  65 102 133 172 226 273 332 411
#     4  10  22  40  69 100 131 175 219 285 338 382
#     4  11  23  45  66  93 142 173 216 279 342 398
#     4  10  22  42  72  98 124 178 222 273 352 398
#     4  11  23  41  66 100 130 179 227 276 337 406
#     4  10  17  38  70  96 129 161 221 291 327 380
#     4  11  22  41  65  96 136 171 225 281 330 403
#
# _framework density 22.222778999999999
#
# number of rings (size 3 to 8) (size 9 to 14) (size 15 to 20)
#    0.000    1.333    1.667    6.000    0.000    2.000 
#    9.000    2.500    0.000    0.000    0.000    0.000 
#    0.000    0.000    0.000    0.000    0.000    0.000 
#
# Total GULP energy -268322.031584 kJ/mol
# GULP energy per Si atom -5590.042325 kJ/mol
# Density = 2.217220 g / cm^3
# Si number density = 22.222779 Si / 1000 Ang^3
#
#
#
# Elastic Constant Matrix: (Units=GPa)
#
#
# Indices 1 2 3 4 5 6 
#
# 1 166.8952 20.0238 22.7943 0.0000 0.0000 0.0000
# 2 20.0238 59.4241 -5.2390 0.0000 0.0000 0.0000
# 3 22.7943 -5.2390 71.1961 0.0000 0.0000 0.0000
# 4 0.0000 0.0000 0.0000 31.6857 0.0000 0.0000
# 5 0.0000 0.0000 0.0000 0.0000 24.1142 0.0000
# 6 0.0000 0.0000 0.0000 0.0000 0.0000 -5.4786
#
#
#
# Elastic Compliance Matrix: (Units=1/GPa)
#
#
# Indices 1 2 3 4 5 6 
#
# 1 0.006595 -0.002424 -0.002290 0.000000 0.000000 0.000000
# 2 -0.002424 0.017829 0.002088 0.000000 0.000000 0.000000
# 3 -0.002290 0.002088 0.014933 0.000000 0.000000 0.000000
# 4 0.000000 0.000000 0.000000 0.031560 0.000000 0.000000
# 5 0.000000 0.000000 0.000000 0.000000 0.041469 0.000000
# 6 0.000000 0.000000 0.000000 0.000000 0.000000 -0.182528
#
#
# Mechanical properties :
#
#
# Convention : Reuss Voigt Hill
#
# Bulk Modulus (GPa) = 29.32140 41.40819 35.36479
# Shear Modulus (GPa) = -93.42154 27.39334 -33.01410
#
# Velocity S-wave (km/s) = -6.49076 3.51475 -3.85853
# Velocity P-wave (km/s) = 6.55364 5.92832 1.97551
#
# Compressibility (1/GPa) = 0.03410479
#
# Stress axis : x y z
#
# Youngs Moduli (GPa) = 151.62049 56.08785 66.96781
#
# Poissons Ratio (x) = 0.13597 0.15336
# Poissons Ratio (y) = 0.36757 -0.13984
# Poissons Ratio (z) = 0.34721 -0.11712
#
# Static dielectric constant tensor:
#      x y z
#    x 1.876980 0.000000 0.000000 
#    y 0.000000 1.788520 0.000000 
#    z 0.000000 0.000000 1.824470 
# 
# From -- ./inp_files/26399.got.cif
#   From: 2010.05.17/outbox.cif.g08.bks.cpg/sg64_14_cif.got.tgz:26399.got - 2010.06.03 16:29:19.
