data_PCOD9476967
_publ_section_title
;
Structure prediction by ZEFSAII (Michael W. Deem and Ramdas Pophale) SiO2 
 PCOD9476967
Probable space group: C M C A
;
_chemical_formula_sum "Si O2"
_cell_formula_units_Z 96
_cell_length_a 15.553201
_cell_length_b 17.323577
_cell_length_c 20.431171
_cell_angle_alpha 90.000000
_cell_angle_beta 90.000000
_cell_angle_gamma 90.000000
_cell_volume 5504.914956
_symmetry_space_group_name_H-M "C M C A"
_symmetry_group_IT_number 64
_symmetry_cell_setting 'orthorhombic'
loop_
_space_group_symop_operation_xyz
x,y,z
-x,1/2-y,1/2+z
x,-y,-z
-x,1/2+y,1/2-z
-x,-y,-z
x,1/2+y,1/2-z
-x,y,z
x,1/2-y,1/2+z
1/2+x,1/2+y,z
1/2-x,-y,1/2+z
1/2+x,1/2-y,-z
1/2-x,y,1/2-z
1/2-x,1/2-y,-z
1/2+x,y,1/2-z
1/2-x,1/2+y,z
1/2+x,-y,1/2+z
loop_
_atom_site_type_symbol
_atom_site_label
_atom_site_fract_x
_atom_site_fract_y
_atom_site_fract_z
Si Si1 0.687519 0.781965 0.945451
Si Si2 0.815389 0.536710 0.071563
Si Si3 0.000000 0.765232 0.575293
Si Si4 0.000000 0.561573 0.131574
Si Si5 0.500000 0.496030 0.223056
Si Si6 0.307294 0.020318 0.686510
Si Si7 0.000000 0.184979 0.794407
Si Si8 0.816451 0.293320 0.303835
O O1 0.699844 0.872480 0.936311
O O2 0.588032 0.766109 0.964133
O O3 0.698750 0.743070 0.874482
O O4 0.750000 0.750000 0.000000
O O5 0.912562 0.528147 0.099761
O O6 0.746192 0.503466 0.122586
O O7 0.809210 0.500000 0.000000
O O8 0.000000 0.845982 0.616878
O O9 0.000000 0.693415 0.625976
O O10 0.000000 0.539649 0.207711
O O11 0.593875 0.510411 0.189778
O O12 0.500000 0.402376 0.231131
O O13 0.250000 0.996306 0.750000
O O14 0.312544 0.113780 0.688861
O O15 0.088620 0.225201 0.776835
O O16 0.750000 0.266809 0.250000
#
# Coordination Sequence:
#
# PCOD9476967 Si02
#       8
#    16  16   8   8   8  16   8  16
#     4  10  20  37  55  75 105 142 182 216 266 320
#     4  11  22  36  55  80 111 145 183 225 276 323
#     4   8  18  35  54  76 105 142 173 214 277 318
#     4  10  19  34  56  81 107 141 179 232 274 325
#     4  10  18  33  56  82 108 136 180 217 272 322
#     4  10  19  34  56  81 110 140 176 223 269 322
#     4   8  16  32  51  75 103 137 167 205 260 321
#     4   9  18  33  54  77 103 136 176 214 263 315
#
# _framework density 17.438960999999999
#
# number of rings (size 3 to 8) (size 9 to 14) (size 15 to 20)
#    0.000    2.333    1.667    1.250    0.000    0.667 
#    3.000    2.083    0.000    0.000    0.000    0.000 
#    0.000    0.000    0.000    0.000    0.000    0.000 
#
# Total GULP energy -267405.984548 kJ/mol
# GULP energy per Si atom -5570.958011 kJ/mol
# Density = 1.739927 g / cm^3
# Si number density = 17.438961 Si / 1000 Ang^3
#
#
#
# Elastic Constant Matrix: (Units=GPa)
#
#
# Indices 1 2 3 4 5 6 
#
# 1 188.8383 38.9499 93.1239 0.0000 0.0000 0.0000
# 2 38.9499 32.2025 31.1486 0.0000 0.0000 0.0000
# 3 93.1239 31.1486 106.4261 0.0000 0.0000 0.0000
# 4 0.0000 0.0000 0.0000 25.0766 0.0000 0.0000
# 5 0.0000 0.0000 0.0000 0.0000 35.8264 0.0000
# 6 0.0000 0.0000 0.0000 0.0000 0.0000 16.3772
#
#
#
# Elastic Compliance Matrix: (Units=1/GPa)
#
#
# Indices 1 2 3 4 5 6 
#
# 1 0.009859 -0.004994 -0.007165 0.000000 0.000000 0.000000
# 2 -0.004994 0.045846 -0.009048 0.000000 0.000000 0.000000
# 3 -0.007165 -0.009048 0.018314 0.000000 0.000000 0.000000
# 4 0.000000 0.000000 0.000000 0.039878 0.000000 0.000000
# 5 0.000000 0.000000 0.000000 0.000000 0.027912 0.000000
# 6 0.000000 0.000000 0.000000 0.000000 0.000000 0.061061
#
#
# Mechanical properties :
#
#
# Convention : Reuss Voigt Hill
#
# Bulk Modulus (GPa) = 31.64140 72.65687 52.14914
# Shear Modulus (GPa) = 19.54502 26.40565 22.97534
#
# Velocity S-wave (km/s) = 3.35142 3.89546 3.63364
# Velocity P-wave (km/s) = 5.75843 7.87317 6.89733
#
# Compressibility (1/GPa) = 0.03160416
#
# Stress axis : x y z
#
# Youngs Moduli (GPa) = 101.42990 21.81208 54.60334
#
# Poissons Ratio (x) = 0.10893 0.39124
# Poissons Ratio (y) = 0.50656 0.49406
# Poissons Ratio (z) = 0.72675 0.19736
#
# Static dielectric constant tensor:
#      x y z
#    x 1.651450 0.000000 0.000000 
#    y 0.000000 1.582740 0.000000 
#    z 0.000000 0.000000 1.557880 
# 
# From -- ./inp_files/39311.got.cif
#   From: 2010.05.17/outbox.cif.g08.bks.cpg/sg64_20_cif.got.tgz:39311.got - 2010.06.03 16:29:19.
