data_PCOD9476569
_publ_section_title
;
Structure prediction by ZEFSAII (Michael W. Deem and Ramdas Pophale) SiO2 
 PCOD9476569
Probable space group: C M C A
;
_chemical_formula_sum "Si O2"
_cell_formula_units_Z 72
_cell_length_a 14.717799
_cell_length_b 15.148736
_cell_length_c 19.030018
_cell_angle_alpha 90.000000
_cell_angle_beta 90.000000
_cell_angle_gamma 90.000000
_cell_volume 4242.857674
_symmetry_space_group_name_H-M "C M C A"
_symmetry_group_IT_number 64
_symmetry_cell_setting 'orthorhombic'
loop_
_space_group_symop_operation_xyz
x,y,z
-x,1/2-y,1/2+z
x,-y,-z
-x,1/2+y,1/2-z
-x,-y,-z
x,1/2+y,1/2-z
-x,y,z
x,1/2-y,1/2+z
1/2+x,1/2+y,z
1/2-x,-y,1/2+z
1/2+x,1/2-y,-z
1/2-x,y,1/2-z
1/2-x,1/2-y,-z
1/2+x,y,1/2-z
1/2-x,1/2+y,z
1/2+x,-y,1/2+z
loop_
_atom_site_type_symbol
_atom_site_label
_atom_site_fract_x
_atom_site_fract_y
_atom_site_fract_z
Si Si1 0.697748 0.750497 0.572702
Si Si2 0.500000 0.639144 0.867755
Si Si3 0.703862 0.380839 0.174796
Si Si4 0.500000 0.569162 0.142871
Si Si5 0.500000 0.210997 0.474205
Si Si6 0.303280 0.410173 0.821532
O O1 0.750000 0.750000 0.500000
O O2 0.737039 0.671576 0.618687
O O3 0.591619 0.742971 0.552912
O O4 0.716575 0.840617 0.616650
O O5 0.598320 0.652259 0.829789
O O6 0.500000 0.533358 0.876477
O O7 0.500000 0.689977 0.942560
O O8 0.750000 0.364907 0.250000
O O9 0.711084 0.486299 0.160715
O O10 0.500000 0.619481 0.068984
O O11 0.411790 0.595050 0.187046
O O12 0.250000 0.389347 0.750000
#
# Coordination Sequence:
#
# PCOD9476569 Si02
#       6
#    16   8  16   8   8  16
#     4  11  21  35  56  81 111 143 182 225 274 325
#     4  10  17  33  55  79 106 139 184 226 269 313
#     4  10  21  36  57  82 109 143 182 227 275 325
#     4   8  17  30  55  81 102 137 183 232 265 303
#     4  10  19  33  52  79 111 139 182 226 268 318
#     4   9  19  36  55  80 110 141 181 227 275 318
#
# _framework density 16.969695000000002
#
# number of rings (size 3 to 8) (size 9 to 14) (size 15 to 20)
#    0.000    2.222    2.222    1.000    0.000    1.778 
#    0.000    5.556    0.000    1.333    0.000    0.000 
#    0.000    0.000    0.000    0.000    0.000    0.000 
#
# Total GULP energy -200456.566456 kJ/mol
# GULP energy per Si atom -5568.237957 kJ/mol
# Density = 1.693107 g / cm^3
# Si number density = 16.969695 Si / 1000 Ang^3
#
#
#
# Elastic Constant Matrix: (Units=GPa)
#
#
# Indices 1 2 3 4 5 6 
#
# 1 156.7842 61.7651 91.7269 0.0000 0.0000 0.0000
# 2 61.7651 52.9679 63.2017 0.0000 0.0000 0.0000
# 3 91.7269 63.2017 131.0920 0.0000 0.0000 0.0000
# 4 0.0000 0.0000 0.0000 16.7226 0.0000 0.0000
# 5 0.0000 0.0000 0.0000 0.0000 34.1548 0.0000
# 6 0.0000 0.0000 0.0000 0.0000 0.0000 24.3308
#
#
#
# Elastic Compliance Matrix: (Units=1/GPa)
#
#
# Indices 1 2 3 4 5 6 
#
# 1 0.012671 -0.009880 -0.004103 0.000000 0.000000 0.000000
# 2 -0.009880 0.052153 -0.018231 0.000000 0.000000 0.000000
# 3 -0.004103 -0.018231 0.019288 0.000000 0.000000 0.000000
# 4 0.000000 0.000000 0.000000 0.059799 0.000000 0.000000
# 5 0.000000 0.000000 0.000000 0.000000 0.029278 0.000000
# 6 0.000000 0.000000 0.000000 0.000000 0.000000 0.041100
#
#
# Mechanical properties :
#
#
# Convention : Reuss Voigt Hill
#
# Bulk Modulus (GPa) = 50.79861 86.02571 68.41216
# Shear Modulus (GPa) = 17.52671 23.31832 20.42252
#
# Velocity S-wave (km/s) = 3.21724 3.71093 3.47287
# Velocity P-wave (km/s) = 6.61822 8.31656 7.51551
#
# Compressibility (1/GPa) = 0.01968558
#
# Stress axis : x y z
#
# Youngs Moduli (GPa) = 78.92343 19.17423 51.84467
#
# Poissons Ratio (x) = 0.18943 0.21270
# Poissons Ratio (y) = 0.77974 0.94518
# Poissons Ratio (z) = 0.32379 0.34957
#
# Static dielectric constant tensor:
#      x y z
#    x 1.604240 0.000000 0.000000 
#    y 0.000000 1.579870 0.000000 
#    z 0.000000 0.000000 1.527480 
# 
# From -- ./inp_files/25164.got.cif
#   From: 2010.05.17/outbox.cif.g08.bks.cpg/sg64_13_cif.got.tgz:25164.got - 2010.06.03 16:29:19.
