data_PCOD9476574
_publ_section_title
;
Structure prediction by ZEFSAII (Michael W. Deem and Ramdas Pophale) SiO2 
 PCOD9476574
Probable space group: C M C A
;
_chemical_formula_sum "Si O2"
_cell_formula_units_Z 88
_cell_length_a 23.513148
_cell_length_b 14.154538
_cell_length_c 11.503860
_cell_angle_alpha 90.000000
_cell_angle_beta 90.000000
_cell_angle_gamma 90.000000
_cell_volume 3828.688765
_symmetry_space_group_name_H-M "C M C A"
_symmetry_group_IT_number 64
_symmetry_cell_setting 'orthorhombic'
loop_
_space_group_symop_operation_xyz
x,y,z
-x,1/2-y,1/2+z
x,-y,-z
-x,1/2+y,1/2-z
-x,-y,-z
x,1/2+y,1/2-z
-x,y,z
x,1/2-y,1/2+z
1/2+x,1/2+y,z
1/2-x,-y,1/2+z
1/2+x,1/2-y,-z
1/2-x,y,1/2-z
1/2-x,1/2-y,-z
1/2+x,y,1/2-z
1/2-x,1/2+y,z
1/2+x,-y,1/2+z
loop_
_atom_site_type_symbol
_atom_site_label
_atom_site_fract_x
_atom_site_fract_y
_atom_site_fract_z
Si Si1 0.000000 0.874441 0.806736
Si Si2 0.000000 0.127962 0.457557
Si Si3 0.118823 0.070402 0.888589
Si Si4 0.000000 0.644897 0.569087
Si Si5 0.870468 0.883074 0.767700
Si Si6 0.811984 0.217343 0.036001
Si Si7 0.374400 0.895089 0.998180
O O1 0.000000 0.914876 0.674102
O O2 0.067137 0.841481 0.805709
O O3 0.000000 0.904548 0.941816
O O4 0.058149 0.101467 0.520105
O O5 0.000000 0.242001 0.445634
O O6 0.057097 0.114634 0.867802
O O7 0.130082 0.997104 0.784885
O O8 0.160224 0.153585 0.932464
O O9 0.116216 0.000000 0.000000
O O10 0.820544 0.845319 0.849113
O O11 0.865337 0.860202 0.633802
O O12 0.750000 0.250000 0.000000
O O13 0.845768 0.312745 0.069377
O O14 0.350071 0.000000 0.000000
#
# Coordination Sequence:
#
# PCOD9476574 Si02
#       7
#     8   8  16   8  16  16  16
#     4  10  17  33  61  92 127 159 202 253 324 387
#     4  10  21  37  58  93 132 170 201 258 323 406
#     4  10  19  35  64  95 122 155 207 268 314 379
#     4  12  16  35  64  96 123 161 208 258 324 384
#     4  10  22  40  65  96 129 160 215 268 327 394
#     4  11  24  42  64  90 123 169 223 271 318 377
#     4  11  24  43  63  92 133 173 208 264 331 394
#
# _framework density 22.984369000000001
#
# number of rings (size 3 to 8) (size 9 to 14) (size 15 to 20)
#    0.000    1.455    5.455    1.091    0.000    4.364 
#    3.273    0.000    0.000    0.000    0.000    0.000 
#    0.000    0.000    0.000    0.000    0.000    0.000 
#
# Total GULP energy -245240.080239 kJ/mol
# GULP energy per Si atom -5573.638187 kJ/mol
# Density = 2.293206 g / cm^3
# Si number density = 22.984369 Si / 1000 Ang^3
#
#
#
# Elastic Constant Matrix: (Units=GPa)
#
#
# Indices 1 2 3 4 5 6 
#
# 1 126.4535 42.5115 4.8931 0.0000 0.0000 0.0000
# 2 42.5115 144.2984 -14.9971 0.0000 0.0000 0.0000
# 3 4.8931 -14.9971 22.7999 0.0000 0.0000 0.0000
# 4 0.0000 0.0000 0.0000 19.1307 0.0000 0.0000
# 5 0.0000 0.0000 0.0000 0.0000 10.3417 0.0000
# 6 0.0000 0.0000 0.0000 0.0000 0.0000 11.9394
#
#
#
# Elastic Compliance Matrix: (Units=1/GPa)
#
#
# Indices 1 2 3 4 5 6 
#
# 1 0.009104 -0.003097 -0.003991 0.000000 0.000000 0.000000
# 2 -0.003097 0.008492 0.006250 0.000000 0.000000 0.000000
# 3 -0.003991 0.006250 0.048828 0.000000 0.000000 0.000000
# 4 0.000000 0.000000 0.000000 0.052272 0.000000 0.000000
# 5 0.000000 0.000000 0.000000 0.000000 0.096696 0.000000
# 6 0.000000 0.000000 0.000000 0.000000 0.000000 0.083756
#
#
# Mechanical properties :
#
#
# Convention : Reuss Voigt Hill
#
# Bulk Modulus (GPa) = 15.44419 39.81852 27.63136
# Shear Modulus (GPa) = 15.50847 25.69198 20.60022
#
# Velocity S-wave (km/s) = 2.60039 3.34698 2.99703
# Velocity P-wave (km/s) = 3.96864 5.68315 4.90144
#
# Compressibility (1/GPa) = 0.06474925
#
# Stress axis : x y z
#
# Youngs Moduli (GPa) = 109.84754 117.75775 20.48019
#
# Poissons Ratio (x) = 0.36466 0.08173
# Poissons Ratio (y) = 0.34017 -0.12801
# Poissons Ratio (z) = 0.43836 -0.73603
#
# Static dielectric constant tensor:
#      x y z
#    x 1.867380 0.000000 0.000000 
#    y 0.000000 2.012690 0.000000 
#    z 0.000000 0.000000 1.896130 
# 
# From -- ./inp_files/27230.got.cif
#   From: 2010.05.17/outbox.cif.g08.bks.cpg/sg64_14_cif.got.tgz:27230.got - 2010.06.03 16:29:19.
