data_PCOD9476621
_publ_section_title
;
Structure prediction by ZEFSAII (Michael W. Deem and Ramdas Pophale) SiO2 
 PCOD9476621
Probable space group: C M C A
;
_chemical_formula_sum "Si O2"
_cell_formula_units_Z 64
_cell_length_a 18.773151
_cell_length_b 8.875753
_cell_length_c 21.458717
_cell_angle_alpha 90.000000
_cell_angle_beta 90.000000
_cell_angle_gamma 90.000000
_cell_volume 3575.576988
_symmetry_space_group_name_H-M "C M C A"
_symmetry_group_IT_number 64
_symmetry_cell_setting 'orthorhombic'
loop_
_space_group_symop_operation_xyz
x,y,z
-x,1/2-y,1/2+z
x,-y,-z
-x,1/2+y,1/2-z
-x,-y,-z
x,1/2+y,1/2-z
-x,y,z
x,1/2-y,1/2+z
1/2+x,1/2+y,z
1/2-x,-y,1/2+z
1/2+x,1/2-y,-z
1/2-x,y,1/2-z
1/2-x,1/2-y,-z
1/2+x,y,1/2-z
1/2-x,1/2+y,z
1/2+x,-y,1/2+z
loop_
_atom_site_type_symbol
_atom_site_label
_atom_site_fract_x
_atom_site_fract_y
_atom_site_fract_z
Si Si1 0.817518 0.230018 0.078013
Si Si2 0.804879 0.846238 0.164405
Si Si3 0.718790 0.500000 0.500000
Si Si4 0.417695 0.486248 0.075687
Si Si5 0.750000 0.107842 0.250000
O O1 0.768211 0.302724 0.129945
O O2 0.827262 0.368420 0.030848
O O3 0.889482 0.149508 0.097915
O O4 0.770038 0.095568 0.046457
O O5 0.808044 0.712720 0.215025
O O6 0.866474 0.869085 0.112694
O O7 0.790281 0.999936 0.201360
O O8 0.500000 0.457032 0.089212
O O9 0.410311 0.500000 0.000000
#
# Coordination Sequence:
#
# PCOD9476621 Si02
#       5
#    16  16   8  16   8
#     4  11  17  33  54  87 111 152 196 239 285 353
#     4  11  20  37  60  87 114 152 202 252 292 349
#     4  10  18  26  56  86 112 144 204 230 284 352
#     4  11  22  36  57  91 128 155 186 243 312 365
#     4  10  22  36  62  88 110 146 218 258 280 334
#
# _framework density 17.89921
#
# number of rings (size 3 to 8) (size 9 to 14) (size 15 to 20)
#    0.000    1.250    6.250    1.500    0.000    0.000 
#    0.000    1.875    0.000    6.000    0.000    0.000 
#    0.000    0.000    0.000    0.000    0.000    0.000 
#
# Total GULP energy -178152.346244 kJ/mol
# GULP energy per Si atom -5567.260820 kJ/mol
# Density = 1.785847 g / cm^3
# Si number density = 17.899210 Si / 1000 Ang^3
#
#
#
# Elastic Constant Matrix: (Units=GPa)
#
#
# Indices 1 2 3 4 5 6 
#
# 1 82.6384 19.5429 41.9459 0.0000 0.0000 0.0000
# 2 19.5429 104.4547 40.7780 0.0000 0.0000 0.0000
# 3 41.9459 40.7780 89.6735 0.0000 0.0000 0.0000
# 4 0.0000 0.0000 0.0000 51.9656 0.0000 0.0000
# 5 0.0000 0.0000 0.0000 0.0000 18.3230 0.0000
# 6 0.0000 0.0000 0.0000 0.0000 0.0000 16.7391
#
#
#
# Elastic Compliance Matrix: (Units=1/GPa)
#
#
# Indices 1 2 3 4 5 6 
#
# 1 0.015869 -0.000087 -0.007384 0.000000 0.000000 0.000000
# 2 -0.000087 0.011640 -0.005253 0.000000 0.000000 0.000000
# 3 -0.007384 -0.005253 0.016994 0.000000 0.000000 0.000000
# 4 0.000000 0.000000 0.000000 0.019244 0.000000 0.000000
# 5 0.000000 0.000000 0.000000 0.000000 0.054576 0.000000
# 6 0.000000 0.000000 0.000000 0.000000 0.000000 0.059741
#
#
# Mechanical properties :
#
#
# Convention : Reuss Voigt Hill
#
# Bulk Modulus (GPa) = 52.47275 53.47781 52.97528
# Shear Modulus (GPa) = 23.82514 29.03885 26.43199
#
# Velocity S-wave (km/s) = 3.65234 4.03222 3.84697
# Velocity P-wave (km/s) = 6.86771 7.18473 7.02801
#
# Compressibility (1/GPa) = 0.01905751
#
# Stress axis : x y z
#
# Youngs Moduli (GPa) = 63.01507 85.90786 58.84411
#
# Poissons Ratio (x) = 0.00743 0.43449
# Poissons Ratio (y) = 0.00545 0.30910
# Poissons Ratio (z) = 0.46528 0.45126
#
# Static dielectric constant tensor:
#      x y z
#    x 1.602630 0.000000 0.000000 
#    y 0.000000 1.644370 0.000000 
#    z 0.000000 0.000000 1.766310 
# 
# From -- ./inp_files/40691.got.cif
#   From: 2010.05.17/outbox.cif.g08.bks.cpg/sg64_21_cif.got.tgz:40691.got - 2010.06.03 16:29:19.
