data_PCOD9476241
_publ_section_title
;
Structure prediction by ZEFSAII (Michael W. Deem and Ramdas Pophale) SiO2 
 PCOD9476241
Probable space group: C M C M
;
_chemical_formula_sum "Si O2"
_cell_formula_units_Z 32
_cell_length_a 9.000000
_cell_length_b 21.000000
_cell_length_c 18.000000
_cell_angle_alpha 90.000000
_cell_angle_beta 90.000000
_cell_angle_gamma 90.000000
_cell_volume 3402.000000
_symmetry_space_group_name_H-M "C M C M"
_symmetry_group_IT_number 63
_symmetry_cell_setting 'orthorhombic'
loop_
_space_group_symop_operation_xyz
x,y,z
-x,-y,1/2+z
x,-y,-z
-x,y,1/2-z
-x,-y,-z
x,y,1/2-z
-x,y,z
x,-y,1/2+z
1/2+x,1/2+y,z
1/2-x,1/2-y,1/2+z
1/2+x,1/2-y,-z
1/2-x,1/2+y,1/2-z
1/2-x,1/2-y,-z
1/2+x,1/2+y,1/2-z
1/2-x,1/2+y,z
1/2+x,1/2-y,1/2+z
loop_
_atom_site_type_symbol
_atom_site_label
_atom_site_fract_x
_atom_site_fract_y
_atom_site_fract_z
Si Si1 0.322210 0.251094 0.418431
Si Si2 0.322298 0.495550 0.412241
Si Si3 0.676496 0.368559 0.838436
Si Si4 0.823233 0.627707 0.838530
O O1 0.500000 0.253638 0.423613
O O2 0.250000 0.250000 0.500000
O O3 0.269002 0.187831 0.375584
O O4 0.260662 0.312689 0.375094
O O5 0.290310 0.500000 0.500000
O O6 0.500000 0.484868 0.403615
O O7 0.286448 0.562896 0.373654
O O8 0.236201 0.437306 0.374909
O O9 0.699765 0.369985 0.750000
O O10 0.500000 0.357102 0.851930
O O11 0.797041 0.626594 0.750000
O O12 0.000000 0.634235 0.851054
#
# Coordination Sequence:
#
# PCOD9476241 Si02
#       4
#    16  16  16  16
#     4  12  25  41  63  89 119 156 200 249 301 359
#     4  10  21  38  62  91 122 159 202 246 295 353
#     4  10  21  38  60  88 124 162 200 246 299 354
#     4  11  24  41  62  90 124 160 200 248 299 354
#
# _framework density 9.4062319999999993
#
# number of rings (size 3 to 8) (size 9 to 14) (size 15 to 20)
#    0.000    1.250    0.000    6.000    0.000   10.000 
#    0.000    0.000    0.000    0.000    0.000    0.000 
#    0.000    0.000    0.000    0.000    0.000    0.000 
#
# Total GULP energy -179062.892448 kJ/mol
# GULP energy per Si atom -5595.715389 kJ/mol
# Density = 0.938482 g / cm^3
# Si number density = 9.406232 Si / 1000 Ang^3
#
#
#
# Elastic Constant Matrix: (Units=GPa)
#
#
# Indices 1 2 3 4 5 6 
#
# 1 138.7431 112.9461 104.4682 0.0000 0.0000 0.0000
# 2 112.9461 190.7173 106.8345 0.0000 0.0000 0.0000
# 3 104.4682 106.8345 154.1450 0.0000 0.0000 0.0000
# 4 0.0000 0.0000 0.0000 45.4047 0.0000 0.0000
# 5 0.0000 0.0000 0.0000 0.0000 30.7880 0.0000
# 6 0.0000 0.0000 0.0000 0.0000 0.0000 43.4546
#
#
#
# Elastic Compliance Matrix: (Units=1/GPa)
#
#
# Indices 1 2 3 4 5 6 
#
# 1 0.018568 -0.006452 -0.008112 0.000000 0.000000 0.000000
# 2 -0.006452 0.010813 -0.003121 0.000000 0.000000 0.000000
# 3 -0.008112 -0.003121 0.014149 0.000000 0.000000 0.000000
# 4 0.000000 0.000000 0.000000 0.022024 0.000000 0.000000
# 5 0.000000 0.000000 0.000000 0.000000 0.032480 0.000000
# 6 0.000000 0.000000 0.000000 0.000000 0.000000 0.023013
#
#
# Mechanical properties :
#
#
# Convention : Reuss Voigt Hill
#
# Bulk Modulus (GPa) = 122.57742 125.78921 124.18331
# Shear Modulus (GPa) = 31.41914 34.55323 32.98618
#
# Velocity S-wave (km/s) = 4.09115 4.29035 4.19193
# Velocity P-wave (km/s) = 9.36032 9.56832 9.46489
#
# Compressibility (1/GPa) = 0.00815811
#
# Stress axis : x y z
#
# Youngs Moduli (GPa) = 53.85482 92.48126 70.67723
#
# Poissons Ratio (x) = 0.59671 0.57337
# Poissons Ratio (y) = 0.34748 0.22061
# Poissons Ratio (z) = 0.43690 0.28867
#
# Static dielectric constant tensor:
#      x y z
#    x 1.633170 0.000000 0.000000 
#    y 0.000000 1.610610 0.000000 
#    z 0.000000 0.000000 1.626510 
# 
# From -- ./inp_files/39840.got.cif
#   From: 2010.05.17/outbox.ucp.g08.bks.cvg/sg63_20_cif.got.tgz:39840.got - 2010.06.11 16:32:19.
