data_PCOD9476036
_publ_section_title
;
Structure prediction by ZEFSAII (Michael W. Deem and Ramdas Pophale) SiO2 
 PCOD9476036
Probable space group: C M C M
;
_chemical_formula_sum "Si O2"
_cell_formula_units_Z 56
_cell_length_a 27.000000
_cell_length_b 15.000000
_cell_length_c 15.000000
_cell_angle_alpha 90.000000
_cell_angle_beta 90.000000
_cell_angle_gamma 90.000000
_cell_volume 6075.000000
_symmetry_space_group_name_H-M "C M C M"
_symmetry_group_IT_number 63
_symmetry_cell_setting 'orthorhombic'
loop_
_space_group_symop_operation_xyz
x,y,z
-x,-y,1/2+z
x,-y,-z
-x,y,1/2-z
-x,-y,-z
x,y,1/2-z
-x,y,z
x,-y,1/2+z
1/2+x,1/2+y,z
1/2-x,1/2-y,1/2+z
1/2+x,1/2-y,-z
1/2-x,1/2+y,1/2-z
1/2-x,1/2-y,-z
1/2+x,1/2+y,1/2-z
1/2-x,1/2+y,z
1/2+x,1/2-y,1/2+z
loop_
_atom_site_type_symbol
_atom_site_label
_atom_site_fract_x
_atom_site_fract_y
_atom_site_fract_z
Si Si1 0.444996 0.647064 0.390437
Si Si2 0.943918 0.230523 0.914935
Si Si3 0.412682 0.540169 0.853306
Si Si4 0.255449 0.918421 0.855616
Si Si5 0.663378 0.718213 0.149341
Si Si6 0.698657 0.596344 0.857979
Si Si7 0.331081 0.217448 0.447330
O O1 0.500000 0.660210 0.349135
O O2 0.446344 0.699653 0.482935
O O3 0.437652 0.541291 0.404451
O O4 0.392893 0.679827 0.348579
O O5 0.937115 0.137078 0.863111
O O6 0.889213 0.280201 0.911026
O O7 0.000000 0.268315 0.892765
O O8 0.415093 0.513127 0.750000
O O9 0.355128 0.552936 0.878230
O O10 0.269264 0.919713 0.750000
O O11 0.204837 0.859375 0.861104
O O12 0.298283 0.866087 0.911088
O O13 0.239683 0.020559 0.881173
O O14 0.672305 0.758257 0.250000
O O15 0.667775 0.774621 0.056289
O O16 0.701082 0.611337 0.750000
O O17 0.695867 0.691962 0.908422
#
# Coordination Sequence:
#
# PCOD9476036 Si02
#       7
#    16  16  16  16  16  16  16
#     4  10  18  28  43  62  89 130 174 208 248 302
#     4   9  19  31  42  64  97 129 167 212 247 294
#     4  10  17  26  40  61  91 130 164 197 246 296
#     4  10  19  34  53  72  99 132 171 221 267 310
#     4  10  20  33  47  68 100 135 174 223 263 298
#     4   9  18  32  50  74 103 131 170 218 259 307
#     4  10  20  33  54  75  98 141 181 209 263 322
#
# _framework density 9.2181069999999998
#
# number of rings (size 3 to 8) (size 9 to 14) (size 15 to 20)
#    0.000    2.286    1.429    2.143    0.000    4.286 
#    0.000    0.000    0.000    0.857    0.000    0.000 
#    0.000    1.143    0.000   13.714    0.000   18.286 
#
# Total GULP energy -312035.728436 kJ/mol
# GULP energy per Si atom -5572.066579 kJ/mol
# Density = 0.919713 g / cm^3
# Si number density = 9.218107 Si / 1000 Ang^3
#
#
#
# Elastic Constant Matrix: (Units=GPa)
#
#
# Indices 1 2 3 4 5 6 
#
# 1 119.2929 33.2702 25.3587 0.0000 0.0000 0.0000
# 2 33.2702 47.2429 24.1085 0.0000 0.0000 0.0000
# 3 25.3587 24.1085 75.2662 0.0000 0.0000 0.0000
# 4 0.0000 0.0000 0.0000 15.0781 0.0000 0.0000
# 5 0.0000 0.0000 0.0000 0.0000 17.7210 0.0000
# 6 0.0000 0.0000 0.0000 0.0000 0.0000 23.7259
#
#
#
# Elastic Compliance Matrix: (Units=1/GPa)
#
#
# Indices 1 2 3 4 5 6 
#
# 1 0.010554 -0.006716 -0.001405 0.000000 0.000000 0.000000
# 2 -0.006716 0.029577 -0.007211 0.000000 0.000000 0.000000
# 3 -0.001405 -0.007211 0.016069 0.000000 0.000000 0.000000
# 4 0.000000 0.000000 0.000000 0.066321 0.000000 0.000000
# 5 0.000000 0.000000 0.000000 0.000000 0.056430 0.000000
# 6 0.000000 0.000000 0.000000 0.000000 0.000000 0.042148
#
#
# Mechanical properties :
#
#
# Convention : Reuss Voigt Hill
#
# Bulk Modulus (GPa) = 39.15907 45.25299 42.20603
# Shear Modulus (GPa) = 19.21042 21.90931 20.55986
#
# Velocity S-wave (km/s) = 3.23149 3.45103 3.34307
# Velocity P-wave (km/s) = 5.93379 6.36227 6.15176
#
# Compressibility (1/GPa) = 0.02553687
#
# Stress axis : x y z
#
# Youngs Moduli (GPa) = 94.74731 33.81048 62.23068
#
# Poissons Ratio (x) = 0.22707 0.08742
# Poissons Ratio (y) = 0.63631 0.44874
# Poissons Ratio (z) = 0.13310 0.24381
#
# Static dielectric constant tensor:
#      x y z
#    x 1.684850 0.000000 0.000000 
#    y 0.000000 1.615580 0.000000 
#    z 0.000000 0.000000 1.705030 
# 
# From -- ./inp_files/37920.got.cif
#   From: 2010.05.17/outbox.ucp.g08.bks.cvg/sg63_19_cif.got.tgz:37920.got - 2010.06.11 16:32:19.
