data_PCOD9476169
_publ_section_title
;
Structure prediction by ZEFSAII (Michael W. Deem and Ramdas Pophale) SiO2 
 PCOD9476169
Probable space group: C M C M
;
_chemical_formula_sum "Si O2"
_cell_formula_units_Z 48
_cell_length_a 9.000000
_cell_length_b 24.000000
_cell_length_c 24.000000
_cell_angle_alpha 90.000000
_cell_angle_beta 90.000000
_cell_angle_gamma 90.000000
_cell_volume 5184.000000
_symmetry_space_group_name_H-M "C M C M"
_symmetry_group_IT_number 63
_symmetry_cell_setting 'orthorhombic'
loop_
_space_group_symop_operation_xyz
x,y,z
-x,-y,1/2+z
x,-y,-z
-x,y,1/2-z
-x,-y,-z
x,y,1/2-z
-x,y,z
x,-y,1/2+z
1/2+x,1/2+y,z
1/2-x,1/2-y,1/2+z
1/2+x,1/2-y,-z
1/2-x,1/2+y,1/2-z
1/2-x,1/2-y,-z
1/2+x,1/2+y,1/2-z
1/2-x,1/2+y,z
1/2+x,1/2-y,1/2+z
loop_
_atom_site_type_symbol
_atom_site_label
_atom_site_fract_x
_atom_site_fract_y
_atom_site_fract_z
Si Si1 0.821624 0.383351 0.973962
Si Si2 0.172816 0.838672 0.684261
Si Si3 0.676507 0.771257 0.908089
Si Si4 0.821229 0.350134 0.404063
Si Si5 0.676621 0.453376 0.878530
Si Si6 0.180130 0.932178 0.316109
O O1 0.777599 0.321830 0.949942
O O2 0.752224 0.431733 0.935554
O O3 0.000000 0.386624 0.968632
O O4 0.783038 0.384149 0.039237
O O5 0.189738 0.834608 0.750000
O O6 0.280185 0.797363 0.651526
O O7 0.201032 0.901737 0.663855
O O8 0.000000 0.825757 0.669772
O O9 0.500000 0.762747 0.913959
O O10 0.759722 0.712475 0.913072
O O11 0.750573 0.380995 0.350694
O O12 0.000000 0.348238 0.398994
O O13 0.500000 0.457924 0.888381
O O14 0.725039 0.510777 0.848816
O O15 0.220556 0.933484 0.250000
O O16 0.000000 0.928565 0.318422
#
# Coordination Sequence:
#
# PCOD9476169 Si02
#       6
#    16  16  16  16  16  16
#     4   9  20  37  57  83 112 140 173 220 274 323
#     4   9  17  31  53  80 108 139 177 222 271 321
#     4  10  20  35  55  79 108 142 180 222 271 322
#     4  11  23  38  56  79 109 145 183 221 265 319
#     4   9  18  34  58  84 108 138 178 223 269 318
#     4  10  22  40  59  80 109 145 184 224 265 312
#
# _framework density 9.2592590000000001
#
# number of rings (size 3 to 8) (size 9 to 14) (size 15 to 20)
#    0.000    2.333    0.000    2.000    0.000    6.667 
#    0.000    3.333    0.000    3.000    0.000    0.000 
#    0.000    0.000    0.000    0.000    0.000    0.000 
#
# Total GULP energy -267832.765026 kJ/mol
# GULP energy per Si atom -5579.849271 kJ/mol
# Density = 0.923818 g / cm^3
# Si number density = 9.259259 Si / 1000 Ang^3
#
#
#
# Elastic Constant Matrix: (Units=GPa)
#
#
# Indices 1 2 3 4 5 6 
#
# 1 34.2919 21.1828 30.5318 0.0000 0.0000 0.0000
# 2 21.1828 63.4963 34.7169 0.0000 0.0000 0.0000
# 3 30.5318 34.7169 108.3361 0.0000 0.0000 0.0000
# 4 0.0000 0.0000 0.0000 20.0595 0.0000 0.0000
# 5 0.0000 0.0000 0.0000 0.0000 29.8816 0.0000
# 6 0.0000 0.0000 0.0000 0.0000 0.0000 29.1025
#
#
#
# Elastic Compliance Matrix: (Units=1/GPa)
#
#
# Indices 1 2 3 4 5 6 
#
# 1 0.043092 -0.009379 -0.009139 0.000000 0.000000 0.000000
# 2 -0.009379 0.021136 -0.004130 0.000000 0.000000 0.000000
# 3 -0.009139 -0.004130 0.013129 0.000000 0.000000 0.000000
# 4 0.000000 0.000000 0.000000 0.049852 0.000000 0.000000
# 5 0.000000 0.000000 0.000000 0.000000 0.033465 0.000000
# 6 0.000000 0.000000 0.000000 0.000000 0.000000 0.034361
#
#
# Mechanical properties :
#
#
# Convention : Reuss Voigt Hill
#
# Bulk Modulus (GPa) = 31.18976 42.10968 36.64972
# Shear Modulus (GPa) = 19.91889 23.78825 21.85357
#
# Velocity S-wave (km/s) = 3.28322 3.58797 3.43897
# Velocity P-wave (km/s) = 5.59033 6.32086 5.96679
#
# Compressibility (1/GPa) = 0.03206180
#
# Stress axis : x y z
#
# Youngs Moduli (GPa) = 23.20631 47.31289 76.16443
#
# Poissons Ratio (x) = 0.44375 0.69605
# Poissons Ratio (y) = 0.21765 0.31455
# Poissons Ratio (z) = 0.21208 0.19540
#
# Static dielectric constant tensor:
#      x y z
#    x 1.632370 0.000000 0.000000 
#    y 0.000000 1.629830 0.000000 
#    z 0.000000 0.000000 1.640360 
# 
# From -- ./inp_files/59903.got.cif
#   From: 2010.05.17/outbox.ucp.g08.bks.cvg/sg63_30_cif.got.tgz:59903.got - 2010.06.11 16:32:19.
