data_PCOD9476878
_publ_section_title
;
Structure prediction by ZEFSAII (Michael W. Deem and Ramdas Pophale) SiO2 
 PCOD9476878
Probable space group: C M C A
;
_chemical_formula_sum "Si O2"
_cell_formula_units_Z 64
_cell_length_a 9.585424
_cell_length_b 14.692010
_cell_length_c 17.772329
_cell_angle_alpha 90.000000
_cell_angle_beta 90.000000
_cell_angle_gamma 90.000000
_cell_volume 2502.861902
_symmetry_space_group_name_H-M "C M C A"
_symmetry_group_IT_number 64
_symmetry_cell_setting 'orthorhombic'
loop_
_space_group_symop_operation_xyz
x,y,z
-x,1/2-y,1/2+z
x,-y,-z
-x,1/2+y,1/2-z
-x,-y,-z
x,1/2+y,1/2-z
-x,y,z
x,1/2-y,1/2+z
1/2+x,1/2+y,z
1/2-x,-y,1/2+z
1/2+x,1/2-y,-z
1/2-x,y,1/2-z
1/2-x,1/2-y,-z
1/2+x,y,1/2-z
1/2-x,1/2+y,z
1/2+x,-y,1/2+z
loop_
_atom_site_type_symbol
_atom_site_label
_atom_site_fract_x
_atom_site_fract_y
_atom_site_fract_z
Si Si1 0.750000 0.821585 0.750000
Si Si2 0.200568 0.054438 0.572383
Si Si3 0.000000 0.298139 0.020048
Si Si4 0.000000 0.411543 0.199225
Si Si5 0.500000 0.059124 0.622943
Si Si6 0.500000 0.236559 0.143235
Si Si7 0.000000 0.691451 0.344702
O O1 0.640435 0.773964 0.807846
O O2 0.865443 0.857716 0.808888
O O3 0.143681 0.155195 0.550870
O O4 0.128716 0.044695 0.654147
O O5 0.358417 0.027182 0.586228
O O6 0.150201 0.000000 0.500000
O O7 0.000000 0.321893 0.931978
O O8 0.000000 0.202489 0.065555
O O9 0.000000 0.300298 0.184608
O O10 0.000000 0.437293 0.285981
O O11 0.500000 0.166060 0.605675
#
# Coordination Sequence:
#
# PCOD9476878 Si02
#       7
#     8  16   8   8   8   8   8
#     4  10  18  32  52  78 122 144 182 242 276 352
#     4  10  22  39  60  85 122 158 200 242 289 351
#     4  10  22  37  59  80 118 169 183 231 301 362
#     4  10  18  32  59  86 108 152 193 245 291 331
#     4  12  21  32  64  98 116 139 199 260 295 338
#     4  11  22  36  59  90 118 148 194 241 307 353
#     4   9  18  29  52  82 112 144 183 230 287 334
#
# _framework density 25.570727999999999
#
# number of rings (size 3 to 8) (size 9 to 14) (size 15 to 20)
#    0.000    2.000    2.500    5.625    0.000    4.000 
#    0.000    1.250   11.000    0.000    0.000    0.000 
#    0.000    0.000    0.000    0.000    0.000    0.000 
#
# Total GULP energy -178135.572021 kJ/mol
# GULP energy per Si atom -5566.736626 kJ/mol
# Density = 2.551253 g / cm^3
# Si number density = 25.570728 Si / 1000 Ang^3
#
#
#
# Elastic Constant Matrix: (Units=GPa)
#
#
# Indices 1 2 3 4 5 6 
#
# 1 183.6387 16.5247 53.8202 0.0000 0.0000 0.0000
# 2 16.5247 44.5521 8.9301 0.0000 0.0000 0.0000
# 3 53.8202 8.9301 173.3088 0.0000 0.0000 0.0000
# 4 0.0000 0.0000 0.0000 21.6318 0.0000 0.0000
# 5 0.0000 0.0000 0.0000 0.0000 26.8009 0.0000
# 6 0.0000 0.0000 0.0000 0.0000 0.0000 -21.7800
#
#
#
# Elastic Compliance Matrix: (Units=1/GPa)
#
#
# Indices 1 2 3 4 5 6 
#
# 1 0.006149 -0.001918 -0.001811 0.000000 0.000000 0.000000
# 2 -0.001918 0.023278 -0.000604 0.000000 0.000000 0.000000
# 3 -0.001811 -0.000604 0.006363 0.000000 0.000000 0.000000
# 4 0.000000 0.000000 0.000000 0.046228 0.000000 0.000000
# 5 0.000000 0.000000 0.000000 0.000000 0.037312 0.000000
# 6 0.000000 0.000000 0.000000 0.000000 0.000000 -0.045914
#
#
# Mechanical properties :
#
#
# Convention : Reuss Voigt Hill
#
# Bulk Modulus (GPa) = 36.86547 62.22773 49.54660
# Shear Modulus (GPa) = 54.87083 26.81219 40.84151
#
# Velocity S-wave (km/s) = 4.63735 3.24165 4.00083
# Velocity P-wave (km/s) = 6.56671 6.19672 6.38440
#
# Compressibility (1/GPa) = 0.02712565
#
# Stress axis : x y z
#
# Youngs Moduli (GPa) = 162.63622 42.95911 157.14752
#
# Poissons Ratio (x) = 0.08238 0.28454
# Poissons Ratio (y) = 0.31188 0.09490
# Poissons Ratio (z) = 0.29447 0.02594
#
# Static dielectric constant tensor:
#      x y z
#    x 1.767960 0.000000 0.000000 
#    y 0.000000 2.123360 0.000000 
#    z 0.000000 0.000000 2.034310 
# 
# From -- ./inp_files/29325.got.cif
#   From: 2010.05.17/outbox.cif.g08.bks.cpg/sg64_15_cif.got.tgz:29325.got - 2010.06.03 16:29:19.
