data_PCOD9476266
_publ_section_title
;
Structure prediction by ZEFSAII (Michael W. Deem and Ramdas Pophale) SiO2 
 PCOD9476266
Probable space group: C M C M
;
_chemical_formula_sum "Si O2"
_cell_formula_units_Z 48
_cell_length_a 9.000000
_cell_length_b 27.000000
_cell_length_c 21.000000
_cell_angle_alpha 90.000000
_cell_angle_beta 90.000000
_cell_angle_gamma 90.000000
_cell_volume 5103.000000
_symmetry_space_group_name_H-M "C M C M"
_symmetry_group_IT_number 63
_symmetry_cell_setting 'orthorhombic'
loop_
_space_group_symop_operation_xyz
x,y,z
-x,-y,1/2+z
x,-y,-z
-x,y,1/2-z
-x,-y,-z
x,y,1/2-z
-x,y,z
x,-y,1/2+z
1/2+x,1/2+y,z
1/2-x,1/2-y,1/2+z
1/2+x,1/2-y,-z
1/2-x,1/2+y,1/2-z
1/2-x,1/2-y,-z
1/2+x,1/2+y,1/2-z
1/2-x,1/2+y,z
1/2+x,1/2-y,1/2+z
loop_
_atom_site_type_symbol
_atom_site_label
_atom_site_fract_x
_atom_site_fract_y
_atom_site_fract_z
Si Si1 0.178259 0.209700 0.951419
Si Si2 0.820560 0.969247 0.171970
Si Si3 0.674763 0.635063 0.176566
Si Si4 0.322006 0.058177 0.413168
Si Si5 0.824058 0.254052 0.177535
Si Si6 0.821409 0.092960 0.544626
O O1 0.233421 0.222157 0.879989
O O2 0.216037 0.151557 0.963675
O O3 0.000000 0.214114 0.956008
O O4 0.250000 0.250000 0.000000
O O5 0.779440 0.964367 0.250000
O O6 0.787769 0.925843 0.117901
O O7 0.000000 0.975059 0.172685
O O8 0.746854 0.015816 0.134062
O O9 0.708827 0.620135 0.250000
O O10 0.500000 0.623305 0.165054
O O11 0.774680 0.607978 0.124675
O O12 0.690550 0.694386 0.173015
O O13 0.500000 0.052375 0.417001
O O14 0.255718 0.063017 0.485595
O O15 0.779706 0.268446 0.250000
O O16 0.000000 0.265265 0.170375
O O17 0.000000 0.087421 0.536942
#
# Coordination Sequence:
#
# PCOD9476266 Si02
#       6
#    16  16  16  16  16  16
#     4  11  23  38  59  87 118 153 195 243 291 341
#     4  10  22  42  66  87 110 147 193 235 279 337
#     4   9  18  34  56  81 112 154 200 240 282 339
#     4  12  24  36  56  88 121 150 185 234 291 345
#     4   9  19  36  57  82 114 152 194 240 291 348
#     4  10  23  42  62  84 113 152 196 238 279 333
#
# _framework density 9.4062319999999993
#
# number of rings (size 3 to 8) (size 9 to 14) (size 15 to 20)
#    0.000    1.833    0.000    5.000    0.000   12.333 
#    0.000    3.333    0.000    0.000    0.000    0.000 
#    0.000    0.000    0.000    0.000    0.000    0.000 
#
# Total GULP energy -267722.526127 kJ/mol
# GULP energy per Si atom -5577.552628 kJ/mol
# Density = 0.938482 g / cm^3
# Si number density = 9.406232 Si / 1000 Ang^3
#
#
#
# Elastic Constant Matrix: (Units=GPa)
#
#
# Indices 1 2 3 4 5 6 
#
# 1 65.5438 35.6395 51.5355 0.0000 0.0000 0.0000
# 2 35.6395 86.2395 57.2293 0.0000 0.0000 0.0000
# 3 51.5355 57.2293 177.8187 0.0000 0.0000 0.0000
# 4 0.0000 0.0000 0.0000 41.6254 0.0000 0.0000
# 5 0.0000 0.0000 0.0000 0.0000 39.8540 0.0000
# 6 0.0000 0.0000 0.0000 0.0000 0.0000 24.7684
#
#
#
# Elastic Compliance Matrix: (Units=1/GPa)
#
#
# Indices 1 2 3 4 5 6 
#
# 1 0.022097 -0.006208 -0.004406 0.000000 0.000000 0.000000
# 2 -0.006208 0.016489 -0.003508 0.000000 0.000000 0.000000
# 3 -0.004406 -0.003508 0.008030 0.000000 0.000000 0.000000
# 4 0.000000 0.000000 0.000000 0.024024 0.000000 0.000000
# 5 0.000000 0.000000 0.000000 0.000000 0.025092 0.000000
# 6 0.000000 0.000000 0.000000 0.000000 0.000000 0.040374
#
#
# Mechanical properties :
#
#
# Convention : Reuss Voigt Hill
#
# Bulk Modulus (GPa) = 54.43053 68.71229 61.57141
# Shear Modulus (GPa) = 29.33033 33.59608 31.46321
#
# Velocity S-wave (km/s) = 3.95282 4.23051 4.09402
# Velocity P-wave (km/s) = 7.05897 7.77606 7.42617
#
# Compressibility (1/GPa) = 0.01837204
#
# Stress axis : x y z
#
# Youngs Moduli (GPa) = 45.25499 60.64746 124.53912
#
# Poissons Ratio (x) = 0.37649 0.54875
# Poissons Ratio (y) = 0.28094 0.43683
# Poissons Ratio (z) = 0.19940 0.21273
#
# Static dielectric constant tensor:
#      x y z
#    x 1.633440 0.000000 0.000000 
#    y 0.000000 1.690660 0.000000 
#    z 0.000000 0.000000 1.667230 
# 
# From -- ./inp_files/51331.got.cif
#   From: 2010.05.17/outbox.ucp.g08.bks.cvg/sg63_26_cif.got.tgz:51331.got - 2010.06.11 16:32:19.
