data_PCOD9476257
_publ_section_title
;
Structure prediction by ZEFSAII (Michael W. Deem and Ramdas Pophale) SiO2 
 PCOD9476257
Probable space group: C M C M
;
_chemical_formula_sum "Si O2"
_cell_formula_units_Z 44
_cell_length_a 30.000000
_cell_length_b 18.000000
_cell_length_c 9.000000
_cell_angle_alpha 90.000000
_cell_angle_beta 90.000000
_cell_angle_gamma 90.000000
_cell_volume 4860.000000
_symmetry_space_group_name_H-M "C M C M"
_symmetry_group_IT_number 63
_symmetry_cell_setting 'orthorhombic'
loop_
_space_group_symop_operation_xyz
x,y,z
-x,-y,1/2+z
x,-y,-z
-x,y,1/2-z
-x,-y,-z
x,y,1/2-z
-x,y,z
x,-y,1/2+z
1/2+x,1/2+y,z
1/2-x,1/2-y,1/2+z
1/2+x,1/2-y,-z
1/2-x,1/2+y,1/2-z
1/2-x,1/2-y,-z
1/2+x,1/2+y,1/2-z
1/2-x,1/2+y,z
1/2+x,1/2-y,1/2+z
loop_
_atom_site_type_symbol
_atom_site_label
_atom_site_fract_x
_atom_site_fract_y
_atom_site_fract_z
Si Si1 0.641448 0.916883 0.067981
Si Si2 0.088307 0.825672 0.930781
Si Si3 0.445064 0.168886 0.069043
Si Si4 0.328247 0.416992 0.430151
Si Si5 0.000000 0.920696 0.926253
Si Si6 0.235755 0.329789 0.071733
O O1 0.638492 0.919107 0.250000
O O2 0.686433 0.865809 0.031362
O O3 0.593613 0.886358 0.000794
O O4 0.648382 0.000000 0.000000
O O5 0.093202 0.817789 0.750000
O O6 0.045631 0.877907 0.963509
O O7 0.073084 0.747568 0.004228
O O8 0.133260 0.863041 0.999349
O O9 0.442223 0.166519 0.250000
O O10 0.500000 0.159295 0.034191
O O11 0.332471 0.500000 0.500000
O O12 0.333953 0.419926 0.250000
O O13 0.278194 0.384460 0.460291
O O14 0.000000 0.929288 0.750000
O O15 0.000000 0.000000 0.000000
O O16 0.234066 0.319577 0.250000
O O17 0.250000 0.250000 0.000000
#
# Coordination Sequence:
#
# PCOD9476257 Si02
#       6
#    16  16  16  16   8  16
#     4  11  24  43  67  95 127 165 208 258 313 370
#     4  11  22  39  60  87 121 162 208 255 307 364
#     4  11  24  42  65  93 124 162 206 256 313 373
#     4  11  23  39  59  88 124 163 206 253 305 363
#     4  10  22  36  54  80 115 156 201 252 304 358
#     4  10  23  41  63  92 125 162 205 252 305 365
#
# _framework density 9.0534979999999994
#
# number of rings (size 3 to 8) (size 9 to 14) (size 15 to 20)
#    0.000    1.273    0.909    4.364    0.000   10.182 
#    0.000    0.000    0.000    0.000    0.000    0.000 
#    0.000    0.000    0.000    0.000    0.000    0.000 
#
# Total GULP energy -245363.996098 kJ/mol
# GULP energy per Si atom -5576.454457 kJ/mol
# Density = 0.903289 g / cm^3
# Si number density = 9.053498 Si / 1000 Ang^3
#
#
#
# Elastic Constant Matrix: (Units=GPa)
#
#
# Indices 1 2 3 4 5 6 
#
# 1 188.4216 67.9710 56.2556 0.0000 0.0000 0.0000
# 2 67.9710 135.9578 44.4584 0.0000 0.0000 0.0000
# 3 56.2556 44.4584 95.0936 0.0000 0.0000 0.0000
# 4 0.0000 0.0000 0.0000 41.8126 0.0000 0.0000
# 5 0.0000 0.0000 0.0000 0.0000 42.9809 0.0000
# 6 0.0000 0.0000 0.0000 0.0000 0.0000 46.9797
#
#
#
# Elastic Compliance Matrix: (Units=1/GPa)
#
#
# Indices 1 2 3 4 5 6 
#
# 1 0.007140 -0.002583 -0.003016 0.000000 0.000000 0.000000
# 2 -0.002583 0.009617 -0.002968 0.000000 0.000000 0.000000
# 3 -0.003016 -0.002968 0.013688 0.000000 0.000000 0.000000
# 4 0.000000 0.000000 0.000000 0.023916 0.000000 0.000000
# 5 0.000000 0.000000 0.000000 0.000000 0.023266 0.000000
# 6 0.000000 0.000000 0.000000 0.000000 0.000000 0.021286
#
#
# Mechanical properties :
#
#
# Convention : Reuss Voigt Hill
#
# Bulk Modulus (GPa) = 75.13072 84.09367 79.61219
# Shear Modulus (GPa) = 41.49936 43.07386 42.28661
#
# Velocity S-wave (km/s) = 4.79257 4.88264 4.83781
# Velocity P-wave (km/s) = 8.49751 8.85044 8.67577
#
# Compressibility (1/GPa) = 0.01331014
#
# Stress axis : x y z
#
# Youngs Moduli (GPa) = 140.06529 103.98011 73.05781
#
# Poissons Ratio (x) = 0.26859 0.22034
# Poissons Ratio (y) = 0.36181 0.21685
# Poissons Ratio (z) = 0.42243 0.30863
#
# Static dielectric constant tensor:
#      x y z
#    x 1.641230 0.000000 0.000000 
#    y 0.000000 1.635570 0.000000 
#    z 0.000000 0.000000 1.618910 
# 
# From -- ./inp_files/14215.got.cif
#   From: 2010.05.17/outbox.ucp.g08.bks.cvg/sg63_8_cif.got.tgz:14215.got - 2010.06.11 16:32:19.
