data_PCOD9476843
_publ_section_title
;
Structure prediction by ZEFSAII (Michael W. Deem and Ramdas Pophale) SiO2 
 PCOD9476843
Probable space group: C M C A
;
_chemical_formula_sum "Si O2"
_cell_formula_units_Z 96
_cell_length_a 27.474400
_cell_length_b 19.328651
_cell_length_c 7.594077
_cell_angle_alpha 90.000000
_cell_angle_beta 90.000000
_cell_angle_gamma 90.000000
_cell_volume 4032.782108
_symmetry_space_group_name_H-M "C M C A"
_symmetry_group_IT_number 64
_symmetry_cell_setting 'orthorhombic'
loop_
_space_group_symop_operation_xyz
x,y,z
-x,1/2-y,1/2+z
x,-y,-z
-x,1/2+y,1/2-z
-x,-y,-z
x,1/2+y,1/2-z
-x,y,z
x,1/2-y,1/2+z
1/2+x,1/2+y,z
1/2-x,-y,1/2+z
1/2+x,1/2-y,-z
1/2-x,y,1/2-z
1/2-x,1/2-y,-z
1/2+x,y,1/2-z
1/2-x,1/2+y,z
1/2+x,-y,1/2+z
loop_
_atom_site_type_symbol
_atom_site_label
_atom_site_fract_x
_atom_site_fract_y
_atom_site_fract_z
Si Si1 0.854339 0.390341 0.881054
Si Si2 0.315306 0.975194 0.175726
Si Si3 0.554484 0.654025 0.870353
Si Si4 0.305320 0.271810 0.766352
Si Si5 0.446849 0.685634 0.454997
Si Si6 0.838723 0.358763 0.396909
O O1 0.836326 0.452452 0.755152
O O2 0.815188 0.329077 0.884476
O O3 0.905016 0.353551 0.849302
O O4 0.855259 0.430654 0.066379
O O5 0.304238 0.920552 0.326865
O O6 0.284298 0.000000 0.000000
O O7 0.500000 0.627486 0.919026
O O8 0.559141 0.731892 0.947247
O O9 0.554275 0.662377 0.658082
O O10 0.605293 0.617841 0.922719
O O11 0.250000 0.248905 0.750000
O O12 0.338817 0.205133 0.742839
O O13 0.317795 0.317640 0.935867
O O14 0.500000 0.669839 0.379892
#
# Coordination Sequence:
#
# PCOD9476843 Si02
#       6
#    16  16  16  16  16  16
#     4   9  19  41  57  84 127 154 209 260 309 388
#     4   8  20  39  66  83 126 168 204 254 329 381
#     4  10  19  31  54  91 121 158 209 252 321 382
#     4  12  26  40  64  94 122 160 224 263 328 381
#     4  10  18  31  55  85 122 163 206 261 316 380
#     4  12  21  40  63  91 130 172 201 281 320 369
#
# _framework density 23.804907
#
# number of rings (size 3 to 8) (size 9 to 14) (size 15 to 20)
#    1.000    0.667    3.333    2.500    0.000    0.667 
#    0.000    6.667    0.000    0.000    0.000    2.333 
#    0.000    0.000    0.000    0.000    0.000    0.000 
#
# Total GULP energy -267438.979900 kJ/mol
# GULP energy per Si atom -5571.645415 kJ/mol
# Density = 2.375073 g / cm^3
# Si number density = 23.804907 Si / 1000 Ang^3
#
#
#
# Elastic Constant Matrix: (Units=GPa)
#
#
# Indices 1 2 3 4 5 6 
#
# 1 122.3392 11.1006 -1.5887 0.0000 0.0000 0.0000
# 2 11.1006 85.4437 -5.9453 0.0000 0.0000 0.0000
# 3 -1.5887 -5.9453 73.9960 0.0000 0.0000 0.0000
# 4 0.0000 0.0000 0.0000 37.2977 0.0000 0.0000
# 5 0.0000 0.0000 0.0000 0.0000 24.0002 0.0000
# 6 0.0000 0.0000 0.0000 0.0000 0.0000 11.1363
#
#
#
# Elastic Compliance Matrix: (Units=1/GPa)
#
#
# Indices 1 2 3 4 5 6 
#
# 1 0.008272 -0.001068 0.000092 0.000000 0.000000 0.000000
# 2 -0.001068 0.011907 0.000934 0.000000 0.000000 0.000000
# 3 0.000092 0.000934 0.013591 0.000000 0.000000 0.000000
# 4 0.000000 0.000000 0.000000 0.026811 0.000000 0.000000
# 5 0.000000 0.000000 0.000000 0.000000 0.041666 0.000000
# 6 0.000000 0.000000 0.000000 0.000000 0.000000 0.089796
#
#
# Mechanical properties :
#
#
# Convention : Reuss Voigt Hill
#
# Bulk Modulus (GPa) = 29.68661 32.10134 30.89397
# Shear Modulus (GPa) = 24.58713 33.03433 28.81073
#
# Velocity S-wave (km/s) = 3.21730 3.72924 3.48269
# Velocity P-wave (km/s) = 5.12828 5.66193 5.40170
#
# Compressibility (1/GPa) = 0.03368522
#
# Stress axis : x y z
#
# Youngs Moduli (GPa) = 120.88805 83.98152 73.57685
#
# Poissons Ratio (x) = 0.08972 -0.00675
# Poissons Ratio (y) = 0.12914 -0.06870
# Poissons Ratio (z) = -0.01109 -0.07842
#
# Static dielectric constant tensor:
#      x y z
#    x 1.913720 0.000000 0.000000 
#    y 0.000000 1.873390 0.000000 
#    z 0.000000 0.000000 2.133710 
# 
# From -- ./inp_files/10337.got.cif
#   From: 2010.05.17/outbox.cif.g08.bks.cpg/sg64_6_cif.got.tgz:10337.got - 2010.06.03 16:29:19.
