data_PCOD9476093
_publ_section_title
;
Structure prediction by ZEFSAII (Michael W. Deem and Ramdas Pophale) SiO2 
 PCOD9476093
Probable space group: C M C M
;
_chemical_formula_sum "Si O2"
_cell_formula_units_Z 52
_cell_length_a 30.000000
_cell_length_b 24.000000
_cell_length_c 9.000000
_cell_angle_alpha 90.000000
_cell_angle_beta 90.000000
_cell_angle_gamma 90.000000
_cell_volume 6480.000000
_symmetry_space_group_name_H-M "C M C M"
_symmetry_group_IT_number 63
_symmetry_cell_setting 'orthorhombic'
loop_
_space_group_symop_operation_xyz
x,y,z
-x,-y,1/2+z
x,-y,-z
-x,y,1/2-z
-x,-y,-z
x,y,1/2-z
-x,y,z
x,-y,1/2+z
1/2+x,1/2+y,z
1/2-x,1/2-y,1/2+z
1/2+x,1/2-y,-z
1/2-x,1/2+y,1/2-z
1/2-x,1/2-y,-z
1/2+x,1/2+y,1/2-z
1/2-x,1/2+y,z
1/2+x,1/2-y,1/2+z
loop_
_atom_site_type_symbol
_atom_site_label
_atom_site_fract_x
_atom_site_fract_y
_atom_site_fract_z
Si Si1 0.948994 0.859233 0.929154
Si Si2 0.592234 0.123425 0.429744
Si Si3 0.051767 0.739749 0.073012
Si Si4 0.768232 0.061806 0.429221
Si Si5 0.176803 0.437771 0.429589
Si Si6 0.132022 0.061153 0.071228
Si Si7 0.500000 0.939410 0.928634
O O1 0.948628 0.858295 0.750000
O O2 0.909520 0.900700 0.977807
O O3 0.000000 0.874597 0.975658
O O4 0.939830 0.797327 0.989322
O O5 0.598226 0.118496 0.250000
O O6 0.583437 0.188239 0.466341
O O7 0.634365 0.097161 0.513276
O O8 0.545897 0.092074 0.469007
O O9 0.055480 0.749026 0.250000
O O10 0.000000 0.723498 0.044394
O O11 0.762307 0.059426 0.250000
O O12 0.723717 0.086268 0.505465
O O13 0.818055 0.085181 0.460680
O O14 0.770308 0.000000 0.500000
O O15 0.172376 0.500000 0.500000
O O16 0.178242 0.440934 0.250000
O O17 0.129750 0.055322 0.250000
O O18 0.128554 0.000000 0.000000
O O19 0.500000 0.943489 0.750000
O O20 0.500000 0.000000 0.000000
#
# Coordination Sequence:
#
# PCOD9476093 Si02
#       7
#    16  16  16  16  16  16   8
#     4   9  18  32  49  72 103 133 159 194 237 282
#     4  10  19  33  50  68  94 126 160 201 244 284
#     4   9  17  32  52  71  92 124 166 204 237 280
#     4   9  16  29  48  68  92 124 160 197 236 282
#     4  11  21  32  47  70  97 125 159 199 243 291
#     4   9  18  31  49  74 102 131 161 193 235 284
#     4  10  20  32  46  66  94 126 155 192 239 286
#
# _framework density 8.0246910000000007
#
# number of rings (size 3 to 8) (size 9 to 14) (size 15 to 20)
#    0.000    2.462    0.769    3.231    0.000    4.000 
#    0.000    0.000    0.000    0.923    0.000    0.000 
#    0.000    0.000    0.000    0.000    0.000    0.000 
#
# Total GULP energy -289686.375238 kJ/mol
# GULP energy per Si atom -5570.891831 kJ/mol
# Density = 0.800643 g / cm^3
# Si number density = 8.024691 Si / 1000 Ang^3
#
#
#
# Elastic Constant Matrix: (Units=GPa)
#
#
# Indices 1 2 3 4 5 6 
#
# 1 170.5845 73.4367 51.1533 0.0000 0.0000 0.0000
# 2 73.4367 72.1673 27.6176 0.0000 0.0000 0.0000
# 3 51.1533 27.6176 54.8242 0.0000 0.0000 0.0000
# 4 0.0000 0.0000 0.0000 24.9655 0.0000 0.0000
# 5 0.0000 0.0000 0.0000 0.0000 23.8208 0.0000
# 6 0.0000 0.0000 0.0000 0.0000 0.0000 17.7875
#
#
#
# Elastic Compliance Matrix: (Units=1/GPa)
#
#
# Indices 1 2 3 4 5 6 
#
# 1 0.011926 -0.009759 -0.006212 0.000000 0.000000 0.000000
# 2 -0.009759 0.025151 -0.003565 0.000000 0.000000 0.000000
# 3 -0.006212 -0.003565 0.025831 0.000000 0.000000 0.000000
# 4 0.000000 0.000000 0.000000 0.040055 0.000000 0.000000
# 5 0.000000 0.000000 0.000000 0.000000 0.041980 0.000000
# 6 0.000000 0.000000 0.000000 0.000000 0.000000 0.056219
#
#
# Mechanical properties :
#
#
# Convention : Reuss Voigt Hill
#
# Bulk Modulus (GPa) = 41.94817 66.88790 54.41804
# Shear Modulus (GPa) = 20.14676 23.00599 21.57637
#
# Velocity S-wave (km/s) = 3.54686 3.79020 3.67055
# Velocity P-wave (km/s) = 6.55495 7.80519 7.20723
#
# Compressibility (1/GPa) = 0.02383894
#
# Stress axis : x y z
#
# Youngs Moduli (GPa) = 83.85068 39.75961 38.71262
#
# Poissons Ratio (x) = 0.38800 0.24046
# Poissons Ratio (y) = 0.81827 0.13799
# Poissons Ratio (z) = 0.52084 0.14173
#
# Static dielectric constant tensor:
#      x y z
#    x 1.571290 0.000000 0.000000 
#    y 0.000000 1.516250 0.000000 
#    z 0.000000 0.000000 1.533630 
# 
# From -- ./inp_files/14680.got.cif
#   From: 2010.05.17/outbox.ucp.g08.bks.cvg/sg63_8_cif.got.tgz:14680.got - 2010.06.11 16:32:19.
