data_PCOD9476451
_publ_section_title
;
Structure prediction by ZEFSAII (Michael W. Deem and Ramdas Pophale) SiO2 
 PCOD9476451
Probable space group: C M C A
;
_chemical_formula_sum "Si O2"
_cell_formula_units_Z 96
_cell_length_a 21.096097
_cell_length_b 26.974928
_cell_length_c 8.364109
_cell_angle_alpha 90.000000
_cell_angle_beta 90.000000
_cell_angle_gamma 90.000000
_cell_volume 4759.727523
_symmetry_space_group_name_H-M "C M C A"
_symmetry_group_IT_number 64
_symmetry_cell_setting 'orthorhombic'
loop_
_space_group_symop_operation_xyz
x,y,z
-x,1/2-y,1/2+z
x,-y,-z
-x,1/2+y,1/2-z
-x,-y,-z
x,1/2+y,1/2-z
-x,y,z
x,1/2-y,1/2+z
1/2+x,1/2+y,z
1/2-x,-y,1/2+z
1/2+x,1/2-y,-z
1/2-x,y,1/2-z
1/2-x,1/2-y,-z
1/2+x,y,1/2-z
1/2-x,1/2+y,z
1/2+x,-y,1/2+z
loop_
_atom_site_type_symbol
_atom_site_label
_atom_site_fract_x
_atom_site_fract_y
_atom_site_fract_z
Si Si1 0.430825 0.406820 0.532507
Si Si2 0.317428 0.395955 0.117474
Si Si3 0.617508 0.819102 0.175607
Si Si4 0.302088 0.051731 0.936081
Si Si5 0.570669 0.632779 0.109748
Si Si6 0.072181 0.260433 0.477748
O O1 0.500000 0.430512 0.513790
O O2 0.421607 0.365181 0.395660
O O3 0.369074 0.440457 0.521008
O O4 0.427995 0.381840 0.706161
O O5 0.326302 0.346276 0.226105
O O6 0.317914 0.440770 0.247409
O O7 0.250217 0.405350 0.032092
O O8 0.375132 0.393479 0.994390
O O9 0.582217 0.785288 0.305571
O O10 0.622896 0.781291 0.027193
O O11 0.275893 0.000000 0.000000
O O12 0.500000 0.621092 0.045672
O O13 0.578588 0.691842 0.092577
O O14 0.000000 0.240493 0.487491
#
# Coordination Sequence:
#
# PCOD9476451 Si02
#       6
#    16  16  16  16  16  16
#     4  10  20  35  56  84 117 149 188 244 309 363
#     4   9  21  39  58  84 119 153 197 248 305 363
#     4  10  19  32  53  83 123 163 199 246 287 341
#     4  10  22  40  63  83 105 145 195 248 304 376
#     4   9  19  34  55  86 121 157 195 240 289 344
#     4  10  17  27  49  81 114 154 201 235 273 334
#
# _framework density 20.169221
#
# number of rings (size 3 to 8) (size 9 to 14) (size 15 to 20)
#    0.000    2.333    0.000    2.500    0.000    9.667 
#    0.000    0.000    0.000   68.500    0.000    0.000 
#    0.000    0.000    0.000    0.000    0.000    0.000 
#
# Total GULP energy -267221.687902 kJ/mol
# GULP energy per Si atom -5567.118498 kJ/mol
# Density = 2.012332 g / cm^3
# Si number density = 20.169221 Si / 1000 Ang^3
#
#
#
# Elastic Constant Matrix: (Units=GPa)
#
#
# Indices 1 2 3 4 5 6 
#
# 1 136.2486 38.6366 30.2335 0.0000 0.0000 0.0000
# 2 38.6366 64.9600 24.8521 0.0000 0.0000 0.0000
# 3 30.2335 24.8521 57.6573 0.0000 0.0000 0.0000
# 4 0.0000 0.0000 0.0000 30.4669 0.0000 0.0000
# 5 0.0000 0.0000 0.0000 0.0000 19.3774 0.0000
# 6 0.0000 0.0000 0.0000 0.0000 0.0000 20.7374
#
#
#
# Elastic Compliance Matrix: (Units=1/GPa)
#
#
# Indices 1 2 3 4 5 6 
#
# 1 0.009233 -0.004358 -0.002963 0.000000 0.000000 0.000000
# 2 -0.004358 0.020491 -0.006547 0.000000 0.000000 0.000000
# 3 -0.002963 -0.006547 0.021720 0.000000 0.000000 0.000000
# 4 0.000000 0.000000 0.000000 0.032823 0.000000 0.000000
# 5 0.000000 0.000000 0.000000 0.000000 0.051607 0.000000
# 6 0.000000 0.000000 0.000000 0.000000 0.000000 0.048222
#
#
# Mechanical properties :
#
#
# Convention : Reuss Voigt Hill
#
# Bulk Modulus (GPa) = 42.18112 49.59005 45.88559
# Shear Modulus (GPa) = 22.75495 25.12592 23.94043
#
# Velocity S-wave (km/s) = 3.36252 3.53336 3.44899
# Velocity P-wave (km/s) = 6.00286 6.42546 6.21775
#
# Compressibility (1/GPa) = 0.02370729
#
# Stress axis : x y z
#
# Youngs Moduli (GPa) = 108.30966 48.80243 46.04157
#
# Poissons Ratio (x) = 0.21267 0.13642
# Poissons Ratio (y) = 0.47200 0.30144
# Poissons Ratio (z) = 0.32092 0.31951
#
# Static dielectric constant tensor:
#      x y z
#    x 1.759230 0.000000 0.000000 
#    y 0.000000 1.723840 0.000000 
#    z 0.000000 0.000000 1.782760 
# 
# From -- ./inp_files/8448.got.cif
#   From: 2010.05.17/outbox.cif.g08.bks.cpg/sg64_5_cif.got.tgz:8448.got - 2010.06.03 16:29:19.
