data_PCOD9476607
_publ_section_title
;
Structure prediction by ZEFSAII (Michael W. Deem and Ramdas Pophale) SiO2 
 PCOD9476607
Probable space group: C M C A
;
_chemical_formula_sum "Si O2"
_cell_formula_units_Z 80
_cell_length_a 15.788492
_cell_length_b 17.032755
_cell_length_c 13.987774
_cell_angle_alpha 90.000000
_cell_angle_beta 90.000000
_cell_angle_gamma 90.000000
_cell_volume 3761.613390
_symmetry_space_group_name_H-M "C M C A"
_symmetry_group_IT_number 64
_symmetry_cell_setting 'orthorhombic'
loop_
_space_group_symop_operation_xyz
x,y,z
-x,1/2-y,1/2+z
x,-y,-z
-x,1/2+y,1/2-z
-x,-y,-z
x,1/2+y,1/2-z
-x,y,z
x,1/2-y,1/2+z
1/2+x,1/2+y,z
1/2-x,-y,1/2+z
1/2+x,1/2-y,-z
1/2-x,y,1/2-z
1/2-x,1/2-y,-z
1/2+x,y,1/2-z
1/2-x,1/2+y,z
1/2+x,-y,1/2+z
loop_
_atom_site_type_symbol
_atom_site_label
_atom_site_fract_x
_atom_site_fract_y
_atom_site_fract_z
Si Si1 0.194029 0.002815 0.344031
Si Si2 0.705991 0.158084 0.931180
Si Si3 0.336439 0.694608 0.198649
Si Si4 0.095045 0.345882 0.883474
Si Si5 0.654722 0.078634 0.463944
O O1 0.250000 0.987653 0.250000
O O2 0.120036 0.067278 0.343107
O O3 0.262445 0.040197 0.415357
O O4 0.164960 0.920001 0.386016
O O5 0.692632 0.229283 0.859316
O O6 0.659459 0.175547 0.031567
O O7 0.803734 0.133876 0.954161
O O8 0.250000 0.662124 0.250000
O O9 0.394940 0.708381 0.290061
O O10 0.377176 0.634770 0.121352
O O11 0.000000 0.344730 0.920257
O O12 0.606569 0.000000 0.500000
#
# Coordination Sequence:
#
# PCOD9476607 Si02
#       5
#    16  16  16  16  16
#     4  10  17  37  58  86 109 139 191 240 281 334
#     4  10  22  33  59  88 113 143 190 244 293 334
#     4  12  20  37  59  87 116 148 195 243 294 333
#     4  11  23  39  57  80 118 161 193 229 286 352
#     4   9  17  32  57  84 111 142 179 234 284 333
#
# _framework density 21.267469999999999
#
# number of rings (size 3 to 8) (size 9 to 14) (size 15 to 20)
#    0.000    1.600    6.000    3.000    0.000    2.400 
#    0.000    0.000    0.000    0.600    0.000    0.000 
#    0.000    0.000    0.000    0.000    0.000    0.000 
#
# Total GULP energy -222865.042912 kJ/mol
# GULP energy per Si atom -5571.626073 kJ/mol
# Density = 2.121906 g / cm^3
# Si number density = 21.267470 Si / 1000 Ang^3
#
#
#
# Elastic Constant Matrix: (Units=GPa)
#
#
# Indices 1 2 3 4 5 6 
#
# 1 29.7704 -6.9894 -2.3081 0.0000 0.0000 0.0000
# 2 -6.9894 106.6708 52.9395 0.0000 0.0000 0.0000
# 3 -2.3081 52.9395 118.1219 0.0000 0.0000 0.0000
# 4 0.0000 0.0000 0.0000 37.5339 0.0000 0.0000
# 5 0.0000 0.0000 0.0000 0.0000 7.4091 0.0000
# 6 0.0000 0.0000 0.0000 0.0000 0.0000 2.2136
#
#
#
# Elastic Compliance Matrix: (Units=1/GPa)
#
#
# Indices 1 2 3 4 5 6 
#
# 1 0.034132 0.002451 -0.000431 0.000000 0.000000 0.000000
# 2 0.002451 0.012232 -0.005434 0.000000 0.000000 0.000000
# 3 -0.000431 -0.005434 0.010893 0.000000 0.000000 0.000000
# 4 0.000000 0.000000 0.000000 0.026643 0.000000 0.000000
# 5 0.000000 0.000000 0.000000 0.000000 0.134970 0.000000
# 6 0.000000 0.000000 0.000000 0.000000 0.000000 0.451757
#
#
# Mechanical properties :
#
#
# Convention : Reuss Voigt Hill
#
# Bulk Modulus (GPa) = 19.83058 37.98302 28.90680
# Shear Modulus (GPa) = 7.20185 23.49272 15.34728
#
# Velocity S-wave (km/s) = 1.84219 3.32721 2.68923
# Velocity P-wave (km/s) = 3.72418 5.71479 4.82330
#
# Compressibility (1/GPa) = 0.05042716
#
# Stress axis : x y z
#
# Youngs Moduli (GPa) = 29.29779 81.75156 91.80266
#
# Poissons Ratio (x) = -0.20033 0.03960
# Poissons Ratio (y) = -0.07179 0.49888
# Poissons Ratio (z) = 0.01264 0.44426
#
# Static dielectric constant tensor:
#      x y z
#    x 1.777260 0.000000 0.000000 
#    y 0.000000 1.882300 0.000000 
#    z 0.000000 0.000000 1.889840 
# 
# From -- ./inp_files/25262.got.cif
#   From: 2010.05.17/outbox.cif.g08.bks.cpg/sg64_13_cif.got.tgz:25262.got - 2010.06.03 16:29:19.
