data_PCOD9476768
_publ_section_title
;
Structure prediction by ZEFSAII (Michael W. Deem and Ramdas Pophale) SiO2 
 PCOD9476768
Probable space group: C M C A
;
_chemical_formula_sum "Si O2"
_cell_formula_units_Z 112
_cell_length_a 13.795125
_cell_length_b 24.178782
_cell_length_c 13.767409
_cell_angle_alpha 90.000000
_cell_angle_beta 90.000000
_cell_angle_gamma 90.000000
_cell_volume 4592.109911
_symmetry_space_group_name_H-M "C M C A"
_symmetry_group_IT_number 64
_symmetry_cell_setting 'orthorhombic'
loop_
_space_group_symop_operation_xyz
x,y,z
-x,1/2-y,1/2+z
x,-y,-z
-x,1/2+y,1/2-z
-x,-y,-z
x,1/2+y,1/2-z
-x,y,z
x,1/2-y,1/2+z
1/2+x,1/2+y,z
1/2-x,-y,1/2+z
1/2+x,1/2-y,-z
1/2-x,y,1/2-z
1/2-x,1/2-y,-z
1/2+x,y,1/2-z
1/2-x,1/2+y,z
1/2+x,-y,1/2+z
loop_
_atom_site_type_symbol
_atom_site_label
_atom_site_fract_x
_atom_site_fract_y
_atom_site_fract_z
Si Si1 0.608199 0.136502 0.777873
Si Si2 0.808385 0.437368 0.065419
Si Si3 0.890546 0.950722 0.115952
Si Si4 0.206052 0.244382 0.656980
Si Si5 0.384924 0.739585 0.958116
Si Si6 0.616911 0.970061 0.796019
Si Si7 0.112431 0.134114 0.393603
O O1 0.500000 0.128600 0.819978
O O2 0.683153 0.102248 0.841311
O O3 0.603993 0.107135 0.674425
O O4 0.637097 0.199484 0.791711
O O5 0.695479 0.444089 0.039478
O O6 0.848475 0.494121 0.110876
O O7 0.869349 0.404851 0.986264
O O8 0.000000 0.962187 0.082759
O O9 0.859509 0.997119 0.196489
O O10 0.250000 0.277170 0.750000
O O11 0.296012 0.213788 0.602504
O O12 0.141862 0.270436 0.571041
O O13 0.500000 0.728604 0.939775
O O14 0.361585 0.804059 0.928505
O O15 0.500000 0.971240 0.799074
O O16 0.651073 0.906662 0.808554
O O17 0.000000 0.140613 0.370373
#
# Coordination Sequence:
#
# PCOD9476768 Si02
#       7
#    16  16  16  16  16  16  16
#     4  10  18  30  52  81 114 146 176 229 296 347
#     4  11  17  28  51  79 112 143 178 224 283 338
#     4   9  19  32  48  79 118 147 181 227 277 342
#     4  11  22  38  61  87 116 154 198 249 308 365
#     4  10  23  41  60  86 120 157 200 250 305 364
#     4   9  17  29  49  79 108 138 176 221 273 327
#     4  10  19  33  55  81 113 147 183 237 294 345
#
# _framework density 24.389659999999999
#
# number of rings (size 3 to 8) (size 9 to 14) (size 15 to 20)
#    0.000    2.000    1.429    5.571    0.000    2.286 
#    0.000    2.143    0.000    1.714    0.000    0.000 
#    0.000    0.000    0.000    0.000    0.000    0.000 
#
# Total GULP energy -312121.423112 kJ/mol
# GULP energy per Si atom -5573.596841 kJ/mol
# Density = 2.433415 g / cm^3
# Si number density = 24.389660 Si / 1000 Ang^3
#
#
#
# Elastic Constant Matrix: (Units=GPa)
#
#
# Indices 1 2 3 4 5 6 
#
# 1 114.7913 1.0367 7.9349 0.0000 0.0000 0.0000
# 2 1.0367 54.6405 -15.0618 0.0000 0.0000 0.0000
# 3 7.9349 -15.0618 39.4720 0.0000 0.0000 0.0000
# 4 0.0000 0.0000 0.0000 12.2475 0.0000 0.0000
# 5 0.0000 0.0000 0.0000 0.0000 23.6371 0.0000
# 6 0.0000 0.0000 0.0000 0.0000 0.0000 9.3854
#
#
#
# Elastic Compliance Matrix: (Units=1/GPa)
#
#
# Indices 1 2 3 4 5 6 
#
# 1 0.008861 -0.000737 -0.002062 0.000000 0.000000 0.000000
# 2 -0.000737 0.020514 0.007976 0.000000 0.000000 0.000000
# 3 -0.002062 0.007976 0.028792 0.000000 0.000000 0.000000
# 4 0.000000 0.000000 0.000000 0.081649 0.000000 0.000000
# 5 0.000000 0.000000 0.000000 0.000000 0.042306 0.000000
# 6 0.000000 0.000000 0.000000 0.000000 0.000000 0.106549
#
#
# Mechanical properties :
#
#
# Convention : Reuss Voigt Hill
#
# Bulk Modulus (GPa) = 14.59407 21.85815 18.22611
# Shear Modulus (GPa) = 16.60259 23.38691 19.99475
#
# Velocity S-wave (km/s) = 2.61190 3.09995 2.86633
# Velocity P-wave (km/s) = 3.88493 4.66845 4.29460
#
# Compressibility (1/GPa) = 0.06852099
#
# Stress axis : x y z
#
# Youngs Moduli (GPa) = 112.85825 48.74722 34.73133
#
# Poissons Ratio (x) = 0.03591 0.07163
# Poissons Ratio (y) = 0.08313 -0.27701
# Poissons Ratio (z) = 0.23275 -0.38880
#
# Static dielectric constant tensor:
#      x y z
#    x 1.945670 0.000000 0.000000 
#    y 0.000000 2.035800 0.000000 
#    z 0.000000 0.000000 2.032010 
# 
# From -- ./inp_files/24246.got.cif
#   From: 2010.05.17/outbox.cif.g08.bks.cpg/sg64_13_cif.got.tgz:24246.got - 2010.06.03 16:29:19.
