data_PCOD9476832
_publ_section_title
;
Structure prediction by ZEFSAII (Michael W. Deem and Ramdas Pophale) SiO2 
 PCOD9476832
Probable space group: C M C A
;
_chemical_formula_sum "Si O2"
_cell_formula_units_Z 96
_cell_length_a 14.668581
_cell_length_b 20.851005
_cell_length_c 15.335977
_cell_angle_alpha 90.000000
_cell_angle_beta 90.000000
_cell_angle_gamma 90.000000
_cell_volume 4690.579966
_symmetry_space_group_name_H-M "C M C A"
_symmetry_group_IT_number 64
_symmetry_cell_setting 'orthorhombic'
loop_
_space_group_symop_operation_xyz
x,y,z
-x,1/2-y,1/2+z
x,-y,-z
-x,1/2+y,1/2-z
-x,-y,-z
x,1/2+y,1/2-z
-x,y,z
x,1/2-y,1/2+z
1/2+x,1/2+y,z
1/2-x,-y,1/2+z
1/2+x,1/2-y,-z
1/2-x,y,1/2-z
1/2-x,1/2-y,-z
1/2+x,y,1/2-z
1/2-x,1/2+y,z
1/2+x,-y,1/2+z
loop_
_atom_site_type_symbol
_atom_site_label
_atom_site_fract_x
_atom_site_fract_y
_atom_site_fract_z
Si Si1 0.604707 0.672099 0.308409
Si Si2 0.112057 0.190084 0.500310
Si Si3 0.894729 0.452097 0.570506
Si Si4 0.887632 0.688417 0.384789
Si Si5 0.644633 0.970866 0.764720
Si Si6 0.890206 0.947157 0.429229
O O1 0.500000 0.694919 0.309180
O O2 0.645650 0.692596 0.400466
O O3 0.643897 0.693896 0.215571
O O4 0.603370 0.594395 0.304433
O O5 0.138094 0.252047 0.555733
O O6 0.142217 0.123589 0.544807
O O7 0.000000 0.188419 0.497805
O O8 0.852483 0.500000 0.500000
O O9 0.855213 0.380571 0.579357
O O10 0.893867 0.481293 0.667869
O O11 0.000000 0.442576 0.543877
O O12 0.000000 0.685632 0.381922
O O13 0.750000 0.957263 0.750000
O O14 0.634350 0.027885 0.833218
O O15 0.000000 0.945693 0.432770
O O16 0.860091 0.000000 0.500000
#
# Coordination Sequence:
#
# PCOD9476832 Si02
#       6
#    16  16  16  16  16  16
#     4   9  16  31  53  73  99 134 171 206 255 308
#     4   9  16  28  50  79 104 128 163 213 262 302
#     4   9  18  35  55  73  99 136 174 210 254 309
#     4   8  15  28  48  76 103 126 162 211 256 302
#     4  11  21  32  50  75 103 136 171 214 257 307
#     4  10  18  31  53  79 103 129 168 216 266 305
#
# _framework density 20.466552
#
# number of rings (size 3 to 8) (size 9 to 14) (size 15 to 20)
#    0.000    2.667    1.667    2.500    0.000    0.667 
#    3.000    0.000    0.000    8.000    0.000    0.000 
#    0.000    0.000    0.000    0.000    0.000    0.000 
#
# Total GULP energy -267818.601062 kJ/mol
# GULP energy per Si atom -5579.554189 kJ/mol
# Density = 2.041997 g / cm^3
# Si number density = 20.466552 Si / 1000 Ang^3
#
#
#
# Elastic Constant Matrix: (Units=GPa)
#
#
# Indices 1 2 3 4 5 6 
#
# 1 47.0273 5.2224 -1.2460 0.0000 0.0000 0.0000
# 2 5.2224 145.7735 134.1785 0.0000 0.0000 0.0000
# 3 -1.2460 134.1785 194.6936 0.0000 0.0000 0.0000
# 4 0.0000 0.0000 0.0000 37.7365 0.0000 0.0000
# 5 0.0000 0.0000 0.0000 0.0000 -43.4673 0.0000
# 6 0.0000 0.0000 0.0000 0.0000 0.0000 13.4321
#
#
#
# Elastic Compliance Matrix: (Units=1/GPa)
#
#
# Indices 1 2 3 4 5 6 
#
# 1 0.021586 -0.002463 0.001835 0.000000 0.000000 0.000000
# 2 -0.002463 0.019042 -0.013139 0.000000 0.000000 0.000000
# 3 0.001835 -0.013139 0.014203 0.000000 0.000000 0.000000
# 4 0.000000 0.000000 0.000000 0.026500 0.000000 0.000000
# 5 0.000000 0.000000 0.000000 0.000000 -0.023006 0.000000
# 6 0.000000 0.000000 0.000000 0.000000 0.000000 0.074449
#
#
# Mechanical properties :
#
#
# Convention : Reuss Voigt Hill
#
# Bulk Modulus (GPa) = 36.63171 73.75602 55.19387
# Shear Modulus (GPa) = 29.51460 18.16289 23.83875
#
# Velocity S-wave (km/s) = 3.80161 2.98223 3.41657
# Velocity P-wave (km/s) = 6.09974 6.92631 6.52613
#
# Compressibility (1/GPa) = 0.02729875
#
# Stress axis : x y z
#
# Youngs Moduli (GPa) = 46.32552 52.51414 70.40558
#
# Poissons Ratio (x) = 0.12933 -0.12923
# Poissons Ratio (y) = 0.11409 0.92509
# Poissons Ratio (z) = -0.08503 0.69001
#
# Static dielectric constant tensor:
#      x y z
#    x 1.776210 0.000000 0.000000 
#    y 0.000000 1.697190 0.000000 
#    z 0.000000 0.000000 1.731580 
# 
# From -- ./inp_files/26643.got.cif
#   From: 2010.05.17/outbox.cif.g08.bks.cpg/sg64_14_cif.got.tgz:26643.got - 2010.06.03 16:29:19.
