data_PCOD9476823
_publ_section_title
;
Structure prediction by ZEFSAII (Michael W. Deem and Ramdas Pophale) SiO2 
 PCOD9476823
Probable space group: C M C A
;
_chemical_formula_sum "Si O2"
_cell_formula_units_Z 128
_cell_length_a 20.136226
_cell_length_b 16.248219
_cell_length_c 22.876003
_cell_angle_alpha 90.000000
_cell_angle_beta 90.000000
_cell_angle_gamma 90.000000
_cell_volume 7484.520560
_symmetry_space_group_name_H-M "C M C A"
_symmetry_group_IT_number 64
_symmetry_cell_setting 'orthorhombic'
loop_
_space_group_symop_operation_xyz
x,y,z
-x,1/2-y,1/2+z
x,-y,-z
-x,1/2+y,1/2-z
-x,-y,-z
x,1/2+y,1/2-z
-x,y,z
x,1/2-y,1/2+z
1/2+x,1/2+y,z
1/2-x,-y,1/2+z
1/2+x,1/2-y,-z
1/2-x,y,1/2-z
1/2-x,1/2-y,-z
1/2+x,y,1/2-z
1/2-x,1/2+y,z
1/2+x,-y,1/2+z
loop_
_atom_site_type_symbol
_atom_site_label
_atom_site_fract_x
_atom_site_fract_y
_atom_site_fract_z
Si Si1 0.816354 0.269073 0.420073
Si Si2 0.685950 0.854323 0.820830
Si Si3 0.689860 0.080988 0.665942
Si Si4 0.922625 0.193177 0.230318
Si Si5 0.836208 0.739524 0.449010
Si Si6 0.663531 0.953198 0.202924
Si Si7 0.075487 0.339521 0.136438
Si Si8 0.167989 0.394275 0.647288
O O1 0.827556 0.184001 0.384850
O O2 0.830822 0.344838 0.376220
O O3 0.851227 0.271381 0.482804
O O4 0.738401 0.271842 0.437272
O O5 0.634451 0.804405 0.779834
O O6 0.767369 0.853626 0.819233
O O7 0.671449 0.949215 0.805386
O O8 0.655336 0.073060 0.729548
O O9 0.768134 0.088928 0.680964
O O10 0.681203 0.990344 0.638329
O O11 0.918969 0.273676 0.189538
O O12 0.896353 0.121005 0.187333
O O13 0.000000 0.182388 0.248916
O O14 0.883998 0.803379 0.417299
O O15 0.840580 0.654539 0.412864
O O16 0.605495 0.922139 0.162089
O O17 0.000000 0.348524 0.119918
#
# Coordination Sequence:
#
# PCOD9476823 Si02
#       8
#    16  16  16  16  16  16  16  16
#     4  10  19  33  55  78 105 135 176 231 265 307
#     4  10  19  33  53  77 107 142 174 220 272 318
#     4  10  18  31  52  82 110 131 171 223 271 318
#     4  10  19  32  52  77 106 139 176 215 267 325
#     4   9  19  35  52  77 104 139 183 217 266 308
#     4  10  19  32  49  80 109 137 171 212 271 324
#     4  10  20  35  54  75 105 146 184 215 258 326
#     4   9  18  33  53  78 108 141 175 217 267 321
#
# _framework density 17.101963000000001
#
# number of rings (size 3 to 8) (size 9 to 14) (size 15 to 20)
#    0.000    2.250    2.500    1.125    0.000    1.000 
#    0.000    1.250    0.000    2.250    0.000    3.500 
#    0.000    0.000    0.000    0.000    0.000    0.000 
#
# Total GULP energy -356296.028090 kJ/mol
# GULP energy per Si atom -5567.125439 kJ/mol
# Density = 1.706304 g / cm^3
# Si number density = 17.101963 Si / 1000 Ang^3
#
#
#
# Elastic Constant Matrix: (Units=GPa)
#
#
# Indices 1 2 3 4 5 6 
#
# 1 55.8592 4.2911 32.5503 0.0000 0.0000 0.0000
# 2 4.2911 25.2842 29.8931 0.0000 0.0000 0.0000
# 3 32.5503 29.8931 120.2642 0.0000 0.0000 0.0000
# 4 0.0000 0.0000 0.0000 17.5135 0.0000 0.0000
# 5 0.0000 0.0000 0.0000 0.0000 14.6216 0.0000
# 6 0.0000 0.0000 0.0000 0.0000 0.0000 12.9955
#
#
#
# Elastic Compliance Matrix: (Units=1/GPa)
#
#
# Indices 1 2 3 4 5 6 
#
# 1 0.021626 0.004602 -0.006997 0.000000 0.000000 0.000000
# 2 0.004602 0.056990 -0.015411 0.000000 0.000000 0.000000
# 3 -0.006997 -0.015411 0.014040 0.000000 0.000000 0.000000
# 4 0.000000 0.000000 0.000000 0.057099 0.000000 0.000000
# 5 0.000000 0.000000 0.000000 0.000000 0.068392 0.000000
# 6 0.000000 0.000000 0.000000 0.000000 0.000000 0.076950
#
#
# Mechanical properties :
#
#
# Convention : Reuss Voigt Hill
#
# Bulk Modulus (GPa) = 17.53054 37.20853 27.36953
# Shear Modulus (GPa) = 14.29708 18.00433 16.15070
#
# Velocity S-wave (km/s) = 2.89449 3.24815 3.07641
# Velocity P-wave (km/s) = 4.63072 5.98928 5.35327
#
# Compressibility (1/GPa) = 0.05704332
#
# Stress axis : x y z
#
# Youngs Moduli (GPa) = 46.24054 17.54703 71.22751
#
# Poissons Ratio (x) = -0.08076 0.49840
# Poissons Ratio (y) = -0.21282 1.09770
# Poissons Ratio (z) = 0.32356 0.27042
#
# Static dielectric constant tensor:
#      x y z
#    x 1.579630 0.000000 0.000000 
#    y 0.000000 1.587670 0.000000 
#    z 0.000000 0.000000 1.591930 
# 
# From -- ./inp_files/46007.got.cif
#   From: 2010.05.17/outbox.cif.g08.bks.cpg/sg64_24_cif.got.tgz:46007.got - 2010.06.03 16:29:19.
