data_PCOD9476414
_publ_section_title
;
Structure prediction by ZEFSAII (Michael W. Deem and Ramdas Pophale) SiO2 
 PCOD9476414
Probable space group: C M C A
;
_chemical_formula_sum "Si O2"
_cell_formula_units_Z 68
_cell_length_a 21.808459
_cell_length_b 15.144306
_cell_length_c 8.858540
_cell_angle_alpha 90.000000
_cell_angle_beta 90.000000
_cell_angle_gamma 90.000000
_cell_volume 2925.745232
_symmetry_space_group_name_H-M "C M C A"
_symmetry_group_IT_number 64
_symmetry_cell_setting 'orthorhombic'
loop_
_space_group_symop_operation_xyz
x,y,z
-x,1/2-y,1/2+z
x,-y,-z
-x,1/2+y,1/2-z
-x,-y,-z
x,1/2+y,1/2-z
-x,y,z
x,1/2-y,1/2+z
1/2+x,1/2+y,z
1/2-x,-y,1/2+z
1/2+x,1/2-y,-z
1/2-x,y,1/2-z
1/2-x,1/2-y,-z
1/2+x,y,1/2-z
1/2-x,1/2+y,z
1/2+x,-y,1/2+z
loop_
_atom_site_type_symbol
_atom_site_label
_atom_site_fract_x
_atom_site_fract_y
_atom_site_fract_z
Si Si1 0.000000 0.624461 0.558671
Si Si2 0.000000 0.261068 0.160265
Si Si3 0.898742 0.976563 0.235506
Si Si4 0.634468 0.680672 0.580547
Si Si5 0.500000 0.500000 0.500000
Si Si6 0.321839 0.856175 0.742095
O O1 0.000000 0.712586 0.664792
O O2 0.059470 0.571435 0.610411
O O3 0.000000 0.659328 0.388583
O O4 0.060960 0.304727 0.092731
O O5 0.854468 0.902661 0.310576
O O6 0.946263 0.003501 0.367646
O O7 0.859797 0.059970 0.184436
O O8 0.654397 0.663256 0.411087
O O9 0.664738 0.769630 0.643064
O O10 0.250000 0.874522 0.750000
#
# Coordination Sequence:
#
# PCOD9476414 Si02
#       6
#     8   8  16  16   4  16
#     4   9  20  37  68  99 137 165 213 283 349 407
#     4  10  20  39  66 103 128 162 210 284 346 398
#     4  10  21  40  67  97 127 176 224 274 343 413
#     4  11  23  43  69 100 132 176 225 284 345 409
#     4  10  16  38  70  94 122 164 222 280 330 406
#     4  12  26  44  66  94 137 187 232 275 334 414
#
# _framework density 23.241942000000002
#
# number of rings (size 3 to 8) (size 9 to 14) (size 15 to 20)
#    0.000    1.412    2.353    4.235    0.000    2.824 
#    0.000   12.941    0.000    0.000    0.000    0.000 
#    0.000    0.000    0.000    0.000    0.000    0.000 
#
# Total GULP energy -189998.761988 kJ/mol
# GULP energy per Si atom -5588.198882 kJ/mol
# Density = 2.318904 g / cm^3
# Si number density = 23.241942 Si / 1000 Ang^3
#
#
#
# Elastic Constant Matrix: (Units=GPa)
#
#
# Indices 1 2 3 4 5 6 
#
# 1 114.1894 31.9290 15.5078 0.0000 0.0000 0.0000
# 2 31.9290 138.2595 53.5686 0.0000 0.0000 0.0000
# 3 15.5078 53.5686 72.9357 0.0000 0.0000 0.0000
# 4 0.0000 0.0000 0.0000 43.2388 0.0000 0.0000
# 5 0.0000 0.0000 0.0000 0.0000 17.1108 0.0000
# 6 0.0000 0.0000 0.0000 0.0000 0.0000 145.3826
#
#
#
# Elastic Compliance Matrix: (Units=1/GPa)
#
#
# Indices 1 2 3 4 5 6 
#
# 1 0.009378 -0.001947 -0.000564 0.000000 0.000000 0.000000
# 2 -0.001947 0.010514 -0.007308 0.000000 0.000000 0.000000
# 3 -0.000564 -0.007308 0.019198 0.000000 0.000000 0.000000
# 4 0.000000 0.000000 0.000000 0.023127 0.000000 0.000000
# 5 0.000000 0.000000 0.000000 0.000000 0.058443 0.000000
# 6 0.000000 0.000000 0.000000 0.000000 0.000000 0.006878
#
#
# Mechanical properties :
#
#
# Convention : Reuss Voigt Hill
#
# Bulk Modulus (GPa) = 51.40852 58.59951 55.00402
# Shear Modulus (GPa) = 32.53901 56.10504 44.32203
#
# Velocity S-wave (km/s) = 3.74573 4.91853 4.37164
# Velocity P-wave (km/s) = 6.39330 7.58443 7.01419
#
# Compressibility (1/GPa) = 0.01945203
#
# Stress axis : x y z
#
# Youngs Moduli (GPa) = 106.62728 95.11116 52.08849
#
# Poissons Ratio (x) = 0.18522 0.02937
# Poissons Ratio (y) = 0.20764 0.38067
# Poissons Ratio (z) = 0.06012 0.69508
#
# Static dielectric constant tensor:
#      x y z
#    x 1.815200 0.000000 0.000000 
#    y 0.000000 2.001430 0.000000 
#    z 0.000000 0.000000 1.847230 
# 
# From -- ./inp_files/7908.got.cif
#   From: 2010.05.17/outbox.cif.g08.bks.cpg/sg64_4_cif.got.tgz:7908.got - 2010.06.03 16:29:19.
