data_PCOD9476571
_publ_section_title
;
Structure prediction by ZEFSAII (Michael W. Deem and Ramdas Pophale) SiO2 
 PCOD9476571
Probable space group: C M C A
;
_chemical_formula_sum "Si O2"
_cell_formula_units_Z 96
_cell_length_a 18.832006
_cell_length_b 23.344646
_cell_length_c 11.815203
_cell_angle_alpha 90.000000
_cell_angle_beta 90.000000
_cell_angle_gamma 90.000000
_cell_volume 5194.276502
_symmetry_space_group_name_H-M "C M C A"
_symmetry_group_IT_number 64
_symmetry_cell_setting 'orthorhombic'
loop_
_space_group_symop_operation_xyz
x,y,z
-x,1/2-y,1/2+z
x,-y,-z
-x,1/2+y,1/2-z
-x,-y,-z
x,1/2+y,1/2-z
-x,y,z
x,1/2-y,1/2+z
1/2+x,1/2+y,z
1/2-x,-y,1/2+z
1/2+x,1/2-y,-z
1/2-x,y,1/2-z
1/2-x,1/2-y,-z
1/2+x,y,1/2-z
1/2-x,1/2+y,z
1/2+x,-y,1/2+z
loop_
_atom_site_type_symbol
_atom_site_label
_atom_site_fract_x
_atom_site_fract_y
_atom_site_fract_z
Si Si1 0.917963 0.854117 0.328249
Si Si2 0.196390 0.634740 0.501647
Si Si3 0.329990 0.449738 0.200749
Si Si4 0.665264 0.080728 0.278337
Si Si5 0.141096 0.647833 0.071278
Si Si6 0.325298 0.232313 0.684557
O O1 0.879288 0.911203 0.281479
O O2 0.909011 0.850141 0.463186
O O3 0.877349 0.801026 0.269594
O O4 0.000000 0.854291 0.295894
O O5 0.174262 0.582026 0.580957
O O6 0.157670 0.624992 0.382149
O O7 0.280449 0.634362 0.478222
O O8 0.182394 0.691615 0.574230
O O9 0.250000 0.447913 0.250000
O O10 0.352488 0.515560 0.191137
O O11 0.750000 0.081819 0.250000
O O12 0.625074 0.100553 0.166015
O O13 0.147727 0.707221 0.139260
O O14 0.250000 0.238447 0.750000
#
# Coordination Sequence:
#
# PCOD9476571 Si02
#       6
#    16  16  16  16  16  16
#     4  11  24  40  58  82 116 161 201 238 298 355
#     4  10  17  33  57  91 112 144 187 238 292 335
#     4  10  18  37  59  83 117 151 192 243 288 341
#     4   9  20  30  55  91 118 142 185 241 292 343
#     4  11  21  35  57  87 120 147 190 242 297 347
#     4  11  21  36  64  86 117 151 195 248 290 346
#
# _framework density 18.48188
#
# number of rings (size 3 to 8) (size 9 to 14) (size 15 to 20)
#    0.000    1.667    3.333    3.500    2.333    1.333 
#    0.000    1.667    0.000    9.000    0.000    0.000 
#    0.000    0.000    0.000    0.000    0.000    0.000 
#
# Total GULP energy -267898.288849 kJ/mol
# GULP energy per Si atom -5581.214351 kJ/mol
# Density = 1.843981 g / cm^3
# Si number density = 18.481880 Si / 1000 Ang^3
#
#
#
# Elastic Constant Matrix: (Units=GPa)
#
#
# Indices 1 2 3 4 5 6 
#
# 1 51.9560 -4.4017 -3.5567 0.0000 0.0000 0.0000
# 2 -4.4017 75.5453 10.7602 0.0000 0.0000 0.0000
# 3 -3.5567 10.7602 71.2230 0.0000 0.0000 0.0000
# 4 0.0000 0.0000 0.0000 10.2761 0.0000 0.0000
# 5 0.0000 0.0000 0.0000 0.0000 10.7548 0.0000
# 6 0.0000 0.0000 0.0000 0.0000 0.0000 -3.5512
#
#
#
# Elastic Compliance Matrix: (Units=1/GPa)
#
#
# Indices 1 2 3 4 5 6 
#
# 1 0.019389 0.001014 0.000815 0.000000 0.000000 0.000000
# 2 0.001014 0.013581 -0.002001 0.000000 0.000000 0.000000
# 3 0.000815 -0.002001 0.014383 0.000000 0.000000 0.000000
# 4 0.000000 0.000000 0.000000 0.097313 0.000000 0.000000
# 5 0.000000 0.000000 0.000000 0.000000 0.092982 0.000000
# 6 0.000000 0.000000 0.000000 0.000000 0.000000 -0.281594
#
#
# Mechanical properties :
#
#
# Convention : Reuss Voigt Hill
#
# Bulk Modulus (GPa) = 21.27282 22.70310 21.98796
# Shear Modulus (GPa) = -179.00804 16.55744 -81.22530
#
# Velocity S-wave (km/s) = -9.85222 2.99636 -6.63657
# Velocity P-wave (km/s) = 10.85756 4.92763 6.84124
#
# Compressibility (1/GPa) = 0.04700835
#
# Stress axis : x y z
#
# Youngs Moduli (GPa) = 51.57638 73.63120 69.52439
#
# Poissons Ratio (x) = -0.07463 -0.05667
# Poissons Ratio (y) = -0.05228 0.13913
# Poissons Ratio (z) = -0.04204 0.14735
#
# Static dielectric constant tensor:
#      x y z
#    x 1.609830 0.000000 0.000000 
#    y 0.000000 1.637080 0.000000 
#    z 0.000000 0.000000 1.660660 
# 
# From -- ./inp_files/16176.got.cif
#   From: 2010.05.17/outbox.cif.g08.bks.cpg/sg64_9_cif.got.tgz:16176.got - 2010.06.03 16:29:19.
