data_PCOD9476281
_publ_section_title
;
Structure prediction by ZEFSAII (Michael W. Deem and Ramdas Pophale) SiO2 
 PCOD9476281
Probable space group: C M C M
;
_chemical_formula_sum "Si O2"
_cell_formula_units_Z 30
_cell_length_a 18.000000
_cell_length_b 18.000000
_cell_length_c 9.000000
_cell_angle_alpha 90.000000
_cell_angle_beta 90.000000
_cell_angle_gamma 90.000000
_cell_volume 2916.000000
_symmetry_space_group_name_H-M "C M C M"
_symmetry_group_IT_number 63
_symmetry_cell_setting 'orthorhombic'
loop_
_space_group_symop_operation_xyz
x,y,z
-x,-y,1/2+z
x,-y,-z
-x,y,1/2-z
-x,-y,-z
x,y,1/2-z
-x,y,z
x,-y,1/2+z
1/2+x,1/2+y,z
1/2-x,1/2-y,1/2+z
1/2+x,1/2-y,-z
1/2-x,1/2+y,1/2-z
1/2-x,1/2-y,-z
1/2+x,1/2+y,1/2-z
1/2-x,1/2+y,z
1/2+x,1/2-y,1/2+z
loop_
_atom_site_type_symbol
_atom_site_label
_atom_site_fract_x
_atom_site_fract_y
_atom_site_fract_z
Si Si1 0.302353 0.645284 0.503235
Si Si2 0.000000 0.274567 0.432468
Si Si3 0.587122 0.393149 0.750000
Si Si4 0.145902 0.692950 0.414752
Si Si5 0.500000 0.322622 0.250000
Si Si6 0.865434 0.939371 0.250000
O O1 0.369048 0.641019 0.386548
O O2 0.219263 0.644337 0.441983
O O3 0.318457 0.724069 0.581249
O O4 0.315023 0.576456 0.609545
O O5 0.920817 0.313601 0.467608
O O6 0.000000 0.218678 0.585234
O O7 0.000000 0.260744 0.250000
O O8 0.500000 0.382222 0.750000
O O9 0.599653 0.480708 0.750000
O O10 0.115390 0.679820 0.250000
O O11 0.429308 0.376953 0.250000
#
# Coordination Sequence:
#
# PCOD9476281 Si02
#       6
#    16   8   8  16   4   8
#     4  11  24  39  61  88 125 171 219 265 324 388
#     4  12  24  36  67 102 128 170 221 278 333 402
#     4  12  28  40  63  93 128 178 230 256 304 393
#     4  11  22  41  62  91 128 169 210 279 344 378
#     4  12  22  44  58  92 142 178 218 260 322 378
#     4  12  24  43  59  85 135 183 213 263 310 381
#
# _framework density 10.288066000000001
#
# number of rings (size 3 to 8) (size 9 to 14) (size 15 to 20)
#    0.000    0.533    7.333    0.800    7.467    1.067 
#    0.000    0.000    0.000    0.000    0.000    5.600 
#    0.000    0.000    0.000    0.000    0.000    0.000 
#
# Total GULP energy -167142.232733 kJ/mol
# GULP energy per Si atom -5571.407758 kJ/mol
# Density = 1.026465 g / cm^3
# Si number density = 10.288066 Si / 1000 Ang^3
#
#
#
# Elastic Constant Matrix: (Units=GPa)
#
#
# Indices 1 2 3 4 5 6 
#
# 1 156.4370 53.3138 70.4714 0.0000 0.0000 0.0000
# 2 53.3138 32.8222 43.4550 0.0000 0.0000 0.0000
# 3 70.4714 43.4550 160.3026 0.0000 0.0000 0.0000
# 4 0.0000 0.0000 0.0000 8.6173 0.0000 0.0000
# 5 0.0000 0.0000 0.0000 0.0000 45.1576 0.0000
# 6 0.0000 0.0000 0.0000 0.0000 0.0000 33.1461
#
#
#
# Elastic Compliance Matrix: (Units=1/GPa)
#
#
# Indices 1 2 3 4 5 6 
#
# 1 0.014319 -0.023279 0.000016 0.000000 0.000000 0.000000
# 2 -0.023279 0.085371 -0.012908 0.000000 0.000000 0.000000
# 3 0.000016 -0.012908 0.009730 0.000000 0.000000 0.000000
# 4 0.000000 0.000000 0.000000 0.116046 0.000000 0.000000
# 5 0.000000 0.000000 0.000000 0.000000 0.022145 0.000000
# 6 0.000000 0.000000 0.000000 0.000000 0.000000 0.030169
#
#
# Mechanical properties :
#
#
# Convention : Reuss Voigt Hill
#
# Bulk Modulus (GPa) = 26.97165 76.00468 51.48816
# Shear Modulus (GPa) = 13.79379 29.53897 21.66638
#
# Velocity S-wave (km/s) = 2.59197 3.79303 3.24850
# Velocity P-wave (km/s) = 4.70047 7.49675 6.25683
#
# Compressibility (1/GPa) = 0.03707597
#
# Stress axis : x y z
#
# Youngs Moduli (GPa) = 69.83796 11.71364 102.77012
#
# Poissons Ratio (x) = 0.27269 -0.00163
# Poissons Ratio (y) = 1.62579 1.32659
# Poissons Ratio (z) = -0.00111 0.15120
#
# Static dielectric constant tensor:
#      x y z
#    x 1.753230 0.000000 0.000000 
#    y 0.000000 1.751760 0.000000 
#    z 0.000000 0.000000 1.828850 
# 
# From -- ./inp_files/5596.got.cif
#   From: 2010.05.17/outbox.ucp.g08.bks.cvg/sg63_3_cif.got.tgz:5596.got - 2010.06.11 16:32:19.
