data_PCOD9476585
_publ_section_title
;
Structure prediction by ZEFSAII (Michael W. Deem and Ramdas Pophale) SiO2 
 PCOD9476585
Probable space group: C M C A
;
_chemical_formula_sum "Si O2"
_cell_formula_units_Z 116
_cell_length_a 19.670392
_cell_length_b 17.693390
_cell_length_c 15.581997
_cell_angle_alpha 90.000000
_cell_angle_beta 90.000000
_cell_angle_gamma 90.000000
_cell_volume 5423.094616
_symmetry_space_group_name_H-M "C M C A"
_symmetry_group_IT_number 64
_symmetry_cell_setting 'orthorhombic'
loop_
_space_group_symop_operation_xyz
x,y,z
-x,1/2-y,1/2+z
x,-y,-z
-x,1/2+y,1/2-z
-x,-y,-z
x,1/2+y,1/2-z
-x,y,z
x,1/2-y,1/2+z
1/2+x,1/2+y,z
1/2-x,-y,1/2+z
1/2+x,1/2-y,-z
1/2-x,y,1/2-z
1/2-x,1/2-y,-z
1/2+x,y,1/2-z
1/2-x,1/2+y,z
1/2+x,-y,1/2+z
loop_
_atom_site_type_symbol
_atom_site_label
_atom_site_fract_x
_atom_site_fract_y
_atom_site_fract_z
Si Si1 0.846095 0.495181 0.895624
Si Si2 0.073346 0.635340 0.901369
Si Si3 0.133420 0.918154 0.936831
Si Si4 0.175299 0.728432 0.658872
Si Si5 0.323169 0.735735 0.143868
Si Si6 0.000000 0.500000 0.500000
Si Si7 0.199567 0.559785 0.617459
Si Si8 0.076561 0.151941 0.395301
O O1 0.906303 0.552246 0.870911
O O2 0.775167 0.530139 0.863146
O O3 0.869023 0.411956 0.866062
O O4 0.840139 0.500000 0.000000
O O5 0.133456 0.691777 0.880936
O O6 0.000000 0.659254 0.866369
O O7 0.069382 0.634531 0.004119
O O8 0.141948 0.838269 0.893007
O O9 0.152043 0.986417 0.871855
O O10 0.187505 0.920566 0.016071
O O11 0.060458 0.938314 0.975482
O O12 0.245284 0.754691 0.614051
O O13 0.176441 0.763108 0.753538
O O14 0.178787 0.637365 0.663581
O O15 0.109954 0.765532 0.614862
O O16 0.000000 0.147205 0.357610
#
# Coordination Sequence:
#
# PCOD9476585 Si02
#       8
#    16  16  16  16  16   4  16  16
#     4  10  17  34  62  90 119 150 207 264 322 377
#     4  10  21  36  61  91 118 160 207 265 324 382
#     4  10  21  39  66  95 120 171 218 274 329 383
#     4  11  24  41  57  93 130 168 214 264 321 398
#     4  11  24  40  60  89 130 170 216 256 330 397
#     4   8  20  40  64  96 124 152 212 272 316 374
#     4  10  19  37  64  94 121 158 215 272 324 372
#     4  10  22  39  62  92 123 163 209 270 323 391
#
# _framework density 21.390001000000002
#
# number of rings (size 3 to 8) (size 9 to 14) (size 15 to 20)
#    0.000    1.931    2.759    2.069    2.897    3.310 
#    9.931    1.379    0.000    0.000    0.000    0.000 
#    0.000    0.000    0.000    0.000    0.000    0.000 
#
# Total GULP energy -323093.107995 kJ/mol
# GULP energy per Si atom -5570.570827 kJ/mol
# Density = 2.134132 g / cm^3
# Si number density = 21.390001 Si / 1000 Ang^3
#
#
#
# Elastic Constant Matrix: (Units=GPa)
#
#
# Indices 1 2 3 4 5 6 
#
# 1 122.9804 29.3128 5.0894 0.0000 0.0000 0.0000
# 2 29.3128 89.2862 0.7907 0.0000 0.0000 0.0000
# 3 5.0894 0.7907 16.5524 0.0000 0.0000 0.0000
# 4 0.0000 0.0000 0.0000 -47.5507 0.0000 0.0000
# 5 0.0000 0.0000 0.0000 0.0000 -13.8550 0.0000
# 6 0.0000 0.0000 0.0000 0.0000 0.0000 67.7239
#
#
#
# Elastic Compliance Matrix: (Units=1/GPa)
#
#
# Indices 1 2 3 4 5 6 
#
# 1 0.008933 -0.002910 -0.002608 0.000000 0.000000 0.000000
# 2 -0.002910 0.012152 0.000314 0.000000 0.000000 0.000000
# 3 -0.002608 0.000314 0.061201 0.000000 0.000000 0.000000
# 4 0.000000 0.000000 0.000000 -0.021030 0.000000 0.000000
# 5 0.000000 0.000000 0.000000 0.000000 -0.072176 0.000000
# 6 0.000000 0.000000 0.000000 0.000000 0.000000 0.014766
#
#
# Mechanical properties :
#
#
# Convention : Reuss Voigt Hill
#
# Bulk Modulus (GPa) = 13.91206 33.24499 23.57852
# Shear Modulus (GPa) = 130.84862 14.17205 72.51034
#
# Velocity S-wave (km/s) = 7.82979 2.57681 5.82862
# Velocity P-wave (km/s) = 9.39462 4.94260 7.50627
#
# Compressibility (1/GPa) = 0.07188010
#
# Stress axis : x y z
#
# Youngs Moduli (GPa) = 111.94701 82.28851 16.33957
#
# Poissons Ratio (x) = 0.23942 0.04261
# Poissons Ratio (y) = 0.32572 -0.00513
# Poissons Ratio (z) = 0.29192 -0.02585
#
# Static dielectric constant tensor:
#      x y z
#    x 1.776290 0.000000 0.000000 
#    y 0.000000 1.782100 0.000000 
#    z 0.000000 0.000000 1.783740 
# 
# From -- ./inp_files/33459.got.cif
#   From: 2010.05.17/outbox.cif.g08.bks.cpg/sg64_17_cif.got.tgz:33459.got - 2010.06.03 16:29:19.
