data_PCOD9476494
_publ_section_title
;
Structure prediction by ZEFSAII (Michael W. Deem and Ramdas Pophale) SiO2 
 PCOD9476494
Probable space group: C M C A
;
_chemical_formula_sum "Si O2"
_cell_formula_units_Z 88
_cell_length_a 13.963166
_cell_length_b 27.070550
_cell_length_c 12.593332
_cell_angle_alpha 90.000000
_cell_angle_beta 90.000000
_cell_angle_gamma 90.000000
_cell_volume 4760.160909
_symmetry_space_group_name_H-M "C M C A"
_symmetry_group_IT_number 64
_symmetry_cell_setting 'orthorhombic'
loop_
_space_group_symop_operation_xyz
x,y,z
-x,1/2-y,1/2+z
x,-y,-z
-x,1/2+y,1/2-z
-x,-y,-z
x,1/2+y,1/2-z
-x,y,z
x,1/2-y,1/2+z
1/2+x,1/2+y,z
1/2-x,-y,1/2+z
1/2+x,1/2-y,-z
1/2-x,y,1/2-z
1/2-x,1/2-y,-z
1/2+x,y,1/2-z
1/2-x,1/2+y,z
1/2+x,-y,1/2+z
loop_
_atom_site_type_symbol
_atom_site_label
_atom_site_fract_x
_atom_site_fract_y
_atom_site_fract_z
Si Si1 0.500000 0.415792 0.123534
Si Si2 0.500000 0.016099 0.295682
Si Si3 0.500000 0.312028 0.826299
Si Si4 0.500000 0.804877 0.419632
Si Si5 0.338362 0.948810 0.539349
Si Si6 0.708991 0.135940 0.130233
Si Si7 0.662587 0.240119 0.184849
Si Si8 0.000000 0.603607 0.168098
O O1 0.500000 0.457095 0.214877
O O2 0.500000 0.357615 0.139609
O O3 0.590732 0.429978 0.051736
O O4 0.406984 0.034323 0.362808
O O5 0.500000 0.045774 0.187423
O O6 0.408426 0.285876 0.771476
O O7 0.500000 0.368040 0.782792
O O8 0.500000 0.311275 0.952916
O O9 0.405621 0.775023 0.383392
O O10 0.271600 0.902682 0.565245
O O11 0.290205 0.000000 0.500000
O O12 0.750000 0.129566 0.250000
O O13 0.707757 0.195186 0.115422
O O14 0.598382 0.120871 0.117227
O O15 0.750000 0.264028 0.250000
#
# Coordination Sequence:
#
# PCOD9476494 Si02
#       8
#     8   8   8   8  16  16  16   8
#     4   9  20  30  53  76 100 133 178 217 252 316
#     4   9  15  29  48  77  99 119 161 215 256 292
#     4   9  19  34  54  81 105 132 181 225 263 325
#     4  11  21  36  58  76 104 147 181 227 276 312
#     4   9  17  31  51  79 106 127 164 218 261 313
#     4  10  18  30  54  78 106 133 166 224 273 310
#     4   9  21  36  52  79 110 137 179 229 273 315
#     4  10  17  29  53  80 107 131 169 220 274 307
#
# _framework density 18.48677
#
# number of rings (size 3 to 8) (size 9 to 14) (size 15 to 20)
#    0.000    2.545    1.818    2.727    5.091    0.727 
#    0.000    0.455    8.000    0.000    0.000    0.000 
#    0.000    0.000    0.000    0.000    0.000    0.000 
#
# Total GULP energy -245054.318659 kJ/mol
# GULP energy per Si atom -5569.416333 kJ/mol
# Density = 1.844469 g / cm^3
# Si number density = 18.486770 Si / 1000 Ang^3
#
#
#
# Elastic Constant Matrix: (Units=GPa)
#
#
# Indices 1 2 3 4 5 6 
#
# 1 89.9154 29.1588 7.8949 0.0000 0.0000 0.0000
# 2 29.1588 120.4057 21.1581 0.0000 0.0000 0.0000
# 3 7.8949 21.1581 20.8954 0.0000 0.0000 0.0000
# 4 0.0000 0.0000 0.0000 24.2071 0.0000 0.0000
# 5 0.0000 0.0000 0.0000 0.0000 6.4181 0.0000
# 6 0.0000 0.0000 0.0000 0.0000 0.0000 33.0951
#
#
#
# Elastic Compliance Matrix: (Units=1/GPa)
#
#
# Indices 1 2 3 4 5 6 
#
# 1 0.012135 -0.002595 -0.001958 0.000000 0.000000 0.000000
# 2 -0.002595 0.010658 -0.009811 0.000000 0.000000 0.000000
# 3 -0.001958 -0.009811 0.058532 0.000000 0.000000 0.000000
# 4 0.000000 0.000000 0.000000 0.041310 0.000000 0.000000
# 5 0.000000 0.000000 0.000000 0.000000 0.155810 0.000000
# 6 0.000000 0.000000 0.000000 0.000000 0.000000 0.030216
#
#
# Mechanical properties :
#
#
# Convention : Reuss Voigt Hill
#
# Bulk Modulus (GPa) = 19.01245 38.62667 28.81956
# Shear Modulus (GPa) = 14.08767 24.27770 19.18269
#
# Velocity S-wave (km/s) = 2.76350 3.62781 3.22474
# Velocity P-wave (km/s) = 4.52651 6.20383 5.43032
#
# Compressibility (1/GPa) = 0.05259711
#
# Stress axis : x y z
#
# Youngs Moduli (GPa) = 82.40694 93.82893 17.08473
#
# Poissons Ratio (x) = 0.24346 0.03345
# Poissons Ratio (y) = 0.21382 0.16762
# Poissons Ratio (z) = 0.16132 0.92059
#
# Static dielectric constant tensor:
#      x y z
#    x 1.651700 0.000000 0.000000 
#    y 0.000000 1.673240 0.000000 
#    z 0.000000 0.000000 1.639750 
# 
# From -- ./inp_files/14815.got.cif
#   From: 2010.05.17/outbox.cif.g08.bks.cpg/sg64_8_cif.got.tgz:14815.got - 2010.06.03 16:29:19.
