data_PCOD9476057
_publ_section_title
;
Structure prediction by ZEFSAII (Michael W. Deem and Ramdas Pophale) SiO2 
 PCOD9476057
Probable space group: C M C M
;
_chemical_formula_sum "Si O2"
_cell_formula_units_Z 52
_cell_length_a 27.000000
_cell_length_b 24.000000
_cell_length_c 9.000000
_cell_angle_alpha 90.000000
_cell_angle_beta 90.000000
_cell_angle_gamma 90.000000
_cell_volume 5832.000000
_symmetry_space_group_name_H-M "C M C M"
_symmetry_group_IT_number 63
_symmetry_cell_setting 'orthorhombic'
loop_
_space_group_symop_operation_xyz
x,y,z
-x,-y,1/2+z
x,-y,-z
-x,y,1/2-z
-x,-y,-z
x,y,1/2-z
-x,y,z
x,-y,1/2+z
1/2+x,1/2+y,z
1/2-x,1/2-y,1/2+z
1/2+x,1/2-y,-z
1/2-x,1/2+y,1/2-z
1/2-x,1/2-y,-z
1/2+x,1/2+y,1/2-z
1/2-x,1/2+y,z
1/2+x,1/2-y,1/2+z
loop_
_atom_site_type_symbol
_atom_site_label
_atom_site_fract_x
_atom_site_fract_y
_atom_site_fract_z
Si Si1 0.196611 0.256351 0.573661
Si Si2 0.943042 0.441405 0.928866
Si Si3 0.000000 0.937997 0.427045
Si Si4 0.268854 0.057128 0.577726
Si Si5 0.852225 0.628812 0.429165
Si Si6 0.096355 0.059711 0.076627
Si Si7 0.827558 0.131059 0.919769
O O1 0.204197 0.263330 0.750000
O O2 0.250000 0.250000 0.500000
O O3 0.166166 0.310234 0.519757
O O4 0.170647 0.196763 0.553591
O O5 0.941265 0.447044 0.750000
O O6 0.907086 0.390936 0.972025
O O7 0.000000 0.431808 0.972965
O O8 0.926707 0.500000 0.000000
O O9 0.049708 0.912829 0.493069
O O10 0.000000 0.940624 0.250000
O O11 0.000000 0.000000 0.500000
O O12 0.279982 0.045410 0.750000
O O13 0.315679 0.082210 0.493420
O O14 0.227319 0.105285 0.573360
O O15 0.251698 0.000000 0.500000
O O16 0.849485 0.628352 0.250000
O O17 0.086330 0.051627 0.250000
O O18 0.142151 0.098546 0.042915
O O19 0.105736 0.000000 0.000000
O O20 0.845610 0.119427 0.750000
#
# Coordination Sequence:
#
# PCOD9476057 Si02
#       7
#    16  16   8  16  16  16  16
#     4  10  20  36  56  77 104 138 180 222 262 315
#     4   9  18  33  53  79 109 140 174 217 268 322
#     4  10  18  32  54  78 106 138 172 212 259 316
#     4  11  22  34  50  75 108 141 173 216 264 319
#     4  10  20  34  55  79 105 139 177 221 267 320
#     4  11  21  34  54  80 108 140 176 219 269 321
#     4  10  21  36  52  74 105 140 179 221 264 316
#
# _framework density 8.9163239999999995
#
# number of rings (size 3 to 8) (size 9 to 14) (size 15 to 20)
#    0.000    1.846    1.538    4.385    0.000    4.923 
#    0.000    0.000    1.692    0.000    0.000    0.000 
#    0.000    0.000    0.000    0.000    0.000    0.000 
#
# Total GULP energy -289936.432951 kJ/mol
# GULP energy per Si atom -5575.700634 kJ/mol
# Density = 0.889603 g / cm^3
# Si number density = 8.916324 Si / 1000 Ang^3
#
#
#
# Elastic Constant Matrix: (Units=GPa)
#
#
# Indices 1 2 3 4 5 6 
#
# 1 72.4444 42.0771 29.1719 0.0000 0.0000 0.0000
# 2 42.0771 100.7749 27.2288 0.0000 0.0000 0.0000
# 3 29.1719 27.2288 64.4735 0.0000 0.0000 0.0000
# 4 0.0000 0.0000 0.0000 21.8559 0.0000 0.0000
# 5 0.0000 0.0000 0.0000 0.0000 21.5897 0.0000
# 6 0.0000 0.0000 0.0000 0.0000 0.0000 10.8838
#
#
#
# Elastic Compliance Matrix: (Units=1/GPa)
#
#
# Indices 1 2 3 4 5 6 
#
# 1 0.020273 -0.006757 -0.006319 0.000000 0.000000 0.000000
# 2 -0.006757 0.013454 -0.002624 0.000000 0.000000 0.000000
# 3 -0.006319 -0.002624 0.019478 0.000000 0.000000 0.000000
# 4 0.000000 0.000000 0.000000 0.045754 0.000000 0.000000
# 5 0.000000 0.000000 0.000000 0.000000 0.046318 0.000000
# 6 0.000000 0.000000 0.000000 0.000000 0.000000 0.091880
#
#
# Mechanical properties :
#
#
# Convention : Reuss Voigt Hill
#
# Bulk Modulus (GPa) = 45.86537 48.29425 47.07981
# Shear Modulus (GPa) = 18.12738 20.14688 19.13713
#
# Velocity S-wave (km/s) = 3.19176 3.36486 3.27945
# Velocity P-wave (km/s) = 6.27366 6.49901 6.38733
#
# Compressibility (1/GPa) = 0.02180294
#
# Stress axis : x y z
#
# Youngs Moduli (GPa) = 49.32661 74.32935 51.34079
#
# Poissons Ratio (x) = 0.50227 0.32442
# Poissons Ratio (y) = 0.33332 0.13474
# Poissons Ratio (z) = 0.31169 0.19507
#
# Static dielectric constant tensor:
#      x y z
#    x 1.679130 0.000000 0.000000 
#    y 0.000000 1.487730 0.000000 
#    z 0.000000 0.000000 1.612420 
# 
# From -- ./inp_files/12870.got.cif
#   From: 2010.05.17/outbox.ucp.g08.bks.cvg/sg63_7_cif.got.tgz:12870.got - 2010.06.11 16:32:19.
