data_PCOD9476919
_publ_section_title
;
Structure prediction by ZEFSAII (Michael W. Deem and Ramdas Pophale) SiO2 
 PCOD9476919
Probable space group: C M C A
;
_chemical_formula_sum "Si O2"
_cell_formula_units_Z 80
_cell_length_a 21.602451
_cell_length_b 15.265257
_cell_length_c 11.370327
_cell_angle_alpha 90.000000
_cell_angle_beta 90.000000
_cell_angle_gamma 90.000000
_cell_volume 3749.558241
_symmetry_space_group_name_H-M "C M C A"
_symmetry_group_IT_number 64
_symmetry_cell_setting 'orthorhombic'
loop_
_space_group_symop_operation_xyz
x,y,z
-x,1/2-y,1/2+z
x,-y,-z
-x,1/2+y,1/2-z
-x,-y,-z
x,1/2+y,1/2-z
-x,y,z
x,1/2-y,1/2+z
1/2+x,1/2+y,z
1/2-x,-y,1/2+z
1/2+x,1/2-y,-z
1/2-x,y,1/2-z
1/2-x,1/2-y,-z
1/2+x,y,1/2-z
1/2-x,1/2+y,z
1/2+x,-y,1/2+z
loop_
_atom_site_type_symbol
_atom_site_label
_atom_site_fract_x
_atom_site_fract_y
_atom_site_fract_z
Si Si1 0.226996 0.340385 0.560623
Si Si2 0.572593 0.449615 0.315114
Si Si3 0.429406 0.363544 0.551953
Si Si4 0.833806 0.794100 0.715969
Si Si5 0.691524 0.409196 0.179490
O O1 0.250000 0.250000 0.500000
O O2 0.170098 0.325316 0.649920
O O3 0.286358 0.356552 0.643116
O O4 0.208843 0.405403 0.457575
O O5 0.500000 0.432205 0.282503
O O6 0.572698 0.543865 0.378985
O O7 0.593242 0.382011 0.419099
O O8 0.625138 0.448316 0.215593
O O9 0.500000 0.336596 0.539208
O O10 0.394270 0.297943 0.636851
O O11 0.813180 0.693397 0.716388
O O12 0.750000 0.447709 0.250000
#
# Coordination Sequence:
#
# PCOD9476919 Si02
#       5
#    16  16  16  16  16
#     4   9  17  32  49  79 110 141 169 218 283 324
#     4   9  20  38  57  78 111 149 186 225 271 323
#     4   9  19  37  58  78 105 149 190 222 264 328
#     4  10  18  32  57  76 109 144 177 225 275 323
#     4  11  19  32  56  83 109 140 181 231 272 325
#
# _framework density 21.335846
#
# number of rings (size 3 to 8) (size 9 to 14) (size 15 to 20)
#    0.000    2.400    4.000    2.400    2.800    0.800 
#    3.600    2.000    0.000    2.400    0.000    0.000 
#    0.000    0.000    0.000    0.000    0.000    0.000 
#
# Total GULP energy -222925.554872 kJ/mol
# GULP energy per Si atom -5573.138872 kJ/mol
# Density = 2.128728 g / cm^3
# Si number density = 21.335846 Si / 1000 Ang^3
#
#
#
# Elastic Constant Matrix: (Units=GPa)
#
#
# Indices 1 2 3 4 5 6 
#
# 1 77.8911 18.4030 31.0964 0.0000 0.0000 0.0000
# 2 18.4030 39.1573 12.2654 0.0000 0.0000 0.0000
# 3 31.0964 12.2654 100.4517 0.0000 0.0000 0.0000
# 4 0.0000 0.0000 0.0000 7.3476 0.0000 0.0000
# 5 0.0000 0.0000 0.0000 0.0000 40.8382 0.0000
# 6 0.0000 0.0000 0.0000 0.0000 0.0000 26.5080
#
#
#
# Elastic Compliance Matrix: (Units=1/GPa)
#
#
# Indices 1 2 3 4 5 6 
#
# 1 0.015974 -0.006196 -0.004189 0.000000 0.000000 0.000000
# 2 -0.006196 0.028957 -0.001618 0.000000 0.000000 0.000000
# 3 -0.004189 -0.001618 0.011449 0.000000 0.000000 0.000000
# 4 0.000000 0.000000 0.000000 0.136098 0.000000 0.000000
# 5 0.000000 0.000000 0.000000 0.000000 0.024487 0.000000
# 6 0.000000 0.000000 0.000000 0.000000 0.000000 0.037725
#
#
# Mechanical properties :
#
#
# Convention : Reuss Voigt Hill
#
# Bulk Modulus (GPa) = 30.88680 37.89218 34.38949
# Shear Modulus (GPa) = 17.27199 25.32111 21.29655
#
# Velocity S-wave (km/s) = 2.84831 3.44872 3.16279
# Velocity P-wave (km/s) = 5.03240 5.80143 5.43055
#
# Compressibility (1/GPa) = 0.03237629
#
# Stress axis : x y z
#
# Youngs Moduli (GPa) = 62.59990 34.53455 87.34212
#
# Poissons Ratio (x) = 0.21396 0.36585
# Poissons Ratio (y) = 0.38784 0.14130
# Poissons Ratio (z) = 0.26221 0.05587
#
# Static dielectric constant tensor:
#      x y z
#    x 1.825410 0.000000 0.000000 
#    y 0.000000 1.817930 0.000000 
#    z 0.000000 0.000000 1.816420 
# 
# From -- ./inp_files/18054.got.cif
#   From: 2010.05.17/outbox.cif.g08.bks.cpg/sg64_10_cif.got.tgz:18054.got - 2010.06.03 16:29:19.
