data_PCOD9476547
_publ_section_title
;
Structure prediction by ZEFSAII (Michael W. Deem and Ramdas Pophale) SiO2 
 PCOD9476547
Probable space group: C M C A
;
_chemical_formula_sum "Si O2"
_cell_formula_units_Z 72
_cell_length_a 34.307267
_cell_length_b 23.356770
_cell_length_c 5.135956
_cell_angle_alpha 90.000000
_cell_angle_beta 90.000000
_cell_angle_gamma 90.000000
_cell_volume 4115.477210
_symmetry_space_group_name_H-M "C M C A"
_symmetry_group_IT_number 64
_symmetry_cell_setting 'orthorhombic'
loop_
_space_group_symop_operation_xyz
x,y,z
-x,1/2-y,1/2+z
x,-y,-z
-x,1/2+y,1/2-z
-x,-y,-z
x,1/2+y,1/2-z
-x,y,z
x,1/2-y,1/2+z
1/2+x,1/2+y,z
1/2-x,-y,1/2+z
1/2+x,1/2-y,-z
1/2-x,y,1/2-z
1/2-x,1/2-y,-z
1/2+x,y,1/2-z
1/2-x,1/2+y,z
1/2+x,-y,1/2+z
loop_
_atom_site_type_symbol
_atom_site_label
_atom_site_fract_x
_atom_site_fract_y
_atom_site_fract_z
Si Si1 0.164796 0.840057 0.163978
Si Si2 0.708223 0.939851 0.112588
Si Si3 0.500000 0.288431 0.189881
Si Si4 0.708195 0.823556 0.841842
Si Si5 0.583827 0.789414 0.203526
O O1 0.178476 0.905915 0.198427
O O2 0.192150 0.806602 0.374490
O O3 0.120570 0.829313 0.240971
O O4 0.175844 0.818437 0.879705
O O5 0.750000 0.947905 0.250000
O O6 0.713327 0.892037 0.889665
O O7 0.694719 0.000000 0.000000
O O8 0.500000 0.234908 0.394751
O O9 0.458658 0.317567 0.250041
O O10 0.750000 0.800986 0.750000
O O11 0.585859 0.738241 0.417371
#
# Coordination Sequence:
#
# PCOD9476547 Si02
#       5
#    16  16   8  16  16
#     4  10  20  30  48  71  97 127 160 202 243 286
#     4  10  20  29  50  70  96 127 165 206 250 277
#     4   8  16  30  52  76  95 117 153 201 246 292
#     4  10  17  32  45  64  94 126 159 199 239 278
#     4  10  19  34  53  74  99 127 159 198 246 291
#
# _framework density 17.494931999999999
#
# number of rings (size 3 to 8) (size 9 to 14) (size 15 to 20)
#    1.333    0.889    2.222    2.667    0.000    0.000 
#    0.000    0.000    0.000   22.667    0.000    0.778 
#    0.000    1.778    0.000    0.000    0.000    0.000 
#
# Total GULP energy -200467.027446 kJ/mol
# GULP energy per Si atom -5568.528540 kJ/mol
# Density = 1.745511 g / cm^3
# Si number density = 17.494932 Si / 1000 Ang^3
#
#
#
# Elastic Constant Matrix: (Units=GPa)
#
#
# Indices 1 2 3 4 5 6 
#
# 1 92.0995 -0.4940 -12.4948 0.0000 0.0000 0.0000
# 2 -0.4940 61.4169 -9.8390 0.0000 0.0000 0.0000
# 3 -12.4948 -9.8390 73.5973 0.0000 0.0000 0.0000
# 4 0.0000 0.0000 0.0000 1.0736 0.0000 0.0000
# 5 0.0000 0.0000 0.0000 0.0000 24.5629 0.0000
# 6 0.0000 0.0000 0.0000 0.0000 0.0000 1.0442
#
#
#
# Elastic Compliance Matrix: (Units=1/GPa)
#
#
# Indices 1 2 3 4 5 6 
#
# 1 0.011123 0.000401 0.001942 0.000000 0.000000 0.000000
# 2 0.000401 0.016653 0.002294 0.000000 0.000000 0.000000
# 3 0.001942 0.002294 0.014224 0.000000 0.000000 0.000000
# 4 0.000000 0.000000 0.000000 0.931476 0.000000 0.000000
# 5 0.000000 0.000000 0.000000 0.000000 0.040712 0.000000
# 6 0.000000 0.000000 0.000000 0.000000 0.000000 0.957627
#
#
# Mechanical properties :
#
#
# Convention : Reuss Voigt Hill
#
# Bulk Modulus (GPa) = 19.50305 20.16199 19.83252
# Shear Modulus (GPa) = 2.52572 21.99891 12.26231
#
# Velocity S-wave (km/s) = 1.20284 3.54989 2.65034
# Velocity P-wave (km/s) = 3.61955 5.32464 4.55263
#
# Compressibility (1/GPa) = 0.05127403
#
# Stress axis : x y z
#
# Youngs Moduli (GPa) = 89.90026 60.04947 70.30434
#
# Poissons Ratio (x) = -0.02405 -0.13653
# Poissons Ratio (y) = -0.03601 -0.16130
# Poissons Ratio (z) = -0.17459 -0.13777
#
# Static dielectric constant tensor:
#      x y z
#    x 1.623500 0.000000 0.000000 
#    y 0.000000 1.606710 0.000000 
#    z 0.000000 0.000000 1.637840 
# 
# From -- ./inp_files/2880.got.cif
#   From: 2010.05.17/outbox.cif.g08.bks.cpg/sg64_2_cif.got.tgz:2880.got - 2010.06.03 16:29:19.
