data_PCOD9476081
_publ_section_title
;
Structure prediction by ZEFSAII (Michael W. Deem and Ramdas Pophale) SiO2 
 PCOD9476081
Probable space group: C M C M
;
_chemical_formula_sum "Si O2"
_cell_formula_units_Z 60
_cell_length_a 27.000000
_cell_length_b 27.000000
_cell_length_c 9.000000
_cell_angle_alpha 90.000000
_cell_angle_beta 90.000000
_cell_angle_gamma 90.000000
_cell_volume 6561.000000
_symmetry_space_group_name_H-M "C M C M"
_symmetry_group_IT_number 63
_symmetry_cell_setting 'orthorhombic'
loop_
_space_group_symop_operation_xyz
x,y,z
-x,-y,1/2+z
x,-y,-z
-x,y,1/2-z
-x,-y,-z
x,y,1/2-z
-x,y,z
x,-y,1/2+z
1/2+x,1/2+y,z
1/2-x,1/2-y,1/2+z
1/2+x,1/2-y,-z
1/2-x,1/2+y,1/2-z
1/2-x,1/2-y,-z
1/2+x,1/2+y,1/2-z
1/2-x,1/2+y,z
1/2+x,1/2-y,1/2+z
loop_
_atom_site_type_symbol
_atom_site_label
_atom_site_fract_x
_atom_site_fract_y
_atom_site_fract_z
Si Si1 0.182381 0.343737 0.071700
Si Si2 0.628022 0.246519 0.573031
Si Si3 0.556338 0.690007 0.583982
Si Si4 0.703511 0.951920 0.072171
Si Si5 0.595680 0.415213 0.081654
Si Si6 0.307299 0.430548 0.580566
Si Si7 0.000000 0.948302 0.578064
Si Si8 0.217183 0.184977 0.419455
O O1 0.184917 0.344064 0.250000
O O2 0.137850 0.309042 0.022340
O O3 0.178966 0.400395 0.024337
O O4 0.233196 0.319551 0.013964
O O5 0.630865 0.248779 0.750000
O O6 0.576814 0.269614 0.525434
O O7 0.674655 0.279451 0.518932
O O8 0.556539 0.710531 0.750000
O O9 0.500000 0.673659 0.552871
O O10 0.594653 0.644347 0.584709
O O11 0.705189 0.955647 0.250000
O O12 0.758889 0.947778 0.006056
O O13 0.679689 0.000000 0.000000
O O14 0.586101 0.432363 0.250000
O O15 0.643969 0.439969 0.014668
O O16 0.550070 0.424159 0.975370
O O17 0.309083 0.449478 0.750000
O O18 0.303599 0.370862 0.588258
O O19 0.000000 0.953251 0.750000
O O20 0.000000 0.000000 0.500000
O O21 0.229454 0.200240 0.250000
#
# Coordination Sequence:
#
# PCOD9476081 Si02
#       8
#    16  16  16  16  16  16   8  16
#     4   9  19  32  48  71 102 133 166 204 248 296
#     4  10  19  32  49  74 103 132 165 204 246 298
#     4  10  21  36  53  75 102 134 169 206 250 304
#     4  10  20  35  52  72  98 134 171 209 251 294
#     4  11  21  37  56  74  98 127 163 208 256 307
#     4  10  19  32  50  75 100 127 164 207 247 291
#     4  12  26  42  58  74  92 118 158 212 269 314
#     4   9  17  28  45  71 102 130 163 198 236 290
#
# _framework density 9.1449470000000002
#
# number of rings (size 3 to 8) (size 9 to 14) (size 15 to 20)
#    0.000    2.000    2.000    2.200    0.000    3.467 
#    0.000    2.667    0.000    0.000    0.000    0.000 
#    0.000    0.533    0.000    1.200    0.000    2.133 
#
# Total GULP energy -334184.947802 kJ/mol
# GULP energy per Si atom -5569.749130 kJ/mol
# Density = 0.912413 g / cm^3
# Si number density = 9.144947 Si / 1000 Ang^3
#
#
#
# Elastic Constant Matrix: (Units=GPa)
#
#
# Indices 1 2 3 4 5 6 
#
# 1 -2.0761 13.9997 11.0235 0.0000 0.0000 0.0000
# 2 13.9997 83.3300 33.4237 0.0000 0.0000 0.0000
# 3 11.0235 33.4237 50.7603 0.0000 0.0000 0.0000
# 4 0.0000 0.0000 0.0000 15.0719 0.0000 0.0000
# 5 0.0000 0.0000 0.0000 0.0000 15.5952 0.0000
# 6 0.0000 0.0000 0.0000 0.0000 0.0000 -320.4631
#
#
#
# Elastic Compliance Matrix: (Units=1/GPa)
#
#
# Indices 1 2 3 4 5 6 
#
# 1 -0.191896 0.021095 0.027783 0.000000 0.000000 0.000000
# 2 0.021095 0.013988 -0.013792 0.000000 0.000000 0.000000
# 3 0.027783 -0.013792 0.022748 0.000000 0.000000 0.000000
# 4 0.000000 0.000000 0.000000 0.066349 0.000000 0.000000
# 5 0.000000 0.000000 0.000000 0.000000 0.064122 0.000000
# 6 0.000000 0.000000 0.000000 0.000000 0.000000 -0.003120
#
#
# Mechanical properties :
#
#
# Convention : Reuss Voigt Hill
#
# Bulk Modulus (GPa) = -11.76660 27.65645 7.94492
# Shear Modulus (GPa) = -39.58502 -53.05471 -46.31986
#
# Velocity S-wave (km/s) = -4.65726 -5.39172 -5.03789
# Velocity P-wave (km/s) = 5.94706 4.85869 5.43021
#
# Compressibility (1/GPa) = -0.08498632
#
# Stress axis : x y z
#
# Youngs Moduli (GPa) = -5.21116 71.48759 43.95920
#
# Poissons Ratio (x) = -1.50804 -1.22133
# Poissons Ratio (y) = 0.10993 0.60629
# Poissons Ratio (z) = 0.14478 0.98596
#
# Static dielectric constant tensor:
#      x y z
#    x 1.583630 0.000000 0.000000 
#    y 0.000000 1.726500 0.000000 
#    z 0.000000 0.000000 1.627820 
# 
# From -- ./inp_files/13203.got.cif
#   From: 2010.05.17/outbox.ucp.g08.bks.cvg/sg63_7_cif.got.tgz:13203.got - 2010.06.11 16:32:19.
