data_PCOD9476435
_publ_section_title
;
Structure prediction by ZEFSAII (Michael W. Deem and Ramdas Pophale) SiO2 
 PCOD9476435
Probable space group: C M C A
;
_chemical_formula_sum "Si O2"
_cell_formula_units_Z 128
_cell_length_a 26.451238
_cell_length_b 24.176467
_cell_length_c 11.639482
_cell_angle_alpha 90.000000
_cell_angle_beta 90.000000
_cell_angle_gamma 90.000000
_cell_volume 7443.419438
_symmetry_space_group_name_H-M "C M C A"
_symmetry_group_IT_number 64
_symmetry_cell_setting 'orthorhombic'
loop_
_space_group_symop_operation_xyz
x,y,z
-x,1/2-y,1/2+z
x,-y,-z
-x,1/2+y,1/2-z
-x,-y,-z
x,1/2+y,1/2-z
-x,y,z
x,1/2-y,1/2+z
1/2+x,1/2+y,z
1/2-x,-y,1/2+z
1/2+x,1/2-y,-z
1/2-x,y,1/2-z
1/2-x,1/2-y,-z
1/2+x,y,1/2-z
1/2-x,1/2+y,z
1/2+x,-y,1/2+z
loop_
_atom_site_type_symbol
_atom_site_label
_atom_site_fract_x
_atom_site_fract_y
_atom_site_fract_z
Si Si1 0.304344 0.863929 0.918474
Si Si2 0.307673 0.253747 0.716186
Si Si3 0.370072 0.459470 0.110080
Si Si4 0.876709 0.187320 0.604769
Si Si5 0.619617 0.709495 0.974615
Si Si6 0.310117 0.879330 0.544122
Si Si7 0.940184 0.366380 0.303345
Si Si8 0.806317 0.463849 0.755689
O O1 0.311239 0.818905 0.815844
O O2 0.246752 0.856505 0.963176
O O3 0.311423 0.925804 0.868536
O O4 0.343076 0.849443 0.019355
O O5 0.250000 0.242704 0.750000
O O6 0.340585 0.225101 0.815064
O O7 0.331349 0.226318 0.601909
O O8 0.418100 0.424047 0.148746
O O9 0.348148 0.492117 0.219568
O O10 0.379107 0.500000 0.000000
O O11 0.327902 0.415559 0.065310
O O12 0.902910 0.235194 0.529101
O O13 0.912715 0.151237 0.685055
O O14 0.579174 0.679020 0.895339
O O15 0.645429 0.665401 0.059712
O O16 0.308081 0.920310 0.651266
O O17 0.000000 0.367034 0.292124
O O18 0.750000 0.489193 0.750000
#
# Coordination Sequence:
#
# PCOD9476435 Si02
#       8
#    16  16  16  16  16  16  16  16
#     4  10  18  28  47  74 106 140 164 188 228 285
#     4  10  17  26  44  73 108 140 163 185 222 282
#     4   9  19  35  54  73  95 125 163 210 251 285
#     4  10  20  32  48  73 103 133 162 195 237 289
#     4   9  18  31  49  72  99 130 162 195 238 290
#     4   9  16  29  48  74 105 133 162 193 230 282
#     4  10  22  38  54  72  92 120 164 214 258 294
#     4   9  17  29  48  73 102 134 164 194 233 282
#
# _framework density 17.196397000000001
#
# number of rings (size 3 to 8) (size 9 to 14) (size 15 to 20)
#    0.000    2.500    0.000    3.375    0.000    3.750 
#    0.000    3.125    0.000    1.500    0.000    0.000 
#    0.000    0.000    0.000    0.000    0.000    0.000 
#
# Total GULP energy -356418.230193 kJ/mol
# GULP energy per Si atom -5569.034847 kJ/mol
# Density = 1.715726 g / cm^3
# Si number density = 17.196397 Si / 1000 Ang^3
#
#
#
# Elastic Constant Matrix: (Units=GPa)
#
#
# Indices 1 2 3 4 5 6 
#
# 1 108.9711 46.5374 45.2131 0.0000 0.0000 0.0000
# 2 46.5374 70.9101 25.8716 0.0000 0.0000 0.0000
# 3 45.2131 25.8716 62.5677 0.0000 0.0000 0.0000
# 4 0.0000 0.0000 0.0000 17.6637 0.0000 0.0000
# 5 0.0000 0.0000 0.0000 0.0000 11.2546 0.0000
# 6 0.0000 0.0000 0.0000 0.0000 0.0000 13.9407
#
#
#
# Elastic Compliance Matrix: (Units=1/GPa)
#
#
# Indices 1 2 3 4 5 6 
#
# 1 0.015767 -0.007290 -0.008379 0.000000 0.000000 0.000000
# 2 -0.007290 0.019979 -0.002993 0.000000 0.000000 0.000000
# 3 -0.008379 -0.002993 0.023275 0.000000 0.000000 0.000000
# 4 0.000000 0.000000 0.000000 0.056613 0.000000 0.000000
# 5 0.000000 0.000000 0.000000 0.000000 0.088853 0.000000
# 6 0.000000 0.000000 0.000000 0.000000 0.000000 0.071732
#
#
# Mechanical properties :
#
#
# Convention : Reuss Voigt Hill
#
# Bulk Modulus (GPa) = 46.09109 53.07702 49.58406
# Shear Modulus (GPa) = 15.58722 16.89359 16.24041
#
# Velocity S-wave (km/s) = 3.01395 3.13771 3.07646
# Velocity P-wave (km/s) = 6.24282 6.63771 6.44329
#
# Compressibility (1/GPa) = 0.02169617
#
# Stress axis : x y z
#
# Youngs Moduli (GPa) = 63.42493 50.05263 42.96441
#
# Poissons Ratio (x) = 0.36491 0.35999
# Poissons Ratio (y) = 0.46240 0.12859
# Poissons Ratio (z) = 0.53143 0.14981
#
# Static dielectric constant tensor:
#      x y z
#    x 1.544220 0.000000 0.000000 
#    y 0.000000 1.643160 0.000000 
#    z 0.000000 0.000000 1.628520 
# 
# From -- ./inp_files/18664.got.cif
#   From: 2010.05.17/outbox.cif.g08.bks.cpg/sg64_10_cif.got.tgz:18664.got - 2010.06.03 16:29:19.
