data_PCOD9476274
_publ_section_title
;
Structure prediction by ZEFSAII (Michael W. Deem and Ramdas Pophale) SiO2 
 PCOD9476274
Probable space group: C M C M
;
_chemical_formula_sum "Si O2"
_cell_formula_units_Z 48
_cell_length_a 24.000000
_cell_length_b 24.000000
_cell_length_c 9.000000
_cell_angle_alpha 90.000000
_cell_angle_beta 90.000000
_cell_angle_gamma 90.000000
_cell_volume 5184.000000
_symmetry_space_group_name_H-M "C M C M"
_symmetry_group_IT_number 63
_symmetry_cell_setting 'orthorhombic'
loop_
_space_group_symop_operation_xyz
x,y,z
-x,-y,1/2+z
x,-y,-z
-x,y,1/2-z
-x,-y,-z
x,y,1/2-z
-x,y,z
x,-y,1/2+z
1/2+x,1/2+y,z
1/2-x,1/2-y,1/2+z
1/2+x,1/2-y,-z
1/2-x,1/2+y,1/2-z
1/2-x,1/2-y,-z
1/2+x,1/2+y,1/2-z
1/2-x,1/2+y,z
1/2+x,1/2-y,1/2+z
loop_
_atom_site_type_symbol
_atom_site_label
_atom_site_fract_x
_atom_site_fract_y
_atom_site_fract_z
Si Si1 0.680413 0.262114 0.421744
Si Si2 0.226726 0.133697 0.074754
Si Si3 0.390147 0.166898 0.570700
Si Si4 0.163271 0.438202 0.570488
Si Si5 0.000000 0.148147 0.931195
Si Si6 0.381764 0.626305 0.579947
Si Si7 0.500000 0.221344 0.069507
O O1 0.694426 0.248733 0.250000
O O2 0.775171 0.195282 0.502344
O O3 0.657871 0.209012 0.510199
O O4 0.628554 0.306434 0.415540
O O5 0.224718 0.142342 0.250000
O O6 0.277887 0.093305 0.039825
O O7 0.169610 0.105788 0.017166
O O8 0.390614 0.166613 0.750000
O O9 0.379552 0.105120 0.505321
O O10 0.446360 0.191583 0.500830
O O11 0.161536 0.500000 0.500000
O O12 0.155991 0.440790 0.750000
O O13 0.056612 0.118556 0.980303
O O14 0.000000 0.213203 0.972466
O O15 0.000000 0.146951 0.750000
O O16 0.376705 0.606688 0.750000
O O17 0.500000 0.217139 0.250000
#
# Coordination Sequence:
#
# PCOD9476274 Si02
#       7
#    16  16  16  16   8  16   8
#     4   9  17  31  52  80 113 149 183 218 268 327
#     4   9  18  34  55  80 110 141 180 228 280 335
#     4  12  24  37  57  86 117 148 186 229 275 330
#     4  11  25  44  63  81 104 140 186 237 290 339
#     4   9  14  25  47  76 113 152 185 215 253 316
#     4   8  15  27  47  76 111 149 184 215 261 322
#     4  11  19  35  58  80 113 152 186 223 273 330
#
# _framework density 9.2592590000000001
#
# number of rings (size 3 to 8) (size 9 to 14) (size 15 to 20)
#    1.000    1.167    1.667    2.750    0.000    3.333 
#    0.000    0.833    0.000    0.000    0.000    0.583 
#    0.000    0.000    0.000    0.000    0.000    0.000 
#
# Total GULP energy -267438.750222 kJ/mol
# GULP energy per Si atom -5571.640630 kJ/mol
# Density = 0.923818 g / cm^3
# Si number density = 9.259259 Si / 1000 Ang^3
#
#
#
# Elastic Constant Matrix: (Units=GPa)
#
#
# Indices 1 2 3 4 5 6 
#
# 1 104.1856 -1.8548 23.3354 0.0000 0.0000 0.0000
# 2 -1.8548 40.2673 28.0726 0.0000 0.0000 0.0000
# 3 23.3354 28.0726 96.6988 0.0000 0.0000 0.0000
# 4 0.0000 0.0000 0.0000 27.9273 0.0000 0.0000
# 5 0.0000 0.0000 0.0000 0.0000 24.2197 0.0000
# 6 0.0000 0.0000 0.0000 0.0000 0.0000 17.6215
#
#
#
# Elastic Compliance Matrix: (Units=1/GPa)
#
#
# Indices 1 2 3 4 5 6 
#
# 1 0.010391 0.002792 -0.003318 0.000000 0.000000 0.000000
# 2 0.002792 0.031886 -0.009930 0.000000 0.000000 0.000000
# 3 -0.003318 -0.009930 0.014025 0.000000 0.000000 0.000000
# 4 0.000000 0.000000 0.000000 0.035807 0.000000 0.000000
# 5 0.000000 0.000000 0.000000 0.000000 0.041289 0.000000
# 6 0.000000 0.000000 0.000000 0.000000 0.000000 0.056749
#
#
# Mechanical properties :
#
#
# Convention : Reuss Voigt Hill
#
# Bulk Modulus (GPa) = 28.25776 37.80645 33.03211
# Shear Modulus (GPa) = 22.43597 26.72691 24.58144
#
# Velocity S-wave (km/s) = 3.48450 3.80314 3.64730
# Velocity P-wave (km/s) = 5.61082 6.30436 5.96767
#
# Compressibility (1/GPa) = 0.03538851
#
# Stress axis : x y z
#
# Youngs Moduli (GPa) = 96.23580 31.36197 71.30114
#
# Poissons Ratio (x) = -0.08756 0.23658
# Poissons Ratio (y) = -0.26868 0.70805
# Poissons Ratio (z) = 0.31932 0.31144
#
# Static dielectric constant tensor:
#      x y z
#    x 1.743520 0.000000 0.000000 
#    y 0.000000 1.620170 0.000000 
#    z 0.000000 0.000000 1.623670 
# 
# From -- ./inp_files/10548.got.cif
#   From: 2010.05.17/outbox.ucp.g08.bks.cvg/sg63_6_cif.got.tgz:10548.got - 2010.06.11 16:32:19.
