data_PCOD9476958
_publ_section_title
;
Structure prediction by ZEFSAII (Michael W. Deem and Ramdas Pophale) SiO2 
 PCOD9476958
Probable space group: C M C A
;
_chemical_formula_sum "Si O2"
_cell_formula_units_Z 96
_cell_length_a 13.735733
_cell_length_b 17.751890
_cell_length_c 15.508622
_cell_angle_alpha 90.000000
_cell_angle_beta 90.000000
_cell_angle_gamma 90.000000
_cell_volume 3781.548277
_symmetry_space_group_name_H-M "C M C A"
_symmetry_group_IT_number 64
_symmetry_cell_setting 'orthorhombic'
loop_
_space_group_symop_operation_xyz
x,y,z
-x,1/2-y,1/2+z
x,-y,-z
-x,1/2+y,1/2-z
-x,-y,-z
x,1/2+y,1/2-z
-x,y,z
x,1/2-y,1/2+z
1/2+x,1/2+y,z
1/2-x,-y,1/2+z
1/2+x,1/2-y,-z
1/2-x,y,1/2-z
1/2-x,1/2-y,-z
1/2+x,y,1/2-z
1/2-x,1/2+y,z
1/2+x,-y,1/2+z
loop_
_atom_site_type_symbol
_atom_site_label
_atom_site_fract_x
_atom_site_fract_y
_atom_site_fract_z
Si Si1 0.896760 0.575337 0.417036
Si Si2 0.896489 0.656143 0.603225
Si Si3 0.299550 0.030779 0.157362
Si Si4 0.170473 0.789183 0.824937
Si Si5 0.827616 0.366879 0.131349
Si Si6 0.155294 0.676931 0.065483
O O1 0.895928 0.614665 0.510382
O O2 0.796591 0.530366 0.404491
O O3 0.895875 0.639390 0.341831
O O4 0.000000 0.533830 0.408507
O O5 0.790838 0.638449 0.644708
O O6 0.899392 0.746396 0.586928
O O7 0.000000 0.636054 0.646586
O O8 0.250000 0.039101 0.250000
O O9 0.359486 0.103827 0.126343
O O10 0.354605 0.951743 0.154142
O O11 0.250000 0.796863 0.750000
O O12 0.128142 0.705668 0.820216
O O13 0.234980 0.795851 0.912350
O O14 0.852398 0.351803 0.031406
#
# Coordination Sequence:
#
# PCOD9476958 Si02
#       6
#    16  16  16  16  16  16
#     4  10  19  34  56  81 109 137 175 225 275 319
#     4  10  19  33  57  87 109 132 179 235 276 313
#     4  11  23  36  54  80 111 147 183 220 268 326
#     4  10  18  33  55  80 109 140 180 222 265 318
#     4  11  19  35  55  81 110 142 184 223 264 322
#     4  10  18  35  55  78 106 141 185 219 260 324
#
# _framework density 25.386427000000001
#
# number of rings (size 3 to 8) (size 9 to 14) (size 15 to 20)
#    0.000    1.667    5.000    4.000    0.000    0.667 
#    0.000    9.167    0.000    7.000    0.000    0.000 
#    0.000    0.000    0.000    0.000    0.000    0.000 
#
# Total GULP energy -267996.064453 kJ/mol
# GULP energy per Si atom -5583.251343 kJ/mol
# Density = 2.532865 g / cm^3
# Si number density = 25.386427 Si / 1000 Ang^3
#
#
#
# Elastic Constant Matrix: (Units=GPa)
#
#
# Indices 1 2 3 4 5 6 
#
# 1 63.8848 -18.0271 -16.7490 0.0000 0.0000 0.0000
# 2 -18.0271 204.2403 28.7919 0.0000 0.0000 0.0000
# 3 -16.7490 28.7919 89.4325 0.0000 0.0000 0.0000
# 4 0.0000 0.0000 0.0000 31.9999 0.0000 0.0000
# 5 0.0000 0.0000 0.0000 0.0000 6.8495 0.0000
# 6 0.0000 0.0000 0.0000 0.0000 0.0000 -2.0927
#
#
#
# Elastic Compliance Matrix: (Units=1/GPa)
#
#
# Indices 1 2 3 4 5 6 
#
# 1 0.016686 0.001081 0.002777 0.000000 0.000000 0.000000
# 2 0.001081 0.005199 -0.001471 0.000000 0.000000 0.000000
# 3 0.002777 -0.001471 0.012175 0.000000 0.000000 0.000000
# 4 0.000000 0.000000 0.000000 0.031250 0.000000 0.000000
# 5 0.000000 0.000000 0.000000 0.000000 0.145997 0.000000
# 6 0.000000 0.000000 0.000000 0.000000 0.000000 -0.477849
#
#
# Mechanical properties :
#
#
# Convention : Reuss Voigt Hill
#
# Bulk Modulus (GPa) = 25.75015 38.39879 32.07447
# Shear Modulus (GPa) = -19.35204 31.58744 6.11770
#
# Velocity S-wave (km/s) = -2.76397 3.53124 1.55405
# Velocity P-wave (km/s) = 0.14405 5.63780 3.98522
#
# Compressibility (1/GPa) = 0.03883472
#
# Stress axis : x y z
#
# Youngs Moduli (GPa) = 59.92921 192.34309 82.13320
#
# Poissons Ratio (x) = -0.20799 -0.22808
# Poissons Ratio (y) = -0.06480 0.12084
# Poissons Ratio (z) = -0.16642 0.28299
#
# Static dielectric constant tensor:
#      x y z
#    x 2.035600 0.000000 0.000000 
#    y 0.000000 2.097330 0.000000 
#    z 0.000000 0.000000 2.045450 
# 
# From -- ./inp_files/33274.got.cif
#   From: 2010.05.17/outbox.cif.g08.bks.cpg/sg64_17_cif.got.tgz:33274.got - 2010.06.03 16:29:19.
