data_PCOD9476442
_publ_section_title
;
Structure prediction by ZEFSAII (Michael W. Deem and Ramdas Pophale) SiO2 
 PCOD9476442
Probable space group: C M C A
;
_chemical_formula_sum "Si O2"
_cell_formula_units_Z 80
_cell_length_a 8.544540
_cell_length_b 18.587651
_cell_length_c 27.372858
_cell_angle_alpha 90.000000
_cell_angle_beta 90.000000
_cell_angle_gamma 90.000000
_cell_volume 4347.437441
_symmetry_space_group_name_H-M "C M C A"
_symmetry_group_IT_number 64
_symmetry_cell_setting 'orthorhombic'
loop_
_space_group_symop_operation_xyz
x,y,z
-x,1/2-y,1/2+z
x,-y,-z
-x,1/2+y,1/2-z
-x,-y,-z
x,1/2+y,1/2-z
-x,y,z
x,1/2-y,1/2+z
1/2+x,1/2+y,z
1/2-x,-y,1/2+z
1/2+x,1/2-y,-z
1/2-x,y,1/2-z
1/2-x,1/2-y,-z
1/2+x,y,1/2-z
1/2-x,1/2+y,z
1/2+x,-y,1/2+z
loop_
_atom_site_type_symbol
_atom_site_label
_atom_site_fract_x
_atom_site_fract_y
_atom_site_fract_z
Si Si1 0.313918 0.329664 0.799932
Si Si2 0.809711 0.668170 0.592998
Si Si3 0.686877 0.834322 0.300489
Si Si4 0.689250 0.583777 0.003188
Si Si5 0.187127 0.835692 0.597872
O O1 0.500000 0.324180 0.797344
O O2 0.250000 0.364476 0.750000
O O3 0.240096 0.249290 0.800981
O O4 0.261831 0.362927 0.851400
O O5 0.760632 0.637791 0.646207
O O6 0.756146 0.624624 0.545828
O O7 0.763143 0.752110 0.590065
O O8 0.000000 0.666706 0.592704
O O9 0.500000 0.836407 0.298525
O O10 0.750000 0.866949 0.250000
O O11 0.500000 0.589919 0.005841
O O12 0.760113 0.619478 0.051271
O O13 0.729216 0.500000 0.000000
O O14 0.000000 0.836430 0.602994
#
# Coordination Sequence:
#
# PCOD9476442 Si02
#       5
#    16  16  16  16  16
#     4  10  17  27  45  71 101 128 157 193 237 286
#     4   8  16  30  48  71  97 125 158 199 243 286
#     4   9  15  25  42  67  98 126 154 191 236 284
#     4  10  20  34  51  70  94 127 166 206 250 297
#     4  10  19  32  50  72  99 128 161 201 242 287
#
# _framework density 18.401644999999998
#
# number of rings (size 3 to 8) (size 9 to 14) (size 15 to 20)
#    0.000    2.600    0.000    6.000    0.000    0.400 
#    0.000    5.000    0.000    1.200    0.000    2.800 
#    0.000    0.000    0.000    0.000    0.000    0.000 
#
# Total GULP energy -222892.732296 kJ/mol
# GULP energy per Si atom -5572.318307 kJ/mol
# Density = 1.835976 g / cm^3
# Si number density = 18.401645 Si / 1000 Ang^3
#
#
#
# Elastic Constant Matrix: (Units=GPa)
#
#
# Indices 1 2 3 4 5 6 
#
# 1 51.0498 17.8929 44.8342 0.0000 0.0000 0.0000
# 2 17.8929 42.2700 55.5007 0.0000 0.0000 0.0000
# 3 44.8342 55.5007 227.3653 0.0000 0.0000 0.0000
# 4 0.0000 0.0000 0.0000 -5.1174 0.0000 0.0000
# 5 0.0000 0.0000 0.0000 0.0000 37.4830 0.0000
# 6 0.0000 0.0000 0.0000 0.0000 0.0000 7.5826
#
#
#
# Elastic Compliance Matrix: (Units=1/GPa)
#
#
# Indices 1 2 3 4 5 6 
#
# 1 0.024674 -0.005969 -0.003408 0.000000 0.000000 0.000000
# 2 -0.005969 0.036261 -0.007674 0.000000 0.000000 0.000000
# 3 -0.003408 -0.007674 0.006944 0.000000 0.000000 0.000000
# 4 0.000000 0.000000 0.000000 -0.195410 0.000000 0.000000
# 5 0.000000 0.000000 0.000000 0.000000 0.026679 0.000000
# 6 0.000000 0.000000 0.000000 0.000000 0.000000 0.131881
#
#
# Mechanical properties :
#
#
# Convention : Reuss Voigt Hill
#
# Bulk Modulus (GPa) = 29.60818 61.90453 45.75636
# Shear Modulus (GPa) = 65.45337 21.48678 43.47008
#
# Velocity S-wave (km/s) = 5.97047 3.42080 4.86562
# Velocity P-wave (km/s) = 7.97832 7.02256 7.51565
#
# Compressibility (1/GPa) = 0.03377445
#
# Stress axis : x y z
#
# Youngs Moduli (GPa) = 40.52788 27.57816 144.01723
#
# Poissons Ratio (x) = 0.16463 0.49087
# Poissons Ratio (y) = 0.24193 1.10522
# Poissons Ratio (z) = 0.13813 0.21164
#
# Static dielectric constant tensor:
#      x y z
#    x 1.621120 0.000000 0.000000 
#    y 0.000000 1.597350 0.000000 
#    z 0.000000 0.000000 1.696050 
# 
# From -- ./inp_files/47861.got.cif
#   From: 2010.05.17/outbox.cif.g08.bks.cpg/sg64_24_cif.got.tgz:47861.got - 2010.06.03 16:29:19.
