data_PCOD9476160
_publ_section_title
;
Structure prediction by ZEFSAII (Michael W. Deem and Ramdas Pophale) SiO2 
 PCOD9476160
Probable space group: C M C M
;
_chemical_formula_sum "Si O2"
_cell_formula_units_Z 48
_cell_length_a 9.000000
_cell_length_b 24.000000
_cell_length_c 24.000000
_cell_angle_alpha 90.000000
_cell_angle_beta 90.000000
_cell_angle_gamma 90.000000
_cell_volume 5184.000000
_symmetry_space_group_name_H-M "C M C M"
_symmetry_group_IT_number 63
_symmetry_cell_setting 'orthorhombic'
loop_
_space_group_symop_operation_xyz
x,y,z
-x,-y,1/2+z
x,-y,-z
-x,y,1/2-z
-x,-y,-z
x,y,1/2-z
-x,y,z
x,-y,1/2+z
1/2+x,1/2+y,z
1/2-x,1/2-y,1/2+z
1/2+x,1/2-y,-z
1/2-x,1/2+y,1/2-z
1/2-x,1/2-y,-z
1/2+x,1/2+y,1/2-z
1/2-x,1/2+y,z
1/2+x,1/2-y,1/2+z
loop_
_atom_site_type_symbol
_atom_site_label
_atom_site_fract_x
_atom_site_fract_y
_atom_site_fract_z
Si Si1 0.174701 0.819096 0.812312
Si Si2 0.821369 0.504186 0.311541
Si Si3 0.326726 0.407229 0.370626
Si Si4 0.326172 0.934651 0.014607
Si Si5 0.321033 0.900935 0.895500
Si Si6 0.331220 0.705613 0.812846
O O1 0.224867 0.836816 0.750000
O O2 0.262209 0.849908 0.860375
O O3 0.213038 0.754288 0.816805
O O4 0.000000 0.829393 0.816776
O O5 0.771998 0.522075 0.250000
O O6 0.762700 0.443682 0.326313
O O7 0.769805 0.545155 0.360475
O O8 0.000000 0.504305 0.312283
O O9 0.500000 0.420786 0.365589
O O10 0.267205 0.421262 0.431396
O O11 0.307166 0.342727 0.356596
O O12 0.500000 0.921647 0.025381
O O13 0.272452 0.903218 0.959273
O O14 0.319377 0.000000 0.000000
O O15 0.500000 0.901926 0.896276
O O16 0.324494 0.681897 0.750000
O O17 0.500000 0.728368 0.819395
#
# Coordination Sequence:
#
# PCOD9476160 Si02
#       6
#    16  16  16  16  16  16
#     4  10  21  36  56  84 114 142 177 227 280 326
#     4  10  20  34  54  80 110 145 184 224 270 329
#     4  11  22  35  55  83 114 144 181 229 281 330
#     4  10  20  38  59  78 107 148 192 230 267 321
#     4  10  20  36  58  80 106 145 188 226 268 324
#     4   9  19  37  58  79 108 147 185 221 269 331
#
# _framework density 9.2592590000000001
#
# number of rings (size 3 to 8) (size 9 to 14) (size 15 to 20)
#    0.000    2.000    1.667    2.000    0.000    5.667 
#    0.000    2.500    0.000    0.000    0.000    0.000 
#    0.000    0.000    0.000    0.000    0.000    0.000 
#
# Total GULP energy -267687.572114 kJ/mol
# GULP energy per Si atom -5576.824419 kJ/mol
# Density = 0.923818 g / cm^3
# Si number density = 9.259259 Si / 1000 Ang^3
#
#
#
# Elastic Constant Matrix: (Units=GPa)
#
#
# Indices 1 2 3 4 5 6 
#
# 1 -21.7966 6.1614 10.7538 0.0000 0.0000 0.0000
# 2 6.1614 25.0298 20.5811 0.0000 0.0000 0.0000
# 3 10.7538 20.5811 65.3756 0.0000 0.0000 0.0000
# 4 0.0000 0.0000 0.0000 41.7735 0.0000 0.0000
# 5 0.0000 0.0000 0.0000 0.0000 10.5316 0.0000
# 6 0.0000 0.0000 0.0000 0.0000 0.0000 21.0258
#
#
#
# Elastic Compliance Matrix: (Units=1/GPa)
#
#
# Indices 1 2 3 4 5 6 
#
# 1 -0.041700 0.006240 0.004895 0.000000 0.000000 0.000000
# 2 0.006240 0.052973 -0.017703 0.000000 0.000000 0.000000
# 3 0.004895 -0.017703 0.020064 0.000000 0.000000 0.000000
# 4 0.000000 0.000000 0.000000 0.023939 0.000000 0.000000
# 5 0.000000 0.000000 0.000000 0.000000 0.094952 0.000000
# 6 0.000000 0.000000 0.000000 0.000000 0.000000 0.047561
#
#
# Mechanical properties :
#
#
# Convention : Reuss Voigt Hill
#
# Bulk Modulus (GPa) = 54.94191 15.95572 35.44881
# Shear Modulus (GPa) = 23.04241 16.74036 19.89138
#
# Velocity S-wave (km/s) = 3.53128 3.00989 3.28095
# Velocity P-wave (km/s) = 6.80879 4.55127 5.79110
#
# Compressibility (1/GPa) = 0.01820104
#
# Stress axis : x y z
#
# Youngs Moduli (GPa) = -23.98091 18.87764 49.84006
#
# Poissons Ratio (x) = -0.11780 -0.24396
# Poissons Ratio (y) = 0.14964 0.88232
# Poissons Ratio (z) = 0.11738 0.33419
#
# Static dielectric constant tensor:
#      x y z
#    x 1.622820 0.000000 0.000000 
#    y 0.000000 1.647270 0.000000 
#    z 0.000000 0.000000 1.640050 
# 
# From -- ./inp_files/59849.got.cif
#   From: 2010.05.17/outbox.ucp.g08.bks.cvg/sg63_30_cif.got.tgz:59849.got - 2010.06.11 16:32:19.
