data_PCOD9476644
_publ_section_title
;
Structure prediction by ZEFSAII (Michael W. Deem and Ramdas Pophale) SiO2 
 PCOD9476644
Probable space group: C M C A
;
_chemical_formula_sum "Si O2"
_cell_formula_units_Z 104
_cell_length_a 7.416978
_cell_length_b 30.583931
_cell_length_c 21.015853
_cell_angle_alpha 90.000000
_cell_angle_beta 90.000000
_cell_angle_gamma 90.000000
_cell_volume 4767.243311
_symmetry_space_group_name_H-M "C M C A"
_symmetry_group_IT_number 64
_symmetry_cell_setting 'orthorhombic'
loop_
_space_group_symop_operation_xyz
x,y,z
-x,1/2-y,1/2+z
x,-y,-z
-x,1/2+y,1/2-z
-x,-y,-z
x,1/2+y,1/2-z
-x,y,z
x,1/2-y,1/2+z
1/2+x,1/2+y,z
1/2-x,-y,1/2+z
1/2+x,1/2-y,-z
1/2-x,y,1/2-z
1/2-x,1/2-y,-z
1/2+x,y,1/2-z
1/2-x,1/2+y,z
1/2+x,-y,1/2+z
loop_
_atom_site_type_symbol
_atom_site_label
_atom_site_fract_x
_atom_site_fract_y
_atom_site_fract_z
Si Si1 0.284938 0.013441 0.674698
Si Si2 0.783361 0.821208 0.036228
Si Si3 0.209783 0.237476 0.651869
Si Si4 0.279157 0.670819 0.108536
Si Si5 0.720568 0.107473 0.638028
Si Si6 0.750000 0.331479 0.250000
Si Si7 0.215721 0.082856 0.174938
O O1 0.500000 0.011980 0.666016
O O2 0.250000 0.019286 0.750000
O O3 0.213924 0.965396 0.656510
O O4 0.222764 0.057047 0.639148
O O5 0.716814 0.781701 0.080374
O O6 0.738020 0.865646 0.074421
O O7 0.000000 0.817896 0.035030
O O8 0.719459 0.822396 0.964052
O O9 0.274214 0.287113 0.650042
O O10 0.313983 0.204412 0.697727
O O11 0.000000 0.235330 0.672310
O O12 0.500000 0.671129 0.108554
O O13 0.216913 0.624800 0.136787
O O14 0.500000 0.109711 0.648100
O O15 0.809845 0.133231 0.696805
O O16 0.250000 0.088476 0.250000
O O17 0.000000 0.082003 0.165942
#
# Coordination Sequence:
#
# PCOD9476644 Si02
#       7
#    16  16  16  16  16   8  16
#     4   9  16  28  46  69  93 119 151 190 235 285
#     4   9  18  33  50  68  95 130 161 193 233 282
#     4  10  20  32  49  71  97 126 161 199 235 278
#     4   9  18  33  50  68  95 128 160 195 237 278
#     4   9  16  27  44  67  94 119 149 188 234 280
#     4  10  18  28  44  68 100 120 152 190 242 278
#     4   9  18  32  50  70  94 122 156 196 238 282
#
# _framework density 21.815543000000002
#
# number of rings (size 3 to 8) (size 9 to 14) (size 15 to 20)
#    0.000    2.769    0.769    0.923    1.077    0.615 
#    0.000    2.308    0.000    4.615    0.000    0.000 
#    0.000    7.692    0.000    0.000    0.000    0.000 
#
# Total GULP energy -289732.468030 kJ/mol
# GULP energy per Si atom -5571.778231 kJ/mol
# Density = 2.176589 g / cm^3
# Si number density = 21.815543 Si / 1000 Ang^3
#
#
#
# Elastic Constant Matrix: (Units=GPa)
#
#
# Indices 1 2 3 4 5 6 
#
# 1 83.8046 15.9481 6.2426 0.0000 0.0000 0.0000
# 2 15.9481 204.1354 47.2016 0.0000 0.0000 0.0000
# 3 6.2426 47.2016 65.1746 0.0000 0.0000 0.0000
# 4 0.0000 0.0000 0.0000 19.2490 0.0000 0.0000
# 5 0.0000 0.0000 0.0000 0.0000 1.4842 0.0000
# 6 0.0000 0.0000 0.0000 0.0000 0.0000 -20.6264
#
#
#
# Elastic Compliance Matrix: (Units=1/GPa)
#
#
# Indices 1 2 3 4 5 6 
#
# 1 0.012130 -0.000816 -0.000571 0.000000 0.000000 0.000000
# 2 -0.000816 0.005939 -0.004223 0.000000 0.000000 0.000000
# 3 -0.000571 -0.004223 0.018457 0.000000 0.000000 0.000000
# 4 0.000000 0.000000 0.000000 0.051951 0.000000 0.000000
# 5 0.000000 0.000000 0.000000 0.000000 0.673780 0.000000
# 6 0.000000 0.000000 0.000000 0.000000 0.000000 -0.048481
#
#
# Mechanical properties :
#
#
# Convention : Reuss Voigt Hill
#
# Bulk Modulus (GPa) = 39.51614 54.65546 47.08580
# Shear Modulus (GPa) = 6.81728 18.93616 12.87672
#
# Velocity S-wave (km/s) = 1.76968 2.94940 2.43215
# Velocity P-wave (km/s) = 4.72533 6.05859 5.43301
#
# Compressibility (1/GPa) = 0.02530611
#
# Stress axis : x y z
#
# Youngs Moduli (GPa) = 82.43836 168.38110 54.18126
#
# Poissons Ratio (x) = 0.13733 0.03095
# Poissons Ratio (y) = 0.06724 0.22881
# Poissons Ratio (z) = 0.04709 0.71108
#
# Static dielectric constant tensor:
#      x y z
#    x 1.887640 0.000000 0.000000 
#    y 0.000000 1.798770 0.000000 
#    z 0.000000 0.000000 1.736500 
# 
# From -- ./inp_files/37411.got.cif
#   From: 2010.05.17/outbox.cif.g08.bks.cpg/sg64_19_cif.got.tgz:37411.got - 2010.06.03 16:29:19.
