data_PCOD9476393
_publ_section_title
;
Structure prediction by ZEFSAII (Michael W. Deem and Ramdas Pophale) SiO2 
 PCOD9476393
Probable space group: C M C A
;
_chemical_formula_sum "Si O2"
_cell_formula_units_Z 108
_cell_length_a 23.223208
_cell_length_b 14.722625
_cell_length_c 14.804834
_cell_angle_alpha 90.000000
_cell_angle_beta 90.000000
_cell_angle_gamma 90.000000
_cell_volume 5061.870200
_symmetry_space_group_name_H-M "C M C A"
_symmetry_group_IT_number 64
_symmetry_cell_setting 'orthorhombic'
loop_
_space_group_symop_operation_xyz
x,y,z
-x,1/2-y,1/2+z
x,-y,-z
-x,1/2+y,1/2-z
-x,-y,-z
x,1/2+y,1/2-z
-x,y,z
x,1/2-y,1/2+z
1/2+x,1/2+y,z
1/2-x,-y,1/2+z
1/2+x,1/2-y,-z
1/2-x,y,1/2-z
1/2-x,1/2-y,-z
1/2+x,y,1/2-z
1/2-x,1/2+y,z
1/2+x,-y,1/2+z
loop_
_atom_site_type_symbol
_atom_site_label
_atom_site_fract_x
_atom_site_fract_y
_atom_site_fract_z
Si Si1 0.756888 0.677717 0.081170
Si Si2 0.568230 0.457375 0.323048
Si Si3 0.639547 0.323131 0.836350
Si Si4 0.000000 0.500000 0.500000
Si Si5 0.112548 0.659599 0.144196
Si Si6 0.063958 0.207872 0.540147
Si Si7 0.704219 0.500000 0.000000
Si Si8 0.608404 0.033148 0.630788
O O1 0.707392 0.695892 0.156088
O O2 0.821705 0.676267 0.115739
O O3 0.750000 0.750000 0.000000
O O4 0.742363 0.575600 0.048220
O O5 0.500000 0.473298 0.306523
O O6 0.597554 0.552722 0.348828
O O7 0.572427 0.386338 0.405336
O O8 0.596857 0.423837 0.229013
O O9 0.608525 0.297070 0.743308
O O10 0.610535 0.274843 0.920346
O O11 0.625665 0.429049 0.846955
O O12 0.050985 0.533339 0.571221
O O13 0.072245 0.697574 0.066019
O O14 0.000000 0.242794 0.560763
O O15 0.662542 0.557943 0.932518
#
# Coordination Sequence:
#
# PCOD9476393 Si02
#       8
#    16  16  16   4  16  16   8  16
#     4  11  22  41  66  92 125 166 216 267 319 385
#     4  10  21  39  62  92 130 163 215 261 315 391
#     4  10  23  42  59  91 127 161 210 261 316 383
#     4  10  16  32  64  84 110 172 204 236 320 362
#     4  11  23  40  67  86 125 170 208 262 326 374
#     4  11  24  40  61  96 126 166 214 261 319 389
#     4   9  22  37  62  94 127 164 215 260 320 388
#     4   9  19  37  59  88 125 163 205 260 311 374
#
# _framework density 21.335986999999999
#
# number of rings (size 3 to 8) (size 9 to 14) (size 15 to 20)
#    0.000    1.778    2.222    1.333    3.111    3.556 
#    2.667    0.000    0.000    0.000    0.000    0.000 
#    0.000    0.000    0.000    0.000    0.000    0.000 
#
# Total GULP energy -301006.480625 kJ/mol
# GULP energy per Si atom -5574.194086 kJ/mol
# Density = 2.128743 g / cm^3
# Si number density = 21.335987 Si / 1000 Ang^3
#
#
#
# Elastic Constant Matrix: (Units=GPa)
#
#
# Indices 1 2 3 4 5 6 
#
# 1 50.4762 4.5938 -13.6995 0.0000 0.0000 0.0000
# 2 4.5938 28.6909 -2.5685 0.0000 0.0000 0.0000
# 3 -13.6995 -2.5685 89.7954 0.0000 0.0000 0.0000
# 4 0.0000 0.0000 0.0000 15.0725 0.0000 0.0000
# 5 0.0000 0.0000 0.0000 0.0000 21.5972 0.0000
# 6 0.0000 0.0000 0.0000 0.0000 0.0000 21.5750
#
#
#
# Elastic Compliance Matrix: (Units=1/GPa)
#
#
# Indices 1 2 3 4 5 6 
#
# 1 0.020934 -0.003074 0.003106 0.000000 0.000000 0.000000
# 2 -0.003074 0.035395 0.000543 0.000000 0.000000 0.000000
# 3 0.003106 0.000543 0.011626 0.000000 0.000000 0.000000
# 4 0.000000 0.000000 0.000000 0.066346 0.000000 0.000000
# 5 0.000000 0.000000 0.000000 0.000000 0.046302 0.000000
# 6 0.000000 0.000000 0.000000 0.000000 0.000000 0.046350
#
#
# Mechanical properties :
#
#
# Convention : Reuss Voigt Hill
#
# Bulk Modulus (GPa) = 14.47050 16.17933 15.32492
# Shear Modulus (GPa) = 20.09346 23.69139 21.89242
#
# Velocity S-wave (km/s) = 3.07215 3.33588 3.20672
# Velocity P-wave (km/s) = 4.40239 4.73677 4.57264
#
# Compressibility (1/GPa) = 0.06910610
#
# Stress axis : x y z
#
# Youngs Moduli (GPa) = 47.76921 28.25249 86.01547
#
# Poissons Ratio (x) = 0.08684 -0.26715
# Poissons Ratio (y) = 0.14683 -0.04675
# Poissons Ratio (z) = -0.14836 -0.01536
#
# Static dielectric constant tensor:
#      x y z
#    x 1.734700 0.000000 0.000000 
#    y 0.000000 1.708260 0.000000 
#    z 0.000000 0.000000 1.820880 
# 
# From -- ./inp_files/27461.got.cif
#   From: 2010.05.17/outbox.cif.g08.bks.cpg/sg64_14_cif.got.tgz:27461.got - 2010.06.03 16:29:19.
