data_PCOD9476762
_publ_section_title
;
Structure prediction by ZEFSAII (Michael W. Deem and Ramdas Pophale) SiO2 
 PCOD9476762
Probable space group: C M C A
;
_chemical_formula_sum "Si O2"
_cell_formula_units_Z 96
_cell_length_a 7.813633
_cell_length_b 21.546500
_cell_length_c 25.399390
_cell_angle_alpha 90.000000
_cell_angle_beta 90.000000
_cell_angle_gamma 90.000000
_cell_volume 4276.150966
_symmetry_space_group_name_H-M "C M C A"
_symmetry_group_IT_number 64
_symmetry_cell_setting 'orthorhombic'
loop_
_space_group_symop_operation_xyz
x,y,z
-x,1/2-y,1/2+z
x,-y,-z
-x,1/2+y,1/2-z
-x,-y,-z
x,1/2+y,1/2-z
-x,y,z
x,1/2-y,1/2+z
1/2+x,1/2+y,z
1/2-x,-y,1/2+z
1/2+x,1/2-y,-z
1/2-x,y,1/2-z
1/2-x,1/2-y,-z
1/2+x,y,1/2-z
1/2-x,1/2+y,z
1/2+x,-y,1/2+z
loop_
_atom_site_type_symbol
_atom_site_label
_atom_site_fract_x
_atom_site_fract_y
_atom_site_fract_z
Si Si1 0.290491 0.103244 0.885520
Si Si2 0.694697 0.417245 0.504234
Si Si3 0.294624 0.533367 0.389974
Si Si4 0.193698 0.704272 0.454869
Si Si5 0.302018 0.230644 0.842099
Si Si6 0.297218 0.360135 0.807172
O O1 0.500000 0.109428 0.885761
O O2 0.227390 0.161530 0.850745
O O3 0.244074 0.033891 0.866936
O O4 0.233316 0.103227 0.947268
O O5 0.500000 0.435903 0.492373
O O6 0.770934 0.462904 0.549027
O O7 0.689969 0.355182 0.539565
O O8 0.500000 0.533126 0.393936
O O9 0.247905 0.590911 0.352783
O O10 0.250000 0.750000 0.500000
O O11 0.197206 0.741175 0.400907
O O12 0.000000 0.681815 0.462697
O O13 0.500000 0.222698 0.823881
O O14 0.221687 0.289810 0.811893
O O15 0.500000 0.352282 0.811236
O O16 0.250000 0.385565 0.750000
#
# Coordination Sequence:
#
# PCOD9476762 Si02
#       6
#    16  16  16  16  16  16
#     4   9  17  32  54  83 118 153 185 217 264 324
#     4  10  18  30  51  82 117 154 191 221 258 320
#     4  10  20  34  57  86 115 150 189 227 267 323
#     4  11  19  30  49  78 112 151 188 224 268 316
#     4   9  18  33  55  79 107 143 182 227 276 322
#     4  11  23  41  62  82 105 137 183 236 289 338
#
# _framework density 22.450097
#
# number of rings (size 3 to 8) (size 9 to 14) (size 15 to 20)
#    0.000    2.000    3.333    1.500    0.000    2.000 
#    0.000    1.667    0.000    4.000    0.000    0.000 
#    0.000    0.000    0.000    0.000    0.000    0.000 
#
# Total GULP energy -267426.290587 kJ/mol
# GULP energy per Si atom -5571.381054 kJ/mol
# Density = 2.239900 g / cm^3
# Si number density = 22.450097 Si / 1000 Ang^3
#
#
#
# Elastic Constant Matrix: (Units=GPa)
#
#
# Indices 1 2 3 4 5 6 
#
# 1 41.0673 10.0285 2.5825 0.0000 0.0000 0.0000
# 2 10.0285 157.4982 26.7678 0.0000 0.0000 0.0000
# 3 2.5825 26.7678 90.0961 0.0000 0.0000 0.0000
# 4 0.0000 0.0000 0.0000 14.5709 0.0000 0.0000
# 5 0.0000 0.0000 0.0000 0.0000 9.0153 0.0000
# 6 0.0000 0.0000 0.0000 0.0000 0.0000 11.8835
#
#
#
# Elastic Compliance Matrix: (Units=1/GPa)
#
#
# Indices 1 2 3 4 5 6 
#
# 1 0.024740 -0.001532 -0.000254 0.000000 0.000000 0.000000
# 2 -0.001532 0.006782 -0.001971 0.000000 0.000000 0.000000
# 3 -0.000254 -0.001971 0.011692 0.000000 0.000000 0.000000
# 4 0.000000 0.000000 0.000000 0.068630 0.000000 0.000000
# 5 0.000000 0.000000 0.000000 0.000000 0.110923 0.000000
# 6 0.000000 0.000000 0.000000 0.000000 0.000000 0.084150
#
#
# Mechanical properties :
#
#
# Convention : Reuss Voigt Hill
#
# Bulk Modulus (GPa) = 28.01107 40.82434 34.41771
# Shear Modulus (GPa) = 15.32182 23.71278 19.51730
#
# Velocity S-wave (km/s) = 2.61527 3.25352 2.95170
# Velocity P-wave (km/s) = 4.65012 5.68663 5.19430
#
# Compressibility (1/GPa) = 0.03570017
#
# Stress axis : x y z
#
# Youngs Moduli (GPa) = 40.41977 147.45311 85.52765
#
# Poissons Ratio (x) = 0.22592 0.02172
# Poissons Ratio (y) = 0.06193 0.16857
# Poissons Ratio (z) = 0.01026 0.29063
#
# Static dielectric constant tensor:
#      x y z
#    x 1.863620 0.000000 0.000000 
#    y 0.000000 1.920820 0.000000 
#    z 0.000000 0.000000 1.830500 
# 
# From -- ./inp_files/48119.got.cif
#   From: 2010.05.17/outbox.cif.g08.bks.cpg/sg64_25_cif.got.tgz:48119.got - 2010.06.03 16:29:19.
