data_PCOD9476716
_publ_section_title
;
Structure prediction by ZEFSAII (Michael W. Deem and Ramdas Pophale) SiO2 
 PCOD9476716
Probable space group: C M C A
;
_chemical_formula_sum "Si O2"
_cell_formula_units_Z 96
_cell_length_a 25.860122
_cell_length_b 23.885024
_cell_length_c 8.269632
_cell_angle_alpha 90.000000
_cell_angle_beta 90.000000
_cell_angle_gamma 90.000000
_cell_volume 5107.900576
_symmetry_space_group_name_H-M "C M C A"
_symmetry_group_IT_number 64
_symmetry_cell_setting 'orthorhombic'
loop_
_space_group_symop_operation_xyz
x,y,z
-x,1/2-y,1/2+z
x,-y,-z
-x,1/2+y,1/2-z
-x,-y,-z
x,1/2+y,1/2-z
-x,y,z
x,1/2-y,1/2+z
1/2+x,1/2+y,z
1/2-x,-y,1/2+z
1/2+x,1/2-y,-z
1/2-x,y,1/2-z
1/2-x,1/2-y,-z
1/2+x,y,1/2-z
1/2-x,1/2+y,z
1/2+x,-y,1/2+z
loop_
_atom_site_type_symbol
_atom_site_label
_atom_site_fract_x
_atom_site_fract_y
_atom_site_fract_z
Si Si1 0.938224 0.174633 0.894524
Si Si2 0.129418 0.109709 0.407447
Si Si3 0.712290 0.448665 0.391804
Si Si4 0.937452 0.296560 0.764749
Si Si5 0.371929 0.485189 0.817990
Si Si6 0.439686 0.069627 0.812166
O O1 0.927956 0.230836 0.792992
O O2 0.918061 0.119230 0.804910
O O3 0.000000 0.167569 0.896803
O O4 0.924797 0.185739 0.081037
O O5 0.184378 0.098820 0.498136
O O6 0.101059 0.168656 0.380498
O O7 0.089160 0.075320 0.518216
O O8 0.132641 0.078634 0.235132
O O9 0.735715 0.500000 0.500000
O O10 0.750000 0.427806 0.250000
O O11 0.666898 0.480958 0.296969
O O12 0.000000 0.306419 0.794947
O O13 0.427438 0.511233 0.773942
O O14 0.360345 0.500000 0.000000
O O15 0.500000 0.077289 0.837521
#
# Coordination Sequence:
#
# PCOD9476716 Si02
#       6
#    16  16  16  16  16  16
#     4   9  18  30  47  70  95 133 177 211 243 281
#     4  10  20  31  47  72  97 127 162 199 248 300
#     4   9  18  33  52  72  94 122 156 199 248 296
#     4  10  18  30  47  69  99 130 167 210 246 286
#     4  10  20  32  47  70  97 125 160 197 241 299
#     4  10  19  31  45  65  97 132 166 200 236 284
#
# _framework density 18.794412999999999
#
# number of rings (size 3 to 8) (size 9 to 14) (size 15 to 20)
#    0.000    2.333    0.000    4.500    0.000    5.000 
#    0.000    0.000    0.000    0.000    0.000   10.500 
#    0.000   12.000    0.000   28.667    0.000   13.000 
#
# Total GULP energy -267304.150554 kJ/mol
# GULP energy per Si atom -5568.836470 kJ/mol
# Density = 1.875164 g / cm^3
# Si number density = 18.794413 Si / 1000 Ang^3
#
#
#
# Elastic Constant Matrix: (Units=GPa)
#
#
# Indices 1 2 3 4 5 6 
#
# 1 47.8832 13.9560 18.1182 0.0000 0.0000 0.0000
# 2 13.9560 52.0809 13.7189 0.0000 0.0000 0.0000
# 3 18.1182 13.7189 84.1067 0.0000 0.0000 0.0000
# 4 0.0000 0.0000 0.0000 28.5415 0.0000 0.0000
# 5 0.0000 0.0000 0.0000 0.0000 20.4611 0.0000
# 6 0.0000 0.0000 0.0000 0.0000 0.0000 11.7097
#
#
#
# Elastic Compliance Matrix: (Units=1/GPa)
#
#
# Indices 1 2 3 4 5 6 
#
# 1 0.024066 -0.005312 -0.004318 0.000000 0.000000 0.000000
# 2 -0.005312 0.021235 -0.002320 0.000000 0.000000 0.000000
# 3 -0.004318 -0.002320 0.013198 0.000000 0.000000 0.000000
# 4 0.000000 0.000000 0.000000 0.035037 0.000000 0.000000
# 5 0.000000 0.000000 0.000000 0.000000 0.048873 0.000000
# 6 0.000000 0.000000 0.000000 0.000000 0.000000 0.085399
#
#
# Mechanical properties :
#
#
# Convention : Reuss Voigt Hill
#
# Bulk Modulus (GPa) = 28.90049 30.62856 29.76452
# Shear Modulus (GPa) = 18.99406 21.36099 20.17752
#
# Velocity S-wave (km/s) = 3.18248 3.37495 3.28013
# Velocity P-wave (km/s) = 5.37725 5.61418 5.49699
#
# Compressibility (1/GPa) = 0.03460149
#
# Stress axis : x y z
#
# Youngs Moduli (GPa) = 41.55227 47.09155 75.76808
#
# Poissons Ratio (x) = 0.25013 0.32716
# Poissons Ratio (y) = 0.22071 0.17575
# Poissons Ratio (z) = 0.17942 0.10923
#
# Static dielectric constant tensor:
#      x y z
#    x 1.669460 0.000000 0.000000 
#    y 0.000000 1.680750 0.000000 
#    z 0.000000 0.000000 1.712140 
# 
# From -- ./inp_files/9495.got.cif
#   From: 2010.05.17/outbox.cif.g08.bks.cpg/sg64_5_cif.got.tgz:9495.got - 2010.06.03 16:29:19.
