data_PCOD9476221
_publ_section_title
;
Structure prediction by ZEFSAII (Michael W. Deem and Ramdas Pophale) SiO2 
 PCOD9476221
Probable space group: C M C M
;
_chemical_formula_sum "Si O2"
_cell_formula_units_Z 40
_cell_length_a 27.000000
_cell_length_b 18.000000
_cell_length_c 9.000000
_cell_angle_alpha 90.000000
_cell_angle_beta 90.000000
_cell_angle_gamma 90.000000
_cell_volume 4374.000000
_symmetry_space_group_name_H-M "C M C M"
_symmetry_group_IT_number 63
_symmetry_cell_setting 'orthorhombic'
loop_
_space_group_symop_operation_xyz
x,y,z
-x,-y,1/2+z
x,-y,-z
-x,y,1/2-z
-x,-y,-z
x,y,1/2-z
-x,y,z
x,-y,1/2+z
1/2+x,1/2+y,z
1/2-x,1/2-y,1/2+z
1/2+x,1/2-y,-z
1/2-x,1/2+y,1/2-z
1/2-x,1/2-y,-z
1/2+x,1/2+y,1/2-z
1/2-x,1/2+y,z
1/2+x,1/2-y,1/2+z
loop_
_atom_site_type_symbol
_atom_site_label
_atom_site_fract_x
_atom_site_fract_y
_atom_site_fract_z
Si Si1 0.249788 0.080373 0.071710
Si Si2 0.056182 0.918442 0.072202
Si Si3 0.648556 0.664699 0.428382
Si Si4 0.444529 0.081056 0.428581
Si Si5 0.347497 0.825393 0.929482
O O1 0.249664 0.073449 0.250000
O O2 0.198266 0.119710 0.028529
O O3 0.298576 0.127486 0.031715
O O4 0.252649 0.000000 0.000000
O O5 0.062561 0.923397 0.250000
O O6 0.000000 0.890075 0.043876
O O7 0.099583 0.870020 0.001559
O O8 0.059289 0.000000 0.000000
O O9 0.644251 0.662778 0.250000
O O10 0.654455 0.747603 0.487877
O O11 0.443034 0.073616 0.250000
O O12 0.500000 0.109269 0.468329
O O13 0.398269 0.132229 0.471186
O O14 0.438936 0.000000 0.500000
O O15 0.347828 0.814705 0.750000
#
# Coordination Sequence:
#
# PCOD9476221 Si02
#       5
#    16  16  16  16  16
#     4  10  22  38  57  81 108 142 184 229 278 331
#     4  10  21  38  60  84 111 145 184 226 273 326
#     4  11  23  37  55  82 113 145 184 228 276 330
#     4   9  18  33  54  79 106 138 178 222 267 318
#     4  10  21  37  55  78 111 147 183 226 275 326
#
# _framework density 9.1449470000000002
#
# number of rings (size 3 to 8) (size 9 to 14) (size 15 to 20)
#    0.000    2.000    0.000    3.000    0.000    6.800 
#    0.000    2.000    0.000    0.000    0.000    0.000 
#    0.000    0.000    0.000    0.000    0.000    0.000 
#
# Total GULP energy -223360.847534 kJ/mol
# GULP energy per Si atom -5584.021188 kJ/mol
# Density = 0.912413 g / cm^3
# Si number density = 9.144947 Si / 1000 Ang^3
#
#
#
# Elastic Constant Matrix: (Units=GPa)
#
#
# Indices 1 2 3 4 5 6 
#
# 1 208.1729 118.1441 70.3706 0.0000 0.0000 0.0000
# 2 118.1441 138.2843 52.7712 0.0000 0.0000 0.0000
# 3 70.3706 52.7712 41.1580 0.0000 0.0000 0.0000
# 4 0.0000 0.0000 0.0000 36.2988 0.0000 0.0000
# 5 0.0000 0.0000 0.0000 0.0000 16.3735 0.0000
# 6 0.0000 0.0000 0.0000 0.0000 0.0000 -89.7833
#
#
#
# Elastic Compliance Matrix: (Units=1/GPa)
#
#
# Indices 1 2 3 4 5 6 
#
# 1 0.013018 -0.005146 -0.015659 0.000000 0.000000 0.000000
# 2 -0.005146 0.016194 -0.011965 0.000000 0.000000 0.000000
# 3 -0.015659 -0.011965 0.066411 0.000000 0.000000 0.000000
# 4 0.000000 0.000000 0.000000 0.027549 0.000000 0.000000
# 5 0.000000 0.000000 0.000000 0.000000 0.061074 0.000000
# 6 0.000000 0.000000 0.000000 0.000000 0.000000 -0.011138
#
#
# Mechanical properties :
#
#
# Convention : Reuss Voigt Hill
#
# Bulk Modulus (GPa) = 33.24186 96.68746 64.96466
# Shear Modulus (GPa) = 20.10658 2.33307 11.21982
#
# Velocity S-wave (km/s) = 3.31921 1.13065 2.47947
# Velocity P-wave (km/s) = 5.73620 7.39480 6.61767
#
# Compressibility (1/GPa) = 0.03008255
#
# Stress axis : x y z
#
# Youngs Moduli (GPa) = 76.81966 61.75186 15.05779
#
# Poissons Ratio (x) = 0.31777 0.23579
# Poissons Ratio (y) = 0.39530 0.18016
# Poissons Ratio (z) = 1.20292 0.73885
#
# Static dielectric constant tensor:
#      x y z
#    x 1.633460 0.000000 0.000000 
#    y 0.000000 1.594410 0.000000 
#    z 0.000000 0.000000 1.605200 
# 
# From -- ./inp_files/11986.got.cif
#   From: 2010.05.17/outbox.ucp.g08.bks.cvg/sg63_6_cif.got.tgz:11986.got - 2010.06.11 16:32:19.
