data_PCOD9476851
_publ_section_title
;
Structure prediction by ZEFSAII (Michael W. Deem and Ramdas Pophale) SiO2 
 PCOD9476851
Probable space group: C M C A
;
_chemical_formula_sum "Si O2"
_cell_formula_units_Z 80
_cell_length_a 13.799998
_cell_length_b 18.304214
_cell_length_c 17.516487
_cell_angle_alpha 90.000000
_cell_angle_beta 90.000000
_cell_angle_gamma 90.000000
_cell_volume 4424.631626
_symmetry_space_group_name_H-M "C M C A"
_symmetry_group_IT_number 64
_symmetry_cell_setting 'orthorhombic'
loop_
_space_group_symop_operation_xyz
x,y,z
-x,1/2-y,1/2+z
x,-y,-z
-x,1/2+y,1/2-z
-x,-y,-z
x,1/2+y,1/2-z
-x,y,z
x,1/2-y,1/2+z
1/2+x,1/2+y,z
1/2-x,-y,1/2+z
1/2+x,1/2-y,-z
1/2-x,y,1/2-z
1/2-x,1/2-y,-z
1/2+x,y,1/2-z
1/2-x,1/2+y,z
1/2+x,-y,1/2+z
loop_
_atom_site_type_symbol
_atom_site_label
_atom_site_fract_x
_atom_site_fract_y
_atom_site_fract_z
Si Si1 0.609676 0.328596 0.885752
Si Si2 0.111863 0.211035 0.475572
Si Si3 0.389817 0.194582 0.793341
Si Si4 0.810171 0.331307 0.368339
Si Si5 0.761514 0.415302 0.508526
O O1 0.500000 0.356938 0.883664
O O2 0.626589 0.281670 0.808724
O O3 0.613815 0.265257 0.951416
O O4 0.681341 0.391039 0.914961
O O5 0.170764 0.254235 0.410459
O O6 0.166881 0.136209 0.492550
O O7 0.000000 0.200894 0.454050
O O8 0.500000 0.178804 0.819461
O O9 0.299528 0.159551 0.837903
O O10 0.377225 0.170551 0.705968
O O11 0.825397 0.390056 0.435092
O O12 0.740633 0.500000 0.500000
#
# Coordination Sequence:
#
# PCOD9476851 Si02
#       5
#    16  16  16  16  16
#     4   9  17  33  56  78 101 134 180 229 271 312
#     4  10  18  33  54  78 105 138 187 231 261 309
#     4  10  18  31  58  82 102 132 179 235 275 312
#     4  10  19  34  55  82 106 137 187 230 270 316
#     4  11  21  34  52  81 115 147 178 218 274 332
#
# _framework density 18.080601000000001
#
# number of rings (size 3 to 8) (size 9 to 14) (size 15 to 20)
#    0.000    2.000    4.000    1.800    0.000    1.600 
#    0.000    0.000    8.800    0.000    0.000    0.000 
#    0.000    0.000    0.000    0.000    0.000    0.000 
#
# Total GULP energy -222710.445663 kJ/mol
# GULP energy per Si atom -5567.761142 kJ/mol
# Density = 1.803945 g / cm^3
# Si number density = 18.080601 Si / 1000 Ang^3
#
#
#
# Elastic Constant Matrix: (Units=GPa)
#
#
# Indices 1 2 3 4 5 6 
#
# 1 83.8274 8.5392 2.9833 0.0000 0.0000 0.0000
# 2 8.5392 88.2056 1.3854 0.0000 0.0000 0.0000
# 3 2.9833 1.3854 54.4224 0.0000 0.0000 0.0000
# 4 0.0000 0.0000 0.0000 14.2058 0.0000 0.0000
# 5 0.0000 0.0000 0.0000 0.0000 18.5791 0.0000
# 6 0.0000 0.0000 0.0000 0.0000 0.0000 9.5743
#
#
#
# Elastic Compliance Matrix: (Units=1/GPa)
#
#
# Indices 1 2 3 4 5 6 
#
# 1 0.012070 -0.001159 -0.000632 0.000000 0.000000 0.000000
# 2 -0.001159 0.011453 -0.000228 0.000000 0.000000 0.000000
# 3 -0.000632 -0.000228 0.018415 0.000000 0.000000 0.000000
# 4 0.000000 0.000000 0.000000 0.070394 0.000000 0.000000
# 5 0.000000 0.000000 0.000000 0.000000 0.053824 0.000000
# 6 0.000000 0.000000 0.000000 0.000000 0.000000 0.104446
#
#
# Mechanical properties :
#
#
# Convention : Reuss Voigt Hill
#
# Bulk Modulus (GPa) = 26.38491 28.03013 27.20752
# Shear Modulus (GPa) = 17.40508 22.70835 20.05671
#
# Velocity S-wave (km/s) = 3.10601 3.54778 3.33422
# Velocity P-wave (km/s) = 5.24287 5.68497 5.46839
#
# Compressibility (1/GPa) = 0.03790045
#
# Stress axis : x y z
#
# Youngs Moduli (GPa) = 82.85153 87.31424 54.30288
#
# Poissons Ratio (x) = 0.10116 0.03433
# Poissons Ratio (y) = 0.09599 0.01238
# Poissons Ratio (z) = 0.05237 0.01991
#
# Static dielectric constant tensor:
#      x y z
#    x 1.660220 0.000000 0.000000 
#    y 0.000000 1.590710 0.000000 
#    z 0.000000 0.000000 1.694400 
# 
# From -- ./inp_files/32032.got.cif
#   From: 2010.05.17/outbox.cif.g08.bks.cpg/sg64_17_cif.got.tgz:32032.got - 2010.06.03 16:29:19.
