data_PCOD9476473
_publ_section_title
;
Structure prediction by ZEFSAII (Michael W. Deem and Ramdas Pophale) SiO2 
 PCOD9476473
Probable space group: C M C A
;
_chemical_formula_sum "Si O2"
_cell_formula_units_Z 104
_cell_length_a 13.840432
_cell_length_b 19.352247
_cell_length_c 14.558853
_cell_angle_alpha 90.000000
_cell_angle_beta 90.000000
_cell_angle_gamma 90.000000
_cell_volume 3899.493542
_symmetry_space_group_name_H-M "C M C A"
_symmetry_group_IT_number 64
_symmetry_cell_setting 'orthorhombic'
loop_
_space_group_symop_operation_xyz
x,y,z
-x,1/2-y,1/2+z
x,-y,-z
-x,1/2+y,1/2-z
-x,-y,-z
x,1/2+y,1/2-z
-x,y,z
x,1/2-y,1/2+z
1/2+x,1/2+y,z
1/2-x,-y,1/2+z
1/2+x,1/2-y,-z
1/2-x,y,1/2-z
1/2-x,1/2-y,-z
1/2+x,y,1/2-z
1/2-x,1/2+y,z
1/2+x,-y,1/2+z
loop_
_atom_site_type_symbol
_atom_site_label
_atom_site_fract_x
_atom_site_fract_y
_atom_site_fract_z
Si Si1 0.608700 0.117390 0.631605
Si Si2 0.112109 0.357036 0.068374
Si Si3 0.607208 0.260425 0.584318
Si Si4 0.343806 0.000000 0.500000
Si Si5 0.643901 0.265200 0.787842
Si Si6 0.882326 0.028476 0.694274
Si Si7 0.383005 0.082129 0.336288
O O1 0.500000 0.139138 0.658192
O O2 0.657949 0.185849 0.592408
O O3 0.646287 0.079389 0.721583
O O4 0.603000 0.061558 0.552749
O O5 0.112915 0.299685 0.150269
O O6 0.155598 0.429997 0.104430
O O7 0.000000 0.373257 0.045765
O O8 0.153470 0.318772 0.978890
O O9 0.500000 0.248438 0.542327
O O10 0.595194 0.280756 0.689919
O O11 0.313466 0.043517 0.409434
O O12 0.750000 0.251542 0.750000
O O13 0.634420 0.336584 0.841730
O O14 0.000000 0.029919 0.686509
O O15 0.862105 0.952846 0.736386
O O16 0.500000 0.069421 0.352815
#
# Coordination Sequence:
#
# PCOD9476473 Si02
#       7
#    16  16  16   8  16  16  16
#     4   9  14  24  46  80 116 135 164 230 296 344
#     4  10  19  36  62  88 113 146 197 253 295 343
#     4  10  20  35  61  90 114 147 197 251 299 349
#     4  10  17  28  56  96 114 132 183 248 315 348
#     4  12  25  39  56  82 127 167 197 236 294 371
#     4   8  15  29  53  82 109 137 177 239 301 342
#     4  10  19  34  59  86 115 147 192 253 303 349
#
# _framework density 26.670131000000001
#
# number of rings (size 3 to 8) (size 9 to 14) (size 15 to 20)
#    0.000    2.154    1.538    4.615    0.000    1.846 
#    0.000    1.538    3.385    3.692    0.000    0.000 
#    0.000    0.000    0.000    0.000    0.000    0.000 
#
# Total GULP energy -289955.435964 kJ/mol
# GULP energy per Si atom -5576.066076 kJ/mol
# Density = 2.660943 g / cm^3
# Si number density = 26.670131 Si / 1000 Ang^3
#
#
#
# Elastic Constant Matrix: (Units=GPa)
#
#
# Indices 1 2 3 4 5 6 
#
# 1 80.9233 -16.0138 -2.0391 0.0000 0.0000 0.0000
# 2 -16.0138 100.9302 6.2652 0.0000 0.0000 0.0000
# 3 -2.0391 6.2652 74.7032 0.0000 0.0000 0.0000
# 4 0.0000 0.0000 0.0000 47.9430 0.0000 0.0000
# 5 0.0000 0.0000 0.0000 0.0000 -3.1133 0.0000
# 6 0.0000 0.0000 0.0000 0.0000 0.0000 7.3607
#
#
#
# Elastic Compliance Matrix: (Units=1/GPa)
#
#
# Indices 1 2 3 4 5 6 
#
# 1 0.012760 0.002013 0.000179 0.000000 0.000000 0.000000
# 2 0.002013 0.010277 -0.000807 0.000000 0.000000 0.000000
# 3 0.000179 -0.000807 0.013459 0.000000 0.000000 0.000000
# 4 0.000000 0.000000 0.000000 0.020858 0.000000 0.000000
# 5 0.000000 0.000000 0.000000 0.000000 -0.321202 0.000000
# 6 0.000000 0.000000 0.000000 0.000000 0.000000 0.135856
#
#
# Mechanical properties :
#
#
# Convention : Reuss Voigt Hill
#
# Bulk Modulus (GPa) = 25.46577 25.88683 25.67630
# Shear Modulus (GPa) = -42.49025 28.32771 -7.08127
#
# Velocity S-wave (km/s) = -3.99579 3.26260 -1.63123
# Velocity P-wave (km/s) = 3.42335 4.89082 2.46990
#
# Compressibility (1/GPa) = 0.03926839
#
# Stress axis : x y z
#
# Youngs Moduli (GPa) = 78.36788 97.30095 74.30037
#
# Poissons Ratio (x) = -0.19591 -0.01333
# Poissons Ratio (y) = -0.15779 0.05996
# Poissons Ratio (z) = -0.01406 0.07852
#
# Static dielectric constant tensor:
#      x y z
#    x 2.315430 0.000000 0.000000 
#    y 0.000000 2.068320 0.000000 
#    z 0.000000 0.000000 2.120550 
# 
# From -- ./inp_files/25640.got.cif
#   From: 2010.05.17/outbox.cif.g08.bks.cpg/sg64_13_cif.got.tgz:25640.got - 2010.06.03 16:29:19.
