data_PCOD9476361
_publ_section_title
;
Structure prediction by ZEFSAII (Michael W. Deem and Ramdas Pophale) SiO2 
 PCOD9476361
Probable space group: C M C A
;
_chemical_formula_sum "Si O2"
_cell_formula_units_Z 64
_cell_length_a 17.980416
_cell_length_b 13.719159
_cell_length_c 11.896202
_cell_angle_alpha 90.000000
_cell_angle_beta 90.000000
_cell_angle_gamma 90.000000
_cell_volume 2934.509737
_symmetry_space_group_name_H-M "C M C A"
_symmetry_group_IT_number 64
_symmetry_cell_setting 'orthorhombic'
loop_
_space_group_symop_operation_xyz
x,y,z
-x,1/2-y,1/2+z
x,-y,-z
-x,1/2+y,1/2-z
-x,-y,-z
x,1/2+y,1/2-z
-x,y,z
x,1/2-y,1/2+z
1/2+x,1/2+y,z
1/2-x,-y,1/2+z
1/2+x,1/2-y,-z
1/2-x,y,1/2-z
1/2-x,1/2-y,-z
1/2+x,y,1/2-z
1/2-x,1/2+y,z
1/2+x,-y,1/2+z
loop_
_atom_site_type_symbol
_atom_site_label
_atom_site_fract_x
_atom_site_fract_y
_atom_site_fract_z
Si Si1 0.692679 0.008424 0.120311
Si Si2 0.083971 0.651185 0.444302
Si Si3 0.764803 0.279093 0.629802
Si Si4 0.639554 0.446870 0.148806
O O1 0.717184 0.120092 0.142793
O O2 0.644833 0.959576 0.217968
O O3 0.773549 0.955927 0.112530
O O4 0.655413 0.000000 0.000000
O O5 0.146258 0.709182 0.377137
O O6 0.095665 0.542225 0.394723
O O7 0.105641 0.641454 0.577082
O O8 0.000000 0.683945 0.431338
O O9 0.750000 0.226570 0.750000
O O10 0.750000 0.250000 0.500000
#
# Coordination Sequence:
#
# PCOD9476361 Si02
#       4
#    16  16  16  16
#     4  10  16  30  54  82 112 140 192 237 281 329
#     4  10  18  33  57  83 109 144 185 235 289 343
#     4  11  22  37  55  82 112 152 197 236 280 342
#     4   9  15  27  53  85 108 135 180 233 279 337
#
# _framework density 21.809434
#
# number of rings (size 3 to 8) (size 9 to 14) (size 15 to 20)
#    0.000    2.000   10.000    1.500    0.000    2.000 
#    0.000    1.250    0.000    3.000    0.000    0.000 
#    0.000    0.000    0.000    0.000    0.000    0.000 
#
# Total GULP energy -178224.587741 kJ/mol
# GULP energy per Si atom -5569.518367 kJ/mol
# Density = 2.175980 g / cm^3
# Si number density = 21.809434 Si / 1000 Ang^3
#
#
#
# Elastic Constant Matrix: (Units=GPa)
#
#
# Indices 1 2 3 4 5 6 
#
# 1 106.9865 6.2069 52.7538 0.0000 0.0000 0.0000
# 2 6.2069 43.7868 28.0859 0.0000 0.0000 0.0000
# 3 52.7538 28.0859 233.5801 0.0000 0.0000 0.0000
# 4 0.0000 0.0000 0.0000 25.3733 0.0000 0.0000
# 5 0.0000 0.0000 0.0000 0.0000 16.8968 0.0000
# 6 0.0000 0.0000 0.0000 0.0000 0.0000 0.6439
#
#
#
# Elastic Compliance Matrix: (Units=1/GPa)
#
#
# Indices 1 2 3 4 5 6 
#
# 1 0.010518 0.000035 -0.002380 0.000000 0.000000 0.000000
# 2 0.000035 0.024747 -0.002984 0.000000 0.000000 0.000000
# 3 -0.002380 -0.002984 0.005177 0.000000 0.000000 0.000000
# 4 0.000000 0.000000 0.000000 0.039411 0.000000 0.000000
# 5 0.000000 0.000000 0.000000 0.000000 0.059183 0.000000
# 6 0.000000 0.000000 0.000000 0.000000 0.000000 1.553061
#
#
# Mechanical properties :
#
#
# Convention : Reuss Voigt Hill
#
# Bulk Modulus (GPa) = 33.57218 62.04961 47.81090
# Shear Modulus (GPa) = 2.91940 28.40327 15.66133
#
# Velocity S-wave (km/s) = 1.15823 3.61271 2.68264
# Velocity P-wave (km/s) = 4.14916 6.77605 5.61829
#
# Compressibility (1/GPa) = 0.02978656
#
# Stress axis : x y z
#
# Youngs Moduli (GPa) = 95.07168 40.40957 193.14667
#
# Poissons Ratio (x) = -0.00143 0.45966
# Poissons Ratio (y) = -0.00337 0.57627
# Poissons Ratio (z) = 0.22625 0.12056
#
# Static dielectric constant tensor:
#      x y z
#    x 1.770330 0.000000 0.000000 
#    y 0.000000 1.956530 0.000000 
#    z 0.000000 0.000000 1.924240 
# 
# From -- ./inp_files/15649.got.cif
#   From: 2010.05.17/outbox.cif.g08.bks.cpg/sg64_8_cif.got.tgz:15649.got - 2010.06.03 16:29:19.
