data_PCOD9476777
_publ_section_title
;
Structure prediction by ZEFSAII (Michael W. Deem and Ramdas Pophale) SiO2 
 PCOD9476777
Probable space group: C M C A
;
_chemical_formula_sum "Si O2"
_cell_formula_units_Z 80
_cell_length_a 27.268816
_cell_length_b 16.201683
_cell_length_c 7.635022
_cell_angle_alpha 90.000000
_cell_angle_beta 90.000000
_cell_angle_gamma 90.000000
_cell_volume 3373.158160
_symmetry_space_group_name_H-M "C M C A"
_symmetry_group_IT_number 64
_symmetry_cell_setting 'orthorhombic'
loop_
_space_group_symop_operation_xyz
x,y,z
-x,1/2-y,1/2+z
x,-y,-z
-x,1/2+y,1/2-z
-x,-y,-z
x,1/2+y,1/2-z
-x,y,z
x,1/2-y,1/2+z
1/2+x,1/2+y,z
1/2-x,-y,1/2+z
1/2+x,1/2-y,-z
1/2-x,y,1/2-z
1/2-x,1/2-y,-z
1/2+x,y,1/2-z
1/2-x,1/2+y,z
1/2+x,-y,1/2+z
loop_
_atom_site_type_symbol
_atom_site_label
_atom_site_fract_x
_atom_site_fract_y
_atom_site_fract_z
Si Si1 0.696405 0.550148 0.824063
Si Si2 0.597093 0.666339 0.607001
Si Si3 0.104406 0.443306 0.777562
Si Si4 0.000000 0.255151 0.963550
Si Si5 0.639775 0.180851 0.524176
Si Si6 0.000000 0.399561 0.661503
O O1 0.750000 0.538376 0.750000
O O2 0.647960 0.512129 0.728473
O O3 0.687671 0.643963 0.884008
O O4 0.695353 0.500000 0.000000
O O5 0.595764 0.590392 0.473309
O O6 0.548538 0.717646 0.566414
O O7 0.640443 0.724977 0.533038
O O8 0.601913 0.663945 0.815819
O O9 0.125146 0.371440 0.647377
O O10 0.049230 0.453694 0.697445
O O11 0.000000 0.322697 0.803217
O O12 0.000000 0.154306 0.980580
#
# Coordination Sequence:
#
# PCOD9476777 Si02
#       6
#    16  16  16   8  16   8
#     4  10  25  46  66  89 118 166 215 256 316 371
#     4  11  20  35  62  90 130 161 202 253 302 362
#     4  10  22  39  60  94 129 159 208 250 300 379
#     4  10  18  30  54  91 123 169 198 227 307 379
#     4  11  21  38  62  91 121 162 202 256 308 364
#     4  10  18  32  59  92 127 166 192 250 308 359
#
# _framework density 23.716646000000001
#
# number of rings (size 3 to 8) (size 9 to 14) (size 15 to 20)
#    0.000    1.600    4.000    1.200    2.800    0.000 
#    0.000    8.500    0.000    3.600    0.000    0.000 
#    0.000    0.000    0.000    0.000    0.000    0.000 
#
# Total GULP energy -222814.677164 kJ/mol
# GULP energy per Si atom -5570.366929 kJ/mol
# Density = 2.366267 g / cm^3
# Si number density = 23.716646 Si / 1000 Ang^3
#
#
#
# Elastic Constant Matrix: (Units=GPa)
#
#
# Indices 1 2 3 4 5 6 
#
# 1 121.0342 18.9107 14.7399 0.0000 0.0000 0.0000
# 2 18.9107 47.8242 -8.5542 0.0000 0.0000 0.0000
# 3 14.7399 -8.5542 99.7165 0.0000 0.0000 0.0000
# 4 0.0000 0.0000 0.0000 6.1346 0.0000 0.0000
# 5 0.0000 0.0000 0.0000 0.0000 -70.4537 0.0000
# 6 0.0000 0.0000 0.0000 0.0000 0.0000 17.6341
#
#
#
# Elastic Compliance Matrix: (Units=1/GPa)
#
#
# Indices 1 2 3 4 5 6 
#
# 1 0.009073 -0.003887 -0.001675 0.000000 0.000000 0.000000
# 2 -0.003887 0.022901 0.002539 0.000000 0.000000 0.000000
# 3 -0.001675 0.002539 0.010494 0.000000 0.000000 0.000000
# 4 0.000000 0.000000 0.000000 0.163009 0.000000 0.000000
# 5 0.000000 0.000000 0.000000 0.000000 -0.014194 0.000000
# 6 0.000000 0.000000 0.000000 0.000000 0.000000 0.056708
#
#
# Mechanical properties :
#
#
# Convention : Reuss Voigt Hill
#
# Bulk Modulus (GPa) = 27.45536 35.41864 31.43700
# Shear Modulus (GPa) = 18.78436 6.89490 12.83963
#
# Velocity S-wave (km/s) = 2.81736 1.70690 2.32927
# Velocity P-wave (km/s) = 4.71009 4.34179 4.52968
#
# Compressibility (1/GPa) = 0.03642276
#
# Stress axis : x y z
#
# Youngs Moduli (GPa) = 110.21157 43.66576 95.29430
#
# Poissons Ratio (x) = 0.16975 0.15959
# Poissons Ratio (y) = 0.42844 -0.24197
# Poissons Ratio (z) = 0.18457 -0.11088
#
# Static dielectric constant tensor:
#      x y z
#    x 2.391750 0.000000 0.000000 
#    y 0.000000 2.014120 0.000000 
#    z 0.000000 0.000000 1.927530 
# 
# From -- ./inp_files/10246.got.cif
#   From: 2010.05.17/outbox.cif.g08.bks.cpg/sg64_6_cif.got.tgz:10246.got - 2010.06.03 16:29:19.
