data_PCOD9476562
_publ_section_title
;
Structure prediction by ZEFSAII (Michael W. Deem and Ramdas Pophale) SiO2 
 PCOD9476562
Probable space group: C M C A
;
_chemical_formula_sum "Si O2"
_cell_formula_units_Z 96
_cell_length_a 21.587903
_cell_length_b 18.891921
_cell_length_c 8.957419
_cell_angle_alpha 90.000000
_cell_angle_beta 90.000000
_cell_angle_gamma 90.000000
_cell_volume 3653.166517
_symmetry_space_group_name_H-M "C M C A"
_symmetry_group_IT_number 64
_symmetry_cell_setting 'orthorhombic'
loop_
_space_group_symop_operation_xyz
x,y,z
-x,1/2-y,1/2+z
x,-y,-z
-x,1/2+y,1/2-z
-x,-y,-z
x,1/2+y,1/2-z
-x,y,z
x,1/2-y,1/2+z
1/2+x,1/2+y,z
1/2-x,-y,1/2+z
1/2+x,1/2-y,-z
1/2-x,y,1/2-z
1/2-x,1/2-y,-z
1/2+x,y,1/2-z
1/2-x,1/2+y,z
1/2+x,-y,1/2+z
loop_
_atom_site_type_symbol
_atom_site_label
_atom_site_fract_x
_atom_site_fract_y
_atom_site_fract_z
Si Si1 0.798994 0.563383 0.111381
Si Si2 0.716638 0.338960 0.040506
Si Si3 0.932301 0.525399 0.246072
Si Si4 0.908113 0.897446 0.049480
Si Si5 0.070005 0.772368 0.568035
Si Si6 0.153291 0.763209 0.311133
O O1 0.750000 0.565964 0.250000
O O2 0.782647 0.631694 0.008546
O O3 0.870152 0.550016 0.160666
O O4 0.783714 0.500000 0.000000
O O5 0.564937 0.430005 0.899561
O O6 0.697978 0.280295 0.918561
O O7 0.665838 0.400920 0.023219
O O8 0.924416 0.444903 0.307827
O O9 0.000000 0.532532 0.170956
O O10 0.926645 0.814620 0.063358
O O11 0.806926 0.810310 0.199725
O O12 0.100511 0.797386 0.414475
O O13 0.114386 0.789981 0.705661
O O14 0.000000 0.205227 0.411558
#
# Coordination Sequence:
#
# PCOD9476562 Si02
#       6
#    16  16  16  16  16  16
#     4  12  26  47  76 106 141 188 239 303 362 436
#     4  10  20  43  70 102 142 189 251 292 356 416
#     4  11  21  38  70 110 143 181 231 288 364 434
#     4   9  18  36  69 105 144 186 229 282 349 444
#     4  10  17  32  61 101 144 190 236 289 360 428
#     4   8  19  34  62  95 141 191 242 302 340 419
#
# _framework density 26.278573999999999
#
# number of rings (size 3 to 8) (size 9 to 14) (size 15 to 20)
#    0.000    2.333    1.667    3.500    0.000    0.333 
#    0.000   10.833    0.000    0.000    0.000    1.167 
#    0.000    0.000    0.000    0.000    0.000    0.000 
#
# Total GULP energy -268583.914087 kJ/mol
# GULP energy per Si atom -5595.498210 kJ/mol
# Density = 2.621876 g / cm^3
# Si number density = 26.278574 Si / 1000 Ang^3
#
#
#
# Elastic Constant Matrix: (Units=GPa)
#
#
# Indices 1 2 3 4 5 6 
#
# 1 243.4258 31.9179 77.8189 0.0000 0.0000 0.0000
# 2 31.9179 116.7349 35.9257 0.0000 0.0000 0.0000
# 3 77.8189 35.9257 152.5282 0.0000 0.0000 0.0000
# 4 0.0000 0.0000 0.0000 46.1096 0.0000 0.0000
# 5 0.0000 0.0000 0.0000 0.0000 21.7486 0.0000
# 6 0.0000 0.0000 0.0000 0.0000 0.0000 16.2582
#
#
#
# Elastic Compliance Matrix: (Units=1/GPa)
#
#
# Indices 1 2 3 4 5 6 
#
# 1 0.004950 -0.000621 -0.002379 0.000000 0.000000 0.000000
# 2 -0.000621 0.009314 -0.001877 0.000000 0.000000 0.000000
# 3 -0.002379 -0.001877 0.008212 0.000000 0.000000 0.000000
# 4 0.000000 0.000000 0.000000 0.021687 0.000000 0.000000
# 5 0.000000 0.000000 0.000000 0.000000 0.045980 0.000000
# 6 0.000000 0.000000 0.000000 0.000000 0.000000 0.061507
#
#
# Mechanical properties :
#
#
# Convention : Reuss Voigt Hill
#
# Bulk Modulus (GPa) = 78.60658 89.33487 83.97073
# Shear Modulus (GPa) = 30.18492 41.29171 35.73832
#
# Velocity S-wave (km/s) = 3.39285 3.96827 3.69179
# Velocity P-wave (km/s) = 6.73248 7.42060 7.08490
#
# Compressibility (1/GPa) = 0.01272158
#
# Stress axis : x y z
#
# Youngs Moduli (GPa) = 202.01758 107.36673 121.77235
#
# Poissons Ratio (x) = 0.06670 0.28972
# Poissons Ratio (y) = 0.12550 0.22854
# Poissons Ratio (z) = 0.48063 0.20150
#
# Static dielectric constant tensor:
#      x y z
#    x 2.155410 0.000000 0.000000 
#    y 0.000000 2.115580 0.000000 
#    z 0.000000 0.000000 2.074320 
# 
# From -- ./inp_files/17478.got.cif
#   From: 2010.05.17/outbox.cif.g08.bks.cpg/sg64_9_cif.got.tgz:17478.got - 2010.06.03 16:29:19.
