data_PCOD9476120
_publ_section_title
;
Structure prediction by ZEFSAII (Michael W. Deem and Ramdas Pophale) SiO2 
 PCOD9476120
Probable space group: C M C M
;
_chemical_formula_sum "Si O2"
_cell_formula_units_Z 40
_cell_length_a 9.000000
_cell_length_b 18.000000
_cell_length_c 27.000000
_cell_angle_alpha 90.000000
_cell_angle_beta 90.000000
_cell_angle_gamma 90.000000
_cell_volume 4374.000000
_symmetry_space_group_name_H-M "C M C M"
_symmetry_group_IT_number 63
_symmetry_cell_setting 'orthorhombic'
loop_
_space_group_symop_operation_xyz
x,y,z
-x,-y,1/2+z
x,-y,-z
-x,y,1/2-z
-x,-y,-z
x,y,1/2-z
-x,y,z
x,-y,1/2+z
1/2+x,1/2+y,z
1/2-x,1/2-y,1/2+z
1/2+x,1/2-y,-z
1/2-x,1/2+y,1/2-z
1/2-x,1/2-y,-z
1/2+x,1/2+y,1/2-z
1/2-x,1/2+y,z
1/2+x,1/2-y,1/2+z
loop_
_atom_site_type_symbol
_atom_site_label
_atom_site_fract_x
_atom_site_fract_y
_atom_site_fract_z
Si Si1 0.171344 0.285367 0.750000
Si Si2 0.173581 0.533688 0.250000
Si Si3 0.321200 0.459912 0.853865
Si Si4 0.323997 0.215103 0.951232
Si Si5 0.175621 0.462367 0.052304
Si Si6 0.318924 0.204384 0.142089
O O1 0.175022 0.375685 0.750000
O O2 0.231593 0.263882 0.696024
O O3 0.000000 0.261279 0.750000
O O4 0.255454 0.511573 0.198951
O O5 0.000000 0.511155 0.250000
O O6 0.500000 0.455973 0.851333
O O7 0.267422 0.507970 0.900777
O O8 0.250045 0.378058 0.861716
O O9 0.500000 0.233059 0.949568
O O10 0.309104 0.126121 0.952509
O O11 0.241928 0.247619 0.903092
O O12 0.250000 0.250000 0.000000
O O13 0.000000 0.479900 0.060310
O O14 0.219765 0.500000 0.000000
O O15 0.500000 0.199762 0.141518
#
# Coordination Sequence:
#
# PCOD9476120 Si02
#       6
#     8   8  16  16  16  16
#     4   7  14  29  52  79 104 141 185 219 259 317
#     4   9  17  33  56  81 114 153 189 225 275 335
#     4  11  21  34  57  88 117 146 189 238 278 324
#     4  11  23  38  58  84 112 144 186 235 285 339
#     4  10  22  40  59  79 108 149 191 231 283 342
#     4  10  19  35  58  82 113 151 188 227 276 332
#
# _framework density 9.1449470000000002
#
# number of rings (size 3 to 8) (size 9 to 14) (size 15 to 20)
#    0.000    2.000    0.000    5.700    0.000    3.600 
#    0.000    2.500    0.000    4.800    0.000    0.000 
#    0.000    0.000    0.000    0.000    0.000    0.000 
#
# Total GULP energy -223249.746727 kJ/mol
# GULP energy per Si atom -5581.243668 kJ/mol
# Density = 0.912413 g / cm^3
# Si number density = 9.144947 Si / 1000 Ang^3
#
#
#
# Elastic Constant Matrix: (Units=GPa)
#
#
# Indices 1 2 3 4 5 6 
#
# 1 138.7540 42.2767 84.4818 0.0000 0.0000 0.0000
# 2 42.2767 50.7129 57.4980 0.0000 0.0000 0.0000
# 3 84.4818 57.4980 209.8821 0.0000 0.0000 0.0000
# 4 0.0000 0.0000 0.0000 32.8382 0.0000 0.0000
# 5 0.0000 0.0000 0.0000 0.0000 35.0845 0.0000
# 6 0.0000 0.0000 0.0000 0.0000 0.0000 26.1469
#
#
#
# Elastic Compliance Matrix: (Units=1/GPa)
#
#
# Indices 1 2 3 4 5 6 
#
# 1 0.010607 -0.005805 -0.002679 0.000000 0.000000 0.000000
# 2 -0.005805 0.031780 -0.006370 0.000000 0.000000 0.000000
# 3 -0.002679 -0.006370 0.007588 0.000000 0.000000 0.000000
# 4 0.000000 0.000000 0.000000 0.030452 0.000000 0.000000
# 5 0.000000 0.000000 0.000000 0.000000 0.028503 0.000000
# 6 0.000000 0.000000 0.000000 0.000000 0.000000 0.038245
#
#
# Mechanical properties :
#
#
# Convention : Reuss Voigt Hill
#
# Bulk Modulus (GPa) = 49.34017 85.31799 67.32908
# Shear Modulus (GPa) = 27.22742 33.15342 30.19042
#
# Velocity S-wave (km/s) = 3.86250 4.26216 4.06724
# Velocity P-wave (km/s) = 6.85034 8.42438 7.67780
#
# Compressibility (1/GPa) = 0.02026746
#
# Stress axis : x y z
#
# Youngs Moduli (GPa) = 94.27793 31.46651 131.78622
#
# Poissons Ratio (x) = 0.18265 0.35309
# Poissons Ratio (y) = 0.54725 0.83944
# Poissons Ratio (z) = 0.25260 0.20043
#
# Static dielectric constant tensor:
#      x y z
#    x 1.618350 0.000000 0.000000 
#    y 0.000000 1.613930 0.000000 
#    z 0.000000 0.000000 1.612420 
# 
# From -- ./inp_files/66651.got.cif
#   From: 2010.05.17/outbox.ucp.g08.bks.cvg/sg63_34_cif.got.tgz:66651.got - 2010.06.11 16:32:19.
