data_PCOD9476343
_publ_section_title
;
Structure prediction by ZEFSAII (Michael W. Deem and Ramdas Pophale) SiO2 
 PCOD9476343
Probable space group: C M C A
;
_chemical_formula_sum "Si O2"
_cell_formula_units_Z 64
_cell_length_a 5.481449
_cell_length_b 36.057301
_cell_length_c 13.780451
_cell_angle_alpha 90.000000
_cell_angle_beta 90.000000
_cell_angle_gamma 90.000000
_cell_volume 2723.654553
_symmetry_space_group_name_H-M "C M C A"
_symmetry_group_IT_number 64
_symmetry_cell_setting 'orthorhombic'
loop_
_space_group_symop_operation_xyz
x,y,z
-x,1/2-y,1/2+z
x,-y,-z
-x,1/2+y,1/2-z
-x,-y,-z
x,1/2+y,1/2-z
-x,y,z
x,1/2-y,1/2+z
1/2+x,1/2+y,z
1/2-x,-y,1/2+z
1/2+x,1/2-y,-z
1/2-x,y,1/2-z
1/2-x,1/2-y,-z
1/2+x,y,1/2-z
1/2-x,1/2+y,z
1/2+x,-y,1/2+z
loop_
_atom_site_type_symbol
_atom_site_label
_atom_site_fract_x
_atom_site_fract_y
_atom_site_fract_z
Si Si1 0.500000 0.682699 0.127653
Si Si2 0.500000 0.430733 0.628217
Si Si3 0.000000 0.489768 0.186391
Si Si4 0.500000 0.593125 0.686166
Si Si5 0.500000 0.829069 0.104005
Si Si6 0.500000 0.098627 0.349132
Si Si7 0.500000 0.784293 0.902518
Si Si8 0.000000 0.197149 0.905526
O O1 0.500000 0.642194 0.173680
O O2 0.747094 0.704965 0.147735
O O3 0.500000 0.676814 0.010360
O O4 0.500000 0.474831 0.616441
O O5 0.500000 0.422734 0.745782
O O6 0.247146 0.412393 0.595650
O O7 0.250000 0.492634 0.250000
O O8 0.000000 0.448417 0.142901
O O9 0.250000 0.596262 0.750000
O O10 0.500000 0.626820 0.611006
O O11 0.753376 0.814466 0.146342
O O12 0.500000 0.809456 0.998859
O O13 0.500000 0.740946 0.926135
#
# Coordination Sequence:
#
# PCOD9476343 Si02
#       8
#     8   8   8   8   8   8   8   8
#     4  10  18  29  46  78 101 117 160 215 246 288
#     4  10  17  30  45  69  97 131 164 192 236 294
#     4  10  16  30  48  69  99 122 166 208 223 280
#     4  10  21  32  50  79 105 129 162 199 246 296
#     4  10  18  32  51  77 102 125 157 215 248 284
#     4  10  18  27  46  71  98 128 155 204 248 278
#     4  10  19  33  53  79  91 125 172 212 245 280
#     4  10  19  33  55  78  91 126 173 210 247 280
#
# _framework density 23.497841000000001
#
# number of rings (size 3 to 8) (size 9 to 14) (size 15 to 20)
#    0.000    2.000    2.500    5.250    0.000    0.000 
#    0.000    0.000    0.000    0.000  110.500   21.000 
#    0.000    0.000    0.000    0.000    0.000    0.000 
#
# Total GULP energy -178728.509701 kJ/mol
# GULP energy per Si atom -5585.265928 kJ/mol
# Density = 2.344436 g / cm^3
# Si number density = 23.497841 Si / 1000 Ang^3
#
#
#
# Elastic Constant Matrix: (Units=GPa)
#
#
# Indices 1 2 3 4 5 6 
#
# 1 265.0315 39.0116 2.4898 0.0000 0.0000 0.0000
# 2 39.0116 158.3001 -0.8023 0.0000 0.0000 0.0000
# 3 2.4898 -0.8023 70.7464 0.0000 0.0000 0.0000
# 4 0.0000 0.0000 0.0000 25.9044 0.0000 0.0000
# 5 0.0000 0.0000 0.0000 0.0000 -18.1798 0.0000
# 6 0.0000 0.0000 0.0000 0.0000 0.0000 43.0665
#
#
#
# Elastic Compliance Matrix: (Units=1/GPa)
#
#
# Indices 1 2 3 4 5 6 
#
# 1 0.003917 -0.000966 -0.000149 0.000000 0.000000 0.000000
# 2 -0.000966 0.006556 0.000108 0.000000 0.000000 0.000000
# 3 -0.000149 0.000108 0.014141 0.000000 0.000000 0.000000
# 4 0.000000 0.000000 0.000000 0.038603 0.000000 0.000000
# 5 0.000000 0.000000 0.000000 0.000000 -0.055006 0.000000
# 6 0.000000 0.000000 0.000000 0.000000 0.000000 0.023220
#
#
# Mechanical properties :
#
#
# Convention : Reuss Voigt Hill
#
# Bulk Modulus (GPa) = 44.24581 63.94182 54.09381
# Shear Modulus (GPa) = 122.01746 40.38348 81.20047
#
# Velocity S-wave (km/s) = 7.21386 4.15010 5.88486
# Velocity P-wave (km/s) = 9.39452 7.08769 8.32143
#
# Compressibility (1/GPa) = 0.02260101
#
# Stress axis : x y z
#
# Youngs Moduli (GPa) = 255.31537 152.53843 70.71403
#
# Poissons Ratio (x) = 0.14735 0.01052
# Poissons Ratio (y) = 0.24663 -0.00766
# Poissons Ratio (z) = 0.03799 -0.01653
#
# Static dielectric constant tensor:
#      x y z
#    x 1.940860 0.000000 0.000000 
#    y 0.000000 1.811610 0.000000 
#    z 0.000000 0.000000 1.910960 
# 
# From -- ./inp_files/28735.got.cif
#   From: 2010.05.17/outbox.cif.g08.bks.cpg/sg64_15_cif.got.tgz:28735.got - 2010.06.03 16:29:19.
