data_PCOD9476067
_publ_section_title
;
Structure prediction by ZEFSAII (Michael W. Deem and Ramdas Pophale) SiO2 
 PCOD9476067
Probable space group: C M C M
;
_chemical_formula_sum "Si O2"
_cell_formula_units_Z 48
_cell_length_a 9.000000
_cell_length_b 24.000000
_cell_length_c 24.000000
_cell_angle_alpha 90.000000
_cell_angle_beta 90.000000
_cell_angle_gamma 90.000000
_cell_volume 5184.000000
_symmetry_space_group_name_H-M "C M C M"
_symmetry_group_IT_number 63
_symmetry_cell_setting 'orthorhombic'
loop_
_space_group_symop_operation_xyz
x,y,z
-x,-y,1/2+z
x,-y,-z
-x,y,1/2-z
-x,-y,-z
x,y,1/2-z
-x,y,z
x,-y,1/2+z
1/2+x,1/2+y,z
1/2-x,1/2-y,1/2+z
1/2+x,1/2-y,-z
1/2-x,1/2+y,1/2-z
1/2-x,1/2-y,-z
1/2+x,1/2+y,1/2-z
1/2-x,1/2+y,z
1/2+x,1/2-y,1/2+z
loop_
_atom_site_type_symbol
_atom_site_label
_atom_site_fract_x
_atom_site_fract_y
_atom_site_fract_z
Si Si1 0.680318 0.653290 0.905612
Si Si2 0.822371 0.042000 0.122602
Si Si3 0.826677 0.842605 0.684446
Si Si4 0.179862 0.882995 0.976195
Si Si5 0.817944 0.068694 0.685615
Si Si6 0.323104 0.780766 0.588836
O O1 0.500000 0.655373 0.903983
O O2 0.728544 0.623471 0.848823
O O3 0.729148 0.716842 0.915580
O O4 0.721261 0.615850 0.959081
O O5 0.800137 0.094068 0.164278
O O6 0.768153 0.065951 0.063017
O O7 0.000000 0.033872 0.116187
O O8 0.766106 0.985501 0.150687
O O9 0.807699 0.837938 0.750000
O O10 0.719529 0.802567 0.650172
O O11 0.000000 0.830230 0.670361
O O12 0.242014 0.825194 0.951024
O O13 0.000000 0.881208 0.972543
O O14 0.770120 0.067554 0.750000
O O15 0.000000 0.067438 0.686241
O O16 0.500000 0.783052 0.579389
#
# Coordination Sequence:
#
# PCOD9476067 Si02
#       6
#    16  16  16  16  16  16
#     4   9  18  29  42  64  94 126 155 187 229 278
#     4   8  14  25  44  68  91 116 147 188 235 278
#     4   9  17  30  48  70  95 123 157 196 235 274
#     4   9  17  31  49  69  93 119 153 195 236 276
#     4   9  16  26  41  64  95 125 149 181 232 284
#     4  10  19  30  45  68  96 124 157 193 232 277
#
# _framework density 9.2592590000000001
#
# number of rings (size 3 to 8) (size 9 to 14) (size 15 to 20)
#    0.000    3.000    0.000    2.500    0.000    3.667 
#    0.000    5.833    0.000    0.000    0.000   18.667 
#    0.000   16.000    0.000    0.000    0.000    0.000 
#
# Total GULP energy -267363.775780 kJ/mol
# GULP energy per Si atom -5570.078662 kJ/mol
# Density = 0.923818 g / cm^3
# Si number density = 9.259259 Si / 1000 Ang^3
#
#
#
# Elastic Constant Matrix: (Units=GPa)
#
#
# Indices 1 2 3 4 5 6 
#
# 1 4.3366 -2.7534 4.5715 0.0000 0.0000 0.0000
# 2 -2.7534 47.1988 26.0713 0.0000 0.0000 0.0000
# 3 4.5715 26.0713 73.3995 0.0000 0.0000 0.0000
# 4 0.0000 0.0000 0.0000 15.2623 0.0000 0.0000
# 5 0.0000 0.0000 0.0000 0.0000 14.7206 0.0000
# 6 0.0000 0.0000 0.0000 0.0000 0.0000 14.9837
#
#
#
# Elastic Compliance Matrix: (Units=1/GPa)
#
#
# Indices 1 2 3 4 5 6 
#
# 1 0.281943 0.032530 -0.029115 0.000000 0.000000 0.000000
# 2 0.032530 0.030112 -0.012722 0.000000 0.000000 0.000000
# 3 -0.029115 -0.012722 0.019956 0.000000 0.000000 0.000000
# 4 0.000000 0.000000 0.000000 0.065521 0.000000 0.000000
# 5 0.000000 0.000000 0.000000 0.000000 0.067932 0.000000
# 6 0.000000 0.000000 0.000000 0.000000 0.000000 0.066739
#
#
# Mechanical properties :
#
#
# Convention : Reuss Voigt Hill
#
# Bulk Modulus (GPa) = 3.19084 20.07930 11.63507
# Shear Modulus (GPa) = 7.63030 15.46301 11.54665
#
# Velocity S-wave (km/s) = 2.03207 2.89278 2.49975
# Velocity P-wave (km/s) = 2.68934 4.69296 3.82469
#
# Compressibility (1/GPa) = 0.31339738
#
# Stress axis : x y z
#
# Youngs Moduli (GPa) = 3.54682 33.20966 50.10998
#
# Poissons Ratio (x) = -1.08029 1.45893
# Poissons Ratio (y) = -0.11538 0.63748
# Poissons Ratio (z) = 0.10326 0.42248
#
# Static dielectric constant tensor:
#      x y z
#    x 1.619620 0.000000 0.000000 
#    y 0.000000 1.644730 0.000000 
#    z 0.000000 0.000000 1.667760 
# 
# From -- ./inp_files/59866.got.cif
#   From: 2010.05.17/outbox.ucp.g08.bks.cvg/sg63_30_cif.got.tgz:59866.got - 2010.06.11 16:32:19.
