data_PCOD9476745
_publ_section_title
;
Structure prediction by ZEFSAII (Michael W. Deem and Ramdas Pophale) SiO2 
 PCOD9476745
Probable space group: C M C A
;
_chemical_formula_sum "Si O2"
_cell_formula_units_Z 96
_cell_length_a 28.028318
_cell_length_b 7.797737
_cell_length_c 21.305564
_cell_angle_alpha 90.000000
_cell_angle_beta 90.000000
_cell_angle_gamma 90.000000
_cell_volume 4656.489788
_symmetry_space_group_name_H-M "C M C A"
_symmetry_group_IT_number 64
_symmetry_cell_setting 'orthorhombic'
loop_
_space_group_symop_operation_xyz
x,y,z
-x,1/2-y,1/2+z
x,-y,-z
-x,1/2+y,1/2-z
-x,-y,-z
x,1/2+y,1/2-z
-x,y,z
x,1/2-y,1/2+z
1/2+x,1/2+y,z
1/2-x,-y,1/2+z
1/2+x,1/2-y,-z
1/2-x,y,1/2-z
1/2-x,1/2-y,-z
1/2+x,y,1/2-z
1/2-x,1/2+y,z
1/2+x,-y,1/2+z
loop_
_atom_site_type_symbol
_atom_site_label
_atom_site_fract_x
_atom_site_fract_y
_atom_site_fract_z
Si Si1 0.394768 0.967530 0.307806
Si Si2 0.772720 0.607283 0.088744
Si Si3 0.101125 0.706815 0.897234
Si Si4 0.500000 0.125696 0.856749
Si Si5 0.500000 0.454390 0.763558
Si Si6 0.349981 0.400926 0.682283
Si Si7 0.812246 0.744556 0.968429
O O1 0.395324 0.113926 0.360279
O O2 0.449254 0.959659 0.281896
O O3 0.359791 0.038521 0.253097
O O4 0.377120 0.779444 0.326703
O O5 0.795771 0.624186 0.157298
O O6 0.791622 0.429334 0.061635
O O7 0.716538 0.620959 0.074771
O O8 0.796729 0.743399 0.040485
O O9 0.046614 0.650229 0.898419
O O10 0.126960 0.554432 0.858558
O O11 0.131411 0.737253 0.959885
O O12 0.500000 0.277607 0.803496
O O13 0.500000 0.956708 0.812594
#
# Coordination Sequence:
#
# PCOD9476745 Si02
#       7
#    16  16  16   8   8  16  16
#     4  11  20  33  53  80 113 145 184 221 274 321
#     4   9  20  36  62  80 105 140 188 227 276 322
#     4  10  21  34  55  81 114 142 181 229 271 322
#     4  10  18  30  52  79 106 151 178 221 271 315
#     4  10  18  30  50  76 103 145 195 221 246 324
#     4  11  20  34  55  81 110 144 180 225 273 325
#     4   9  19  39  58  84 106 137 188 235 267 323
#
# _framework density 20.616388000000001
#
# number of rings (size 3 to 8) (size 9 to 14) (size 15 to 20)
#    0.000    2.000    3.333    1.000    2.333    0.000 
#    0.000    0.833    0.000   10.000    0.000    3.500 
#    0.000    0.000    0.000    0.000    0.000    0.000 
#
# Total GULP energy -267404.839596 kJ/mol
# GULP energy per Si atom -5570.934158 kJ/mol
# Density = 2.056946 g / cm^3
# Si number density = 20.616388 Si / 1000 Ang^3
#
#
#
# Elastic Constant Matrix: (Units=GPa)
#
#
# Indices 1 2 3 4 5 6 
#
# 1 172.7230 81.2379 52.0469 0.0000 0.0000 0.0000
# 2 81.2379 155.9006 22.9278 0.0000 0.0000 0.0000
# 3 52.0469 22.9278 33.0005 0.0000 0.0000 0.0000
# 4 0.0000 0.0000 0.0000 1.3983 0.0000 0.0000
# 5 0.0000 0.0000 0.0000 0.0000 30.6193 0.0000
# 6 0.0000 0.0000 0.0000 0.0000 0.0000 10.8662
#
#
#
# Elastic Compliance Matrix: (Units=1/GPa)
#
#
# Indices 1 2 3 4 5 6 
#
# 1 0.013137 -0.004231 -0.017780 0.000000 0.000000 0.000000
# 2 -0.004231 0.008507 0.000762 0.000000 0.000000 0.000000
# 3 -0.017780 0.000762 0.057814 0.000000 0.000000 0.000000
# 4 0.000000 0.000000 0.000000 0.715140 0.000000 0.000000
# 5 0.000000 0.000000 0.000000 0.000000 0.032659 0.000000
# 6 0.000000 0.000000 0.000000 0.000000 0.000000 0.092028
#
#
# Mechanical properties :
#
#
# Convention : Reuss Voigt Hill
#
# Bulk Modulus (GPa) = 27.05500 74.89437 50.97468
# Shear Modulus (GPa) = 5.13293 22.27088 13.70190
#
# Velocity S-wave (km/s) = 1.57960 3.29028 2.58080
# Velocity P-wave (km/s) = 4.05936 7.13029 5.80170
#
# Compressibility (1/GPa) = 0.03696174
#
# Stress axis : x y z
#
# Youngs Moduli (GPa) = 76.12010 117.55242 17.29670
#
# Poissons Ratio (x) = 0.49734 0.30753
# Poissons Ratio (y) = 0.32205 -0.01318
# Poissons Ratio (z) = 1.35340 -0.08961
#
# Static dielectric constant tensor:
#      x y z
#    x 1.804940 0.000000 0.000000 
#    y 0.000000 1.887010 0.000000 
#    z 0.000000 0.000000 1.746780 
# 
# From -- ./inp_files/46865.got.cif
#   From: 2010.05.17/outbox.cif.g08.bks.cpg/sg64_24_cif.got.tgz:46865.got - 2010.06.03 16:29:19.
