data_PCOD9476671
_publ_section_title
;
Structure prediction by ZEFSAII (Michael W. Deem and Ramdas Pophale) SiO2 
 PCOD9476671
Probable space group: C M C A
;
_chemical_formula_sum "Si O2"
_cell_formula_units_Z 96
_cell_length_a 8.488663
_cell_length_b 28.480755
_cell_length_c 24.507494
_cell_angle_alpha 90.000000
_cell_angle_beta 90.000000
_cell_angle_gamma 90.000000
_cell_volume 5925.018290
_symmetry_space_group_name_H-M "C M C A"
_symmetry_group_IT_number 64
_symmetry_cell_setting 'orthorhombic'
loop_
_space_group_symop_operation_xyz
x,y,z
-x,1/2-y,1/2+z
x,-y,-z
-x,1/2+y,1/2-z
-x,-y,-z
x,1/2+y,1/2-z
-x,y,z
x,1/2-y,1/2+z
1/2+x,1/2+y,z
1/2-x,-y,1/2+z
1/2+x,1/2-y,-z
1/2-x,y,1/2-z
1/2-x,1/2-y,-z
1/2+x,y,1/2-z
1/2-x,1/2+y,z
1/2+x,-y,1/2+z
loop_
_atom_site_type_symbol
_atom_site_label
_atom_site_fract_x
_atom_site_fract_y
_atom_site_fract_z
Si Si1 0.309399 0.820467 0.474754
Si Si2 0.188106 0.768415 0.913716
Si Si3 0.691958 0.072887 0.524739
Si Si4 0.311080 0.074025 0.309740
Si Si5 0.807964 0.981123 0.915210
Si Si6 0.186891 0.179191 0.309439
O O1 0.500000 0.818900 0.471484
O O2 0.240714 0.783414 0.431930
O O3 0.265442 0.802044 0.535314
O O4 0.255532 0.873909 0.466527
O O5 0.263368 0.786555 0.858045
O O6 0.000000 0.770410 0.908599
O O7 0.500000 0.073591 0.525158
O O8 0.738199 0.052835 0.465353
O O9 0.742446 0.033731 0.568646
O O10 0.500000 0.073748 0.309094
O O11 0.250000 0.060588 0.250000
O O12 0.254339 0.039904 0.357918
O O13 0.256537 0.127334 0.320679
O O14 0.000000 0.981349 0.914473
O O15 0.250000 0.194133 0.250000
O O16 0.000000 0.175305 0.306470
#
# Coordination Sequence:
#
# PCOD9476671 Si02
#       6
#    16  16  16  16  16  16
#     4   9  17  29  47  70  95 124 157 193 231 273
#     4  10  19  31  47  69  96 123 153 191 234 278
#     4   8  13  24  43  67  91 116 150 189 227 267
#     4  10  18  29  45  67  93 120 149 182 223 268
#     4   8  14  24  42  67  92 117 148 188 228 266
#     4  11  21  33  49  69  93 121 153 188 229 276
#
# _framework density 16.202482
#
# number of rings (size 3 to 8) (size 9 to 14) (size 15 to 20)
#    0.000    2.667    0.000    5.500    0.000    3.333 
#    0.000    0.000    0.000    3.000    0.000    9.333 
#    0.000    0.000    0.000    0.000    0.000    0.000 
#
# Total GULP energy -267602.302611 kJ/mol
# GULP energy per Si atom -5575.047971 kJ/mol
# Density = 1.616560 g / cm^3
# Si number density = 16.202482 Si / 1000 Ang^3
#
#
#
# Elastic Constant Matrix: (Units=GPa)
#
#
# Indices 1 2 3 4 5 6 
#
# 1 38.3050 25.1497 29.0419 0.0000 0.0000 0.0000
# 2 25.1497 135.0963 88.1724 0.0000 0.0000 0.0000
# 3 29.0419 88.1724 133.6203 0.0000 0.0000 0.0000
# 4 0.0000 0.0000 0.0000 25.3764 0.0000 0.0000
# 5 0.0000 0.0000 0.0000 0.0000 13.7095 0.0000
# 6 0.0000 0.0000 0.0000 0.0000 0.0000 13.3330
#
#
#
# Elastic Compliance Matrix: (Units=1/GPa)
#
#
# Indices 1 2 3 4 5 6 
#
# 1 0.031719 -0.002469 -0.005265 0.000000 0.000000 0.000000
# 2 -0.002469 0.013194 -0.008170 0.000000 0.000000 0.000000
# 3 -0.005265 -0.008170 0.014019 0.000000 0.000000 0.000000
# 4 0.000000 0.000000 0.000000 0.039407 0.000000 0.000000
# 5 0.000000 0.000000 0.000000 0.000000 0.072942 0.000000
# 6 0.000000 0.000000 0.000000 0.000000 0.000000 0.075002
#
#
# Mechanical properties :
#
#
# Convention : Reuss Voigt Hill
#
# Bulk Modulus (GPa) = 36.86600 65.74994 51.30797
# Shear Modulus (GPa) = 17.41365 21.46093 19.43729
#
# Velocity S-wave (km/s) = 3.28190 3.64338 3.46735
# Velocity P-wave (km/s) = 6.09621 7.63984 6.91126
#
# Compressibility (1/GPa) = 0.02712527
#
# Stress axis : x y z
#
# Youngs Moduli (GPa) = 31.52698 75.79375 71.33094
#
# Poissons Ratio (x) = 0.18710 0.37556
# Poissons Ratio (y) = 0.07783 0.58275
# Poissons Ratio (z) = 0.16599 0.61921
#
# Static dielectric constant tensor:
#      x y z
#    x 1.553380 0.000000 0.000000 
#    y 0.000000 1.535970 0.000000 
#    z 0.000000 0.000000 1.532060 
# 
# From -- ./inp_files/43159.got.cif
#   From: 2010.05.17/outbox.cif.g08.bks.cpg/sg64_22_cif.got.tgz:43159.got - 2010.06.03 16:29:19.
