data_PCOD9476718
_publ_section_title
;
Structure prediction by ZEFSAII (Michael W. Deem and Ramdas Pophale) SiO2 
 PCOD9476718
Probable space group: C M C A
;
_chemical_formula_sum "Si O2"
_cell_formula_units_Z 96
_cell_length_a 8.875445
_cell_length_b 31.090614
_cell_length_c 21.003155
_cell_angle_alpha 90.000000
_cell_angle_beta 90.000000
_cell_angle_gamma 90.000000
_cell_volume 5795.674326
_symmetry_space_group_name_H-M "C M C A"
_symmetry_group_IT_number 64
_symmetry_cell_setting 'orthorhombic'
loop_
_space_group_symop_operation_xyz
x,y,z
-x,1/2-y,1/2+z
x,-y,-z
-x,1/2+y,1/2-z
-x,-y,-z
x,1/2+y,1/2-z
-x,y,z
x,1/2-y,1/2+z
1/2+x,1/2+y,z
1/2-x,-y,1/2+z
1/2+x,1/2-y,-z
1/2-x,y,1/2-z
1/2-x,1/2-y,-z
1/2+x,y,1/2-z
1/2-x,1/2+y,z
1/2+x,-y,1/2+z
loop_
_atom_site_type_symbol
_atom_site_label
_atom_site_fract_x
_atom_site_fract_y
_atom_site_fract_z
Si Si1 0.680104 0.257267 0.685764
Si Si2 0.825834 0.370389 0.509249
Si Si3 0.181446 0.540090 0.042449
Si Si4 0.325545 0.151204 0.342654
Si Si5 0.682133 0.783411 0.449320
Si Si6 0.819573 0.559703 0.184986
O O1 0.500000 0.259361 0.690703
O O2 0.750000 0.238235 0.750000
O O3 0.746645 0.305171 0.678330
O O4 0.720251 0.231537 0.621778
O O5 0.737387 0.414969 0.512991
O O6 0.823552 0.351028 0.580660
O O7 0.767322 0.332027 0.464764
O O8 0.000000 0.379623 0.493000
O O9 0.227916 0.538739 0.117198
O O10 0.000000 0.540193 0.042217
O O11 0.234360 0.500000 0.000000
O O12 0.500000 0.149888 0.321429
O O13 0.238461 0.108832 0.320114
O O14 0.500000 0.782596 0.456144
O O15 0.750000 0.750000 0.500000
O O16 0.750000 0.541072 0.250000
O O17 0.000000 0.558861 0.189009
#
# Coordination Sequence:
#
# PCOD9476718 Si02
#       6
#    16  16  16  16  16  16
#     4  11  22  33  47  68  99 136 173 211 252 295
#     4   9  18  32  51  76 101 127 163 208 252 297
#     4   9  19  35  54  76 101 129 164 206 251 299
#     4  10  18  30  48  70 100 132 164 201 246 299
#     4  10  20  34  52  74 100 132 171 211 249 295
#     4  10  19  31  48  71 101 131 161 198 245 302
#
# _framework density 16.564077000000001
#
# number of rings (size 3 to 8) (size 9 to 14) (size 15 to 20)
#    0.000    2.167    1.667    2.000    0.000    3.000 
#    0.000    0.000    0.000    1.000    0.000    7.000 
#    0.000    0.000    0.000    0.000    0.000    0.000 
#
# Total GULP energy -267720.180162 kJ/mol
# GULP energy per Si atom -5577.503753 kJ/mol
# Density = 1.652638 g / cm^3
# Si number density = 16.564077 Si / 1000 Ang^3
#
#
#
# Elastic Constant Matrix: (Units=GPa)
#
#
# Indices 1 2 3 4 5 6 
#
# 1 39.4239 24.2837 41.5575 0.0000 0.0000 0.0000
# 2 24.2837 91.8883 73.7952 0.0000 0.0000 0.0000
# 3 41.5575 73.7952 138.7922 0.0000 0.0000 0.0000
# 4 0.0000 0.0000 0.0000 17.1353 0.0000 0.0000
# 5 0.0000 0.0000 0.0000 0.0000 24.1098 0.0000
# 6 0.0000 0.0000 0.0000 0.0000 0.0000 17.8629
#
#
#
# Elastic Compliance Matrix: (Units=1/GPa)
#
#
# Indices 1 2 3 4 5 6 
#
# 1 0.037189 -0.001545 -0.010314 0.000000 0.000000 0.000000
# 2 -0.001545 0.019057 -0.009670 0.000000 0.000000 0.000000
# 3 -0.010314 -0.009670 0.015435 0.000000 0.000000 0.000000
# 4 0.000000 0.000000 0.000000 0.058359 0.000000 0.000000
# 5 0.000000 0.000000 0.000000 0.000000 0.041477 0.000000
# 6 0.000000 0.000000 0.000000 0.000000 0.000000 0.055982
#
#
# Mechanical properties :
#
#
# Convention : Reuss Voigt Hill
#
# Bulk Modulus (GPa) = 34.93681 61.04190 47.98936
# Shear Modulus (GPa) = 17.85096 20.51944 19.18520
#
# Velocity S-wave (km/s) = 3.28638 3.52347 3.40699
# Velocity P-wave (km/s) = 5.96139 7.31335 6.67170
#
# Compressibility (1/GPa) = 0.02862310
#
# Stress axis : x y z
#
# Youngs Moduli (GPa) = 26.88970 52.47429 64.78967
#
# Poissons Ratio (x) = 0.08108 0.66822
# Poissons Ratio (y) = 0.04155 0.62650
# Poissons Ratio (z) = 0.27733 0.50742
#
# Static dielectric constant tensor:
#      x y z
#    x 1.562200 0.000000 0.000000 
#    y 0.000000 1.530100 0.000000 
#    z 0.000000 0.000000 1.600480 
# 
# From -- ./inp_files/43229.got.cif
#   From: 2010.05.17/outbox.cif.g08.bks.cpg/sg64_22_cif.got.tgz:43229.got - 2010.06.03 16:29:19.
