data_PCOD9476648
_publ_section_title
;
Structure prediction by ZEFSAII (Michael W. Deem and Ramdas Pophale) SiO2 
 PCOD9476648
Probable space group: C M C A
;
_chemical_formula_sum "Si O2"
_cell_formula_units_Z 96
_cell_length_a 19.014199
_cell_length_b 14.361636
_cell_length_c 19.238893
_cell_angle_alpha 90.000000
_cell_angle_beta 90.000000
_cell_angle_gamma 90.000000
_cell_volume 5253.660800
_symmetry_space_group_name_H-M "C M C A"
_symmetry_group_IT_number 64
_symmetry_cell_setting 'orthorhombic'
loop_
_space_group_symop_operation_xyz
x,y,z
-x,1/2-y,1/2+z
x,-y,-z
-x,1/2+y,1/2-z
-x,-y,-z
x,1/2+y,1/2-z
-x,y,z
x,1/2-y,1/2+z
1/2+x,1/2+y,z
1/2-x,-y,1/2+z
1/2+x,1/2-y,-z
1/2-x,y,1/2-z
1/2-x,1/2-y,-z
1/2+x,y,1/2-z
1/2-x,1/2+y,z
1/2+x,-y,1/2+z
loop_
_atom_site_type_symbol
_atom_site_label
_atom_site_fract_x
_atom_site_fract_y
_atom_site_fract_z
Si Si1 0.584375 0.947666 0.931692
Si Si2 0.082340 0.294453 0.711193
Si Si3 0.418108 0.574780 0.699238
Si Si4 0.150527 0.783733 0.635217
Si Si5 0.305154 0.094006 0.689172
Si Si6 0.281306 0.602731 0.171442
O O1 0.500000 0.948844 0.934130
O O2 0.607912 0.841063 0.922059
O O3 0.604384 0.009283 0.864221
O O4 0.611259 0.000000 0.000000
O O5 0.088785 0.186211 0.687131
O O6 0.107674 0.298893 0.791963
O O7 0.140344 0.355592 0.671473
O O8 0.000000 0.321073 0.705617
O O9 0.500000 0.556536 0.713442
O O10 0.370199 0.555689 0.765512
O O11 0.167881 0.674823 0.639338
O O12 0.226607 0.831933 0.633196
O O13 0.250000 0.127880 0.750000
O O14 0.276704 0.004484 0.649398
O O15 0.250000 0.602810 0.250000
#
# Coordination Sequence:
#
# PCOD9476648 Si02
#       6
#    16  16  16  16  16  16
#     4  10  20  33  49  69  95 129 164 195 229 275
#     4   9  16  27  45  69  95 122 152 192 242 288
#     4   9  17  28  44  67  93 121 156 195 234 278
#     4  10  18  29  45  66  93 122 156 195 236 280
#     4  10  18  28  45  70  98 124 151 191 242 288
#     4   9  17  27  43  66  94 126 152 185 233 284
#
# _framework density 18.272971999999999
#
# number of rings (size 3 to 8) (size 9 to 14) (size 15 to 20)
#    0.000    2.500    0.000    6.000    0.000    2.667 
#    0.000    0.000    0.000    9.000    0.000    0.000 
#    0.000    6.000    0.000    0.000    0.000    0.000 
#
# Total GULP energy -267360.998409 kJ/mol
# GULP energy per Si atom -5570.020800 kJ/mol
# Density = 1.823138 g / cm^3
# Si number density = 18.272972 Si / 1000 Ang^3
#
#
#
# Elastic Constant Matrix: (Units=GPa)
#
#
# Indices 1 2 3 4 5 6 
#
# 1 99.7603 32.4628 7.8971 0.0000 0.0000 0.0000
# 2 32.4628 70.0399 13.1968 0.0000 0.0000 0.0000
# 3 7.8971 13.1968 5.4638 0.0000 0.0000 0.0000
# 4 0.0000 0.0000 0.0000 10.7518 0.0000 0.0000
# 5 0.0000 0.0000 0.0000 0.0000 9.1643 0.0000
# 6 0.0000 0.0000 0.0000 0.0000 0.0000 22.1849
#
#
#
# Elastic Compliance Matrix: (Units=1/GPa)
#
#
# Indices 1 2 3 4 5 6 
#
# 1 0.011955 -0.004194 -0.007149 0.000000 0.000000 0.000000
# 2 -0.004194 0.027673 -0.060778 0.000000 0.000000 0.000000
# 3 -0.007149 -0.060778 0.340156 0.000000 0.000000 0.000000
# 4 0.000000 0.000000 0.000000 0.093008 0.000000 0.000000
# 5 0.000000 0.000000 0.000000 0.000000 0.109119 0.000000
# 6 0.000000 0.000000 0.000000 0.000000 0.000000 0.045076
#
#
# Mechanical properties :
#
#
# Convention : Reuss Voigt Hill
#
# Bulk Modulus (GPa) = 4.24553 31.37526 17.81039
# Shear Modulus (GPa) = 5.88414 16.53402 11.20908
#
# Velocity S-wave (km/s) = 1.79642 3.01131 2.47943
# Velocity P-wave (km/s) = 2.57512 5.41279 4.23848
#
# Compressibility (1/GPa) = 0.23554194
#
# Stress axis : x y z
#
# Youngs Moduli (GPa) = 83.64936 36.13636 2.93983
#
# Poissons Ratio (x) = 0.15155 0.02102
# Poissons Ratio (y) = 0.35081 0.17868
# Poissons Ratio (z) = 0.59803 2.19629
#
# Static dielectric constant tensor:
#      x y z
#    x 1.665260 0.000000 0.000000 
#    y 0.000000 1.682160 0.000000 
#    z 0.000000 0.000000 1.613900 
# 
# From -- ./inp_files/40952.got.cif
#   From: 2010.05.17/outbox.cif.g08.bks.cpg/sg64_21_cif.got.tgz:40952.got - 2010.06.03 16:29:19.
