data_PCOD9476948
_publ_section_title
;
Structure prediction by ZEFSAII (Michael W. Deem and Ramdas Pophale) SiO2 
 PCOD9476948
Probable space group: C M C A
;
_chemical_formula_sum "Si O2"
_cell_formula_units_Z 96
_cell_length_a 19.700024
_cell_length_b 27.983279
_cell_length_c 8.044135
_cell_angle_alpha 90.000000
_cell_angle_beta 90.000000
_cell_angle_gamma 90.000000
_cell_volume 4434.500501
_symmetry_space_group_name_H-M "C M C A"
_symmetry_group_IT_number 64
_symmetry_cell_setting 'orthorhombic'
loop_
_space_group_symop_operation_xyz
x,y,z
-x,1/2-y,1/2+z
x,-y,-z
-x,1/2+y,1/2-z
-x,-y,-z
x,1/2+y,1/2-z
-x,y,z
x,1/2-y,1/2+z
1/2+x,1/2+y,z
1/2-x,-y,1/2+z
1/2+x,1/2-y,-z
1/2-x,y,1/2-z
1/2-x,1/2-y,-z
1/2+x,y,1/2-z
1/2-x,1/2+y,z
1/2+x,-y,1/2+z
loop_
_atom_site_type_symbol
_atom_site_label
_atom_site_fract_x
_atom_site_fract_y
_atom_site_fract_z
Si Si1 0.679982 0.415980 0.083554
Si Si2 0.655615 0.818165 0.277155
Si Si3 0.332109 0.882385 0.759658
Si Si4 0.500000 0.255957 0.453761
Si Si5 0.643607 0.213204 0.082197
Si Si6 0.500000 0.820196 0.336781
Si Si7 0.665938 0.447887 0.437153
O O1 0.694028 0.361105 0.134718
O O2 0.644816 0.438285 0.246648
O O3 0.751596 0.443084 0.063142
O O4 0.643857 0.410365 0.905458
O O5 0.664369 0.766568 0.364347
O O6 0.575972 0.837046 0.293353
O O7 0.675765 0.808016 0.086519
O O8 0.250000 0.885302 0.750000
O O9 0.349234 0.826294 0.774476
O O10 0.356718 0.908613 0.927437
O O11 0.433223 0.280191 0.523925
O O12 0.500000 0.198980 0.475760
O O13 0.500000 0.269707 0.261621
O O14 0.646709 0.500000 0.500000
#
# Coordination Sequence:
#
# PCOD9476948 Si02
#       7
#    16  16  16   8  16   8  16
#     4  10  21  34  55  81 106 136 180 220 270 325
#     4  10  18  33  51  80 113 149 185 222 266 316
#     4  10  21  36  51  81 110 143 183 219 273 334
#     4   8  16  28  50  74 102 148 192 224 257 301
#     4  10  18  33  51  77 116 152 186 224 263 316
#     4   8  16  28  50  74 107 143 183 225 261 307
#     4  10  22  38  57  77 105 135 178 233 274 323
#
# _framework density 21.648437000000001
#
# number of rings (size 3 to 8) (size 9 to 14) (size 15 to 20)
#    0.000    2.333    1.667    1.000    7.000    1.333 
#    3.000    2.500    0.000    0.000    0.000    2.917 
#    0.000    0.167    0.000    0.000    0.000    0.000 
#
# Total GULP energy -267392.996252 kJ/mol
# GULP energy per Si atom -5570.687422 kJ/mol
# Density = 2.159916 g / cm^3
# Si number density = 21.648437 Si / 1000 Ang^3
#
#
#
# Elastic Constant Matrix: (Units=GPa)
#
#
# Indices 1 2 3 4 5 6 
#
# 1 42.4274 1.0407 -4.2519 0.0000 0.0000 0.0000
# 2 1.0407 104.3408 20.7055 0.0000 0.0000 0.0000
# 3 -4.2519 20.7055 109.9150 0.0000 0.0000 0.0000
# 4 0.0000 0.0000 0.0000 30.5819 0.0000 0.0000
# 5 0.0000 0.0000 0.0000 0.0000 15.2105 0.0000
# 6 0.0000 0.0000 0.0000 0.0000 0.0000 -0.8814
#
#
#
# Elastic Compliance Matrix: (Units=1/GPa)
#
#
# Indices 1 2 3 4 5 6 
#
# 1 0.023680 -0.000434 0.000998 0.000000 0.000000 0.000000
# 2 -0.000434 0.009964 -0.001894 0.000000 0.000000 0.000000
# 3 0.000998 -0.001894 0.009493 0.000000 0.000000 0.000000
# 4 0.000000 0.000000 0.000000 0.032699 0.000000 0.000000
# 5 0.000000 0.000000 0.000000 0.000000 0.065744 0.000000
# 6 0.000000 0.000000 0.000000 0.000000 0.000000 -1.134553
#
#
# Mechanical properties :
#
#
# Convention : Reuss Voigt Hill
#
# Bulk Modulus (GPa) = 24.70514 32.40796 28.55655
# Shear Modulus (GPa) = -5.11865 24.92813 9.90474
#
# Velocity S-wave (km/s) = -1.53934 3.39705 2.14131
# Velocity P-wave (km/s) = 2.87703 5.51264 4.39696
#
# Compressibility (1/GPa) = 0.04047741
#
# Stress axis : x y z
#
# Youngs Moduli (GPa) = 42.22913 100.36006 105.33749
#
# Poissons Ratio (x) = 0.04358 -0.10511
# Poissons Ratio (y) = 0.01834 0.19949
# Poissons Ratio (z) = -0.04214 0.19006
#
# Static dielectric constant tensor:
#      x y z
#    x 1.826880 0.000000 0.000000 
#    y 0.000000 1.789240 0.000000 
#    z 0.000000 0.000000 1.961850 
# 
# From -- ./inp_files/9540.got.cif
#   From: 2010.05.17/outbox.cif.g08.bks.cpg/sg64_5_cif.got.tgz:9540.got - 2010.06.03 16:29:19.
