data_PCOD9476465
_publ_section_title
;
Structure prediction by ZEFSAII (Michael W. Deem and Ramdas Pophale) SiO2 
 PCOD9476465
Probable space group: C M C A
;
_chemical_formula_sum "Si O2"
_cell_formula_units_Z 80
_cell_length_a 31.372033
_cell_length_b 14.138105
_cell_length_c 7.764323
_cell_angle_alpha 90.000000
_cell_angle_beta 90.000000
_cell_angle_gamma 90.000000
_cell_volume 3443.796338
_symmetry_space_group_name_H-M "C M C A"
_symmetry_group_IT_number 64
_symmetry_cell_setting 'orthorhombic'
loop_
_space_group_symop_operation_xyz
x,y,z
-x,1/2-y,1/2+z
x,-y,-z
-x,1/2+y,1/2-z
-x,-y,-z
x,1/2+y,1/2-z
-x,y,z
x,1/2-y,1/2+z
1/2+x,1/2+y,z
1/2-x,-y,1/2+z
1/2+x,1/2-y,-z
1/2-x,y,1/2-z
1/2-x,1/2-y,-z
1/2+x,y,1/2-z
1/2-x,1/2+y,z
1/2+x,-y,1/2+z
loop_
_atom_site_type_symbol
_atom_site_label
_atom_site_fract_x
_atom_site_fract_y
_atom_site_fract_z
Si Si1 0.704302 0.810620 0.672413
Si Si2 0.451354 0.039983 0.198458
Si Si3 0.385033 0.893240 0.266753
Si Si4 0.117678 0.185378 0.379125
Si Si5 0.294556 0.602646 0.793344
O O1 0.750000 0.835592 0.750000
O O2 0.662360 0.835380 0.782773
O O3 0.704624 0.855231 0.484682
O O4 0.704237 0.695347 0.669516
O O5 0.500000 0.053299 0.252699
O O6 0.422729 0.134265 0.208195
O O7 0.424845 0.959891 0.297680
O O8 0.452095 0.000000 0.000000
O O9 0.385823 0.798908 0.380729
O O10 0.339892 0.947933 0.279694
O O11 0.384288 0.854546 0.071518
O O12 0.250000 0.552865 0.750000
#
# Coordination Sequence:
#
# PCOD9476465 Si02
#       5
#    16  16  16  16  16
#     4  10  17  28  48  76 109 143 179 216 260 312
#     4   9  20  38  58  79 106 141 180 223 272 325
#     4  10  19  34  56  81 109 142 180 220 266 318
#     4  10  19  34  56  81 109 142 180 220 266 318
#     4  10  17  28  48  76 109 143 179 216 260 312
#
# _framework density 23.230177999999999
#
# number of rings (size 3 to 8) (size 9 to 14) (size 15 to 20)
#    0.000    2.200    0.000    8.400    0.000    0.800 
#    0.000    5.000    0.000    8.400    0.000    0.000 
#    0.000    0.000    0.000    0.000    0.000    0.000 
#
# Total GULP energy -223596.681016 kJ/mol
# GULP energy per Si atom -5589.917025 kJ/mol
# Density = 2.317730 g / cm^3
# Si number density = 23.230178 Si / 1000 Ang^3
#
#
#
# Elastic Constant Matrix: (Units=GPa)
#
#
# Indices 1 2 3 4 5 6 
#
# 1 240.8621 47.7769 17.2853 0.0000 0.0000 0.0000
# 2 47.7769 72.7853 -11.5167 0.0000 0.0000 0.0000
# 3 17.2853 -11.5167 60.1046 0.0000 0.0000 0.0000
# 4 0.0000 0.0000 0.0000 -0.1605 0.0000 0.0000
# 5 0.0000 0.0000 0.0000 0.0000 26.8630 0.0000
# 6 0.0000 0.0000 0.0000 0.0000 0.0000 48.4864
#
#
#
# Elastic Compliance Matrix: (Units=1/GPa)
#
#
# Indices 1 2 3 4 5 6 
#
# 1 0.005027 -0.003639 -0.002143 0.000000 0.000000 0.000000
# 2 -0.003639 0.016803 0.004266 0.000000 0.000000 0.000000
# 3 -0.002143 0.004266 0.018071 0.000000 0.000000 0.000000
# 4 0.000000 0.000000 0.000000 -6.229261 0.000000 0.000000
# 5 0.000000 0.000000 0.000000 0.000000 0.037226 0.000000
# 6 0.000000 0.000000 0.000000 0.000000 0.000000 0.020624
#
#
# Mechanical properties :
#
#
# Convention : Reuss Voigt Hill
#
# Bulk Modulus (GPa) = 27.12269 53.42701 40.27485
# Shear Modulus (GPa) = -0.81750 36.38488 17.78369
#
# Velocity S-wave (km/s) = -0.59387 3.96191 2.76985
# Velocity P-wave (km/s) = 3.35123 6.63158 5.25398
#
# Compressibility (1/GPa) = 0.03686949
#
# Stress axis : x y z
#
# Youngs Moduli (GPa) = 198.90988 59.51384 55.33594
#
# Poissons Ratio (x) = 0.21658 0.11859
# Poissons Ratio (y) = 0.72386 -0.23607
# Poissons Ratio (z) = 0.42629 -0.25390
#
# Static dielectric constant tensor:
#      x y z
#    x 1.886860 0.000000 0.000000 
#    y 0.000000 1.937800 0.000000 
#    z 0.000000 0.000000 1.909850 
# 
# From -- ./inp_files/10168.got.cif
#   From: 2010.05.17/outbox.cif.g08.bks.cpg/sg64_6_cif.got.tgz:10168.got - 2010.06.03 16:29:19.
