data_PCOD9476980
_publ_section_title
;
Structure prediction by ZEFSAII (Michael W. Deem and Ramdas Pophale) SiO2 
 PCOD9476980
Probable space group: C M C A
;
_chemical_formula_sum "Si O2"
_cell_formula_units_Z 112
_cell_length_a 27.751520
_cell_length_b 11.892796
_cell_length_c 13.463012
_cell_angle_alpha 90.000000
_cell_angle_beta 90.000000
_cell_angle_gamma 90.000000
_cell_volume 4443.375105
_symmetry_space_group_name_H-M "C M C A"
_symmetry_group_IT_number 64
_symmetry_cell_setting 'orthorhombic'
loop_
_space_group_symop_operation_xyz
x,y,z
-x,1/2-y,1/2+z
x,-y,-z
-x,1/2+y,1/2-z
-x,-y,-z
x,1/2+y,1/2-z
-x,y,z
x,1/2-y,1/2+z
1/2+x,1/2+y,z
1/2-x,-y,1/2+z
1/2+x,1/2-y,-z
1/2-x,y,1/2-z
1/2-x,1/2-y,-z
1/2+x,y,1/2-z
1/2-x,1/2+y,z
1/2+x,-y,1/2+z
loop_
_atom_site_type_symbol
_atom_site_label
_atom_site_fract_x
_atom_site_fract_y
_atom_site_fract_z
Si Si1 0.801742 0.178835 0.455582
Si Si2 0.853097 0.336971 0.762107
Si Si3 0.947001 0.160543 0.002368
Si Si4 0.056308 0.806633 0.228164
Si Si5 0.344604 0.598797 0.061418
Si Si6 0.055685 0.916299 0.421245
Si Si7 0.278182 0.326794 0.340786
O O1 0.836171 0.131943 0.371055
O O2 0.828271 0.286927 0.506524
O O3 0.756764 0.227786 0.389599
O O4 0.790083 0.110611 0.556362
O O5 0.908557 0.299987 0.763540
O O6 0.837380 0.422783 0.677429
O O7 0.823704 0.229016 0.715849
O O8 0.941660 0.151295 0.884061
O O9 0.000000 0.121074 0.033371
O O10 0.902253 0.102111 0.052522
O O11 0.944271 0.292434 0.030642
O O12 0.073906 0.897024 0.309793
O O13 0.000000 0.779631 0.249888
O O14 0.321638 0.500000 0.000000
O O15 0.000000 0.954625 0.408319
O O16 0.079122 0.000000 0.500000
O O17 0.250000 0.383965 0.250000
#
# Coordination Sequence:
#
# PCOD9476980 Si02
#       7
#    16  16  16  16  16  16  16
#     4   9  17  34  56  82 113 145 196 246 298 368
#     4  10  18  33  58  81 110 158 204 240 303 367
#     4  10  20  36  54  77 113 154 199 254 311 371
#     4  10  19  33  54  81 116 155 197 247 307 373
#     4  11  22  35  55  84 117 160 200 245 310 375
#     4   9  18  35  57  79 106 147 199 255 314 372
#     4   8  16  30  58  87 105 143 198 239 299 366
#
# _framework density 25.206064999999999
#
# number of rings (size 3 to 8) (size 9 to 14) (size 15 to 20)
#    0.000    2.429    2.857    0.000    0.000    0.286 
#    2.571    0.000    0.000   26.571    0.000    0.000 
#    0.000    0.000    0.000    0.000    0.000    0.000 
#
# Total GULP energy -312480.053725 kJ/mol
# GULP energy per Si atom -5580.000959 kJ/mol
# Density = 2.514869 g / cm^3
# Si number density = 25.206065 Si / 1000 Ang^3
#
#
#
# Elastic Constant Matrix: (Units=GPa)
#
#
# Indices 1 2 3 4 5 6 
#
# 1 94.5612 3.3439 28.5895 0.0000 0.0000 0.0000
# 2 3.3439 27.4975 12.2990 0.0000 0.0000 0.0000
# 3 28.5895 12.2990 224.3146 0.0000 0.0000 0.0000
# 4 0.0000 0.0000 0.0000 14.7166 0.0000 0.0000
# 5 0.0000 0.0000 0.0000 0.0000 15.7706 0.0000
# 6 0.0000 0.0000 0.0000 0.0000 0.0000 4.3743
#
#
#
# Elastic Compliance Matrix: (Units=1/GPa)
#
#
# Indices 1 2 3 4 5 6 
#
# 1 0.011013 -0.000729 -0.001364 0.000000 0.000000 0.000000
# 2 -0.000729 0.037330 -0.001954 0.000000 0.000000 0.000000
# 3 -0.001364 -0.001954 0.004739 0.000000 0.000000 0.000000
# 4 0.000000 0.000000 0.000000 0.067950 0.000000 0.000000
# 5 0.000000 0.000000 0.000000 0.000000 0.063409 0.000000
# 6 0.000000 0.000000 0.000000 0.000000 0.000000 0.228606
#
#
# Mechanical properties :
#
#
# Convention : Reuss Voigt Hill
#
# Bulk Modulus (GPa) = 22.22811 48.31533 35.27172
# Shear Modulus (GPa) = 11.46429 27.11503 19.28966
#
# Velocity S-wave (km/s) = 2.13497 3.28340 2.76937
# Velocity P-wave (km/s) = 3.86202 5.79517 4.92439
#
# Compressibility (1/GPa) = 0.04498808
#
# Stress axis : x y z
#
# Youngs Moduli (GPa) = 90.79975 26.78846 211.01698
#
# Poissons Ratio (x) = 0.01954 0.28776
# Poissons Ratio (y) = 0.06622 0.41228
# Poissons Ratio (z) = 0.12382 0.05234
#
# Static dielectric constant tensor:
#      x y z
#    x 2.073460 0.000000 0.000000 
#    y 0.000000 2.047860 0.000000 
#    z 0.000000 0.000000 2.004180 
# 
# From -- ./inp_files/28475.got.cif
#   From: 2010.05.17/outbox.cif.g08.bks.cpg/sg64_15_cif.got.tgz:28475.got - 2010.06.03 16:29:19.
