data_PCOD9476413
_publ_section_title
;
Structure prediction by ZEFSAII (Michael W. Deem and Ramdas Pophale) SiO2 
 PCOD9476413
Probable space group: C M C A
;
_chemical_formula_sum "Si O2"
_cell_formula_units_Z 96
_cell_length_a 15.184288
_cell_length_b 19.658809
_cell_length_c 15.302727
_cell_angle_alpha 90.000000
_cell_angle_beta 90.000000
_cell_angle_gamma 90.000000
_cell_volume 4567.940792
_symmetry_space_group_name_H-M "C M C A"
_symmetry_group_IT_number 64
_symmetry_cell_setting 'orthorhombic'
loop_
_space_group_symop_operation_xyz
x,y,z
-x,1/2-y,1/2+z
x,-y,-z
-x,1/2+y,1/2-z
-x,-y,-z
x,1/2+y,1/2-z
-x,y,z
x,1/2-y,1/2+z
1/2+x,1/2+y,z
1/2-x,-y,1/2+z
1/2+x,1/2-y,-z
1/2-x,y,1/2-z
1/2-x,1/2-y,-z
1/2+x,y,1/2-z
1/2-x,1/2+y,z
1/2+x,-y,1/2+z
loop_
_atom_site_type_symbol
_atom_site_label
_atom_site_fract_x
_atom_site_fract_y
_atom_site_fract_z
Si Si1 0.853458 0.718198 0.722932
Si Si2 0.594419 0.877073 0.129229
Si Si3 0.772606 0.919091 0.514221
Si Si4 0.143875 0.491531 0.266369
Si Si5 0.658051 0.130371 0.200047
Si Si6 0.397430 0.894836 0.422206
O O1 0.750000 0.713652 0.750000
O O2 0.900381 0.687888 0.808156
O O3 0.881941 0.794683 0.700411
O O4 0.873912 0.668568 0.641523
O O5 0.500000 0.880329 0.083440
O O6 0.603580 0.940693 0.195149
O O7 0.674031 0.881893 0.062562
O O8 0.815869 0.896631 0.604509
O O9 0.670747 0.898641 0.502004
O O10 0.781978 0.000000 0.500000
O O11 0.250000 0.489965 0.250000
O O12 0.111994 0.567890 0.249460
O O13 0.122366 0.460552 0.360660
O O14 0.750000 0.139995 0.250000
O O15 0.500000 0.892987 0.445459
#
# Coordination Sequence:
#
# PCOD9476413 Si02
#       6
#    16  16  16  16  16  16
#     4  10  19  40  65  91 125 172 215 260 321 392
#     4  11  21  38  64  95 126 167 214 262 322 386
#     4  12  22  42  68  98 131 165 218 278 322 382
#     4  10  16  37  62  93 128 167 210 264 323 386
#     4  10  22  38  66  95 124 174 220 264 326 385
#     4  11  22  39  67  97 128 171 216 260 323 393
#
# _framework density 21.016034000000001
#
# number of rings (size 3 to 8) (size 9 to 14) (size 15 to 20)
#    0.000    1.333    5.000    4.000    0.000    1.333 
#    0.000    5.000    0.000    5.000    0.000    0.000 
#    0.000    0.000    0.000    0.000    0.000    0.000 
#
# Total GULP energy -268194.947829 kJ/mol
# GULP energy per Si atom -5587.394746 kJ/mol
# Density = 2.096820 g / cm^3
# Si number density = 21.016034 Si / 1000 Ang^3
#
#
#
# Elastic Constant Matrix: (Units=GPa)
#
#
# Indices 1 2 3 4 5 6 
#
# 1 111.3893 20.9539 -9.9095 0.0000 0.0000 0.0000
# 2 20.9539 170.7838 37.9462 0.0000 0.0000 0.0000
# 3 -9.9095 37.9462 36.1397 0.0000 0.0000 0.0000
# 4 0.0000 0.0000 0.0000 8.7590 0.0000 0.0000
# 5 0.0000 0.0000 0.0000 0.0000 5.4400 0.0000
# 6 0.0000 0.0000 0.0000 0.0000 0.0000 -11.6169
#
#
#
# Elastic Compliance Matrix: (Units=1/GPa)
#
#
# Indices 1 2 3 4 5 6 
#
# 1 0.009885 -0.002367 0.005196 0.000000 0.000000 0.000000
# 2 -0.002367 0.008204 -0.009263 0.000000 0.000000 0.000000
# 3 0.005196 -0.009263 0.038822 0.000000 0.000000 0.000000
# 4 0.000000 0.000000 0.000000 0.114168 0.000000 0.000000
# 5 0.000000 0.000000 0.000000 0.000000 0.183824 0.000000
# 6 0.000000 0.000000 0.000000 0.000000 0.000000 -0.086081
#
#
# Mechanical properties :
#
#
# Convention : Reuss Voigt Hill
#
# Bulk Modulus (GPa) = 22.70567 46.25489 34.48028
# Shear Modulus (GPa) = 16.87072 18.47122 17.67097
#
# Velocity S-wave (km/s) = 2.83637 2.96786 2.90286
# Velocity P-wave (km/s) = 4.64264 5.81389 5.26096
#
# Compressibility (1/GPa) = 0.04404185
#
# Stress axis : x y z
#
# Youngs Moduli (GPa) = 101.16209 121.89175 25.75891
#
# Poissons Ratio (x) = 0.28856 -0.13385
# Poissons Ratio (y) = 0.23949 0.23861
# Poissons Ratio (z) = -0.52566 1.12911
#
# Static dielectric constant tensor:
#      x y z
#    x 1.779960 0.000000 0.000000 
#    y 0.000000 1.785760 0.000000 
#    z 0.000000 0.000000 1.744130 
# 
# From -- ./inp_files/23952.got.cif
#   From: 2010.05.17/outbox.cif.g08.bks.cpg/sg64_12_cif.got.tgz:23952.got - 2010.06.03 16:29:19.
