data_PCOD9476963
_publ_section_title
;
Structure prediction by ZEFSAII (Michael W. Deem and Ramdas Pophale) SiO2 
 PCOD9476963
Probable space group: C M C A
;
_chemical_formula_sum "Si O2"
_cell_formula_units_Z 104
_cell_length_a 20.277786
_cell_length_b 14.032780
_cell_length_c 14.463530
_cell_angle_alpha 90.000000
_cell_angle_beta 90.000000
_cell_angle_gamma 90.000000
_cell_volume 4115.651119
_symmetry_space_group_name_H-M "C M C A"
_symmetry_group_IT_number 64
_symmetry_cell_setting 'orthorhombic'
loop_
_space_group_symop_operation_xyz
x,y,z
-x,1/2-y,1/2+z
x,-y,-z
-x,1/2+y,1/2-z
-x,-y,-z
x,1/2+y,1/2-z
-x,y,z
x,1/2-y,1/2+z
1/2+x,1/2+y,z
1/2-x,-y,1/2+z
1/2+x,1/2-y,-z
1/2-x,y,1/2-z
1/2-x,1/2-y,-z
1/2+x,y,1/2-z
1/2-x,1/2+y,z
1/2+x,-y,1/2+z
loop_
_atom_site_type_symbol
_atom_site_label
_atom_site_fract_x
_atom_site_fract_y
_atom_site_fract_z
Si Si1 0.382386 0.096761 0.543874
Si Si2 0.353338 0.195175 0.276774
Si Si3 0.682407 0.230647 0.946577
Si Si4 0.000000 0.918256 0.652269
Si Si5 0.500000 0.204143 0.567668
Si Si6 0.500000 0.824442 0.659975
Si Si7 0.858841 0.095292 0.407894
Si Si8 0.774199 0.995717 0.842689
O O1 0.359514 0.174732 0.470431
O O2 0.436726 0.148339 0.603973
O O3 0.411021 0.000000 0.500000
O O4 0.318220 0.062724 0.596220
O O5 0.311982 0.270186 0.336554
O O6 0.429199 0.215057 0.306621
O O7 0.351948 0.181962 0.166950
O O8 0.319964 0.093351 0.308281
O O9 0.643975 0.142957 0.991840
O O10 0.750000 0.250000 0.000000
O O11 0.000000 0.915032 0.765362
O O12 0.928284 0.954997 0.617839
O O13 0.000000 0.812095 0.603258
O O14 0.500000 0.184387 0.453688
O O15 0.791052 0.038660 0.395178
O O16 0.750000 0.043520 0.750000
#
# Coordination Sequence:
#
# PCOD9476963 Si02
#       8
#    16  16  16   8   8   8  16  16
#     4  12  22  37  58  90 127 161 203 248 322 372
#     4  10  19  34  58  81 119 156 205 247 306 367
#     4  12  21  35  58  88 120 159 207 256 305 359
#     4  10  20  35  61  94 117 165 208 259 303 366
#     4  12  21  36  60  94 135 159 198 259 322 376
#     4  10  18  33  55  88 117 159 199 248 310 360
#     4  10  20  37  60  85 121 158 210 256 301 368
#     4  10  21  39  55  80 120 163 201 247 303 376
#
# _framework density 25.269390999999999
#
# number of rings (size 3 to 8) (size 9 to 14) (size 15 to 20)
#    0.000    1.231    6.154    0.231    0.000    0.615 
#    2.769    0.769    0.000    0.000    0.000    7.000 
#    0.000    0.000    0.000    0.308    0.000    0.000 
#
# Total GULP energy -290257.591006 kJ/mol
# GULP energy per Si atom -5581.876750 kJ/mol
# Density = 2.521188 g / cm^3
# Si number density = 25.269391 Si / 1000 Ang^3
#
#
#
# Elastic Constant Matrix: (Units=GPa)
#
#
# Indices 1 2 3 4 5 6 
#
# 1 160.4103 30.9395 23.6203 0.0000 0.0000 0.0000
# 2 30.9395 65.0264 25.9446 0.0000 0.0000 0.0000
# 3 23.6203 25.9446 108.6613 0.0000 0.0000 0.0000
# 4 0.0000 0.0000 0.0000 27.6789 0.0000 0.0000
# 5 0.0000 0.0000 0.0000 0.0000 39.2805 0.0000
# 6 0.0000 0.0000 0.0000 0.0000 0.0000 18.9344
#
#
#
# Elastic Compliance Matrix: (Units=1/GPa)
#
#
# Indices 1 2 3 4 5 6 
#
# 1 0.006925 -0.002978 -0.000794 0.000000 0.000000 0.000000
# 2 -0.002978 0.018278 -0.003717 0.000000 0.000000 0.000000
# 3 -0.000794 -0.003717 0.010263 0.000000 0.000000 0.000000
# 4 0.000000 0.000000 0.000000 0.036129 0.000000 0.000000
# 5 0.000000 0.000000 0.000000 0.000000 0.025458 0.000000
# 6 0.000000 0.000000 0.000000 0.000000 0.000000 0.052814
#
#
# Mechanical properties :
#
#
# Convention : Reuss Voigt Hill
#
# Bulk Modulus (GPa) = 48.80892 55.01188 51.91040
# Shear Modulus (GPa) = 29.12473 34.08500 31.60486
#
# Velocity S-wave (km/s) = 3.39863 3.67667 3.54038
# Velocity P-wave (km/s) = 5.89562 6.31200 6.10736
#
# Compressibility (1/GPa) = 0.02048806
#
# Stress axis : x y z
#
# Youngs Moduli (GPa) = 144.39595 54.70954 97.43701
#
# Poissons Ratio (x) = 0.16293 0.07740
# Poissons Ratio (y) = 0.43004 0.36216
# Poissons Ratio (z) = 0.11470 0.20335
#
# Static dielectric constant tensor:
#      x y z
#    x 2.055330 0.000000 0.000000 
#    y 0.000000 2.024510 0.000000 
#    z 0.000000 0.000000 2.174280 
# 
# From -- ./inp_files/26606.got.cif
#   From: 2010.05.17/outbox.cif.g08.bks.cpg/sg64_14_cif.got.tgz:26606.got - 2010.06.03 16:29:19.
