data_PCOD9476372
_publ_section_title
;
Structure prediction by ZEFSAII (Michael W. Deem and Ramdas Pophale) SiO2 
 PCOD9476372
Probable space group: C M C A
;
_chemical_formula_sum "Si O2"
_cell_formula_units_Z 104
_cell_length_a 16.073668
_cell_length_b 16.888495
_cell_length_c 16.961765
_cell_angle_alpha 90.000000
_cell_angle_beta 90.000000
_cell_angle_gamma 90.000000
_cell_volume 4604.441773
_symmetry_space_group_name_H-M "C M C A"
_symmetry_group_IT_number 64
_symmetry_cell_setting 'orthorhombic'
loop_
_space_group_symop_operation_xyz
x,y,z
-x,1/2-y,1/2+z
x,-y,-z
-x,1/2+y,1/2-z
-x,-y,-z
x,1/2+y,1/2-z
-x,y,z
x,1/2-y,1/2+z
1/2+x,1/2+y,z
1/2-x,-y,1/2+z
1/2+x,1/2-y,-z
1/2-x,y,1/2-z
1/2-x,1/2-y,-z
1/2+x,y,1/2-z
1/2-x,1/2+y,z
1/2+x,-y,1/2+z
loop_
_atom_site_type_symbol
_atom_site_label
_atom_site_fract_x
_atom_site_fract_y
_atom_site_fract_z
Si Si1 0.000000 0.742292 0.351000
Si Si2 0.245575 0.130333 0.072873
Si Si3 0.000000 0.615435 0.478756
Si Si4 0.672240 0.254509 0.795290
Si Si5 0.500000 0.939493 0.688279
Si Si6 0.153155 0.646373 0.581722
Si Si7 0.098250 0.681311 0.141706
Si Si8 0.677918 0.501034 0.814148
O O1 0.085393 0.784403 0.324207
O O2 0.000000 0.656154 0.307272
O O3 0.000000 0.705417 0.439367
O O4 0.207213 0.200418 0.127988
O O5 0.343731 0.125530 0.089137
O O6 0.201016 0.053977 0.110447
O O7 0.226664 0.149850 0.982437
O O8 0.919712 0.607418 0.530933
O O9 0.000000 0.445369 0.593076
O O10 0.750000 0.214537 0.750000
O O11 0.641943 0.315992 0.727736
O O12 0.414068 0.977309 0.716711
O O13 0.116598 0.729938 0.609881
O O14 0.174229 0.589749 0.653527
O O15 0.000000 0.665411 0.140257
O O16 0.750000 0.489964 0.750000
#
# Coordination Sequence:
#
# PCOD9476372 Si02
#       8
#     8  16   8  16   8  16  16  16
#     4  10  16  31  57  89 119 152 212 276 304 348
#     4  11  22  41  66  92 122 172 226 270 311 375
#     4  10  19  35  65  96 123 156 225 277 321 360
#     4  10  19  33  55  85 119 157 207 254 311 368
#     4  10  21  36  65  97 127 161 219 287 315 367
#     4  12  23  41  63  94 131 167 213 271 334 385
#     4  11  24  37  61  93 134 169 210 263 330 398
#     4  12  25  40  66  98 129 167 216 273 333 388
#
# _framework density 22.586887000000001
#
# number of rings (size 3 to 8) (size 9 to 14) (size 15 to 20)
#    0.462    0.615    6.154    2.769    0.000    2.462 
#    0.000    0.000    1.692    0.923    0.000    0.000 
#    0.000    0.000    0.000    0.000    0.000    0.000 
#
# Total GULP energy -290171.161718 kJ/mol
# GULP energy per Si atom -5580.214648 kJ/mol
# Density = 2.253548 g / cm^3
# Si number density = 22.586887 Si / 1000 Ang^3
#
#
#
# Elastic Constant Matrix: (Units=GPa)
#
#
# Indices 1 2 3 4 5 6 
#
# 1 194.1540 26.8352 38.0220 0.0000 0.0000 0.0000
# 2 26.8352 34.0823 13.9623 0.0000 0.0000 0.0000
# 3 38.0220 13.9623 62.2838 0.0000 0.0000 0.0000
# 4 0.0000 0.0000 0.0000 14.0412 0.0000 0.0000
# 5 0.0000 0.0000 0.0000 0.0000 39.6778 0.0000
# 6 0.0000 0.0000 0.0000 0.0000 0.0000 137.6487
#
#
#
# Elastic Compliance Matrix: (Units=1/GPa)
#
#
# Indices 1 2 3 4 5 6 
#
# 1 0.006246 -0.003695 -0.002984 0.000000 0.000000 0.000000
# 2 -0.003695 0.034494 -0.005477 0.000000 0.000000 0.000000
# 3 -0.002984 -0.005477 0.019105 0.000000 0.000000 0.000000
# 4 0.000000 0.000000 0.000000 0.071219 0.000000 0.000000
# 5 0.000000 0.000000 0.000000 0.000000 0.025203 0.000000
# 6 0.000000 0.000000 0.000000 0.000000 0.000000 0.007265
#
#
# Mechanical properties :
#
#
# Convention : Reuss Voigt Hill
#
# Bulk Modulus (GPa) = 28.14369 49.79549 38.96959
# Shear Modulus (GPa) = 25.03903 52.38690 38.71297
#
# Velocity S-wave (km/s) = 3.33312 4.82119 4.14449
# Velocity P-wave (km/s) = 5.22496 7.28600 6.33980
#
# Compressibility (1/GPa) = 0.03553194
#
# Stress axis : x y z
#
# Youngs Moduli (GPa) = 160.10952 28.99078 52.34177
#
# Poissons Ratio (x) = 0.10712 0.15621
# Poissons Ratio (y) = 0.59161 0.28667
# Poissons Ratio (z) = 0.47784 0.15878
#
# Static dielectric constant tensor:
#      x y z
#    x 1.916350 0.000000 0.000000 
#    y 0.000000 1.868890 0.000000 
#    z 0.000000 0.000000 1.896820 
# 
# From -- ./inp_files/32422.got.cif
#   From: 2010.05.17/outbox.cif.g08.bks.cpg/sg64_17_cif.got.tgz:32422.got - 2010.06.03 16:29:19.
