data_PCOD9476695
_publ_section_title
;
Structure prediction by ZEFSAII (Michael W. Deem and Ramdas Pophale) SiO2 
 PCOD9476695
Probable space group: C M C A
;
_chemical_formula_sum "Si O2"
_cell_formula_units_Z 128
_cell_length_a 19.186623
_cell_length_b 22.094358
_cell_length_c 19.319825
_cell_angle_alpha 90.000000
_cell_angle_beta 90.000000
_cell_angle_gamma 90.000000
_cell_volume 8189.985202
_symmetry_space_group_name_H-M "C M C A"
_symmetry_group_IT_number 64
_symmetry_cell_setting 'orthorhombic'
loop_
_space_group_symop_operation_xyz
x,y,z
-x,1/2-y,1/2+z
x,-y,-z
-x,1/2+y,1/2-z
-x,-y,-z
x,1/2+y,1/2-z
-x,y,z
x,1/2-y,1/2+z
1/2+x,1/2+y,z
1/2-x,-y,1/2+z
1/2+x,1/2-y,-z
1/2-x,y,1/2-z
1/2-x,1/2-y,-z
1/2+x,y,1/2-z
1/2-x,1/2+y,z
1/2+x,-y,1/2+z
loop_
_atom_site_type_symbol
_atom_site_label
_atom_site_fract_x
_atom_site_fract_y
_atom_site_fract_z
Si Si1 0.919807 0.540593 0.345583
Si Si2 0.314582 0.537252 0.937218
Si Si3 0.715426 0.099487 0.825325
Si Si4 0.317128 0.733831 0.711748
Si Si5 0.080513 0.682162 0.373804
Si Si6 0.079356 0.174356 0.819562
Si Si7 0.578803 0.946425 0.232586
Si Si8 0.918835 0.857778 0.026866
O O1 0.863334 0.508054 0.393381
O O2 0.912512 0.612643 0.348522
O O3 0.911604 0.510661 0.269906
O O4 0.000000 0.526430 0.367666
O O5 0.261782 0.571156 0.885668
O O6 0.366587 0.586298 0.970692
O O7 0.280300 0.500000 0.000000
O O8 0.750000 0.086483 0.750000
O O9 0.707830 0.172393 0.827464
O O10 0.638683 0.070353 0.821102
O O11 0.250000 0.761758 0.750000
O O12 0.362328 0.776620 0.662956
O O13 0.367757 0.710846 0.772806
O O14 0.090438 0.679741 0.456769
O O15 0.000000 0.701405 0.359849
O O16 0.084626 0.104475 0.793675
O O17 0.093055 0.177136 0.901085
O O18 0.000000 0.193698 0.806464
O O19 0.500000 0.941907 0.205215
O O20 0.000000 0.878246 0.027780
#
# Coordination Sequence:
#
# PCOD9476695 Si02
#       8
#    16  16  16  16  16  16  16  16
#     4  10  18  30  50  77 107 133 157 194 257 321
#     4  12  20  30  49  78 111 133 159 204 269 315
#     4  10  19  34  53  76 100 135 172 217 252 296
#     4  10  20  36  51  68  98 136 182 214 241 282
#     4  10  21  34  49  75 106 138 167 204 256 311
#     4   9  16  29  53  77  95 122 163 213 258 293
#     4   9  16  29  52  78  99 127 170 210 252 295
#     4  10  18  29  49  77 105 130 161 202 260 320
#
# _framework density 15.628844000000001
#
# number of rings (size 3 to 8) (size 9 to 14) (size 15 to 20)
#    0.000    2.000    3.750    2.250    0.000    1.000 
#    2.250    2.500    0.000    0.375    0.000    0.000 
#    0.000    0.000    0.000    0.000    0.000    0.000 
#
# Total GULP energy -356724.708910 kJ/mol
# GULP energy per Si atom -5573.823577 kJ/mol
# Density = 1.559327 g / cm^3
# Si number density = 15.628844 Si / 1000 Ang^3
#
#
#
# Elastic Constant Matrix: (Units=GPa)
#
#
# Indices 1 2 3 4 5 6 
#
# 1 104.0228 50.7294 62.4292 0.0000 0.0000 0.0000
# 2 50.7294 54.1319 48.4571 0.0000 0.0000 0.0000
# 3 62.4292 48.4571 83.4185 0.0000 0.0000 0.0000
# 4 0.0000 0.0000 0.0000 15.7591 0.0000 0.0000
# 5 0.0000 0.0000 0.0000 0.0000 23.0360 0.0000
# 6 0.0000 0.0000 0.0000 0.0000 0.0000 21.6695
#
#
#
# Elastic Compliance Matrix: (Units=1/GPa)
#
#
# Indices 1 2 3 4 5 6 
#
# 1 0.020305 -0.011303 -0.008630 0.000000 0.000000 0.000000
# 2 -0.011303 0.044778 -0.017552 0.000000 0.000000 0.000000
# 3 -0.008630 -0.017552 0.028642 0.000000 0.000000 0.000000
# 4 0.000000 0.000000 0.000000 0.063456 0.000000 0.000000
# 5 0.000000 0.000000 0.000000 0.000000 0.043410 0.000000
# 6 0.000000 0.000000 0.000000 0.000000 0.000000 0.046148
#
#
# Mechanical properties :
#
#
# Convention : Reuss Voigt Hill
#
# Bulk Modulus (GPa) = 53.32009 62.75606 58.03808
# Shear Modulus (GPa) = 15.24572 17.42340 16.33456
#
# Velocity S-wave (km/s) = 3.12667 3.34252 3.23639
# Velocity P-wave (km/s) = 6.87206 7.42548 7.15412
#
# Compressibility (1/GPa) = 0.01875466
#
# Stress axis : x y z
#
# Youngs Moduli (GPa) = 49.24923 22.33223 34.91381
#
# Poissons Ratio (x) = 0.25243 0.30130
# Poissons Ratio (y) = 0.55669 0.61281
# Poissons Ratio (z) = 0.42501 0.39197
#
# Static dielectric constant tensor:
#      x y z
#    x 1.544400 0.000000 0.000000 
#    y 0.000000 1.516780 0.000000 
#    z 0.000000 0.000000 1.519050 
# 
# From -- ./inp_files/41162.got.cif
#   From: 2010.05.17/outbox.cif.g08.bks.cpg/sg64_21_cif.got.tgz:41162.got - 2010.06.03 16:29:19.
