data_PCOD9476499
_publ_section_title
;
Structure prediction by ZEFSAII (Michael W. Deem and Ramdas Pophale) SiO2 
 PCOD9476499
Probable space group: C M C A
;
_chemical_formula_sum "Si O2"
_cell_formula_units_Z 80
_cell_length_a 24.633618
_cell_length_b 13.806503
_cell_length_c 7.983355
_cell_angle_alpha 90.000000
_cell_angle_beta 90.000000
_cell_angle_gamma 90.000000
_cell_volume 2715.171933
_symmetry_space_group_name_H-M "C M C A"
_symmetry_group_IT_number 64
_symmetry_cell_setting 'orthorhombic'
loop_
_space_group_symop_operation_xyz
x,y,z
-x,1/2-y,1/2+z
x,-y,-z
-x,1/2+y,1/2-z
-x,-y,-z
x,1/2+y,1/2-z
-x,y,z
x,1/2-y,1/2+z
1/2+x,1/2+y,z
1/2-x,-y,1/2+z
1/2+x,1/2-y,-z
1/2-x,y,1/2-z
1/2-x,1/2-y,-z
1/2+x,y,1/2-z
1/2-x,1/2+y,z
1/2+x,-y,1/2+z
loop_
_atom_site_type_symbol
_atom_site_label
_atom_site_fract_x
_atom_site_fract_y
_atom_site_fract_z
Si Si1 0.437989 0.766695 0.005520
Si Si2 0.329546 0.901952 0.782173
Si Si3 0.943016 0.956051 0.685264
Si Si4 0.639946 0.325170 0.212657
Si Si5 0.756679 0.366325 0.472420
O O1 0.500000 0.745002 0.052471
O O2 0.403137 0.829818 0.136615
O O3 0.443466 0.840319 0.848006
O O4 0.400711 0.676477 0.948404
O O5 0.381722 0.970539 0.753957
O O6 0.341873 0.787327 0.771401
O O7 0.302566 0.904998 0.968289
O O8 0.289858 0.914105 0.626196
O O9 0.000000 0.984765 0.772040
O O10 0.946315 0.000000 0.500000
O O11 0.699230 0.373820 0.180547
O O12 0.750000 0.250000 0.500000
#
# Coordination Sequence:
#
# PCOD9476499 Si02
#       5
#    16  16  16  16  16
#     4  10  19  30  49  78 108 136 171 218 268 321
#     4   9  17  31  51  77 100 137 177 215 258 323
#     4   9  19  36  56  74  99 141 188 228 267 318
#     4  10  17  30  47  77 108 135 166 211 270 327
#     4   9  17  29  50  75 108 139 169 202 267 332
#
# _framework density 29.464065999999999
#
# number of rings (size 3 to 8) (size 9 to 14) (size 15 to 20)
#    0.000    2.600    2.000    0.600    0.000    0.800 
#    0.000    0.000    8.800    0.000    0.000    4.200 
#    0.000    0.000    0.000    0.000    0.000    0.000 
#
# Total GULP energy -223019.115693 kJ/mol
# GULP energy per Si atom -5575.477892 kJ/mol
# Density = 2.939700 g / cm^3
# Si number density = 29.464066 Si / 1000 Ang^3
#
#
#
# Elastic Constant Matrix: (Units=GPa)
#
#
# Indices 1 2 3 4 5 6 
#
# 1 257.7428 4.1872 46.0853 0.0000 0.0000 0.0000
# 2 4.1872 82.3397 -27.8197 0.0000 0.0000 0.0000
# 3 46.0853 -27.8197 77.7613 0.0000 0.0000 0.0000
# 4 0.0000 0.0000 0.0000 19.8215 0.0000 0.0000
# 5 0.0000 0.0000 0.0000 0.0000 52.1396 0.0000
# 6 0.0000 0.0000 0.0000 0.0000 0.0000 17.8845
#
#
#
# Elastic Compliance Matrix: (Units=1/GPa)
#
#
# Indices 1 2 3 4 5 6 
#
# 1 0.004454 -0.001272 -0.003095 0.000000 0.000000 0.000000
# 2 -0.001272 0.014178 0.005826 0.000000 0.000000 0.000000
# 3 -0.003095 0.005826 0.016778 0.000000 0.000000 0.000000
# 4 0.000000 0.000000 0.000000 0.050450 0.000000 0.000000
# 5 0.000000 0.000000 0.000000 0.000000 0.019179 0.000000
# 6 0.000000 0.000000 0.000000 0.000000 0.000000 0.055914
#
#
# Mechanical properties :
#
#
# Convention : Reuss Voigt Hill
#
# Bulk Modulus (GPa) = 26.08997 51.41662 38.75330
# Shear Modulus (GPa) = 29.27208 44.32853 36.80031
#
# Velocity S-wave (km/s) = 3.15538 3.88299 3.53794
# Velocity P-wave (km/s) = 4.70630 6.13123 5.46540
#
# Compressibility (1/GPa) = 0.03832890
#
# Stress axis : x y z
#
# Youngs Moduli (GPa) = 224.52539 70.53209 59.60088
#
# Poissons Ratio (x) = 0.08972 0.18444
# Poissons Ratio (y) = 0.28561 -0.34724
# Poissons Ratio (z) = 0.69483 -0.41093
#
# Static dielectric constant tensor:
#      x y z
#    x 2.459990 0.000000 0.000000 
#    y 0.000000 2.402030 0.000000 
#    z 0.000000 0.000000 2.561030 
# 
# From -- ./inp_files/10177.got.cif
#   From: 2010.05.17/outbox.cif.g08.bks.cpg/sg64_6_cif.got.tgz:10177.got - 2010.06.03 16:29:19.
