data_PCOD9476715
_publ_section_title
;
Structure prediction by ZEFSAII (Michael W. Deem and Ramdas Pophale) SiO2 
 PCOD9476715
Probable space group: C M C A
;
_chemical_formula_sum "Si O2"
_cell_formula_units_Z 80
_cell_length_a 19.320494
_cell_length_b 32.136463
_cell_length_c 5.490583
_cell_angle_alpha 90.000000
_cell_angle_beta 90.000000
_cell_angle_gamma 90.000000
_cell_volume 3409.060930
_symmetry_space_group_name_H-M "C M C A"
_symmetry_group_IT_number 64
_symmetry_cell_setting 'orthorhombic'
loop_
_space_group_symop_operation_xyz
x,y,z
-x,1/2-y,1/2+z
x,-y,-z
-x,1/2+y,1/2-z
-x,-y,-z
x,1/2+y,1/2-z
-x,y,z
x,1/2-y,1/2+z
1/2+x,1/2+y,z
1/2-x,-y,1/2+z
1/2+x,1/2-y,-z
1/2-x,y,1/2-z
1/2-x,1/2-y,-z
1/2+x,y,1/2-z
1/2-x,1/2+y,z
1/2+x,-y,1/2+z
loop_
_atom_site_type_symbol
_atom_site_label
_atom_site_fract_x
_atom_site_fract_y
_atom_site_fract_z
Si Si1 0.833571 0.476306 0.752205
Si Si2 0.747322 0.173610 0.999582
Si Si3 0.115877 0.886511 0.586301
Si Si4 0.420101 0.234842 0.751115
Si Si5 0.101817 0.141526 0.915922
O O1 0.853666 0.500000 0.500000
O O2 0.750000 0.473515 0.750000
O O3 0.862776 0.430294 0.795672
O O4 0.853608 0.500000 0.000000
O O5 0.750000 0.198572 0.750000
O O6 0.815314 0.144481 0.966966
O O7 0.750000 0.197835 0.250000
O O8 0.682078 0.143086 0.030423
O O9 0.085329 0.888942 0.311121
O O10 0.074616 0.865953 0.810966
O O11 0.500000 0.249596 0.777444
O O12 0.388501 0.258187 0.517786
O O13 0.419454 0.186733 0.680349
#
# Coordination Sequence:
#
# PCOD9476715 Si02
#       5
#    16  16  16  16  16
#     4  10  19  28  41  65 100 137 168 199 236 275
#     4   8  15  25  42  63  88 120 157 189 220 262
#     4  10  18  30  47  69  98 132 167 198 231 275
#     4  10  21  37  55  75  99 122 148 195 257 305
#     4  10  18  30  51  70  91 126 164 195 235 288
#
# _framework density 23.466873
#
# number of rings (size 3 to 8) (size 9 to 14) (size 15 to 20)
#    0.000    2.400    0.000    4.200    0.000    5.600 
#    0.000    0.000    0.000   32.400    0.000    0.000 
#    0.000   16.000    0.000    0.000    0.000    0.000 
#
# Total GULP energy -222888.662156 kJ/mol
# GULP energy per Si atom -5572.216554 kJ/mol
# Density = 2.341346 g / cm^3
# Si number density = 23.466873 Si / 1000 Ang^3
#
#
#
# Elastic Constant Matrix: (Units=GPa)
#
#
# Indices 1 2 3 4 5 6 
#
# 1 71.7842 11.3319 28.2287 0.0000 0.0000 0.0000
# 2 11.3319 93.4397 40.3958 0.0000 0.0000 0.0000
# 3 28.2287 40.3958 271.2873 0.0000 0.0000 0.0000
# 4 0.0000 0.0000 0.0000 43.8765 0.0000 0.0000
# 5 0.0000 0.0000 0.0000 0.0000 -32.1703 0.0000
# 6 0.0000 0.0000 0.0000 0.0000 0.0000 5.9609
#
#
#
# Elastic Compliance Matrix: (Units=1/GPa)
#
#
# Indices 1 2 3 4 5 6 
#
# 1 0.014649 -0.001194 -0.001346 0.000000 0.000000 0.000000
# 2 -0.001194 0.011536 -0.001593 0.000000 0.000000 0.000000
# 3 -0.001346 -0.001593 0.004063 0.000000 0.000000 0.000000
# 4 0.000000 0.000000 0.000000 0.022791 0.000000 0.000000
# 5 0.000000 0.000000 0.000000 0.000000 -0.031085 0.000000
# 6 0.000000 0.000000 0.000000 0.000000 0.000000 0.167761
#
#
# Mechanical properties :
#
#
# Convention : Reuss Voigt Hill
#
# Bulk Modulus (GPa) = 45.49716 66.26936 55.88326
# Shear Modulus (GPa) = 24.35336 27.30374 25.82855
#
# Velocity S-wave (km/s) = 3.22495 3.41471 3.32119
# Velocity P-wave (km/s) = 5.77035 6.62177 6.21067
#
# Compressibility (1/GPa) = 0.02197939
#
# Stress axis : x y z
#
# Youngs Moduli (GPa) = 68.26564 86.68649 246.09330
#
# Poissons Ratio (x) = 0.10354 0.33134
# Poissons Ratio (y) = 0.08154 0.39214
# Poissons Ratio (z) = 0.09191 0.13813
#
# Static dielectric constant tensor:
#      x y z
#    x 1.808010 0.000000 0.000000 
#    y 0.000000 1.850450 0.000000 
#    z 0.000000 0.000000 2.059100 
# 
# From -- ./inp_files/2352.got.cif
#   From: 2010.05.17/outbox.cif.g08.bks.cpg/sg64_2_cif.got.tgz:2352.got - 2010.06.03 16:29:19.
