data_PCOD9476659
_publ_section_title
;
Structure prediction by ZEFSAII (Michael W. Deem and Ramdas Pophale) SiO2 
 PCOD9476659
Probable space group: C M C A
;
_chemical_formula_sum "Si O2"
_cell_formula_units_Z 96
_cell_length_a 7.464718
_cell_length_b 20.044370
_cell_length_c 31.936729
_cell_angle_alpha 90.000000
_cell_angle_beta 90.000000
_cell_angle_gamma 90.000000
_cell_volume 4778.551266
_symmetry_space_group_name_H-M "C M C A"
_symmetry_group_IT_number 64
_symmetry_cell_setting 'orthorhombic'
loop_
_space_group_symop_operation_xyz
x,y,z
-x,1/2-y,1/2+z
x,-y,-z
-x,1/2+y,1/2-z
-x,-y,-z
x,1/2+y,1/2-z
-x,y,z
x,1/2-y,1/2+z
1/2+x,1/2+y,z
1/2-x,-y,1/2+z
1/2+x,1/2-y,-z
1/2-x,y,1/2-z
1/2-x,1/2-y,-z
1/2+x,y,1/2-z
1/2-x,1/2+y,z
1/2+x,-y,1/2+z
loop_
_atom_site_type_symbol
_atom_site_label
_atom_site_fract_x
_atom_site_fract_y
_atom_site_fract_z
Si Si1 0.714235 0.158765 0.298766
Si Si2 0.284688 0.241676 0.869988
Si Si3 0.217757 0.954072 0.858790
Si Si4 0.287168 0.092262 0.608370
Si Si5 0.782634 0.351625 0.567265
Si Si6 0.781076 0.074854 0.986143
O O1 0.500000 0.158279 0.303238
O O2 0.750000 0.166385 0.250000
O O3 0.779899 0.218475 0.328883
O O4 0.780347 0.089284 0.319168
O O5 0.500000 0.245986 0.870217
O O6 0.239593 0.164437 0.871897
O O7 0.221139 0.283231 0.910861
O O8 0.262703 0.910779 0.900092
O O9 0.000000 0.955679 0.856607
O O10 0.282539 0.029290 0.865195
O O11 0.500000 0.081867 0.604867
O O12 0.217839 0.090080 0.560684
O O13 0.720371 0.372500 0.521305
O O14 0.000000 0.349254 0.565693
O O15 0.000000 0.076132 0.986115
O O16 0.730379 0.000000 0.000000
#
# Coordination Sequence:
#
# PCOD9476659 Si02
#       6
#    16  16  16  16  16  16
#     4   9  18  34  55  73  89 116 155 193 233 284
#     4   9  19  33  47  66  98 133 155 182 237 296
#     4   8  14  27  47  70  93 117 150 192 234 273
#     4  10  18  28  47  74  99 123 158 202 235 265
#     4   8  13  25  44  65  91 126 163 194 225 267
#     4   9  14  22  42  72  96 119 163 211 234 253
#
# _framework density 20.089770999999999
#
# number of rings (size 3 to 8) (size 9 to 14) (size 15 to 20)
#    0.000    3.167    1.667    2.000    0.000    1.333 
#    0.000    1.667    0.000    5.500    0.000    0.000 
#    0.000    0.000    0.000    0.000    0.000    0.000 
#
# Total GULP energy -267636.953412 kJ/mol
# GULP energy per Si atom -5575.769863 kJ/mol
# Density = 2.004405 g / cm^3
# Si number density = 20.089771 Si / 1000 Ang^3
#
#
#
# Elastic Constant Matrix: (Units=GPa)
#
#
# Indices 1 2 3 4 5 6 
#
# 1 54.2237 -1.4963 1.7749 0.0000 0.0000 0.0000
# 2 -1.4963 166.3545 74.2786 0.0000 0.0000 0.0000
# 3 1.7749 74.2786 134.5448 0.0000 0.0000 0.0000
# 4 0.0000 0.0000 0.0000 18.8625 0.0000 0.0000
# 5 0.0000 0.0000 0.0000 0.0000 2.7338 0.0000
# 6 0.0000 0.0000 0.0000 0.0000 0.0000 17.2632
#
#
#
# Elastic Compliance Matrix: (Units=1/GPa)
#
#
# Indices 1 2 3 4 5 6 
#
# 1 0.018467 0.000365 -0.000445 0.000000 0.000000 0.000000
# 2 0.000365 0.007985 -0.004413 0.000000 0.000000 0.000000
# 3 -0.000445 -0.004413 0.009875 0.000000 0.000000 0.000000
# 4 0.000000 0.000000 0.000000 0.053015 0.000000 0.000000
# 5 0.000000 0.000000 0.000000 0.000000 0.365788 0.000000
# 6 0.000000 0.000000 0.000000 0.000000 0.000000 0.057927
#
#
# Mechanical properties :
#
#
# Convention : Reuss Voigt Hill
#
# Bulk Modulus (GPa) = 36.57672 56.02639 46.30155
# Shear Modulus (GPa) = 9.41343 26.47630 17.94486
#
# Velocity S-wave (km/s) = 2.16699 3.63423 2.99194
# Velocity P-wave (km/s) = 4.95048 6.74972 5.91887
#
# Compressibility (1/GPa) = 0.02733980
#
# Stress axis : x y z
#
# Youngs Moduli (GPa) = 54.15140 125.23420 101.26873
#
# Poissons Ratio (x) = -0.04569 0.04507
# Poissons Ratio (y) = -0.01975 0.44691
# Poissons Ratio (z) = 0.02410 0.55268
#
# Static dielectric constant tensor:
#      x y z
#    x 1.804840 0.000000 0.000000 
#    y 0.000000 1.709570 0.000000 
#    z 0.000000 0.000000 1.698650 
# 
# From -- ./inp_files/44201.got.cif
#   From: 2010.05.17/outbox.cif.g08.bks.cpg/sg64_23_cif.got.tgz:44201.got - 2010.06.03 16:29:19.
