data_PCOD9476637
_publ_section_title
;
Structure prediction by ZEFSAII (Michael W. Deem and Ramdas Pophale) SiO2 
 PCOD9476637
Probable space group: C M C A
;
_chemical_formula_sum "Si O2"
_cell_formula_units_Z 64
_cell_length_a 5.504542
_cell_length_b 34.562594
_cell_length_c 16.904142
_cell_angle_alpha 90.000000
_cell_angle_beta 90.000000
_cell_angle_gamma 90.000000
_cell_volume 3216.034151
_symmetry_space_group_name_H-M "C M C A"
_symmetry_group_IT_number 64
_symmetry_cell_setting 'orthorhombic'
loop_
_space_group_symop_operation_xyz
x,y,z
-x,1/2-y,1/2+z
x,-y,-z
-x,1/2+y,1/2-z
-x,-y,-z
x,1/2+y,1/2-z
-x,y,z
x,1/2-y,1/2+z
1/2+x,1/2+y,z
1/2-x,-y,1/2+z
1/2+x,1/2-y,-z
1/2-x,y,1/2-z
1/2-x,1/2-y,-z
1/2+x,y,1/2-z
1/2-x,1/2+y,z
1/2+x,-y,1/2+z
loop_
_atom_site_type_symbol
_atom_site_label
_atom_site_fract_x
_atom_site_fract_y
_atom_site_fract_z
Si Si1 0.000000 0.013879 0.591960
Si Si2 0.000000 0.175715 0.126219
Si Si3 0.000000 0.061486 0.300199
Si Si4 0.500000 0.855627 0.870163
Si Si5 0.000000 0.460876 0.446447
Si Si6 0.500000 0.755763 0.050022
Si Si7 0.000000 0.155476 0.560119
Si Si8 0.000000 0.625370 0.535613
O O1 0.749389 0.036810 0.602176
O O2 0.000000 0.000000 0.500000
O O3 0.000000 0.976829 0.647396
O O4 0.251628 0.161852 0.163018
O O5 0.000000 0.221370 0.113132
O O6 0.000000 0.153900 0.040184
O O7 0.250000 0.062609 0.250000
O O8 0.000000 0.098828 0.356334
O O9 0.500000 0.846179 0.963679
O O10 0.000000 0.500000 0.500000
O O11 0.000000 0.419613 0.490833
O O12 0.500000 0.799415 0.081931
O O13 0.750000 0.750000 0.000000
O O14 0.252017 0.134814 0.582052
#
# Coordination Sequence:
#
# PCOD9476637 Si02
#       8
#     8   8   8   8   8   8   8   8
#     4  10  23  38  58  83 105 148 192 251 292 356
#     4  10  19  28  50  72 108 152 186 230 265 363
#     4  12  26  43  61  82 117 158 205 254 303 368
#     4  10  20  32  51  72 100 147 199 226 277 340
#     4  10  21  31  50  76 106 138 180 245 290 349
#     4  12  16  30  40  74 108 150 195 209 280 322
#     4  10  19  28  48  70 106 152 183 229 261 365
#     4  10  18  28  42  69 102 139 180 220 292 323
#
# _framework density 19.900286000000001
#
# number of rings (size 3 to 8) (size 9 to 14) (size 15 to 20)
#    0.000    1.500    5.000    2.250   14.000    0.000 
#    0.000    0.000    0.000    0.000    0.000    0.000 
#    0.000    0.000    0.000  130.500    0.000    0.000 
#
# Total GULP energy -178427.972273 kJ/mol
# GULP energy per Si atom -5575.874134 kJ/mol
# Density = 1.985499 g / cm^3
# Si number density = 19.900286 Si / 1000 Ang^3
#
#
#
# Elastic Constant Matrix: (Units=GPa)
#
#
# Indices 1 2 3 4 5 6 
#
# 1 226.5625 31.1189 1.3473 0.0000 0.0000 0.0000
# 2 31.1189 129.4933 9.6253 0.0000 0.0000 0.0000
# 3 1.3473 9.6253 12.9451 0.0000 0.0000 0.0000
# 4 0.0000 0.0000 0.0000 -4.0023 0.0000 0.0000
# 5 0.0000 0.0000 0.0000 0.0000 19.7596 0.0000
# 6 0.0000 0.0000 0.0000 0.0000 0.0000 34.9734
#
#
#
# Elastic Compliance Matrix: (Units=1/GPa)
#
#
# Indices 1 2 3 4 5 6 
#
# 1 0.004566 -0.001124 0.000361 0.000000 0.000000 0.000000
# 2 -0.001124 0.008451 -0.006167 0.000000 0.000000 0.000000
# 3 0.000361 -0.006167 0.081797 0.000000 0.000000 0.000000
# 4 0.000000 0.000000 0.000000 -0.249855 0.000000 0.000000
# 5 0.000000 0.000000 0.000000 0.000000 0.050608 0.000000
# 6 0.000000 0.000000 0.000000 0.000000 0.000000 0.028593
#
#
# Mechanical properties :
#
#
# Convention : Reuss Voigt Hill
#
# Bulk Modulus (GPa) = 12.35275 50.35377 31.35326
# Shear Modulus (GPa) = -142.88063 31.94009 -55.47027
#
# Velocity S-wave (km/s) = -8.48258 4.01060 -5.28532
# Velocity P-wave (km/s) = 9.47196 6.84138 4.63215
#
# Compressibility (1/GPa) = 0.08095362
#
# Stress axis : x y z
#
# Youngs Moduli (GPa) = 219.00799 118.33041 12.22538
#
# Poissons Ratio (x) = 0.13301 -0.00441
# Poissons Ratio (y) = 0.24618 0.07539
# Poissons Ratio (z) = -0.07897 0.72971
#
# Static dielectric constant tensor:
#      x y z
#    x 107.697220 0.000000 0.000000 
#    y 0.000000 1.738060 0.000000 
#    z 0.000000 0.000000 1.663470 
# 
# From -- ./inp_files/28727.got.cif
#   From: 2010.05.17/outbox.cif.g08.bks.cpg/sg64_15_cif.got.tgz:28727.got - 2010.06.03 16:29:19.
