data_PCOD9476464
_publ_section_title
;
Structure prediction by ZEFSAII (Michael W. Deem and Ramdas Pophale) SiO2 
 PCOD9476464
Probable space group: C M C A
;
_chemical_formula_sum "Si O2"
_cell_formula_units_Z 80
_cell_length_a 27.188494
_cell_length_b 8.306978
_cell_length_c 14.422579
_cell_angle_alpha 90.000000
_cell_angle_beta 90.000000
_cell_angle_gamma 90.000000
_cell_volume 3257.400352
_symmetry_space_group_name_H-M "C M C A"
_symmetry_group_IT_number 64
_symmetry_cell_setting 'orthorhombic'
loop_
_space_group_symop_operation_xyz
x,y,z
-x,1/2-y,1/2+z
x,-y,-z
-x,1/2+y,1/2-z
-x,-y,-z
x,1/2+y,1/2-z
-x,y,z
x,1/2-y,1/2+z
1/2+x,1/2+y,z
1/2-x,-y,1/2+z
1/2+x,1/2-y,-z
1/2-x,y,1/2-z
1/2-x,1/2-y,-z
1/2+x,y,1/2-z
1/2-x,1/2+y,z
1/2+x,-y,1/2+z
loop_
_atom_site_type_symbol
_atom_site_label
_atom_site_fract_x
_atom_site_fract_y
_atom_site_fract_z
Si Si1 0.703510 0.701487 0.371608
Si Si2 0.602499 0.885628 0.884681
Si Si3 0.000000 0.582823 0.362098
Si Si4 0.500000 0.750423 0.940117
Si Si5 0.804657 0.580390 0.341642
Si Si6 0.901107 0.746940 0.809223
O O1 0.656559 0.637434 0.429183
O O2 0.759720 0.661257 0.397252
O O3 0.700098 0.614936 0.269469
O O4 0.699091 0.891985 0.359119
O O5 0.551213 0.846518 0.934580
O O6 0.607035 0.756920 0.800803
O O7 0.597842 0.065259 0.844606
O O8 0.048676 0.655865 0.319061
O O9 0.000000 0.390018 0.362392
O O10 0.000000 0.654885 0.464751
O O11 0.857537 0.658450 0.361909
#
# Coordination Sequence:
#
# PCOD9476464 Si02
#       6
#    16  16   8   8  16  16
#     4  10  17  28  47  75 109 141 175 215 264 314
#     4  11  21  35  56  82 111 142 180 222 266 316
#     4  11  24  41  58  77 105 141 180 223 272 323
#     4  11  24  41  58  77 105 141 180 223 272 323
#     4  10  17  28  47  75 109 141 175 215 264 314
#     4  11  21  35  56  82 111 142 180 222 266 316
#
# _framework density 24.559462
#
# number of rings (size 3 to 8) (size 9 to 14) (size 15 to 20)
#    0.000    1.400    0.000   12.000    0.000    1.600 
#    0.000    0.000    0.000    1.200    0.000    0.000 
#    0.000    0.000    0.000    0.000    0.000    0.000 
#
# Total GULP energy -223740.279826 kJ/mol
# GULP energy per Si atom -5593.506996 kJ/mol
# Density = 2.450356 g / cm^3
# Si number density = 24.559462 Si / 1000 Ang^3
#
#
#
# Elastic Constant Matrix: (Units=GPa)
#
#
# Indices 1 2 3 4 5 6 
#
# 1 250.4926 61.5228 14.1065 0.0000 0.0000 0.0000
# 2 61.5228 173.7882 18.3073 0.0000 0.0000 0.0000
# 3 14.1065 18.3073 33.2144 0.0000 0.0000 0.0000
# 4 0.0000 0.0000 0.0000 31.2253 0.0000 0.0000
# 5 0.0000 0.0000 0.0000 0.0000 4.5133 0.0000
# 6 0.0000 0.0000 0.0000 0.0000 0.0000 30.5289
#
#
#
# Elastic Compliance Matrix: (Units=1/GPa)
#
#
# Indices 1 2 3 4 5 6 
#
# 1 0.004408 -0.001447 -0.001074 0.000000 0.000000 0.000000
# 2 -0.001447 0.006584 -0.003014 0.000000 0.000000 0.000000
# 3 -0.001074 -0.003014 0.032225 0.000000 0.000000 0.000000
# 4 0.000000 0.000000 0.000000 0.032025 0.000000 0.000000
# 5 0.000000 0.000000 0.000000 0.000000 0.221566 0.000000
# 6 0.000000 0.000000 0.000000 0.000000 0.000000 0.032756
#
#
# Mechanical properties :
#
#
# Convention : Reuss Voigt Hill
#
# Bulk Modulus (GPa) = 31.10886 71.70758 51.40822
# Shear Modulus (GPa) = 14.23077 37.49076 25.86076
#
# Velocity S-wave (km/s) = 2.40977 3.91132 3.24849
# Velocity P-wave (km/s) = 4.52072 7.04690 5.92012
#
# Compressibility (1/GPa) = 0.03214518
#
# Stress axis : x y z
#
# Youngs Moduli (GPa) = 226.85426 151.88245 31.03163
#
# Poissons Ratio (x) = 0.21982 0.03334
# Poissons Ratio (y) = 0.32833 0.09354
# Poissons Ratio (z) = 0.24374 0.45782
#
# Static dielectric constant tensor:
#      x y z
#    x 2.124620 0.000000 0.000000 
#    y 0.000000 1.860960 0.000000 
#    z 0.000000 0.000000 2.048490 
# 
# From -- ./inp_files/35400.got.cif
#   From: 2010.05.17/outbox.cif.g08.bks.cpg/sg64_18_cif.got.tgz:35400.got - 2010.06.03 16:29:19.
