data_PCOD9476857
_publ_section_title
;
Structure prediction by ZEFSAII (Michael W. Deem and Ramdas Pophale) SiO2 
 PCOD9476857
Probable space group: C M C A
;
_chemical_formula_sum "Si O2"
_cell_formula_units_Z 96
_cell_length_a 19.088313
_cell_length_b 24.439815
_cell_length_c 9.772597
_cell_angle_alpha 90.000000
_cell_angle_beta 90.000000
_cell_angle_gamma 90.000000
_cell_volume 4559.061510
_symmetry_space_group_name_H-M "C M C A"
_symmetry_group_IT_number 64
_symmetry_cell_setting 'orthorhombic'
loop_
_space_group_symop_operation_xyz
x,y,z
-x,1/2-y,1/2+z
x,-y,-z
-x,1/2+y,1/2-z
-x,-y,-z
x,1/2+y,1/2-z
-x,y,z
x,1/2-y,1/2+z
1/2+x,1/2+y,z
1/2-x,-y,1/2+z
1/2+x,1/2-y,-z
1/2-x,y,1/2-z
1/2-x,1/2-y,-z
1/2+x,y,1/2-z
1/2-x,1/2+y,z
1/2+x,-y,1/2+z
loop_
_atom_site_type_symbol
_atom_site_label
_atom_site_fract_x
_atom_site_fract_y
_atom_site_fract_z
Si Si1 0.083673 0.468850 0.671949
Si Si2 0.378832 0.916591 0.375519
Si Si3 0.000000 0.263089 0.107557
Si Si4 0.000000 0.326065 0.385097
Si Si5 0.328375 0.373517 0.763666
Si Si6 0.145705 0.712376 0.029263
Si Si7 0.292594 0.674379 0.939215
O O1 0.110179 0.529145 0.713315
O O2 0.110178 0.445093 0.524566
O O3 0.116209 0.421281 0.761730
O O4 0.000000 0.470486 0.666397
O O5 0.435933 0.868392 0.365026
O O6 0.308156 0.882033 0.362026
O O7 0.000000 0.277773 0.269832
O O8 0.000000 0.202008 0.036949
O O9 0.927910 0.288148 0.047944
O O10 0.250000 0.397352 0.750000
O O11 0.348591 0.328473 0.654370
O O12 0.320132 0.341917 0.908085
O O13 0.161616 0.772227 0.091558
O O14 0.212627 0.694841 0.936727
#
# Coordination Sequence:
#
# PCOD9476857 Si02
#       7
#    16  16   8   8  16  16  16
#     4  10  18  31  63  94 114 154 203 257 312 350
#     4  10  18  37  60  88 120 149 202 262 302 353
#     4  12  28  38  61  89 127 169 202 252 309 381
#     4  12  24  41  57  93 129 156 206 258 307 371
#     4   9  20  36  57  86 122 157 205 251 301 373
#     4  10  21  37  55  86 121 161 200 243 315 375
#     4   9  19  36  59  84 119 158 199 258 304 363
#
# _framework density 21.056965000000002
#
# number of rings (size 3 to 8) (size 9 to 14) (size 15 to 20)
#    0.000    2.000    3.333    0.500    3.500    0.000 
#    0.000    2.500    0.000    4.000    0.000    0.000 
#    0.000    0.000    0.000    0.000    0.000    0.000 
#
# Total GULP energy -267343.091329 kJ/mol
# GULP energy per Si atom -5569.647736 kJ/mol
# Density = 2.100904 g / cm^3
# Si number density = 21.056965 Si / 1000 Ang^3
#
#
#
# Elastic Constant Matrix: (Units=GPa)
#
#
# Indices 1 2 3 4 5 6 
#
# 1 106.0986 62.8614 7.0314 0.0000 0.0000 0.0000
# 2 62.8614 165.0706 19.4613 0.0000 0.0000 0.0000
# 3 7.0314 19.4613 26.8015 0.0000 0.0000 0.0000
# 4 0.0000 0.0000 0.0000 47.8395 0.0000 0.0000
# 5 0.0000 0.0000 0.0000 0.0000 11.3782 0.0000
# 6 0.0000 0.0000 0.0000 0.0000 0.0000 34.9821
#
#
#
# Elastic Compliance Matrix: (Units=1/GPa)
#
#
# Indices 1 2 3 4 5 6 
#
# 1 0.012172 -0.004658 0.000189 0.000000 0.000000 0.000000
# 2 -0.004658 0.008407 -0.004883 0.000000 0.000000 0.000000
# 3 0.000189 -0.004883 0.040807 0.000000 0.000000 0.000000
# 4 0.000000 0.000000 0.000000 0.020903 0.000000 0.000000
# 5 0.000000 0.000000 0.000000 0.000000 0.087887 0.000000
# 6 0.000000 0.000000 0.000000 0.000000 0.000000 0.028586
#
#
# Mechanical properties :
#
#
# Convention : Reuss Voigt Hill
#
# Bulk Modulus (GPa) = 23.42835 52.96432 38.19634
# Shear Modulus (GPa) = 21.58007 32.74772 27.16389
#
# Velocity S-wave (km/s) = 3.20479 3.94788 3.59558
# Velocity P-wave (km/s) = 4.98443 6.78148 5.95118
#
# Compressibility (1/GPa) = 0.04268332
#
# Stress axis : x y z
#
# Youngs Moduli (GPa) = 82.15407 118.94304 24.50531
#
# Poissons Ratio (x) = 0.55399 -0.00462
# Poissons Ratio (y) = 0.38264 0.11966
# Poissons Ratio (z) = -0.01550 0.58079
#
# Static dielectric constant tensor:
#      x y z
#    x 1.838890 0.000000 0.000000 
#    y 0.000000 1.792370 0.000000 
#    z 0.000000 0.000000 2.096320 
# 
# From -- ./inp_files/16254.got.cif
#   From: 2010.05.17/outbox.cif.g08.bks.cpg/sg64_9_cif.got.tgz:16254.got - 2010.06.03 16:29:19.
