data_PCOD9476798
_publ_section_title
;
Structure prediction by ZEFSAII (Michael W. Deem and Ramdas Pophale) SiO2 
 PCOD9476798
Probable space group: C M C A
;
_chemical_formula_sum "Si O2"
_cell_formula_units_Z 104
_cell_length_a 24.724894
_cell_length_b 18.948169
_cell_length_c 12.979678
_cell_angle_alpha 90.000000
_cell_angle_beta 90.000000
_cell_angle_gamma 90.000000
_cell_volume 6080.868427
_symmetry_space_group_name_H-M "C M C A"
_symmetry_group_IT_number 64
_symmetry_cell_setting 'orthorhombic'
loop_
_space_group_symop_operation_xyz
x,y,z
-x,1/2-y,1/2+z
x,-y,-z
-x,1/2+y,1/2-z
-x,-y,-z
x,1/2+y,1/2-z
-x,y,z
x,1/2-y,1/2+z
1/2+x,1/2+y,z
1/2-x,-y,1/2+z
1/2+x,1/2-y,-z
1/2-x,y,1/2-z
1/2-x,1/2-y,-z
1/2+x,y,1/2-z
1/2-x,1/2+y,z
1/2+x,-y,1/2+z
loop_
_atom_site_type_symbol
_atom_site_label
_atom_site_fract_x
_atom_site_fract_y
_atom_site_fract_z
Si Si1 0.850114 0.500000 0.500000
Si Si2 0.310974 0.034198 0.277437
Si Si3 0.939898 0.116899 0.990973
Si Si4 0.619609 0.333957 0.813852
Si Si5 0.310657 0.265052 0.461495
Si Si6 0.311456 0.621739 0.709905
Si Si7 0.885357 0.721629 0.648574
O O1 0.815277 0.517424 0.399741
O O2 0.891055 0.562787 0.529146
O O3 0.250000 0.055591 0.250000
O O4 0.352943 0.097669 0.262681
O O5 0.323946 0.961633 0.216751
O O6 0.932026 0.180237 0.910795
O O7 0.000000 0.087116 0.983811
O O8 0.926258 0.144001 0.105420
O O9 0.666428 0.293710 0.880841
O O10 0.597683 0.280244 0.729845
O O11 0.250000 0.250000 0.500000
O O12 0.314423 0.339100 0.400293
O O13 0.348451 0.257869 0.561098
O O14 0.250000 0.629076 0.750000
O O15 0.349611 0.665002 0.787785
#
# Coordination Sequence:
#
# PCOD9476798 Si02
#       7
#     8  16  16  16  16  16  16
#     4  10  19  38  56  80 114 136 185 226 270 334
#     4  10  21  33  51  76 114 150 176 218 264 317
#     4  10  20  36  59  80 101 139 183 237 283 309
#     4   9  22  34  49  78 111 137 179 223 266 330
#     4  10  19  30  53  72 105 146 183 212 259 328
#     4  10  18  31  49  75 106 143 182 218 259 316
#     4  10  19  35  51  78 106 137 179 224 268 325
#
# _framework density 17.102820000000001
#
# number of rings (size 3 to 8) (size 9 to 14) (size 15 to 20)
#    0.000    2.154    3.077    0.231    2.154    0.615 
#    0.000    0.000    0.000    0.000    0.000    0.000 
#    0.000    7.077    0.000    0.000    0.000    0.000 
#
# Total GULP energy -289900.970655 kJ/mol
# GULP energy per Si atom -5575.018666 kJ/mol
# Density = 1.706389 g / cm^3
# Si number density = 17.102820 Si / 1000 Ang^3
#
#
#
# Elastic Constant Matrix: (Units=GPa)
#
#
# Indices 1 2 3 4 5 6 
#
# 1 58.5508 -1.3217 24.4187 0.0000 0.0000 0.0000
# 2 -1.3217 59.2651 19.5901 0.0000 0.0000 0.0000
# 3 24.4187 19.5901 60.8228 0.0000 0.0000 0.0000
# 4 0.0000 0.0000 0.0000 29.0031 0.0000 0.0000
# 5 0.0000 0.0000 0.0000 0.0000 3.7481 0.0000
# 6 0.0000 0.0000 0.0000 0.0000 0.0000 -4.7964
#
#
#
# Elastic Compliance Matrix: (Units=1/GPa)
#
#
# Indices 1 2 3 4 5 6 
#
# 1 0.021207 0.003679 -0.009699 0.000000 0.000000 0.000000
# 2 0.003679 0.019522 -0.007765 0.000000 0.000000 0.000000
# 3 -0.009699 -0.007765 0.022836 0.000000 0.000000 0.000000
# 4 0.000000 0.000000 0.000000 0.034479 0.000000 0.000000
# 5 0.000000 0.000000 0.000000 0.000000 0.266800 0.000000
# 6 0.000000 0.000000 0.000000 0.000000 0.000000 -0.208489
#
#
# Mechanical properties :
#
#
# Convention : Reuss Voigt Hill
#
# Bulk Modulus (GPa) = 27.78120 29.33478 28.55799
# Shear Modulus (GPa) = 25.52015 14.65440 20.08728
#
# Velocity S-wave (km/s) = 3.86704 2.93036 3.43082
# Velocity P-wave (km/s) = 6.01810 5.35150 5.69457
#
# Compressibility (1/GPa) = 0.03599557
#
# Stress axis : x y z
#
# Youngs Moduli (GPa) = 47.15370 51.22423 43.79047
#
# Poissons Ratio (x) = -0.18845 0.42473
# Poissons Ratio (y) = -0.17348 0.34002
# Poissons Ratio (z) = 0.45735 0.39774
#
# Static dielectric constant tensor:
#      x y z
#    x 1.548140 0.000000 0.000000 
#    y 0.000000 1.623720 0.000000 
#    z 0.000000 0.000000 1.577620 
# 
# From -- ./inp_files/19200.got.cif
#   From: 2010.05.17/outbox.cif.g08.bks.cpg/sg64_10_cif.got.tgz:19200.got - 2010.06.03 16:29:19.
