data_PCOD9476815
_publ_section_title
;
Structure prediction by ZEFSAII (Michael W. Deem and Ramdas Pophale) SiO2 
 PCOD9476815
Probable space group: C M C A
;
_chemical_formula_sum "Si O2"
_cell_formula_units_Z 80
_cell_length_a 15.782522
_cell_length_b 26.541951
_cell_length_c 9.858239
_cell_angle_alpha 90.000000
_cell_angle_beta 90.000000
_cell_angle_gamma 90.000000
_cell_volume 4129.605725
_symmetry_space_group_name_H-M "C M C A"
_symmetry_group_IT_number 64
_symmetry_cell_setting 'orthorhombic'
loop_
_space_group_symop_operation_xyz
x,y,z
-x,1/2-y,1/2+z
x,-y,-z
-x,1/2+y,1/2-z
-x,-y,-z
x,1/2+y,1/2-z
-x,y,z
x,1/2-y,1/2+z
1/2+x,1/2+y,z
1/2-x,-y,1/2+z
1/2+x,1/2-y,-z
1/2-x,y,1/2-z
1/2-x,1/2-y,-z
1/2+x,y,1/2-z
1/2-x,1/2+y,z
1/2+x,-y,1/2+z
loop_
_atom_site_type_symbol
_atom_site_label
_atom_site_fract_x
_atom_site_fract_y
_atom_site_fract_z
Si Si1 0.096520 0.635722 0.296997
Si Si2 0.137648 0.208305 0.978057
Si Si3 0.101884 0.943469 0.024385
Si Si4 0.351765 0.867675 0.250341
Si Si5 0.164950 0.677453 0.028201
O O1 0.094530 0.685693 0.389459
O O2 0.129838 0.593171 0.401476
O O3 0.152690 0.647227 0.166656
O O4 0.000000 0.623037 0.255822
O O5 0.112401 0.177122 0.844775
O O6 0.123195 0.267321 0.961671
O O7 0.237138 0.193121 0.000121
O O8 0.124479 0.918366 0.168841
O O9 0.000000 0.944068 0.017957
O O10 0.133567 0.000000 0.000000
O O11 0.250000 0.865687 0.250000
O O12 0.372888 0.855345 0.095166
#
# Coordination Sequence:
#
# PCOD9476815 Si02
#       5
#    16  16  16  16  16
#     4  10  20  32  49  75 101 128 167 209 248 293
#     4   9  18  33  51  71 103 143 166 185 239 310
#     4   9  19  38  57  69  94 138 174 203 257 323
#     4   9  18  32  51  77 102 126 167 212 246 290
#     4  10  18  31  52  76 102 132 167 204 240 288
#
# _framework density 19.372309000000001
#
# number of rings (size 3 to 8) (size 9 to 14) (size 15 to 20)
#    0.000    2.600    0.000    1.800    0.000    4.800 
#    0.000   11.000    0.000    3.600    0.000    0.000 
#    0.000    0.000    0.000    0.000    0.000    0.000 
#
# Total GULP energy -222908.305227 kJ/mol
# GULP energy per Si atom -5572.707631 kJ/mol
# Density = 1.932822 g / cm^3
# Si number density = 19.372309 Si / 1000 Ang^3
#
#
#
# Elastic Constant Matrix: (Units=GPa)
#
#
# Indices 1 2 3 4 5 6 
#
# 1 15.4194 10.6427 15.2869 0.0000 0.0000 0.0000
# 2 10.6427 126.6381 59.1334 0.0000 0.0000 0.0000
# 3 15.2869 59.1334 148.4149 0.0000 0.0000 0.0000
# 4 0.0000 0.0000 0.0000 10.9038 0.0000 0.0000
# 5 0.0000 0.0000 0.0000 0.0000 8.3585 0.0000
# 6 0.0000 0.0000 0.0000 0.0000 0.0000 51.8226
#
#
#
# Elastic Compliance Matrix: (Units=1/GPa)
#
#
# Indices 1 2 3 4 5 6 
#
# 1 0.073293 -0.003237 -0.006260 0.000000 0.000000 0.000000
# 2 -0.003237 0.009844 -0.003589 0.000000 0.000000 0.000000
# 3 -0.006260 -0.003589 0.008813 0.000000 0.000000 0.000000
# 4 0.000000 0.000000 0.000000 0.091711 0.000000 0.000000
# 5 0.000000 0.000000 0.000000 0.000000 0.119639 0.000000
# 6 0.000000 0.000000 0.000000 0.000000 0.000000 0.019297
#
#
# Mechanical properties :
#
#
# Convention : Reuss Voigt Hill
#
# Bulk Modulus (GPa) = 15.20230 51.17759 33.18995
# Shear Modulus (GPa) = 13.48821 27.91094 20.69958
#
# Velocity S-wave (km/s) = 2.64154 3.79986 3.27236
# Velocity P-wave (km/s) = 4.14344 6.76219 5.60782
#
# Compressibility (1/GPa) = 0.06577953
#
# Stress axis : x y z
#
# Youngs Moduli (GPa) = 13.64385 101.58089 113.47412
#
# Poissons Ratio (x) = 0.32878 0.71032
# Poissons Ratio (y) = 0.04416 0.40725
# Poissons Ratio (z) = 0.08541 0.36457
#
# Static dielectric constant tensor:
#      x y z
#    x 1.743880 0.000000 0.000000 
#    y 0.000000 1.685890 0.000000 
#    z 0.000000 0.000000 1.683650 
# 
# From -- ./inp_files/7009.got.cif
#   From: 2010.05.17/outbox.cif.g08.bks.cpg/sg64_4_cif.got.tgz:7009.got - 2010.06.03 16:29:19.
