data_PCOD9476775
_publ_section_title
;
Structure prediction by ZEFSAII (Michael W. Deem and Ramdas Pophale) SiO2 
 PCOD9476775
Probable space group: C M C A
;
_chemical_formula_sum "Si O2"
_cell_formula_units_Z 96
_cell_length_a 21.638515
_cell_length_b 7.448746
_cell_length_c 26.128745
_cell_angle_alpha 90.000000
_cell_angle_beta 90.000000
_cell_angle_gamma 90.000000
_cell_volume 4211.425947
_symmetry_space_group_name_H-M "C M C A"
_symmetry_group_IT_number 64
_symmetry_cell_setting 'orthorhombic'
loop_
_space_group_symop_operation_xyz
x,y,z
-x,1/2-y,1/2+z
x,-y,-z
-x,1/2+y,1/2-z
-x,-y,-z
x,1/2+y,1/2-z
-x,y,z
x,1/2-y,1/2+z
1/2+x,1/2+y,z
1/2-x,-y,1/2+z
1/2+x,1/2-y,-z
1/2-x,y,1/2-z
1/2-x,1/2-y,-z
1/2+x,y,1/2-z
1/2-x,1/2+y,z
1/2+x,-y,1/2+z
loop_
_atom_site_type_symbol
_atom_site_label
_atom_site_fract_x
_atom_site_fract_y
_atom_site_fract_z
Si Si1 0.812159 0.499158 0.782803
Si Si2 0.575190 0.714963 0.907040
Si Si3 0.071268 0.708535 0.981062
Si Si4 0.128429 0.654052 0.689246
Si Si5 0.000000 0.259212 0.673970
Si Si6 0.500000 0.338573 0.215467
Si Si7 0.879415 0.119892 0.620175
O O1 0.750000 0.521031 0.750000
O O2 0.817737 0.298304 0.804486
O O3 0.862178 0.521712 0.736771
O O4 0.828670 0.616847 0.833505
O O5 0.500000 0.465376 0.809406
O O6 0.615420 0.590888 0.868417
O O7 0.601855 0.913377 0.893459
O O8 0.585188 0.682885 0.967102
O O9 0.121957 0.712666 0.935952
O O10 0.000000 0.752883 0.964310
O O11 0.068154 0.500000 0.000000
O O12 0.063245 0.753330 0.699586
O O13 0.000000 0.143044 0.724740
O O14 0.939187 0.209537 0.644350
O O15 0.000000 0.708311 0.600183
#
# Coordination Sequence:
#
# PCOD9476775 Si02
#       7
#    16  16  16  16   8   8  16
#     4  11  24  38  54  78 109 151 193 230 270 326
#     4   9  16  28  52  83 115 142 182 232 282 340
#     4   8  13  25  47  81 112 142 182 230 278 331
#     4  11  22  37  57  79 114 145 181 236 286 343
#     4  12  22  32  50  85 118 150 182 224 291 348
#     4  12  24  34  53  85 117 141 182 229 293 348
#     4  10  18  30  54  78 113 148 185 232 271 336
#
# _framework density 22.795131000000001
#
# number of rings (size 3 to 8) (size 9 to 14) (size 15 to 20)
#    0.000    1.833    4.167    2.500    2.333    0.000 
#    0.000    0.000    0.000    3.000    0.000    2.333 
#    0.000    0.000    0.000    0.000    0.000    0.000 
#
# Total GULP energy -267440.010674 kJ/mol
# GULP energy per Si atom -5571.666889 kJ/mol
# Density = 2.274325 g / cm^3
# Si number density = 22.795131 Si / 1000 Ang^3
#
#
#
# Elastic Constant Matrix: (Units=GPa)
#
#
# Indices 1 2 3 4 5 6 
#
# 1 91.8787 10.7219 59.1807 0.0000 0.0000 0.0000
# 2 10.7219 36.2528 29.3507 0.0000 0.0000 0.0000
# 3 59.1807 29.3507 185.2824 0.0000 0.0000 0.0000
# 4 0.0000 0.0000 0.0000 28.8061 0.0000 0.0000
# 5 0.0000 0.0000 0.0000 0.0000 33.5095 0.0000
# 6 0.0000 0.0000 0.0000 0.0000 0.0000 6.1900
#
#
#
# Elastic Compliance Matrix: (Units=1/GPa)
#
#
# Indices 1 2 3 4 5 6 
#
# 1 0.013714 -0.000585 -0.004288 0.000000 0.000000 0.000000
# 2 -0.000585 0.031667 -0.004830 0.000000 0.000000 0.000000
# 3 -0.004288 -0.004830 0.007532 0.000000 0.000000 0.000000
# 4 0.000000 0.000000 0.000000 0.034715 0.000000 0.000000
# 5 0.000000 0.000000 0.000000 0.000000 0.029842 0.000000
# 6 0.000000 0.000000 0.000000 0.000000 0.000000 0.161552
#
#
# Mechanical properties :
#
#
# Convention : Reuss Voigt Hill
#
# Bulk Modulus (GPa) = 29.84285 56.88007 43.36146
# Shear Modulus (GPa) = 16.15010 27.97850 22.06430
#
# Velocity S-wave (km/s) = 2.66463 3.50721 3.11455
# Velocity P-wave (km/s) = 4.75260 6.43487 5.65663
#
# Compressibility (1/GPa) = 0.03350887
#
# Stress axis : x y z
#
# Youngs Moduli (GPa) = 72.91843 31.57848 132.77071
#
# Poissons Ratio (x) = 0.01846 0.56929
# Poissons Ratio (y) = 0.04263 0.64124
# Poissons Ratio (z) = 0.31266 0.15251
#
# Static dielectric constant tensor:
#      x y z
#    x 1.870690 0.000000 0.000000 
#    y 0.000000 1.914900 0.000000 
#    z 0.000000 0.000000 2.023500 
# 
# From -- ./inp_files/50984.got.cif
#   From: 2010.05.17/outbox.cif.g08.bks.cpg/sg64_26_cif.got.tgz:50984.got - 2010.06.03 16:29:19.
