data_PCOD9476884
_publ_section_title
;
Structure prediction by ZEFSAII (Michael W. Deem and Ramdas Pophale) SiO2 
 PCOD9476884
Probable space group: C M C A
;
_chemical_formula_sum "Si O2"
_cell_formula_units_Z 80
_cell_length_a 9.041456
_cell_length_b 19.029033
_cell_length_c 25.293045
_cell_angle_alpha 90.000000
_cell_angle_beta 90.000000
_cell_angle_gamma 90.000000
_cell_volume 4351.672555
_symmetry_space_group_name_H-M "C M C A"
_symmetry_group_IT_number 64
_symmetry_cell_setting 'orthorhombic'
loop_
_space_group_symop_operation_xyz
x,y,z
-x,1/2-y,1/2+z
x,-y,-z
-x,1/2+y,1/2-z
-x,-y,-z
x,1/2+y,1/2-z
-x,y,z
x,1/2-y,1/2+z
1/2+x,1/2+y,z
1/2-x,-y,1/2+z
1/2+x,1/2-y,-z
1/2-x,y,1/2-z
1/2-x,1/2-y,-z
1/2+x,y,1/2-z
1/2-x,1/2+y,z
1/2+x,-y,1/2+z
loop_
_atom_site_type_symbol
_atom_site_label
_atom_site_fract_x
_atom_site_fract_y
_atom_site_fract_z
Si Si1 0.323582 0.018275 0.695972
Si Si2 0.326353 0.276909 0.917761
Si Si3 0.672567 0.605755 0.356338
Si Si4 0.827870 0.965950 0.410337
Si Si5 0.326815 0.853608 0.469421
O O1 0.500000 0.021883 0.697303
O O2 0.250000 0.044039 0.750000
O O3 0.266948 0.937896 0.686408
O O4 0.256509 0.055874 0.643938
O O5 0.500000 0.269119 0.906241
O O6 0.242539 0.321114 0.873099
O O7 0.252079 0.202777 0.931153
O O8 0.312190 0.322609 0.971768
O O9 0.500000 0.610795 0.341452
O O10 0.680049 0.550623 0.405979
O O11 0.749911 0.927881 0.458605
O O12 0.000000 0.946686 0.408299
O O13 0.500000 0.858521 0.457435
#
# Coordination Sequence:
#
# PCOD9476884 Si02
#       5
#    16  16  16  16  16
#     4  10  18  32  53  76 101 128 162 203 251 299
#     4  10  20  33  50  72 101 137 172 206 247 295
#     4   9  19  33  50  75 101 130 167 207 249 292
#     4   9  19  33  50  75 101 130 167 207 249 292
#     4  10  20  33  50  72 101 137 172 206 247 295
#
# _framework density 18.383735999999999
#
# number of rings (size 3 to 8) (size 9 to 14) (size 15 to 20)
#    1.200    1.200    0.000    3.600    0.000    3.200 
#    0.000    4.000    0.000    1.200    0.000    8.400 
#    0.000    0.000    0.000    0.000    0.000    0.000 
#
# Total GULP energy -222700.260192 kJ/mol
# GULP energy per Si atom -5567.506505 kJ/mol
# Density = 1.834189 g / cm^3
# Si number density = 18.383736 Si / 1000 Ang^3
#
#
#
# Elastic Constant Matrix: (Units=GPa)
#
#
# Indices 1 2 3 4 5 6 
#
# 1 136.8627 22.4986 19.9742 0.0000 0.0000 0.0000
# 2 22.4986 28.1793 -0.8051 0.0000 0.0000 0.0000
# 3 19.9742 -0.8051 23.6868 0.0000 0.0000 0.0000
# 4 0.0000 0.0000 0.0000 19.5984 0.0000 0.0000
# 5 0.0000 0.0000 0.0000 0.0000 24.4698 0.0000
# 6 0.0000 0.0000 0.0000 0.0000 0.0000 22.8531
#
#
#
# Elastic Compliance Matrix: (Units=1/GPa)
#
#
# Indices 1 2 3 4 5 6 
#
# 1 0.009907 -0.008157 -0.008632 0.000000 0.000000 0.000000
# 2 -0.008157 0.042237 0.008314 0.000000 0.000000 0.000000
# 3 -0.008632 0.008314 0.049779 0.000000 0.000000 0.000000
# 4 0.000000 0.000000 0.000000 0.051025 0.000000 0.000000
# 5 0.000000 0.000000 0.000000 0.000000 0.040867 0.000000
# 6 0.000000 0.000000 0.000000 0.000000 0.000000 0.043758
#
#
# Mechanical properties :
#
#
# Convention : Reuss Voigt Hill
#
# Bulk Modulus (GPa) = 11.76829 30.22936 20.99883
# Shear Modulus (GPa) = 17.67751 23.18834 20.43292
#
# Velocity S-wave (km/s) = 3.10431 3.55540 3.33748
# Velocity P-wave (km/s) = 4.38911 5.77354 5.12826
#
# Compressibility (1/GPa) = 0.08497409
#
# Stress axis : x y z
#
# Youngs Moduli (GPa) = 100.93714 23.67600 20.08887
#
# Poissons Ratio (x) = 0.19312 0.17340
# Poissons Ratio (y) = 0.82330 -0.16701
# Poissons Ratio (z) = 0.87125 -0.19684
#
# Static dielectric constant tensor:
#      x y z
#    x 1.606020 0.000000 0.000000 
#    y 0.000000 1.638320 0.000000 
#    z 0.000000 0.000000 1.662200 
# 
# From -- ./inp_files/51937.got.cif
#   From: 2010.05.17/outbox.cif.g08.bks.cpg/sg64_26_cif.got.tgz:51937.got - 2010.06.03 16:29:19.
