data_PCOD9476933
_publ_section_title
;
Structure prediction by ZEFSAII (Michael W. Deem and Ramdas Pophale) SiO2 
 PCOD9476933
Probable space group: C M C A
;
_chemical_formula_sum "Si O2"
_cell_formula_units_Z 112
_cell_length_a 14.028447
_cell_length_b 24.105637
_cell_length_c 15.250263
_cell_angle_alpha 90.000000
_cell_angle_beta 90.000000
_cell_angle_gamma 90.000000
_cell_volume 5157.099866
_symmetry_space_group_name_H-M "C M C A"
_symmetry_group_IT_number 64
_symmetry_cell_setting 'orthorhombic'
loop_
_space_group_symop_operation_xyz
x,y,z
-x,1/2-y,1/2+z
x,-y,-z
-x,1/2+y,1/2-z
-x,-y,-z
x,1/2+y,1/2-z
-x,y,z
x,1/2-y,1/2+z
1/2+x,1/2+y,z
1/2-x,-y,1/2+z
1/2+x,1/2-y,-z
1/2-x,y,1/2-z
1/2-x,1/2-y,-z
1/2+x,y,1/2-z
1/2-x,1/2+y,z
1/2+x,-y,1/2+z
loop_
_atom_site_type_symbol
_atom_site_label
_atom_site_fract_x
_atom_site_fract_y
_atom_site_fract_z
Si Si1 0.613854 0.148267 0.193727
Si Si2 0.281543 0.061066 0.535754
Si Si3 0.108713 0.871733 0.393717
Si Si4 0.644529 0.250379 0.961329
Si Si5 0.612756 0.389819 0.188553
Si Si6 0.321122 0.632906 0.120156
Si Si7 0.896560 0.230112 0.844080
O O1 0.500000 0.144025 0.167547
O O2 0.629708 0.119379 0.287427
O O3 0.705319 0.130326 0.135064
O O4 0.638114 0.214253 0.201680
O O5 0.183855 0.094421 0.549865
O O6 0.334418 0.065205 0.629384
O O7 0.341822 0.094012 0.462319
O O8 0.265425 0.000000 0.500000
O O9 0.122268 0.805677 0.409259
O O10 0.123395 0.890047 0.292902
O O11 0.000000 0.884432 0.418267
O O12 0.640403 0.306009 0.905048
O O13 0.750000 0.250000 0.000000
O O14 0.592063 0.254784 0.054090
O O15 0.500000 0.393130 0.167782
O O16 0.654339 0.328960 0.161162
O O17 0.000000 0.219247 0.802579
#
# Coordination Sequence:
#
# PCOD9476933 Si02
#       7
#    16  16  16  16  16  16  16
#     4  10  22  39  60  93 134 168 207 265 328 399
#     4  12  26  46  70  93 128 179 231 285 333 387
#     4  11  24  43  69 103 135 174 225 278 339 405
#     4  12  19  34  63  99 134 169 206 262 328 400
#     4  10  22  42  67  98 133 173 223 274 334 401
#     4  11  23  40  63  95 128 172 221 260 330 399
#     4  10  18  32  58  93 132 169 200 248 320 392
#
# _framework density 21.717634
#
# number of rings (size 3 to 8) (size 9 to 14) (size 15 to 20)
#    0.000    1.143    4.286    1.714    0.000    5.143 
#    5.143    0.000    0.000    0.000    0.000    0.000 
#    0.000    0.000    0.000    0.000    0.000    0.000 
#
# Total GULP energy -312386.383260 kJ/mol
# GULP energy per Si atom -5578.328273 kJ/mol
# Density = 2.166820 g / cm^3
# Si number density = 21.717634 Si / 1000 Ang^3
#
#
#
# Elastic Constant Matrix: (Units=GPa)
#
#
# Indices 1 2 3 4 5 6 
#
# 1 84.2285 9.8044 18.4311 0.0000 0.0000 0.0000
# 2 9.8044 61.1889 33.3355 0.0000 0.0000 0.0000
# 3 18.4311 33.3355 100.8190 0.0000 0.0000 0.0000
# 4 0.0000 0.0000 0.0000 1.2279 0.0000 0.0000
# 5 0.0000 0.0000 0.0000 0.0000 1.7954 0.0000
# 6 0.0000 0.0000 0.0000 0.0000 0.0000 44.8545
#
#
#
# Elastic Compliance Matrix: (Units=1/GPa)
#
#
# Indices 1 2 3 4 5 6 
#
# 1 0.012409 -0.000918 -0.001965 0.000000 0.000000 0.000000
# 2 -0.000918 0.020001 -0.006446 0.000000 0.000000 0.000000
# 3 -0.001965 -0.006446 0.012409 0.000000 0.000000 0.000000
# 4 0.000000 0.000000 0.000000 0.814409 0.000000 0.000000
# 5 0.000000 0.000000 0.000000 0.000000 0.556966 0.000000
# 6 0.000000 0.000000 0.000000 0.000000 0.000000 0.022294
#
#
# Mechanical properties :
#
#
# Convention : Reuss Voigt Hill
#
# Bulk Modulus (GPa) = 38.22202 41.04206 39.63204
# Shear Modulus (GPa) = 3.41095 21.88660 12.64877
#
# Velocity S-wave (km/s) = 1.25459 3.17800 2.41595
# Velocity P-wave (km/s) = 4.44257 5.69257 5.10596
#
# Compressibility (1/GPa) = 0.02616293
#
# Stress axis : x y z
#
# Youngs Moduli (GPa) = 80.58467 49.99633 80.58503
#
# Poissons Ratio (x) = 0.04588 0.15836
# Poissons Ratio (y) = 0.07396 0.51942
# Poissons Ratio (z) = 0.15836 0.32226
#
# Static dielectric constant tensor:
#      x y z
#    x 1.764610 0.000000 0.000000 
#    y 0.000000 1.784060 0.000000 
#    z 0.000000 0.000000 2.254970 
# 
# From -- ./inp_files/24274.got.cif
#   From: 2010.05.17/outbox.cif.g08.bks.cpg/sg64_13_cif.got.tgz:24274.got - 2010.06.03 16:29:19.
