data_PCOD9476797
_publ_section_title
;
Structure prediction by ZEFSAII (Michael W. Deem and Ramdas Pophale) SiO2 
 PCOD9476797
Probable space group: C M C A
;
_chemical_formula_sum "Si O2"
_cell_formula_units_Z 96
_cell_length_a 23.158898
_cell_length_b 9.132654
_cell_length_c 22.855016
_cell_angle_alpha 90.000000
_cell_angle_beta 90.000000
_cell_angle_gamma 90.000000
_cell_volume 4833.886221
_symmetry_space_group_name_H-M "C M C A"
_symmetry_group_IT_number 64
_symmetry_cell_setting 'orthorhombic'
loop_
_space_group_symop_operation_xyz
x,y,z
-x,1/2-y,1/2+z
x,-y,-z
-x,1/2+y,1/2-z
-x,-y,-z
x,1/2+y,1/2-z
-x,y,z
x,1/2-y,1/2+z
1/2+x,1/2+y,z
1/2-x,-y,1/2+z
1/2+x,1/2-y,-z
1/2-x,y,1/2-z
1/2-x,1/2-y,-z
1/2+x,y,1/2-z
1/2-x,1/2+y,z
1/2+x,-y,1/2+z
loop_
_atom_site_type_symbol
_atom_site_label
_atom_site_fract_x
_atom_site_fract_y
_atom_site_fract_z
Si Si1 0.935543 0.854084 0.893439
Si Si2 0.164492 0.730325 0.148341
Si Si3 0.119508 0.422806 0.155516
Si Si4 0.211943 0.824674 0.824256
Si Si5 0.109271 0.978571 0.215785
Si Si6 0.679257 0.999380 0.434118
O O1 0.918524 0.684506 0.884006
O O2 0.929199 0.926697 0.828568
O O3 0.885931 0.934869 0.930489
O O4 0.000000 0.872237 0.915617
O O5 0.139990 0.575061 0.128665
O O6 0.221695 0.707055 0.187944
O O7 0.118723 0.819237 0.187680
O O8 0.178894 0.839572 0.095244
O O9 0.175565 0.324538 0.172125
O O10 0.090684 0.463124 0.217712
O O11 0.172162 0.940531 0.789197
O O12 0.213482 0.896551 0.889388
O O13 0.700401 0.000000 0.500000
#
# Coordination Sequence:
#
# PCOD9476797 Si02
#       6
#    16  16  16  16  16  16
#     4   9  20  37  52  70  98 129 166 214 260 298
#     4  10  18  31  50  75 103 133 168 200 237 295
#     4  10  18  31  49  75 104 130 165 203 238 284
#     4   9  19  31  47  74 107 135 160 196 239 290
#     4   9  19  31  48  74 106 139 165 192 237 301
#     4   9  20  37  53  71  96 130 170 209 256 308
#
# _framework density 19.859798000000001
#
# number of rings (size 3 to 8) (size 9 to 14) (size 15 to 20)
#    0.000    3.333    0.000    4.000    0.000    5.667 
#    0.000    6.667    0.000    1.000    0.000    0.000 
#    0.000    0.000    0.000    0.000    0.000    0.000 
#
# Total GULP energy -267670.196712 kJ/mol
# GULP energy per Si atom -5576.462431 kJ/mol
# Density = 1.981460 g / cm^3
# Si number density = 19.859798 Si / 1000 Ang^3
#
#
#
# Elastic Constant Matrix: (Units=GPa)
#
#
# Indices 1 2 3 4 5 6 
#
# 1 46.5901 7.4309 -30.1490 0.0000 0.0000 0.0000
# 2 7.4309 134.7647 0.9342 0.0000 0.0000 0.0000
# 3 -30.1490 0.9342 44.4671 0.0000 0.0000 0.0000
# 4 0.0000 0.0000 0.0000 10.3382 0.0000 0.0000
# 5 0.0000 0.0000 0.0000 0.0000 6.1494 0.0000
# 6 0.0000 0.0000 0.0000 0.0000 0.0000 5.2121
#
#
#
# Elastic Compliance Matrix: (Units=1/GPa)
#
#
# Indices 1 2 3 4 5 6 
#
# 1 0.038962 -0.002332 0.026465 0.000000 0.000000 0.000000
# 2 -0.002332 0.007561 -0.001740 0.000000 0.000000 0.000000
# 3 0.026465 -0.001740 0.040469 0.000000 0.000000 0.000000
# 4 0.000000 0.000000 0.000000 0.096729 0.000000 0.000000
# 5 0.000000 0.000000 0.000000 0.000000 0.162617 0.000000
# 6 0.000000 0.000000 0.000000 0.000000 0.000000 0.191863
#
#
# Mechanical properties :
#
#
# Convention : Reuss Voigt Hill
#
# Bulk Modulus (GPa) = 7.58848 20.25046 13.91947
# Shear Modulus (GPa) = 9.30511 20.84697 15.07604
#
# Velocity S-wave (km/s) = 2.16693 3.24343 2.75821
# Velocity P-wave (km/s) = 3.17649 4.92395 4.14339
#
# Compressibility (1/GPa) = 0.13177869
#
# Stress axis : x y z
#
# Youngs Moduli (GPa) = 25.66622 132.25798 24.71044
#
# Poissons Ratio (x) = 0.30840 -0.65397
# Poissons Ratio (y) = 0.05985 0.04299
# Poissons Ratio (z) = -0.67926 0.23011
#
# Static dielectric constant tensor:
#      x y z
#    x 1.729370 0.000000 0.000000 
#    y 0.000000 1.703610 0.000000 
#    z 0.000000 0.000000 1.731590 
# 
# From -- ./inp_files/51206.got.cif
#   From: 2010.05.17/outbox.cif.g08.bks.cpg/sg64_26_cif.got.tgz:51206.got - 2010.06.03 16:29:19.
