data_PCOD9476551
_publ_section_title
;
Structure prediction by ZEFSAII (Michael W. Deem and Ramdas Pophale) SiO2 
 PCOD9476551
Probable space group: C M C A
;
_chemical_formula_sum "Si O2"
_cell_formula_units_Z 96
_cell_length_a 30.410419
_cell_length_b 34.413140
_cell_length_c 5.060013
_cell_angle_alpha 90.000000
_cell_angle_beta 90.000000
_cell_angle_gamma 90.000000
_cell_volume 5295.394718
_symmetry_space_group_name_H-M "C M C A"
_symmetry_group_IT_number 64
_symmetry_cell_setting 'orthorhombic'
loop_
_space_group_symop_operation_xyz
x,y,z
-x,1/2-y,1/2+z
x,-y,-z
-x,1/2+y,1/2-z
-x,-y,-z
x,1/2+y,1/2-z
-x,y,z
x,1/2-y,1/2+z
1/2+x,1/2+y,z
1/2-x,-y,1/2+z
1/2+x,1/2-y,-z
1/2-x,y,1/2-z
1/2-x,1/2-y,-z
1/2+x,y,1/2-z
1/2-x,1/2+y,z
1/2+x,-y,1/2+z
loop_
_atom_site_type_symbol
_atom_site_label
_atom_site_fract_x
_atom_site_fract_y
_atom_site_fract_z
Si Si1 0.280973 0.000000 0.500000
Si Si2 0.606695 0.358878 0.996056
Si Si3 0.049654 0.623681 0.991287
Si Si4 0.415568 0.458336 0.415664
Si Si5 0.901777 0.723065 0.362003
Si Si6 0.000000 0.226427 0.030865
Si Si7 0.641750 0.559365 0.080413
O O1 0.312922 0.963107 0.543004
O O2 0.250000 0.994062 0.250000
O O3 0.569747 0.370977 0.781154
O O4 0.624242 0.316460 0.916845
O O5 0.640972 0.394524 0.981287
O O6 0.583062 0.357328 0.280834
O O7 0.051483 0.577688 0.929624
O O8 0.000000 0.638350 0.967395
O O9 0.433876 0.500000 0.500000
O O10 0.377051 0.448403 0.627359
O O11 0.393118 0.458200 0.129435
O O12 0.895336 0.756126 0.583162
O O13 0.953046 0.709381 0.390982
O O14 0.000000 0.264980 0.218934
#
# Coordination Sequence:
#
# PCOD9476551 Si02
#       7
#     8  16  16  16  16   8  16
#     4  12  22  34  58  88 109 130 157 194 236 304
#     4  10  21  35  51  67  97 140 165 214 264 297
#     4  10  21  31  45  69  93 128 180 223 253 289
#     4  10  17  32  52  66  94 138 168 206 250 286
#     4  10  19  32  47  68  92 125 173 217 259 304
#     4   8  16  26  38  60  86 115 148 205 262 280
#     4  10  20  35  52  75 104 133 166 190 246 310
#
# _framework density 18.128958999999998
#
# number of rings (size 3 to 8) (size 9 to 14) (size 15 to 20)
#    0.000    2.000    1.667    2.500    2.333    0.333 
#    3.000    0.000    0.000    6.000    0.000    0.000 
#    0.000    4.000    0.000    0.000    0.000    0.000 
#
# Total GULP energy -267790.453968 kJ/mol
# GULP energy per Si atom -5578.967791 kJ/mol
# Density = 1.808770 g / cm^3
# Si number density = 18.128959 Si / 1000 Ang^3
#
#
#
# Elastic Constant Matrix: (Units=GPa)
#
#
# Indices 1 2 3 4 5 6 
#
# 1 55.9152 17.0213 10.1035 0.0000 0.0000 0.0000
# 2 17.0213 88.5985 -15.0079 0.0000 0.0000 0.0000
# 3 10.1035 -15.0079 62.5779 0.0000 0.0000 0.0000
# 4 0.0000 0.0000 0.0000 19.9518 0.0000 0.0000
# 5 0.0000 0.0000 0.0000 0.0000 12.9706 0.0000
# 6 0.0000 0.0000 0.0000 0.0000 0.0000 15.4710
#
#
#
# Elastic Compliance Matrix: (Units=1/GPa)
#
#
# Indices 1 2 3 4 5 6 
#
# 1 0.020066 -0.004590 -0.004341 0.000000 0.000000 0.000000
# 2 -0.004590 0.012815 0.003814 0.000000 0.000000 0.000000
# 3 -0.004341 0.003814 0.017596 0.000000 0.000000 0.000000
# 4 0.000000 0.000000 0.000000 0.050121 0.000000 0.000000
# 5 0.000000 0.000000 0.000000 0.000000 0.077097 0.000000
# 6 0.000000 0.000000 0.000000 0.000000 0.000000 0.064637
#
#
# Mechanical properties :
#
#
# Convention : Reuss Voigt Hill
#
# Bulk Modulus (GPa) = 24.84863 25.70283 25.27573
# Shear Modulus (GPa) = 18.79848 22.67700 20.73774
#
# Velocity S-wave (km/s) = 3.22363 3.54060 3.38583
# Velocity P-wave (km/s) = 5.25282 5.56085 5.40903
#
# Compressibility (1/GPa) = 0.04024368
#
# Stress axis : x y z
#
# Youngs Moduli (GPa) = 49.83587 78.03429 56.83207
#
# Poissons Ratio (x) = 0.35820 0.24669
# Poissons Ratio (y) = 0.22876 -0.21678
# Poissons Ratio (z) = 0.21632 -0.29766
#
# Static dielectric constant tensor:
#      x y z
#    x 1.573880 0.000000 0.000000 
#    y 0.000000 1.686380 0.000000 
#    z 0.000000 0.000000 1.625630 
# 
# From -- ./inp_files/3446.got.cif
#   From: 2010.05.17/outbox.cif.g08.bks.cpg/sg64_2_cif.got.tgz:3446.got - 2010.06.03 16:29:19.
