data_PCOD9476316
_publ_section_title
;
Structure prediction by ZEFSAII (Michael W. Deem and Ramdas Pophale) SiO2 
 PCOD9476316
Probable space group: C M C A
;
_chemical_formula_sum "Si O2"
_cell_formula_units_Z 72
_cell_length_a 24.257595
_cell_length_b 15.536119
_cell_length_c 9.503556
_cell_angle_alpha 90.000000
_cell_angle_beta 90.000000
_cell_angle_gamma 90.000000
_cell_volume 3581.594530
_symmetry_space_group_name_H-M "C M C A"
_symmetry_group_IT_number 64
_symmetry_cell_setting 'orthorhombic'
loop_
_space_group_symop_operation_xyz
x,y,z
-x,1/2-y,1/2+z
x,-y,-z
-x,1/2+y,1/2-z
-x,-y,-z
x,1/2+y,1/2-z
-x,y,z
x,1/2-y,1/2+z
1/2+x,1/2+y,z
1/2-x,-y,1/2+z
1/2+x,1/2-y,-z
1/2-x,y,1/2-z
1/2-x,1/2-y,-z
1/2+x,y,1/2-z
1/2-x,1/2+y,z
1/2+x,-y,1/2+z
loop_
_atom_site_type_symbol
_atom_site_label
_atom_site_fract_x
_atom_site_fract_y
_atom_site_fract_z
Si Si1 0.500000 0.513148 0.834844
Si Si2 0.729313 0.826515 0.906387
Si Si3 0.500000 0.096297 0.074763
Si Si4 0.623029 0.538270 0.743566
Si Si5 0.792015 0.500000 0.500000
Si Si6 0.618321 0.873513 0.967769
O O1 0.500000 0.426356 0.739786
O O2 0.560003 0.553612 0.796630
O O3 0.500000 0.500000 0.000000
O O4 0.750000 0.820833 0.750000
O O5 0.663620 0.813597 0.903091
O O6 0.752545 0.918616 0.964066
O O7 0.750000 0.750000 0.000000
O O8 0.554217 0.146522 0.030484
O O9 0.500000 0.000000 0.000000
O O10 0.620652 0.455698 0.638486
O O11 0.637487 0.610056 0.628112
O O12 0.667110 0.522450 0.867804
#
# Coordination Sequence:
#
# PCOD9476316 Si02
#       6
#     8  16   8  16   8  16
#     4  10  16  26  48  92 136 154 206 275 316 375
#     4  12  29  45  65  96 133 173 218 272 330 392
#     4  10  16  30  58  92 120 161 212 260 322 384
#     4  10  18  32  59  94 125 166 214 266 319 389
#     4  12  24  39  66  93 126 172 220 264 332 384
#     4  10  19  37  60  87 131 164 214 264 323 390
#
# _framework density 20.102777
#
# number of rings (size 3 to 8) (size 9 to 14) (size 15 to 20)
#    0.000    1.333    7.778    1.333    3.111    0.000 
#    0.000    0.000    0.000    4.000    0.000    0.000 
#    0.000    0.000    0.000    0.000    0.000    0.000 
#
# Total GULP energy -200492.479926 kJ/mol
# GULP energy per Si atom -5569.235554 kJ/mol
# Density = 2.005702 g / cm^3
# Si number density = 20.102777 Si / 1000 Ang^3
#
#
#
# Elastic Constant Matrix: (Units=GPa)
#
#
# Indices 1 2 3 4 5 6 
#
# 1 159.6452 21.5694 39.8729 0.0000 0.0000 0.0000
# 2 21.5694 50.6586 23.0787 0.0000 0.0000 0.0000
# 3 39.8729 23.0787 147.8177 0.0000 0.0000 0.0000
# 4 0.0000 0.0000 0.0000 8.3388 0.0000 0.0000
# 5 0.0000 0.0000 0.0000 0.0000 35.5089 0.0000
# 6 0.0000 0.0000 0.0000 0.0000 0.0000 3.1060
#
#
#
# Elastic Compliance Matrix: (Units=1/GPa)
#
#
# Indices 1 2 3 4 5 6 
#
# 1 0.006950 -0.002266 -0.001521 0.000000 0.000000 0.000000
# 2 -0.002266 0.021991 -0.002822 0.000000 0.000000 0.000000
# 3 -0.001521 -0.002822 0.007616 0.000000 0.000000 0.000000
# 4 0.000000 0.000000 0.000000 0.119921 0.000000 0.000000
# 5 0.000000 0.000000 0.000000 0.000000 0.028162 0.000000
# 6 0.000000 0.000000 0.000000 0.000000 0.000000 0.321956
#
#
# Mechanical properties :
#
#
# Convention : Reuss Voigt Hill
#
# Bulk Modulus (GPa) = 42.84849 58.57372 50.71111
# Shear Modulus (GPa) = 9.47700 27.63077 18.55389
#
# Velocity S-wave (km/s) = 2.17359 3.71141 3.04131
# Velocity P-wave (km/s) = 5.25931 6.89685 6.13298
#
# Compressibility (1/GPa) = 0.02333805
#
# Stress axis : x y z
#
# Youngs Moduli (GPa) = 143.88624 45.47397 131.30355
#
# Poissons Ratio (x) = 0.10306 0.19970
# Poissons Ratio (y) = 0.32609 0.37055
# Poissons Ratio (z) = 0.21883 0.12833
#
# Static dielectric constant tensor:
#      x y z
#    x 1.786810 0.000000 0.000000 
#    y 0.000000 1.696970 0.000000 
#    z 0.000000 0.000000 1.704100 
# 
# From -- ./inp_files/10131.got.cif
#   From: 2010.05.17/outbox.cif.g08.bks.cpg/sg64_6_cif.got.tgz:10131.got - 2010.06.03 16:29:19.
