data_PCOD9476214
_publ_section_title
;
Structure prediction by ZEFSAII (Michael W. Deem and Ramdas Pophale) SiO2 
 PCOD9476214
Probable space group: C M C M
;
_chemical_formula_sum "Si O2"
_cell_formula_units_Z 36
_cell_length_a 9.000000
_cell_length_b 15.000000
_cell_length_c 27.000000
_cell_angle_alpha 90.000000
_cell_angle_beta 90.000000
_cell_angle_gamma 90.000000
_cell_volume 3645.000000
_symmetry_space_group_name_H-M "C M C M"
_symmetry_group_IT_number 63
_symmetry_cell_setting 'orthorhombic'
loop_
_space_group_symop_operation_xyz
x,y,z
-x,-y,1/2+z
x,-y,-z
-x,y,1/2-z
-x,-y,-z
x,y,1/2-z
-x,y,z
x,-y,1/2+z
1/2+x,1/2+y,z
1/2-x,1/2-y,1/2+z
1/2+x,1/2-y,-z
1/2-x,1/2+y,1/2-z
1/2-x,1/2-y,-z
1/2+x,1/2+y,1/2-z
1/2-x,1/2+y,z
1/2+x,1/2-y,1/2+z
loop_
_atom_site_type_symbol
_atom_site_label
_atom_site_fract_x
_atom_site_fract_y
_atom_site_fract_z
Si Si1 0.818875 0.649305 0.853626
Si Si2 0.663647 0.190427 0.962345
Si Si3 0.320638 0.817856 0.807749
Si Si4 0.676353 0.462343 0.617086
Si Si5 0.240335 0.500000 0.500000
O O1 0.774089 0.688890 0.907377
O O2 0.748844 0.718731 0.815128
O O3 0.752050 0.549983 0.857931
O O4 0.000000 0.645497 0.850114
O O5 0.500000 0.228225 0.958494
O O6 0.750000 0.250000 0.000000
O O7 0.660773 0.089894 0.982850
O O8 0.290618 0.846631 0.750000
O O9 0.500000 0.815877 0.813822
O O10 0.250350 0.880661 0.851416
O O11 0.500000 0.460721 0.626003
O O12 0.692928 0.469924 0.555671
#
# Coordination Sequence:
#
# PCOD9476214 Si02
#       5
#    16  16  16  16   8
#     4  10  22  40  61  87 119 156 200 248 300 359
#     4  10  21  35  55  84 118 157 198 241 292 352
#     4  11  25  44  65  90 121 159 206 260 315 371
#     4  11  23  40  64  94 128 166 208 254 308 370
#     4  10  22  38  60  90 128 166 204 248 302 366
#
# _framework density 9.8765429999999999
#
# number of rings (size 3 to 8) (size 9 to 14) (size 15 to 20)
#    0.000    1.556    0.000    4.000    0.000   14.222 
#    0.000    0.000    0.000    0.000    0.000    0.000 
#    0.000    0.000    0.000    0.000    0.000    0.000 
#
# Total GULP energy -200425.882067 kJ/mol
# GULP energy per Si atom -5567.385613 kJ/mol
# Density = 0.985406 g / cm^3
# Si number density = 9.876543 Si / 1000 Ang^3
#
#
#
# Elastic Constant Matrix: (Units=GPa)
#
#
# Indices 1 2 3 4 5 6 
#
# 1 91.2144 36.8517 40.6877 0.0000 0.0000 0.0000
# 2 36.8517 96.1428 40.6233 0.0000 0.0000 0.0000
# 3 40.6877 40.6233 108.4520 0.0000 0.0000 0.0000
# 4 0.0000 0.0000 0.0000 43.5184 0.0000 0.0000
# 5 0.0000 0.0000 0.0000 0.0000 22.5686 0.0000
# 6 0.0000 0.0000 0.0000 0.0000 0.0000 29.3385
#
#
#
# Elastic Compliance Matrix: (Units=1/GPa)
#
#
# Indices 1 2 3 4 5 6 
#
# 1 0.014249 -0.003805 -0.003921 0.000000 0.000000 0.000000
# 2 -0.003805 0.013373 -0.003582 0.000000 0.000000 0.000000
# 3 -0.003921 -0.003582 0.012033 0.000000 0.000000 0.000000
# 4 0.000000 0.000000 0.000000 0.022979 0.000000 0.000000
# 5 0.000000 0.000000 0.000000 0.000000 0.044309 0.000000
# 6 0.000000 0.000000 0.000000 0.000000 0.000000 0.034085
#
#
# Mechanical properties :
#
#
# Convention : Reuss Voigt Hill
#
# Bulk Modulus (GPa) = 58.68286 59.12606 58.90446
# Shear Modulus (GPa) = 29.52925 30.92821 30.22873
#
# Velocity S-wave (km/s) = 3.87061 3.96124 3.91619
# Velocity P-wave (km/s) = 7.05324 7.13578 7.09463
#
# Compressibility (1/GPa) = 0.01704075
#
# Stress axis : x y z
#
# Youngs Moduli (GPa) = 70.17857 74.77705 83.10401
#
# Poissons Ratio (x) = 0.28454 0.32581
# Poissons Ratio (y) = 0.26705 0.29765
# Poissons Ratio (z) = 0.27514 0.26782
#
# Static dielectric constant tensor:
#      x y z
#    x 1.693230 0.000000 0.000000 
#    y 0.000000 1.615630 0.000000 
#    z 0.000000 0.000000 1.403640 
# 
# From -- ./inp_files/66355.got.cif
#   From: 2010.05.17/outbox.ucp.g08.bks.cvg/sg63_34_cif.got.tgz:66355.got - 2010.06.11 16:32:19.
