data_PCOD9476852
_publ_section_title
;
Structure prediction by ZEFSAII (Michael W. Deem and Ramdas Pophale) SiO2 
 PCOD9476852
Probable space group: C M C A
;
_chemical_formula_sum "Si O2"
_cell_formula_units_Z 80
_cell_length_a 17.873465
_cell_length_b 14.056750
_cell_length_c 18.807187
_cell_angle_alpha 90.000000
_cell_angle_beta 90.000000
_cell_angle_gamma 90.000000
_cell_volume 4725.170870
_symmetry_space_group_name_H-M "C M C A"
_symmetry_group_IT_number 64
_symmetry_cell_setting 'orthorhombic'
loop_
_space_group_symop_operation_xyz
x,y,z
-x,1/2-y,1/2+z
x,-y,-z
-x,1/2+y,1/2-z
-x,-y,-z
x,1/2+y,1/2-z
-x,y,z
x,1/2-y,1/2+z
1/2+x,1/2+y,z
1/2-x,-y,1/2+z
1/2+x,1/2-y,-z
1/2-x,y,1/2-z
1/2-x,1/2-y,-z
1/2+x,y,1/2-z
1/2-x,1/2+y,z
1/2+x,-y,1/2+z
loop_
_atom_site_type_symbol
_atom_site_label
_atom_site_fract_x
_atom_site_fract_y
_atom_site_fract_z
Si Si1 0.693015 0.203955 0.080219
Si Si2 0.235821 0.591709 0.539121
Si Si3 0.811169 0.563422 0.811255
Si Si4 0.183467 0.216140 0.193121
Si Si5 0.911708 0.884528 0.699742
O O1 0.686826 0.314522 0.057215
O O2 0.774621 0.194796 0.119270
O O3 0.630522 0.174385 0.137104
O O4 0.699644 0.135062 0.012545
O O5 0.201380 0.500000 0.500000
O O6 0.270361 0.555800 0.612990
O O7 0.750000 0.543501 0.750000
O O8 0.835993 0.672646 0.804467
O O9 0.878341 0.490111 0.806083
O O10 0.250000 0.200771 0.250000
O O11 0.115666 0.155643 0.223826
O O12 0.000000 0.880191 0.692066
#
# Coordination Sequence:
#
# PCOD9476852 Si02
#       5
#    16  16  16  16  16
#     4   9  18  34  53  81 108 134 177 222 261 307
#     4  10  18  31  58  85 100 130 173 224 267 306
#     4  10  19  34  55  79 102 133 178 225 261 306
#     4   8  17  33  53  74 100 136 179 222 255 298
#     4  11  21  33  51  77 112 146 173 212 266 316
#
# _framework density 16.930605
#
# number of rings (size 3 to 8) (size 9 to 14) (size 15 to 20)
#    0.000    2.400    2.000    3.000    0.000    0.800 
#    0.000    2.000    0.000    7.800    0.000    0.000 
#    0.000    0.000    0.000    0.000    0.000    0.000 
#
# Total GULP energy -222810.318970 kJ/mol
# GULP energy per Si atom -5570.257974 kJ/mol
# Density = 1.689207 g / cm^3
# Si number density = 16.930605 Si / 1000 Ang^3
#
#
#
# Elastic Constant Matrix: (Units=GPa)
#
#
# Indices 1 2 3 4 5 6 
#
# 1 96.7528 47.4586 36.7840 0.0000 0.0000 0.0000
# 2 47.4586 83.7113 32.6988 0.0000 0.0000 0.0000
# 3 36.7840 32.6988 101.7615 0.0000 0.0000 0.0000
# 4 0.0000 0.0000 0.0000 18.8338 0.0000 0.0000
# 5 0.0000 0.0000 0.0000 0.0000 9.9738 0.0000
# 6 0.0000 0.0000 0.0000 0.0000 0.0000 3.3584
#
#
#
# Elastic Compliance Matrix: (Units=1/GPa)
#
#
# Indices 1 2 3 4 5 6 
#
# 1 0.015127 -0.007365 -0.003102 0.000000 0.000000 0.000000
# 2 -0.007365 0.017246 -0.002879 0.000000 0.000000 0.000000
# 3 -0.003102 -0.002879 0.011873 0.000000 0.000000 0.000000
# 4 0.000000 0.000000 0.000000 0.053096 0.000000 0.000000
# 5 0.000000 0.000000 0.000000 0.000000 0.100263 0.000000
# 6 0.000000 0.000000 0.000000 0.000000 0.000000 0.297761
#
#
# Mechanical properties :
#
#
# Convention : Reuss Voigt Hill
#
# Bulk Modulus (GPa) = 56.96385 57.34537 57.15461
# Shear Modulus (GPa) = 9.47132 17.45214 13.46173
#
# Velocity S-wave (km/s) = 2.36777 3.21410 2.82283
# Velocity P-wave (km/s) = 6.41823 6.90784 6.66753
#
# Compressibility (1/GPa) = 0.01755499
#
# Stress axis : x y z
#
# Youngs Moduli (GPa) = 66.10595 57.98517 84.22250
#
# Poissons Ratio (x) = 0.42704 0.26123
# Poissons Ratio (y) = 0.48684 0.24252
# Poissons Ratio (z) = 0.20504 0.16697
#
# Static dielectric constant tensor:
#      x y z
#    x 1.525130 0.000000 0.000000 
#    y 0.000000 1.617560 0.000000 
#    z 0.000000 0.000000 1.621950 
# 
# From -- ./inp_files/34205.got.cif
#   From: 2010.05.17/outbox.cif.g08.bks.cpg/sg64_18_cif.got.tgz:34205.got - 2010.06.03 16:29:19.
