data_PCOD9476135
_publ_section_title
;
Structure prediction by ZEFSAII (Michael W. Deem and Ramdas Pophale) SiO2 
 PCOD9476135
Probable space group: C M C M
;
_chemical_formula_sum "Si O2"
_cell_formula_units_Z 40
_cell_length_a 9.000000
_cell_length_b 27.000000
_cell_length_c 18.000000
_cell_angle_alpha 90.000000
_cell_angle_beta 90.000000
_cell_angle_gamma 90.000000
_cell_volume 4374.000000
_symmetry_space_group_name_H-M "C M C M"
_symmetry_group_IT_number 63
_symmetry_cell_setting 'orthorhombic'
loop_
_space_group_symop_operation_xyz
x,y,z
-x,-y,1/2+z
x,-y,-z
-x,y,1/2-z
-x,-y,-z
x,y,1/2-z
-x,y,z
x,-y,1/2+z
1/2+x,1/2+y,z
1/2-x,1/2-y,1/2+z
1/2+x,1/2-y,-z
1/2-x,1/2+y,1/2-z
1/2-x,1/2-y,-z
1/2+x,1/2+y,1/2-z
1/2-x,1/2+y,z
1/2+x,1/2-y,1/2+z
loop_
_atom_site_type_symbol
_atom_site_label
_atom_site_fract_x
_atom_site_fract_y
_atom_site_fract_z
Si Si1 0.323424 0.310337 0.868986
Si Si2 0.333473 0.088901 0.166103
Si Si3 0.821790 0.700187 0.829533
Si Si4 0.676299 0.654027 0.529234
Si Si5 0.177834 0.049669 0.034473
O O1 0.500000 0.319012 0.856359
O O2 0.231730 0.355815 0.837230
O O3 0.280736 0.257908 0.836164
O O4 0.298733 0.311323 0.957638
O O5 0.337880 0.072157 0.250000
O O6 0.500000 0.088837 0.134916
O O7 0.227088 0.054976 0.118439
O O8 0.771684 0.680371 0.750000
O O9 0.755945 0.672270 0.898470
O O10 0.000000 0.698428 0.832760
O O11 0.500000 0.652426 0.541639
O O12 0.729162 0.599546 0.505771
O O13 0.000000 0.049542 0.029969
O O14 0.238715 0.000000 0.000000
#
# Coordination Sequence:
#
# PCOD9476135 Si02
#       5
#    16  16  16  16  16
#     4   9  18  33  52  72  97 132 171 205 239 286
#     4  10  20  32  49  78 109 131 158 201 252 300
#     4  10  20  32  47  70 101 137 171 199 235 288
#     4   9  18  32  51  74  96 122 160 206 252 293
#     4   9  19  37  58  76  95 125 168 211 250 297
#
# _framework density 9.1449470000000002
#
# number of rings (size 3 to 8) (size 9 to 14) (size 15 to 20)
#    0.000    2.600    0.000    3.000    0.000    7.200 
#    0.000    1.000    0.000    6.000    0.000    0.000 
#    0.000    0.000    0.000    0.000    0.000    0.000 
#
# Total GULP energy -222809.699825 kJ/mol
# GULP energy per Si atom -5570.242496 kJ/mol
# Density = 0.912413 g / cm^3
# Si number density = 9.144947 Si / 1000 Ang^3
#
#
#
# Elastic Constant Matrix: (Units=GPa)
#
#
# Indices 1 2 3 4 5 6 
#
# 1 -34.8118 21.4459 11.7854 0.0000 0.0000 0.0000
# 2 21.4459 31.3210 52.6340 0.0000 0.0000 0.0000
# 3 11.7854 52.6340 88.4040 0.0000 0.0000 0.0000
# 4 0.0000 0.0000 0.0000 -30.9569 0.0000 0.0000
# 5 0.0000 0.0000 0.0000 0.0000 15.5411 0.0000
# 6 0.0000 0.0000 0.0000 0.0000 0.0000 169.0853
#
#
#
# Elastic Compliance Matrix: (Units=1/GPa)
#
#
# Indices 1 2 3 4 5 6 
#
# 1 0.000078 0.069501 -0.041390 0.000000 0.000000 0.000000
# 2 0.069501 0.175246 -0.113603 0.000000 0.000000 0.000000
# 3 -0.041390 -0.113603 0.084467 0.000000 0.000000 0.000000
# 4 0.000000 0.000000 0.000000 -0.032303 0.000000 0.000000
# 5 0.000000 0.000000 0.000000 0.000000 0.064345 0.000000
# 6 0.000000 0.000000 0.000000 0.000000 0.000000 0.005914
#
#
# Mechanical properties :
#
#
# Convention : Reuss Voigt Hill
#
# Bulk Modulus (GPa) = 11.26050 28.51597 19.88824
# Shear Modulus (GPa) = 10.03344 30.67044 20.35194
#
# Velocity S-wave (km/s) = 2.34472 4.09945 3.33940
# Velocity P-wave (km/s) = 3.67428 6.16703 5.07605
#
# Compressibility (1/GPa) = 0.08880597
#
# Stress axis : x y z
#
# Youngs Moduli (GPa) = 12843.69872 5.70626 11.83900
#
# Poissons Ratio (x) = -0.39659 0.49001
# Poissons Ratio (y) = -892.64691 1.34495
# Poissons Ratio (z) = 531.59721 0.64825
#
# Static dielectric constant tensor:
#      x y z
#    x 1.626200 0.000000 0.000000 
#    y 0.000000 1.611710 0.000000 
#    z 0.000000 0.000000 1.648640 
# 
# From -- ./inp_files/40469.got.cif
#   From: 2010.05.17/outbox.ucp.g08.bks.cvg/sg63_21_cif.got.tgz:40469.got - 2010.06.11 16:32:19.
