data_PCOD9476376
_publ_section_title
;
Structure prediction by ZEFSAII (Michael W. Deem and Ramdas Pophale) SiO2 
 PCOD9476376
Probable space group: C M C A
;
_chemical_formula_sum "Si O2"
_cell_formula_units_Z 88
_cell_length_a 28.117045
_cell_length_b 11.916474
_cell_length_c 13.002698
_cell_angle_alpha 90.000000
_cell_angle_beta 90.000000
_cell_angle_gamma 90.000000
_cell_volume 4356.632445
_symmetry_space_group_name_H-M "C M C A"
_symmetry_group_IT_number 64
_symmetry_cell_setting 'orthorhombic'
loop_
_space_group_symop_operation_xyz
x,y,z
-x,1/2-y,1/2+z
x,-y,-z
-x,1/2+y,1/2-z
-x,-y,-z
x,1/2+y,1/2-z
-x,y,z
x,1/2-y,1/2+z
1/2+x,1/2+y,z
1/2-x,-y,1/2+z
1/2+x,1/2-y,-z
1/2-x,y,1/2-z
1/2-x,1/2-y,-z
1/2+x,y,1/2-z
1/2-x,1/2+y,z
1/2+x,-y,1/2+z
loop_
_atom_site_type_symbol
_atom_site_label
_atom_site_fract_x
_atom_site_fract_y
_atom_site_fract_z
Si Si1 0.398243 0.833601 0.413318
Si Si2 0.054765 0.626346 0.165031
Si Si3 0.184429 0.309740 0.948079
Si Si4 0.218085 0.397302 0.582347
Si Si5 0.113778 0.000000 0.500000
Si Si6 0.883403 0.580411 0.354047
O O1 0.439654 0.744722 0.394509
O O2 0.350307 0.767039 0.379956
O O3 0.392834 0.865957 0.533629
O O4 0.400609 0.951484 0.356644
O O5 0.085422 0.639015 0.268164
O O6 0.000000 0.600174 0.184271
O O7 0.080378 0.531153 0.095908
O O8 0.226513 0.377204 0.891022
O O9 0.149431 0.394767 0.007240
O O10 0.205165 0.220347 0.028181
O O11 0.216111 0.500000 0.500000
O O12 0.174072 0.418795 0.659060
#
# Coordination Sequence:
#
# PCOD9476376 Si02
#       6
#    16  16  16  16   8  16
#     4   9  20  40  61  87 123 161 210 265 319 373
#     4  11  25  41  63  91 123 166 216 270 329 383
#     4   9  17  31  60  89 122 167 196 243 311 367
#     4  10  16  31  61  92 122 163 201 246 309 365
#     4  10  21  40  58  86 128 160 203 252 314 376
#     4  10  20  40  64  90 124 164 211 265 313 385
#
# _framework density 20.199088
#
# number of rings (size 3 to 8) (size 9 to 14) (size 15 to 20)
#    0.000    2.182    4.545    0.273    0.000    5.818 
#    0.000    5.455    0.000    6.545    0.000    0.000 
#    0.000    0.000    0.000    0.000    0.000    0.000 
#
# Total GULP energy -244991.058785 kJ/mol
# GULP energy per Si atom -5567.978609 kJ/mol
# Density = 2.015311 g / cm^3
# Si number density = 20.199088 Si / 1000 Ang^3
#
#
#
# Elastic Constant Matrix: (Units=GPa)
#
#
# Indices 1 2 3 4 5 6 
#
# 1 129.4430 33.0256 36.1243 0.0000 0.0000 0.0000
# 2 33.0256 100.0156 18.4936 0.0000 0.0000 0.0000
# 3 36.1243 18.4936 45.4227 0.0000 0.0000 0.0000
# 4 0.0000 0.0000 0.0000 11.7530 0.0000 0.0000
# 5 0.0000 0.0000 0.0000 0.0000 26.0143 0.0000
# 6 0.0000 0.0000 0.0000 0.0000 0.0000 11.1747
#
#
#
# Elastic Compliance Matrix: (Units=1/GPa)
#
#
# Indices 1 2 3 4 5 6 
#
# 1 0.010300 -0.002040 -0.007361 0.000000 0.000000 0.000000
# 2 -0.002040 0.011216 -0.002944 0.000000 0.000000 0.000000
# 3 -0.007361 -0.002944 0.029068 0.000000 0.000000 0.000000
# 4 0.000000 0.000000 0.000000 0.085085 0.000000 0.000000
# 5 0.000000 0.000000 0.000000 0.000000 0.038440 0.000000
# 6 0.000000 0.000000 0.000000 0.000000 0.000000 0.089488
#
#
# Mechanical properties :
#
#
# Convention : Reuss Voigt Hill
#
# Bulk Modulus (GPa) = 38.61864 50.01869 44.31867
# Shear Modulus (GPa) = 16.83954 22.27092 19.55523
#
# Velocity S-wave (km/s) = 2.89048 3.32410 3.11485
# Velocity P-wave (km/s) = 5.50458 6.28884 5.90973
#
# Compressibility (1/GPa) = 0.02589423
#
# Stress axis : x y z
#
# Youngs Moduli (GPa) = 97.08554 89.15447 34.40167
#
# Poissons Ratio (x) = 0.18188 0.25323
# Poissons Ratio (y) = 0.19806 0.10129
# Poissons Ratio (z) = 0.71465 0.26250
#
# Static dielectric constant tensor:
#      x y z
#    x 1.773710 0.000000 0.000000 
#    y 0.000000 1.735480 0.000000 
#    z 0.000000 0.000000 1.739630 
# 
# From -- ./inp_files/27949.got.cif
#   From: 2010.05.17/outbox.cif.g08.bks.cpg/sg64_14_cif.got.tgz:27949.got - 2010.06.03 16:29:19.
