data_PCOD9476275
_publ_section_title
;
Structure prediction by ZEFSAII (Michael W. Deem and Ramdas Pophale) SiO2 
 PCOD9476275
Probable space group: C M C M
;
_chemical_formula_sum "Si O2"
_cell_formula_units_Z 56
_cell_length_a 15.000000
_cell_length_b 15.000000
_cell_length_c 30.000000
_cell_angle_alpha 90.000000
_cell_angle_beta 90.000000
_cell_angle_gamma 90.000000
_cell_volume 6750.000000
_symmetry_space_group_name_H-M "C M C M"
_symmetry_group_IT_number 63
_symmetry_cell_setting 'orthorhombic'
loop_
_space_group_symop_operation_xyz
x,y,z
-x,-y,1/2+z
x,-y,-z
-x,y,1/2-z
-x,-y,-z
x,y,1/2-z
-x,y,z
x,-y,1/2+z
1/2+x,1/2+y,z
1/2-x,1/2-y,1/2+z
1/2+x,1/2-y,-z
1/2-x,1/2+y,1/2-z
1/2-x,1/2-y,-z
1/2+x,1/2+y,1/2-z
1/2-x,1/2+y,z
1/2+x,1/2-y,1/2+z
loop_
_atom_site_type_symbol
_atom_site_label
_atom_site_fract_x
_atom_site_fract_y
_atom_site_fract_z
Si Si1 0.606837 0.759623 0.800515
Si Si2 0.107463 0.049723 0.699689
Si Si3 0.601491 0.106080 0.493634
Si Si4 0.266014 0.659170 0.948934
Si Si5 0.668556 0.168050 0.102329
Si Si6 0.401326 0.598213 0.022291
Si Si7 0.312584 0.519181 0.392494
O O1 0.638187 0.790808 0.750000
O O2 0.500000 0.765015 0.798675
O O3 0.631308 0.654730 0.803358
O O4 0.631849 0.803163 0.848623
O O5 0.134346 0.018814 0.750000
O O6 0.000000 0.043556 0.697661
O O7 0.146029 0.001757 0.655860
O O8 0.500000 0.121958 0.506992
O O9 0.670633 0.152329 0.527202
O O10 0.612222 0.136536 0.441765
O O11 0.620671 0.000000 0.500000
O O12 0.280610 0.746189 0.918743
O O13 0.287216 0.572706 0.918051
O O14 0.333998 0.652967 0.991116
O O15 0.727872 0.082118 0.112530
O O16 0.500000 0.637418 0.020103
O O17 0.373235 0.576295 0.072858
O O18 0.403094 0.500000 0.000000
#
# Coordination Sequence:
#
# PCOD9476275 Si02
#       7
#    16  16  16  16  16  16  16
#     4   9  19  36  57  84 112 137 177 231 283 335
#     4   9  18  35  58  82 109 141 176 223 286 343
#     4  11  22  38  55  76 111 154 195 230 271 323
#     4  11  21  39  52  77 113 148 186 232 269 320
#     4  12  22  35  58  82 109 149 188 228 275 331
#     4   9  18  31  50  74 108 143 172 217 272 325
#     4  11  20  34  54  78 115 139 185 223 273 329
#
# _framework density 8.2962959999999999
#
# number of rings (size 3 to 8) (size 9 to 14) (size 15 to 20)
#    0.000    1.714    4.286    2.571    0.000    2.286 
#    0.000    0.714    0.000    0.000    0.000    0.000 
#    0.000    3.429    0.000    0.000    0.000    0.000 
#
# Total GULP energy -311815.123453 kJ/mol
# GULP energy per Si atom -5568.127205 kJ/mol
# Density = 0.827741 g / cm^3
# Si number density = 8.296296 Si / 1000 Ang^3
#
#
#
# Elastic Constant Matrix: (Units=GPa)
#
#
# Indices 1 2 3 4 5 6 
#
# 1 58.1697 26.2173 41.1085 0.0000 0.0000 0.0000
# 2 26.2173 73.3569 37.3691 0.0000 0.0000 0.0000
# 3 41.1085 37.3691 167.8978 0.0000 0.0000 0.0000
# 4 0.0000 0.0000 0.0000 33.8442 0.0000 0.0000
# 5 0.0000 0.0000 0.0000 0.0000 30.6652 0.0000
# 6 0.0000 0.0000 0.0000 0.0000 0.0000 -2.5611
#
#
#
# Elastic Compliance Matrix: (Units=1/GPa)
#
#
# Indices 1 2 3 4 5 6 
#
# 1 0.022922 -0.006015 -0.004274 0.000000 0.000000 0.000000
# 2 -0.006015 0.016954 -0.002301 0.000000 0.000000 0.000000
# 3 -0.004274 -0.002301 0.007514 0.000000 0.000000 0.000000
# 4 0.000000 0.000000 0.000000 0.029547 0.000000 0.000000
# 5 0.000000 0.000000 0.000000 0.000000 0.032610 0.000000
# 6 0.000000 0.000000 0.000000 0.000000 0.000000 -0.390456
#
#
# Mechanical properties :
#
#
# Convention : Reuss Voigt Hill
#
# Bulk Modulus (GPa) = 45.02153 56.53493 50.77823
# Shear Modulus (GPa) = -20.13486 25.37163 2.61839
#
# Velocity S-wave (km/s) = -3.48729 3.91461 1.25757
# Velocity P-wave (km/s) = 3.31323 7.38773 5.72521
#
# Compressibility (1/GPa) = 0.02221160
#
# Stress axis : x y z
#
# Youngs Moduli (GPa) = 43.62566 58.98391 133.07798
#
# Poissons Ratio (x) = 0.35481 0.56871
# Poissons Ratio (y) = 0.26242 0.30616
# Poissons Ratio (z) = 0.18644 0.13570
#
# Static dielectric constant tensor:
#      x y z
#    x 1.585680 0.000000 0.000000 
#    y 0.000000 1.573090 0.000000 
#    z 0.000000 0.000000 1.566570 
# 
# From -- ./inp_files/73538.got.cif
#   From: 2010.05.17/outbox.ucp.g08.bks.cvg/sg63_37_cif.got.tgz:73538.got - 2010.06.11 16:32:19.
