data_PCOD9476802
_publ_section_title
;
Structure prediction by ZEFSAII (Michael W. Deem and Ramdas Pophale) SiO2 
 PCOD9476802
Probable space group: C M C A
;
_chemical_formula_sum "Si O2"
_cell_formula_units_Z 112
_cell_length_a 27.456988
_cell_length_b 26.405657
_cell_length_c 7.543734
_cell_angle_alpha 90.000000
_cell_angle_beta 90.000000
_cell_angle_gamma 90.000000
_cell_volume 5469.356572
_symmetry_space_group_name_H-M "C M C A"
_symmetry_group_IT_number 64
_symmetry_cell_setting 'orthorhombic'
loop_
_space_group_symop_operation_xyz
x,y,z
-x,1/2-y,1/2+z
x,-y,-z
-x,1/2+y,1/2-z
-x,-y,-z
x,1/2+y,1/2-z
-x,y,z
x,1/2-y,1/2+z
1/2+x,1/2+y,z
1/2-x,-y,1/2+z
1/2+x,1/2-y,-z
1/2-x,y,1/2-z
1/2-x,1/2-y,-z
1/2+x,y,1/2-z
1/2-x,1/2+y,z
1/2+x,-y,1/2+z
loop_
_atom_site_type_symbol
_atom_site_label
_atom_site_fract_x
_atom_site_fract_y
_atom_site_fract_z
Si Si1 0.053921 0.324092 0.346717
Si Si2 0.553464 0.290469 0.745631
Si Si3 0.198805 0.277218 0.534182
Si Si4 0.191207 0.911850 0.718236
Si Si5 0.154470 0.624104 0.602428
Si Si6 0.345091 0.816376 0.895315
Si Si7 0.694395 0.020144 0.703063
O O1 0.061137 0.269982 0.252730
O O2 0.052605 0.309807 0.554448
O O3 0.100974 0.359265 0.334545
O O4 0.000000 0.344179 0.297941
O O5 0.500000 0.299278 0.663614
O O6 0.598418 0.317668 0.653019
O O7 0.250000 0.250000 0.500000
O O8 0.186869 0.323918 0.401223
O O9 0.161007 0.230990 0.522891
O O10 0.188960 0.299389 0.728376
O O11 0.250000 0.909249 0.750000
O O12 0.176009 0.871768 0.567791
O O13 0.178859 0.970530 0.685947
O O14 0.161923 0.894249 0.896101
O O15 0.168756 0.574005 0.708667
O O16 0.750000 0.030343 0.750000
O O17 0.692382 0.000000 0.500000
#
# Coordination Sequence:
#
# PCOD9476802 Si02
#       7
#    16  16  16  16  16  16  16
#     4  10  19  33  53  73 101 133 169 207 250 301
#     4  10  18  31  50  72  98 133 169 203 246 301
#     4  11  21  30  44  70 103 133 158 194 248 302
#     4   9  17  31  49  68  94 135 169 196 241 291
#     4  10  18  33  49  72 102 131 167 207 254 294
#     4  11  18  32  47  69 101 130 159 200 246 297
#     4   9  19  34  54  71  96 133 174 209 241 292
#
# _framework density 20.477729
#
# number of rings (size 3 to 8) (size 9 to 14) (size 15 to 20)
#    0.000    2.000    4.286    2.143    0.000    1.143 
#    0.000    0.000    0.000    4.714    0.000    0.000 
#    0.000    0.571    0.000    0.000    0.000    4.714 
#
# Total GULP energy -312377.526866 kJ/mol
# GULP energy per Si atom -5578.170123 kJ/mol
# Density = 2.043112 g / cm^3
# Si number density = 20.477729 Si / 1000 Ang^3
#
#
#
# Elastic Constant Matrix: (Units=GPa)
#
#
# Indices 1 2 3 4 5 6 
#
# 1 147.1143 78.5312 5.2290 0.0000 0.0000 0.0000
# 2 78.5312 182.2447 25.7382 0.0000 0.0000 0.0000
# 3 5.2290 25.7382 21.4356 0.0000 0.0000 0.0000
# 4 0.0000 0.0000 0.0000 18.6591 0.0000 0.0000
# 5 0.0000 0.0000 0.0000 0.0000 20.9091 0.0000
# 6 0.0000 0.0000 0.0000 0.0000 0.0000 43.0408
#
#
#
# Elastic Compliance Matrix: (Units=1/GPa)
#
#
# Indices 1 2 3 4 5 6 
#
# 1 0.008981 -0.004288 0.002958 0.000000 0.000000 0.000000
# 2 -0.004288 0.008655 -0.009346 0.000000 0.000000 0.000000
# 3 0.002958 -0.009346 0.057152 0.000000 0.000000 0.000000
# 4 0.000000 0.000000 0.000000 0.053593 0.000000 0.000000
# 5 0.000000 0.000000 0.000000 0.000000 0.047826 0.000000
# 6 0.000000 0.000000 0.000000 0.000000 0.000000 0.023234
#
#
# Mechanical properties :
#
#
# Convention : Reuss Voigt Hill
#
# Bulk Modulus (GPa) = 18.71423 63.31016 41.01219
# Shear Modulus (GPa) = 20.95517 32.60820 26.78168
#
# Velocity S-wave (km/s) = 3.20240 3.99479 3.62034
# Velocity P-wave (km/s) = 4.77833 7.22921 6.12756
#
# Compressibility (1/GPa) = 0.05343529
#
# Stress axis : x y z
#
# Youngs Moduli (GPa) = 111.34401 115.54424 17.49729
#
# Poissons Ratio (x) = 0.49543 -0.05175
# Poissons Ratio (y) = 0.47742 0.16353
# Poissons Ratio (z) = -0.32931 1.07987
#
# Static dielectric constant tensor:
#      x y z
#    x 1.778070 0.000000 0.000000 
#    y 0.000000 1.770380 0.000000 
#    z 0.000000 0.000000 1.901120 
# 
# From -- ./inp_files/19375.got.cif
#   From: 2010.05.17/outbox.cif.g08.bks.cpg/sg64_10_cif.got.tgz:19375.got - 2010.06.03 16:29:19.
