data_PCOD9476577
_publ_section_title
;
Structure prediction by ZEFSAII (Michael W. Deem and Ramdas Pophale) SiO2 
 PCOD9476577
Probable space group: C M C A
;
_chemical_formula_sum "Si O2"
_cell_formula_units_Z 72
_cell_length_a 16.617032
_cell_length_b 24.049450
_cell_length_c 9.411422
_cell_angle_alpha 90.000000
_cell_angle_beta 90.000000
_cell_angle_gamma 90.000000
_cell_volume 3761.091094
_symmetry_space_group_name_H-M "C M C A"
_symmetry_group_IT_number 64
_symmetry_cell_setting 'orthorhombic'
loop_
_space_group_symop_operation_xyz
x,y,z
-x,1/2-y,1/2+z
x,-y,-z
-x,1/2+y,1/2-z
-x,-y,-z
x,1/2+y,1/2-z
-x,y,z
x,1/2-y,1/2+z
1/2+x,1/2+y,z
1/2-x,-y,1/2+z
1/2+x,1/2-y,-z
1/2-x,y,1/2-z
1/2-x,1/2-y,-z
1/2+x,y,1/2-z
1/2-x,1/2+y,z
1/2+x,-y,1/2+z
loop_
_atom_site_type_symbol
_atom_site_label
_atom_site_fract_x
_atom_site_fract_y
_atom_site_fract_z
Si Si1 0.144876 0.651750 0.412571
Si Si2 0.259781 0.058608 0.077568
Si Si3 0.412272 0.261614 0.122411
Si Si4 0.250000 0.266579 0.750000
Si Si5 0.410034 0.136198 0.091508
O O1 0.183009 0.595274 0.469844
O O2 0.090676 0.687244 0.515885
O O3 0.221204 0.691726 0.374441
O O4 0.101595 0.640995 0.262697
O O5 0.250000 0.053516 0.250000
O O6 0.339911 0.094671 0.044650
O O7 0.262688 0.000000 0.000000
O O8 0.500000 0.260235 0.195816
O O9 0.330637 0.266225 0.213242
O O10 0.403837 0.201126 0.046507
O O11 0.500000 0.116625 0.056940
#
# Coordination Sequence:
#
# PCOD9476577 Si02
#       5
#    16  16  16   8  16
#     4  10  17  34  52  76 108 147 181 222 278 343
#     4  10  20  37  56  78 105 146 197 233 279 333
#     4  10  19  31  54  84 109 141 181 221 278 346
#     4  10  18  32  52  76 114 146 178 220 278 340
#     4   9  18  33  54  80 110 142 179 228 282 339
#
# _framework density 19.143381999999999
#
# number of rings (size 3 to 8) (size 9 to 14) (size 15 to 20)
#    0.000    2.222    5.556    1.333    0.000    1.333 
#    2.000    0.000    0.000   16.667    0.000    0.000 
#    0.000    0.000    0.000    0.000    0.000    0.000 
#
# Total GULP energy -200557.885817 kJ/mol
# GULP energy per Si atom -5571.052384 kJ/mol
# Density = 1.909981 g / cm^3
# Si number density = 19.143382 Si / 1000 Ang^3
#
#
#
# Elastic Constant Matrix: (Units=GPa)
#
#
# Indices 1 2 3 4 5 6 
#
# 1 131.0839 45.5649 20.5415 0.0000 0.0000 0.0000
# 2 45.5649 124.5167 29.3549 0.0000 0.0000 0.0000
# 3 20.5415 29.3549 13.6554 0.0000 0.0000 0.0000
# 4 0.0000 0.0000 0.0000 35.9373 0.0000 0.0000
# 5 0.0000 0.0000 0.0000 0.0000 18.9593 0.0000
# 6 0.0000 0.0000 0.0000 0.0000 0.0000 12.3083
#
#
#
# Elastic Compliance Matrix: (Units=1/GPa)
#
#
# Indices 1 2 3 4 5 6 
#
# 1 0.009985 -0.000229 -0.014528 0.000000 0.000000 0.000000
# 2 -0.000229 0.016288 -0.034671 0.000000 0.000000 0.000000
# 3 -0.014528 -0.034671 0.169618 0.000000 0.000000 0.000000
# 4 0.000000 0.000000 0.000000 0.027826 0.000000 0.000000
# 5 0.000000 0.000000 0.000000 0.000000 0.052745 0.000000
# 6 0.000000 0.000000 0.000000 0.000000 0.000000 0.081246
#
#
# Mechanical properties :
#
#
# Convention : Reuss Voigt Hill
#
# Bulk Modulus (GPa) = 10.30556 51.13095 30.71826
# Shear Modulus (GPa) = 10.22685 25.02730 17.62708
#
# Velocity S-wave (km/s) = 2.31384 3.61967 3.03775
# Velocity P-wave (km/s) = 3.54027 6.65107 5.32777
#
# Compressibility (1/GPa) = 0.09703498
#
# Stress axis : x y z
#
# Youngs Moduli (GPa) = 100.15148 61.39308 5.89561
#
# Poissons Ratio (x) = 0.01404 0.08565
# Poissons Ratio (y) = 0.02291 0.20441
# Poissons Ratio (z) = 1.45503 2.12856
#
# Static dielectric constant tensor:
#      x y z
#    x 1.726900 0.000000 0.000000 
#    y 0.000000 1.663860 0.000000 
#    z 0.000000 0.000000 1.720260 
# 
# From -- ./inp_files/15761.got.cif
#   From: 2010.05.17/outbox.cif.g08.bks.cpg/sg64_8_cif.got.tgz:15761.got - 2010.06.03 16:29:19.
