data_PCOD9476488
_publ_section_title
;
Structure prediction by ZEFSAII (Michael W. Deem and Ramdas Pophale) SiO2 
 PCOD9476488
Probable space group: C M C A
;
_chemical_formula_sum "Si O2"
_cell_formula_units_Z 112
_cell_length_a 15.012831
_cell_length_b 28.673499
_cell_length_c 12.445230
_cell_angle_alpha 90.000000
_cell_angle_beta 90.000000
_cell_angle_gamma 90.000000
_cell_volume 5357.303070
_symmetry_space_group_name_H-M "C M C A"
_symmetry_group_IT_number 64
_symmetry_cell_setting 'orthorhombic'
loop_
_space_group_symop_operation_xyz
x,y,z
-x,1/2-y,1/2+z
x,-y,-z
-x,1/2+y,1/2-z
-x,-y,-z
x,1/2+y,1/2-z
-x,y,z
x,1/2-y,1/2+z
1/2+x,1/2+y,z
1/2-x,-y,1/2+z
1/2+x,1/2-y,-z
1/2-x,y,1/2-z
1/2-x,1/2-y,-z
1/2+x,y,1/2-z
1/2-x,1/2+y,z
1/2+x,-y,1/2+z
loop_
_atom_site_type_symbol
_atom_site_label
_atom_site_fract_x
_atom_site_fract_y
_atom_site_fract_z
Si Si1 0.316937 0.624706 0.648463
Si Si2 0.608152 0.294397 0.488334
Si Si3 0.141218 0.541970 0.733100
Si Si4 0.606732 0.190646 0.439657
Si Si5 0.396443 0.161270 0.207708
Si Si6 0.145416 0.438747 0.724642
Si Si7 0.658329 0.906969 0.481450
O O1 0.250000 0.633734 0.750000
O O2 0.358170 0.672286 0.606580
O O3 0.384231 0.584794 0.689949
O O4 0.261274 0.600649 0.551697
O O5 0.500000 0.295327 0.486680
O O6 0.638223 0.240955 0.478236
O O7 0.641698 0.316705 0.599980
O O8 0.250000 0.538803 0.750000
O O9 0.108156 0.489813 0.751241
O O10 0.122135 0.560092 0.612988
O O11 0.500000 0.193552 0.431321
O O12 0.643278 0.178638 0.320721
O O13 0.624686 0.146380 0.515322
O O14 0.500000 0.175320 0.208447
O O15 0.392991 0.105323 0.212193
O O16 0.250000 0.438536 0.750000
O O17 0.137718 0.428528 0.597209
#
# Coordination Sequence:
#
# PCOD9476488 Si02
#       7
#    16  16  16  16  16  16  16
#     4   9  19  35  50  75 107 129 163 214 250 285
#     4  10  20  36  56  73  98 139 170 195 249 308
#     4   8  17  31  48  71 100 132 163 203 250 296
#     4   9  19  34  52  75 100 130 170 209 246 297
#     4   9  19  34  50  73 103 128 162 211 248 290
#     4  10  17  29  51  74  96 129 170 204 245 301
#     4   9  17  31  50  72 100 130 164 209 256 293
#
# _framework density 20.906041999999999
#
# number of rings (size 3 to 8) (size 9 to 14) (size 15 to 20)
#    0.000    3.143    0.000    1.286    0.000    2.857 
#    0.000   12.143    0.000    5.143    0.000    0.000 
#    0.000    0.000    0.000    0.000    0.000    0.000 
#
# Total GULP energy -312084.522361 kJ/mol
# GULP energy per Si atom -5572.937899 kJ/mol
# Density = 2.085846 g / cm^3
# Si number density = 20.906042 Si / 1000 Ang^3
#
#
#
# Elastic Constant Matrix: (Units=GPa)
#
#
# Indices 1 2 3 4 5 6 
#
# 1 31.5788 6.7572 6.3878 0.0000 0.0000 0.0000
# 2 6.7572 180.9708 75.1026 0.0000 0.0000 0.0000
# 3 6.3878 75.1026 80.2416 0.0000 0.0000 0.0000
# 4 0.0000 0.0000 0.0000 23.2516 0.0000 0.0000
# 5 0.0000 0.0000 0.0000 0.0000 16.6045 0.0000
# 6 0.0000 0.0000 0.0000 0.0000 0.0000 18.1860
#
#
#
# Elastic Compliance Matrix: (Units=1/GPa)
#
#
# Indices 1 2 3 4 5 6 
#
# 1 0.032191 -0.000226 -0.002351 0.000000 0.000000 0.000000
# 2 -0.000226 0.009037 -0.008440 0.000000 0.000000 0.000000
# 3 -0.002351 -0.008440 0.020549 0.000000 0.000000 0.000000
# 4 0.000000 0.000000 0.000000 0.043008 0.000000 0.000000
# 5 0.000000 0.000000 0.000000 0.000000 0.060225 0.000000
# 6 0.000000 0.000000 0.000000 0.000000 0.000000 0.054987
#
#
# Mechanical properties :
#
#
# Convention : Reuss Voigt Hill
#
# Bulk Modulus (GPa) = 25.16214 52.14294 38.65254
# Shear Modulus (GPa) = 19.58649 25.24467 22.41558
#
# Velocity S-wave (km/s) = 3.06417 3.47872 3.27801
# Velocity P-wave (km/s) = 4.95791 6.41335 5.73201
#
# Compressibility (1/GPa) = 0.03974225
#
# Stress axis : x y z
#
# Youngs Moduli (GPa) = 31.06481 110.65856 48.66420
#
# Poissons Ratio (x) = 0.02505 0.11440
# Poissons Ratio (y) = 0.00703 0.41073
# Poissons Ratio (z) = 0.07302 0.93396
#
# Static dielectric constant tensor:
#      x y z
#    x 1.800860 0.000000 0.000000 
#    y 0.000000 1.756460 0.000000 
#    z 0.000000 0.000000 1.762070 
# 
# From -- ./inp_files/17686.got.cif
#   From: 2010.05.17/outbox.cif.g08.bks.cpg/sg64_9_cif.got.tgz:17686.got - 2010.06.03 16:29:19.
