data_PCOD9476865
_publ_section_title
;
Structure prediction by ZEFSAII (Michael W. Deem and Ramdas Pophale) SiO2 
 PCOD9476865
Probable space group: C M C A
;
_chemical_formula_sum "Si O2"
_cell_formula_units_Z 120
_cell_length_a 20.774240
_cell_length_b 13.851008
_cell_length_c 20.299055
_cell_angle_alpha 90.000000
_cell_angle_beta 90.000000
_cell_angle_gamma 90.000000
_cell_volume 5840.934620
_symmetry_space_group_name_H-M "C M C A"
_symmetry_group_IT_number 64
_symmetry_cell_setting 'orthorhombic'
loop_
_space_group_symop_operation_xyz
x,y,z
-x,1/2-y,1/2+z
x,-y,-z
-x,1/2+y,1/2-z
-x,-y,-z
x,1/2+y,1/2-z
-x,y,z
x,1/2-y,1/2+z
1/2+x,1/2+y,z
1/2-x,-y,1/2+z
1/2+x,1/2-y,-z
1/2-x,y,1/2-z
1/2-x,1/2-y,-z
1/2+x,y,1/2-z
1/2-x,1/2+y,z
1/2+x,-y,1/2+z
loop_
_atom_site_type_symbol
_atom_site_label
_atom_site_fract_x
_atom_site_fract_y
_atom_site_fract_z
Si Si1 0.702815 0.763903 0.618419
Si Si2 0.569967 0.890251 0.026467
Si Si3 0.168234 0.151587 0.417561
Si Si4 0.615646 0.726095 0.797935
Si Si5 0.750000 0.252951 0.750000
Si Si6 0.572376 0.472119 0.228205
Si Si7 0.926576 0.326791 0.661183
Si Si8 0.151594 0.943306 0.358436
O O1 0.762460 0.796999 0.574524
O O2 0.723115 0.812656 0.688770
O O3 0.629451 0.797614 0.610095
O O4 0.699166 0.648672 0.633802
O O5 0.500000 0.845362 0.016605
O O6 0.589263 0.904075 0.101958
O O7 0.627314 0.843803 0.984394
O O8 0.566746 0.000000 0.000000
O O9 0.126352 0.202711 0.359323
O O10 0.175976 0.039854 0.394894
O O11 0.688731 0.698263 0.778032
O O12 0.578167 0.628372 0.810538
O O13 0.585728 0.772829 0.731682
O O14 0.500000 0.480841 0.256835
O O15 0.581041 0.561518 0.179960
O O16 0.625222 0.469926 0.286432
O O17 0.000000 0.307974 0.640385
#
# Coordination Sequence:
#
# PCOD9476865 Si02
#       8
#    16  16  16  16   8  16  16  16
#     4  10  21  35  54  80 111 147 187 225 272 338
#     4   9  20  37  58  83 112 142 186 238 282 330
#     4  10  22  38  55  83 111 150 186 229 293 330
#     4  10  18  32  50  77 109 146 182 225 269 345
#     4   8  16  30  44  70 104 130 174 210 262 306
#     4  11  21  32  51  83 115 148 183 226 281 339
#     4  10  20  33  49  78 117 149 181 224 276 331
#     4  11  20  36  57  82 108 148 187 235 277 335
#
# _framework density 20.544657000000001
#
# number of rings (size 3 to 8) (size 9 to 14) (size 15 to 20)
#    0.000    2.000    4.000    0.800    0.000    4.800 
#    0.000    0.000    0.000    0.000    0.000    0.000 
#    0.000    9.067    0.000    0.000    0.000    0.000 
#
# Total GULP energy -334226.235322 kJ/mol
# GULP energy per Si atom -5570.437255 kJ/mol
# Density = 2.049790 g / cm^3
# Si number density = 20.544657 Si / 1000 Ang^3
#
#
#
# Elastic Constant Matrix: (Units=GPa)
#
#
# Indices 1 2 3 4 5 6 
#
# 1 114.2781 31.9305 14.3366 0.0000 0.0000 0.0000
# 2 31.9305 108.7047 7.4011 0.0000 0.0000 0.0000
# 3 14.3366 7.4011 47.1176 0.0000 0.0000 0.0000
# 4 0.0000 0.0000 0.0000 20.8001 0.0000 0.0000
# 5 0.0000 0.0000 0.0000 0.0000 19.4692 0.0000
# 6 0.0000 0.0000 0.0000 0.0000 0.0000 10.0277
#
#
#
# Elastic Compliance Matrix: (Units=1/GPa)
#
#
# Indices 1 2 3 4 5 6 
#
# 1 0.009830 -0.002713 -0.002565 0.000000 0.000000 0.000000
# 2 -0.002713 0.010047 -0.000753 0.000000 0.000000 0.000000
# 3 -0.002565 -0.000753 0.022122 0.000000 0.000000 0.000000
# 4 0.000000 0.000000 0.000000 0.048077 0.000000 0.000000
# 5 0.000000 0.000000 0.000000 0.000000 0.051363 0.000000
# 6 0.000000 0.000000 0.000000 0.000000 0.000000 0.099723
#
#
# Mechanical properties :
#
#
# Convention : Reuss Voigt Hill
#
# Bulk Modulus (GPa) = 33.40163 41.93745 37.66954
# Shear Modulus (GPa) = 18.99667 24.48821 21.74244
#
# Velocity S-wave (km/s) = 3.04411 3.45621 3.25668
# Velocity P-wave (km/s) = 5.35246 6.03194 5.70233
#
# Compressibility (1/GPa) = 0.02993866
#
# Stress axis : x y z
#
# Youngs Moduli (GPa) = 101.72542 99.52860 45.20344
#
# Poissons Ratio (x) = 0.27001 0.11595
# Poissons Ratio (y) = 0.27597 0.03403
# Poissons Ratio (z) = 0.26092 0.07492
#
# Static dielectric constant tensor:
#      x y z
#    x 1.808760 0.000000 0.000000 
#    y 0.000000 1.761930 0.000000 
#    z 0.000000 0.000000 1.768830 
# 
# From -- ./inp_files/46466.got.cif
#   From: 2010.05.17/outbox.cif.g08.bks.cpg/sg64_24_cif.got.tgz:46466.got - 2010.06.03 16:29:19.
