data_PCOD9476468
_publ_section_title
;
Structure prediction by ZEFSAII (Michael W. Deem and Ramdas Pophale) SiO2 
 PCOD9476468
Probable space group: C M C A
;
_chemical_formula_sum "Si O2"
_cell_formula_units_Z 80
_cell_length_a 8.408448
_cell_length_b 14.917463
_cell_length_c 31.280638
_cell_angle_alpha 90.000000
_cell_angle_beta 90.000000
_cell_angle_gamma 90.000000
_cell_volume 3923.615255
_symmetry_space_group_name_H-M "C M C A"
_symmetry_group_IT_number 64
_symmetry_cell_setting 'orthorhombic'
loop_
_space_group_symop_operation_xyz
x,y,z
-x,1/2-y,1/2+z
x,-y,-z
-x,1/2+y,1/2-z
-x,-y,-z
x,1/2+y,1/2-z
-x,y,z
x,1/2-y,1/2+z
1/2+x,1/2+y,z
1/2-x,-y,1/2+z
1/2+x,1/2-y,-z
1/2-x,y,1/2-z
1/2-x,1/2-y,-z
1/2+x,y,1/2-z
1/2-x,1/2+y,z
1/2+x,-y,1/2+z
loop_
_atom_site_type_symbol
_atom_site_label
_atom_site_fract_x
_atom_site_fract_y
_atom_site_fract_z
Si Si1 0.688696 0.100319 0.706352
Si Si2 0.806158 0.094517 0.387682
Si Si3 0.690916 0.254223 0.548285
Si Si4 0.812494 0.396172 0.794986
Si Si5 0.809478 0.886878 0.383627
O O1 0.500000 0.087793 0.708958
O O2 0.750000 0.145064 0.750000
O O3 0.733441 0.144424 0.661324
O O4 0.774933 0.003077 0.705169
O O5 0.755042 0.155743 0.426935
O O6 0.749654 0.132551 0.341592
O O7 0.000000 0.095602 0.386735
O O8 0.759087 0.990526 0.390950
O O9 0.500000 0.252277 0.548470
O O10 0.750000 0.250000 0.500000
O O11 0.754794 0.173145 0.577092
O O12 0.750000 0.360012 0.750000
O O13 0.000000 0.382126 0.794728
O O14 0.000000 0.884687 0.379432
#
# Coordination Sequence:
#
# PCOD9476468 Si02
#       5
#    16  16  16  16  16
#     4  10  17  28  49  80 114 150 185 224 268 320
#     4   8  18  36  58  79 110 150 185 218 272 336
#     4  11  23  41  60  82 109 143 184 235 288 339
#     4   9  15  27  48  77 109 146 183 220 263 318
#     4  10  20  38  60  84 111 147 187 227 273 331
#
# _framework density 20.389358999999999
#
# number of rings (size 3 to 8) (size 9 to 14) (size 15 to 20)
#    0.000    2.400    0.000    6.000    0.000    0.800 
#    0.000   17.000    0.000    2.400    0.000    0.000 
#    0.000    0.000    0.000    0.000    0.000    0.000 
#
# Total GULP energy -223217.954872 kJ/mol
# GULP energy per Si atom -5580.448872 kJ/mol
# Density = 2.034295 g / cm^3
# Si number density = 20.389359 Si / 1000 Ang^3
#
#
#
# Elastic Constant Matrix: (Units=GPa)
#
#
# Indices 1 2 3 4 5 6 
#
# 1 39.6379 1.1070 27.5657 0.0000 0.0000 0.0000
# 2 1.1070 84.2023 64.6602 0.0000 0.0000 0.0000
# 3 27.5657 64.6602 226.1896 0.0000 0.0000 0.0000
# 4 0.0000 0.0000 0.0000 42.4399 0.0000 0.0000
# 5 0.0000 0.0000 0.0000 0.0000 39.3233 0.0000
# 6 0.0000 0.0000 0.0000 0.0000 0.0000 10.6216
#
#
#
# Elastic Compliance Matrix: (Units=1/GPa)
#
#
# Indices 1 2 3 4 5 6 
#
# 1 0.028105 0.002897 -0.004253 0.000000 0.000000 0.000000
# 2 0.002897 0.015515 -0.004788 0.000000 0.000000 0.000000
# 3 -0.004253 -0.004788 0.006308 0.000000 0.000000 0.000000
# 4 0.000000 0.000000 0.000000 0.023563 0.000000 0.000000
# 5 0.000000 0.000000 0.000000 0.000000 0.025430 0.000000
# 6 0.000000 0.000000 0.000000 0.000000 0.000000 0.094148
#
#
# Mechanical properties :
#
#
# Convention : Reuss Voigt Hill
#
# Bulk Modulus (GPa) = 26.56828 59.63284 43.10056
# Shear Modulus (GPa) = 22.94575 35.59008 29.26792
#
# Velocity S-wave (km/s) = 3.35831 4.18248 3.79284
# Velocity P-wave (km/s) = 5.30060 7.25498 6.35339
#
# Compressibility (1/GPa) = 0.03763887
#
# Stress axis : x y z
#
# Youngs Moduli (GPa) = 35.58041 64.45351 158.52337
#
# Poissons Ratio (x) = -0.18670 0.67424
# Poissons Ratio (y) = -0.10306 0.75905
# Poissons Ratio (z) = 0.15133 0.30862
#
# Static dielectric constant tensor:
#      x y z
#    x 1.708920 0.000000 0.000000 
#    y 0.000000 1.764250 0.000000 
#    z 0.000000 0.000000 1.746000 
# 
# From -- ./inp_files/47881.got.cif
#   From: 2010.05.17/outbox.cif.g08.bks.cpg/sg64_24_cif.got.tgz:47881.got - 2010.06.03 16:29:19.
