data_PCOD9476964
_publ_section_title
;
Structure prediction by ZEFSAII (Michael W. Deem and Ramdas Pophale) SiO2 
 PCOD9476964
Probable space group: C M C A
;
_chemical_formula_sum "Si O2"
_cell_formula_units_Z 64
_cell_length_a 5.451553
_cell_length_b 18.118402
_cell_length_c 30.143961
_cell_angle_alpha 90.000000
_cell_angle_beta 90.000000
_cell_angle_gamma 90.000000
_cell_volume 2977.422385
_symmetry_space_group_name_H-M "C M C A"
_symmetry_group_IT_number 64
_symmetry_cell_setting 'orthorhombic'
loop_
_space_group_symop_operation_xyz
x,y,z
-x,1/2-y,1/2+z
x,-y,-z
-x,1/2+y,1/2-z
-x,-y,-z
x,1/2+y,1/2-z
-x,y,z
x,1/2-y,1/2+z
1/2+x,1/2+y,z
1/2-x,-y,1/2+z
1/2+x,1/2-y,-z
1/2-x,y,1/2-z
1/2-x,1/2-y,-z
1/2+x,y,1/2-z
1/2-x,1/2+y,z
1/2+x,-y,1/2+z
loop_
_atom_site_type_symbol
_atom_site_label
_atom_site_fract_x
_atom_site_fract_y
_atom_site_fract_z
Si Si1 0.000000 0.867817 0.186914
Si Si2 0.000000 0.275695 0.120430
Si Si3 0.500000 0.623485 0.101620
Si Si4 0.500000 0.299367 0.994653
Si Si5 0.000000 0.925236 0.641221
Si Si6 0.500000 0.302079 0.720040
Si Si7 0.000000 0.084044 0.685007
Si Si8 0.000000 0.332952 0.411956
O O1 0.000000 0.780018 0.197233
O O2 0.000000 0.881824 0.132935
O O3 0.762818 0.906451 0.205962
O O4 0.000000 0.192617 0.136304
O O5 0.000000 0.340396 0.155671
O O6 0.748484 0.286584 0.094004
O O7 0.500000 0.657789 0.052113
O O8 0.245960 0.583615 0.112026
O O9 0.250000 0.250000 0.000000
O O10 0.500000 0.356110 0.036814
O O11 0.000000 0.864898 0.681524
O O12 0.000000 0.007164 0.660183
O O13 0.250000 0.307356 0.750000
#
# Coordination Sequence:
#
# PCOD9476964 Si02
#       8
#     8   8   8   8   8   8   8   8
#     4  10  21  41  69  87 122 160 218 247 312 365
#     4  10  18  33  58  82 116 152 217 244 306 344
#     4  12  22  37  64  95 124 173 212 272 309 375
#     4  12  21  32  55  96 132 154 217 272 322 356
#     4  12  25  42  64  90 135 166 210 248 326 386
#     4  12  26  45  68  99 128 158 199 265 321 373
#     4  10  21  39  65  94 117 170 207 256 294 388
#     4  10  18  33  55  90 118 158 195 271 303 359
#
# _framework density 21.495104999999999
#
# number of rings (size 3 to 8) (size 9 to 14) (size 15 to 20)
#    0.000    1.000    2.500    6.750    0.000    0.000 
#    0.000    3.750    0.000   18.000    0.000    0.000 
#    0.000    0.000    0.000    0.000    0.000    0.000 
#
# Total GULP energy -178322.867017 kJ/mol
# GULP energy per Si atom -5572.589594 kJ/mol
# Density = 2.144618 g / cm^3
# Si number density = 21.495105 Si / 1000 Ang^3
#
#
#
# Elastic Constant Matrix: (Units=GPa)
#
#
# Indices 1 2 3 4 5 6 
#
# 1 225.0379 19.2680 59.2648 0.0000 0.0000 0.0000
# 2 19.2680 48.6851 34.2379 0.0000 0.0000 0.0000
# 3 59.2648 34.2379 163.6377 0.0000 0.0000 0.0000
# 4 0.0000 0.0000 0.0000 -29.3159 0.0000 0.0000
# 5 0.0000 0.0000 0.0000 0.0000 -3.5868 0.0000
# 6 0.0000 0.0000 0.0000 0.0000 0.0000 -11.7866
#
#
#
# Elastic Compliance Matrix: (Units=1/GPa)
#
#
# Indices 1 2 3 4 5 6 
#
# 1 0.004940 -0.000817 -0.001618 0.000000 0.000000 0.000000
# 2 -0.000817 0.024219 -0.004771 0.000000 0.000000 0.000000
# 3 -0.001618 -0.004771 0.007695 0.000000 0.000000 0.000000
# 4 0.000000 0.000000 0.000000 -0.034111 0.000000 0.000000
# 5 0.000000 0.000000 0.000000 0.000000 -0.278800 0.000000
# 6 0.000000 0.000000 0.000000 0.000000 0.000000 -0.084842
#
#
# Mechanical properties :
#
#
# Convention : Reuss Voigt Hill
#
# Bulk Modulus (GPa) = 44.56117 73.65577 59.10847
# Shear Modulus (GPa) = -14.74903 12.70147 -1.02378
#
# Velocity S-wave (km/s) = -2.62230 2.43348 -0.69088
# Velocity P-wave (km/s) = 3.40694 6.49896 5.18863
#
# Compressibility (1/GPa) = 0.02244106
#
# Stress axis : x y z
#
# Youngs Moduli (GPa) = 202.43793 41.28978 129.94753
#
# Poissons Ratio (x) = 0.03374 0.21027
# Poissons Ratio (y) = 0.16541 0.62004
# Poissons Ratio (z) = 0.32756 0.19701
#
# Static dielectric constant tensor:
#      x y z
#    x 1.928000 0.000000 0.000000 
#    y 0.000000 1.752760 0.000000 
#    z 0.000000 0.000000 1.829720 
# 
# From -- ./inp_files/51419.got.cif
#   From: 2010.05.17/outbox.cif.g08.bks.cpg/sg64_26_cif.got.tgz:51419.got - 2010.06.03 16:29:19.
