data_PCOD9476579
_publ_section_title
;
Structure prediction by ZEFSAII (Michael W. Deem and Ramdas Pophale) SiO2 
 PCOD9476579
Probable space group: C M C A
;
_chemical_formula_sum "Si O2"
_cell_formula_units_Z 96
_cell_length_a 15.585420
_cell_length_b 18.334307
_cell_length_c 18.318817
_cell_angle_alpha 90.000000
_cell_angle_beta 90.000000
_cell_angle_gamma 90.000000
_cell_volume 5234.563030
_symmetry_space_group_name_H-M "C M C A"
_symmetry_group_IT_number 64
_symmetry_cell_setting 'orthorhombic'
loop_
_space_group_symop_operation_xyz
x,y,z
-x,1/2-y,1/2+z
x,-y,-z
-x,1/2+y,1/2-z
-x,-y,-z
x,1/2+y,1/2-z
-x,y,z
x,1/2-y,1/2+z
1/2+x,1/2+y,z
1/2-x,-y,1/2+z
1/2+x,1/2-y,-z
1/2-x,y,1/2-z
1/2-x,1/2-y,-z
1/2+x,y,1/2-z
1/2-x,1/2+y,z
1/2+x,-y,1/2+z
loop_
_atom_site_type_symbol
_atom_site_label
_atom_site_fract_x
_atom_site_fract_y
_atom_site_fract_z
Si Si1 0.096479 0.630186 0.854655
Si Si2 0.661654 0.181459 0.707184
Si Si3 0.903656 0.808025 0.603910
Si Si4 0.265095 0.399701 0.931861
Si Si5 0.261037 0.941073 0.396787
Si Si6 0.156394 0.257464 0.538362
O O1 0.099999 0.651696 0.770073
O O2 0.163381 0.565726 0.868736
O O3 0.135582 0.697380 0.901244
O O4 0.000000 0.615290 0.878798
O O5 0.750000 0.199326 0.750000
O O6 0.625090 0.251797 0.666595
O O7 0.684604 0.117211 0.649740
O O8 0.827622 0.867405 0.592754
O O9 0.904232 0.759712 0.529557
O O10 0.000000 0.836836 0.616037
O O11 0.287876 0.474867 0.892035
O O12 0.336533 0.336567 0.925329
O O13 0.260941 0.417995 0.018313
O O14 0.250000 0.250000 0.500000
#
# Coordination Sequence:
#
# PCOD9476579 Si02
#       6
#    16  16  16  16  16  16
#     4  11  21  35  56  83 112 145 181 227 280 323
#     4  10  20  37  56  77 107 151 193 219 258 330
#     4  11  20  33  56  85 112 138 177 231 282 319
#     4  10  19  33  56  82 108 138 178 230 270 324
#     4  10  19  34  55  79 108 143 181 219 270 327
#     4  10  17  34  55  80 109 141 181 223 267 325
#
# _framework density 18.339641
#
# number of rings (size 3 to 8) (size 9 to 14) (size 15 to 20)
#    0.000    1.667    5.000    4.000    0.000    0.667 
#    0.000    9.167    0.000    7.000    0.000    0.000 
#    0.000    0.000    0.000    0.000    0.000    0.000 
#
# Total GULP energy -267509.514457 kJ/mol
# GULP energy per Si atom -5573.114885 kJ/mol
# Density = 1.829790 g / cm^3
# Si number density = 18.339641 Si / 1000 Ang^3
#
#
#
# Elastic Constant Matrix: (Units=GPa)
#
#
# Indices 1 2 3 4 5 6 
#
# 1 36.8094 -17.0057 -2.7432 0.0000 0.0000 0.0000
# 2 -17.0057 55.4552 5.1585 0.0000 0.0000 0.0000
# 3 -2.7432 5.1585 68.9707 0.0000 0.0000 0.0000
# 4 0.0000 0.0000 0.0000 24.1752 0.0000 0.0000
# 5 0.0000 0.0000 0.0000 0.0000 6.1501 0.0000
# 6 0.0000 0.0000 0.0000 0.0000 0.0000 6.7956
#
#
#
# Elastic Compliance Matrix: (Units=1/GPa)
#
#
# Indices 1 2 3 4 5 6 
#
# 1 0.031671 0.009662 0.000537 0.000000 0.000000 0.000000
# 2 0.009662 0.021107 -0.001194 0.000000 0.000000 0.000000
# 3 0.000537 -0.001194 0.014610 0.000000 0.000000 0.000000
# 4 0.000000 0.000000 0.000000 0.041365 0.000000 0.000000
# 5 0.000000 0.000000 0.000000 0.000000 0.162600 0.000000
# 6 0.000000 0.000000 0.000000 0.000000 0.000000 0.147153
#
#
# Mechanical properties :
#
#
# Convention : Reuss Voigt Hill
#
# Bulk Modulus (GPa) = 11.71007 14.67272 13.19140
# Shear Modulus (GPa) = 11.65608 19.14589 15.40098
#
# Velocity S-wave (km/s) = 2.52378 3.23455 2.90101
# Velocity P-wave (km/s) = 3.85896 4.68696 4.29297
#
# Compressibility (1/GPa) = 0.08539661
#
# Stress axis : x y z
#
# Youngs Moduli (GPa) = 31.57479 47.37847 68.44814
#
# Poissons Ratio (x) = -0.45778 -0.03676
# Poissons Ratio (y) = -0.30508 0.08175
# Poissons Ratio (z) = -0.01696 0.05659
#
# Static dielectric constant tensor:
#      x y z
#    x 1.652300 0.000000 0.000000 
#    y 0.000000 1.663180 0.000000 
#    z 0.000000 0.000000 1.650530 
# 
# From -- ./inp_files/33326.got.cif
#   From: 2010.05.17/outbox.cif.g08.bks.cpg/sg64_17_cif.got.tgz:33326.got - 2010.06.03 16:29:19.
