data_PCOD9476301
_publ_section_title
;
Structure prediction by ZEFSAII (Michael W. Deem and Ramdas Pophale) SiO2 
 PCOD9476301
Probable space group: C M C A
;
_chemical_formula_sum "Si O2"
_cell_formula_units_Z 112
_cell_length_a 7.410614
_cell_length_b 30.503615
_cell_length_c 27.443411
_cell_angle_alpha 90.000000
_cell_angle_beta 90.000000
_cell_angle_gamma 90.000000
_cell_volume 6203.597227
_symmetry_space_group_name_H-M "C M C A"
_symmetry_group_IT_number 64
_symmetry_cell_setting 'orthorhombic'
loop_
_space_group_symop_operation_xyz
x,y,z
-x,1/2-y,1/2+z
x,-y,-z
-x,1/2+y,1/2-z
-x,-y,-z
x,1/2+y,1/2-z
-x,y,z
x,1/2-y,1/2+z
1/2+x,1/2+y,z
1/2-x,-y,1/2+z
1/2+x,1/2-y,-z
1/2-x,y,1/2-z
1/2-x,1/2-y,-z
1/2+x,y,1/2-z
1/2-x,1/2+y,z
1/2+x,-y,1/2+z
loop_
_atom_site_type_symbol
_atom_site_label
_atom_site_fract_x
_atom_site_fract_y
_atom_site_fract_z
Si Si1 0.283689 0.260757 0.386995
Si Si2 0.285565 0.654335 0.936132
Si Si3 0.718309 0.690367 0.038101
Si Si4 0.280239 0.441609 0.044190
Si Si5 0.280023 0.537232 0.066979
Si Si6 0.784298 0.192669 0.193054
Si Si7 0.718231 0.380218 0.878219
O O1 0.500000 0.257419 0.387217
O O2 0.241584 0.311789 0.392315
O O3 0.216275 0.234278 0.434939
O O4 0.218525 0.233497 0.340001
O O5 0.500000 0.650391 0.942965
O O6 0.217800 0.604494 0.933658
O O7 0.212050 0.677659 0.985086
O O8 0.500000 0.693623 0.035052
O O9 0.757484 0.650980 0.075555
O O10 0.500000 0.442252 0.045331
O O11 0.220685 0.486735 0.069622
O O12 0.230375 0.445219 0.987004
O O13 0.500000 0.537235 0.067896
O O14 0.217126 0.571325 0.107931
O O15 0.750000 0.196528 0.250000
O O16 0.717067 0.147320 0.168480
O O17 0.000000 0.192090 0.187099
O O18 0.500000 0.382991 0.874637
#
# Coordination Sequence:
#
# PCOD9476301 Si02
#       7
#    16  16  16  16  16  16  16
#     4   9  18  29  39  54  78 108 136 160 197 247
#     4  10  16  23  37  59  84 109 137 168 194 218
#     4   8  13  22  35  53  80 109 135 162 189 226
#     4   8  13  18  30  56  86 110 134 166 194 217
#     4   8  11  18  32  54  84 111 133 160 196 232
#     4   9  18  31  46  62  79 100 130 169 210 250
#     4   8  12  21  38  58  80 107 133 159 199 246
#
# _framework density 18.054041999999999
#
# number of rings (size 3 to 8) (size 9 to 14) (size 15 to 20)
#    0.000    3.429    1.429    3.000    0.000    0.571 
#    0.000    0.000    0.000    0.857    0.000    4.000 
#    0.000    4.571    0.000    0.000    0.000    0.000 
#
# Total GULP energy -311917.890065 kJ/mol
# GULP energy per Si atom -5569.962323 kJ/mol
# Density = 1.801295 g / cm^3
# Si number density = 18.054042 Si / 1000 Ang^3
#
#
#
# Elastic Constant Matrix: (Units=GPa)
#
#
# Indices 1 2 3 4 5 6 
#
# 1 57.2399 5.6365 0.4828 0.0000 0.0000 0.0000
# 2 5.6365 193.2985 74.5434 0.0000 0.0000 0.0000
# 3 0.4828 74.5434 81.4539 0.0000 0.0000 0.0000
# 4 0.0000 0.0000 0.0000 14.5373 0.0000 0.0000
# 5 0.0000 0.0000 0.0000 0.0000 -10.4222 0.0000
# 6 0.0000 0.0000 0.0000 0.0000 0.0000 11.3671
#
#
#
# Elastic Compliance Matrix: (Units=1/GPa)
#
#
# Indices 1 2 3 4 5 6 
#
# 1 0.017537 -0.000728 0.000563 0.000000 0.000000 0.000000
# 2 -0.000728 0.008025 -0.007340 0.000000 0.000000 0.000000
# 3 0.000563 -0.007340 0.018991 0.000000 0.000000 0.000000
# 4 0.000000 0.000000 0.000000 0.068789 0.000000 0.000000
# 5 0.000000 0.000000 0.000000 0.000000 -0.095949 0.000000
# 6 0.000000 0.000000 0.000000 0.000000 0.000000 0.087973
#
#
# Mechanical properties :
#
#
# Convention : Reuss Voigt Hill
#
# Bulk Modulus (GPa) = 33.85030 54.81308 44.33169
# Shear Modulus (GPa) = 38.39524 19.85175 29.12349
#
# Velocity S-wave (km/s) = 4.61660 3.31958 4.02073
# Velocity P-wave (km/s) = 6.87077 6.71709 6.79436
#
# Compressibility (1/GPa) = 0.02954183
#
# Stress axis : x y z
#
# Youngs Moduli (GPa) = 57.02134 124.60774 52.65691
#
# Poissons Ratio (x) = 0.09076 -0.02963
# Poissons Ratio (y) = 0.04153 0.38650
# Poissons Ratio (z) = -0.03208 0.91462
#
# Static dielectric constant tensor:
#      x y z
#    x 1.724120 0.000000 0.000000 
#    y 0.000000 1.670510 0.000000 
#    z 0.000000 0.000000 1.593920 
# 
# From -- ./inp_files/38580.got.cif
#   From: 2010.05.17/outbox.cif.g08.bks.cpg/sg64_20_cif.got.tgz:38580.got - 2010.06.03 16:29:19.
