data_PCOD9476033
_publ_section_title
;
Structure prediction by ZEFSAII (Michael W. Deem and Ramdas Pophale) SiO2 
 PCOD9476033
Probable space group: C M C M
;
_chemical_formula_sum "Si O2"
_cell_formula_units_Z 80
_cell_length_a 7.817991
_cell_length_b 31.198872
_cell_length_c 13.787501
_cell_angle_alpha 90.000000
_cell_angle_beta 90.000000
_cell_angle_gamma 90.000000
_cell_volume 3362.943845
_symmetry_space_group_name_H-M "C M C M"
_symmetry_group_IT_number 63
_symmetry_cell_setting 'orthorhombic'
loop_
_space_group_symop_operation_xyz
x,y,z
-x,-y,1/2+z
x,-y,-z
-x,y,1/2-z
-x,-y,-z
x,y,1/2-z
-x,y,z
x,-y,1/2+z
1/2+x,1/2+y,z
1/2-x,1/2-y,1/2+z
1/2+x,1/2-y,-z
1/2-x,1/2+y,1/2-z
1/2-x,1/2-y,-z
1/2+x,1/2+y,1/2-z
1/2-x,1/2+y,z
1/2+x,1/2-y,1/2+z
loop_
_atom_site_type_symbol
_atom_site_label
_atom_site_fract_x
_atom_site_fract_y
_atom_site_fract_z
Si Si1 0.804479 0.915287 0.852768
Si Si2 0.298129 0.282828 0.855888
Si Si3 0.206646 0.902369 0.429030
Si Si4 0.292275 0.308708 0.431564
Si Si5 0.306906 0.993852 0.115159
O O1 0.726679 0.900449 0.750000
O O2 0.000000 0.899296 0.854733
O O3 0.805935 0.967085 0.848680
O O4 0.729103 0.904964 0.958515
O O5 0.225596 0.294380 0.750000
O O6 0.500000 0.292290 0.853235
O O7 0.274927 0.231971 0.873313
O O8 0.232842 0.303943 0.955805
O O9 0.256146 0.855436 0.392302
O O10 0.262819 0.944215 0.370070
O O11 0.000000 0.904623 0.433019
O O12 0.500000 0.306004 0.431344
O O13 0.500000 0.002170 0.146198
O O14 0.298218 0.000000 0.000000
#
# Coordination Sequence:
#
# PCOD9476033 Si02
#       5
#    16  16  16  16  16
#     4   9  17  29  46  68  93 121 154 193 236 281
#     4   9  18  33  52  73  99 130 161 196 241 292
#     4   9  17  30  48  69  93 121 154 193 236 281
#     4   9  18  32  51  75 100 127 161 200 242 289
#     4   9  17  29  45  64  88 120 153 184 222 269
#
# _framework density 23.788682000000001
#
# number of rings (size 3 to 8) (size 9 to 14) (size 15 to 20)
#    0.000    3.000    0.000    0.600    0.000    4.800 
#    0.000    5.000    0.000    1.200    0.000   11.200 
#    0.000    0.000    0.000    0.000    0.000    0.000 
#
# Total GULP energy -223042.834490 kJ/mol
# GULP energy per Si atom -5576.070862 kJ/mol
# Density = 2.373454 g / cm^3
# Si number density = 23.788682 Si / 1000 Ang^3
#
#
#
# Elastic Constant Matrix: (Units=GPa)
#
#
# Indices 1 2 3 4 5 6 
#
# 1 40.8434 4.9278 -0.0166 0.0000 0.0000 0.0000
# 2 4.9278 152.2645 -10.3379 0.0000 0.0000 0.0000
# 3 -0.0166 -10.3379 84.3352 0.0000 0.0000 0.0000
# 4 0.0000 0.0000 0.0000 11.8400 0.0000 0.0000
# 5 0.0000 0.0000 0.0000 0.0000 -9.5543 0.0000
# 6 0.0000 0.0000 0.0000 0.0000 0.0000 11.8383
#
#
#
# Elastic Compliance Matrix: (Units=1/GPa)
#
#
# Indices 1 2 3 4 5 6 
#
# 1 0.024580 -0.000802 -0.000093 0.000000 0.000000 0.000000
# 2 -0.000802 0.006649 0.000815 0.000000 0.000000 0.000000
# 3 -0.000093 0.000815 0.011957 0.000000 0.000000 0.000000
# 4 0.000000 0.000000 0.000000 0.084459 0.000000 0.000000
# 5 0.000000 0.000000 0.000000 0.000000 -0.104665 0.000000
# 6 0.000000 0.000000 0.000000 0.000000 0.000000 0.084472
#
#
# Mechanical properties :
#
#
# Convention : Reuss Voigt Hill
#
# Bulk Modulus (GPa) = 23.24191 29.62106 26.43149
# Shear Modulus (GPa) = 40.99859 21.68279 31.34069
#
# Velocity S-wave (km/s) = 4.15595 3.02234 3.63362
# Velocity P-wave (km/s) = 5.72892 4.96570 5.36091
#
# Compressibility (1/GPa) = 0.04302572
#
# Stress axis : x y z
#
# Youngs Moduli (GPa) = 40.68267 150.40319 83.63082
#
# Poissons Ratio (x) = 0.12060 0.00781
# Poissons Ratio (y) = 0.03262 -0.06815
# Poissons Ratio (z) = 0.00380 -0.12256
#
# Static dielectric constant tensor:
#      x y z
#    x 1.894550 0.000000 0.000000 
#    y 0.000000 1.906050 0.000000 
#    z 0.000000 0.000000 1.942880 
# 
# From -- ./inp_files/30035.got.cif
#   From: 2010.05.17/outbox.cif.g08.bks.cpg/sg63_16_cif.got.tgz:30035.got - 2010.06.03 15:47:04.
