data_PCOD9476760
_publ_section_title
;
Structure prediction by ZEFSAII (Michael W. Deem and Ramdas Pophale) SiO2 
 PCOD9476760
Probable space group: C M C A
;
_chemical_formula_sum "Si O2"
_cell_formula_units_Z 96
_cell_length_a 8.522726
_cell_length_b 27.745235
_cell_length_c 19.513064
_cell_angle_alpha 90.000000
_cell_angle_beta 90.000000
_cell_angle_gamma 90.000000
_cell_volume 4614.157376
_symmetry_space_group_name_H-M "C M C A"
_symmetry_group_IT_number 64
_symmetry_cell_setting 'orthorhombic'
loop_
_space_group_symop_operation_xyz
x,y,z
-x,1/2-y,1/2+z
x,-y,-z
-x,1/2+y,1/2-z
-x,-y,-z
x,1/2+y,1/2-z
-x,y,z
x,1/2-y,1/2+z
1/2+x,1/2+y,z
1/2-x,-y,1/2+z
1/2+x,1/2-y,-z
1/2-x,y,1/2-z
1/2-x,1/2-y,-z
1/2+x,y,1/2-z
1/2-x,1/2+y,z
1/2+x,-y,1/2+z
loop_
_atom_site_type_symbol
_atom_site_label
_atom_site_fract_x
_atom_site_fract_y
_atom_site_fract_z
Si Si1 0.189264 0.600041 0.456679
Si Si2 0.689944 0.456574 0.827178
Si Si3 0.312251 0.853125 0.326402
Si Si4 0.189222 0.050304 0.910568
Si Si5 0.313818 0.750616 0.672990
Si Si6 0.184964 0.204258 0.458571
O O1 0.238144 0.585601 0.379938
O O2 0.243099 0.559753 0.511647
O O3 0.244847 0.652715 0.478656
O O4 0.000000 0.600132 0.458105
O O5 0.500000 0.457448 0.824351
O O6 0.750000 0.452371 0.750000
O O7 0.745899 0.505683 0.865064
O O8 0.500000 0.845092 0.325129
O O9 0.250000 0.862514 0.250000
O O10 0.278817 0.899685 0.371633
O O11 0.230252 0.803851 0.349678
O O12 0.000000 0.044066 0.914232
O O13 0.500000 0.756877 0.671678
O O14 0.250000 0.756052 0.750000
O O15 0.232657 0.786367 0.620148
O O16 0.250000 0.250000 0.500000
O O17 0.000000 0.203099 0.466907
#
# Coordination Sequence:
#
# PCOD9476760 Si02
#       6
#    16  16  16  16  16  16
#     4  10  21  39  62  86 115 153 199 246 294 348
#     4  10  21  38  61  88 119 156 196 240 290 348
#     4  10  18  30  51  81 117 154 195 245 300 355
#     4   9  18  34  58  85 113 151 198 244 290 345
#     4  11  22  38  59  85 118 157 202 250 304 361
#     4  12  25  42  63  89 121 157 201 249 303 363
#
# _framework density 20.805530999999998
#
# number of rings (size 3 to 8) (size 9 to 14) (size 15 to 20)
#    0.000    1.667    0.000    6.500    0.000    4.667 
#    0.000    4.167    0.000    2.000    0.000    0.000 
#    0.000    0.000    0.000    0.000    0.000    0.000 
#
# Total GULP energy -268255.348296 kJ/mol
# GULP energy per Si atom -5588.653089 kJ/mol
# Density = 2.075818 g / cm^3
# Si number density = 20.805531 Si / 1000 Ang^3
#
#
#
# Elastic Constant Matrix: (Units=GPa)
#
#
# Indices 1 2 3 4 5 6 
#
# 1 31.1584 15.7041 16.7026 0.0000 0.0000 0.0000
# 2 15.7041 89.8483 50.1837 0.0000 0.0000 0.0000
# 3 16.7026 50.1837 117.8111 0.0000 0.0000 0.0000
# 4 0.0000 0.0000 0.0000 -94.5279 0.0000 0.0000
# 5 0.0000 0.0000 0.0000 0.0000 29.4628 0.0000
# 6 0.0000 0.0000 0.0000 0.0000 0.0000 24.2775
#
#
#
# Elastic Compliance Matrix: (Units=1/GPa)
#
#
# Indices 1 2 3 4 5 6 
#
# 1 0.036084 -0.004527 -0.003188 0.000000 0.000000 0.000000
# 2 -0.004527 0.015172 -0.005821 0.000000 0.000000 0.000000
# 3 -0.003188 -0.005821 0.011420 0.000000 0.000000 0.000000
# 4 0.000000 0.000000 0.000000 -0.010579 0.000000 0.000000
# 5 0.000000 0.000000 0.000000 0.000000 0.033941 0.000000
# 6 0.000000 0.000000 0.000000 0.000000 0.000000 0.041190
#
#
# Mechanical properties :
#
#
# Convention : Reuss Voigt Hill
#
# Bulk Modulus (GPa) = 28.08547 44.88875 36.48711
# Shear Modulus (GPa) = 30.08993 2.25763 16.17378
#
# Velocity S-wave (km/s) = 3.80708 1.04282 2.79118
# Velocity P-wave (km/s) = 5.73180 4.80335 5.28799
#
# Compressibility (1/GPa) = 0.03560560
#
# Stress axis : x y z
#
# Youngs Moduli (GPa) = 27.71286 65.90906 87.56771
#
# Poissons Ratio (x) = 0.29834 0.27914
# Poissons Ratio (y) = 0.12544 0.50975
# Poissons Ratio (z) = 0.08834 0.38367
#
# Static dielectric constant tensor:
#      x y z
#    x 1.706630 0.000000 0.000000 
#    y 0.000000 1.760380 0.000000 
#    z 0.000000 0.000000 1.749340 
# 
# From -- ./inp_files/37118.got.cif
#   From: 2010.05.17/outbox.cif.g08.bks.cpg/sg64_19_cif.got.tgz:37118.got - 2010.06.03 16:29:19.
