data_PCOD9476885
_publ_section_title
;
Structure prediction by ZEFSAII (Michael W. Deem and Ramdas Pophale) SiO2 
 PCOD9476885
Probable space group: C M C A
;
_chemical_formula_sum "Si O2"
_cell_formula_units_Z 96
_cell_length_a 23.486228
_cell_length_b 9.826308
_cell_length_c 24.932758
_cell_angle_alpha 90.000000
_cell_angle_beta 90.000000
_cell_angle_gamma 90.000000
_cell_volume 5754.054448
_symmetry_space_group_name_H-M "C M C A"
_symmetry_group_IT_number 64
_symmetry_cell_setting 'orthorhombic'
loop_
_space_group_symop_operation_xyz
x,y,z
-x,1/2-y,1/2+z
x,-y,-z
-x,1/2+y,1/2-z
-x,-y,-z
x,1/2+y,1/2-z
-x,y,z
x,1/2-y,1/2+z
1/2+x,1/2+y,z
1/2-x,-y,1/2+z
1/2+x,1/2-y,-z
1/2-x,y,1/2-z
1/2-x,1/2-y,-z
1/2+x,y,1/2-z
1/2-x,1/2+y,z
1/2+x,-y,1/2+z
loop_
_atom_site_type_symbol
_atom_site_label
_atom_site_fract_x
_atom_site_fract_y
_atom_site_fract_z
Si Si1 0.565944 0.755176 0.802003
Si Si2 0.350664 0.419002 0.403084
Si Si3 0.067034 0.922791 0.302977
Si Si4 0.938331 0.661820 0.987731
Si Si5 0.764318 0.372134 0.459960
Si Si6 0.125489 0.741852 0.087095
O O1 0.500000 0.730708 0.816316
O O2 0.578253 0.666817 0.749522
O O3 0.603407 0.723258 0.853966
O O4 0.571575 0.916364 0.790535
O O5 0.385572 0.393126 0.348293
O O6 0.386198 0.333017 0.446963
O O7 0.285045 0.385517 0.414896
O O8 0.355648 0.582269 0.412525
O O9 0.000000 0.900092 0.319997
O O10 0.000000 0.702910 0.965805
O O11 0.941757 0.500000 0.000000
O O12 0.923733 0.740732 0.042085
O O13 0.765880 0.500000 0.500000
O O14 0.750000 0.250000 0.500000
O O15 0.823687 0.337550 0.431799
#
# Coordination Sequence:
#
# PCOD9476885 Si02
#       6
#    16  16  16  16  16  16
#     4   9  18  35  57  80 107 139 176 220 271 321
#     4  10  18  32  53  77 104 137 180 220 261 319
#     4   9  18  34  56  80 106 137 174 221 273 321
#     4   9  15  25  47  78 103 126 167 217 261 313
#     4  12  21  37  55  77 108 144 178 218 266 318
#     4  10  19  33  53  77 105 140 178 217 267 321
#
# _framework density 16.683888
#
# number of rings (size 3 to 8) (size 9 to 14) (size 15 to 20)
#    0.000    2.167    3.333    1.500    0.000    4.000 
#    3.000    0.833    0.000    6.000    0.000    0.000 
#    0.000    0.000    0.000    0.000    0.000    0.000 
#
# Total GULP energy -267270.750183 kJ/mol
# GULP energy per Si atom -5568.140629 kJ/mol
# Density = 1.664592 g / cm^3
# Si number density = 16.683888 Si / 1000 Ang^3
#
#
#
# Elastic Constant Matrix: (Units=GPa)
#
#
# Indices 1 2 3 4 5 6 
#
# 1 101.4673 33.3977 57.1308 0.0000 0.0000 0.0000
# 2 33.3977 51.2089 47.5150 0.0000 0.0000 0.0000
# 3 57.1308 47.5150 105.8304 0.0000 0.0000 0.0000
# 4 0.0000 0.0000 0.0000 26.4851 0.0000 0.0000
# 5 0.0000 0.0000 0.0000 0.0000 31.7919 0.0000
# 6 0.0000 0.0000 0.0000 0.0000 0.0000 15.5534
#
#
#
# Elastic Compliance Matrix: (Units=1/GPa)
#
#
# Indices 1 2 3 4 5 6 
#
# 1 0.014574 -0.003779 -0.006171 0.000000 0.000000 0.000000
# 2 -0.003779 0.034452 -0.013428 0.000000 0.000000 0.000000
# 3 -0.006171 -0.013428 0.018809 0.000000 0.000000 0.000000
# 4 0.000000 0.000000 0.000000 0.037757 0.000000 0.000000
# 5 0.000000 0.000000 0.000000 0.000000 0.031455 0.000000
# 6 0.000000 0.000000 0.000000 0.000000 0.000000 0.064294
#
#
# Mechanical properties :
#
#
# Convention : Reuss Voigt Hill
#
# Bulk Modulus (GPa) = 47.44025 59.39929 53.41977
# Shear Modulus (GPa) = 19.59848 22.79697 21.19772
#
# Velocity S-wave (km/s) = 3.43110 3.70050 3.56835
# Velocity P-wave (km/s) = 6.64779 7.34427 7.00469
#
# Compressibility (1/GPa) = 0.02107915
#
# Stress axis : x y z
#
# Youngs Moduli (GPa) = 68.61703 29.02607 53.16640
#
# Poissons Ratio (x) = 0.10970 0.32807
# Poissons Ratio (y) = 0.25932 0.71391
# Poissons Ratio (z) = 0.42341 0.38976
#
# Static dielectric constant tensor:
#      x y z
#    x 1.601880 0.000000 0.000000 
#    y 0.000000 1.335470 0.000000 
#    z 0.000000 0.000000 1.611550 
# 
# From -- ./inp_files/50971.got.cif
#   From: 2010.05.17/outbox.cif.g08.bks.cpg/sg64_26_cif.got.tgz:50971.got - 2010.06.03 16:29:19.
