data_PCOD9476031
_publ_section_title
;
Structure prediction by ZEFSAII (Michael W. Deem and Ramdas Pophale) SiO2 
 PCOD9476031
Probable space group: C M C M
;
_chemical_formula_sum "Si O2"
_cell_formula_units_Z 96
_cell_length_a 7.306934
_cell_length_b 22.324833
_cell_length_c 24.289636
_cell_angle_alpha 90.000000
_cell_angle_beta 90.000000
_cell_angle_gamma 90.000000
_cell_volume 3962.273137
_symmetry_space_group_name_H-M "C M C M"
_symmetry_group_IT_number 63
_symmetry_cell_setting 'orthorhombic'
loop_
_space_group_symop_operation_xyz
x,y,z
-x,-y,1/2+z
x,-y,-z
-x,y,1/2-z
-x,-y,-z
x,y,1/2-z
-x,y,z
x,-y,1/2+z
1/2+x,1/2+y,z
1/2-x,1/2-y,1/2+z
1/2+x,1/2-y,-z
1/2-x,1/2+y,1/2-z
1/2-x,1/2-y,-z
1/2+x,1/2+y,1/2-z
1/2-x,1/2+y,z
1/2+x,1/2-y,1/2+z
loop_
_atom_site_type_symbol
_atom_site_label
_atom_site_fract_x
_atom_site_fract_y
_atom_site_fract_z
Si Si1 0.276642 0.657908 0.917678
Si Si2 0.719867 0.851890 0.811844
Si Si3 0.209028 0.087944 0.483078
Si Si4 0.715565 0.525376 0.123397
Si Si5 0.278487 0.210001 0.420101
Si Si6 0.723188 0.407993 0.187340
O O1 0.500000 0.657540 0.920405
O O2 0.216846 0.723768 0.936408
O O3 0.226339 0.644396 0.854935
O O4 0.211349 0.604537 0.957588
O O5 0.789924 0.845220 0.750000
O O6 0.500000 0.849310 0.809387
O O7 0.767072 0.916064 0.838267
O O8 0.775622 0.802885 0.856834
O O9 0.290333 0.043629 0.437089
O O10 0.207495 0.153574 0.454195
O O11 0.000000 0.068963 0.492241
O O12 0.500000 0.514272 0.114705
O O13 0.785914 0.469033 0.157472
O O14 0.500000 0.207725 0.423746
O O15 0.786026 0.402705 0.250000
O O16 0.500000 0.409655 0.189283
#
# Coordination Sequence:
#
# PCOD9476031 Si02
#       6
#    16  16  16  16  16  16
#     4   9  17  28  43  64  89 117 147 179 216 259
#     4   9  17  28  43  64  88 114 145 182 222 260
#     4   9  17  29  46  68  91 114 143 180 221 261
#     4   9  17  29  46  67  89 114 145 181 220 260
#     4   9  17  29  45  65  89 116 146 180 218 260
#     4   9  17  28  43  65  91 117 146 181 219 257
#
# _framework density 24.228515000000002
#
# number of rings (size 3 to 8) (size 9 to 14) (size 15 to 20)
#    0.000    3.000    0.000    1.000    0.000    2.333 
#    0.000    6.667    0.000    2.000    0.000    4.667 
#    0.000    0.000    0.000    0.000    0.000    0.000 
#
# Total GULP energy -268110.117590 kJ/mol
# GULP energy per Si atom -5585.627450 kJ/mol
# Density = 2.417337 g / cm^3
# Si number density = 24.228515 Si / 1000 Ang^3
#
#
#
# Elastic Constant Matrix: (Units=GPa)
#
#
# Indices 1 2 3 4 5 6 
#
# 1 103.2855 -1.3301 2.1506 0.0000 0.0000 0.0000
# 2 -1.3301 92.0650 33.8336 0.0000 0.0000 0.0000
# 3 2.1506 33.8336 158.3274 0.0000 0.0000 0.0000
# 4 0.0000 0.0000 0.0000 29.8868 0.0000 0.0000
# 5 0.0000 0.0000 0.0000 0.0000 -5.4507 0.0000
# 6 0.0000 0.0000 0.0000 0.0000 0.0000 1.0105
#
#
#
# Elastic Compliance Matrix: (Units=1/GPa)
#
#
# Indices 1 2 3 4 5 6 
#
# 1 0.009688 0.000204 -0.000175 0.000000 0.000000 0.000000
# 2 0.000204 0.011792 -0.002523 0.000000 0.000000 0.000000
# 3 -0.000175 -0.002523 0.006857 0.000000 0.000000 0.000000
# 4 0.000000 0.000000 0.000000 0.033460 0.000000 0.000000
# 5 0.000000 0.000000 0.000000 0.000000 -0.183462 0.000000
# 6 0.000000 0.000000 0.000000 0.000000 0.000000 0.989605
#
#
# Mechanical properties :
#
#
# Convention : Reuss Voigt Hill
#
# Bulk Modulus (GPa) = 42.82561 46.99846 44.91203
# Shear Modulus (GPa) = 5.67723 26.35757 16.01740
#
# Velocity S-wave (km/s) = 1.53241 3.30187 2.57397
# Velocity P-wave (km/s) = 4.56565 5.82894 5.23554
#
# Compressibility (1/GPa) = 0.02335051
#
# Stress axis : x y z
#
# Youngs Moduli (GPa) = 103.21855 84.80395 145.82622
#
# Poissons Ratio (x) = -0.01733 0.02556
# Poissons Ratio (y) = -0.02110 0.36787
# Poissons Ratio (z) = 0.01809 0.21393
#
# Static dielectric constant tensor:
#      x y z
#    x 1.920610 0.000000 0.000000 
#    y 0.000000 1.892720 0.000000 
#    z 0.000000 0.000000 1.934420 
# 
# From -- ./inp_files/59833.got.cif
#   From: 2010.05.17/outbox.cif.g08.bks.cpg/sg63_30_cif.got.tgz:59833.got - 2010.06.03 15:47:04.
