data_PCOD9476511
_publ_section_title
;
Structure prediction by ZEFSAII (Michael W. Deem and Ramdas Pophale) SiO2 
 PCOD9476511
Probable space group: C M C A
;
_chemical_formula_sum "Si O2"
_cell_formula_units_Z 96
_cell_length_a 7.974976
_cell_length_b 21.399803
_cell_length_c 25.512942
_cell_angle_alpha 90.000000
_cell_angle_beta 90.000000
_cell_angle_gamma 90.000000
_cell_volume 4354.113060
_symmetry_space_group_name_H-M "C M C A"
_symmetry_group_IT_number 64
_symmetry_cell_setting 'orthorhombic'
loop_
_space_group_symop_operation_xyz
x,y,z
-x,1/2-y,1/2+z
x,-y,-z
-x,1/2+y,1/2-z
-x,-y,-z
x,1/2+y,1/2-z
-x,y,z
x,1/2-y,1/2+z
1/2+x,1/2+y,z
1/2-x,-y,1/2+z
1/2+x,1/2-y,-z
1/2-x,y,1/2-z
1/2-x,1/2-y,-z
1/2+x,y,1/2-z
1/2-x,1/2+y,z
1/2+x,-y,1/2+z
loop_
_atom_site_type_symbol
_atom_site_label
_atom_site_fract_x
_atom_site_fract_y
_atom_site_fract_z
Si Si1 0.308198 0.732053 0.656966
Si Si2 0.690201 0.296257 0.955737
Si Si3 0.795410 0.534246 0.109727
Si Si4 0.808225 0.582369 0.003943
Si Si5 0.196850 0.864934 0.692510
Si Si6 0.204690 0.895752 0.386130
O O1 0.500000 0.725567 0.675676
O O2 0.306855 0.759281 0.598079
O O3 0.232973 0.790903 0.687559
O O4 0.233195 0.662522 0.648913
O O5 0.500000 0.318015 0.964758
O O6 0.807590 0.355615 0.960044
O O7 0.750000 0.250000 0.000000
O O8 0.736647 0.535542 0.048436
O O9 0.729681 0.590594 0.146372
O O10 0.754758 0.465783 0.132616
O O11 0.000000 0.537318 0.106921
O O12 0.000000 0.564967 0.992259
O O13 0.737425 0.603788 0.947444
O O14 0.250000 0.886475 0.750000
O O15 0.000000 0.872354 0.688003
O O16 0.000000 0.888348 0.386924
#
# Coordination Sequence:
#
# PCOD9476511 Si02
#       6
#    16  16  16  16  16  16
#     4  10  20  35  56  81 111 146 184 229 275 320
#     4  11  20  30  48  78 114 153 189 223 265 314
#     4   9  18  32  55  84 112 146 186 227 267 322
#     4  10  17  30  52  82 114 150 189 221 261 318
#     4  11  23  40  62  84 105 135 181 233 285 335
#     4   9  17  31  53  84 118 149 183 221 265 320
#
# _framework density 22.048119
#
# number of rings (size 3 to 8) (size 9 to 14) (size 15 to 20)
#    0.000    2.000    3.333    1.500    0.000    2.667 
#    0.000    0.833    0.000    9.000    0.000    0.000 
#    0.000    0.000    0.000    0.000    0.000    0.000 
#
# Total GULP energy -267405.725598 kJ/mol
# GULP energy per Si atom -5570.952617 kJ/mol
# Density = 2.199794 g / cm^3
# Si number density = 22.048119 Si / 1000 Ang^3
#
#
#
# Elastic Constant Matrix: (Units=GPa)
#
#
# Indices 1 2 3 4 5 6 
#
# 1 30.0935 4.4102 5.4611 0.0000 0.0000 0.0000
# 2 4.4102 132.5406 23.7290 0.0000 0.0000 0.0000
# 3 5.4611 23.7290 91.0646 0.0000 0.0000 0.0000
# 4 0.0000 0.0000 0.0000 -23.0446 0.0000 0.0000
# 5 0.0000 0.0000 0.0000 0.0000 16.0114 0.0000
# 6 0.0000 0.0000 0.0000 0.0000 0.0000 15.6913
#
#
#
# Elastic Compliance Matrix: (Units=1/GPa)
#
#
# Indices 1 2 3 4 5 6 
#
# 1 0.033675 -0.000796 -0.001812 0.000000 0.000000 0.000000
# 2 -0.000796 0.007933 -0.002019 0.000000 0.000000 0.000000
# 3 -0.001812 -0.002019 0.011616 0.000000 0.000000 0.000000
# 4 0.000000 0.000000 0.000000 -0.043394 0.000000 0.000000
# 5 0.000000 0.000000 0.000000 0.000000 0.062456 0.000000
# 6 0.000000 0.000000 0.000000 0.000000 0.000000 0.063730
#
#
# Mechanical properties :
#
#
# Convention : Reuss Voigt Hill
#
# Bulk Modulus (GPa) = 22.74320 35.65549 29.19935
# Shear Modulus (GPa) = 31.26434 16.40485 23.83459
#
# Velocity S-wave (km/s) = 3.76973 2.73068 3.29146
# Velocity P-wave (km/s) = 5.41160 5.11360 5.26471
#
# Compressibility (1/GPa) = 0.04396918
#
# Stress axis : x y z
#
# Youngs Moduli (GPa) = 29.69539 126.05769 86.08762
#
# Poissons Ratio (x) = 0.10036 0.15599
# Poissons Ratio (y) = 0.02364 0.17384
# Poissons Ratio (z) = 0.05381 0.25456
#
# Static dielectric constant tensor:
#      x y z
#    x 1.859720 0.000000 0.000000 
#    y 0.000000 1.919190 0.000000 
#    z 0.000000 0.000000 1.796550 
# 
# From -- ./inp_files/48081.got.cif
#   From: 2010.05.17/outbox.cif.g08.bks.cpg/sg64_25_cif.got.tgz:48081.got - 2010.06.03 16:29:19.
