data_PCOD9476566
_publ_section_title
;
Structure prediction by ZEFSAII (Michael W. Deem and Ramdas Pophale) SiO2 
 PCOD9476566
Probable space group: C M C A
;
_chemical_formula_sum "Si O2"
_cell_formula_units_Z 120
_cell_length_a 29.328599
_cell_length_b 11.619518
_cell_length_c 18.168727
_cell_angle_alpha 90.000000
_cell_angle_beta 90.000000
_cell_angle_gamma 90.000000
_cell_volume 6191.614805
_symmetry_space_group_name_H-M "C M C A"
_symmetry_group_IT_number 64
_symmetry_cell_setting 'orthorhombic'
loop_
_space_group_symop_operation_xyz
x,y,z
-x,1/2-y,1/2+z
x,-y,-z
-x,1/2+y,1/2-z
-x,-y,-z
x,1/2+y,1/2-z
-x,y,z
x,1/2-y,1/2+z
1/2+x,1/2+y,z
1/2-x,-y,1/2+z
1/2+x,1/2-y,-z
1/2-x,y,1/2-z
1/2-x,1/2-y,-z
1/2+x,y,1/2-z
1/2-x,1/2+y,z
1/2+x,-y,1/2+z
loop_
_atom_site_type_symbol
_atom_site_label
_atom_site_fract_x
_atom_site_fract_y
_atom_site_fract_z
Si Si1 0.620511 0.097444 0.165898
Si Si2 0.387049 0.163836 0.623729
Si Si3 0.048279 0.830671 0.875576
Si Si4 0.853204 0.698801 0.327816
Si Si5 0.448411 0.534073 0.757734
Si Si6 0.925115 0.500000 0.500000
Si Si7 0.198484 0.467787 0.339724
Si Si8 0.300524 0.563575 0.664254
O O1 0.604561 0.201458 0.114784
O O2 0.636100 0.162082 0.242712
O O3 0.581285 0.007279 0.188675
O O4 0.662626 0.026162 0.133787
O O5 0.418120 0.119694 0.692343
O O6 0.398497 0.084219 0.554741
O O7 0.334350 0.137436 0.640229
O O8 0.098027 0.774550 0.866083
O O9 0.047657 0.919110 0.807132
O O10 0.000000 0.764915 0.875446
O O11 0.048913 0.912671 0.946674
O O12 0.828356 0.585027 0.360486
O O13 0.820169 0.807262 0.336960
O O14 0.500000 0.575333 0.744673
O O15 0.249923 0.452950 0.367360
O O16 0.201329 0.467148 0.251141
#
# Coordination Sequence:
#
# PCOD9476566 Si02
#       8
#    16  16  16  16  16   8  16  16
#     4  10  18  32  48  78 110 137 178 226 270 328
#     4  11  19  34  53  78 112 142 182 231 270 329
#     4   9  17  31  54  77 100 136 180 222 267 318
#     4  10  17  33  50  77 115 137 175 225 280 335
#     4   9  17  31  47  72 106 138 166 212 284 333
#     4  10  19  34  54  82 108 144 188 232 271 312
#     4  10  19  30  49  78 105 143 176 222 270 324
#     4  10  20  29  52  78 109 143 176 218 278 333
#
# _framework density 19.381050999999999
#
# number of rings (size 3 to 8) (size 9 to 14) (size 15 to 20)
#    0.000    2.133    6.667    0.200    1.867    2.133 
#    0.000    3.333    0.000    4.000    0.000    0.933 
#    0.000    0.000    0.000    0.000    0.000    0.000 
#
# Total GULP energy -334149.804151 kJ/mol
# GULP energy per Si atom -5569.163403 kJ/mol
# Density = 1.933694 g / cm^3
# Si number density = 19.381051 Si / 1000 Ang^3
#
#
#
# Elastic Constant Matrix: (Units=GPa)
#
#
# Indices 1 2 3 4 5 6 
#
# 1 167.0627 38.5980 17.3976 0.0000 0.0000 0.0000
# 2 38.5980 74.4682 9.0844 0.0000 0.0000 0.0000
# 3 17.3976 9.0844 23.9901 0.0000 0.0000 0.0000
# 4 0.0000 0.0000 0.0000 12.4404 0.0000 0.0000
# 5 0.0000 0.0000 0.0000 0.0000 104.1408 0.0000
# 6 0.0000 0.0000 0.0000 0.0000 0.0000 -3.6470
#
#
#
# Elastic Compliance Matrix: (Units=1/GPa)
#
#
# Indices 1 2 3 4 5 6 
#
# 1 0.007142 -0.003219 -0.003960 0.000000 0.000000 0.000000
# 2 -0.003219 0.015529 -0.003546 0.000000 0.000000 0.000000
# 3 -0.003960 -0.003546 0.045899 0.000000 0.000000 0.000000
# 4 0.000000 0.000000 0.000000 0.080383 0.000000 0.000000
# 5 0.000000 0.000000 0.000000 0.000000 0.009602 0.000000
# 6 0.000000 0.000000 0.000000 0.000000 0.000000 -0.274199
#
#
# Mechanical properties :
#
#
# Convention : Reuss Voigt Hill
#
# Bulk Modulus (GPa) = 21.22277 43.96456 32.59366
# Shear Modulus (GPa) = -63.70573 35.94958 -13.87807
#
# Velocity S-wave (km/s) = -5.73947 4.31151 -2.67884
# Velocity P-wave (km/s) = 5.74003 6.89340 2.69917
#
# Compressibility (1/GPa) = 0.04711921
#
# Stress axis : x y z
#
# Youngs Moduli (GPa) = 140.02009 64.39391 21.78698
#
# Poissons Ratio (x) = 0.20726 0.08629
# Poissons Ratio (y) = 0.45067 0.07727
# Poissons Ratio (z) = 0.55455 0.22837
#
# Static dielectric constant tensor:
#      x y z
#    x 1.740580 0.000000 0.000000 
#    y 0.000000 1.688810 0.000000 
#    z 0.000000 0.000000 1.689730 
# 
# From -- ./inp_files/41975.got.cif
#   From: 2010.05.17/outbox.cif.g08.bks.cpg/sg64_21_cif.got.tgz:41975.got - 2010.06.03 16:29:19.
