data_PCOD9476235
_publ_section_title
;
Structure prediction by ZEFSAII (Michael W. Deem and Ramdas Pophale) SiO2 
 PCOD9476235
Probable space group: C M C M
;
_chemical_formula_sum "Si O2"
_cell_formula_units_Z 40
_cell_length_a 9.000000
_cell_length_b 27.000000
_cell_length_c 18.000000
_cell_angle_alpha 90.000000
_cell_angle_beta 90.000000
_cell_angle_gamma 90.000000
_cell_volume 4374.000000
_symmetry_space_group_name_H-M "C M C M"
_symmetry_group_IT_number 63
_symmetry_cell_setting 'orthorhombic'
loop_
_space_group_symop_operation_xyz
x,y,z
-x,-y,1/2+z
x,-y,-z
-x,y,1/2-z
-x,-y,-z
x,y,1/2-z
-x,y,z
x,-y,1/2+z
1/2+x,1/2+y,z
1/2-x,1/2-y,1/2+z
1/2+x,1/2-y,-z
1/2-x,1/2+y,1/2-z
1/2-x,1/2-y,-z
1/2+x,1/2+y,1/2-z
1/2-x,1/2+y,z
1/2+x,1/2-y,1/2+z
loop_
_atom_site_type_symbol
_atom_site_label
_atom_site_fract_x
_atom_site_fract_y
_atom_site_fract_z
Si Si1 0.673454 0.608570 0.447854
Si Si2 0.825155 0.300183 0.025242
Si Si3 0.673585 0.655779 0.664473
Si Si4 0.828997 0.951910 0.405533
Si Si5 0.828660 0.543912 0.337583
O O1 0.500000 0.621119 0.449375
O O2 0.766607 0.655334 0.473945
O O3 0.696288 0.565934 0.510315
O O4 0.726446 0.586815 0.370572
O O5 0.773611 0.313980 0.108106
O O6 0.000000 0.296306 0.020753
O O7 0.750000 0.250000 0.000000
O O8 0.710496 0.663518 0.750000
O O9 0.500000 0.668724 0.652077
O O10 0.686275 0.597851 0.643275
O O11 0.000000 0.969727 0.399215
O O12 0.719274 0.993272 0.376968
O O13 0.809713 0.538233 0.250000
O O14 0.000000 0.555284 0.354000
#
# Coordination Sequence:
#
# PCOD9476235 Si02
#       5
#    16  16  16  16  16
#     4  10  21  38  58  79 104 138 182 226 269 320
#     4  11  22  38  60  83 109 140 177 222 271 324
#     4   9  18  34  56  83 114 144 177 221 270 317
#     4   9  18  33  54  79 107 142 181 218 260 314
#     4  11  23  35  49  76 113 148 182 221 265 314
#
# _framework density 9.1449470000000002
#
# number of rings (size 3 to 8) (size 9 to 14) (size 15 to 20)
#    0.000    2.000    0.000    5.400    0.000    9.200 
#    0.000    1.000    0.000    6.000    0.000    0.000 
#    0.000    0.000    0.000    0.000    0.000    0.000 
#
# Total GULP energy -223370.996829 kJ/mol
# GULP energy per Si atom -5584.274921 kJ/mol
# Density = 0.912413 g / cm^3
# Si number density = 9.144947 Si / 1000 Ang^3
#
#
#
# Elastic Constant Matrix: (Units=GPa)
#
#
# Indices 1 2 3 4 5 6 
#
# 1 89.5026 56.9750 56.5486 0.0000 0.0000 0.0000
# 2 56.9750 49.8795 42.6508 0.0000 0.0000 0.0000
# 3 56.5486 42.6508 23.1633 0.0000 0.0000 0.0000
# 4 0.0000 0.0000 0.0000 0.7496 0.0000 0.0000
# 5 0.0000 0.0000 0.0000 0.0000 27.7427 0.0000
# 6 0.0000 0.0000 0.0000 0.0000 0.0000 32.1218
#
#
#
# Elastic Compliance Matrix: (Units=1/GPa)
#
#
# Indices 1 2 3 4 5 6 
#
# 1 0.034446 -0.056679 0.020271 0.000000 0.000000 0.000000
# 2 -0.056679 0.058364 0.030906 0.000000 0.000000 0.000000
# 3 0.020271 0.030906 -0.063223 0.000000 0.000000 0.000000
# 4 0.000000 0.000000 0.000000 1.333978 0.000000 0.000000
# 5 0.000000 0.000000 0.000000 0.000000 0.036046 0.000000
# 6 0.000000 0.000000 0.000000 0.000000 0.000000 0.031132
#
#
# Mechanical properties :
#
#
# Convention : Reuss Voigt Hill
#
# Bulk Modulus (GPa) = 53.81637 52.76601 53.29119
# Shear Modulus (GPa) = 3.45318 12.54756 8.00037
#
# Velocity S-wave (km/s) = 1.37555 2.62207 2.09373
# Velocity P-wave (km/s) = 5.65781 6.17086 5.91989
#
# Compressibility (1/GPa) = 0.01858171
#
# Stress axis : x y z
#
# Youngs Moduli (GPa) = 29.03089 17.13393 -15.81705
#
# Poissons Ratio (x) = 0.97114 0.32063
# Poissons Ratio (y) = 1.64545 0.48884
# Poissons Ratio (z) = -0.58849 -0.52954
#
# Static dielectric constant tensor:
#      x y z
#    x 1.607830 0.000000 0.000000 
#    y 0.000000 1.633740 0.000000 
#    z 0.000000 0.000000 1.628300 
# 
# From -- ./inp_files/40458.got.cif
#   From: 2010.05.17/outbox.ucp.g08.bks.cvg/sg63_21_cif.got.tgz:40458.got - 2010.06.11 16:32:19.
