data_PCOD9476509
_publ_section_title
;
Structure prediction by ZEFSAII (Michael W. Deem and Ramdas Pophale) SiO2 
 PCOD9476509
Probable space group: C M C A
;
_chemical_formula_sum "Si O2"
_cell_formula_units_Z 96
_cell_length_a 16.030029
_cell_length_b 19.499781
_cell_length_c 13.208355
_cell_angle_alpha 90.000000
_cell_angle_beta 90.000000
_cell_angle_gamma 90.000000
_cell_volume 4128.694748
_symmetry_space_group_name_H-M "C M C A"
_symmetry_group_IT_number 64
_symmetry_cell_setting 'orthorhombic'
loop_
_space_group_symop_operation_xyz
x,y,z
-x,1/2-y,1/2+z
x,-y,-z
-x,1/2+y,1/2-z
-x,-y,-z
x,1/2+y,1/2-z
-x,y,z
x,1/2-y,1/2+z
1/2+x,1/2+y,z
1/2-x,-y,1/2+z
1/2+x,1/2-y,-z
1/2-x,y,1/2-z
1/2-x,1/2-y,-z
1/2+x,y,1/2-z
1/2-x,1/2+y,z
1/2+x,-y,1/2+z
loop_
_atom_site_type_symbol
_atom_site_label
_atom_site_fract_x
_atom_site_fract_y
_atom_site_fract_z
Si Si1 0.500000 0.679851 0.081773
Si Si2 0.843128 0.351003 0.447161
Si Si3 0.000000 0.826809 0.717142
Si Si4 0.901993 0.510197 0.622101
Si Si5 0.250000 0.502736 0.750000
Si Si6 0.173051 0.881881 0.390662
Si Si7 0.333802 0.244530 0.731128
Si Si8 0.500000 0.342775 0.478815
O O1 0.500000 0.629929 0.181134
O O2 0.500000 0.763562 0.062703
O O3 0.585784 0.657596 0.028541
O O4 0.876045 0.409313 0.369927
O O5 0.747674 0.369198 0.471506
O O6 0.837564 0.281641 0.383323
O O7 0.919249 0.782391 0.744471
O O8 0.000000 0.845351 0.601074
O O9 0.893734 0.500000 0.500000
O O10 0.828784 0.471440 0.685820
O O11 0.000000 0.506998 0.648957
O O12 0.200402 0.549888 0.831760
O O13 0.173997 0.818736 0.309986
O O14 0.082708 0.880055 0.439121
O O15 0.250000 0.287217 0.750000
#
# Coordination Sequence:
#
# PCOD9476509 Si02
#       8
#     8  16   8  16   8  16  16   8
#     4  12  22  32  55  72 114 158 187 244 278 326
#     4  10  19  35  56  82 111 145 184 240 290 322
#     4  12  24  34  44  78 109 153 197 232 278 317
#     4  10  20  35  64  95 115 138 188 239 285 349
#     4  10  20  36  64  92 114 146 178 238 288 328
#     4  10  19  34  55  84 108 142 189 237 276 322
#     4  10  17  30  52  76 105 139 187 236 272 322
#     4  12  24  32  52  80 110 153 196 237 271 323
#
# _framework density 23.251901
#
# number of rings (size 3 to 8) (size 9 to 14) (size 15 to 20)
#    0.000    1.500    8.333    0.000    1.167    2.000 
#    0.000    0.000    7.333    0.500    0.000    0.000 
#    0.000    0.000    0.000    0.000    0.000    0.000 
#
# Total GULP energy -267407.769890 kJ/mol
# GULP energy per Si atom -5570.995206 kJ/mol
# Density = 2.319898 g / cm^3
# Si number density = 23.251901 Si / 1000 Ang^3
#
#
#
# Elastic Constant Matrix: (Units=GPa)
#
#
# Indices 1 2 3 4 5 6 
#
# 1 254.0273 25.3282 68.7067 0.0000 0.0000 0.0000
# 2 25.3282 24.8257 -7.7749 0.0000 0.0000 0.0000
# 3 68.7067 -7.7749 107.2594 0.0000 0.0000 0.0000
# 4 0.0000 0.0000 0.0000 7.7376 0.0000 0.0000
# 5 0.0000 0.0000 0.0000 0.0000 -60.2962 0.0000
# 6 0.0000 0.0000 0.0000 0.0000 0.0000 10.1850
#
#
#
# Elastic Compliance Matrix: (Units=1/GPa)
#
#
# Indices 1 2 3 4 5 6 
#
# 1 0.005809 -0.007256 -0.004247 0.000000 0.000000 0.000000
# 2 -0.007256 0.050281 0.008293 0.000000 0.000000 0.000000
# 3 -0.004247 0.008293 0.012645 0.000000 0.000000 0.000000
# 4 0.000000 0.000000 0.000000 0.129240 0.000000 0.000000
# 5 0.000000 0.000000 0.000000 0.000000 -0.016585 0.000000
# 6 0.000000 0.000000 0.000000 0.000000 0.000000 0.098184
#
#
# Mechanical properties :
#
#
# Convention : Reuss Voigt Hill
#
# Bulk Modulus (GPa) = 16.04771 62.07027 39.05899
# Shear Modulus (GPa) = 16.29910 11.51543 13.90727
#
# Velocity S-wave (km/s) = 2.65047 2.22783 2.44829
# Velocity P-wave (km/s) = 4.03526 5.77670 4.98265
#
# Compressibility (1/GPa) = 0.06231418
#
# Stress axis : x y z
#
# Youngs Moduli (GPa) = 172.15412 19.88810 79.08429
#
# Poissons Ratio (x) = 0.14432 0.33586
# Poissons Ratio (y) = 1.24922 -0.65584
# Poissons Ratio (z) = 0.73112 -0.16493
#
# Static dielectric constant tensor:
#      x y z
#    x 1.890450 0.000000 0.000000 
#    y 0.000000 1.947220 0.000000 
#    z 0.000000 0.000000 1.719660 
# 
# From -- ./inp_files/24173.got.cif
#   From: 2010.05.17/outbox.cif.g08.bks.cpg/sg64_13_cif.got.tgz:24173.got - 2010.06.03 16:29:19.
