data_PCOD9476008
_publ_section_title
;
Structure prediction by ZEFSAII (Michael W. Deem and Ramdas Pophale) SiO2 
 PCOD9476008
Probable space group: C M C M
;
_chemical_formula_sum "Si O2"
_cell_formula_units_Z 80
_cell_length_a 15.271029
_cell_length_b 18.154122
_cell_length_c 14.437235
_cell_angle_alpha 90.000000
_cell_angle_beta 90.000000
_cell_angle_gamma 90.000000
_cell_volume 4002.465317
_symmetry_space_group_name_H-M "C M C M"
_symmetry_group_IT_number 63
_symmetry_cell_setting 'orthorhombic'
loop_
_space_group_symop_operation_xyz
x,y,z
-x,-y,1/2+z
x,-y,-z
-x,y,1/2-z
-x,-y,-z
x,y,1/2-z
-x,y,z
x,-y,1/2+z
1/2+x,1/2+y,z
1/2-x,1/2-y,1/2+z
1/2+x,1/2-y,-z
1/2-x,1/2+y,1/2-z
1/2-x,1/2-y,-z
1/2+x,1/2+y,1/2-z
1/2-x,1/2+y,z
1/2+x,1/2-y,1/2+z
loop_
_atom_site_type_symbol
_atom_site_label
_atom_site_fract_x
_atom_site_fract_y
_atom_site_fract_z
Si Si1 0.283633 0.130942 0.606152
Si Si2 0.649630 0.290234 0.651395
Si Si3 0.596663 0.000312 0.612659
Si Si4 0.402776 0.314751 0.061844
Si Si5 0.662427 0.844482 0.606559
O O1 0.326444 0.203536 0.649875
O O2 0.178442 0.138891 0.603461
O O3 0.312864 0.138539 0.499628
O O4 0.326758 0.056036 0.641712
O O5 0.604713 0.307103 0.750000
O O6 0.607700 0.308588 0.550908
O O7 0.743735 0.330167 0.651390
O O8 0.500000 0.025813 0.641626
O O9 0.613640 0.916449 0.642333
O O10 0.595928 0.000000 0.500000
O O11 0.500000 0.342129 0.082994
O O12 0.390130 0.232136 0.102855
#
# Coordination Sequence:
#
# PCOD9476008 Si02
#       5
#    16  16  16  16  16
#     4   8  16  28  43  66  92 120 154 188 230 278
#     4   9  17  29  44  63  91 126 157 188 230 276
#     4   9  15  25  46  72  94 116 146 189 237 279
#     4   9  16  28  47  69  91 119 158 196 226 267
#     4   8  15  28  46  66  89 117 152 191 233 279
#
# _framework density 19.987682
#
# number of rings (size 3 to 8) (size 9 to 14) (size 15 to 20)
#    0.000    3.400    0.000    3.000    0.000    5.200 
#    0.000    1.000    0.000   31.200    0.000    0.000 
#    0.000    0.000    0.000    0.000    0.000    0.000 
#
# Total GULP energy -222705.649427 kJ/mol
# GULP energy per Si atom -5567.641236 kJ/mol
# Density = 1.994219 g / cm^3
# Si number density = 19.987682 Si / 1000 Ang^3
#
#
#
# Elastic Constant Matrix: (Units=GPa)
#
#
# Indices 1 2 3 4 5 6 
#
# 1 142.0037 57.0266 2.1077 0.0000 0.0000 0.0000
# 2 57.0266 86.8601 16.3335 0.0000 0.0000 0.0000
# 3 2.1077 16.3335 69.2236 0.0000 0.0000 0.0000
# 4 0.0000 0.0000 0.0000 -30.4214 0.0000 0.0000
# 5 0.0000 0.0000 0.0000 0.0000 6.4188 0.0000
# 6 0.0000 0.0000 0.0000 0.0000 0.0000 18.9844
#
#
#
# Elastic Compliance Matrix: (Units=1/GPa)
#
#
# Indices 1 2 3 4 5 6 
#
# 1 0.009667 -0.006584 0.001259 0.000000 0.000000 0.000000
# 2 -0.006584 0.016531 -0.003700 0.000000 0.000000 0.000000
# 3 0.001259 -0.003700 0.015281 0.000000 0.000000 0.000000
# 4 0.000000 0.000000 0.000000 -0.032872 0.000000 0.000000
# 5 0.000000 0.000000 0.000000 0.000000 0.155793 0.000000
# 6 0.000000 0.000000 0.000000 0.000000 0.000000 0.052675
#
#
# Mechanical properties :
#
#
# Convention : Reuss Voigt Hill
#
# Bulk Modulus (GPa) = 42.68108 49.89144 46.28626
# Shear Modulus (GPa) = 20.58170 13.83765 17.20968
#
# Velocity S-wave (km/s) = 3.21241 2.63403 2.93749
# Velocity P-wave (km/s) = 5.92954 5.85373 5.89176
#
# Compressibility (1/GPa) = 0.02342959
#
# Stress axis : x y z
#
# Youngs Moduli (GPa) = 103.44154 60.49256 65.44227
#
# Poissons Ratio (x) = 0.39826 -0.08240
# Poissons Ratio (y) = 0.68103 0.24214
# Poissons Ratio (z) = -0.13024 0.22383
#
# Static dielectric constant tensor:
#      x y z
#    x 1.700050 0.000000 0.000000 
#    y 0.000000 1.697560 0.000000 
#    z 0.000000 0.000000 1.781370 
# 
# From -- ./inp_files/33883.got.cif
#   From: 2010.05.17/outbox.cif.g08.bks.cpg/sg63_17_cif.got.tgz:33883.got - 2010.06.03 15:47:04.
