data_PCOD9476163
_publ_section_title
;
Structure prediction by ZEFSAII (Michael W. Deem and Ramdas Pophale) SiO2 
 PCOD9476163
Probable space group: C M C M
;
_chemical_formula_sum "Si O2"
_cell_formula_units_Z 36
_cell_length_a 21.000000
_cell_length_b 21.000000
_cell_length_c 9.000000
_cell_angle_alpha 90.000000
_cell_angle_beta 90.000000
_cell_angle_gamma 90.000000
_cell_volume 3969.000000
_symmetry_space_group_name_H-M "C M C M"
_symmetry_group_IT_number 63
_symmetry_cell_setting 'orthorhombic'
loop_
_space_group_symop_operation_xyz
x,y,z
-x,-y,1/2+z
x,-y,-z
-x,y,1/2-z
-x,-y,-z
x,y,1/2-z
-x,y,z
x,-y,1/2+z
1/2+x,1/2+y,z
1/2-x,1/2-y,1/2+z
1/2+x,1/2-y,-z
1/2-x,1/2+y,1/2-z
1/2-x,1/2-y,-z
1/2+x,1/2+y,1/2-z
1/2-x,1/2+y,z
1/2+x,1/2-y,1/2+z
loop_
_atom_site_type_symbol
_atom_site_label
_atom_site_fract_x
_atom_site_fract_y
_atom_site_fract_z
Si Si1 0.000000 0.071076 0.928657
Si Si2 0.426449 0.799431 0.430124
Si Si3 0.362163 0.066650 0.929820
Si Si4 0.390539 0.342340 0.927516
Si Si5 0.777032 0.063846 0.073037
O O1 0.000000 0.065547 0.750000
O O2 0.059843 0.112908 0.985887
O O3 0.000000 0.000000 0.000000
O O4 0.424509 0.800263 0.250000
O O5 0.500000 0.796215 0.476971
O O6 0.396883 0.867487 0.475691
O O7 0.394323 0.731991 0.474467
O O8 0.363212 0.061678 0.750000
O O9 0.290155 0.072184 0.990766
O O10 0.387646 0.000000 0.000000
O O11 0.405972 0.344819 0.750000
O O12 0.322127 0.375354 0.947262
O O13 0.767821 0.053818 0.250000
O O14 0.806780 0.000000 0.000000
#
# Coordination Sequence:
#
# PCOD9476163 Si02
#       5
#     8  16  16  16  16
#     4  12  24  36  54  82 113 148 187 226 271 316
#     4   9  18  35  59  81 107 145 186 223 274 337
#     4  10  20  35  57  82 108 144 183 227 279 330
#     4  10  20  37  59  80 108 147 186 225 272 328
#     4  10  20  34  55  81 109 144 182 226 275 322
#
# _framework density 9.0702949999999998
#
# number of rings (size 3 to 8) (size 9 to 14) (size 15 to 20)
#    0.000    2.000    1.111    4.333    0.000    4.889 
#    0.000    2.222    0.000    0.000    0.000    0.000 
#    0.000    0.000    0.000    0.000    0.000    0.000 
#
# Total GULP energy -200797.030905 kJ/mol
# GULP energy per Si atom -5577.695303 kJ/mol
# Density = 0.904965 g / cm^3
# Si number density = 9.070295 Si / 1000 Ang^3
#
#
#
# Elastic Constant Matrix: (Units=GPa)
#
#
# Indices 1 2 3 4 5 6 
#
# 1 50.6564 64.2698 16.5200 0.0000 0.0000 0.0000
# 2 64.2698 217.4206 46.0772 0.0000 0.0000 0.0000
# 3 16.5200 46.0772 71.7950 0.0000 0.0000 0.0000
# 4 0.0000 0.0000 0.0000 27.3697 0.0000 0.0000
# 5 0.0000 0.0000 0.0000 0.0000 18.9343 0.0000
# 6 0.0000 0.0000 0.0000 0.0000 0.0000 40.4942
#
#
#
# Elastic Compliance Matrix: (Units=1/GPa)
#
#
# Indices 1 2 3 4 5 6 
#
# 1 0.031723 -0.009063 -0.001483 0.000000 0.000000 0.000000
# 2 -0.009063 0.007913 -0.002993 0.000000 0.000000 0.000000
# 3 -0.001483 -0.002993 0.016191 0.000000 0.000000 0.000000
# 4 0.000000 0.000000 0.000000 0.036537 0.000000 0.000000
# 5 0.000000 0.000000 0.000000 0.000000 0.052814 0.000000
# 6 0.000000 0.000000 0.000000 0.000000 0.000000 0.024695
#
#
# Mechanical properties :
#
#
# Convention : Reuss Voigt Hill
#
# Bulk Modulus (GPa) = 34.78423 65.95624 50.37024
# Shear Modulus (GPa) = 24.20921 31.55998 27.88459
#
# Velocity S-wave (km/s) = 3.65709 4.17555 3.92489
# Velocity P-wave (km/s) = 6.08678 7.72556 6.95461
#
# Compressibility (1/GPa) = 0.02874866
#
# Stress axis : x y z
#
# Youngs Moduli (GPa) = 31.52267 126.37867 61.76446
#
# Poissons Ratio (x) = 1.14539 0.09159
# Poissons Ratio (y) = 0.28569 0.18485
# Poissons Ratio (z) = 0.04674 0.37823
#
# Static dielectric constant tensor:
#      x y z
#    x 1.636390 0.000000 0.000000 
#    y 0.000000 1.635830 0.000000 
#    z 0.000000 0.000000 1.612020 
# 
# From -- ./inp_files/7837.got.cif
#   From: 2010.05.17/outbox.ucp.g08.bks.cvg/sg63_4_cif.got.tgz:7837.got - 2010.06.11 16:32:19.
