data_PCOD9476091
_publ_section_title
;
Structure prediction by ZEFSAII (Michael W. Deem and Ramdas Pophale) SiO2 
 PCOD9476091
Probable space group: C M C M
;
_chemical_formula_sum "Si O2"
_cell_formula_units_Z 48
_cell_length_a 27.000000
_cell_length_b 21.000000
_cell_length_c 9.000000
_cell_angle_alpha 90.000000
_cell_angle_beta 90.000000
_cell_angle_gamma 90.000000
_cell_volume 5103.000000
_symmetry_space_group_name_H-M "C M C M"
_symmetry_group_IT_number 63
_symmetry_cell_setting 'orthorhombic'
loop_
_space_group_symop_operation_xyz
x,y,z
-x,-y,1/2+z
x,-y,-z
-x,y,1/2-z
-x,-y,-z
x,y,1/2-z
-x,y,z
x,-y,1/2+z
1/2+x,1/2+y,z
1/2-x,1/2-y,1/2+z
1/2+x,1/2-y,-z
1/2-x,1/2+y,1/2-z
1/2-x,1/2-y,-z
1/2+x,1/2+y,1/2-z
1/2-x,1/2+y,z
1/2+x,1/2-y,1/2+z
loop_
_atom_site_type_symbol
_atom_site_label
_atom_site_fract_x
_atom_site_fract_y
_atom_site_fract_z
Si Si1 0.082096 0.200435 0.574572
Si Si2 0.055517 0.659919 0.428547
Si Si3 0.559176 0.562158 0.582405
Si Si4 0.317782 0.709185 0.082597
Si Si5 0.636779 0.931116 0.072385
Si Si6 0.268346 0.150721 0.919856
O O1 0.070343 0.197801 0.750000
O O2 0.058616 0.266387 0.519751
O O3 0.067364 0.131609 0.511320
O O4 0.139678 0.207334 0.539390
O O5 0.064326 0.659382 0.250000
O O6 0.096152 0.617260 0.507963
O O7 0.000000 0.635907 0.455464
O O8 0.579083 0.500000 0.500000
O O9 0.579574 0.563161 0.750000
O O10 0.500000 0.554970 0.592105
O O11 0.336304 0.697305 0.250000
O O12 0.295029 0.780132 0.081080
O O13 0.276066 0.659027 0.034653
O O14 0.631700 0.934814 0.250000
O O15 0.690768 0.901326 0.039889
O O16 0.631049 0.000000 0.000000
O O17 0.251008 0.139408 0.750000
#
# Coordination Sequence:
#
# PCOD9476091 Si02
#       6
#    16  16  16  16  16  16
#     4  10  19  33  55  82 113 147 182 227 279 329
#     4  10  21  37  58  84 112 146 191 238 284 336
#     4   9  18  33  52  75 105 143 184 223 267 322
#     4  10  19  32  55  84 111 137 175 222 270 324
#     4  11  23  40  60  83 113 149 189 234 285 339
#     4   9  19  36  55  79 109 140 176 219 269 326
#
# _framework density 9.4062319999999993
#
# number of rings (size 3 to 8) (size 9 to 14) (size 15 to 20)
#    0.000    2.167    1.667    1.500    0.000    5.333 
#    0.000    0.833    0.000    3.000    0.000    0.000 
#    0.000    0.000    0.000    0.000    0.000    0.000 
#
# Total GULP energy -267478.040977 kJ/mol
# GULP energy per Si atom -5572.459187 kJ/mol
# Density = 0.938482 g / cm^3
# Si number density = 9.406232 Si / 1000 Ang^3
#
#
#
# Elastic Constant Matrix: (Units=GPa)
#
#
# Indices 1 2 3 4 5 6 
#
# 1 39.2332 15.3478 7.5109 0.0000 0.0000 0.0000
# 2 15.3478 103.5562 25.6552 0.0000 0.0000 0.0000
# 3 7.5109 25.6552 9.1839 0.0000 0.0000 0.0000
# 4 0.0000 0.0000 0.0000 22.0780 0.0000 0.0000
# 5 0.0000 0.0000 0.0000 0.0000 19.1088 0.0000
# 6 0.0000 0.0000 0.0000 0.0000 0.0000-4859.9866
#
#
#
# Elastic Compliance Matrix: (Units=1/GPa)
#
#
# Indices 1 2 3 4 5 6 
#
# 1 0.031157 0.005505 -0.040859 0.000000 0.000000 0.000000
# 2 0.005505 0.032332 -0.094820 0.000000 0.000000 0.000000
# 3 -0.040859 -0.094820 0.407181 0.000000 0.000000 0.000000
# 4 0.000000 0.000000 0.000000 0.045294 0.000000 0.000000
# 5 0.000000 0.000000 0.000000 0.000000 0.052332 0.000000
# 6 0.000000 0.000000 0.000000 0.000000 0.000000 -0.000206
#
#
# Mechanical properties :
#
#
# Convention : Reuss Voigt Hill
#
# Bulk Modulus (GPa) = 4.75463 27.66679 16.21071
# Shear Modulus (GPa) = 5.56455 -956.86267 -475.64906
#
# Velocity S-wave (km/s) = 1.72172 -22.57735 -15.91811
# Velocity P-wave (km/s) = 2.54663 25.78585 18.14421
#
# Compressibility (1/GPa) = 0.21032151
#
# Stress axis : x y z
#
# Youngs Moduli (GPa) = 32.09516 30.92945 2.45591
#
# Poissons Ratio (x) = -0.17026 0.10035
# Poissons Ratio (y) = -0.17667 0.23287
# Poissons Ratio (z) = 1.31137 2.93273
#
# Static dielectric constant tensor:
#      x y z
#    x 1.658730 0.000000 0.000000 
#    y 0.000000 1.654430 0.000000 
#    z 0.000000 0.000000 1.660480 
# 
# From -- ./inp_files/12384.got.cif
#   From: 2010.05.17/outbox.ucp.g08.bks.cvg/sg63_7_cif.got.tgz:12384.got - 2010.06.11 16:32:19.
