data_PCOD9476122
_publ_section_title
;
Structure prediction by ZEFSAII (Michael W. Deem and Ramdas Pophale) SiO2 
 PCOD9476122
Probable space group: C M C M
;
_chemical_formula_sum "Si O2"
_cell_formula_units_Z 58
_cell_length_a 18.000000
_cell_length_b 15.000000
_cell_length_c 24.000000
_cell_angle_alpha 90.000000
_cell_angle_beta 90.000000
_cell_angle_gamma 90.000000
_cell_volume 6480.000000
_symmetry_space_group_name_H-M "C M C M"
_symmetry_group_IT_number 63
_symmetry_cell_setting 'orthorhombic'
loop_
_space_group_symop_operation_xyz
x,y,z
-x,-y,1/2+z
x,-y,-z
-x,y,1/2-z
-x,-y,-z
x,y,1/2-z
-x,y,z
x,-y,1/2+z
1/2+x,1/2+y,z
1/2-x,1/2-y,1/2+z
1/2+x,1/2-y,-z
1/2-x,1/2+y,1/2-z
1/2-x,1/2-y,-z
1/2+x,1/2+y,1/2-z
1/2-x,1/2+y,z
1/2+x,1/2-y,1/2+z
loop_
_atom_site_type_symbol
_atom_site_label
_atom_site_fract_x
_atom_site_fract_y
_atom_site_fract_z
Si Si1 0.649049 0.093579 0.981610
Si Si2 0.417291 0.292896 0.683914
Si Si3 0.198086 0.869596 0.960285
Si Si4 0.618454 0.673137 0.850457
Si Si5 0.710502 0.197027 0.880307
Si Si6 0.585079 0.471873 0.612614
Si Si7 0.500000 0.701881 0.750000
Si Si8 0.582500 0.731736 0.968573
O O1 0.723902 0.097638 0.018179
O O2 0.597439 0.175009 0.001080
O O3 0.678577 0.116549 0.919096
O O4 0.613866 0.000000 0.000000
O O5 0.414320 0.299655 0.750000
O O6 0.500000 0.260907 0.666913
O O7 0.353452 0.227728 0.662222
O O8 0.409680 0.391879 0.657867
O O9 0.214563 0.783395 0.921434
O O10 0.148990 0.944367 0.930387
O O11 0.146396 0.833557 0.009662
O O12 0.709138 0.681286 0.851642
O O13 0.599908 0.569487 0.863407
O O14 0.566837 0.698557 0.798422
O O15 0.591893 0.733190 0.902556
O O16 0.500000 0.469790 0.590608
O O17 0.500000 0.699190 0.982931
#
# Coordination Sequence:
#
# PCOD9476122 Si02
#       8
#    16  16  16  16  16  16   4  16
#     4  11  21  36  59  85 114 147 183 240 287 340
#     4   9  20  37  59  84 111 143 183 242 295 336
#     4  10  19  35  58  86 114 148 179 232 285 355
#     4  12  22  38  54  82 118 161 192 234 272 337
#     4  10  20  37  58  85 115 150 193 230 286 346
#     4  10  20  33  55  85 119 145 183 229 288 339
#     4  12  28  36  56  78 116 168 202 232 268 320
#     4  11  21  37  56  80 120 151 192 227 286 348
#
# _framework density 8.9506169999999994
#
# number of rings (size 3 to 8) (size 9 to 14) (size 15 to 20)
#    0.000    1.517    4.138    2.069    1.931    3.586 
#    0.000    1.379    0.000    0.000    1.793    0.000 
#    0.000    0.000    0.000    0.000    0.000    0.000 
#
# Total GULP energy -322937.494537 kJ/mol
# GULP energy per Si atom -5567.887837 kJ/mol
# Density = 0.893025 g / cm^3
# Si number density = 8.950617 Si / 1000 Ang^3
#
#
#
# Elastic Constant Matrix: (Units=GPa)
#
#
# Indices 1 2 3 4 5 6 
#
# 1 102.8138 7.1665 32.2740 0.0000 0.0000 0.0000
# 2 7.1665 36.3741 0.5820 0.0000 0.0000 0.0000
# 3 32.2740 0.5820 77.9697 0.0000 0.0000 0.0000
# 4 0.0000 0.0000 0.0000 3.0757 0.0000 0.0000
# 5 0.0000 0.0000 0.0000 0.0000 35.1688 0.0000
# 6 0.0000 0.0000 0.0000 0.0000 0.0000 20.2224
#
#
#
# Elastic Compliance Matrix: (Units=1/GPa)
#
#
# Indices 1 2 3 4 5 6 
#
# 1 0.011346 -0.002161 -0.004680 0.000000 0.000000 0.000000
# 2 -0.002161 0.027907 0.000686 0.000000 0.000000 0.000000
# 3 -0.004680 0.000686 0.014758 0.000000 0.000000 0.000000
# 4 0.000000 0.000000 0.000000 0.325133 0.000000 0.000000
# 5 0.000000 0.000000 0.000000 0.000000 0.028434 0.000000
# 6 0.000000 0.000000 0.000000 0.000000 0.000000 0.049450
#
#
# Mechanical properties :
#
#
# Convention : Reuss Voigt Hill
#
# Bulk Modulus (GPa) = 23.98036 33.02252 28.50144
# Shear Modulus (GPa) = 10.34687 23.50237 16.92462
#
# Velocity S-wave (km/s) = 2.40677 3.62731 3.07814
# Velocity P-wave (km/s) = 4.59874 6.00253 5.34690
#
# Compressibility (1/GPa) = 0.04170079
#
# Stress axis : x y z
#
# Youngs Moduli (GPa) = 88.13585 35.83358 67.76113
#
# Poissons Ratio (x) = 0.07742 0.31715
# Poissons Ratio (y) = 0.19042 -0.04648
# Poissons Ratio (z) = 0.41251 -0.02458
#
# Static dielectric constant tensor:
#      x y z
#    x 1.615240 0.000000 0.000000 
#    y 0.000000 1.623630 0.000000 
#    z 0.000000 0.000000 1.629780 
# 
# From -- ./inp_files/63925.got.cif
#   From: 2010.05.17/outbox.ucp.g08.bks.cvg/sg63_32_cif.got.tgz:63925.got - 2010.06.11 16:32:19.
