data_PCOD9476504
_publ_section_title
;
Structure prediction by ZEFSAII (Michael W. Deem and Ramdas Pophale) SiO2 
 PCOD9476504
Probable space group: C M C A
;
_chemical_formula_sum "Si O2"
_cell_formula_units_Z 112
_cell_length_a 17.329052
_cell_length_b 15.629436
_cell_length_c 19.516555
_cell_angle_alpha 90.000000
_cell_angle_beta 90.000000
_cell_angle_gamma 90.000000
_cell_volume 5285.928340
_symmetry_space_group_name_H-M "C M C A"
_symmetry_group_IT_number 64
_symmetry_cell_setting 'orthorhombic'
loop_
_space_group_symop_operation_xyz
x,y,z
-x,1/2-y,1/2+z
x,-y,-z
-x,1/2+y,1/2-z
-x,-y,-z
x,1/2+y,1/2-z
-x,y,z
x,1/2-y,1/2+z
1/2+x,1/2+y,z
1/2-x,-y,1/2+z
1/2+x,1/2-y,-z
1/2-x,y,1/2-z
1/2-x,1/2-y,-z
1/2+x,y,1/2-z
1/2-x,1/2+y,z
1/2+x,-y,1/2+z
loop_
_atom_site_type_symbol
_atom_site_label
_atom_site_fract_x
_atom_site_fract_y
_atom_site_fract_z
Si Si1 0.410716 0.973298 0.135780
Si Si2 0.587897 0.820562 0.224451
Si Si3 0.168855 0.429641 0.750540
Si Si4 0.406925 0.370961 0.543760
Si Si5 0.913259 0.849808 0.866572
Si Si6 0.324338 0.239532 0.158066
Si Si7 0.688731 0.772146 0.058512
O O1 0.500000 0.958572 0.118440
O O2 0.398913 0.029769 0.204572
O O3 0.381840 0.037828 0.076688
O O4 0.380322 0.884037 0.166127
O O5 0.500000 0.847418 0.241024
O O6 0.582228 0.728295 0.188223
O O7 0.636605 0.809690 0.293123
O O8 0.250000 0.479416 0.750000
O O9 0.138811 0.416898 0.673918
O O10 0.188311 0.342860 0.793068
O O11 0.500000 0.370253 0.536115
O O12 0.380328 0.297970 0.598397
O O13 0.362720 0.348951 0.473367
O O14 0.869977 0.806619 0.929792
O O15 0.000000 0.878300 0.881738
O O16 0.244942 0.272233 0.124828
O O17 0.750000 0.750000 0.000000
#
# Coordination Sequence:
#
# PCOD9476504 Si02
#       7
#    16  16  16  16  16  16  16
#     4   9  18  33  50  74 104 133 166 207 256 308
#     4   9  18  32  52  76 103 133 169 212 261 313
#     4  10  17  30  49  75 102 129 162 216 266 306
#     4   9  17  30  51  74 102 138 173 207 249 305
#     4  10  19  32  52  75  98 131 174 214 256 308
#     4   9  17  30  50  74 104 131 168 214 259 299
#     4  10  19  31  48  72 103 137 170 213 250 296
#
# _framework density 21.188333
#
# number of rings (size 3 to 8) (size 9 to 14) (size 15 to 20)
#    0.000    2.571    1.429    1.286    0.000    3.429 
#    2.571    0.714    0.000    5.143    0.000    3.000 
#    0.000   14.857    0.000    0.000    0.000    0.000 
#
# Total GULP energy -311955.779087 kJ/mol
# GULP energy per Si atom -5570.638912 kJ/mol
# Density = 2.114011 g / cm^3
# Si number density = 21.188333 Si / 1000 Ang^3
#
#
#
# Elastic Constant Matrix: (Units=GPa)
#
#
# Indices 1 2 3 4 5 6 
#
# 1 117.8847 18.4041 33.9140 0.0000 0.0000 0.0000
# 2 18.4041 39.0258 15.8681 0.0000 0.0000 0.0000
# 3 33.9140 15.8681 90.2997 0.0000 0.0000 0.0000
# 4 0.0000 0.0000 0.0000 23.7229 0.0000 0.0000
# 5 0.0000 0.0000 0.0000 0.0000 26.0272 0.0000
# 6 0.0000 0.0000 0.0000 0.0000 0.0000 17.0812
#
#
#
# Elastic Compliance Matrix: (Units=1/GPa)
#
#
# Indices 1 2 3 4 5 6 
#
# 1 0.009913 -0.003404 -0.003125 0.000000 0.000000 0.000000
# 2 -0.003404 0.028765 -0.003776 0.000000 0.000000 0.000000
# 3 -0.003125 -0.003776 0.012911 0.000000 0.000000 0.000000
# 4 0.000000 0.000000 0.000000 0.042153 0.000000 0.000000
# 5 0.000000 0.000000 0.000000 0.000000 0.038421 0.000000
# 6 0.000000 0.000000 0.000000 0.000000 0.000000 0.058544
#
#
# Mechanical properties :
#
#
# Convention : Reuss Voigt Hill
#
# Bulk Modulus (GPa) = 32.28019 42.62028 37.45024
# Shear Modulus (GPa) = 22.55852 25.30118 23.92985
#
# Velocity S-wave (km/s) = 3.26646 3.45934 3.36428
# Velocity P-wave (km/s) = 5.43087 6.00955 5.72752
#
# Compressibility (1/GPa) = 0.03097875
#
# Stress axis : x y z
#
# Youngs Moduli (GPa) = 100.87390 34.76445 77.45065
#
# Poissons Ratio (x) = 0.11835 0.24203
# Poissons Ratio (y) = 0.34342 0.29247
# Poissons Ratio (z) = 0.31522 0.13128
#
# Static dielectric constant tensor:
#      x y z
#    x 1.828780 0.000000 0.000000 
#    y 0.000000 1.828740 0.000000 
#    z 0.000000 0.000000 1.802890 
# 
# From -- ./inp_files/40365.got.cif
#   From: 2010.05.17/outbox.cif.g08.bks.cpg/sg64_21_cif.got.tgz:40365.got - 2010.06.03 16:29:19.
