data_PCOD9476675
_publ_section_title
;
Structure prediction by ZEFSAII (Michael W. Deem and Ramdas Pophale) SiO2 
 PCOD9476675
Probable space group: C M C A
;
_chemical_formula_sum "Si O2"
_cell_formula_units_Z 96
_cell_length_a 9.265220
_cell_length_b 20.697232
_cell_length_c 30.476409
_cell_angle_alpha 90.000000
_cell_angle_beta 90.000000
_cell_angle_gamma 90.000000
_cell_volume 5844.290526
_symmetry_space_group_name_H-M "C M C A"
_symmetry_group_IT_number 64
_symmetry_cell_setting 'orthorhombic'
loop_
_space_group_symop_operation_xyz
x,y,z
-x,1/2-y,1/2+z
x,-y,-z
-x,1/2+y,1/2-z
-x,-y,-z
x,1/2+y,1/2-z
-x,y,z
x,1/2-y,1/2+z
1/2+x,1/2+y,z
1/2-x,-y,1/2+z
1/2+x,1/2-y,-z
1/2-x,y,1/2-z
1/2-x,1/2-y,-z
1/2+x,y,1/2-z
1/2-x,1/2+y,z
1/2+x,-y,1/2+z
loop_
_atom_site_type_symbol
_atom_site_label
_atom_site_fract_x
_atom_site_fract_y
_atom_site_fract_z
Si Si1 0.672623 0.192620 0.525379
Si Si2 0.171169 0.760364 0.119172
Si Si3 0.827006 0.936516 0.971873
Si Si4 0.667411 0.103637 0.294152
Si Si5 0.672430 0.393710 0.615462
Si Si6 0.665008 0.739051 0.706985
O O1 0.500000 0.202089 0.522914
O O2 0.750000 0.250000 0.500000
O O3 0.712219 0.198838 0.576437
O O4 0.706998 0.125383 0.502129
O O5 0.198199 0.683914 0.110066
O O6 0.257124 0.780253 0.162247
O O7 0.000000 0.766631 0.127169
O O8 0.000000 0.936492 0.963066
O O9 0.742344 0.928947 0.926277
O O10 0.792374 0.000000 0.000000
O O11 0.500000 0.082813 0.294895
O O12 0.750000 0.082014 0.250000
O O13 0.751662 0.086431 0.338823
O O14 0.666631 0.182277 0.292703
O O15 0.500000 0.403270 0.617651
O O16 0.500000 0.717942 0.708174
O O17 0.750000 0.717193 0.750000
#
# Coordination Sequence:
#
# PCOD9476675 Si02
#       6
#    16  16  16  16  16  16
#     4  10  19  32  50  71  96 126 163 203 243 287
#     4   9  17  28  43  66  93 122 157 198 240 283
#     4  10  21  35  50  70  98 132 167 204 249 299
#     4   9  16  26  41  64  94 126 159 196 240 290
#     4  10  18  29  46  68  95 127 162 201 245 290
#     4   9  16  25  39  61  91 125 155 189 234 285
#
# _framework density 16.426288
#
# number of rings (size 3 to 8) (size 9 to 14) (size 15 to 20)
#    0.000    2.500    1.667    1.500    0.000    5.667 
#    0.000    0.000    0.000    0.000    0.000    1.167 
#    0.000    5.333    0.000    0.000    0.000    0.000 
#
# Total GULP energy -267569.418998 kJ/mol
# GULP energy per Si atom -5574.362896 kJ/mol
# Density = 1.638890 g / cm^3
# Si number density = 16.426288 Si / 1000 Ang^3
#
#
#
# Elastic Constant Matrix: (Units=GPa)
#
#
# Indices 1 2 3 4 5 6 
#
# 1 88.8268 34.9201 97.4600 0.0000 0.0000 0.0000
# 2 34.9201 53.5588 49.7699 0.0000 0.0000 0.0000
# 3 97.4600 49.7699 197.1659 0.0000 0.0000 0.0000
# 4 0.0000 0.0000 0.0000 13.9829 0.0000 0.0000
# 5 0.0000 0.0000 0.0000 0.0000 37.0677 0.0000
# 6 0.0000 0.0000 0.0000 0.0000 0.0000 9.8950
#
#
#
# Elastic Compliance Matrix: (Units=1/GPa)
#
#
# Indices 1 2 3 4 5 6 
#
# 1 0.026278 -0.006614 -0.011320 0.000000 0.000000 0.000000
# 2 -0.006614 0.026058 -0.003308 0.000000 0.000000 0.000000
# 3 -0.011320 -0.003308 0.011502 0.000000 0.000000 0.000000
# 4 0.000000 0.000000 0.000000 0.071516 0.000000 0.000000
# 5 0.000000 0.000000 0.000000 0.000000 0.026978 0.000000
# 6 0.000000 0.000000 0.000000 0.000000 0.000000 0.101061
#
#
# Mechanical properties :
#
#
# Convention : Reuss Voigt Hill
#
# Bulk Modulus (GPa) = 46.83020 78.20571 62.51796
# Shear Modulus (GPa) = 15.97469 22.68255 19.32862
#
# Velocity S-wave (km/s) = 3.12189 3.72004 3.43401
# Velocity P-wave (km/s) = 6.44718 8.13419 7.33932
#
# Compressibility (1/GPa) = 0.02135374
#
# Stress axis : x y z
#
# Youngs Moduli (GPa) = 38.05473 38.37640 86.93876
#
# Poissons Ratio (x) = 0.25383 0.98412
# Poissons Ratio (y) = 0.25170 0.28762
# Poissons Ratio (z) = 0.43077 0.12696
#
# Static dielectric constant tensor:
#      x y z
#    x 1.551260 0.000000 0.000000 
#    y 0.000000 1.522340 0.000000 
#    z 0.000000 0.000000 1.548110 
# 
# From -- ./inp_files/48051.got.cif
#   From: 2010.05.17/outbox.cif.g08.bks.cpg/sg64_25_cif.got.tgz:48051.got - 2010.06.03 16:29:19.
