data_PCOD9476476
_publ_section_title
;
Structure prediction by ZEFSAII (Michael W. Deem and Ramdas Pophale) SiO2 
 PCOD9476476
Probable space group: C M C A
;
_chemical_formula_sum "Si O2"
_cell_formula_units_Z 80
_cell_length_a 18.901208
_cell_length_b 32.899890
_cell_length_c 5.554249
_cell_angle_alpha 90.000000
_cell_angle_beta 90.000000
_cell_angle_gamma 90.000000
_cell_volume 3453.896766
_symmetry_space_group_name_H-M "C M C A"
_symmetry_group_IT_number 64
_symmetry_cell_setting 'orthorhombic'
loop_
_space_group_symop_operation_xyz
x,y,z
-x,1/2-y,1/2+z
x,-y,-z
-x,1/2+y,1/2-z
-x,-y,-z
x,1/2+y,1/2-z
-x,y,z
x,1/2-y,1/2+z
1/2+x,1/2+y,z
1/2-x,-y,1/2+z
1/2+x,1/2-y,-z
1/2-x,y,1/2-z
1/2-x,1/2-y,-z
1/2+x,y,1/2-z
1/2-x,1/2+y,z
1/2+x,-y,1/2+z
loop_
_atom_site_type_symbol
_atom_site_label
_atom_site_fract_x
_atom_site_fract_y
_atom_site_fract_z
Si Si1 0.000000 0.670838 0.654867
Si Si2 0.154904 0.357565 0.846358
Si Si3 0.639853 0.886727 0.341069
Si Si4 0.669404 0.264071 0.547396
Si Si5 0.000000 0.667379 0.155253
Si Si6 0.414965 0.523050 0.748711
O O1 0.069573 0.642088 0.650237
O O2 0.000000 0.692904 0.399474
O O3 0.000000 0.692555 0.910658
O O4 0.175983 0.379076 0.599495
O O5 0.168470 0.309541 0.849722
O O6 0.069078 0.360751 0.849675
O O7 0.180669 0.373153 0.102317
O O8 0.618004 0.932692 0.287146
O O9 0.638770 0.261694 0.273770
O O10 0.750000 0.250000 0.500000
O O11 0.392408 0.500000 0.500000
O O12 0.500000 0.527435 0.730845
O O13 0.399733 0.500000 0.000000
#
# Coordination Sequence:
#
# PCOD9476476 Si02
#       6
#     8  16  16  16   8  16
#     4   8  14  24  38  58  88 124 164 210 256 268
#     4  10  19  31  51  73  96 135 179 216 268 313
#     4  10  17  29  45  67  98 134 181 226 249 308
#     4  10  21  38  57  76 101 132 163 212 283 337
#     4   8  16  26  42  66  92 122 162 210 246 298
#     4  10  19  28  41  65 100 143 188 227 262 297
#
# _framework density 23.162241999999999
#
# number of rings (size 3 to 8) (size 9 to 14) (size 15 to 20)
#    0.000    2.400    1.000    2.400    0.000    0.000 
#    0.000    1.000    0.000    0.000    0.000    0.000 
#    0.000    0.000    0.000  201.600    0.000    0.000 
#
# Total GULP energy -223067.675482 kJ/mol
# GULP energy per Si atom -5576.691887 kJ/mol
# Density = 2.310952 g / cm^3
# Si number density = 23.162242 Si / 1000 Ang^3
#
#
#
# Elastic Constant Matrix: (Units=GPa)
#
#
# Indices 1 2 3 4 5 6 
#
# 1 62.1967 8.1019 26.9808 0.0000 0.0000 0.0000
# 2 8.1019 114.8779 55.4663 0.0000 0.0000 0.0000
# 3 26.9808 55.4663 310.1980 0.0000 0.0000 0.0000
# 4 0.0000 0.0000 0.0000 39.6406 0.0000 0.0000
# 5 0.0000 0.0000 0.0000 0.0000 22.9455 0.0000
# 6 0.0000 0.0000 0.0000 0.0000 0.0000-1258.5606
#
#
#
# Elastic Compliance Matrix: (Units=1/GPa)
#
#
# Indices 1 2 3 4 5 6 
#
# 1 0.016737 -0.000523 -0.001362 0.000000 0.000000 0.000000
# 2 -0.000523 0.009544 -0.001661 0.000000 0.000000 0.000000
# 3 -0.001362 -0.001661 0.003639 0.000000 0.000000 0.000000
# 4 0.000000 0.000000 0.000000 0.025227 0.000000 0.000000
# 5 0.000000 0.000000 0.000000 0.000000 0.043581 0.000000
# 6 0.000000 0.000000 0.000000 0.000000 0.000000 -0.000795
#
#
# Mechanical properties :
#
#
# Convention : Reuss Voigt Hill
#
# Bulk Modulus (GPa) = 43.80573 74.26342 59.03458
# Shear Modulus (GPa) = 44.39117 -212.74664 -84.17774
#
# Velocity S-wave (km/s) = 4.38257 -9.59427 -6.03503
# Velocity P-wave (km/s) = 6.67554 9.51848 4.79785
#
# Compressibility (1/GPa) = 0.02282806
#
# Stress axis : x y z
#
# Youngs Moduli (GPa) = 59.74760 104.78057 274.78157
#
# Poissons Ratio (x) = 0.05476 0.37434
# Poissons Ratio (y) = 0.03123 0.45643
# Poissons Ratio (z) = 0.08140 0.17405
#
# Static dielectric constant tensor:
#      x y z
#    x 1.900220 0.000000 0.000000 
#    y 0.000000 1.819540 0.000000 
#    z 0.000000 0.000000 2.003790 
# 
# From -- ./inp_files/2378.got.cif
#   From: 2010.05.17/outbox.cif.g08.bks.cpg/sg64_2_cif.got.tgz:2378.got - 2010.06.03 16:29:19.
