data_PCOD9476432
_publ_section_title
;
Structure prediction by ZEFSAII (Michael W. Deem and Ramdas Pophale) SiO2 
 PCOD9476432
Probable space group: C M C A
;
_chemical_formula_sum "Si O2"
_cell_formula_units_Z 64
_cell_length_a 8.409095
_cell_length_b 23.951047
_cell_length_c 18.227121
_cell_angle_alpha 90.000000
_cell_angle_beta 90.000000
_cell_angle_gamma 90.000000
_cell_volume 3671.063007
_symmetry_space_group_name_H-M "C M C A"
_symmetry_group_IT_number 64
_symmetry_cell_setting 'orthorhombic'
loop_
_space_group_symop_operation_xyz
x,y,z
-x,1/2-y,1/2+z
x,-y,-z
-x,1/2+y,1/2-z
-x,-y,-z
x,1/2+y,1/2-z
-x,y,z
x,1/2-y,1/2+z
1/2+x,1/2+y,z
1/2-x,-y,1/2+z
1/2+x,1/2-y,-z
1/2-x,y,1/2-z
1/2-x,1/2-y,-z
1/2+x,y,1/2-z
1/2-x,1/2+y,z
1/2+x,-y,1/2+z
loop_
_atom_site_type_symbol
_atom_site_label
_atom_site_fract_x
_atom_site_fract_y
_atom_site_fract_z
Si Si1 0.686947 0.977368 0.889932
Si Si2 0.313346 0.421901 0.037223
Si Si3 0.808943 0.688276 0.017265
Si Si4 0.191489 0.135750 0.327333
O O1 0.500000 0.986527 0.878835
O O2 0.714883 0.947283 0.968764
O O3 0.747207 0.928823 0.836004
O O4 0.772895 0.036911 0.895569
O O5 0.500000 0.426375 0.021063
O O6 0.262480 0.357586 0.038740
O O7 0.758212 0.669307 0.099710
O O8 0.000000 0.685697 0.013864
O O9 0.750000 0.750000 0.000000
O O10 0.250000 0.158821 0.250000
O O11 0.000000 0.134773 0.327899
#
# Coordination Sequence:
#
# PCOD9476432 Si02
#       4
#    16  16  16  16
#     4   9  16  28  44  66  95 124 152 190 235 283
#     4  10  17  26  44  70  94 121 154 192 236 284
#     4  10  20  34  50  72  99 131 169 210 249 293
#     4   9  19  32  49  72  99 128 161 200 249 300
#
# _framework density 17.433641999999999
#
# number of rings (size 3 to 8) (size 9 to 14) (size 15 to 20)
#    0.000    2.500    0.000    6.750    0.000    6.000 
#    0.000    0.000    0.000    1.500    0.000   10.500 
#    0.000    0.000    0.000    0.000    0.000    0.000 
#
# Total GULP energy -178170.508189 kJ/mol
# GULP energy per Si atom -5567.828381 kJ/mol
# Density = 1.739396 g / cm^3
# Si number density = 17.433642 Si / 1000 Ang^3
#
#
#
# Elastic Constant Matrix: (Units=GPa)
#
#
# Indices 1 2 3 4 5 6 
#
# 1 28.6715 22.0995 9.0637 0.0000 0.0000 0.0000
# 2 22.0995 146.5751 36.9096 0.0000 0.0000 0.0000
# 3 9.0637 36.9096 58.5226 0.0000 0.0000 0.0000
# 4 0.0000 0.0000 0.0000 16.2700 0.0000 0.0000
# 5 0.0000 0.0000 0.0000 0.0000 15.2481 0.0000
# 6 0.0000 0.0000 0.0000 0.0000 0.0000 28.4585
#
#
#
# Elastic Compliance Matrix: (Units=1/GPa)
#
#
# Indices 1 2 3 4 5 6 
#
# 1 0.039855 -0.005296 -0.002833 0.000000 0.000000 0.000000
# 2 -0.005296 0.008814 -0.004739 0.000000 0.000000 0.000000
# 3 -0.002833 -0.004739 0.020515 0.000000 0.000000 0.000000
# 4 0.000000 0.000000 0.000000 0.061463 0.000000 0.000000
# 5 0.000000 0.000000 0.000000 0.000000 0.065582 0.000000
# 6 0.000000 0.000000 0.000000 0.000000 0.000000 0.035139
#
#
# Mechanical properties :
#
#
# Convention : Reuss Voigt Hill
#
# Bulk Modulus (GPa) = 23.01508 41.10165 32.05836
# Shear Modulus (GPa) = 18.41040 23.04174 20.72607
#
# Velocity S-wave (km/s) = 3.25318 3.63944 3.45172
# Velocity P-wave (km/s) = 5.22887 6.42557 5.85786
#
# Compressibility (1/GPa) = 0.04344977
#
# Stress axis : x y z
#
# Youngs Moduli (GPa) = 25.09085 113.45324 48.74514
#
# Poissons Ratio (x) = 0.60082 0.13808
# Poissons Ratio (y) = 0.13288 0.23100
# Poissons Ratio (z) = 0.07107 0.53764
#
# Static dielectric constant tensor:
#      x y z
#    x 1.589870 0.000000 0.000000 
#    y 0.000000 1.636500 0.000000 
#    z 0.000000 0.000000 1.631240 
# 
# From -- ./inp_files/29438.got.cif
#   From: 2010.05.17/outbox.cif.g08.bks.cpg/sg64_15_cif.got.tgz:29438.got - 2010.06.03 16:29:19.
