data_PCOD9476929
_publ_section_title
;
Structure prediction by ZEFSAII (Michael W. Deem and Ramdas Pophale) SiO2 
 PCOD9476929
Probable space group: C M C A
;
_chemical_formula_sum "Si O2"
_cell_formula_units_Z 80
_cell_length_a 14.777289
_cell_length_b 18.717729
_cell_length_c 14.961528
_cell_angle_alpha 90.000000
_cell_angle_beta 90.000000
_cell_angle_gamma 90.000000
_cell_volume 4138.318112
_symmetry_space_group_name_H-M "C M C A"
_symmetry_group_IT_number 64
_symmetry_cell_setting 'orthorhombic'
loop_
_space_group_symop_operation_xyz
x,y,z
-x,1/2-y,1/2+z
x,-y,-z
-x,1/2+y,1/2-z
-x,-y,-z
x,1/2+y,1/2-z
-x,y,z
x,1/2-y,1/2+z
1/2+x,1/2+y,z
1/2-x,-y,1/2+z
1/2+x,1/2-y,-z
1/2-x,y,1/2-z
1/2-x,1/2-y,-z
1/2+x,y,1/2-z
1/2-x,1/2+y,z
1/2+x,-y,1/2+z
loop_
_atom_site_type_symbol
_atom_site_label
_atom_site_fract_x
_atom_site_fract_y
_atom_site_fract_z
Si Si1 0.750000 0.254713 0.250000
Si Si2 0.898199 0.134198 0.692274
Si Si3 0.604336 0.095092 0.610289
Si Si4 0.668451 0.743231 0.429368
Si Si5 0.244010 0.500000 0.500000
Si Si6 0.900742 0.098335 0.490460
O O1 0.822899 0.305174 0.200471
O O2 0.701800 0.216319 0.168064
O O3 0.887288 0.088462 0.782343
O O4 0.891150 0.094288 0.598390
O O5 0.000000 0.165173 0.696505
O O6 0.500000 0.079556 0.585203
O O7 0.625906 0.178306 0.586507
O O8 0.677760 0.045412 0.563149
O O9 0.750000 0.750000 0.500000
O O10 0.605047 0.681771 0.467431
O O11 0.314301 0.555597 0.454245
O O12 0.000000 0.072036 0.462633
#
# Coordination Sequence:
#
# PCOD9476929 Si02
#       6
#     8  16  16  16   8  16
#     4  10  18  32  58  88 120 148 188 242 290 338
#     4   9  18  34  57  85 111 148 199 237 278 341
#     4  10  21  37  61  87 115 150 193 247 293 340
#     4  11  19  37  60  89 116 153 192 237 290 341
#     4  12  22  36  56  82 118 150 198 234 294 352
#     4  11  22  38  61  86 117 155 194 239 287 347
#
# _framework density 19.331524999999999
#
# number of rings (size 3 to 8) (size 9 to 14) (size 15 to 20)
#    0.000    1.600    4.000    2.400    0.000    0.800 
#    0.000    2.000    0.000    0.000    0.000    0.000 
#    0.000    0.000    0.000    0.000    0.000    0.000 
#
# Total GULP energy -223019.933069 kJ/mol
# GULP energy per Si atom -5575.498327 kJ/mol
# Density = 1.928753 g / cm^3
# Si number density = 19.331525 Si / 1000 Ang^3
#
#
#
# Elastic Constant Matrix: (Units=GPa)
#
#
# Indices 1 2 3 4 5 6 
#
# 1 139.1540 44.6146 37.2675 0.0000 0.0000 0.0000
# 2 44.6146 80.1449 31.0405 0.0000 0.0000 0.0000
# 3 37.2675 31.0405 75.2488 0.0000 0.0000 0.0000
# 4 0.0000 0.0000 0.0000 11.2811 0.0000 0.0000
# 5 0.0000 0.0000 0.0000 0.0000 18.9420 0.0000
# 6 0.0000 0.0000 0.0000 0.0000 0.0000 0.3239
#
#
#
# Elastic Compliance Matrix: (Units=1/GPa)
#
#
# Indices 1 2 3 4 5 6 
#
# 1 0.009259 -0.004021 -0.002927 0.000000 0.000000 0.000000
# 2 -0.004021 0.016596 -0.004855 0.000000 0.000000 0.000000
# 3 -0.002927 -0.004855 0.016741 0.000000 0.000000 0.000000
# 4 0.000000 0.000000 0.000000 0.088644 0.000000 0.000000
# 5 0.000000 0.000000 0.000000 0.000000 0.052793 0.000000
# 6 0.000000 0.000000 0.000000 0.000000 0.000000 3.086930
#
#
# Mechanical properties :
#
#
# Convention : Reuss Voigt Hill
#
# Bulk Modulus (GPa) = 52.65455 57.82143 55.23799
# Shear Modulus (GPa) = 1.51474 18.21775 9.86624
#
# Velocity S-wave (km/s) = 0.88615 3.07316 2.26159
# Velocity P-wave (km/s) = 5.32389 6.52440 5.95448
#
# Compressibility (1/GPa) = 0.01899171
#
# Stress axis : x y z
#
# Youngs Moduli (GPa) = 107.99935 60.25611 59.73182
#
# Poissons Ratio (x) = 0.24227 0.17485
# Poissons Ratio (y) = 0.43423 0.28997
# Poissons Ratio (z) = 0.31613 0.29252
#
# Static dielectric constant tensor:
#      x y z
#    x 1.716680 0.000000 0.000000 
#    y 0.000000 1.674210 0.000000 
#    z 0.000000 0.000000 1.690130 
# 
# From -- ./inp_files/25331.got.cif
#   From: 2010.05.17/outbox.cif.g08.bks.cpg/sg64_13_cif.got.tgz:25331.got - 2010.06.03 16:29:19.
