data_PCOD9476729
_publ_section_title
;
Structure prediction by ZEFSAII (Michael W. Deem and Ramdas Pophale) SiO2 
 PCOD9476729
Probable space group: C M C A
;
_chemical_formula_sum "Si O2"
_cell_formula_units_Z 96
_cell_length_a 8.588239
_cell_length_b 24.324877
_cell_length_c 26.556010
_cell_angle_alpha 90.000000
_cell_angle_beta 90.000000
_cell_angle_gamma 90.000000
_cell_volume 5547.759148
_symmetry_space_group_name_H-M "C M C A"
_symmetry_group_IT_number 64
_symmetry_cell_setting 'orthorhombic'
loop_
_space_group_symop_operation_xyz
x,y,z
-x,1/2-y,1/2+z
x,-y,-z
-x,1/2+y,1/2-z
-x,-y,-z
x,1/2+y,1/2-z
-x,y,z
x,1/2-y,1/2+z
1/2+x,1/2+y,z
1/2-x,-y,1/2+z
1/2+x,1/2-y,-z
1/2-x,y,1/2-z
1/2-x,1/2-y,-z
1/2+x,y,1/2-z
1/2-x,1/2+y,z
1/2+x,-y,1/2+z
loop_
_atom_site_type_symbol
_atom_site_label
_atom_site_fract_x
_atom_site_fract_y
_atom_site_fract_z
Si Si1 0.183070 0.071169 0.040389
Si Si2 0.685014 0.409464 0.806173
Si Si3 0.813327 0.773399 0.052848
Si Si4 0.681812 0.496801 0.374527
Si Si5 0.685837 0.664651 0.393294
Si Si6 0.813200 0.602877 0.572733
O O1 0.221517 0.130250 0.064490
O O2 0.000000 0.058081 0.047079
O O3 0.282665 0.029466 0.073559
O O4 0.217281 0.074859 0.981590
O O5 0.500000 0.402899 0.806722
O O6 0.750000 0.407741 0.750000
O O7 0.728832 0.467341 0.832783
O O8 0.761393 0.361911 0.840792
O O9 0.780772 0.728344 0.096016
O O10 0.756768 0.834272 0.067503
O O11 0.000000 0.777387 0.047137
O O12 0.750000 0.750000 0.000000
O O13 0.500000 0.498544 0.363279
O O14 0.738605 0.435013 0.384497
O O15 0.500000 0.655904 0.399470
O O16 0.000000 0.603170 0.579676
#
# Coordination Sequence:
#
# PCOD9476729 Si02
#       6
#    16  16  16  16  16  16
#     4  10  18  30  49  71 103 144 181 217 261 312
#     4  11  22  39  62  83 105 133 169 219 275 326
#     4  10  20  33  51  75 109 149 187 223 260 310
#     4  11  22  34  50  76 106 136 176 221 267 317
#     4  10  19  32  52  80 110 140 179 223 265 310
#     4  10  20  33  48  71 106 148 185 216 260 312
#
# _framework density 17.304285
#
# number of rings (size 3 to 8) (size 9 to 14) (size 15 to 20)
#    0.000    1.667    1.667    6.500    0.000    4.667 
#    0.000    0.000    0.000    1.000    0.000    4.667 
#    0.000    0.000    0.000    0.000    0.000    0.000 
#
# Total GULP energy -267912.544802 kJ/mol
# GULP energy per Si atom -5581.511350 kJ/mol
# Density = 1.726490 g / cm^3
# Si number density = 17.304285 Si / 1000 Ang^3
#
#
#
# Elastic Constant Matrix: (Units=GPa)
#
#
# Indices 1 2 3 4 5 6 
#
# 1 34.2043 5.0378 19.1025 0.0000 0.0000 0.0000
# 2 5.0378 79.3815 25.5510 0.0000 0.0000 0.0000
# 3 19.1025 25.5510 78.2013 0.0000 0.0000 0.0000
# 4 0.0000 0.0000 0.0000 9.6029 0.0000 0.0000
# 5 0.0000 0.0000 0.0000 0.0000 22.0967 0.0000
# 6 0.0000 0.0000 0.0000 0.0000 0.0000 21.6060
#
#
#
# Elastic Compliance Matrix: (Units=1/GPa)
#
#
# Indices 1 2 3 4 5 6 
#
# 1 0.033878 0.000574 -0.008463 0.000000 0.000000 0.000000
# 2 0.000574 0.014088 -0.004743 0.000000 0.000000 0.000000
# 3 -0.008463 -0.004743 0.016405 0.000000 0.000000 0.000000
# 4 0.000000 0.000000 0.000000 0.104135 0.000000 0.000000
# 5 0.000000 0.000000 0.000000 0.000000 0.045256 0.000000
# 6 0.000000 0.000000 0.000000 0.000000 0.000000 0.046283
#
#
# Mechanical properties :
#
#
# Convention : Reuss Voigt Hill
#
# Bulk Modulus (GPa) = 25.57160 32.35222 28.96191
# Shear Modulus (GPa) = 16.75920 20.13418 18.44669
#
# Velocity S-wave (km/s) = 3.11545 3.41477 3.26854
# Velocity P-wave (km/s) = 5.26793 5.85527 5.56935
#
# Compressibility (1/GPa) = 0.03910588
#
# Stress axis : x y z
#
# Youngs Moduli (GPa) = 29.51771 70.98412 60.95870
#
# Poissons Ratio (x) = -0.04075 0.51590
# Poissons Ratio (y) = -0.01694 0.28914
# Poissons Ratio (z) = 0.24981 0.33669
#
# Static dielectric constant tensor:
#      x y z
#    x 1.582550 0.000000 0.000000 
#    y 0.000000 1.630720 0.000000 
#    z 0.000000 0.000000 1.560480 
# 
# From -- ./inp_files/48366.got.cif
#   From: 2010.05.17/outbox.cif.g08.bks.cpg/sg64_25_cif.got.tgz:48366.got - 2010.06.03 16:29:19.
