data_PCOD9476681
_publ_section_title
;
Structure prediction by ZEFSAII (Michael W. Deem and Ramdas Pophale) SiO2 
 PCOD9476681
Probable space group: C M C A
;
_chemical_formula_sum "Si O2"
_cell_formula_units_Z 128
_cell_length_a 7.585837
_cell_length_b 25.050526
_cell_length_c 32.610971
_cell_angle_alpha 90.000000
_cell_angle_beta 90.000000
_cell_angle_gamma 90.000000
_cell_volume 6197.036959
_symmetry_space_group_name_H-M "C M C A"
_symmetry_group_IT_number 64
_symmetry_cell_setting 'orthorhombic'
loop_
_space_group_symop_operation_xyz
x,y,z
-x,1/2-y,1/2+z
x,-y,-z
-x,1/2+y,1/2-z
-x,-y,-z
x,1/2+y,1/2-z
-x,y,z
x,1/2-y,1/2+z
1/2+x,1/2+y,z
1/2-x,-y,1/2+z
1/2+x,1/2-y,-z
1/2-x,y,1/2-z
1/2-x,1/2-y,-z
1/2+x,y,1/2-z
1/2-x,1/2+y,z
1/2+x,-y,1/2+z
loop_
_atom_site_type_symbol
_atom_site_label
_atom_site_fract_x
_atom_site_fract_y
_atom_site_fract_z
Si Si1 0.216016 0.315340 0.109416
Si Si2 0.283707 0.934129 0.124223
Si Si3 0.207849 0.299106 0.636180
Si Si4 0.797983 0.497636 0.202443
Si Si5 0.289011 0.191066 0.983623
Si Si6 0.786557 0.874808 0.560063
Si Si7 0.215233 0.494699 0.952331
Si Si8 0.210186 0.379658 0.703155
O O1 0.267408 0.372235 0.127644
O O2 0.279005 0.260545 0.130184
O O3 0.277107 0.314786 0.062289
O O4 0.000000 0.313462 0.109302
O O5 0.500000 0.935927 0.122975
O O6 0.216144 0.966437 0.163955
O O7 0.228166 0.961076 0.080955
O O8 0.226294 0.334121 0.595031
O O9 0.283117 0.335375 0.672446
O O10 0.000000 0.292852 0.644564
O O11 0.750000 0.487603 0.250000
O O12 0.719952 0.560939 0.304888
O O13 0.000000 0.482512 0.200578
O O14 0.500000 0.184687 0.981763
O O15 0.250000 0.250000 0.000000
O O16 0.224318 0.148095 0.016418
O O17 0.732202 0.936208 0.564400
O O18 0.000000 0.874024 0.560674
O O19 0.000000 0.496442 0.953448
O O20 0.272135 0.500000 0.000000
O O21 0.250000 0.365862 0.750000
O O22 0.000000 0.383398 0.698139
#
# Coordination Sequence:
#
# PCOD9476681 Si02
#       8
#    16  16  16  16  16  16  16  16
#     4   9  17  31  48  68  98 135 171 203 240 292
#     4   9  17  29  48  72  98 132 169 205 247 294
#     4  10  20  33  50  72  98 130 163 198 243 296
#     4  10  19  33  55  80 103 128 162 206 254 302
#     4  10  18  29  47  69  97 132 168 205 244 288
#     4  10  19  29  47  75 100 125 163 209 249 286
#     4   9  16  27  44  70 102 129 160 205 250 291
#     4  10  20  34  53  76 100 127 159 197 247 299
#
# _framework density 20.655033
#
# number of rings (size 3 to 8) (size 9 to 14) (size 15 to 20)
#    0.000    2.375    1.250    3.000    0.000    5.000 
#    0.000    0.625    0.000    3.375    0.000    0.000 
#    0.000    0.000    0.000    0.000    0.000    0.000 
#
# Total GULP energy -357163.234797 kJ/mol
# GULP energy per Si atom -5580.675544 kJ/mol
# Density = 2.060802 g / cm^3
# Si number density = 20.655033 Si / 1000 Ang^3
#
#
#
# Elastic Constant Matrix: (Units=GPa)
#
#
# Indices 1 2 3 4 5 6 
#
# 1 35.2846 -7.9814 -3.0333 0.0000 0.0000 0.0000
# 2 -7.9814 152.8019 98.4558 0.0000 0.0000 0.0000
# 3 -3.0333 98.4558 151.1946 0.0000 0.0000 0.0000
# 4 0.0000 0.0000 0.0000 41.4532 0.0000 0.0000
# 5 0.0000 0.0000 0.0000 0.0000 -0.4211 0.0000
# 6 0.0000 0.0000 0.0000 0.0000 0.0000 7.5249
#
#
#
# Elastic Compliance Matrix: (Units=1/GPa)
#
#
# Indices 1 2 3 4 5 6 
#
# 1 0.028722 0.001945 -0.000690 0.000000 0.000000 0.000000
# 2 0.001945 0.011407 -0.007389 0.000000 0.000000 0.000000
# 3 -0.000690 -0.007389 0.011412 0.000000 0.000000 0.000000
# 4 0.000000 0.000000 0.000000 0.024124 0.000000 0.000000
# 5 0.000000 0.000000 0.000000 0.000000 -2.374763 0.000000
# 6 0.000000 0.000000 0.000000 0.000000 0.000000 0.132893
#
#
# Mechanical properties :
#
#
# Convention : Reuss Voigt Hill
#
# Bulk Modulus (GPa) = 25.46366 57.12927 41.29646
# Shear Modulus (GPa) = -2.33552 26.50071 12.08259
#
# Velocity S-wave (km/s) = -1.06451 3.58581 2.42124
# Velocity P-wave (km/s) = 3.29301 6.69797 5.27763
#
# Compressibility (1/GPa) = 0.03927166
#
# Stress axis : x y z
#
# Youngs Moduli (GPa) = 34.81700 87.66467 87.62829
#
# Poissons Ratio (x) = -0.17051 0.06050
# Poissons Ratio (y) = -0.06772 0.64750
# Poissons Ratio (z) = 0.02404 0.64777
#
# Static dielectric constant tensor:
#      x y z
#    x 1.776910 0.000000 0.000000 
#    y 0.000000 1.723080 0.000000 
#    z 0.000000 0.000000 1.739790 
# 
# From -- ./inp_files/49634.got.cif
#   From: 2010.05.17/outbox.cif.g08.bks.cpg/sg64_25_cif.got.tgz:49634.got - 2010.06.03 16:29:19.
