data_PCOD9476003
_publ_section_title
;
Structure prediction by ZEFSAII (Michael W. Deem and Ramdas Pophale) SiO2 
 PCOD9476003
Probable space group: C M C M
;
_chemical_formula_sum "Si O2"
_cell_formula_units_Z 80
_cell_length_a 14.847080
_cell_length_b 13.451872
_cell_length_c 17.201550
_cell_angle_alpha 90.000000
_cell_angle_beta 90.000000
_cell_angle_gamma 90.000000
_cell_volume 3435.511107
_symmetry_space_group_name_H-M "C M C M"
_symmetry_group_IT_number 63
_symmetry_cell_setting 'orthorhombic'
loop_
_space_group_symop_operation_xyz
x,y,z
-x,-y,1/2+z
x,-y,-z
-x,y,1/2-z
-x,-y,-z
x,y,1/2-z
-x,y,z
x,-y,1/2+z
1/2+x,1/2+y,z
1/2-x,1/2-y,1/2+z
1/2+x,1/2-y,-z
1/2-x,1/2+y,1/2-z
1/2-x,1/2-y,-z
1/2+x,1/2+y,1/2-z
1/2-x,1/2+y,z
1/2+x,1/2-y,1/2+z
loop_
_atom_site_type_symbol
_atom_site_label
_atom_site_fract_x
_atom_site_fract_y
_atom_site_fract_z
Si Si1 0.897869 0.758773 0.750000
Si Si2 0.100885 0.482545 0.250000
Si Si3 0.602054 0.737600 0.560220
Si Si4 0.203031 0.478610 0.091481
Si Si5 0.595039 0.514846 0.907356
Si Si6 0.795918 0.236759 0.096928
O O1 0.899920 0.638144 0.750000
O O2 0.843629 0.791371 0.824623
O O3 0.000000 0.792469 0.750000
O O4 0.144038 0.508825 0.166337
O O5 0.000000 0.522109 0.250000
O O6 0.500000 0.780872 0.557744
O O7 0.595221 0.634106 0.606566
O O8 0.691177 0.795726 0.589716
O O9 0.637684 0.709863 0.473886
O O10 0.303717 0.517672 0.109869
O O11 0.207034 0.357773 0.093414
O O12 0.178529 0.500000 0.000000
O O13 0.500000 0.475143 0.874298
O O14 0.589217 0.500000 0.000000
#
# Coordination Sequence:
#
# PCOD9476003 Si02
#       6
#     8   8  16  16  16  16
#     4   9  16  28  45  64  89 117 147 191 232 261
#     4   9  18  30  43  64  91 119 159 199 224 261
#     4   9  16  27  44  65  89 116 145 180 219 263
#     4   9  17  30  48  68  92 122 153 190 232 271
#     4   8  14  26  46  69  90 114 145 180 222 273
#     4   9  17  28  45  69  91 116 153 187 223 272
#
# _framework density 23.286200000000001
#
# number of rings (size 3 to 8) (size 9 to 14) (size 15 to 20)
#    0.000    3.200    0.000    0.600    0.000    1.200 
#    0.000    1.000    0.000   25.200    0.000   14.000 
#    0.000    0.000    0.000    0.000    0.000    0.000 
#
# Total GULP energy -222870.072972 kJ/mol
# GULP energy per Si atom -5571.751824 kJ/mol
# Density = 2.323320 g / cm^3
# Si number density = 23.286200 Si / 1000 Ang^3
#
#
#
# Elastic Constant Matrix: (Units=GPa)
#
#
# Indices 1 2 3 4 5 6 
#
# 1 270.1217 15.2370 119.3037 0.0000 0.0000 0.0000
# 2 15.2370 58.5520 28.3354 0.0000 0.0000 0.0000
# 3 119.3037 28.3354 159.6891 0.0000 0.0000 0.0000
# 4 0.0000 0.0000 0.0000 19.7950 0.0000 0.0000
# 5 0.0000 0.0000 0.0000 0.0000 23.3431 0.0000
# 6 0.0000 0.0000 0.0000 0.0000 0.0000 18.4279
#
#
#
# Elastic Compliance Matrix: (Units=1/GPa)
#
#
# Indices 1 2 3 4 5 6 
#
# 1 0.005545 0.000615 -0.004252 0.000000 0.000000 0.000000
# 2 0.000615 0.018751 -0.003786 0.000000 0.000000 0.000000
# 3 -0.004252 -0.003786 0.010111 0.000000 0.000000 0.000000
# 4 0.000000 0.000000 0.000000 0.050518 0.000000 0.000000
# 5 0.000000 0.000000 0.000000 0.000000 0.042839 0.000000
# 6 0.000000 0.000000 0.000000 0.000000 0.000000 0.054265
#
#
# Mechanical properties :
#
#
# Convention : Reuss Voigt Hill
#
# Bulk Modulus (GPa) = 51.12548 90.45723 70.79135
# Shear Modulus (GPa) = 24.58244 34.01232 29.29738
#
# Velocity S-wave (km/s) = 3.25263 3.82595 3.55088
# Velocity P-wave (km/s) = 6.00908 7.64509 6.87592
#
# Compressibility (1/GPa) = 0.01955972
#
# Stress axis : x y z
#
# Youngs Moduli (GPa) = 180.33233 53.32970 98.90531
#
# Poissons Ratio (x) = -0.03278 0.42054
# Poissons Ratio (y) = -0.11084 0.37450
# Poissons Ratio (z) = 0.76677 0.20193
#
# Static dielectric constant tensor:
#      x y z
#    x 1.911250 0.000000 0.000000 
#    y 0.000000 2.001560 0.000000 
#    z 0.000000 0.000000 1.818650 
# 
# From -- ./inp_files/44051.got.cif
#   From: 2010.05.17/outbox.cif.g08.bks.cpg/sg63_23_cif.got.tgz:44051.got - 2010.06.03 15:47:04.
