data_PCOD9476205
_publ_section_title
;
Structure prediction by ZEFSAII (Michael W. Deem and Ramdas Pophale) SiO2 
 PCOD9476205
Probable space group: C M C M
;
_chemical_formula_sum "Si O2"
_cell_formula_units_Z 56
_cell_length_a 24.000000
_cell_length_b 15.000000
_cell_length_c 15.000000
_cell_angle_alpha 90.000000
_cell_angle_beta 90.000000
_cell_angle_gamma 90.000000
_cell_volume 5400.000000
_symmetry_space_group_name_H-M "C M C M"
_symmetry_group_IT_number 63
_symmetry_cell_setting 'orthorhombic'
loop_
_space_group_symop_operation_xyz
x,y,z
-x,-y,1/2+z
x,-y,-z
-x,y,1/2-z
-x,-y,-z
x,y,1/2-z
-x,y,z
x,-y,1/2+z
1/2+x,1/2+y,z
1/2-x,1/2-y,1/2+z
1/2+x,1/2-y,-z
1/2-x,1/2+y,1/2-z
1/2-x,1/2-y,-z
1/2+x,1/2+y,1/2-z
1/2-x,1/2+y,z
1/2+x,1/2-y,1/2+z
loop_
_atom_site_type_symbol
_atom_site_label
_atom_site_fract_x
_atom_site_fract_y
_atom_site_fract_z
Si Si1 0.142875 0.149353 0.914031
Si Si2 0.165972 0.664429 0.149972
Si Si3 0.936252 0.459610 0.858400
Si Si4 0.367494 0.134558 0.645658
Si Si5 0.765699 0.394751 0.013783
Si Si6 0.438112 0.500718 0.891190
Si Si7 0.566136 0.696878 0.417629
O O1 0.153394 0.231461 0.849766
O O2 0.202264 0.124961 0.958182
O O3 0.112074 0.066050 0.868311
O O4 0.100026 0.183384 0.990343
O O5 0.178995 0.631891 0.250000
O O6 0.109658 0.614577 0.117055
O O7 0.215110 0.648491 0.079478
O O8 0.939428 0.458194 0.750000
O O9 0.907571 0.552994 0.884098
O O10 0.000000 0.448606 0.891214
O O11 0.353929 0.121615 0.750000
O O12 0.311180 0.135431 0.587378
O O13 0.403443 0.223496 0.632631
O O14 0.771588 0.500000 0.000000
O O15 0.500000 0.530329 0.862026
O O16 0.429480 0.397852 0.866757
O O17 0.439296 0.500000 0.000000
O O18 0.500000 0.712970 0.432183
#
# Coordination Sequence:
#
# PCOD9476205 Si02
#       7
#    16  16  16  16  16  16  16
#     4  11  22  40  63  92 126 166 218 265 318 381
#     4  11  24  42  62  90 129 167 212 265 317 377
#     4   9  19  38  62  89 126 168 208 257 318 381
#     4  11  23  40  63  97 134 169 211 267 323 382
#     4  12  24  43  66  93 128 175 218 263 318 381
#     4   8  16  34  61  92 124 161 206 261 320 375
#     4  10  20  37  64  96 127 164 210 266 330 390
#
# _framework density 10.370369999999999
#
# number of rings (size 3 to 8) (size 9 to 14) (size 15 to 20)
#    0.000    1.714    2.857    3.429    0.000    2.571 
#    0.000    1.429    0.000    2.571    0.000    0.000 
#    0.000    1.143    0.000    0.000    0.000    0.000 
#
# Total GULP energy -312834.674619 kJ/mol
# GULP energy per Si atom -5586.333475 kJ/mol
# Density = 1.034677 g / cm^3
# Si number density = 10.370370 Si / 1000 Ang^3
#
#
#
# Elastic Constant Matrix: (Units=GPa)
#
#
# Indices 1 2 3 4 5 6 
#
# 1 166.2110 67.4474 40.9906 0.0000 0.0000 0.0000
# 2 67.4474 130.9061 22.0657 0.0000 0.0000 0.0000
# 3 40.9906 22.0657 69.6833 0.0000 0.0000 0.0000
# 4 0.0000 0.0000 0.0000 16.7033 0.0000 0.0000
# 5 0.0000 0.0000 0.0000 0.0000 -18.4890 0.0000
# 6 0.0000 0.0000 0.0000 0.0000 0.0000 28.4665
#
#
#
# Elastic Compliance Matrix: (Units=1/GPa)
#
#
# Indices 1 2 3 4 5 6 
#
# 1 0.008463 -0.003720 -0.003800 0.000000 0.000000 0.000000
# 2 -0.003720 0.009705 -0.000885 0.000000 0.000000 0.000000
# 3 -0.003800 -0.000885 0.016866 0.000000 0.000000 0.000000
# 4 0.000000 0.000000 0.000000 0.059868 0.000000 0.000000
# 5 0.000000 0.000000 0.000000 0.000000 -0.054086 0.000000
# 6 0.000000 0.000000 0.000000 0.000000 0.000000 0.035129
#
#
# Mechanical properties :
#
#
# Convention : Reuss Voigt Hill
#
# Bulk Modulus (GPa) = 54.87295 69.75644 62.31469
# Shear Modulus (GPa) = 50.59145 21.08929 35.84037
#
# Velocity S-wave (km/s) = 4.94421 3.19220 4.16145
# Velocity P-wave (km/s) = 7.68815 6.87695 7.29384
#
# Compressibility (1/GPa) = 0.01822392
#
# Stress axis : x y z
#
# Youngs Moduli (GPa) = 118.15798 103.04113 59.28933
#
# Poissons Ratio (x) = 0.38331 0.22533
# Poissons Ratio (y) = 0.43954 0.05246
# Poissons Ratio (z) = 0.44906 0.09118
#
# Static dielectric constant tensor:
#      x y z
#    x 1.704280 0.000000 0.000000 
#    y 0.000000 1.785330 0.000000 
#    z 0.000000 0.000000 1.778690 
# 
# From -- ./inp_files/36852.got.cif
#   From: 2010.05.17/outbox.ucp.g08.bks.cvg/sg63_19_cif.got.tgz:36852.got - 2010.06.11 16:32:19.
