data_PCOD9476891
_publ_section_title
;
Structure prediction by ZEFSAII (Michael W. Deem and Ramdas Pophale) SiO2 
 PCOD9476891
Probable space group: C M C A
;
_chemical_formula_sum "Si O2"
_cell_formula_units_Z 72
_cell_length_a 22.290671
_cell_length_b 5.634346
_cell_length_c 23.565716
_cell_angle_alpha 90.000000
_cell_angle_beta 90.000000
_cell_angle_gamma 90.000000
_cell_volume 2959.697288
_symmetry_space_group_name_H-M "C M C A"
_symmetry_group_IT_number 64
_symmetry_cell_setting 'orthorhombic'
loop_
_space_group_symop_operation_xyz
x,y,z
-x,1/2-y,1/2+z
x,-y,-z
-x,1/2+y,1/2-z
-x,-y,-z
x,1/2+y,1/2-z
-x,y,z
x,1/2-y,1/2+z
1/2+x,1/2+y,z
1/2-x,-y,1/2+z
1/2+x,1/2-y,-z
1/2-x,y,1/2-z
1/2-x,1/2-y,-z
1/2+x,y,1/2-z
1/2-x,1/2+y,z
1/2+x,-y,1/2+z
loop_
_atom_site_type_symbol
_atom_site_label
_atom_site_fract_x
_atom_site_fract_y
_atom_site_fract_z
Si Si1 0.106705 0.774183 0.387887
Si Si2 0.431453 0.890921 0.729840
Si Si3 0.191276 0.113534 0.945633
Si Si4 0.271076 0.373274 0.338158
Si Si5 0.104777 0.500000 0.000000
O O1 0.068207 0.669213 0.336820
O O2 0.145249 0.565640 0.415885
O O3 0.159308 0.921017 0.354369
O O4 0.074904 0.895759 0.442331
O O5 0.404207 0.653558 0.759381
O O6 0.500000 0.911995 0.751936
O O7 0.238108 0.179978 0.898088
O O8 0.148430 0.308882 0.971997
O O9 0.223260 0.000000 0.000000
O O10 0.239622 0.608301 0.311651
#
# Coordination Sequence:
#
# PCOD9476891 Si02
#       5
#    16  16  16  16   8
#     4  10  21  34  59  88 125 156 203 250 301 356
#     4  10  24  46  72  91 107 147 210 269 312 356
#     4   9  19  30  49  84 128 166 200 231 273 347
#     4  10  19  30  48  80 122 160 197 234 271 343
#     4  10  18  32  53  92 130 166 193 234 294 362
#
# _framework density 24.326809999999998
#
# number of rings (size 3 to 8) (size 9 to 14) (size 15 to 20)
#    0.000    2.222    2.222    0.000    4.667    2.667 
#    0.000    0.556    0.000   22.000    0.000    0.000 
#    0.000    0.000    0.000    0.000    0.000    0.000 
#
# Total GULP energy -200625.690788 kJ/mol
# GULP energy per Si atom -5572.935855 kJ/mol
# Density = 2.427144 g / cm^3
# Si number density = 24.326810 Si / 1000 Ang^3
#
#
#
# Elastic Constant Matrix: (Units=GPa)
#
#
# Indices 1 2 3 4 5 6 
#
# 1 39.6726 5.6133 3.1888 0.0000 0.0000 0.0000
# 2 5.6133 140.6106 24.0881 0.0000 0.0000 0.0000
# 3 3.1888 24.0881 127.0456 0.0000 0.0000 0.0000
# 4 0.0000 0.0000 0.0000 8.2335 0.0000 0.0000
# 5 0.0000 0.0000 0.0000 0.0000 22.1816 0.0000
# 6 0.0000 0.0000 0.0000 0.0000 0.0000 4.5895
#
#
#
# Elastic Compliance Matrix: (Units=1/GPa)
#
#
# Indices 1 2 3 4 5 6 
#
# 1 0.025375 -0.000934 -0.000460 0.000000 0.000000 0.000000
# 2 -0.000934 0.007385 -0.001377 0.000000 0.000000 0.000000
# 3 -0.000460 -0.001377 0.008144 0.000000 0.000000 0.000000
# 4 0.000000 0.000000 0.000000 0.121454 0.000000 0.000000
# 5 0.000000 0.000000 0.000000 0.000000 0.045082 0.000000
# 6 0.000000 0.000000 0.000000 0.000000 0.000000 0.217888
#
#
# Mechanical properties :
#
#
# Convention : Reuss Voigt Hill
#
# Bulk Modulus (GPa) = 28.27842 41.45658 34.86750
# Shear Modulus (GPa) = 11.29540 25.29684 18.29612
#
# Velocity S-wave (km/s) = 2.15714 3.22821 2.74541
# Velocity P-wave (km/s) = 4.22540 5.56539 4.94103
#
# Compressibility (1/GPa) = 0.03536265
#
# Stress axis : x y z
#
# Youngs Moduli (GPa) = 39.40813 135.40980 122.79331
#
# Poissons Ratio (x) = 0.12651 0.05646
# Poissons Ratio (y) = 0.03682 0.16906
# Poissons Ratio (z) = 0.01812 0.18643
#
# Static dielectric constant tensor:
#      x y z
#    x 1.911250 0.000000 0.000000 
#    y 0.000000 2.115880 0.000000 
#    z 0.000000 0.000000 1.980990 
# 
# From -- ./inp_files/46812.got.cif
#   From: 2010.05.17/outbox.cif.g08.bks.cpg/sg64_24_cif.got.tgz:46812.got - 2010.06.03 16:29:19.
