data_PCOD9476034
_publ_section_title
;
Structure prediction by ZEFSAII (Michael W. Deem and Ramdas Pophale) SiO2 
 PCOD9476034
Probable space group: C M C M
;
_chemical_formula_sum "Si O2"
_cell_formula_units_Z 96
_cell_length_a 7.308380
_cell_length_b 20.723927
_cell_length_c 24.259112
_cell_angle_alpha 90.000000
_cell_angle_beta 90.000000
_cell_angle_gamma 90.000000
_cell_volume 3674.244678
_symmetry_space_group_name_H-M "C M C M"
_symmetry_group_IT_number 63
_symmetry_cell_setting 'orthorhombic'
loop_
_space_group_symop_operation_xyz
x,y,z
-x,-y,1/2+z
x,-y,-z
-x,y,1/2-z
-x,-y,-z
x,y,1/2-z
-x,y,z
x,-y,1/2+z
1/2+x,1/2+y,z
1/2-x,1/2-y,1/2+z
1/2+x,1/2-y,-z
1/2-x,1/2+y,1/2-z
1/2-x,1/2-y,-z
1/2+x,1/2+y,1/2-z
1/2-x,1/2+y,z
1/2+x,1/2-y,1/2+z
loop_
_atom_site_type_symbol
_atom_site_label
_atom_site_fract_x
_atom_site_fract_y
_atom_site_fract_z
Si Si1 0.709285 0.020839 0.073325
Si Si2 0.278970 0.836271 0.544260
Si Si3 0.710097 0.297889 0.838329
Si Si4 0.778604 0.940814 0.689499
Si Si5 0.776522 0.619569 0.568669
Si Si6 0.223571 0.341636 0.190344
O O1 0.500000 0.025420 0.055068
O O2 0.787144 0.091346 0.061101
O O3 0.711259 0.016052 0.139617
O O4 0.783246 0.953107 0.052058
O O5 0.500000 0.833488 0.546313
O O6 0.213967 0.792898 0.594987
O O7 0.222095 0.831229 0.480308
O O8 0.500000 0.300660 0.820430
O O9 0.787810 0.367232 0.821264
O O10 0.784653 0.233130 0.812406
O O11 0.721932 0.961789 0.750000
O O12 0.000000 0.940978 0.686960
O O13 0.715429 0.631656 0.631036
O O14 0.000000 0.619407 0.569050
O O15 0.279825 0.369516 0.250000
O O16 0.000000 0.343349 0.189184
#
# Coordination Sequence:
#
# PCOD9476034 Si02
#       6
#    16  16  16  16  16  16
#     4   9  17  29  46  68  93 121 153 189 228 270
#     4   9  17  30  48  70  95 121 149 185 231 276
#     4   9  17  30  48  69  91 116 150 191 231 270
#     4   9  17  29  45  65  90 120 152 188 231 274
#     4   9  17  29  46  68  94 123 153 186 225 270
#     4   9  17  29  46  68  92 119 153 191 227 265
#
# _framework density 26.127818999999999
#
# number of rings (size 3 to 8) (size 9 to 14) (size 15 to 20)
#    0.000    3.000    0.000    1.000    0.000    5.667 
#    0.000    2.500    0.000    6.500    0.000    0.000 
#    0.000    0.000    0.000    0.000    0.000    0.000 
#
# Total GULP energy -268121.966451 kJ/mol
# GULP energy per Si atom -5585.874301 kJ/mol
# Density = 2.606835 g / cm^3
# Si number density = 26.127819 Si / 1000 Ang^3
#
#
#
# Elastic Constant Matrix: (Units=GPa)
#
#
# Indices 1 2 3 4 5 6 
#
# 1 112.7982 -7.2434 -5.5969 0.0000 0.0000 0.0000
# 2 -7.2434 39.4969 9.4178 0.0000 0.0000 0.0000
# 3 -5.5969 9.4178 189.3133 0.0000 0.0000 0.0000
# 4 0.0000 0.0000 0.0000 32.5819 0.0000 0.0000
# 5 0.0000 0.0000 0.0000 0.0000 17.6344 0.0000
# 6 0.0000 0.0000 0.0000 0.0000 0.0000 -4.5758
#
#
#
# Elastic Compliance Matrix: (Units=1/GPa)
#
#
# Indices 1 2 3 4 5 6 
#
# 1 0.008977 0.001602 0.000186 0.000000 0.000000 0.000000
# 2 0.001602 0.025908 -0.001242 0.000000 0.000000 0.000000
# 3 0.000186 -0.001242 0.005350 0.000000 0.000000 0.000000
# 4 0.000000 0.000000 0.000000 0.030692 0.000000 0.000000
# 5 0.000000 0.000000 0.000000 0.000000 0.056707 0.000000
# 6 0.000000 0.000000 0.000000 0.000000 0.000000 -0.218541
#
#
# Mechanical properties :
#
#
# Convention : Reuss Voigt Hill
#
# Bulk Modulus (GPa) = 24.19675 37.19596 30.69635
# Shear Modulus (GPa) = -63.91962 32.13014 -15.89474
#
# Velocity S-wave (km/s) = -4.95150 3.51055 -2.46914
# Velocity P-wave (km/s) = 4.83826 5.54067 1.90923
#
# Compressibility (1/GPa) = 0.04132786
#
# Stress axis : x y z
#
# Youngs Moduli (GPa) = 111.38975 38.59774 186.93328
#
# Poissons Ratio (x) = -0.06184 -0.03472
# Poissons Ratio (y) = -0.17846 0.23208
# Poissons Ratio (z) = -0.02069 0.04792
#
# Static dielectric constant tensor:
#      x y z
#    x 2.008940 0.000000 0.000000 
#    y 0.000000 2.018060 0.000000 
#    z 0.000000 0.000000 2.077250 
# 
# From -- ./inp_files/52867.got.cif
#   From: 2010.05.17/outbox.cif.g08.bks.cpg/sg63_27_cif.got.tgz:52867.got - 2010.06.03 15:47:04.
