data_PCOD9476188
_publ_section_title
;
Structure prediction by ZEFSAII (Michael W. Deem and Ramdas Pophale) SiO2 
 PCOD9476188
Probable space group: C M C M
;
_chemical_formula_sum "Si O2"
_cell_formula_units_Z 56
_cell_length_a 15.000000
_cell_length_b 27.000000
_cell_length_c 15.000000
_cell_angle_alpha 90.000000
_cell_angle_beta 90.000000
_cell_angle_gamma 90.000000
_cell_volume 6075.000000
_symmetry_space_group_name_H-M "C M C M"
_symmetry_group_IT_number 63
_symmetry_cell_setting 'orthorhombic'
loop_
_space_group_symop_operation_xyz
x,y,z
-x,-y,1/2+z
x,-y,-z
-x,y,1/2-z
-x,-y,-z
x,y,1/2-z
-x,y,z
x,-y,1/2+z
1/2+x,1/2+y,z
1/2-x,1/2-y,1/2+z
1/2+x,1/2-y,-z
1/2-x,1/2+y,1/2-z
1/2-x,1/2-y,-z
1/2+x,1/2+y,1/2-z
1/2-x,1/2+y,z
1/2+x,1/2-y,1/2+z
loop_
_atom_site_type_symbol
_atom_site_label
_atom_site_fract_x
_atom_site_fract_y
_atom_site_fract_z
Si Si1 0.104126 0.742280 0.645596
Si Si2 0.102178 0.155623 0.455737
Si Si3 0.795699 0.485639 0.603230
Si Si4 0.100311 0.949465 0.644438
Si Si5 0.107654 0.380785 0.644655
Si Si6 0.200135 0.337081 0.476047
Si Si7 0.894950 0.583467 0.649572
O O1 0.128288 0.736869 0.750000
O O2 0.107948 0.799585 0.615420
O O3 0.165035 0.710761 0.577960
O O4 0.000000 0.726035 0.635942
O O5 0.108209 0.102211 0.408392
O O6 0.192103 0.160642 0.515278
O O7 0.000000 0.159056 0.494804
O O8 0.804073 0.500000 0.500000
O O9 0.689796 0.480802 0.624108
O O10 0.844698 0.433872 0.626178
O O11 0.848144 0.529974 0.651005
O O12 0.101868 0.939400 0.750000
O O13 0.000000 0.970386 0.624015
O O14 0.120720 0.368695 0.750000
O O15 0.155464 0.343527 0.574493
O O16 0.000000 0.383209 0.628772
O O17 0.159471 0.382588 0.418836
O O18 0.891128 0.604733 0.750000
O O19 0.000000 0.579660 0.624753
#
# Coordination Sequence:
#
# PCOD9476188 Si02
#       7
#    16  16  16  16  16  16  16
#     4  10  21  38  63  93 122 153 194 245 295 350
#     4  10  21  38  60  87 116 152 200 246 297 347
#     4  12  22  36  56  83 115 157 199 244 295 351
#     4  10  20  36  58  82 111 149 197 252 299 344
#     4  11  23  37  55  81 117 157 196 240 290 347
#     4  12  22  38  60  88 121 156 197 243 295 350
#     4  11  23  38  59  86 120 161 202 244 291 353
#
# _framework density 9.2181069999999998
#
# number of rings (size 3 to 8) (size 9 to 14) (size 15 to 20)
#    0.000    1.143    2.857    4.286    0.000    5.429 
#    0.000    0.714    0.000    2.571    0.000    2.000 
#    0.000    0.000    0.000    0.000    0.000    0.000 
#
# Total GULP energy -312662.475522 kJ/mol
# GULP energy per Si atom -5583.258491 kJ/mol
# Density = 0.919713 g / cm^3
# Si number density = 9.218107 Si / 1000 Ang^3
#
#
#
# Elastic Constant Matrix: (Units=GPa)
#
#
# Indices 1 2 3 4 5 6 
#
# 1 174.3720 29.1766 57.1844 0.0000 0.0000 0.0000
# 2 29.1766 48.0599 16.1027 0.0000 0.0000 0.0000
# 3 57.1844 16.1027 109.4972 0.0000 0.0000 0.0000
# 4 0.0000 0.0000 0.0000 21.0172 0.0000 0.0000
# 5 0.0000 0.0000 0.0000 0.0000 35.1906 0.0000
# 6 0.0000 0.0000 0.0000 0.0000 0.0000 30.6214
#
#
#
# Elastic Compliance Matrix: (Units=1/GPa)
#
#
# Indices 1 2 3 4 5 6 
#
# 1 0.007404 -0.003365 -0.003372 0.000000 0.000000 0.000000
# 2 -0.003365 0.023415 -0.001686 0.000000 0.000000 0.000000
# 3 -0.003372 -0.001686 0.011141 0.000000 0.000000 0.000000
# 4 0.000000 0.000000 0.000000 0.047580 0.000000 0.000000
# 5 0.000000 0.000000 0.000000 0.000000 0.028417 0.000000
# 6 0.000000 0.000000 0.000000 0.000000 0.000000 0.032657
#
#
# Mechanical properties :
#
#
# Convention : Reuss Voigt Hill
#
# Bulk Modulus (GPa) = 39.81719 59.65072 49.73396
# Shear Modulus (GPa) = 28.43643 32.66354 30.54998
#
# Velocity S-wave (km/s) = 3.93163 4.21373 4.07512
# Velocity P-wave (km/s) = 6.50034 7.48996 7.01263
#
# Compressibility (1/GPa) = 0.02511478
#
# Stress axis : x y z
#
# Youngs Moduli (GPa) = 135.06895 42.70739 89.75496
#
# Poissons Ratio (x) = 0.14371 0.30262
# Poissons Ratio (y) = 0.45450 0.15134
# Poissons Ratio (z) = 0.45541 0.07201
#
# Static dielectric constant tensor:
#      x y z
#    x 1.645690 0.000000 0.000000 
#    y 0.000000 1.649120 0.000000 
#    z 0.000000 0.000000 1.644170 
# 
# From -- ./inp_files/32559.got.cif
#   From: 2010.05.17/outbox.ucp.g08.bks.cvg/sg63_17_cif.got.tgz:32559.got - 2010.06.11 16:32:19.
