data_PCOD9476453
_publ_section_title
;
Structure prediction by ZEFSAII (Michael W. Deem and Ramdas Pophale) SiO2 
 PCOD9476453
Probable space group: C M C A
;
_chemical_formula_sum "Si O2"
_cell_formula_units_Z 80
_cell_length_a 19.440201
_cell_length_b 5.637335
_cell_length_c 31.548320
_cell_angle_alpha 90.000000
_cell_angle_beta 90.000000
_cell_angle_gamma 90.000000
_cell_volume 3457.409587
_symmetry_space_group_name_H-M "C M C A"
_symmetry_group_IT_number 64
_symmetry_cell_setting 'orthorhombic'
loop_
_space_group_symop_operation_xyz
x,y,z
-x,1/2-y,1/2+z
x,-y,-z
-x,1/2+y,1/2-z
-x,-y,-z
x,1/2+y,1/2-z
-x,y,z
x,1/2-y,1/2+z
1/2+x,1/2+y,z
1/2-x,-y,1/2+z
1/2+x,1/2-y,-z
1/2-x,y,1/2-z
1/2-x,1/2-y,-z
1/2+x,y,1/2-z
1/2-x,1/2+y,z
1/2+x,-y,1/2+z
loop_
_atom_site_type_symbol
_atom_site_label
_atom_site_fract_x
_atom_site_fract_y
_atom_site_fract_z
Si Si1 0.386475 0.248206 0.391607
Si Si2 0.746228 0.730526 0.170966
Si Si3 0.223490 0.744784 0.951629
Si Si4 0.398893 0.250602 0.138744
Si Si5 0.921115 0.141036 0.763990
O O1 0.321613 0.235018 0.358404
O O2 0.356073 0.270491 0.439013
O O3 0.421844 0.495727 0.379116
O O4 0.419441 0.989330 0.386065
O O5 0.750768 0.480724 0.194868
O O6 0.815528 0.735626 0.142315
O O7 0.253791 0.499760 0.933997
O O8 0.250000 0.750000 0.000000
O O9 0.421779 0.291965 0.186866
O O10 0.890435 0.376320 0.741721
O O11 0.000000 0.116970 0.747667
#
# Coordination Sequence:
#
# PCOD9476453 Si02
#       5
#    16  16  16  16  16
#     4  10  17  28  45  67  95 129 161 189 230 276
#     4   8  14  23  39  59  83 112 145 176 214 260
#     4  10  18  27  41  65  99 139 167 191 225 267
#     4  10  18  29  49  68  87 122 162 195 236 287
#     4  10  21  37  54  71  92 118 153 205 267 313
#
# _framework density 23.138711000000001
#
# number of rings (size 3 to 8) (size 9 to 14) (size 15 to 20)
#    0.000    2.400    0.000    6.000    0.000    0.000 
#    0.000    0.000    0.000   32.400    0.000    0.000 
#    0.000    0.000    0.000  122.400    0.000    0.000 
#
# Total GULP energy -222786.354020 kJ/mol
# GULP energy per Si atom -5569.658850 kJ/mol
# Density = 2.308605 g / cm^3
# Si number density = 23.138711 Si / 1000 Ang^3
#
#
#
# Elastic Constant Matrix: (Units=GPa)
#
#
# Indices 1 2 3 4 5 6 
#
# 1 66.1935 1.2890 0.2654 0.0000 0.0000 0.0000
# 2 1.2890 274.3420 18.3520 0.0000 0.0000 0.0000
# 3 0.2654 18.3520 76.8834 0.0000 0.0000 0.0000
# 4 0.0000 0.0000 0.0000 16.8977 0.0000 0.0000
# 5 0.0000 0.0000 0.0000 0.0000 -165.4700 0.0000
# 6 0.0000 0.0000 0.0000 0.0000 0.0000 -21.6048
#
#
#
# Elastic Compliance Matrix: (Units=1/GPa)
#
#
# Indices 1 2 3 4 5 6 
#
# 1 0.015109 -0.000069 -0.000036 0.000000 0.000000 0.000000
# 2 -0.000069 0.003705 -0.000884 0.000000 0.000000 0.000000
# 3 -0.000036 -0.000884 0.013218 0.000000 0.000000 0.000000
# 4 0.000000 0.000000 0.000000 0.059180 0.000000 0.000000
# 5 0.000000 0.000000 0.000000 0.000000 -0.006043 0.000000
# 6 0.000000 0.000000 0.000000 0.000000 0.000000 -0.046286
#
#
# Mechanical properties :
#
#
# Convention : Reuss Voigt Hill
#
# Bulk Modulus (GPa) = 33.27313 50.80353 42.03833
# Shear Modulus (GPa) = 98.27765 -7.53459 45.37153
#
# Velocity S-wave (km/s) = 6.52422 -1.80647 4.43295
# Velocity P-wave (km/s) = 8.43594 4.20150 6.66399
#
# Compressibility (1/GPa) = 0.03005428
#
# Stress axis : x y z
#
# Youngs Moduli (GPa) = 66.18704 269.93866 75.65531
#
# Poissons Ratio (x) = 0.01852 0.00271
# Poissons Ratio (y) = 0.00454 0.06688
# Poissons Ratio (z) = 0.00237 0.23864
#
# Static dielectric constant tensor:
#      x y z
#    x 1.923180 0.000000 0.000000 
#    y 0.000000 1.974470 0.000000 
#    z 0.000000 0.000000 1.927270 
# 
# From -- ./inp_files/53845.got.cif
#   From: 2010.05.17/outbox.cif.g08.bks.cpg/sg64_27_cif.got.tgz:53845.got - 2010.06.03 16:29:19.
