data_PCOD9476890
_publ_section_title
;
Structure prediction by ZEFSAII (Michael W. Deem and Ramdas Pophale) SiO2 
 PCOD9476890
Probable space group: C M C A
;
_chemical_formula_sum "Si O2"
_cell_formula_units_Z 88
_cell_length_a 13.492058
_cell_length_b 15.206534
_cell_length_c 20.204846
_cell_angle_alpha 90.000000
_cell_angle_beta 90.000000
_cell_angle_gamma 90.000000
_cell_volume 4145.376503
_symmetry_space_group_name_H-M "C M C A"
_symmetry_group_IT_number 64
_symmetry_cell_setting 'orthorhombic'
loop_
_space_group_symop_operation_xyz
x,y,z
-x,1/2-y,1/2+z
x,-y,-z
-x,1/2+y,1/2-z
-x,-y,-z
x,1/2+y,1/2-z
-x,y,z
x,1/2-y,1/2+z
1/2+x,1/2+y,z
1/2-x,-y,1/2+z
1/2+x,1/2-y,-z
1/2-x,y,1/2-z
1/2-x,1/2-y,-z
1/2+x,y,1/2-z
1/2-x,1/2+y,z
1/2+x,-y,1/2+z
loop_
_atom_site_type_symbol
_atom_site_label
_atom_site_fract_x
_atom_site_fract_y
_atom_site_fract_z
Si Si1 0.500000 0.663249 0.240988
Si Si2 0.315721 0.440616 0.562421
Si Si3 0.697342 0.276875 0.391741
Si Si4 0.702816 0.889013 0.682689
Si Si5 0.000000 0.656098 0.819202
Si Si6 0.382377 0.738941 0.968960
Si Si7 0.000000 0.026978 0.349942
O O1 0.408766 0.625991 0.200673
O O2 0.500000 0.768617 0.236631
O O3 0.500000 0.620228 0.313059
O O4 0.293436 0.500000 0.500000
O O5 0.228991 0.439762 0.616558
O O6 0.354332 0.342543 0.542983
O O7 0.406708 0.480472 0.602950
O O8 0.738064 0.210253 0.335534
O O9 0.602906 0.327884 0.360625
O O10 0.645529 0.225689 0.453787
O O11 0.799629 0.312964 0.424917
O O12 0.750000 0.924679 0.750000
O O13 0.000000 0.554303 0.799297
O O14 0.500000 0.724835 0.957195
#
# Coordination Sequence:
#
# PCOD9476890 Si02
#       7
#     8  16  16  16   8  16   8
#     4  10  22  41  68  92 125 176 218 267 337 396
#     4  11  22  34  60  98 130 167 214 273 339 391
#     4   9  19  32  55  82 123 160 207 265 314 377
#     4  10  20  39  62  88 120 172 224 267 331 406
#     4  10  20  37  61  93 126 158 216 262 326 396
#     4  10  18  32  53  87 124 162 209 259 317 390
#     4  12  21  36  70  97 131 168 214 285 332 382
#
# _framework density 21.228470000000002
#
# number of rings (size 3 to 8) (size 9 to 14) (size 15 to 20)
#    0.000    1.818    3.636    1.364    0.000    0.000 
#    0.000    0.455   24.000    0.000    7.091    0.000 
#    0.000    0.000    0.000    0.000    0.000    0.000 
#
# Total GULP energy -244976.059681 kJ/mol
# GULP energy per Si atom -5567.637720 kJ/mol
# Density = 2.118015 g / cm^3
# Si number density = 21.228470 Si / 1000 Ang^3
#
#
#
# Elastic Constant Matrix: (Units=GPa)
#
#
# Indices 1 2 3 4 5 6 
#
# 1 70.8851 -1.6449 -0.4066 0.0000 0.0000 0.0000
# 2 -1.6449 69.5243 28.3828 0.0000 0.0000 0.0000
# 3 -0.4066 28.3828 101.8739 0.0000 0.0000 0.0000
# 4 0.0000 0.0000 0.0000 32.3264 0.0000 0.0000
# 5 0.0000 0.0000 0.0000 0.0000 17.8615 0.0000
# 6 0.0000 0.0000 0.0000 0.0000 0.0000 1198.9035
#
#
#
# Elastic Compliance Matrix: (Units=1/GPa)
#
#
# Indices 1 2 3 4 5 6 
#
# 1 0.014115 0.000351 -0.000041 0.000000 0.000000 0.000000
# 2 0.000351 0.016238 -0.004523 0.000000 0.000000 0.000000
# 3 -0.000041 -0.004523 0.011076 0.000000 0.000000 0.000000
# 4 0.000000 0.000000 0.000000 0.030934 0.000000 0.000000
# 5 0.000000 0.000000 0.000000 0.000000 0.055986 0.000000
# 6 0.000000 0.000000 0.000000 0.000000 0.000000 0.000834
#
#
# Mechanical properties :
#
#
# Convention : Reuss Voigt Hill
#
# Bulk Modulus (GPa) = 30.30038 32.77176 31.53607
# Shear Modulus (GPa) = 33.64476 264.21509 148.92993
#
# Velocity S-wave (km/s) = 3.98538 11.16838 8.38499
# Velocity P-wave (km/s) = 5.95669 13.48264 10.42266
#
# Compressibility (1/GPa) = 0.03300288
#
# Stress axis : x y z
#
# Youngs Moduli (GPa) = 70.84538 61.58358 90.28589
#
# Poissons Ratio (x) = -0.02161 0.00374
# Poissons Ratio (y) = -0.02486 0.40833
# Poissons Ratio (z) = 0.00293 0.27852
#
# Static dielectric constant tensor:
#      x y z
#    x 1.790220 0.000000 0.000000 
#    y 0.000000 1.822450 0.000000 
#    z 0.000000 0.000000 1.816070 
# 
# From -- ./inp_files/32212.got.cif
#   From: 2010.05.17/outbox.cif.g08.bks.cpg/sg64_17_cif.got.tgz:32212.got - 2010.06.03 16:29:19.
