data_PCOD9476856
_publ_section_title
;
Structure prediction by ZEFSAII (Michael W. Deem and Ramdas Pophale) SiO2 
 PCOD9476856
Probable space group: C M C A
;
_chemical_formula_sum "Si O2"
_cell_formula_units_Z 104
_cell_length_a 16.912611
_cell_length_b 26.535147
_cell_length_c 12.111373
_cell_angle_alpha 90.000000
_cell_angle_beta 90.000000
_cell_angle_gamma 90.000000
_cell_volume 5435.325250
_symmetry_space_group_name_H-M "C M C A"
_symmetry_group_IT_number 64
_symmetry_cell_setting 'orthorhombic'
loop_
_space_group_symop_operation_xyz
x,y,z
-x,1/2-y,1/2+z
x,-y,-z
-x,1/2+y,1/2-z
-x,-y,-z
x,1/2+y,1/2-z
-x,y,z
x,1/2-y,1/2+z
1/2+x,1/2+y,z
1/2-x,-y,1/2+z
1/2+x,1/2-y,-z
1/2-x,y,1/2-z
1/2-x,1/2-y,-z
1/2+x,y,1/2-z
1/2-x,1/2+y,z
1/2+x,-y,1/2+z
loop_
_atom_site_type_symbol
_atom_site_label
_atom_site_fract_x
_atom_site_fract_y
_atom_site_fract_z
Si Si1 0.910866 0.058093 0.119959
Si Si2 0.660772 0.716789 0.199466
Si Si3 0.654181 0.329370 0.260411
Si Si4 0.908760 0.125071 0.334121
Si Si5 0.225563 0.000000 0.000000
Si Si6 0.187655 0.599626 0.948681
Si Si7 0.643193 0.150912 0.515991
O O1 0.897383 0.083268 0.238870
O O2 0.836601 0.023451 0.087988
O O3 0.000000 0.035871 0.115950
O O4 0.906535 0.105158 0.035166
O O5 0.750000 0.716542 0.250000
O O6 0.631337 0.774200 0.196161
O O7 0.615923 0.678359 0.280720
O O8 0.651098 0.693984 0.076642
O O9 0.750000 0.327620 0.250000
O O10 0.642541 0.376163 0.343836
O O11 0.617104 0.334803 0.138940
O O12 0.860842 0.109415 0.440927
O O13 0.000000 0.127213 0.362683
O O14 0.281408 0.042262 0.944894
O O15 0.268402 0.630456 0.966374
#
# Coordination Sequence:
#
# PCOD9476856 Si02
#       7
#    16  16  16  16   8  16  16
#     4   9  19  37  58  84 116 149 192 251 304 346
#     4  10  18  31  61  84 112 154 199 242 294 352
#     4   9  20  32  54  87 120 149 193 249 294 345
#     4  10  21  38  59  86 121 153 192 239 293 358
#     4  10  21  36  63  88 114 154 204 250 293 356
#     4  10  20  38  55  86 118 153 195 246 290 348
#     4   9  18  33  53  85 114 152 193 243 295 349
#
# _framework density 19.134088999999999
#
# number of rings (size 3 to 8) (size 9 to 14) (size 15 to 20)
#    0.000    2.462    1.538    0.231    2.154    1.846 
#   13.846    2.692    0.000    0.000    0.000    0.000 
#    0.000    0.000    0.000    0.000    0.000    0.000 
#
# Total GULP energy -289729.363191 kJ/mol
# GULP energy per Si atom -5571.718523 kJ/mol
# Density = 1.909054 g / cm^3
# Si number density = 19.134089 Si / 1000 Ang^3
#
#
#
# Elastic Constant Matrix: (Units=GPa)
#
#
# Indices 1 2 3 4 5 6 
#
# 1 41.0498 31.1962 19.7546 0.0000 0.0000 0.0000
# 2 31.1962 127.5083 66.5712 0.0000 0.0000 0.0000
# 3 19.7546 66.5712 111.5901 0.0000 0.0000 0.0000
# 4 0.0000 0.0000 0.0000 35.0299 0.0000 0.0000
# 5 0.0000 0.0000 0.0000 0.0000 -433.5462 0.0000
# 6 0.0000 0.0000 0.0000 0.0000 0.0000 -18.0696
#
#
#
# Elastic Compliance Matrix: (Units=1/GPa)
#
#
# Indices 1 2 3 4 5 6 
#
# 1 0.030065 -0.006647 -0.001357 0.000000 0.000000 0.000000
# 2 -0.006647 0.012860 -0.006495 0.000000 0.000000 0.000000
# 3 -0.001357 -0.006495 0.013076 0.000000 0.000000 0.000000
# 4 0.000000 0.000000 0.000000 0.028547 0.000000 0.000000
# 5 0.000000 0.000000 0.000000 0.000000 -0.002307 0.000000
# 6 0.000000 0.000000 0.000000 0.000000 0.000000 -0.055342
#
#
# Mechanical properties :
#
#
# Convention : Reuss Voigt Hill
#
# Bulk Modulus (GPa) = 37.03281 57.24359 47.13820
# Shear Modulus (GPa) = 77.04139 -72.47542 2.28298
#
# Velocity S-wave (km/s) = 6.35227 -6.16116 1.09350
# Velocity P-wave (km/s) = 8.55559 4.54215 5.12675
#
# Compressibility (1/GPa) = 0.02700308
#
# Stress axis : x y z
#
# Youngs Moduli (GPa) = 33.26091 77.76015 76.47398
#
# Poissons Ratio (x) = 0.51691 0.10376
# Poissons Ratio (y) = 0.22110 0.49671
# Poissons Ratio (z) = 0.04513 0.50506
#
# Static dielectric constant tensor:
#      x y z
#    x 1.653090 0.000000 0.000000 
#    y 0.000000 1.690720 0.000000 
#    z 0.000000 0.000000 1.663970 
# 
# From -- ./inp_files/16443.got.cif
#   From: 2010.05.17/outbox.cif.g08.bks.cpg/sg64_9_cif.got.tgz:16443.got - 2010.06.03 16:29:19.
