data_PCOD9476083
_publ_section_title
;
Structure prediction by ZEFSAII (Michael W. Deem and Ramdas Pophale) SiO2 
 PCOD9476083
Probable space group: C M C M
;
_chemical_formula_sum "Si O2"
_cell_formula_units_Z 48
_cell_length_a 9.000000
_cell_length_b 24.000000
_cell_length_c 24.000000
_cell_angle_alpha 90.000000
_cell_angle_beta 90.000000
_cell_angle_gamma 90.000000
_cell_volume 5184.000000
_symmetry_space_group_name_H-M "C M C M"
_symmetry_group_IT_number 63
_symmetry_cell_setting 'orthorhombic'
loop_
_space_group_symop_operation_xyz
x,y,z
-x,-y,1/2+z
x,-y,-z
-x,y,1/2-z
-x,-y,-z
x,y,1/2-z
-x,y,z
x,-y,1/2+z
1/2+x,1/2+y,z
1/2-x,1/2-y,1/2+z
1/2+x,1/2-y,-z
1/2-x,1/2+y,1/2-z
1/2-x,1/2-y,-z
1/2+x,1/2+y,1/2-z
1/2-x,1/2+y,z
1/2+x,1/2-y,1/2+z
loop_
_atom_site_type_symbol
_atom_site_label
_atom_site_fract_x
_atom_site_fract_y
_atom_site_fract_z
Si Si1 0.680924 0.430786 0.314350
Si Si2 0.172817 0.654173 0.315680
Si Si3 0.679406 0.384510 0.974779
Si Si4 0.178094 0.774274 0.594061
Si Si5 0.180079 0.153628 0.592110
Si Si6 0.180464 0.047708 0.130215
O O1 0.731446 0.430481 0.250000
O O2 0.500000 0.430812 0.313290
O O3 0.725842 0.377395 0.351090
O O4 0.724736 0.487234 0.347057
O O5 0.177727 0.662345 0.250000
O O6 0.262390 0.702016 0.347520
O O7 0.249009 0.595714 0.331589
O O8 0.000000 0.654246 0.333723
O O9 0.500000 0.386214 0.974468
O O10 0.721425 0.324254 0.948556
O O11 0.726056 0.433592 0.932540
O O12 0.724828 0.384340 0.039012
O O13 0.251229 0.714576 0.584007
O O14 0.000000 0.769795 0.593198
O O15 0.000000 0.158594 0.592118
O O16 0.000000 0.050944 0.133141
#
# Coordination Sequence:
#
# PCOD9476083 Si02
#       6
#    16  16  16  16  16  16
#     4   9  18  31  49  74 102 134 169 204 246 297
#     4  10  20  33  51  76 102 129 165 209 256 303
#     4   8  16  30  50  76  99 125 165 212 258 300
#     4  10  20  34  51  73 101 132 170 211 255 306
#     4  10  19  32  50  72 102 137 171 208 250 298
#     4   9  17  32  53  75 100 129 165 208 253 301
#
# _framework density 9.2592590000000001
#
# number of rings (size 3 to 8) (size 9 to 14) (size 15 to 20)
#    0.000    2.667    0.000    3.000    0.000    3.333 
#    0.000    9.167    0.000    1.000    0.000    5.833 
#    0.000    0.000    0.000    0.000    0.000    0.000 
#
# Total GULP energy -267542.975049 kJ/mol
# GULP energy per Si atom -5573.811980 kJ/mol
# Density = 0.923818 g / cm^3
# Si number density = 9.259259 Si / 1000 Ang^3
#
#
#
# Elastic Constant Matrix: (Units=GPa)
#
#
# Indices 1 2 3 4 5 6 
#
# 1 25.5575 6.6783 12.4762 0.0000 0.0000 0.0000
# 2 6.6783 38.2139 24.1086 0.0000 0.0000 0.0000
# 3 12.4762 24.1086 85.2761 0.0000 0.0000 0.0000
# 4 0.0000 0.0000 0.0000 13.9262 0.0000 0.0000
# 5 0.0000 0.0000 0.0000 0.0000 12.9297 0.0000
# 6 0.0000 0.0000 0.0000 0.0000 0.0000 20.4820
#
#
#
# Elastic Compliance Matrix: (Units=1/GPa)
#
#
# Indices 1 2 3 4 5 6 
#
# 1 0.042706 -0.004286 -0.005036 0.000000 0.000000 0.000000
# 2 -0.004286 0.032279 -0.008499 0.000000 0.000000 0.000000
# 3 -0.005036 -0.008499 0.014866 0.000000 0.000000 0.000000
# 4 0.000000 0.000000 0.000000 0.071807 0.000000 0.000000
# 5 0.000000 0.000000 0.000000 0.000000 0.077341 0.000000
# 6 0.000000 0.000000 0.000000 0.000000 0.000000 0.048823
#
#
# Mechanical properties :
#
#
# Convention : Reuss Voigt Hill
#
# Bulk Modulus (GPa) = 18.44702 26.17485 22.31094
# Shear Modulus (GPa) = 14.63981 16.51989 15.57985
#
# Velocity S-wave (km/s) = 2.81472 2.99000 2.90368
# Velocity P-wave (km/s) = 4.53283 5.10737 4.82865
#
# Compressibility (1/GPa) = 0.05420930
#
# Stress axis : x y z
#
# Youngs Moduli (GPa) = 23.41599 30.97971 67.26693
#
# Poissons Ratio (x) = 0.13278 0.33878
# Poissons Ratio (y) = 0.10036 0.57168
# Poissons Ratio (z) = 0.11793 0.26329
#
# Static dielectric constant tensor:
#      x y z
#    x 1.617480 0.000000 0.000000 
#    y 0.000000 1.623800 0.000000 
#    z 0.000000 0.000000 1.672070 
# 
# From -- ./inp_files/59934.got.cif
#   From: 2010.05.17/outbox.ucp.g08.bks.cvg/sg63_30_cif.got.tgz:59934.got - 2010.06.11 16:32:19.
