data_PCOD9476474
_publ_section_title
;
Structure prediction by ZEFSAII (Michael W. Deem and Ramdas Pophale) SiO2 
 PCOD9476474
Probable space group: C M C A
;
_chemical_formula_sum "Si O2"
_cell_formula_units_Z 104
_cell_length_a 14.484149
_cell_length_b 21.084366
_cell_length_c 14.660853
_cell_angle_alpha 90.000000
_cell_angle_beta 90.000000
_cell_angle_gamma 90.000000
_cell_volume 4477.264684
_symmetry_space_group_name_H-M "C M C A"
_symmetry_group_IT_number 64
_symmetry_cell_setting 'orthorhombic'
loop_
_space_group_symop_operation_xyz
x,y,z
-x,1/2-y,1/2+z
x,-y,-z
-x,1/2+y,1/2-z
-x,-y,-z
x,1/2+y,1/2-z
-x,y,z
x,1/2-y,1/2+z
1/2+x,1/2+y,z
1/2-x,-y,1/2+z
1/2+x,1/2-y,-z
1/2-x,y,1/2-z
1/2-x,1/2-y,-z
1/2+x,y,1/2-z
1/2-x,1/2+y,z
1/2+x,-y,1/2+z
loop_
_atom_site_type_symbol
_atom_site_label
_atom_site_fract_x
_atom_site_fract_y
_atom_site_fract_z
Si Si1 0.604854 0.114232 0.587656
Si Si2 0.104911 0.315114 0.124298
Si Si3 0.655571 0.258836 0.555632
Si Si4 0.346903 0.000000 0.500000
Si Si5 0.613146 0.303188 0.754421
Si Si6 0.893199 0.063577 0.707575
Si Si7 0.390926 0.056490 0.301251
O O1 0.500000 0.096055 0.555117
O O2 0.617133 0.188126 0.570568
O O3 0.679062 0.070395 0.535965
O O4 0.607542 0.098430 0.694281
O O5 0.143266 0.255423 0.181101
O O6 0.150967 0.383003 0.143575
O O7 0.000000 0.321444 0.158903
O O8 0.100433 0.299003 0.018641
O O9 0.750000 0.250000 0.500000
O O10 0.651760 0.292140 0.653346
O O11 0.384105 0.975182 0.599027
O O12 0.500000 0.302099 0.750621
O O13 0.642960 0.371501 0.793879
O O14 0.000000 0.052677 0.678640
O O15 0.852269 0.993964 0.726824
O O16 0.500000 0.060385 0.282482
#
# Coordination Sequence:
#
# PCOD9476474 Si02
#       7
#    16  16  16   8  16  16  16
#     4  10  17  32  56  84 115 144 185 249 304 352
#     4  10  19  35  60  83 106 145 196 243 295 353
#     4  12  25  37  54  82 119 164 201 242 296 364
#     4  10  17  28  58  98 120 140 187 254 325 372
#     4  10  20  37  59  88 119 151 199 258 310 357
#     4   8  15  29  52  82 110 137 176 232 293 344
#     4   9  16  27  50  86 122 144 176 240 308 357
#
# _framework density 23.228467999999999
#
# number of rings (size 3 to 8) (size 9 to 14) (size 15 to 20)
#    0.000    2.154    1.538    4.615    0.000    1.846 
#    0.000    0.769    3.385    3.692    0.000    0.000 
#    0.000    0.000    0.000    0.000    0.000    0.000 
#
# Total GULP energy -289622.754083 kJ/mol
# GULP energy per Si atom -5569.668348 kJ/mol
# Density = 2.317560 g / cm^3
# Si number density = 23.228468 Si / 1000 Ang^3
#
#
#
# Elastic Constant Matrix: (Units=GPa)
#
#
# Indices 1 2 3 4 5 6 
#
# 1 59.7848 18.9111 6.0709 0.0000 0.0000 0.0000
# 2 18.9111 133.9444 37.3676 0.0000 0.0000 0.0000
# 3 6.0709 37.3676 90.5031 0.0000 0.0000 0.0000
# 4 0.0000 0.0000 0.0000 44.2239 0.0000 0.0000
# 5 0.0000 0.0000 0.0000 0.0000 15.3568 0.0000
# 6 0.0000 0.0000 0.0000 0.0000 0.0000 -16.3173
#
#
#
# Elastic Compliance Matrix: (Units=1/GPa)
#
#
# Indices 1 2 3 4 5 6 
#
# 1 0.017511 -0.002424 -0.000174 0.000000 0.000000 0.000000
# 2 -0.002424 0.008773 -0.003460 0.000000 0.000000 0.000000
# 3 -0.000174 -0.003460 0.012489 0.000000 0.000000 0.000000
# 4 0.000000 0.000000 0.000000 0.022612 0.000000 0.000000
# 5 0.000000 0.000000 0.000000 0.000000 0.065118 0.000000
# 6 0.000000 0.000000 0.000000 0.000000 0.000000 -0.061285
#
#
# Mechanical properties :
#
#
# Convention : Reuss Voigt Hill
#
# Bulk Modulus (GPa) = 37.51101 45.43683 41.47392
# Shear Modulus (GPa) = 57.99091 23.44485 40.71788
#
# Velocity S-wave (km/s) = 5.00196 3.18042 4.19134
# Velocity P-wave (km/s) = 7.03870 5.75240 6.42781
#
# Compressibility (1/GPa) = 0.02665884
#
# Stress axis : x y z
#
# Youngs Moduli (GPa) = 57.10692 113.98364 80.06729
#
# Poissons Ratio (x) = 0.27628 0.01392
# Poissons Ratio (y) = 0.13842 0.27701
# Poissons Ratio (z) = 0.00993 0.39435
#
# Static dielectric constant tensor:
#      x y z
#    x 1.850970 0.000000 0.000000 
#    y 0.000000 1.920400 0.000000 
#    z 0.000000 0.000000 1.822150 
# 
# From -- ./inp_files/25638.got.cif
#   From: 2010.05.17/outbox.cif.g08.bks.cpg/sg64_13_cif.got.tgz:25638.got - 2010.06.03 16:29:19.
