data_PCOD9476154
_publ_section_title
;
Structure prediction by ZEFSAII (Michael W. Deem and Ramdas Pophale) SiO2 
 PCOD9476154
Probable space group: C M C M
;
_chemical_formula_sum "Si O2"
_cell_formula_units_Z 34
_cell_length_a 21.000000
_cell_length_b 9.000000
_cell_length_c 18.000000
_cell_angle_alpha 90.000000
_cell_angle_beta 90.000000
_cell_angle_gamma 90.000000
_cell_volume 3402.000000
_symmetry_space_group_name_H-M "C M C M"
_symmetry_group_IT_number 63
_symmetry_cell_setting 'orthorhombic'
loop_
_space_group_symop_operation_xyz
x,y,z
-x,-y,1/2+z
x,-y,-z
-x,y,1/2-z
-x,-y,-z
x,y,1/2-z
-x,y,z
x,-y,1/2+z
1/2+x,1/2+y,z
1/2-x,1/2-y,1/2+z
1/2+x,1/2-y,-z
1/2-x,1/2+y,1/2-z
1/2-x,1/2-y,-z
1/2+x,1/2+y,1/2-z
1/2-x,1/2+y,z
1/2+x,1/2-y,1/2+z
loop_
_atom_site_type_symbol
_atom_site_label
_atom_site_fract_x
_atom_site_fract_y
_atom_site_fract_z
Si Si1 0.267462 0.871148 0.662407
Si Si2 0.395782 0.958741 0.118780
Si Si3 0.500000 0.083070 0.750000
Si Si4 0.309751 0.578939 0.574787
Si Si5 0.574139 0.758699 0.517276
O O1 0.267632 0.831416 0.750000
O O2 0.326254 0.986035 0.646592
O O3 0.278571 0.729321 0.608551
O O4 0.203238 0.956195 0.637960
O O5 0.443798 0.922455 0.185037
O O6 0.422612 0.101932 0.073871
O O7 0.396001 0.823613 0.059303
O O8 0.281841 0.500000 0.500000
O O9 0.380745 0.631580 0.552064
O O10 0.500000 0.717214 0.506646
#
# Coordination Sequence:
#
# PCOD9476154 Si02
#       5
#    16  16   4  16  16
#     4  11  24  42  64  98 130 169 216 280 340 384
#     4  10  20  33  64  96 129 168 218 273 322 389
#     4  12  16  34  60 100 130 166 226 268 330 382
#     4  11  26  42  67  94 128 174 223 268 323 399
#     4  10  20  39  61  93 132 172 217 268 322 389
#
# _framework density 9.9941209999999998
#
# number of rings (size 3 to 8) (size 9 to 14) (size 15 to 20)
#    0.000    1.412    3.529    2.118    9.882    0.471 
#    0.000    0.000    2.588    0.000    0.000    1.647 
#    0.000    0.000    0.000    0.000    0.000    0.000 
#
# Total GULP energy -189357.218769 kJ/mol
# GULP energy per Si atom -5569.329964 kJ/mol
# Density = 0.997137 g / cm^3
# Si number density = 9.994121 Si / 1000 Ang^3
#
#
#
# Elastic Constant Matrix: (Units=GPa)
#
#
# Indices 1 2 3 4 5 6 
#
# 1 80.3227 60.7365 49.3658 0.0000 0.0000 0.0000
# 2 60.7365 65.0144 23.4905 0.0000 0.0000 0.0000
# 3 49.3658 23.4905 139.1288 0.0000 0.0000 0.0000
# 4 0.0000 0.0000 0.0000 26.4468 0.0000 0.0000
# 5 0.0000 0.0000 0.0000 0.0000 36.5596 0.0000
# 6 0.0000 0.0000 0.0000 0.0000 0.0000 26.5651
#
#
#
# Elastic Compliance Matrix: (Units=1/GPa)
#
#
# Indices 1 2 3 4 5 6 
#
# 1 0.056094 -0.048149 -0.011774 0.000000 0.000000 0.000000
# 2 -0.048149 0.057710 0.007341 0.000000 0.000000 0.000000
# 3 -0.011774 0.007341 0.010126 0.000000 0.000000 0.000000
# 4 0.000000 0.000000 0.000000 0.037812 0.000000 0.000000
# 5 0.000000 0.000000 0.000000 0.000000 0.027353 0.000000
# 6 0.000000 0.000000 0.000000 0.000000 0.000000 0.037643
#
#
# Mechanical properties :
#
#
# Convention : Reuss Voigt Hill
#
# Bulk Modulus (GPa) = 53.29064 61.29461 57.29262
# Shear Modulus (GPa) = 14.78598 27.97252 21.37925
#
# Velocity S-wave (km/s) = 2.72276 3.74498 3.27401
# Velocity P-wave (km/s) = 6.05007 7.03077 6.55878
#
# Compressibility (1/GPa) = 0.01876502
#
# Stress axis : x y z
#
# Youngs Moduli (GPa) = 17.82712 17.32799 98.75745
#
# Poissons Ratio (x) = 0.83433 1.16276
# Poissons Ratio (y) = 0.85836 -0.72494
# Poissons Ratio (z) = 0.20989 -0.12720
#
# Static dielectric constant tensor:
#      x y z
#    x 1.717620 0.000000 0.000000 
#    y 0.000000 1.728940 0.000000 
#    z 0.000000 0.000000 1.700770 
# 
# From -- ./inp_files/46633.got.cif
#   From: 2010.05.17/outbox.ucp.g08.bks.cvg/sg63_24_cif.got.tgz:46633.got - 2010.06.11 16:32:19.
