data_PCOD9476617
_publ_section_title
;
Structure prediction by ZEFSAII (Michael W. Deem and Ramdas Pophale) SiO2 
 PCOD9476617
Probable space group: C M C A
;
_chemical_formula_sum "Si O2"
_cell_formula_units_Z 96
_cell_length_a 16.823515
_cell_length_b 32.526084
_cell_length_c 7.650598
_cell_angle_alpha 90.000000
_cell_angle_beta 90.000000
_cell_angle_gamma 90.000000
_cell_volume 4186.430652
_symmetry_space_group_name_H-M "C M C A"
_symmetry_group_IT_number 64
_symmetry_cell_setting 'orthorhombic'
loop_
_space_group_symop_operation_xyz
x,y,z
-x,1/2-y,1/2+z
x,-y,-z
-x,1/2+y,1/2-z
-x,-y,-z
x,1/2+y,1/2-z
-x,y,z
x,1/2-y,1/2+z
1/2+x,1/2+y,z
1/2-x,-y,1/2+z
1/2+x,1/2-y,-z
1/2-x,y,1/2-z
1/2-x,1/2-y,-z
1/2+x,y,1/2-z
1/2-x,1/2+y,z
1/2+x,-y,1/2+z
loop_
_atom_site_type_symbol
_atom_site_label
_atom_site_fract_x
_atom_site_fract_y
_atom_site_fract_z
Si Si1 0.152569 0.842825 0.962610
Si Si2 0.084591 0.988906 0.729214
Si Si3 0.336364 0.346269 0.538117
Si Si4 0.500000 0.707976 0.068231
Si Si5 0.872673 0.436768 0.430047
Si Si6 0.291104 0.565912 0.436163
Si Si7 0.500000 0.303515 0.514118
O O1 0.245197 0.833063 0.013876
O O2 0.156234 0.843600 0.749953
O O3 0.081631 0.811364 0.008746
O O4 0.125948 0.887683 0.038316
O O5 0.153529 0.970333 0.617102
O O6 0.000000 0.978837 0.652644
O O7 0.092553 0.037114 0.771219
O O8 0.090519 0.961001 0.905036
O O9 0.336497 0.394489 0.493139
O O10 0.415393 0.324561 0.463211
O O11 0.500000 0.697231 0.274134
O O12 0.500000 0.756721 0.048633
O O13 0.779425 0.446638 0.438761
O O14 0.250000 0.579176 0.250000
#
# Coordination Sequence:
#
# PCOD9476617 Si02
#       7
#    16  16  16   8  16  16   8
#     4   9  16  29  51  73 106 133 177 210 270 322
#     4  10  18  23  42  78 108 126 169 224 268 303
#     4   9  15  30  49  75 104 133 172 221 266 328
#     4  10  22  34  54  84 103 143 171 225 280 336
#     4   9  16  27  41  72 103 136 165 216 265 313
#     4   9  15  28  44  70 106 133 170 218 268 301
#     4  10  22  34  54  83 106 135 176 226 288 326
#
# _framework density 22.931228000000001
#
# number of rings (size 3 to 8) (size 9 to 14) (size 15 to 20)
#    0.000    2.667    5.000    1.000    3.500    0.667 
#    0.000    0.000    0.000    0.000   47.667   22.167 
#    0.000    0.000    0.000    0.000    0.000    0.000 
#
# Total GULP energy -267764.015266 kJ/mol
# GULP energy per Si atom -5578.416985 kJ/mol
# Density = 2.287904 g / cm^3
# Si number density = 22.931228 Si / 1000 Ang^3
#
#
#
# Elastic Constant Matrix: (Units=GPa)
#
#
# Indices 1 2 3 4 5 6 
#
# 1 168.5401 100.7941 8.6080 0.0000 0.0000 0.0000
# 2 100.7941 118.9808 0.6366 0.0000 0.0000 0.0000
# 3 8.6080 0.6366 37.8738 0.0000 0.0000 0.0000
# 4 0.0000 0.0000 0.0000 21.8445 0.0000 0.0000
# 5 0.0000 0.0000 0.0000 0.0000 287.8160 0.0000
# 6 0.0000 0.0000 0.0000 0.0000 0.0000 47.8620
#
#
#
# Elastic Compliance Matrix: (Units=1/GPa)
#
#
# Indices 1 2 3 4 5 6 
#
# 1 0.012280 -0.010389 -0.002616 0.000000 0.000000 0.000000
# 2 -0.010389 0.017195 0.002072 0.000000 0.000000 0.000000
# 3 -0.002616 0.002072 0.026963 0.000000 0.000000 0.000000
# 4 0.000000 0.000000 0.000000 0.045778 0.000000 0.000000
# 5 0.000000 0.000000 0.000000 0.000000 0.003474 0.000000
# 6 0.000000 0.000000 0.000000 0.000000 0.000000 0.020893
#
#
# Mechanical properties :
#
#
# Convention : Reuss Voigt Hill
#
# Bulk Modulus (GPa) = 28.92549 60.60803 44.76676
# Shear Modulus (GPa) = 31.25512 85.86157 58.55834
#
# Velocity S-wave (km/s) = 3.69588 6.12571 5.05885
# Velocity P-wave (km/s) = 5.55465 8.74758 7.32715
#
# Compressibility (1/GPa) = 0.03457158
#
# Stress axis : x y z
#
# Youngs Moduli (GPa) = 81.43371 58.15802 37.08746
#
# Poissons Ratio (x) = 0.60420 0.09703
# Poissons Ratio (y) = 0.84601 -0.07685
# Poissons Ratio (z) = 0.21306 -0.12051
#
# Static dielectric constant tensor:
#      x y z
#    x 1.877580 0.000000 0.000000 
#    y 0.000000 1.810830 0.000000 
#    z 0.000000 0.000000 2.018420 
# 
# From -- ./inp_files/16359.got.cif
#   From: 2010.05.17/outbox.cif.g08.bks.cpg/sg64_9_cif.got.tgz:16359.got - 2010.06.03 16:29:19.
