data_PCOD9476475
_publ_section_title
;
Structure prediction by ZEFSAII (Michael W. Deem and Ramdas Pophale) SiO2 
 PCOD9476475
Probable space group: C M C A
;
_chemical_formula_sum "Si O2"
_cell_formula_units_Z 80
_cell_length_a 18.636333
_cell_length_b 32.630521
_cell_length_c 5.588453
_cell_angle_alpha 90.000000
_cell_angle_beta 90.000000
_cell_angle_gamma 90.000000
_cell_volume 3398.412346
_symmetry_space_group_name_H-M "C M C A"
_symmetry_group_IT_number 64
_symmetry_cell_setting 'orthorhombic'
loop_
_space_group_symop_operation_xyz
x,y,z
-x,1/2-y,1/2+z
x,-y,-z
-x,1/2+y,1/2-z
-x,-y,-z
x,1/2+y,1/2-z
-x,y,z
x,1/2-y,1/2+z
1/2+x,1/2+y,z
1/2-x,-y,1/2+z
1/2+x,1/2-y,-z
1/2-x,y,1/2-z
1/2-x,1/2-y,-z
1/2+x,y,1/2-z
1/2-x,1/2+y,z
1/2+x,-y,1/2+z
loop_
_atom_site_type_symbol
_atom_site_label
_atom_site_fract_x
_atom_site_fract_y
_atom_site_fract_z
Si Si1 0.000000 0.670125 0.887075
Si Si2 0.357723 0.112987 0.850007
Si Si3 0.343544 0.859771 0.648457
Si Si4 0.413567 0.977198 0.251335
Si Si5 0.332075 0.735849 0.246776
Si Si6 0.000000 0.333244 0.612432
O O1 0.929023 0.641483 0.881674
O O2 0.000000 0.691943 0.631988
O O3 0.000000 0.691832 0.142383
O O4 0.317110 0.130467 0.617338
O O5 0.379283 0.067416 0.774914
O O6 0.323621 0.114722 0.115706
O O7 0.328874 0.812604 0.710221
O O8 0.430126 0.861802 0.618314
O O9 0.500000 0.972901 0.262523
O O10 0.391844 0.000000 0.500000
O O11 0.396990 0.000000 0.000000
O O12 0.365008 0.745827 0.504683
O O13 0.250000 0.752832 0.250000
#
# Coordination Sequence:
#
# PCOD9476475 Si02
#       6
#     8  16  16  16  16   8
#     4   8  14  24  38  58  88 124 156 192 228 276
#     4  10  17  29  45  67  98 130 172 204 239 289
#     4  10  19  31  51  73  96 131 170 201 244 296
#     4  10  19  28  41  65 100 139 175 207 242 288
#     4  10  21  38  57  76 101 128 157 204 263 307
#     4   8  16  26  42  66  92 122 154 192 230 278
#
# _framework density 23.540406000000001
#
# number of rings (size 3 to 8) (size 9 to 14) (size 15 to 20)
#    0.000    2.400    1.000    2.400    0.000    0.000 
#    0.000    1.000    0.000    0.000    0.000    0.000 
#    0.000   16.000    0.000    0.000    0.000    0.000 
#
# Total GULP energy -223180.460640 kJ/mol
# GULP energy per Si atom -5579.511516 kJ/mol
# Density = 2.348683 g / cm^3
# Si number density = 23.540406 Si / 1000 Ang^3
#
#
#
# Elastic Constant Matrix: (Units=GPa)
#
#
# Indices 1 2 3 4 5 6 
#
# 1 67.8273 -7.2985 24.9685 0.0000 0.0000 0.0000
# 2 -7.2985 99.4250 62.1382 0.0000 0.0000 0.0000
# 3 24.9685 62.1382 321.1992 0.0000 0.0000 0.0000
# 4 0.0000 0.0000 0.0000 45.7639 0.0000 0.0000
# 5 0.0000 0.0000 0.0000 0.0000 23.4282 0.0000
# 6 0.0000 0.0000 0.0000 0.0000 0.0000 370.1688
#
#
#
# Elastic Compliance Matrix: (Units=1/GPa)
#
#
# Indices 1 2 3 4 5 6 
#
# 1 0.015576 0.002161 -0.001629 0.000000 0.000000 0.000000
# 2 0.002161 0.011741 -0.002439 0.000000 0.000000 0.000000
# 3 -0.001629 -0.002439 0.003712 0.000000 0.000000 0.000000
# 4 0.000000 0.000000 0.000000 0.021851 0.000000 0.000000
# 5 0.000000 0.000000 0.000000 0.000000 0.042684 0.000000
# 6 0.000000 0.000000 0.000000 0.000000 0.000000 0.002701
#
#
# Mechanical properties :
#
#
# Convention : Reuss Voigt Hill
#
# Bulk Modulus (GPa) = 36.74498 72.00755 54.37626
# Shear Modulus (GPa) = 44.98421 115.11508 80.04965
#
# Velocity S-wave (km/s) = 4.37617 7.00052 5.83773
# Velocity P-wave (km/s) = 6.41698 9.79787 8.28179
#
# Compressibility (1/GPa) = 0.02721460
#
# Stress axis : x y z
#
# Youngs Moduli (GPa) = 64.20325 85.17123 269.40569
#
# Poissons Ratio (x) = -0.18409 0.43883
# Poissons Ratio (y) = -0.13877 0.65719
# Poissons Ratio (z) = 0.10458 0.20777
#
# Static dielectric constant tensor:
#      x y z
#    x 1.968730 0.000000 0.000000 
#    y 0.000000 1.801500 0.000000 
#    z 0.000000 0.000000 2.018910 
# 
# From -- ./inp_files/2382.got.cif
#   From: 2010.05.17/outbox.cif.g08.bks.cpg/sg64_2_cif.got.tgz:2382.got - 2010.06.03 16:29:19.
