data_PCOD9476213
_publ_section_title
;
Structure prediction by ZEFSAII (Michael W. Deem and Ramdas Pophale) SiO2 
 PCOD9476213
Probable space group: C M C M
;
_chemical_formula_sum "Si O2"
_cell_formula_units_Z 48
_cell_length_a 21.000000
_cell_length_b 27.000000
_cell_length_c 9.000000
_cell_angle_alpha 90.000000
_cell_angle_beta 90.000000
_cell_angle_gamma 90.000000
_cell_volume 5103.000000
_symmetry_space_group_name_H-M "C M C M"
_symmetry_group_IT_number 63
_symmetry_cell_setting 'orthorhombic'
loop_
_space_group_symop_operation_xyz
x,y,z
-x,-y,1/2+z
x,-y,-z
-x,y,1/2-z
-x,-y,-z
x,y,1/2-z
-x,y,z
x,-y,1/2+z
1/2+x,1/2+y,z
1/2-x,1/2-y,1/2+z
1/2+x,1/2-y,-z
1/2-x,1/2+y,1/2-z
1/2-x,1/2-y,-z
1/2+x,1/2+y,1/2-z
1/2-x,1/2+y,z
1/2+x,1/2-y,1/2+z
loop_
_atom_site_type_symbol
_atom_site_label
_atom_site_fract_x
_atom_site_fract_y
_atom_site_fract_z
Si Si1 0.699420 0.551129 0.427517
Si Si2 0.806354 0.616083 0.570958
Si Si3 0.427402 0.696244 0.073252
Si Si4 0.070149 0.446128 0.071474
Si Si5 0.185644 0.730753 0.927993
Si Si6 0.926951 0.911088 0.427295
O O1 0.723397 0.500000 0.500000
O O2 0.700859 0.548700 0.250000
O O3 0.744805 0.594608 0.488205
O O4 0.627812 0.559861 0.486150
O O5 0.796818 0.611375 0.750000
O O6 0.869150 0.585717 0.526769
O O7 0.819570 0.673064 0.535535
O O8 0.418990 0.684954 0.250000
O O9 0.500000 0.714537 0.055010
O O10 0.375002 0.736289 0.027549
O O11 0.420853 0.645862 0.980546
O O12 0.072112 0.450612 0.250000
O O13 0.000000 0.425181 0.032272
O O14 0.074715 0.500000 0.000000
O O15 0.190473 0.734762 0.750000
O O16 0.250000 0.750000 0.000000
O O17 0.917197 0.915057 0.250000
O O18 0.000000 0.926594 0.460753
#
# Coordination Sequence:
#
# PCOD9476213 Si02
#       6
#    16  16  16  16  16  16
#     4  12  25  40  59  82 110 144 183 227 276 330
#     4  10  21  37  56  80 111 146 186 230 274 323
#     4   9  18  34  56  82 112 147 187 227 269 321
#     4   9  18  33  54  79 107 140 177 218 266 319
#     4  10  21  35  53  78 108 143 181 224 271 318
#     4  10  21  38  60  85 113 145 181 223 273 327
#
# _framework density 9.4062319999999993
#
# number of rings (size 3 to 8) (size 9 to 14) (size 15 to 20)
#    0.000    2.000    0.000    3.500    0.000    8.000 
#    0.000    3.333    0.000    0.000    0.000    7.000 
#    0.000    0.000    0.000    0.000    0.000    0.000 
#
# Total GULP energy -268036.191771 kJ/mol
# GULP energy per Si atom -5584.087329 kJ/mol
# Density = 0.938482 g / cm^3
# Si number density = 9.406232 Si / 1000 Ang^3
#
#
#
# Elastic Constant Matrix: (Units=GPa)
#
#
# Indices 1 2 3 4 5 6 
#
# 1 95.6417 28.9662 27.5722 0.0000 0.0000 0.0000
# 2 28.9662 49.2103 13.6248 0.0000 0.0000 0.0000
# 3 27.5722 13.6248 44.0452 0.0000 0.0000 0.0000
# 4 0.0000 0.0000 0.0000 22.6985 0.0000 0.0000
# 5 0.0000 0.0000 0.0000 0.0000 21.1394 0.0000
# 6 0.0000 0.0000 0.0000 0.0000 0.0000 38.0358
#
#
#
# Elastic Compliance Matrix: (Units=1/GPa)
#
#
# Indices 1 2 3 4 5 6 
#
# 1 0.014472 -0.006573 -0.007026 0.000000 0.000000 0.000000
# 2 -0.006573 0.025210 -0.003684 0.000000 0.000000 0.000000
# 3 -0.007026 -0.003684 0.028242 0.000000 0.000000 0.000000
# 4 0.000000 0.000000 0.000000 0.044056 0.000000 0.000000
# 5 0.000000 0.000000 0.000000 0.000000 0.047305 0.000000
# 6 0.000000 0.000000 0.000000 0.000000 0.000000 0.026291
#
#
# Mechanical properties :
#
#
# Convention : Reuss Voigt Hill
#
# Bulk Modulus (GPa) = 29.97786 36.58039 33.27913
# Shear Modulus (GPa) = 21.62065 24.29035 22.95550
#
# Velocity S-wave (km/s) = 3.39377 3.59720 3.49697
# Velocity P-wave (km/s) = 5.59702 6.06136 5.83381
#
# Compressibility (1/GPa) = 0.03335795
#
# Stress axis : x y z
#
# Youngs Moduli (GPa) = 69.09904 39.66688 35.40864
#
# Poissons Ratio (x) = 0.26074 0.24878
# Poissons Ratio (y) = 0.45420 0.13043
# Poissons Ratio (z) = 0.48550 0.14611
#
# Static dielectric constant tensor:
#      x y z
#    x 1.673770 0.000000 0.000000 
#    y 0.000000 1.643080 0.000000 
#    z 0.000000 0.000000 1.623510 
# 
# From -- ./inp_files/8544.got.cif
#   From: 2010.05.17/outbox.ucp.g08.bks.cvg/sg63_5_cif.got.tgz:8544.got - 2010.06.11 16:32:19.
