data_PCOD9476966
_publ_section_title
;
Structure prediction by ZEFSAII (Michael W. Deem and Ramdas Pophale) SiO2 
 PCOD9476966
Probable space group: C M C A
;
_chemical_formula_sum "Si O2"
_cell_formula_units_Z 80
_cell_length_a 22.883129
_cell_length_b 11.350961
_cell_length_c 16.100702
_cell_angle_alpha 90.000000
_cell_angle_beta 90.000000
_cell_angle_gamma 90.000000
_cell_volume 4182.084969
_symmetry_space_group_name_H-M "C M C A"
_symmetry_group_IT_number 64
_symmetry_cell_setting 'orthorhombic'
loop_
_space_group_symop_operation_xyz
x,y,z
-x,1/2-y,1/2+z
x,-y,-z
-x,1/2+y,1/2-z
-x,-y,-z
x,1/2+y,1/2-z
-x,y,z
x,1/2-y,1/2+z
1/2+x,1/2+y,z
1/2-x,-y,1/2+z
1/2+x,1/2-y,-z
1/2-x,y,1/2-z
1/2-x,1/2-y,-z
1/2+x,y,1/2-z
1/2-x,1/2+y,z
1/2+x,-y,1/2+z
loop_
_atom_site_type_symbol
_atom_site_label
_atom_site_fract_x
_atom_site_fract_y
_atom_site_fract_z
Si Si1 0.838248 0.744813 0.462473
Si Si2 0.655877 0.082471 0.706209
Si Si3 0.067217 0.381109 0.445282
Si Si4 0.255957 0.096563 0.569041
Si Si5 0.817304 0.165893 0.220124
O O1 0.901777 0.719715 0.498718
O O2 0.811812 0.869986 0.435845
O O3 0.796478 0.705180 0.538791
O O4 0.825604 0.668095 0.379989
O O5 0.605568 0.093466 0.636390
O O6 0.718715 0.070262 0.658836
O O7 0.656525 0.208125 0.751704
O O8 0.652159 0.955192 0.751205
O O9 0.070050 0.500000 0.500000
O O10 0.000000 0.354650 0.426373
O O11 0.268178 0.000000 0.500000
O O12 0.750000 0.167189 0.250000
#
# Coordination Sequence:
#
# PCOD9476966 Si02
#       5
#    16  16  16  16  16
#     4  10  19  34  55  86 108 146 193 241 282 336
#     4  11  22  36  56  88 122 153 189 230 291 350
#     4  10  20  40  65  79 100 150 214 252 269 324
#     4  10  18  33  56  79 114 150 192 234 276 346
#     4  12  22  35  53  89 128 153 175 228 302 361
#
# _framework density 19.129214000000001
#
# number of rings (size 3 to 8) (size 9 to 14) (size 15 to 20)
#    0.000    1.400    6.000    1.800    0.000    0.000 
#    0.000    2.000    0.000    0.600    0.000    0.000 
#    0.000    0.000    0.000    0.000    0.000    0.000 
#
# Total GULP energy -222718.336176 kJ/mol
# GULP energy per Si atom -5567.958404 kJ/mol
# Density = 1.908568 g / cm^3
# Si number density = 19.129214 Si / 1000 Ang^3
#
#
#
# Elastic Constant Matrix: (Units=GPa)
#
#
# Indices 1 2 3 4 5 6 
#
# 1 94.6043 20.7171 22.9040 0.0000 0.0000 0.0000
# 2 20.7171 94.5477 29.6057 0.0000 0.0000 0.0000
# 3 22.9040 29.6057 57.3467 0.0000 0.0000 0.0000
# 4 0.0000 0.0000 0.0000 25.3748 0.0000 0.0000
# 5 0.0000 0.0000 0.0000 0.0000 13.2707 0.0000
# 6 0.0000 0.0000 0.0000 0.0000 0.0000 19.0756
#
#
#
# Elastic Compliance Matrix: (Units=1/GPa)
#
#
# Indices 1 2 3 4 5 6 
#
# 1 0.011840 -0.001328 -0.004043 0.000000 0.000000 0.000000
# 2 -0.001328 0.012765 -0.006060 0.000000 0.000000 0.000000
# 3 -0.004043 -0.006060 0.022181 0.000000 0.000000 0.000000
# 4 0.000000 0.000000 0.000000 0.039409 0.000000 0.000000
# 5 0.000000 0.000000 0.000000 0.000000 0.075354 0.000000
# 6 0.000000 0.000000 0.000000 0.000000 0.000000 0.052423
#
#
# Mechanical properties :
#
#
# Convention : Reuss Voigt Hill
#
# Bulk Modulus (GPa) = 41.79890 43.66137 42.73013
# Shear Modulus (GPa) = 20.42406 23.09568 21.75987
#
# Velocity S-wave (km/s) = 3.27110 3.47847 3.37637
# Velocity P-wave (km/s) = 6.01374 6.24555 6.13074
#
# Compressibility (1/GPa) = 0.02392408
#
# Stress axis : x y z
#
# Youngs Moduli (GPa) = 84.45879 78.33819 45.08380
#
# Poissons Ratio (x) = 0.10406 0.18228
# Poissons Ratio (y) = 0.11219 0.27319
# Poissons Ratio (z) = 0.34148 0.47470
#
# Static dielectric constant tensor:
#      x y z
#    x 1.665550 0.000000 0.000000 
#    y 0.000000 1.778690 0.000000 
#    z 0.000000 0.000000 1.728810 
# 
# From -- ./inp_files/27066.got.cif
#   From: 2010.05.17/outbox.cif.g08.bks.cpg/sg64_14_cif.got.tgz:27066.got - 2010.06.03 16:29:19.
