data_PCOD9476727
_publ_section_title
;
Structure prediction by ZEFSAII (Michael W. Deem and Ramdas Pophale) SiO2 
 PCOD9476727
Probable space group: C M C A
;
_chemical_formula_sum "Si O2"
_cell_formula_units_Z 96
_cell_length_a 23.643910
_cell_length_b 8.145021
_cell_length_c 23.180186
_cell_angle_alpha 90.000000
_cell_angle_beta 90.000000
_cell_angle_gamma 90.000000
_cell_volume 4464.043546
_symmetry_space_group_name_H-M "C M C A"
_symmetry_group_IT_number 64
_symmetry_cell_setting 'orthorhombic'
loop_
_space_group_symop_operation_xyz
x,y,z
-x,1/2-y,1/2+z
x,-y,-z
-x,1/2+y,1/2-z
-x,-y,-z
x,1/2+y,1/2-z
-x,y,z
x,1/2-y,1/2+z
1/2+x,1/2+y,z
1/2-x,-y,1/2+z
1/2+x,1/2-y,-z
1/2-x,y,1/2-z
1/2-x,1/2-y,-z
1/2+x,y,1/2-z
1/2-x,1/2+y,z
1/2+x,-y,1/2+z
loop_
_atom_site_type_symbol
_atom_site_label
_atom_site_fract_x
_atom_site_fract_y
_atom_site_fract_z
Si Si1 0.334110 0.943098 0.936244
Si Si2 0.431705 0.246975 0.340311
Si Si3 0.564136 0.788555 0.870244
Si Si4 0.223799 0.412559 0.437648
Si Si5 0.893353 0.469638 0.568848
Si Si6 0.067704 0.435028 0.265616
O O1 0.388587 0.902615 0.898477
O O2 0.299146 0.771676 0.942060
O O3 0.286487 0.068242 0.912246
O O4 0.351784 0.000000 0.000000
O O5 0.500000 0.249294 0.341382
O O6 0.412795 0.396568 0.299244
O O7 0.412676 0.204441 0.405270
O O8 0.411603 0.087958 0.303047
O O9 0.500000 0.852819 0.873772
O O10 0.568404 0.616160 0.905702
O O11 0.576095 0.726783 0.805373
O O12 0.228720 0.500000 0.500000
O O13 0.170922 0.504520 0.409175
O O14 0.893698 0.500000 0.500000
O O15 0.000000 0.457631 0.262196
#
# Coordination Sequence:
#
# PCOD9476727 Si02
#       6
#    16  16  16  16  16  16
#     4  10  18  30  49  69  93 127 165 202 239 285
#     4   9  16  28  47  68  93 125 161 201 240 284
#     4   9  18  31  47  69 100 132 157 195 252 300
#     4   9  17  30  47  68  93 124 164 202 238 283
#     4   9  17  29  48  73 100 130 162 201 247 294
#     4   8  15  29  46  65  90 123 162 196 233 285
#
# _framework density 21.505165000000002
#
# number of rings (size 3 to 8) (size 9 to 14) (size 15 to 20)
#    0.000    3.000    0.000    3.500    0.000    1.667 
#    0.000    6.667    0.000    3.000    0.000    8.167 
#    0.000    0.667    0.000    0.000    0.000    0.000 
#
# Total GULP energy -267547.124935 kJ/mol
# GULP energy per Si atom -5573.898436 kJ/mol
# Density = 2.145622 g / cm^3
# Si number density = 21.505165 Si / 1000 Ang^3
#
#
#
# Elastic Constant Matrix: (Units=GPa)
#
#
# Indices 1 2 3 4 5 6 
#
# 1 103.1683 17.0835 28.0268 0.0000 0.0000 0.0000
# 2 17.0835 69.2154 20.1093 0.0000 0.0000 0.0000
# 3 28.0268 20.1093 92.3937 0.0000 0.0000 0.0000
# 4 0.0000 0.0000 0.0000 38.1795 0.0000 0.0000
# 5 0.0000 0.0000 0.0000 0.0000 -2.9746 0.0000
# 6 0.0000 0.0000 0.0000 0.0000 0.0000 7.9678
#
#
#
# Elastic Compliance Matrix: (Units=1/GPa)
#
#
# Indices 1 2 3 4 5 6 
#
# 1 0.010775 -0.001825 -0.002871 0.000000 0.000000 0.000000
# 2 -0.001825 0.015732 -0.002870 0.000000 0.000000 0.000000
# 3 -0.002871 -0.002870 0.012319 0.000000 0.000000 0.000000
# 4 0.000000 0.000000 0.000000 0.026192 0.000000 0.000000
# 5 0.000000 0.000000 0.000000 0.000000 -0.336184 0.000000
# 6 0.000000 0.000000 0.000000 0.000000 0.000000 0.125505
#
#
# Mechanical properties :
#
#
# Convention : Reuss Voigt Hill
#
# Bulk Modulus (GPa) = 42.20774 43.91295 43.06035
# Shear Modulus (GPa) = -40.77323 21.93840 -9.41741
#
# Velocity S-wave (km/s) = -4.35900 3.19744 -2.09491
# Velocity P-wave (km/s) = 2.38015 5.83914 3.77030
#
# Compressibility (1/GPa) = 0.02369234
#
# Stress axis : x y z
#
# Youngs Moduli (GPa) = 92.80598 63.56427 81.17575
#
# Poissons Ratio (x) = 0.11602 0.23308
# Poissons Ratio (y) = 0.16940 0.23300
# Poissons Ratio (z) = 0.26647 0.18245
#
# Static dielectric constant tensor:
#      x y z
#    x 1.803780 0.000000 0.000000 
#    y 0.000000 1.926580 0.000000 
#    z 0.000000 0.000000 1.831980 
# 
# From -- ./inp_files/46613.got.cif
#   From: 2010.05.17/outbox.cif.g08.bks.cpg/sg64_24_cif.got.tgz:46613.got - 2010.06.03 16:29:19.
