data_PCOD9476470
_publ_section_title
;
Structure prediction by ZEFSAII (Michael W. Deem and Ramdas Pophale) SiO2 
 PCOD9476470
Probable space group: C M C A
;
_chemical_formula_sum "Si O2"
_cell_formula_units_Z 88
_cell_length_a 7.815844
_cell_length_b 20.974175
_cell_length_c 25.895251
_cell_angle_alpha 90.000000
_cell_angle_beta 90.000000
_cell_angle_gamma 90.000000
_cell_volume 4245.031280
_symmetry_space_group_name_H-M "C M C A"
_symmetry_group_IT_number 64
_symmetry_cell_setting 'orthorhombic'
loop_
_space_group_symop_operation_xyz
x,y,z
-x,1/2-y,1/2+z
x,-y,-z
-x,1/2+y,1/2-z
-x,-y,-z
x,1/2+y,1/2-z
-x,y,z
x,1/2-y,1/2+z
1/2+x,1/2+y,z
1/2-x,-y,1/2+z
1/2+x,1/2-y,-z
1/2-x,y,1/2-z
1/2-x,1/2-y,-z
1/2+x,y,1/2-z
1/2-x,1/2+y,z
1/2+x,-y,1/2+z
loop_
_atom_site_type_symbol
_atom_site_label
_atom_site_fract_x
_atom_site_fract_y
_atom_site_fract_z
Si Si1 0.796969 0.964694 0.108348
Si Si2 0.748599 0.500000 0.500000
Si Si3 0.193359 0.851833 0.981907
Si Si4 0.204878 0.069101 0.309778
Si Si5 0.302325 0.689172 0.371496
Si Si6 0.708631 0.178256 0.594966
O O1 0.752033 0.890998 0.118086
O O2 0.000000 0.967805 0.092931
O O3 0.772794 0.010251 0.156691
O O4 0.688365 0.988748 0.059102
O O5 0.817968 0.572072 0.491371
O O6 0.294851 0.836614 0.930255
O O7 0.000000 0.828333 0.973860
O O8 0.265253 0.822440 0.034937
O O9 0.250000 0.064462 0.250000
O O10 0.274231 0.134844 0.334980
O O11 0.000000 0.068877 0.315442
O O12 0.500000 0.696366 0.355677
O O13 0.226587 0.760190 0.374649
O O14 0.500000 0.182197 0.592689
#
# Coordination Sequence:
#
# PCOD9476470 Si02
#       6
#    16   8  16  16  16  16
#     4  10  18  34  59  83 111 146 186 226 269 328
#     4  10  17  28  51  84 115 146 183 220 267 334
#     4  10  17  28  50  79 111 148 185 215 258 325
#     4  11  24  40  58  79 106 143 187 236 282 328
#     4  10  20  35  52  77 111 143 180 225 275 320
#     4   8  17  32  53  80 112 148 178 212 266 331
#
# _framework density 20.730118000000001
#
# number of rings (size 3 to 8) (size 9 to 14) (size 15 to 20)
#    0.000    2.182    1.818    3.818    0.000    0.727 
#    0.000    6.364    0.000    2.182    0.000    0.000 
#    0.000    0.000    0.000    0.000    0.000    0.000 
#
# Total GULP energy -245066.933267 kJ/mol
# GULP energy per Si atom -5569.703029 kJ/mol
# Density = 2.068294 g / cm^3
# Si number density = 20.730118 Si / 1000 Ang^3
#
#
#
# Elastic Constant Matrix: (Units=GPa)
#
#
# Indices 1 2 3 4 5 6 
#
# 1 46.2221 11.1208 1.4564 0.0000 0.0000 0.0000
# 2 11.1208 165.8491 93.1137 0.0000 0.0000 0.0000
# 3 1.4564 93.1137 130.8816 0.0000 0.0000 0.0000
# 4 0.0000 0.0000 0.0000 27.4131 0.0000 0.0000
# 5 0.0000 0.0000 0.0000 0.0000 1.1069 0.0000
# 6 0.0000 0.0000 0.0000 0.0000 0.0000 0.1156
#
#
#
# Elastic Compliance Matrix: (Units=1/GPa)
#
#
# Indices 1 2 3 4 5 6 
#
# 1 0.022131 -0.002241 0.001348 0.000000 0.000000 0.000000
# 2 -0.002241 0.010267 -0.007279 0.000000 0.000000 0.000000
# 3 0.001348 -0.007279 0.012804 0.000000 0.000000 0.000000
# 4 0.000000 0.000000 0.000000 0.036479 0.000000 0.000000
# 5 0.000000 0.000000 0.000000 0.000000 0.903439 0.000000
# 6 0.000000 0.000000 0.000000 0.000000 0.000000 8.652620
#
#
# Mechanical properties :
#
#
# Convention : Reuss Voigt Hill
#
# Bulk Modulus (GPa) = 34.65231 61.59272 48.12251
# Shear Modulus (GPa) = 0.51740 21.54457 11.03099
#
# Velocity S-wave (km/s) = 0.50013 3.22730 2.30928
# Velocity P-wave (km/s) = 4.13349 6.60783 5.51132
#
# Compressibility (1/GPa) = 0.02885811
#
# Stress axis : x y z
#
# Youngs Moduli (GPa) = 45.18487 97.40384 78.10027
#
# Poissons Ratio (x) = 0.21825 -0.10527
# Poissons Ratio (y) = 0.10125 0.56849
# Poissons Ratio (z) = -0.06090 0.70901
#
# Static dielectric constant tensor:
#      x y z
#    x 1.826900 0.000000 0.000000 
#    y 0.000000 1.768550 0.000000 
#    z 0.000000 0.000000 1.693210 
# 
# From -- ./inp_files/42862.got.cif
#   From: 2010.05.17/outbox.cif.g08.bks.cpg/sg64_22_cif.got.tgz:42862.got - 2010.06.03 16:29:19.
