data_PCOD9476660
_publ_section_title
;
Structure prediction by ZEFSAII (Michael W. Deem and Ramdas Pophale) SiO2 
 PCOD9476660
Probable space group: C M C A
;
_chemical_formula_sum "Si O2"
_cell_formula_units_Z 120
_cell_length_a 14.024034
_cell_length_b 17.817811
_cell_length_c 28.202704
_cell_angle_alpha 90.000000
_cell_angle_beta 90.000000
_cell_angle_gamma 90.000000
_cell_volume 7047.223630
_symmetry_space_group_name_H-M "C M C A"
_symmetry_group_IT_number 64
_symmetry_cell_setting 'orthorhombic'
loop_
_space_group_symop_operation_xyz
x,y,z
-x,1/2-y,1/2+z
x,-y,-z
-x,1/2+y,1/2-z
-x,-y,-z
x,1/2+y,1/2-z
-x,y,z
x,1/2-y,1/2+z
1/2+x,1/2+y,z
1/2-x,-y,1/2+z
1/2+x,1/2-y,-z
1/2-x,y,1/2-z
1/2-x,1/2-y,-z
1/2+x,y,1/2-z
1/2-x,1/2+y,z
1/2+x,-y,1/2+z
loop_
_atom_site_type_symbol
_atom_site_label
_atom_site_fract_x
_atom_site_fract_y
_atom_site_fract_z
Si Si1 0.740465 0.120028 0.568668
Si Si2 0.886745 0.026777 0.802232
Si Si3 0.739224 0.825749 0.844035
Si Si4 0.288937 0.464697 0.897675
Si Si5 0.250000 0.075013 0.250000
Si Si6 0.886533 0.180111 0.846436
Si Si7 0.892288 0.883401 0.978224
Si Si8 0.890827 0.245202 0.593798
O O1 0.659723 0.148421 0.605412
O O2 0.688741 0.119131 0.518071
O O3 0.828527 0.175815 0.575343
O O4 0.768772 0.036390 0.584494
O O5 0.863736 0.115677 0.807191
O O6 0.000000 0.018883 0.800900
O O7 0.845840 0.988804 0.850332
O O8 0.837844 0.981658 0.759542
O O9 0.728380 0.890821 0.884097
O O10 0.743431 0.871044 0.795232
O O11 0.660257 0.761312 0.839491
O O12 0.835328 0.783030 0.861679
O O13 0.363194 0.445062 0.939192
O O14 0.000000 0.185190 0.849985
O O15 0.891754 0.806427 0.948243
O O16 0.000000 0.895824 0.996569
O O17 0.000000 0.226574 0.605624
#
# Coordination Sequence:
#
# PCOD9476660 Si02
#       8
#    16  16  16  16   8  16  16  16
#     4  10  18  30  50  74 102 133 170 212 251 293
#     4   9  18  33  52  73  98 129 162 200 248 299
#     4   9  19  34  51  72  97 127 161 203 249 295
#     4   9  18  31  48  72 104 135 164 207 258 301
#     4  10  20  32  52  76  98 122 156 202 250 298
#     4   9  18  33  51  70  97 130 160 194 243 297
#     4  10  18  28  48  77 104 132 172 218 257 296
#     4   9  19  35  52  71  99 137 176 210 250 301
#
# _framework density 17.027982000000002
#
# number of rings (size 3 to 8) (size 9 to 14) (size 15 to 20)
#    0.000    2.667    0.000    1.600    0.000    6.400 
#    0.000    0.667    0.000   16.800    0.000    0.000 
#    0.000    0.000    0.000    0.000    0.000    0.000 
#
# Total GULP energy -334069.072852 kJ/mol
# GULP energy per Si atom -5567.817881 kJ/mol
# Density = 1.698923 g / cm^3
# Si number density = 17.027982 Si / 1000 Ang^3
#
#
#
# Elastic Constant Matrix: (Units=GPa)
#
#
# Indices 1 2 3 4 5 6 
#
# 1 79.9274 58.9129 30.6464 0.0000 0.0000 0.0000
# 2 58.9129 124.4869 25.6470 0.0000 0.0000 0.0000
# 3 30.6464 25.6470 58.2772 0.0000 0.0000 0.0000
# 4 0.0000 0.0000 0.0000 10.3202 0.0000 0.0000
# 5 0.0000 0.0000 0.0000 0.0000 16.2980 0.0000
# 6 0.0000 0.0000 0.0000 0.0000 0.0000 16.2854
#
#
#
# Elastic Compliance Matrix: (Units=1/GPa)
#
#
# Indices 1 2 3 4 5 6 
#
# 1 0.021938 -0.008804 -0.007662 0.000000 0.000000 0.000000
# 2 -0.008804 0.012367 -0.000813 0.000000 0.000000 0.000000
# 3 -0.007662 -0.000813 0.021547 0.000000 0.000000 0.000000
# 4 0.000000 0.000000 0.000000 0.096898 0.000000 0.000000
# 5 0.000000 0.000000 0.000000 0.000000 0.061357 0.000000
# 6 0.000000 0.000000 0.000000 0.000000 0.000000 0.061405
#
#
# Mechanical properties :
#
#
# Convention : Reuss Voigt Hill
#
# Bulk Modulus (GPa) = 46.96195 54.78936 50.87565
# Shear Modulus (GPa) = 15.76458 18.41306 17.08882
#
# Velocity S-wave (km/s) = 3.04600 3.29194 3.17136
# Velocity P-wave (km/s) = 6.32535 6.83338 6.58427
#
# Compressibility (1/GPa) = 0.02129383
#
# Stress axis : x y z
#
# Youngs Moduli (GPa) = 45.58236 80.86236 46.41113
#
# Poissons Ratio (x) = 0.71188 0.35562
# Poissons Ratio (y) = 0.40129 0.03772
# Poissons Ratio (z) = 0.34927 0.06573
#
# Static dielectric constant tensor:
#      x y z
#    x 1.547310 0.000000 0.000000 
#    y 0.000000 1.618810 0.000000 
#    z 0.000000 0.000000 1.578860 
# 
# From -- ./inp_files/53429.got.cif
#   From: 2010.05.17/outbox.cif.g08.bks.cpg/sg64_27_cif.got.tgz:53429.got - 2010.06.03 16:29:19.
