data_PCOD9476563
_publ_section_title
;
Structure prediction by ZEFSAII (Michael W. Deem and Ramdas Pophale) SiO2 
 PCOD9476563
Probable space group: C M C A
;
_chemical_formula_sum "Si O2"
_cell_formula_units_Z 88
_cell_length_a 20.062237
_cell_length_b 12.262697
_cell_length_c 14.405360
_cell_angle_alpha 90.000000
_cell_angle_beta 90.000000
_cell_angle_gamma 90.000000
_cell_volume 3543.965374
_symmetry_space_group_name_H-M "C M C A"
_symmetry_group_IT_number 64
_symmetry_cell_setting 'orthorhombic'
loop_
_space_group_symop_operation_xyz
x,y,z
-x,1/2-y,1/2+z
x,-y,-z
-x,1/2+y,1/2-z
-x,-y,-z
x,1/2+y,1/2-z
-x,y,z
x,1/2-y,1/2+z
1/2+x,1/2+y,z
1/2-x,-y,1/2+z
1/2+x,1/2-y,-z
1/2-x,y,1/2-z
1/2-x,1/2-y,-z
1/2+x,y,1/2-z
1/2-x,1/2+y,z
1/2+x,-y,1/2+z
loop_
_atom_site_type_symbol
_atom_site_label
_atom_site_fract_x
_atom_site_fract_y
_atom_site_fract_z
Si Si1 0.123350 0.206571 0.863811
Si Si2 0.104533 0.981657 0.394525
Si Si3 0.268226 0.115436 0.145702
Si Si4 0.000000 0.853977 0.692486
Si Si5 0.576611 0.748897 0.075304
Si Si6 0.127726 0.963455 0.898813
O O1 0.193567 0.268855 0.849565
O O2 0.059932 0.259365 0.812795
O O3 0.130343 0.077325 0.845456
O O4 0.106791 0.229306 0.973240
O O5 0.109275 0.853010 0.377791
O O6 0.078675 0.000000 0.500000
O O7 0.177103 0.033626 0.392314
O O8 0.057728 0.050726 0.327686
O O9 0.250000 0.085333 0.250000
O O10 0.199203 0.096677 0.092242
O O11 0.500000 0.777770 0.061898
O O12 0.580477 0.635569 0.131723
O O13 0.102959 0.000000 0.000000
#
# Coordination Sequence:
#
# PCOD9476563 Si02
#       6
#    16  16  16   8  16  16
#     4  10  21  37  64  91 128 167 206 273 321 383
#     4  11  18  35  66  96 127 161 213 278 316 377
#     4  11  25  42  61  86 128 176 227 258 320 388
#     4  10  17  32  63 100 121 160 212 256 336 374
#     4  11  20  36  66 102 130 155 209 271 335 383
#     4  10  25  38  61  96 132 167 211 268 335 378
#
# _framework density 24.830943000000001
#
# number of rings (size 3 to 8) (size 9 to 14) (size 15 to 20)
#    0.000    1.455    5.455    0.818    3.818    3.273 
#    0.000    0.000    8.000    0.000    0.000    0.000 
#    0.000    0.000    0.000    0.000    0.000    0.000 
#
# Total GULP energy -245147.119259 kJ/mol
# GULP energy per Si atom -5571.525438 kJ/mol
# Density = 2.477443 g / cm^3
# Si number density = 24.830943 Si / 1000 Ang^3
#
#
#
# Elastic Constant Matrix: (Units=GPa)
#
#
# Indices 1 2 3 4 5 6 
#
# 1 53.5501 21.0258 -18.3121 0.0000 0.0000 0.0000
# 2 21.0258 195.5854 10.6236 0.0000 0.0000 0.0000
# 3 -18.3121 10.6236 73.9464 0.0000 0.0000 0.0000
# 4 0.0000 0.0000 0.0000 18.2131 0.0000 0.0000
# 5 0.0000 0.0000 0.0000 0.0000 412.3544 0.0000
# 6 0.0000 0.0000 0.0000 0.0000 0.0000 26.5650
#
#
#
# Elastic Compliance Matrix: (Units=1/GPa)
#
#
# Indices 1 2 3 4 5 6 
#
# 1 0.021677 -0.002643 0.005748 0.000000 0.000000 0.000000
# 2 -0.002643 0.005475 -0.001441 0.000000 0.000000 0.000000
# 3 0.005748 -0.001441 0.015154 0.000000 0.000000 0.000000
# 4 0.000000 0.000000 0.000000 0.054906 0.000000 0.000000
# 5 0.000000 0.000000 0.000000 0.000000 0.002425 0.000000
# 6 0.000000 0.000000 0.000000 0.000000 0.000000 0.037643
#
#
# Mechanical properties :
#
#
# Convention : Reuss Voigt Hill
#
# Bulk Modulus (GPa) = 21.91322 38.86184 30.38753
# Shear Modulus (GPa) = 33.52031 112.07615 72.79823
#
# Velocity S-wave (km/s) = 3.67814 6.72560 5.42044
# Velocity P-wave (km/s) = 5.18483 8.71757 7.17212
#
# Compressibility (1/GPa) = 0.04563456
#
# Stress axis : x y z
#
# Youngs Moduli (GPa) = 46.13148 182.64163 65.99043
#
# Poissons Ratio (x) = 0.48264 -0.37930
# Poissons Ratio (y) = 0.12190 0.09509
# Poissons Ratio (z) = -0.26515 0.26319
#
# Static dielectric constant tensor:
#      x y z
#    x 1.876540 0.000000 0.000000 
#    y 0.000000 2.010760 0.000000 
#    z 0.000000 0.000000 1.691950 
# 
# From -- ./inp_files/40043.got.cif
#   From: 2010.05.17/outbox.cif.g08.bks.cpg/sg64_21_cif.got.tgz:40043.got - 2010.06.03 16:29:19.
