data_PCOD9476711
_publ_section_title
;
Structure prediction by ZEFSAII (Michael W. Deem and Ramdas Pophale) SiO2 
 PCOD9476711
Probable space group: C M C A
;
_chemical_formula_sum "Si O2"
_cell_formula_units_Z 76
_cell_length_a 15.156069
_cell_length_b 14.848092
_cell_length_c 14.954271
_cell_angle_alpha 90.000000
_cell_angle_beta 90.000000
_cell_angle_gamma 90.000000
_cell_volume 3365.289808
_symmetry_space_group_name_H-M "C M C A"
_symmetry_group_IT_number 64
_symmetry_cell_setting 'orthorhombic'
loop_
_space_group_symop_operation_xyz
x,y,z
-x,1/2-y,1/2+z
x,-y,-z
-x,1/2+y,1/2-z
-x,-y,-z
x,1/2+y,1/2-z
-x,y,z
x,1/2-y,1/2+z
1/2+x,1/2+y,z
1/2-x,-y,1/2+z
1/2+x,1/2-y,-z
1/2-x,y,1/2-z
1/2-x,1/2-y,-z
1/2+x,y,1/2-z
1/2-x,1/2+y,z
1/2+x,-y,1/2+z
loop_
_atom_site_type_symbol
_atom_site_label
_atom_site_fract_x
_atom_site_fract_y
_atom_site_fract_z
Si Si1 0.177890 0.346222 0.820612
Si Si2 0.000000 0.000000 0.500000
Si Si3 0.347072 0.127685 0.973863
Si Si4 0.500000 0.139152 0.661615
Si Si5 0.500000 0.726265 0.035756
Si Si6 0.694257 0.871756 0.334001
Si Si7 0.000000 0.174328 0.232298
O O1 0.250000 0.377438 0.750000
O O2 0.183708 0.236976 0.825184
O O3 0.083983 0.368301 0.778852
O O4 0.179877 0.378148 0.922179
O O5 0.078269 0.943951 0.449152
O O6 0.406869 0.218212 0.961486
O O7 0.258367 0.117463 0.918157
O O8 0.500000 0.182792 0.562228
O O9 0.594759 0.090696 0.666549
O O10 0.500000 0.219239 0.736781
O O11 0.500000 0.668333 0.125849
O O12 0.750000 0.904674 0.250000
#
# Coordination Sequence:
#
# PCOD9476711 Si02
#       7
#    16   4  16   8   8  16   8
#     4  10  19  31  53  84 116 145 179 231 293 356
#     4  10  26  40  60  78 104 160 210 234 264 344
#     4  11  20  38  55  78 113 157 194 236 279 336
#     4  10  19  31  46  87 117 141 175 228 295 359
#     4  11  18  28  54  75 116 150 177 232 286 340
#     4  10  20  33  57  89 119 148 184 237 303 355
#     4  10  18  30  44  80 121 143 178 214 286 360
#
# _framework density 22.583494000000002
#
# number of rings (size 3 to 8) (size 9 to 14) (size 15 to 20)
#    0.000    1.684    4.211    5.053    2.947    0.842 
#    0.000    1.053    0.000    0.632    0.000    0.000 
#    0.000    0.000    0.000    0.000    0.000    0.000 
#
# Total GULP energy -211572.908493 kJ/mol
# GULP energy per Si atom -5567.708118 kJ/mol
# Density = 2.253209 g / cm^3
# Si number density = 22.583494 Si / 1000 Ang^3
#
#
#
# Elastic Constant Matrix: (Units=GPa)
#
#
# Indices 1 2 3 4 5 6 
#
# 1 260.2994 12.9259 75.0661 0.0000 0.0000 0.0000
# 2 12.9259 18.2684 2.9469 0.0000 0.0000 0.0000
# 3 75.0661 2.9469 128.0350 0.0000 0.0000 0.0000
# 4 0.0000 0.0000 0.0000 -7.9535 0.0000 0.0000
# 5 0.0000 0.0000 0.0000 0.0000 13.7656 0.0000
# 6 0.0000 0.0000 0.0000 0.0000 0.0000 445.9001
#
#
#
# Elastic Compliance Matrix: (Units=1/GPa)
#
#
# Indices 1 2 3 4 5 6 
#
# 1 0.004776 -0.002938 -0.002732 0.000000 0.000000 0.000000
# 2 -0.002938 0.056751 0.000416 0.000000 0.000000 0.000000
# 3 -0.002732 0.000416 0.009403 0.000000 0.000000 0.000000
# 4 0.000000 0.000000 0.000000 -0.125730 0.000000 0.000000
# 5 0.000000 0.000000 0.000000 0.000000 0.072645 0.000000
# 6 0.000000 0.000000 0.000000 0.000000 0.000000 0.002243
#
#
# Mechanical properties :
#
#
# Convention : Reuss Voigt Hill
#
# Bulk Modulus (GPa) = 16.55048 65.38672 40.96860
# Shear Modulus (GPa) = 98.55118 111.38668 104.96893
#
# Velocity S-wave (km/s) = 6.61312 7.03059 6.82505
# Velocity P-wave (km/s) = 8.10281 9.74278 8.96040
#
# Compressibility (1/GPa) = 0.06042121
#
# Stress axis : x y z
#
# Youngs Moduli (GPa) = 209.39874 17.62084 106.35253
#
# Poissons Ratio (x) = 0.05177 0.29058
# Poissons Ratio (y) = 0.61526 -0.04429
# Poissons Ratio (z) = 0.57213 -0.00734
#
# Static dielectric constant tensor:
#      x y z
#    x 1.810670 0.000000 0.000000 
#    y 0.000000 1.941120 0.000000 
#    z 0.000000 0.000000 1.810600 
# 
# From -- ./inp_files/23719.got.cif
#   From: 2010.05.17/outbox.cif.g08.bks.cpg/sg64_12_cif.got.tgz:23719.got - 2010.06.03 16:29:19.
