data_PCOD9476892
_publ_section_title
;
Structure prediction by ZEFSAII (Michael W. Deem and Ramdas Pophale) SiO2 
 PCOD9476892
Probable space group: C M C A
;
_chemical_formula_sum "Si O2"
_cell_formula_units_Z 96
_cell_length_a 21.595207
_cell_length_b 13.966730
_cell_length_c 15.158162
_cell_angle_alpha 90.000000
_cell_angle_beta 90.000000
_cell_angle_gamma 90.000000
_cell_volume 4571.920323
_symmetry_space_group_name_H-M "C M C A"
_symmetry_group_IT_number 64
_symmetry_cell_setting 'orthorhombic'
loop_
_space_group_symop_operation_xyz
x,y,z
-x,1/2-y,1/2+z
x,-y,-z
-x,1/2+y,1/2-z
-x,-y,-z
x,1/2+y,1/2-z
-x,y,z
x,1/2-y,1/2+z
1/2+x,1/2+y,z
1/2-x,-y,1/2+z
1/2+x,1/2-y,-z
1/2-x,y,1/2-z
1/2-x,1/2-y,-z
1/2+x,y,1/2-z
1/2-x,1/2+y,z
1/2+x,-y,1/2+z
loop_
_atom_site_type_symbol
_atom_site_label
_atom_site_fract_x
_atom_site_fract_y
_atom_site_fract_z
Si Si1 0.308688 0.170408 0.809043
Si Si2 0.698078 0.334890 0.501777
Si Si3 0.431685 0.267568 0.016475
Si Si4 0.774539 0.105916 0.156713
Si Si5 0.432139 0.618426 0.797078
Si Si6 0.095721 0.553366 0.408462
O O1 0.250000 0.144683 0.750000
O O2 0.300772 0.121990 0.904338
O O3 0.301110 0.285775 0.824324
O O4 0.373518 0.145176 0.762818
O O5 0.750000 0.250000 0.500000
O O6 0.628748 0.297121 0.513451
O O7 0.719250 0.391976 0.586875
O O8 0.500000 0.222473 0.013879
O O9 0.427001 0.324718 0.109583
O O10 0.426009 0.340232 0.933159
O O11 0.750000 0.069963 0.250000
O O12 0.831354 0.052529 0.111352
O O13 0.500000 0.640544 0.758209
O O14 0.431205 0.507245 0.827806
O O15 0.081567 0.500000 0.500000
#
# Coordination Sequence:
#
# PCOD9476892 Si02
#       6
#    16  16  16  16  16  16
#     4  10  20  33  57  80 110 146 185 231 281 332
#     4  10  18  34  57  80 110 141 185 238 283 329
#     4  10  18  32  54  80 110 147 186 231 288 336
#     4  10  20  36  56  85 111 143 191 237 286 337
#     4  10  21  35  52  82 116 147 186 232 280 337
#     4  10  20  34  54  79 115 151 183 233 289 341
#
# _framework density 20.99774
#
# number of rings (size 3 to 8) (size 9 to 14) (size 15 to 20)
#    0.000    2.000    3.333    3.500    2.333    3.333 
#    0.000    0.000    0.000    1.000    0.000    1.167 
#    0.000    0.000    0.000    0.000    0.000    0.000 
#
# Total GULP energy -267781.551445 kJ/mol
# GULP energy per Si atom -5578.782322 kJ/mol
# Density = 2.094995 g / cm^3
# Si number density = 20.997740 Si / 1000 Ang^3
#
#
#
# Elastic Constant Matrix: (Units=GPa)
#
#
# Indices 1 2 3 4 5 6 
#
# 1 200.7672 21.8525 66.9037 0.0000 0.0000 0.0000
# 2 21.8525 33.4835 3.8241 0.0000 0.0000 0.0000
# 3 66.9037 3.8241 121.6449 0.0000 0.0000 0.0000
# 4 0.0000 0.0000 0.0000 -6.7978 0.0000 0.0000
# 5 0.0000 0.0000 0.0000 0.0000 31.7797 0.0000
# 6 0.0000 0.0000 0.0000 0.0000 0.0000 -3.9578
#
#
#
# Elastic Compliance Matrix: (Units=1/GPa)
#
#
# Indices 1 2 3 4 5 6 
#
# 1 0.006567 -0.003887 -0.003490 0.000000 0.000000 0.000000
# 2 -0.003887 0.032274 0.001123 0.000000 0.000000 0.000000
# 3 -0.003490 0.001123 0.010105 0.000000 0.000000 0.000000
# 4 0.000000 0.000000 0.000000 -0.147107 0.000000 0.000000
# 5 0.000000 0.000000 0.000000 0.000000 0.031467 0.000000
# 6 0.000000 0.000000 0.000000 0.000000 0.000000 -0.252666
#
#
# Mechanical properties :
#
#
# Convention : Reuss Voigt Hill
#
# Bulk Modulus (GPa) = 27.44333 60.11737 43.78035
# Shear Modulus (GPa) = -16.96594 21.75917 2.39661
#
# Velocity S-wave (km/s) = -2.84560 3.22260 1.06951
# Velocity P-wave (km/s) = 1.51705 6.52222 4.73502
#
# Compressibility (1/GPa) = 0.03643873
#
# Stress axis : x y z
#
# Youngs Moduli (GPa) = 152.28018 30.98457 98.96547
#
# Poissons Ratio (x) = 0.12044 0.34534
# Poissons Ratio (y) = 0.59195 -0.11117
# Poissons Ratio (z) = 0.53138 -0.03481
#
# Static dielectric constant tensor:
#      x y z
#    x 1.750610 0.000000 0.000000 
#    y 0.000000 1.817110 0.000000 
#    z 0.000000 0.000000 1.765600 
# 
# From -- ./inp_files/33259.got.cif
#   From: 2010.05.17/outbox.cif.g08.bks.cpg/sg64_17_cif.got.tgz:33259.got - 2010.06.03 16:29:19.
