data_PCOD9476300
_publ_section_title
;
Structure prediction by ZEFSAII (Michael W. Deem and Ramdas Pophale) SiO2 
 PCOD9476300
Probable space group: C M C A
;
_chemical_formula_sum "Si O2"
_cell_formula_units_Z 88
_cell_length_a 18.461112
_cell_length_b 14.743355
_cell_length_c 18.805305
_cell_angle_alpha 90.000000
_cell_angle_beta 90.000000
_cell_angle_gamma 90.000000
_cell_volume 5118.403993
_symmetry_space_group_name_H-M "C M C A"
_symmetry_group_IT_number 64
_symmetry_cell_setting 'orthorhombic'
loop_
_space_group_symop_operation_xyz
x,y,z
-x,1/2-y,1/2+z
x,-y,-z
-x,1/2+y,1/2-z
-x,-y,-z
x,1/2+y,1/2-z
-x,y,z
x,1/2-y,1/2+z
1/2+x,1/2+y,z
1/2-x,-y,1/2+z
1/2+x,1/2-y,-z
1/2-x,y,1/2-z
1/2-x,1/2-y,-z
1/2+x,y,1/2-z
1/2-x,1/2+y,z
1/2+x,-y,1/2+z
loop_
_atom_site_type_symbol
_atom_site_label
_atom_site_fract_x
_atom_site_fract_y
_atom_site_fract_z
Si Si1 0.262935 0.765210 0.583825
Si Si2 0.417191 0.484357 0.771155
Si Si3 0.803341 0.917222 0.139376
Si Si4 0.125382 0.500000 0.500000
Si Si5 0.920885 0.657256 0.401200
Si Si6 0.705890 0.081861 0.181122
O O1 0.250000 0.750000 0.500000
O O2 0.229299 0.681475 0.627504
O O3 0.349010 0.781715 0.594953
O O4 0.221983 0.853453 0.614950
O O5 0.500000 0.509872 0.757419
O O6 0.370065 0.566164 0.805947
O O7 0.416060 0.405499 0.831117
O O8 0.375318 0.440131 0.704881
O O9 0.742269 0.985439 0.166044
O O10 0.828672 0.955640 0.063142
O O11 0.082805 0.416651 0.535207
O O12 0.000000 0.702880 0.402415
O O13 0.750000 0.119967 0.250000
#
# Coordination Sequence:
#
# PCOD9476300 Si02
#       6
#    16  16  16   8  16  16
#     4  12  21  35  58  88 121 156 197 241 292 365
#     4   9  19  38  58  81 112 149 193 247 298 335
#     4  10  19  32  56  83 110 148 195 235 282 358
#     4  10  15  34  54  84 111 144 188 236 295 340
#     4  10  19  33  56  84 114 147 188 244 299 342
#     4  10  19  37  55  79 114 155 196 239 296 348
#
# _framework density 17.192858999999999
#
# number of rings (size 3 to 8) (size 9 to 14) (size 15 to 20)
#    0.000    1.818    7.273    0.273    0.000    2.909 
#    0.000    2.727    0.000    0.000    0.000    3.818 
#    0.000    0.000    0.000    0.000    0.000    0.000 
#
# Total GULP energy -245098.966469 kJ/mol
# GULP energy per Si atom -5570.431056 kJ/mol
# Density = 1.715373 g / cm^3
# Si number density = 17.192859 Si / 1000 Ang^3
#
#
#
# Elastic Constant Matrix: (Units=GPa)
#
#
# Indices 1 2 3 4 5 6 
#
# 1 164.2711 55.4779 41.1369 0.0000 0.0000 0.0000
# 2 55.4779 76.6417 15.7926 0.0000 0.0000 0.0000
# 3 41.1369 15.7926 63.0251 0.0000 0.0000 0.0000
# 4 0.0000 0.0000 0.0000 24.0235 0.0000 0.0000
# 5 0.0000 0.0000 0.0000 0.0000 13.1448 0.0000
# 6 0.0000 0.0000 0.0000 0.0000 0.0000 23.6034
#
#
#
# Elastic Compliance Matrix: (Units=1/GPa)
#
#
# Indices 1 2 3 4 5 6 
#
# 1 0.009145 -0.005683 -0.004545 0.000000 0.000000 0.000000
# 2 -0.005683 0.017290 -0.000623 0.000000 0.000000 0.000000
# 3 -0.004545 -0.000623 0.018989 0.000000 0.000000 0.000000
# 4 0.000000 0.000000 0.000000 0.041626 0.000000 0.000000
# 5 0.000000 0.000000 0.000000 0.000000 0.076076 0.000000
# 6 0.000000 0.000000 0.000000 0.000000 0.000000 0.042367
#
#
# Mechanical properties :
#
#
# Convention : Reuss Voigt Hill
#
# Bulk Modulus (GPa) = 42.15494 58.75028 50.45261
# Shear Modulus (GPa) = 21.26739 24.92307 23.09523
#
# Velocity S-wave (km/s) = 3.52090 3.81151 3.66909
# Velocity P-wave (km/s) = 6.41101 7.32227 6.88174
#
# Compressibility (1/GPa) = 0.02372201
#
# Stress axis : x y z
#
# Youngs Moduli (GPa) = 109.34988 57.83722 52.66130
#
# Poissons Ratio (x) = 0.32870 0.23934
# Poissons Ratio (y) = 0.62145 0.03281
# Poissons Ratio (z) = 0.49698 0.03603
#
# Static dielectric constant tensor:
#      x y z
#    x 1.609070 0.000000 0.000000 
#    y 0.000000 1.575960 0.000000 
#    z 0.000000 0.000000 1.664950 
# 
# From -- ./inp_files/33102.got.cif
#   From: 2010.05.17/outbox.cif.g08.bks.cpg/sg64_17_cif.got.tgz:33102.got - 2010.06.03 16:29:19.
