data_PCOD9476012
_publ_section_title
;
Structure prediction by ZEFSAII (Michael W. Deem and Ramdas Pophale) SiO2 
 PCOD9476012
Probable space group: C M C M
;
_chemical_formula_sum "Si O2"
_cell_formula_units_Z 80
_cell_length_a 7.717937
_cell_length_b 20.220116
_cell_length_c 26.855000
_cell_angle_alpha 90.000000
_cell_angle_beta 90.000000
_cell_angle_gamma 90.000000
_cell_volume 4190.926349
_symmetry_space_group_name_H-M "C M C M"
_symmetry_group_IT_number 63
_symmetry_cell_setting 'orthorhombic'
loop_
_space_group_symop_operation_xyz
x,y,z
-x,-y,1/2+z
x,-y,-z
-x,y,1/2-z
-x,-y,-z
x,y,1/2-z
-x,y,z
x,-y,1/2+z
1/2+x,1/2+y,z
1/2-x,1/2-y,1/2+z
1/2+x,1/2-y,-z
1/2-x,1/2+y,1/2-z
1/2-x,1/2-y,-z
1/2+x,1/2+y,1/2-z
1/2-x,1/2+y,z
1/2+x,1/2-y,1/2+z
loop_
_atom_site_type_symbol
_atom_site_label
_atom_site_fract_x
_atom_site_fract_y
_atom_site_fract_z
Si Si1 0.711848 0.427993 0.306666
Si Si2 0.205997 0.671910 0.997450
Si Si3 0.792641 0.676187 0.104886
Si Si4 0.296075 0.674110 0.888375
Si Si5 0.791264 0.921185 0.805890
O O1 0.761236 0.410473 0.250000
O O2 0.500000 0.428392 0.308070
O O3 0.776192 0.376208 0.347569
O O4 0.767477 0.503605 0.316353
O O5 0.279448 0.647839 0.944922
O O6 0.000000 0.663107 0.994198
O O7 0.250000 0.750000 0.000000
O O8 0.270020 0.647402 0.051524
O O9 0.723124 0.750952 0.112957
O O10 0.759561 0.629495 0.151392
O O11 0.000000 0.682692 0.099030
O O12 0.500000 0.680181 0.877431
O O13 0.731127 0.902841 0.750000
O O14 0.000000 0.922507 0.804559
#
# Coordination Sequence:
#
# PCOD9476012 Si02
#       5
#    16  16  16  16  16
#     4   8  15  30  50  69  91 121 157 194 229 269
#     4   9  17  30  47  68  95 124 153 187 229 274
#     4   9  18  30  46  70  95 120 151 186 229 278
#     4   9  17  30  50  73  93 118 155 193 229 271
#     4   9  18  32  49  68  91 122 157 191 229 271
#
# _framework density 19.088858999999999
#
# number of rings (size 3 to 8) (size 9 to 14) (size 15 to 20)
#    0.000    3.200    0.000    3.000    0.000    5.200 
#    0.000    4.000    0.000    7.800    0.000    0.000 
#    0.000    0.000    0.000    0.000    0.000    0.000 
#
# Total GULP energy -222718.074069 kJ/mol
# GULP energy per Si atom -5567.951852 kJ/mol
# Density = 1.904541 g / cm^3
# Si number density = 19.088859 Si / 1000 Ang^3
#
#
#
# Elastic Constant Matrix: (Units=GPa)
#
#
# Indices 1 2 3 4 5 6 
#
# 1 20.4093 0.6132 -10.2162 0.0000 0.0000 0.0000
# 2 0.6132 83.0148 102.9894 0.0000 0.0000 0.0000
# 3 -10.2162 102.9894 190.7024 0.0000 0.0000 0.0000
# 4 0.0000 0.0000 0.0000 -33.5054 0.0000 0.0000
# 5 0.0000 0.0000 0.0000 0.0000 24.2374 0.0000
# 6 0.0000 0.0000 0.0000 0.0000 0.0000 13.3607
#
#
#
# Elastic Compliance Matrix: (Units=1/GPa)
#
#
# Indices 1 2 3 4 5 6 
#
# 1 0.054083 -0.012103 0.009433 0.000000 0.000000 0.000000
# 2 -0.012103 0.039211 -0.021824 0.000000 0.000000 0.000000
# 3 0.009433 -0.021824 0.017535 0.000000 0.000000 0.000000
# 4 0.000000 0.000000 0.000000 -0.029846 0.000000 0.000000
# 5 0.000000 0.000000 0.000000 0.000000 0.041258 0.000000
# 6 0.000000 0.000000 0.000000 0.000000 0.000000 0.074847
#
#
# Mechanical properties :
#
#
# Convention : Reuss Voigt Hill
#
# Bulk Modulus (GPa) = 16.17025 53.43328 34.80176
# Shear Modulus (GPa) = 18.74836 14.20122 16.47479
#
# Velocity S-wave (km/s) = 3.13735 2.73051 2.94097
# Velocity P-wave (km/s) = 4.64902 6.16389 5.45925
#
# Compressibility (1/GPa) = 0.06184195
#
# Stress axis : x y z
#
# Youngs Moduli (GPa) = 18.49017 25.50296 57.02726
#
# Poissons Ratio (x) = 0.30865 -0.53796
# Poissons Ratio (y) = 0.22378 1.24459
# Poissons Ratio (z) = -0.17442 0.55659
#
# Static dielectric constant tensor:
#      x y z
#    x 1.744140 0.000000 0.000000 
#    y 0.000000 1.645330 0.000000 
#    z 0.000000 0.000000 1.694810 
# 
# From -- ./inp_files/66604.got.cif
#   From: 2010.05.17/outbox.cif.g08.bks.cpg/sg63_34_cif.got.tgz:66604.got - 2010.06.03 15:47:04.
