data_PCOD9476600
_publ_section_title
;
Structure prediction by ZEFSAII (Michael W. Deem and Ramdas Pophale) SiO2 
 PCOD9476600
Probable space group: C M C A
;
_chemical_formula_sum "Si O2"
_cell_formula_units_Z 112
_cell_length_a 18.340744
_cell_length_b 18.724297
_cell_length_c 18.904916
_cell_angle_alpha 90.000000
_cell_angle_beta 90.000000
_cell_angle_gamma 90.000000
_cell_volume 6492.279706
_symmetry_space_group_name_H-M "C M C A"
_symmetry_group_IT_number 64
_symmetry_cell_setting 'orthorhombic'
loop_
_space_group_symop_operation_xyz
x,y,z
-x,1/2-y,1/2+z
x,-y,-z
-x,1/2+y,1/2-z
-x,-y,-z
x,1/2+y,1/2-z
-x,y,z
x,1/2-y,1/2+z
1/2+x,1/2+y,z
1/2-x,-y,1/2+z
1/2+x,1/2-y,-z
1/2-x,y,1/2-z
1/2-x,1/2-y,-z
1/2+x,y,1/2-z
1/2-x,1/2+y,z
1/2+x,-y,1/2+z
loop_
_atom_site_type_symbol
_atom_site_label
_atom_site_fract_x
_atom_site_fract_y
_atom_site_fract_z
Si Si1 0.796823 0.507610 0.820537
Si Si2 0.082021 0.349722 0.380841
Si Si3 0.804404 0.742298 0.895743
Si Si4 0.583338 0.282900 0.516648
Si Si5 0.296506 0.378471 0.583009
Si Si6 0.219929 0.901483 0.057905
Si Si7 0.336581 0.148769 0.767224
O O1 0.750000 0.493100 0.750000
O O2 0.818496 0.433086 0.855613
O O3 0.751121 0.546652 0.882320
O O4 0.853825 0.570227 0.799456
O O5 0.080295 0.273942 0.420161
O O6 0.133999 0.398123 0.429558
O O7 0.119200 0.341327 0.304363
O O8 0.000000 0.376904 0.374092
O O9 0.753695 0.812167 0.890122
O O10 0.752225 0.677785 0.923376
O O11 0.840918 0.711996 0.824271
O O12 0.868430 0.750489 0.953282
O O13 0.500000 0.299999 0.495763
O O14 0.631129 0.348691 0.545023
O O15 0.248447 0.415101 0.520758
O O16 0.250000 0.145883 0.750000
#
# Coordination Sequence:
#
# PCOD9476600 Si02
#       7
#    16  16  16  16  16  16  16
#     4  10  20  32  54  78 108 137 186 225 271 307
#     4  11  19  32  58  82 104 141 184 222 265 320
#     4  10  18  32  58  77 105 137 183 226 271 322
#     4  10  20  34  53  81 115 142 174 227 279 322
#     4  11  19  32  55  86 104 141 184 229 278 324
#     4  10  17  36  54  78 103 139 185 229 255 321
#     4  10  18  35  54  77 105 141 186 225 257 320
#
# _framework density 17.251259000000001
#
# number of rings (size 3 to 8) (size 9 to 14) (size 15 to 20)
#    0.000    1.714    7.143    1.286    0.000    2.286 
#    0.000    0.714    0.000   13.714    0.000    0.000 
#    0.000    0.000    0.000    0.000    0.000    0.000 
#
# Total GULP energy -311911.788453 kJ/mol
# GULP energy per Si atom -5569.853365 kJ/mol
# Density = 1.721199 g / cm^3
# Si number density = 17.251259 Si / 1000 Ang^3
#
#
#
# Elastic Constant Matrix: (Units=GPa)
#
#
# Indices 1 2 3 4 5 6 
#
# 1 100.1160 15.6557 19.3051 0.0000 0.0000 0.0000
# 2 15.6557 62.2110 28.2300 0.0000 0.0000 0.0000
# 3 19.3051 28.2300 82.5392 0.0000 0.0000 0.0000
# 4 0.0000 0.0000 0.0000 25.7135 0.0000 0.0000
# 5 0.0000 0.0000 0.0000 0.0000 21.6548 0.0000
# 6 0.0000 0.0000 0.0000 0.0000 0.0000 7.7071
#
#
#
# Elastic Compliance Matrix: (Units=1/GPa)
#
#
# Indices 1 2 3 4 5 6 
#
# 1 0.010634 -0.001832 -0.001861 0.000000 0.000000 0.000000
# 2 -0.001832 0.019343 -0.006187 0.000000 0.000000 0.000000
# 3 -0.001861 -0.006187 0.014667 0.000000 0.000000 0.000000
# 4 0.000000 0.000000 0.000000 0.038890 0.000000 0.000000
# 5 0.000000 0.000000 0.000000 0.000000 0.046179 0.000000
# 6 0.000000 0.000000 0.000000 0.000000 0.000000 0.129750
#
#
# Mechanical properties :
#
#
# Convention : Reuss Voigt Hill
#
# Bulk Modulus (GPa) = 40.18609 41.24975 40.71792
# Shear Modulus (GPa) = 17.39033 23.12679 20.25856
#
# Velocity S-wave (km/s) = 3.17844 3.66537 3.43056
# Velocity P-wave (km/s) = 6.06755 6.47119 6.27262
#
# Compressibility (1/GPa) = 0.02488423
#
# Stress axis : x y z
#
# Youngs Moduli (GPa) = 94.04136 51.69855 68.18128
#
# Poissons Ratio (x) = 0.09470 0.12686
# Poissons Ratio (y) = 0.17226 0.42185
# Poissons Ratio (z) = 0.17498 0.31987
#
# Static dielectric constant tensor:
#      x y z
#    x 1.584850 0.000000 0.000000 
#    y 0.000000 1.626140 0.000000 
#    z 0.000000 0.000000 1.615250 
# 
# From -- ./inp_files/40405.got.cif
#   From: 2010.05.17/outbox.cif.g08.bks.cpg/sg64_21_cif.got.tgz:40405.got - 2010.06.03 16:29:19.
