data_PCOD9476026
_publ_section_title
;
Structure prediction by ZEFSAII (Michael W. Deem and Ramdas Pophale) SiO2 
 PCOD9476026
Probable space group: C M C M
;
_chemical_formula_sum "Si O2"
_cell_formula_units_Z 112
_cell_length_a 9.378567
_cell_length_b 32.961222
_cell_length_c 25.216279
_cell_angle_alpha 90.000000
_cell_angle_beta 90.000000
_cell_angle_gamma 90.000000
_cell_volume 7795.083840
_symmetry_space_group_name_H-M "C M C M"
_symmetry_group_IT_number 63
_symmetry_cell_setting 'orthorhombic'
loop_
_space_group_symop_operation_xyz
x,y,z
-x,-y,1/2+z
x,-y,-z
-x,y,1/2-z
-x,-y,-z
x,y,1/2-z
-x,y,z
x,-y,1/2+z
1/2+x,1/2+y,z
1/2-x,1/2-y,1/2+z
1/2+x,1/2-y,-z
1/2-x,1/2+y,1/2-z
1/2-x,1/2-y,-z
1/2+x,1/2+y,1/2-z
1/2-x,1/2+y,z
1/2+x,1/2-y,1/2+z
loop_
_atom_site_type_symbol
_atom_site_label
_atom_site_fract_x
_atom_site_fract_y
_atom_site_fract_z
Si Si1 0.168963 0.382011 0.688354
Si Si2 0.328724 0.702488 0.190031
Si Si3 0.170637 0.238470 0.419540
Si Si4 0.335886 0.520449 0.941254
Si Si5 0.831082 0.553404 0.399606
Si Si6 0.828942 0.686886 0.506673
Si Si7 0.168951 0.406342 0.485096
O O1 0.188222 0.393371 0.750000
O O2 0.255110 0.340712 0.679069
O O3 0.212487 0.417733 0.648757
O O4 0.000000 0.374352 0.679614
O O5 0.287836 0.715202 0.250000
O O6 0.500000 0.697453 0.189471
O O7 0.291134 0.732524 0.141994
O O8 0.203641 0.282194 0.445207
O O9 0.250709 0.205250 0.455430
O O10 0.000000 0.232557 0.424724
O O11 0.500000 0.525664 0.925985
O O12 0.254964 0.488275 0.904389
O O13 0.255474 0.563041 0.947908
O O14 0.332480 0.500000 0.000000
O O15 0.810456 0.578320 0.454379
O O16 0.000000 0.544725 0.395277
O O17 0.787738 0.640614 0.518207
O O18 0.000000 0.687396 0.497712
O O19 0.000000 0.409588 0.473660
#
# Coordination Sequence:
#
# PCOD9476026 Si02
#       7
#    16  16  16  16  16  16  16
#     4   9  17  28  42  61  83 107 137 169 197 230
#     4   9  17  28  41  58  82 111 139 167 200 238
#     4   9  17  28  41  59  83 109 137 168 203 243
#     4   9  17  27  39  57  79 101 128 161 193 229
#     4   9  16  26  40  57  79 106 131 158 195 235
#     4   9  17  28  42  60  82 108 137 169 205 246
#     4   9  16  26  40  57  78 105 134 161 194 237
#
# _framework density 14.368029999999999
#
# number of rings (size 3 to 8) (size 9 to 14) (size 15 to 20)
#    0.000    3.000    0.000    1.286    0.000    4.571 
#    0.000    2.857    0.000    0.000    0.000    1.000 
#    0.000    5.714    0.000    0.000    0.000    0.000 
#
# Total GULP energy -311829.576911 kJ/mol
# GULP energy per Si atom -5568.385302 kJ/mol
# Density = 1.433533 g / cm^3
# Si number density = 14.368030 Si / 1000 Ang^3
#
#
#
# Elastic Constant Matrix: (Units=GPa)
#
#
# Indices 1 2 3 4 5 6 
#
# 1 29.7409 42.4742 30.9467 0.0000 0.0000 0.0000
# 2 42.4742 112.3246 49.0841 0.0000 0.0000 0.0000
# 3 30.9467 49.0841 77.8574 0.0000 0.0000 0.0000
# 4 0.0000 0.0000 0.0000 23.8909 0.0000 0.0000
# 5 0.0000 0.0000 0.0000 0.0000 15.9528 0.0000
# 6 0.0000 0.0000 0.0000 0.0000 0.0000 21.5556
#
#
#
# Elastic Compliance Matrix: (Units=1/GPa)
#
#
# Indices 1 2 3 4 5 6 
#
# 1 0.091240 -0.025747 -0.020035 0.000000 0.000000 0.000000
# 2 -0.025747 0.019553 -0.002093 0.000000 0.000000 0.000000
# 3 -0.020035 -0.002093 0.022127 0.000000 0.000000 0.000000
# 4 0.000000 0.000000 0.000000 0.041857 0.000000 0.000000
# 5 0.000000 0.000000 0.000000 0.000000 0.062685 0.000000
# 6 0.000000 0.000000 0.000000 0.000000 0.000000 0.046392
#
#
# Mechanical properties :
#
#
# Convention : Reuss Voigt Hill
#
# Bulk Modulus (GPa) = 26.90230 51.65921 39.28075
# Shear Modulus (GPa) = 12.75532 18.77439 15.76485
#
# Velocity S-wave (km/s) = 2.98276 3.61872 3.31602
# Velocity P-wave (km/s) = 5.53415 7.31386 6.48534
#
# Compressibility (1/GPa) = 0.03717155
#
# Stress axis : x y z
#
# Youngs Moduli (GPa) = 10.96010 51.14231 45.19362
#
# Poissons Ratio (x) = 1.31674 0.90543
# Poissons Ratio (y) = 0.28218 0.09461
# Poissons Ratio (z) = 0.21958 0.10706
#
# Static dielectric constant tensor:
#      x y z
#    x 1.479450 0.000000 0.000000 
#    y 0.000000 1.455440 0.000000 
#    z 0.000000 0.000000 1.471770 
# 
# From -- ./inp_files/62095.got.cif
#   From: 2010.05.17/outbox.cif.g08.bks.cpg/sg63_32_cif.got.tgz:62095.got - 2010.06.03 15:47:04.
