data_PCOD9476555
_publ_section_title
;
Structure prediction by ZEFSAII (Michael W. Deem and Ramdas Pophale) SiO2 
 PCOD9476555
Probable space group: C M C A
;
_chemical_formula_sum "Si O2"
_cell_formula_units_Z 88
_cell_length_a 19.475152
_cell_length_b 7.543030
_cell_length_c 24.351346
_cell_angle_alpha 90.000000
_cell_angle_beta 90.000000
_cell_angle_gamma 90.000000
_cell_volume 3577.253048
_symmetry_space_group_name_H-M "C M C A"
_symmetry_group_IT_number 64
_symmetry_cell_setting 'orthorhombic'
loop_
_space_group_symop_operation_xyz
x,y,z
-x,1/2-y,1/2+z
x,-y,-z
-x,1/2+y,1/2-z
-x,-y,-z
x,1/2+y,1/2-z
-x,y,z
x,1/2-y,1/2+z
1/2+x,1/2+y,z
1/2-x,-y,1/2+z
1/2+x,1/2-y,-z
1/2-x,y,1/2-z
1/2-x,1/2-y,-z
1/2+x,y,1/2-z
1/2-x,1/2+y,z
1/2+x,-y,1/2+z
loop_
_atom_site_type_symbol
_atom_site_label
_atom_site_fract_x
_atom_site_fract_y
_atom_site_fract_z
Si Si1 0.786891 0.540054 0.402795
Si Si2 0.000000 0.218138 0.622895
Si Si3 0.618900 0.371467 0.807506
Si Si4 0.577108 0.277456 0.695213
Si Si5 0.858012 0.343722 0.914043
Si Si6 0.103189 0.191496 0.023194
O O1 0.813361 0.624601 0.345433
O O2 0.821258 0.347216 0.405400
O O3 0.705961 0.526572 0.409816
O O4 0.821360 0.648412 0.452617
O O5 0.938508 0.238686 0.669434
O O6 0.941184 0.241629 0.573778
O O7 0.628644 0.335130 0.743131
O O8 0.585242 0.567013 0.813069
O O9 0.500000 0.322035 0.712226
O O10 0.590381 0.365165 0.636198
O O11 0.894171 0.323803 0.972168
O O12 0.078030 0.000000 0.000000
#
# Coordination Sequence:
#
# PCOD9476555 Si02
#       6
#    16   8  16  16  16  16
#     4   9  20  37  54  83 112 147 187 217 276 323
#     4  10  17  32  54  82 111 142 179 228 274 330
#     4  10  21  36  57  82 111 148 183 229 271 327
#     4  11  21  36  57  84 114 141 186 230 275 323
#     4  10  21  35  57  85 113 144 182 229 269 329
#     4   9  18  30  55  83 110 141 180 226 273 326
#
# _framework density 24.599881
#
# number of rings (size 3 to 8) (size 9 to 14) (size 15 to 20)
#    0.000    2.182    1.818    1.909    1.273    2.182 
#    0.000    3.636    0.000    0.000    0.000    3.818 
#    0.000    0.000    0.000    0.000    0.000    0.000 
#
# Total GULP energy -245285.938861 kJ/mol
# GULP energy per Si atom -5574.680429 kJ/mol
# Density = 2.454389 g / cm^3
# Si number density = 24.599881 Si / 1000 Ang^3
#
#
#
# Elastic Constant Matrix: (Units=GPa)
#
#
# Indices 1 2 3 4 5 6 
#
# 1 46.9131 -2.6461 3.0730 0.0000 0.0000 0.0000
# 2 -2.6461 82.2618 16.0041 0.0000 0.0000 0.0000
# 3 3.0730 16.0041 139.4075 0.0000 0.0000 0.0000
# 4 0.0000 0.0000 0.0000 25.4828 0.0000 0.0000
# 5 0.0000 0.0000 0.0000 0.0000 15.4696 0.0000
# 6 0.0000 0.0000 0.0000 0.0000 0.0000 1.8249
#
#
#
# Elastic Compliance Matrix: (Units=1/GPa)
#
#
# Indices 1 2 3 4 5 6 
#
# 1 0.021398 0.000798 -0.000563 0.000000 0.000000 0.000000
# 2 0.000798 0.012464 -0.001448 0.000000 0.000000 0.000000
# 3 -0.000563 -0.001448 0.007352 0.000000 0.000000 0.000000
# 4 0.000000 0.000000 0.000000 0.039242 0.000000 0.000000
# 5 0.000000 0.000000 0.000000 0.000000 0.064643 0.000000
# 6 0.000000 0.000000 0.000000 0.000000 0.000000 0.547974
#
#
# Mechanical properties :
#
#
# Convention : Reuss Voigt Hill
#
# Bulk Modulus (GPa) = 25.78255 33.49383 29.63819
# Shear Modulus (GPa) = 7.05787 25.36554 16.21171
#
# Velocity S-wave (km/s) = 1.69567 3.21460 2.56991
# Velocity P-wave (km/s) = 3.78646 5.23671 4.56949
#
# Compressibility (1/GPa) = 0.03878592
#
# Stress axis : x y z
#
# Youngs Moduli (GPa) = 46.73353 80.23252 136.01896
#
# Poissons Ratio (x) = -0.06402 0.07662
# Poissons Ratio (y) = -0.03729 0.19702
# Poissons Ratio (z) = 0.02632 0.11621
#
# Static dielectric constant tensor:
#      x y z
#    x 1.887340 0.000000 0.000000 
#    y 0.000000 2.080420 0.000000 
#    z 0.000000 0.000000 1.901560 
# 
# From -- ./inp_files/46181.got.cif
#   From: 2010.05.17/outbox.cif.g08.bks.cpg/sg64_24_cif.got.tgz:46181.got - 2010.06.03 16:29:19.
