data_PCOD9476630
_publ_section_title
;
Structure prediction by ZEFSAII (Michael W. Deem and Ramdas Pophale) SiO2 
 PCOD9476630
Probable space group: C M C A
;
_chemical_formula_sum "Si O2"
_cell_formula_units_Z 48
_cell_length_a 5.408267
_cell_length_b 14.376913
_cell_length_c 32.143515
_cell_angle_alpha 90.000000
_cell_angle_beta 90.000000
_cell_angle_gamma 90.000000
_cell_volume 2499.292784
_symmetry_space_group_name_H-M "C M C A"
_symmetry_group_IT_number 64
_symmetry_cell_setting 'orthorhombic'
loop_
_space_group_symop_operation_xyz
x,y,z
-x,1/2-y,1/2+z
x,-y,-z
-x,1/2+y,1/2-z
-x,-y,-z
x,1/2+y,1/2-z
-x,y,z
x,1/2-y,1/2+z
1/2+x,1/2+y,z
1/2-x,-y,1/2+z
1/2+x,1/2-y,-z
1/2-x,y,1/2-z
1/2-x,1/2-y,-z
1/2+x,y,1/2-z
1/2-x,1/2+y,z
1/2+x,-y,1/2+z
loop_
_atom_site_type_symbol
_atom_site_label
_atom_site_fract_x
_atom_site_fract_y
_atom_site_fract_z
Si Si1 0.500000 0.693990 0.449883
Si Si2 0.000000 0.893765 0.233529
Si Si3 0.500000 0.106235 0.266471
Si Si4 0.000000 0.693990 0.949883
Si Si5 0.000000 0.500000 0.098577
Si Si6 0.500000 1.000000 0.347596
O O1 0.750000 0.750000 0.438362
O O2 0.500000 0.684026 0.500000
O O3 0.500000 0.593136 0.429008
O O4 0.250000 0.850569 0.250000
O O5 0.000000 0.000000 0.252621
O O6 0.000000 0.912549 0.184370
O O7 0.250000 0.149431 0.250000
O O8 0.500000 0.087451 0.315630
O O9 0.000000 0.593136 0.929008
O O10 0.750034 0.500000 0.125986
#
# Coordination Sequence:
#
# PCOD9476630 Si02
#       6
#     8   8   8   8   8   8
#     4  10  22  40  58  77 106 144 182 217 261 324
#     4   8  13  24  40  62 104 140 168 212 248 300
#     4   8  13  24  40  62 104 140 168 212 248 300
#     4  10  22  40  58  77 106 144 182 217 261 324
#     4  12  21  33  56  84 111 136 175 226 276 311
#     4  10  18  27  45  80 113 134 171 226 265 307
#
# _framework density 19.205434
#
# number of rings (size 3 to 8) (size 9 to 14) (size 15 to 20)
#    1.000    1.333    0.000    4.500    0.000    0.000 
#    0.000    6.667    0.000    0.000    0.000    0.000 
#    0.000  373.333    0.000    0.000    0.000    0.000 
#
# Total GULP energy -133726.386212 kJ/mol
# GULP energy per Si atom -5571.932759 kJ/mol
# Density = 1.916172 g / cm^3
# Si number density = 19.205434 Si / 1000 Ang^3
#
#
#
# Elastic Constant Matrix: (Units=GPa)
#
#
# Indices 1 2 3 4 5 6 
#
# 1 247.4275 82.0394 75.0520 0.0000 0.0000 0.0000
# 2 82.0394 146.4365 63.1650 0.0000 0.0000 0.0000
# 3 75.0520 63.1650 70.7076 0.0000 0.0000 0.0000
# 4 0.0000 0.0000 0.0000 -55.1453 0.0000 0.0000
# 5 0.0000 0.0000 0.0000 0.0000 25.5816 0.0000
# 6 0.0000 0.0000 0.0000 0.0000 0.0000 -6.8071
#
#
#
# Elastic Compliance Matrix: (Units=1/GPa)
#
#
# Indices 1 2 3 4 5 6 
#
# 1 0.006051 -0.001008 -0.005522 0.000000 0.000000 0.000000
# 2 -0.001008 0.011278 -0.009005 0.000000 0.000000 0.000000
# 3 -0.005522 -0.009005 0.028049 0.000000 0.000000 0.000000
# 4 0.000000 0.000000 0.000000 -0.018134 0.000000 0.000000
# 5 0.000000 0.000000 0.000000 0.000000 0.039091 0.000000
# 6 0.000000 0.000000 0.000000 0.000000 0.000000 -0.146906
#
#
# Mechanical properties :
#
#
# Convention : Reuss Voigt Hill
#
# Bulk Modulus (GPa) = 69.89517 100.56496 85.23006
# Shear Modulus (GPa) = -111.77454 9.01353 -51.38050
#
# Velocity S-wave (km/s) = -7.63713 2.16873 -5.17795
# Velocity P-wave (km/s) = 6.42614 7.66470 2.95401
#
# Compressibility (1/GPa) = 0.01430714
#
# Stress axis : x y z
#
# Youngs Moduli (GPa) = 165.26660 88.66941 35.65236
#
# Poissons Ratio (x) = 0.08937 0.19688
# Poissons Ratio (y) = 0.16658 0.32105
# Poissons Ratio (z) = 0.91264 0.79846
#
# Static dielectric constant tensor:
#      x y z
#    x 1.615750 0.000000 0.000000 
#    y 0.000000 1.655400 0.000000 
#    z 0.000000 0.000000 1.644050 
# 
# From -- ./inp_files/51373.got.cif
#   From: 2010.05.17/outbox.cif.g08.bks.cpg/sg64_26_cif.got.tgz:51373.got - 2010.06.03 16:29:19.
