data_PCOD9476572
_publ_section_title
;
Structure prediction by ZEFSAII (Michael W. Deem and Ramdas Pophale) SiO2 
 PCOD9476572
Probable space group: C M C A
;
_chemical_formula_sum "Si O2"
_cell_formula_units_Z 96
_cell_length_a 19.715108
_cell_length_b 14.391830
_cell_length_c 16.259704
_cell_angle_alpha 90.000000
_cell_angle_beta 90.000000
_cell_angle_gamma 90.000000
_cell_volume 4613.471224
_symmetry_space_group_name_H-M "C M C A"
_symmetry_group_IT_number 64
_symmetry_cell_setting 'orthorhombic'
loop_
_space_group_symop_operation_xyz
x,y,z
-x,1/2-y,1/2+z
x,-y,-z
-x,1/2+y,1/2-z
-x,-y,-z
x,1/2+y,1/2-z
-x,y,z
x,1/2-y,1/2+z
1/2+x,1/2+y,z
1/2-x,-y,1/2+z
1/2+x,1/2-y,-z
1/2-x,y,1/2-z
1/2-x,1/2-y,-z
1/2+x,y,1/2-z
1/2-x,1/2+y,z
1/2+x,-y,1/2+z
loop_
_atom_site_type_symbol
_atom_site_label
_atom_site_fract_x
_atom_site_fract_y
_atom_site_fract_z
Si Si1 0.710717 0.151373 0.991995
Si Si2 0.076436 0.921796 0.219447
Si Si3 0.576797 0.856866 0.728966
Si Si4 0.719037 0.870431 0.335217
Si Si5 0.790937 0.844644 0.673607
Si Si6 0.421136 0.811502 0.110336
O O1 0.748463 0.095849 0.919718
O O2 0.634243 0.167837 0.959035
O O3 0.750000 0.250000 0.000000
O O4 0.712877 0.111418 0.083898
O O5 0.138563 0.882792 0.167356
O O6 0.086555 0.883531 0.312806
O O7 0.000000 0.893413 0.195139
O O8 0.080108 0.033223 0.213207
O O9 0.500000 0.833984 0.754189
O O10 0.631665 0.837098 0.798084
O O11 0.591789 0.790085 0.651299
O O12 0.750000 0.908204 0.250000
O O13 0.736159 0.760675 0.333511
O O14 0.750000 0.887996 0.750000
O O15 0.500000 0.815669 0.083553
#
# Coordination Sequence:
#
# PCOD9476572 Si02
#       6
#    16  16  16  16  16  16
#     4  10  20  34  60  89 118 158 200 248 290 353
#     4  10  20  34  59  89 116 155 199 238 290 358
#     4  10  20  35  59  88 116 152 197 241 291 353
#     4  10  17  33  58  83 115 152 192 234 294 349
#     4  10  20  36  59  84 116 153 202 244 295 347
#     4  10  19  37  61  86 120 158 194 241 301 355
#
# _framework density 20.808627000000001
#
# number of rings (size 3 to 8) (size 9 to 14) (size 15 to 20)
#    0.000    2.000    3.333    2.000    0.000    1.333 
#    0.000    3.333    3.667    7.000    0.000   25.667 
#    0.000    0.000    0.000    0.000    0.000    0.000 
#
# Total GULP energy -267732.849589 kJ/mol
# GULP energy per Si atom -5577.767700 kJ/mol
# Density = 2.076127 g / cm^3
# Si number density = 20.808627 Si / 1000 Ang^3
#
#
#
# Elastic Constant Matrix: (Units=GPa)
#
#
# Indices 1 2 3 4 5 6 
#
# 1 137.1504 14.7699 87.8816 0.0000 0.0000 0.0000
# 2 14.7699 93.9852 24.5167 0.0000 0.0000 0.0000
# 3 87.8816 24.5167 179.5396 0.0000 0.0000 0.0000
# 4 0.0000 0.0000 0.0000 -8.1480 0.0000 0.0000
# 5 0.0000 0.0000 0.0000 0.0000 33.1252 0.0000
# 6 0.0000 0.0000 0.0000 0.0000 0.0000 66.1447
#
#
#
# Elastic Compliance Matrix: (Units=1/GPa)
#
#
# Indices 1 2 3 4 5 6 
#
# 1 0.010633 -0.000325 -0.005160 0.000000 0.000000 0.000000
# 2 -0.000325 0.011043 -0.001349 0.000000 0.000000 0.000000
# 3 -0.005160 -0.001349 0.008280 0.000000 0.000000 0.000000
# 4 0.000000 0.000000 0.000000 -0.122730 0.000000 0.000000
# 5 0.000000 0.000000 0.000000 0.000000 0.030188 0.000000
# 6 0.000000 0.000000 0.000000 0.000000 0.000000 0.015118
#
#
# Mechanical properties :
#
#
# Convention : Reuss Voigt Hill
#
# Bulk Modulus (GPa) = 61.39679 73.89018 67.64348
# Shear Modulus (GPa) = -176.23795 37.12486 -69.55654
#
# Velocity S-wave (km/s) = -9.21295 4.22845 -5.78786
# Velocity P-wave (km/s) = 9.14341 7.70884 3.47675
#
# Compressibility (1/GPa) = 0.01628750
#
# Stress axis : x y z
#
# Youngs Moduli (GPa) = 94.04926 90.55591 120.77557
#
# Poissons Ratio (x) = 0.02942 0.62322
# Poissons Ratio (y) = 0.03055 0.16292
# Poissons Ratio (z) = 0.48531 0.12215
#
# Static dielectric constant tensor:
#      x y z
#    x 1.747570 0.000000 0.000000 
#    y 0.000000 1.789880 0.000000 
#    z 0.000000 0.000000 1.781400 
# 
# From -- ./inp_files/26356.got.cif
#   From: 2010.05.17/outbox.cif.g08.bks.cpg/sg64_14_cif.got.tgz:26356.got - 2010.06.03 16:29:19.
