data_PCOD9476784
_publ_section_title
;
Structure prediction by ZEFSAII (Michael W. Deem and Ramdas Pophale) SiO2 
 PCOD9476784
Probable space group: C M C A
;
_chemical_formula_sum "Si O2"
_cell_formula_units_Z 112
_cell_length_a 19.803794
_cell_length_b 23.781322
_cell_length_c 12.528368
_cell_angle_alpha 90.000000
_cell_angle_beta 90.000000
_cell_angle_gamma 90.000000
_cell_volume 5900.365229
_symmetry_space_group_name_H-M "C M C A"
_symmetry_group_IT_number 64
_symmetry_cell_setting 'orthorhombic'
loop_
_space_group_symop_operation_xyz
x,y,z
-x,1/2-y,1/2+z
x,-y,-z
-x,1/2+y,1/2-z
-x,-y,-z
x,1/2+y,1/2-z
-x,y,z
x,1/2-y,1/2+z
1/2+x,1/2+y,z
1/2-x,-y,1/2+z
1/2+x,1/2-y,-z
1/2-x,y,1/2-z
1/2-x,1/2-y,-z
1/2+x,y,1/2-z
1/2-x,1/2+y,z
1/2+x,-y,1/2+z
loop_
_atom_site_type_symbol
_atom_site_label
_atom_site_fract_x
_atom_site_fract_y
_atom_site_fract_z
Si Si1 0.325038 0.845894 0.711684
Si Si2 0.920863 0.595910 0.124340
Si Si3 0.158794 0.487349 0.152401
Si Si4 0.800952 0.650837 0.536324
Si Si5 0.170929 0.215313 0.767232
Si Si6 0.186559 0.475965 0.390787
Si Si7 0.645356 0.141045 0.924011
O O1 0.250000 0.863766 0.750000
O O2 0.380721 0.881315 0.773326
O O3 0.334463 0.781102 0.746240
O O4 0.173073 0.850694 0.915845
O O5 0.888744 0.534499 0.102589
O O6 0.000000 0.592111 0.141181
O O7 0.903703 0.636848 0.024917
O O8 0.151183 0.490303 0.280344
O O9 0.236861 0.499443 0.121686
O O10 0.148193 0.422784 0.119770
O O11 0.838618 0.696304 0.610657
O O12 0.809684 0.591014 0.594730
O O13 0.719638 0.659449 0.532808
O O14 0.250000 0.199214 0.750000
O O15 0.130557 0.181110 0.676735
O O16 0.156914 0.500000 0.500000
#
# Coordination Sequence:
#
# PCOD9476784 Si02
#       7
#    16  16  16  16  16  16  16
#     4  11  23  37  63  91 122 160 203 252 306 356
#     4  12  26  40  57  86 126 162 201 249 301 360
#     4  10  20  34  55  85 119 155 193 238 294 362
#     4  10  18  35  60  95 125 147 193 257 299 350
#     4   9  20  34  60  95 122 151 194 251 306 354
#     4  10  18  30  56  90 120 151 189 244 303 354
#     4  10  19  37  59  89 124 153 192 242 305 361
#
# _framework density 18.981874999999999
#
# number of rings (size 3 to 8) (size 9 to 14) (size 15 to 20)
#    0.000    1.714    2.857    3.000    4.000    2.857 
#    0.000    0.714    0.000    4.714    0.000    0.000 
#    0.000    0.000    0.000    0.000    0.000    0.000 
#
# Total GULP energy -312620.773678 kJ/mol
# GULP energy per Si atom -5582.513816 kJ/mol
# Density = 1.893867 g / cm^3
# Si number density = 18.981875 Si / 1000 Ang^3
#
#
#
# Elastic Constant Matrix: (Units=GPa)
#
#
# Indices 1 2 3 4 5 6 
#
# 1 66.2879 38.5433 31.5608 0.0000 0.0000 0.0000
# 2 38.5433 68.1982 31.7590 0.0000 0.0000 0.0000
# 3 31.5608 31.7590 147.4521 0.0000 0.0000 0.0000
# 4 0.0000 0.0000 0.0000 10.7235 0.0000 0.0000
# 5 0.0000 0.0000 0.0000 0.0000 12.5076 0.0000
# 6 0.0000 0.0000 0.0000 0.0000 0.0000 -0.7170
#
#
#
# Elastic Compliance Matrix: (Units=1/GPa)
#
#
# Indices 1 2 3 4 5 6 
#
# 1 0.023198 -0.012002 -0.002380 0.000000 0.000000 0.000000
# 2 -0.012002 0.022508 -0.002279 0.000000 0.000000 0.000000
# 3 -0.002380 -0.002279 0.007782 0.000000 0.000000 0.000000
# 4 0.000000 0.000000 0.000000 0.093253 0.000000 0.000000
# 5 0.000000 0.000000 0.000000 0.000000 0.079951 0.000000
# 6 0.000000 0.000000 0.000000 0.000000 0.000000 -1.394701
#
#
# Mechanical properties :
#
#
# Convention : Reuss Voigt Hill
#
# Bulk Modulus (GPa) = 49.59068 53.96273 51.77671
# Shear Modulus (GPa) = -4.43276 16.50783 6.03754
#
# Velocity S-wave (km/s) = -1.52981 2.95220 1.78538
# Velocity P-wave (km/s) = 4.80225 6.33332 5.62017
#
# Compressibility (1/GPa) = 0.02016508
#
# Stress axis : x y z
#
# Youngs Moduli (GPa) = 43.10793 44.42950 128.49916
#
# Poissons Ratio (x) = 0.53325 0.30585
# Poissons Ratio (y) = 0.51739 0.29283
# Poissons Ratio (z) = 0.10260 0.10125
#
# Static dielectric constant tensor:
#      x y z
#    x 1.618630 0.000000 0.000000 
#    y 0.000000 1.686130 0.000000 
#    z 0.000000 0.000000 1.724040 
# 
# From -- ./inp_files/17557.got.cif
#   From: 2010.05.17/outbox.cif.g08.bks.cpg/sg64_9_cif.got.tgz:17557.got - 2010.06.03 16:29:19.
