data_PCOD9476340
_publ_section_title
;
Structure prediction by ZEFSAII (Michael W. Deem and Ramdas Pophale) SiO2 
 PCOD9476340
Probable space group: C M C A
;
_chemical_formula_sum "Si O2"
_cell_formula_units_Z 80
_cell_length_a 21.049989
_cell_length_b 12.070352
_cell_length_c 12.011350
_cell_angle_alpha 90.000000
_cell_angle_beta 90.000000
_cell_angle_gamma 90.000000
_cell_volume 3051.853139
_symmetry_space_group_name_H-M "C M C A"
_symmetry_group_IT_number 64
_symmetry_cell_setting 'orthorhombic'
loop_
_space_group_symop_operation_xyz
x,y,z
-x,1/2-y,1/2+z
x,-y,-z
-x,1/2+y,1/2-z
-x,-y,-z
x,1/2+y,1/2-z
-x,y,z
x,1/2-y,1/2+z
1/2+x,1/2+y,z
1/2-x,-y,1/2+z
1/2+x,1/2-y,-z
1/2-x,y,1/2-z
1/2-x,1/2-y,-z
1/2+x,y,1/2-z
1/2-x,1/2+y,z
1/2+x,-y,1/2+z
loop_
_atom_site_type_symbol
_atom_site_label
_atom_site_fract_x
_atom_site_fract_y
_atom_site_fract_z
Si Si1 0.570225 0.349480 0.457811
Si Si2 0.188499 0.363693 0.180459
Si Si3 0.399112 0.098965 0.423066
Si Si4 0.746649 0.871782 0.534031
Si Si5 0.138951 0.153135 0.309867
O O1 0.500000 0.394872 0.437774
O O2 0.626281 0.408554 0.386562
O O3 0.568078 0.218172 0.428735
O O4 0.591322 0.349033 0.586775
O O5 0.250000 0.409304 0.250000
O O6 0.152741 0.275175 0.258988
O O7 0.225305 0.306224 0.074781
O O8 0.328837 0.122498 0.467909
O O9 0.385621 0.077326 0.292210
O O10 0.425410 0.000000 0.500000
O O11 0.791266 0.870995 0.642331
O O12 0.761476 0.000000 0.500000
#
# Coordination Sequence:
#
# PCOD9476340 Si02
#       5
#    16  16  16  16  16
#     4  10  21  35  54  83 118 168 220 255 310 393
#     4  10  16  29  56  86 111 148 198 257 316 358
#     4  11  22  35  56  91 126 157 203 271 344 389
#     4  11  16  31  57  84 115 157 199 250 318 391
#     4  10  17  33  56  80 116 162 206 260 307 384
#
# _framework density 26.213581000000001
#
# number of rings (size 3 to 8) (size 9 to 14) (size 15 to 20)
#    0.000    1.600    8.000    0.600    0.000    3.600 
#    0.000    6.000    0.000    0.000    0.000    0.000 
#    0.000   25.600    0.000    0.000    0.000    5.400 
#
# Total GULP energy -223198.053792 kJ/mol
# GULP energy per Si atom -5579.951345 kJ/mol
# Density = 2.615392 g / cm^3
# Si number density = 26.213581 Si / 1000 Ang^3
#
#
#
# Elastic Constant Matrix: (Units=GPa)
#
#
# Indices 1 2 3 4 5 6 
#
# 1 208.3227 22.1018 56.7223 0.0000 0.0000 0.0000
# 2 22.1018 44.6544 17.9525 0.0000 0.0000 0.0000
# 3 56.7223 17.9525 149.1670 0.0000 0.0000 0.0000
# 4 0.0000 0.0000 0.0000 45.9653 0.0000 0.0000
# 5 0.0000 0.0000 0.0000 0.0000 1.3580 0.0000
# 6 0.0000 0.0000 0.0000 0.0000 0.0000 8.8938
#
#
#
# Elastic Compliance Matrix: (Units=1/GPa)
#
#
# Indices 1 2 3 4 5 6 
#
# 1 0.005517 -0.001983 -0.001859 0.000000 0.000000 0.000000
# 2 -0.001983 0.024246 -0.002164 0.000000 0.000000 0.000000
# 3 -0.001859 -0.002164 0.007671 0.000000 0.000000 0.000000
# 4 0.000000 0.000000 0.000000 0.021756 0.000000 0.000000
# 5 0.000000 0.000000 0.000000 0.000000 0.736394 0.000000
# 6 0.000000 0.000000 0.000000 0.000000 0.000000 0.112437
#
#
# Mechanical properties :
#
#
# Convention : Reuss Voigt Hill
#
# Bulk Modulus (GPa) = 39.33684 66.18860 52.76272
# Shear Modulus (GPa) = 5.38499 31.60125 18.49312
#
# Velocity S-wave (km/s) = 1.43483 3.47584 2.65897
# Velocity P-wave (km/s) = 4.21709 6.43531 5.44045
#
# Compressibility (1/GPa) = 0.02542146
#
# Stress axis : x y z
#
# Youngs Moduli (GPa) = 181.26256 41.24434 130.35607
#
# Poissons Ratio (x) = 0.08179 0.24235
# Poissons Ratio (y) = 0.35947 0.28208
# Poissons Ratio (z) = 0.33700 0.08925
#
# Static dielectric constant tensor:
#      x y z
#    x 1.948320 0.000000 0.000000 
#    y 0.000000 -2.210240 0.000000 
#    z 0.000000 0.000000 2.114650 
# 
# From -- ./inp_files/18089.got.cif
#   From: 2010.05.17/outbox.cif.g08.bks.cpg/sg64_10_cif.got.tgz:18089.got - 2010.06.03 16:29:19.
