data_PCOD9476085
_publ_section_title
;
Structure prediction by ZEFSAII (Michael W. Deem and Ramdas Pophale) SiO2 
 PCOD9476085
Probable space group: C M C M
;
_chemical_formula_sum "Si O2"
_cell_formula_units_Z 40
_cell_length_a 27.000000
_cell_length_b 18.000000
_cell_length_c 9.000000
_cell_angle_alpha 90.000000
_cell_angle_beta 90.000000
_cell_angle_gamma 90.000000
_cell_volume 4374.000000
_symmetry_space_group_name_H-M "C M C M"
_symmetry_group_IT_number 63
_symmetry_cell_setting 'orthorhombic'
loop_
_space_group_symop_operation_xyz
x,y,z
-x,-y,1/2+z
x,-y,-z
-x,y,1/2-z
-x,-y,-z
x,y,1/2-z
-x,y,z
x,-y,1/2+z
1/2+x,1/2+y,z
1/2-x,1/2-y,1/2+z
1/2+x,1/2-y,-z
1/2-x,1/2+y,1/2-z
1/2-x,1/2-y,-z
1/2+x,1/2+y,1/2-z
1/2-x,1/2+y,z
1/2+x,1/2-y,1/2+z
loop_
_atom_site_type_symbol
_atom_site_label
_atom_site_fract_x
_atom_site_fract_y
_atom_site_fract_z
Si Si1 0.802158 0.081123 0.070817
Si Si2 0.000000 0.160391 0.919782
Si Si3 0.000000 0.658230 0.421933
Si Si4 0.400200 0.662223 0.423141
Si Si5 0.601022 0.840608 0.077146
Si Si6 0.692804 0.918669 0.927630
O O1 0.804076 0.075177 0.250000
O O2 0.848794 0.129026 0.019364
O O3 0.747589 0.112235 0.034296
O O4 0.805675 0.000000 0.000000
O O5 0.000000 0.138154 0.750000
O O6 0.000000 0.251093 0.927394
O O7 0.949420 0.135091 0.995709
O O8 0.950191 0.633049 0.503502
O O9 0.000000 0.636339 0.250000
O O10 0.404859 0.642925 0.250000
O O11 0.398369 0.751279 0.433073
O O12 0.602645 0.861657 0.250000
O O13 0.648293 0.871353 0.992360
O O14 0.688863 0.924302 0.750000
O O15 0.690015 0.000000 0.000000
#
# Coordination Sequence:
#
# PCOD9476085 Si02
#       6
#    16   8   8  16  16  16
#     4   9  19  35  53  73  99 133 170 207 249 296
#     4   9  17  29  48  75 102 129 165 206 247 293
#     4   9  17  31  50  73 102 133 164 202 248 293
#     4   9  18  33  52  74 102 134 166 203 249 298
#     4  10  19  32  52  77 103 132 166 203 246 297
#     4  10  20  35  53  73 100 133 168 206 249 296
#
# _framework density 9.1449470000000002
#
# number of rings (size 3 to 8) (size 9 to 14) (size 15 to 20)
#    0.000    2.600    0.000    1.800    0.000    5.600 
#    0.000    1.000    0.000    0.000    0.000    0.000 
#    0.000    0.000    0.000    0.000    0.000    0.000 
#
# Total GULP energy -222969.156495 kJ/mol
# GULP energy per Si atom -5574.228912 kJ/mol
# Density = 0.912413 g / cm^3
# Si number density = 9.144947 Si / 1000 Ang^3
#
#
#
# Elastic Constant Matrix: (Units=GPa)
#
#
# Indices 1 2 3 4 5 6 
#
# 1 218.7262 36.5612 98.6461 0.0000 0.0000 0.0000
# 2 36.5612 -0.9902 27.9103 0.0000 0.0000 0.0000
# 3 98.6461 27.9103 85.7619 0.0000 0.0000 0.0000
# 4 0.0000 0.0000 0.0000 18.3763 0.0000 0.0000
# 5 0.0000 0.0000 0.0000 0.0000 -688.7594 0.0000
# 6 0.0000 0.0000 0.0000 0.0000 0.0000 26.5595
#
#
#
# Elastic Compliance Matrix: (Units=1/GPa)
#
#
# Indices 1 2 3 4 5 6 
#
# 1 0.009325 0.004127 -0.012070 0.000000 0.000000 0.000000
# 2 0.004127 -0.097446 0.026966 0.000000 0.000000 0.000000
# 3 -0.012070 0.026966 0.016767 0.000000 0.000000 0.000000
# 4 0.000000 0.000000 0.000000 0.054418 0.000000 0.000000
# 5 0.000000 0.000000 0.000000 0.000000 -0.001452 0.000000
# 6 0.000000 0.000000 0.000000 0.000000 0.000000 0.037651
#
#
# Mechanical properties :
#
#
# Convention : Reuss Voigt Hill
#
# Bulk Modulus (GPa) = -30.02398 69.97035 19.97318
# Shear Modulus (GPa) = -167.31355 -119.40603 -143.35979
#
# Velocity S-wave (km/s) = -9.57482 -8.08869 -8.86296
# Velocity P-wave (km/s) = 11.77657 6.99261 9.68463
#
# Compressibility (1/GPa) = -0.03330671
#
# Stress axis : x y z
#
# Youngs Moduli (GPa) = 107.23312 -10.26214 59.64006
#
# Poissons Ratio (x) = 0.04235 0.71983
# Poissons Ratio (y) = -0.44254 -1.60824
# Poissons Ratio (z) = 1.29425 0.27673
#
# Static dielectric constant tensor:
#      x y z
#    x 1.640670 0.000000 0.000000 
#    y 0.000000 1.608470 0.000000 
#    z 0.000000 0.000000 1.612130 
# 
# From -- ./inp_files/10116.got.cif
#   From: 2010.05.17/outbox.ucp.g08.bks.cvg/sg63_6_cif.got.tgz:10116.got - 2010.06.11 16:32:19.
