data_PCOD9476587
_publ_section_title
;
Structure prediction by ZEFSAII (Michael W. Deem and Ramdas Pophale) SiO2 
 PCOD9476587
Probable space group: C M C A
;
_chemical_formula_sum "Si O2"
_cell_formula_units_Z 96
_cell_length_a 19.450162
_cell_length_b 15.755342
_cell_length_c 19.046819
_cell_angle_alpha 90.000000
_cell_angle_beta 90.000000
_cell_angle_gamma 90.000000
_cell_volume 5836.782531
_symmetry_space_group_name_H-M "C M C A"
_symmetry_group_IT_number 64
_symmetry_cell_setting 'orthorhombic'
loop_
_space_group_symop_operation_xyz
x,y,z
-x,1/2-y,1/2+z
x,-y,-z
-x,1/2+y,1/2-z
-x,-y,-z
x,1/2+y,1/2-z
-x,y,z
x,1/2-y,1/2+z
1/2+x,1/2+y,z
1/2-x,-y,1/2+z
1/2+x,1/2-y,-z
1/2-x,y,1/2-z
1/2-x,1/2-y,-z
1/2+x,y,1/2-z
1/2-x,1/2+y,z
1/2+x,-y,1/2+z
loop_
_atom_site_type_symbol
_atom_site_label
_atom_site_fract_x
_atom_site_fract_y
_atom_site_fract_z
Si Si1 0.281245 0.395564 0.820659
Si Si2 0.840995 0.971606 0.078423
Si Si3 0.918582 0.316951 0.349356
Si Si4 0.786387 0.648347 0.927803
Si Si5 0.675918 0.294581 0.283401
Si Si6 0.820944 0.306790 0.922057
O O1 0.250000 0.436272 0.750000
O O2 0.332561 0.452194 0.866310
O O3 0.316986 0.306551 0.798142
O O4 0.216570 0.371585 0.869992
O O5 0.890719 0.899373 0.109019
O O6 0.764594 0.931068 0.072809
O O7 0.861230 0.000000 0.000000
O O8 0.881630 0.314480 0.273562
O O9 0.888923 0.234768 0.390367
O O10 0.000000 0.316904 0.344376
O O11 0.830409 0.657561 0.857335
O O12 0.733911 0.728832 0.925592
O O13 0.827185 0.655767 0.000271
O O14 0.750000 0.319071 0.250000
#
# Coordination Sequence:
#
# PCOD9476587 Si02
#       6
#    16  16  16  16  16  16
#     4  10  18  30  56  87 106 130 188 250 279 315
#     4  11  21  32  55  89 118 144 179 239 302 337
#     4  11  23  38  54  79 121 158 183 225 290 350
#     4   9  17  29  54  81 106 135 185 238 272 317
#     4  10  17  35  56  79 102 141 198 240 266 321
#     4   9  16  33  53  77 105 141 187 228 269 325
#
# _framework density 16.447417999999999
#
# number of rings (size 3 to 8) (size 9 to 14) (size 15 to 20)
#    0.000    2.000    8.333    0.000    4.667    0.333 
#    0.000    1.667    0.000    0.000    0.000    1.167 
#    0.000    0.000    0.000    0.000    0.000    0.000 
#
# Total GULP energy -267514.741495 kJ/mol
# GULP energy per Si atom -5573.223781 kJ/mol
# Density = 1.640998 g / cm^3
# Si number density = 16.447418 Si / 1000 Ang^3
#
#
#
# Elastic Constant Matrix: (Units=GPa)
#
#
# Indices 1 2 3 4 5 6 
#
# 1 106.0021 27.3489 58.2006 0.0000 0.0000 0.0000
# 2 27.3489 31.6455 27.3277 0.0000 0.0000 0.0000
# 3 58.2006 27.3277 153.3394 0.0000 0.0000 0.0000
# 4 0.0000 0.0000 0.0000 19.8287 0.0000 0.0000
# 5 0.0000 0.0000 0.0000 0.0000 14.9281 0.0000
# 6 0.0000 0.0000 0.0000 0.0000 0.0000 10.2515
#
#
#
# Elastic Compliance Matrix: (Units=1/GPa)
#
#
# Indices 1 2 3 4 5 6 
#
# 1 0.013671 -0.008668 -0.003644 0.000000 0.000000 0.000000
# 2 -0.008668 0.042844 -0.004346 0.000000 0.000000 0.000000
# 3 -0.003644 -0.004346 0.008679 0.000000 0.000000 0.000000
# 4 0.000000 0.000000 0.000000 0.050432 0.000000 0.000000
# 5 0.000000 0.000000 0.000000 0.000000 0.066988 0.000000
# 6 0.000000 0.000000 0.000000 0.000000 0.000000 0.097547
#
#
# Mechanical properties :
#
#
# Convention : Reuss Voigt Hill
#
# Bulk Modulus (GPa) = 31.36893 57.41571 44.39232
# Shear Modulus (GPa) = 15.42725 20.87564 18.15145
#
# Velocity S-wave (km/s) = 3.06596 3.56650 3.32566
# Velocity P-wave (km/s) = 5.62558 7.20724 6.46496
#
# Compressibility (1/GPa) = 0.03187868
#
# Stress axis : x y z
#
# Youngs Moduli (GPa) = 73.14803 23.34060 115.21977
#
# Poissons Ratio (x) = 0.20231 0.41987
# Poissons Ratio (y) = 0.63404 0.50070
# Poissons Ratio (z) = 0.26656 0.10143
#
# Static dielectric constant tensor:
#      x y z
#    x 1.505260 0.000000 0.000000 
#    y 0.000000 1.593690 0.000000 
#    z 0.000000 0.000000 1.599400 
# 
# From -- ./inp_files/34420.got.cif
#   From: 2010.05.17/outbox.cif.g08.bks.cpg/sg64_18_cif.got.tgz:34420.got - 2010.06.03 16:29:19.
