data_PCOD9476581
_publ_section_title
;
Structure prediction by ZEFSAII (Michael W. Deem and Ramdas Pophale) SiO2 
 PCOD9476581
Probable space group: C M C A
;
_chemical_formula_sum "Si O2"
_cell_formula_units_Z 72
_cell_length_a 14.582964
_cell_length_b 23.055913
_cell_length_c 10.842357
_cell_angle_alpha 90.000000
_cell_angle_beta 90.000000
_cell_angle_gamma 90.000000
_cell_volume 3645.455753
_symmetry_space_group_name_H-M "C M C A"
_symmetry_group_IT_number 64
_symmetry_cell_setting 'orthorhombic'
loop_
_space_group_symop_operation_xyz
x,y,z
-x,1/2-y,1/2+z
x,-y,-z
-x,1/2+y,1/2-z
-x,-y,-z
x,1/2+y,1/2-z
-x,y,z
x,1/2-y,1/2+z
1/2+x,1/2+y,z
1/2-x,-y,1/2+z
1/2+x,1/2-y,-z
1/2-x,y,1/2-z
1/2-x,1/2-y,-z
1/2+x,y,1/2-z
1/2-x,1/2+y,z
1/2+x,-y,1/2+z
loop_
_atom_site_type_symbol
_atom_site_label
_atom_site_fract_x
_atom_site_fract_y
_atom_site_fract_z
Si Si1 0.215823 0.413859 0.616199
Si Si2 0.225912 0.811562 0.057233
Si Si3 0.611071 0.151160 0.769327
Si Si4 0.600999 0.521044 0.777876
Si Si5 0.146982 0.000000 0.500000
O O1 0.250000 0.393317 0.750000
O O2 0.185747 0.357580 0.541478
O O3 0.154165 0.469684 0.654007
O O4 0.291743 0.444205 0.530516
O O5 0.321870 0.835224 0.116318
O O6 0.149068 0.806386 0.163609
O O7 0.250000 0.750000 0.000000
O O8 0.500000 0.152901 0.790093
O O9 0.636618 0.086718 0.717414
O O10 0.500000 0.521752 0.831029
O O11 0.597940 0.509259 0.630491
#
# Coordination Sequence:
#
# PCOD9476581 Si02
#       5
#    16  16  16  16   8
#     4  10  21  34  60  92 124 161 205 257 315 378
#     4  11  24  42  66  88 127 175 217 259 315 379
#     4  10  23  43  67  93 122 165 217 265 320 383
#     4  10  20  35  60  94 125 157 200 259 324 378
#     4  10  17  34  57  82 124 160 192 246 311 372
#
# _framework density 19.750616999999998
#
# number of rings (size 3 to 8) (size 9 to 14) (size 15 to 20)
#    0.000    1.778    2.222    1.667    9.333    1.778 
#    0.000    2.778    0.000    0.000    0.000    0.000 
#    0.000    0.000    0.000    0.000    0.000    0.000 
#
# Total GULP energy -200439.284541 kJ/mol
# GULP energy per Si atom -5567.757904 kJ/mol
# Density = 1.970566 g / cm^3
# Si number density = 19.750617 Si / 1000 Ang^3
#
#
#
# Elastic Constant Matrix: (Units=GPa)
#
#
# Indices 1 2 3 4 5 6 
#
# 1 94.0295 30.4993 29.5746 0.0000 0.0000 0.0000
# 2 30.4993 111.6722 50.8972 0.0000 0.0000 0.0000
# 3 29.5746 50.8972 91.2749 0.0000 0.0000 0.0000
# 4 0.0000 0.0000 0.0000 25.5457 0.0000 0.0000
# 5 0.0000 0.0000 0.0000 0.0000 -2.7229 0.0000
# 6 0.0000 0.0000 0.0000 0.0000 0.0000 21.9597
#
#
#
# Elastic Compliance Matrix: (Units=1/GPa)
#
#
# Indices 1 2 3 4 5 6 
#
# 1 0.012182 -0.002049 -0.002805 0.000000 0.000000 0.000000
# 2 -0.002049 0.012351 -0.006223 0.000000 0.000000 0.000000
# 3 -0.002805 -0.006223 0.015335 0.000000 0.000000 0.000000
# 4 0.000000 0.000000 0.000000 0.039146 0.000000 0.000000
# 5 0.000000 0.000000 0.000000 0.000000 -0.367259 0.000000
# 6 0.000000 0.000000 0.000000 0.000000 0.000000 0.045538
#
#
# Mechanical properties :
#
#
# Convention : Reuss Voigt Hill
#
# Bulk Modulus (GPa) = 56.45239 57.65764 57.05502
# Shear Modulus (GPa) = -23.29370 21.35688 -0.96841
#
# Velocity S-wave (km/s) = -3.43795 3.29192 -0.70099
# Velocity P-wave (km/s) = 3.58961 6.61099 5.31933
#
# Compressibility (1/GPa) = 0.01771404
#
# Stress axis : x y z
#
# Youngs Moduli (GPa) = 82.09104 80.96711 65.21071
#
# Poissons Ratio (x) = 0.16588 0.18289
# Poissons Ratio (y) = 0.16818 0.40582
# Poissons Ratio (z) = 0.23024 0.50388
#
# Static dielectric constant tensor:
#      x y z
#    x 1.762120 0.000000 0.000000 
#    y 0.000000 1.714910 0.000000 
#    z 0.000000 0.000000 1.744370 
# 
# From -- ./inp_files/14377.got.cif
#   From: 2010.05.17/outbox.cif.g08.bks.cpg/sg64_8_cif.got.tgz:14377.got - 2010.06.03 16:29:19.
