data_PCOD9476078
_publ_section_title
;
Structure prediction by ZEFSAII (Michael W. Deem and Ramdas Pophale) SiO2 
 PCOD9476078
Probable space group: C M C M
;
_chemical_formula_sum "Si O2"
_cell_formula_units_Z 48
_cell_length_a 9.000000
_cell_length_b 21.000000
_cell_length_c 27.000000
_cell_angle_alpha 90.000000
_cell_angle_beta 90.000000
_cell_angle_gamma 90.000000
_cell_volume 5103.000000
_symmetry_space_group_name_H-M "C M C M"
_symmetry_group_IT_number 63
_symmetry_cell_setting 'orthorhombic'
loop_
_space_group_symop_operation_xyz
x,y,z
-x,-y,1/2+z
x,-y,-z
-x,y,1/2-z
-x,-y,-z
x,y,1/2-z
-x,y,z
x,-y,1/2+z
1/2+x,1/2+y,z
1/2-x,1/2-y,1/2+z
1/2+x,1/2-y,-z
1/2-x,1/2+y,1/2-z
1/2-x,1/2-y,-z
1/2+x,1/2+y,1/2-z
1/2-x,1/2+y,z
1/2+x,1/2-y,1/2+z
loop_
_atom_site_type_symbol
_atom_site_label
_atom_site_fract_x
_atom_site_fract_y
_atom_site_fract_z
Si Si1 0.824893 0.668598 0.544652
Si Si2 0.319844 0.919072 0.126675
Si Si3 0.819528 0.697902 0.805277
Si Si4 0.826411 0.301323 0.931552
Si Si5 0.677836 0.031795 0.305185
Si Si6 0.323178 0.660897 0.335583
O O1 0.782954 0.602530 0.571051
O O2 0.810187 0.668720 0.485887
O O3 0.732131 0.728805 0.564334
O O4 0.000000 0.681312 0.556259
O O5 0.500000 0.922912 0.129808
O O6 0.270640 0.857403 0.158075
O O7 0.265872 0.983312 0.152598
O O8 0.776334 0.680402 0.750000
O O9 0.770508 0.769832 0.816403
O O10 0.000000 0.699277 0.808042
O O11 0.728013 0.338685 0.892368
O O12 0.000000 0.302387 0.917634
O O13 0.704498 0.004830 0.250000
O O14 0.500000 0.039288 0.310556
O O15 0.751137 0.100601 0.309545
O O16 0.500000 0.658145 0.330225
#
# Coordination Sequence:
#
# PCOD9476078 Si02
#       6
#    16  16  16  16  16  16
#     4   9  17  32  54  81 109 140 177 219 269 329
#     4   9  16  31  54  79 105 135 175 218 264 318
#     4   9  16  27  49  78 100 125 172 224 259 300
#     4  10  19  31  52  81 111 139 175 224 276 320
#     4  10  21  36  55  79 108 140 174 218 270 320
#     4  11  21  35  54  76 107 145 184 221 262 319
#
# _framework density 9.4062319999999993
#
# number of rings (size 3 to 8) (size 9 to 14) (size 15 to 20)
#    0.000    2.333    1.667    2.000    0.000    3.667 
#    0.000    1.667    0.000    5.000    0.000    0.000 
#    0.000    0.000    0.000    0.000    0.000    0.000 
#
# Total GULP energy -267495.652387 kJ/mol
# GULP energy per Si atom -5572.826091 kJ/mol
# Density = 0.938482 g / cm^3
# Si number density = 9.406232 Si / 1000 Ang^3
#
#
#
# Elastic Constant Matrix: (Units=GPa)
#
#
# Indices 1 2 3 4 5 6 
#
# 1 0.5570 -2.7319 1.0192 0.0000 0.0000 0.0000
# 2 -2.7319 40.1057 -4.1631 0.0000 0.0000 0.0000
# 3 1.0192 -4.1631 34.5357 0.0000 0.0000 0.0000
# 4 0.0000 0.0000 0.0000 20.7966 0.0000 0.0000
# 5 0.0000 0.0000 0.0000 0.0000 14.1347 0.0000
# 6 0.0000 0.0000 0.0000 0.0000 0.0000 23.0679
#
#
#
# Elastic Compliance Matrix: (Units=1/GPa)
#
#
# Indices 1 2 3 4 5 6 
#
# 1 2.816484 0.185548 -0.060753 0.000000 0.000000 0.000000
# 2 0.185548 0.037474 -0.000959 0.000000 0.000000 0.000000
# 3 -0.060753 -0.000959 0.030633 0.000000 0.000000 0.000000
# 4 0.000000 0.000000 0.000000 0.048085 0.000000 0.000000
# 5 0.000000 0.000000 0.000000 0.000000 0.070748 0.000000
# 6 0.000000 0.000000 0.000000 0.000000 0.000000 0.043350
#
#
# Mechanical properties :
#
#
# Convention : Reuss Voigt Hill
#
# Bulk Modulus (GPa) = 0.31926 7.04965 3.68445
# Shear Modulus (GPa) = 1.30100 17.00478 9.15289
#
# Velocity S-wave (km/s) = 0.83251 3.00977 2.20814
# Velocity P-wave (km/s) = 1.04602 3.97917 2.90929
#
# Compressibility (1/GPa) = 3.13226385
#
# Stress axis : x y z
#
# Youngs Moduli (GPa) = 0.35505 26.68527 32.64465
#
# Poissons Ratio (x) = -4.95140 1.98325
# Poissons Ratio (y) = -0.06588 0.03129
# Poissons Ratio (z) = 0.02157 0.02558
#
# Static dielectric constant tensor:
#      x y z
#    x 1.642500 0.000000 0.000000 
#    y 0.000000 1.639780 0.000000 
#    z 0.000000 0.000000 1.725630 
# 
# From -- ./inp_files/66874.got.cif
#   From: 2010.05.17/outbox.ucp.g08.bks.cvg/sg63_34_cif.got.tgz:66874.got - 2010.06.11 16:32:19.
