data_PCOD9476532
_publ_section_title
;
Structure prediction by ZEFSAII (Michael W. Deem and Ramdas Pophale) SiO2 
 PCOD9476532
Probable space group: C M C A
;
_chemical_formula_sum "Si O2"
_cell_formula_units_Z 112
_cell_length_a 18.169796
_cell_length_b 18.359193
_cell_length_c 17.950878
_cell_angle_alpha 90.000000
_cell_angle_beta 90.000000
_cell_angle_gamma 90.000000
_cell_volume 5988.103994
_symmetry_space_group_name_H-M "C M C A"
_symmetry_group_IT_number 64
_symmetry_cell_setting 'orthorhombic'
loop_
_space_group_symop_operation_xyz
x,y,z
-x,1/2-y,1/2+z
x,-y,-z
-x,1/2+y,1/2-z
-x,-y,-z
x,1/2+y,1/2-z
-x,y,z
x,1/2-y,1/2+z
1/2+x,1/2+y,z
1/2-x,-y,1/2+z
1/2+x,1/2-y,-z
1/2-x,y,1/2-z
1/2-x,1/2-y,-z
1/2+x,y,1/2-z
1/2-x,1/2+y,z
1/2+x,-y,1/2+z
loop_
_atom_site_type_symbol
_atom_site_label
_atom_site_fract_x
_atom_site_fract_y
_atom_site_fract_z
Si Si1 0.221017 0.073647 0.460375
Si Si2 0.289932 0.983111 0.677494
Si Si3 0.130683 0.653768 0.476436
Si Si4 0.684205 0.310436 0.425090
Si Si5 0.842887 0.360863 0.367658
Si Si6 0.087217 0.798512 0.283014
Si Si7 0.580755 0.870367 0.683461
O O1 0.228056 0.057374 0.372941
O O2 0.306462 0.092165 0.476873
O O3 0.178241 0.137998 0.502201
O O4 0.197718 0.000000 0.500000
O O5 0.250000 0.012617 0.750000
O O6 0.353149 0.925591 0.698436
O O7 0.325854 0.053045 0.638134
O O8 0.170964 0.728755 0.453258
O O9 0.104613 0.656233 0.561450
O O10 0.079323 0.637764 0.406717
O O11 0.764874 0.322700 0.388960
O O12 0.626427 0.325912 0.358864
O O13 0.875122 0.331892 0.290231
O O14 0.095949 0.710362 0.284698
O O15 0.000000 0.813927 0.284092
O O16 0.500000 0.894837 0.709222
#
# Coordination Sequence:
#
# PCOD9476532 Si02
#       7
#    16  16  16  16  16  16  16
#     4  10  17  31  53  78 109 137 173 225 271 326
#     4  11  22  34  55  86 114 144 179 230 284 330
#     4   9  19  33  55  82 110 141 182 229 274 330
#     4  10  19  35  58  82 111 147 186 233 274 326
#     4  11  20  34  57  87 112 140 184 234 280 331
#     4  10  22  38  56  79 111 151 189 231 277 328
#     4   9  21  39  55  75 112 151 184 224 277 334
#
# _framework density 18.703749999999999
#
# number of rings (size 3 to 8) (size 9 to 14) (size 15 to 20)
#    0.000    2.000    2.857    3.000    0.000    5.714 
#    0.000    0.714    0.000    1.286    0.000    0.000 
#    0.000    0.000    0.000    0.000    0.000    0.000 
#
# Total GULP energy -311866.320873 kJ/mol
# GULP energy per Si atom -5569.041444 kJ/mol
# Density = 1.866118 g / cm^3
# Si number density = 18.703750 Si / 1000 Ang^3
#
#
#
# Elastic Constant Matrix: (Units=GPa)
#
#
# Indices 1 2 3 4 5 6 
#
# 1 44.0152 21.8981 10.7505 0.0000 0.0000 0.0000
# 2 21.8981 59.7356 21.8823 0.0000 0.0000 0.0000
# 3 10.7505 21.8823 102.1049 0.0000 0.0000 0.0000
# 4 0.0000 0.0000 0.0000 28.7747 0.0000 0.0000
# 5 0.0000 0.0000 0.0000 0.0000 2.9351 0.0000
# 6 0.0000 0.0000 0.0000 0.0000 0.0000 -3.7666
#
#
#
# Elastic Compliance Matrix: (Units=1/GPa)
#
#
# Indices 1 2 3 4 5 6 
#
# 1 0.027849 -0.009913 -0.000808 0.000000 0.000000 0.000000
# 2 -0.009913 0.021695 -0.003606 0.000000 0.000000 0.000000
# 3 -0.000808 -0.003606 0.010652 0.000000 0.000000 0.000000
# 4 0.000000 0.000000 0.000000 0.034753 0.000000 0.000000
# 5 0.000000 0.000000 0.000000 0.000000 0.340701 0.000000
# 6 0.000000 0.000000 0.000000 0.000000 0.000000 -0.265489
#
#
# Mechanical properties :
#
#
# Convention : Reuss Voigt Hill
#
# Bulk Modulus (GPa) = 31.70324 34.99083 33.34703
# Shear Modulus (GPa) = 23.88602 15.67697 19.78149
#
# Velocity S-wave (km/s) = 3.57749 2.89826 3.25564
# Velocity P-wave (km/s) = 5.83537 5.47252 5.65685
#
# Compressibility (1/GPa) = 0.03154252
#
# Stress axis : x y z
#
# Youngs Moduli (GPa) = 35.90855 46.09307 93.88207
#
# Poissons Ratio (x) = 0.45692 0.07583
# Poissons Ratio (y) = 0.35596 0.33852
# Poissons Ratio (z) = 0.02900 0.16620
#
# Static dielectric constant tensor:
#      x y z
#    x 1.630550 0.000000 0.000000 
#    y 0.000000 1.651470 0.000000 
#    z 0.000000 0.000000 1.726330 
# 
# From -- ./inp_files/34511.got.cif
#   From: 2010.05.17/outbox.cif.g08.bks.cpg/sg64_18_cif.got.tgz:34511.got - 2010.06.03 16:29:19.
