data_PCOD9476208
_publ_section_title
;
Structure prediction by ZEFSAII (Michael W. Deem and Ramdas Pophale) SiO2 
 PCOD9476208
Probable space group: C M C M
;
_chemical_formula_sum "Si O2"
_cell_formula_units_Z 58
_cell_length_a 12.000000
_cell_length_b 18.000000
_cell_length_c 27.000000
_cell_angle_alpha 90.000000
_cell_angle_beta 90.000000
_cell_angle_gamma 90.000000
_cell_volume 5832.000000
_symmetry_space_group_name_H-M "C M C M"
_symmetry_group_IT_number 63
_symmetry_cell_setting 'orthorhombic'
loop_
_space_group_symop_operation_xyz
x,y,z
-x,-y,1/2+z
x,-y,-z
-x,y,1/2-z
-x,-y,-z
x,y,1/2-z
-x,y,z
x,-y,1/2+z
1/2+x,1/2+y,z
1/2-x,1/2-y,1/2+z
1/2+x,1/2-y,-z
1/2-x,1/2+y,1/2-z
1/2-x,1/2-y,-z
1/2+x,1/2+y,1/2-z
1/2-x,1/2+y,z
1/2+x,1/2-y,1/2+z
loop_
_atom_site_type_symbol
_atom_site_label
_atom_site_fract_x
_atom_site_fract_y
_atom_site_fract_z
Si Si1 0.372812 0.385855 0.693033
Si Si2 0.128277 0.616930 0.467461
Si Si3 0.260836 0.741958 0.694819
Si Si4 0.624625 0.906307 0.305476
Si Si5 0.783514 0.476719 0.879310
Si Si6 0.632745 0.257278 0.090210
Si Si7 0.693508 0.413980 0.046099
Si Si8 0.000000 0.000000 0.500000
O O1 0.360416 0.412132 0.750000
O O2 0.500000 0.398642 0.677618
O O3 0.342074 0.299070 0.692991
O O4 0.285697 0.424576 0.657114
O O5 0.142808 0.565635 0.419368
O O6 0.176302 0.694975 0.447573
O O7 0.194772 0.587563 0.514229
O O8 0.000000 0.624528 0.480614
O O9 0.312402 0.750811 0.750000
O O10 0.213623 0.659168 0.690291
O O11 0.335243 0.757927 0.647096
O O12 0.634497 0.938492 0.250000
O O13 0.500000 0.875178 0.310247
O O14 0.645288 0.967722 0.346266
O O15 0.696628 0.524337 0.911395
O O16 0.500000 0.256788 0.086784
O O17 0.676892 0.336025 0.072564
O O18 0.596316 0.436784 0.009317
#
# Coordination Sequence:
#
# PCOD9476208 Si02
#       8
#    16  16  16  16  16  16  16   4
#     4  10  22  39  62  93 128 166 211 262 311 373
#     4  11  25  44  64  92 123 166 212 262 317 371
#     4  10  20  40  65  91 124 162 211 257 309 371
#     4  10  21  37  60  90 123 161 204 253 308 367
#     4  12  22  38  65  89 126 164 201 258 311 381
#     4  11  23  43  66  89 125 162 206 259 313 378
#     4  12  25  43  66  91 127 163 208 262 318 376
#     4  12  24  44  66  96 118 168 202 254 320 376
#
# _framework density 9.9451300000000007
#
# number of rings (size 3 to 8) (size 9 to 14) (size 15 to 20)
#    0.000    1.103    4.828    1.655    0.966    3.586 
#    0.000    0.000    0.000    0.000    0.000    0.000 
#    0.000    0.000    0.000    0.000    0.000    0.000 
#
# Total GULP energy -323063.852567 kJ/mol
# GULP energy per Si atom -5570.066424 kJ/mol
# Density = 0.992249 g / cm^3
# Si number density = 9.945130 Si / 1000 Ang^3
#
#
#
# Elastic Constant Matrix: (Units=GPa)
#
#
# Indices 1 2 3 4 5 6 
#
# 1 51.3284 6.9384 23.9869 0.0000 0.0000 0.0000
# 2 6.9384 60.9696 21.6487 0.0000 0.0000 0.0000
# 3 23.9869 21.6487 69.7600 0.0000 0.0000 0.0000
# 4 0.0000 0.0000 0.0000 27.5772 0.0000 0.0000
# 5 0.0000 0.0000 0.0000 0.0000 46.0437 0.0000
# 6 0.0000 0.0000 0.0000 0.0000 0.0000 22.6537
#
#
#
# Elastic Compliance Matrix: (Units=1/GPa)
#
#
# Indices 1 2 3 4 5 6 
#
# 1 0.023215 0.000216 -0.008050 0.000000 0.000000 0.000000
# 2 0.000216 0.018435 -0.005795 0.000000 0.000000 0.000000
# 3 -0.008050 -0.005795 0.018901 0.000000 0.000000 0.000000
# 4 0.000000 0.000000 0.000000 0.036262 0.000000 0.000000
# 5 0.000000 0.000000 0.000000 0.000000 0.021719 0.000000
# 6 0.000000 0.000000 0.000000 0.000000 0.000000 0.044143
#
#
# Mechanical properties :
#
#
# Convention : Reuss Voigt Hill
#
# Bulk Modulus (GPa) = 30.03564 31.91177 30.97371
# Shear Modulus (GPa) = 24.87204 27.88718 26.37961
#
# Velocity S-wave (km/s) = 3.54003 3.74846 3.64573
# Velocity P-wave (km/s) = 5.64292 5.90028 5.77303
#
# Compressibility (1/GPa) = 0.03329378
#
# Stress axis : x y z
#
# Youngs Moduli (GPa) = 43.07583 54.24546 52.90686
#
# Poissons Ratio (x) = -0.01173 0.42588
# Poissons Ratio (y) = -0.00932 0.30661
# Poissons Ratio (z) = 0.34674 0.31437
#
# Static dielectric constant tensor:
#      x y z
#    x 1.667460 0.000000 0.000000 
#    y 0.000000 1.726160 0.000000 
#    z 0.000000 0.000000 1.716280 
# 
# From -- ./inp_files/68518.got.cif
#   From: 2010.05.17/outbox.ucp.g08.bks.cvg/sg63_35_cif.got.tgz:68518.got - 2010.06.11 16:32:19.
