data_PCOD9476299
_publ_section_title
;
Structure prediction by ZEFSAII (Michael W. Deem and Ramdas Pophale) SiO2 
 PCOD9476299
Probable space group: C M C A
;
_chemical_formula_sum "Si O2"
_cell_formula_units_Z 80
_cell_length_a 19.829860
_cell_length_b 19.837612
_cell_length_c 7.595604
_cell_angle_alpha 90.000000
_cell_angle_beta 90.000000
_cell_angle_gamma 90.000000
_cell_volume 2987.936436
_symmetry_space_group_name_H-M "C M C A"
_symmetry_group_IT_number 64
_symmetry_cell_setting 'orthorhombic'
loop_
_space_group_symop_operation_xyz
x,y,z
-x,1/2-y,1/2+z
x,-y,-z
-x,1/2+y,1/2-z
-x,-y,-z
x,1/2+y,1/2-z
-x,y,z
x,1/2-y,1/2+z
1/2+x,1/2+y,z
1/2-x,-y,1/2+z
1/2+x,1/2-y,-z
1/2-x,y,1/2-z
1/2-x,1/2-y,-z
1/2+x,y,1/2-z
1/2-x,1/2+y,z
1/2+x,-y,1/2+z
loop_
_atom_site_type_symbol
_atom_site_label
_atom_site_fract_x
_atom_site_fract_y
_atom_site_fract_z
Si Si1 0.635537 0.034111 0.826885
Si Si2 0.000000 0.336544 0.069729
Si Si3 0.146211 0.318831 0.067817
Si Si4 0.750000 0.571957 0.250000
Si Si5 0.500000 0.521098 0.760941
Si Si6 0.850138 0.172082 0.147384
Si Si7 0.500000 0.861010 0.669332
O O1 0.664227 0.109101 0.849508
O O2 0.577388 0.034618 0.680159
O O3 0.692612 0.979280 0.807304
O O4 0.598924 0.000000 0.000000
O O5 0.000000 0.326002 0.860706
O O6 0.930461 0.307526 0.137786
O O7 0.000000 0.415505 0.119679
O O8 0.177099 0.246154 0.100919
O O9 0.145068 0.332132 0.859685
O O10 0.790415 0.618703 0.390151
O O11 0.500000 0.440057 0.781484
O O12 0.927026 0.157133 0.082727
#
# Coordination Sequence:
#
# PCOD9476299 Si02
#       7
#    16   8  16   8   8  16   8
#     4  11  20  40  64  93 120 162 217 268 310 372
#     4   8  16  29  60  95 117 151 210 260 312 362
#     4  10  21  40  62  93 126 163 207 264 314 380
#     4  12  24  38  60  92 126 162 210 254 316 384
#     4  10  15  30  66  92 113 153 211 271 310 355
#     4  11  23  39  62  92 127 164 208 257 323 379
#     4  10  16  33  60  89 124 159 198 267 312 366
#
# _framework density 26.774331
#
# number of rings (size 3 to 8) (size 9 to 14) (size 15 to 20)
#    0.000    1.600    4.000    3.600    0.000    1.600 
#    3.600    0.000    0.000    0.000    0.000    4.200 
#    0.000    0.000    0.000    0.000    0.000    0.000 
#
# Total GULP energy -222874.567384 kJ/mol
# GULP energy per Si atom -5571.864185 kJ/mol
# Density = 2.671339 g / cm^3
# Si number density = 26.774331 Si / 1000 Ang^3
#
#
#
# Elastic Constant Matrix: (Units=GPa)
#
#
# Indices 1 2 3 4 5 6 
#
# 1 170.1397 71.4353 12.6991 0.0000 0.0000 0.0000
# 2 71.4353 227.5790 16.3918 0.0000 0.0000 0.0000
# 3 12.6991 16.3918 50.3125 0.0000 0.0000 0.0000
# 4 0.0000 0.0000 0.0000 33.9083 0.0000 0.0000
# 5 0.0000 0.0000 0.0000 0.0000 -1.9535 0.0000
# 6 0.0000 0.0000 0.0000 0.0000 0.0000 62.7662
#
#
#
# Elastic Compliance Matrix: (Units=1/GPa)
#
#
# Indices 1 2 3 4 5 6 
#
# 1 0.006823 -0.002066 -0.001049 0.000000 0.000000 0.000000
# 2 -0.002066 0.005125 -0.001148 0.000000 0.000000 0.000000
# 3 -0.001049 -0.001148 0.020515 0.000000 0.000000 0.000000
# 4 0.000000 0.000000 0.000000 0.029491 0.000000 0.000000
# 5 0.000000 0.000000 0.000000 0.000000 -0.511905 0.000000
# 6 0.000000 0.000000 0.000000 0.000000 0.000000 0.015932
#
#
# Mechanical properties :
#
#
# Convention : Reuss Voigt Hill
#
# Bulk Modulus (GPa) = 41.77778 72.12041 56.94909
# Shear Modulus (GPa) = -11.97571 42.11120 15.06775
#
# Velocity S-wave (km/s) = -2.11720 3.97018 2.37485
# Velocity P-wave (km/s) = 3.10819 6.92902 5.36992
#
# Compressibility (1/GPa) = 0.02393617
#
# Stress axis : x y z
#
# Youngs Moduli (GPa) = 146.55531 195.10805 48.74553
#
# Poissons Ratio (x) = 0.40314 0.05114
# Poissons Ratio (y) = 0.30282 0.05598
# Poissons Ratio (z) = 0.15375 0.22405
#
# Static dielectric constant tensor:
#      x y z
#    x 2.226210 0.000000 0.000000 
#    y 0.000000 2.061030 0.000000 
#    z 0.000000 0.000000 2.435690 
# 
# From -- ./inp_files/17102.got.cif
#   From: 2010.05.17/outbox.cif.g08.bks.cpg/sg64_9_cif.got.tgz:17102.got - 2010.06.03 16:29:19.
