data_PCOD9476544
_publ_section_title
;
Structure prediction by ZEFSAII (Michael W. Deem and Ramdas Pophale) SiO2 
 PCOD9476544
Probable space group: C M C A
;
_chemical_formula_sum "Si O2"
_cell_formula_units_Z 128
_cell_length_a 27.390344
_cell_length_b 23.277415
_cell_length_c 10.721470
_cell_angle_alpha 90.000000
_cell_angle_beta 90.000000
_cell_angle_gamma 90.000000
_cell_volume 6835.756291
_symmetry_space_group_name_H-M "C M C A"
_symmetry_group_IT_number 64
_symmetry_cell_setting 'orthorhombic'
loop_
_space_group_symop_operation_xyz
x,y,z
-x,1/2-y,1/2+z
x,-y,-z
-x,1/2+y,1/2-z
-x,-y,-z
x,1/2+y,1/2-z
-x,y,z
x,1/2-y,1/2+z
1/2+x,1/2+y,z
1/2-x,-y,1/2+z
1/2+x,1/2-y,-z
1/2-x,y,1/2-z
1/2-x,1/2-y,-z
1/2+x,y,1/2-z
1/2-x,1/2+y,z
1/2+x,-y,1/2+z
loop_
_atom_site_type_symbol
_atom_site_label
_atom_site_fract_x
_atom_site_fract_y
_atom_site_fract_z
Si Si1 0.796209 0.876162 0.081748
Si Si2 0.312513 0.410645 0.437068
Si Si3 0.445052 0.435452 0.540091
Si Si4 0.633793 0.039642 0.693173
Si Si5 0.055999 0.622712 0.771748
Si Si6 0.698518 0.686399 0.179993
Si Si7 0.354359 0.079068 0.197266
Si Si8 0.152270 0.690893 0.803158
O O1 0.744120 0.906581 0.094430
O O2 0.836239 0.926985 0.087356
O O3 0.812360 0.835246 0.195887
O O4 0.793333 0.837291 0.959256
O O5 0.341550 0.441212 0.325585
O O6 0.322647 0.436063 0.573026
O O7 0.333685 0.345478 0.426963
O O8 0.429670 0.500000 0.500000
O O9 0.500000 0.440049 0.588786
O O10 0.445157 0.397390 0.415893
O O11 0.407849 0.411677 0.640267
O O12 0.580086 0.068185 0.699396
O O13 0.639774 0.971768 0.702265
O O14 0.096850 0.673194 0.764963
O O15 0.000000 0.635528 0.734471
O O16 0.750000 0.696901 0.250000
O O17 0.670373 0.634918 0.247723
O O18 0.665618 0.743320 0.180259
#
# Coordination Sequence:
#
# PCOD9476544 Si02
#       8
#    16  16  16  16  16  16  16  16
#     4  10  22  40  54  81 115 157 203 237 293 360
#     4  10  18  36  57  80 113 151 198 242 291 340
#     4  10  17  31  59  91 117 142 184 248 299 346
#     4  10  20  35  58  85 120 157 184 247 300 351
#     4   9  17  33  61  92 113 145 193 244 310 354
#     4  12  26  38  56  83 113 167 207 243 288 346
#     4  12  21  35  54  89 122 150 194 246 295 352
#     4  10  22  37  61  83 113 154 196 261 297 344
#
# _framework density 18.725066999999999
#
# number of rings (size 3 to 8) (size 9 to 14) (size 15 to 20)
#    0.000    1.875    5.000    2.625    1.750    2.500 
#    2.250    0.625    0.000    7.500    0.000    4.375 
#    0.000    0.000    0.000    0.000    0.000    0.000 
#
# Total GULP energy -356848.848820 kJ/mol
# GULP energy per Si atom -5575.763263 kJ/mol
# Density = 1.868245 g / cm^3
# Si number density = 18.725067 Si / 1000 Ang^3
#
#
#
# Elastic Constant Matrix: (Units=GPa)
#
#
# Indices 1 2 3 4 5 6 
#
# 1 133.0104 33.9367 9.1073 0.0000 0.0000 0.0000
# 2 33.9367 86.9027 8.3251 0.0000 0.0000 0.0000
# 3 9.1073 8.3251 44.3475 0.0000 0.0000 0.0000
# 4 0.0000 0.0000 0.0000 9.7327 0.0000 0.0000
# 5 0.0000 0.0000 0.0000 0.0000 16.0754 0.0000
# 6 0.0000 0.0000 0.0000 0.0000 0.0000 17.5495
#
#
#
# Elastic Compliance Matrix: (Units=1/GPa)
#
#
# Indices 1 2 3 4 5 6 
#
# 1 0.008405 -0.003174 -0.001130 0.000000 0.000000 0.000000
# 2 -0.003174 0.012917 -0.001773 0.000000 0.000000 0.000000
# 3 -0.001130 -0.001773 0.023114 0.000000 0.000000 0.000000
# 4 0.000000 0.000000 0.000000 0.102747 0.000000 0.000000
# 5 0.000000 0.000000 0.000000 0.000000 0.062207 0.000000
# 6 0.000000 0.000000 0.000000 0.000000 0.000000 0.056982
#
#
# Mechanical properties :
#
#
# Convention : Reuss Voigt Hill
#
# Bulk Modulus (GPa) = 30.97759 40.77765 35.87762
# Shear Modulus (GPa) = 17.28390 22.86428 20.07409
#
# Velocity S-wave (km/s) = 3.04145 3.49815 3.27776
# Velocity P-wave (km/s) = 5.37709 6.17579 5.79023
#
# Compressibility (1/GPa) = 0.03228140
#
# Stress axis : x y z
#
# Youngs Moduli (GPa) = 118.97008 77.42023 43.26361
#
# Poissons Ratio (x) = 0.24575 0.04890
# Poissons Ratio (y) = 0.37763 0.07670
# Poissons Ratio (z) = 0.13447 0.13726
#
# Static dielectric constant tensor:
#      x y z
#    x 1.668560 0.000000 0.000000 
#    y 0.000000 1.683420 0.000000 
#    z 0.000000 0.000000 1.689910 
# 
# From -- ./inp_files/19419.got.cif
#   From: 2010.05.17/outbox.cif.g08.bks.cpg/sg64_10_cif.got.tgz:19419.got - 2010.06.03 16:29:19.
