data_PCOD9476325
_publ_section_title
;
Structure prediction by ZEFSAII (Michael W. Deem and Ramdas Pophale) SiO2 
 PCOD9476325
Probable space group: C M C A
;
_chemical_formula_sum "Si O2"
_cell_formula_units_Z 72
_cell_length_a 23.774195
_cell_length_b 18.304325
_cell_length_c 7.732271
_cell_angle_alpha 90.000000
_cell_angle_beta 90.000000
_cell_angle_gamma 90.000000
_cell_volume 3364.856948
_symmetry_space_group_name_H-M "C M C A"
_symmetry_group_IT_number 64
_symmetry_cell_setting 'orthorhombic'
loop_
_space_group_symop_operation_xyz
x,y,z
-x,1/2-y,1/2+z
x,-y,-z
-x,1/2+y,1/2-z
-x,-y,-z
x,1/2+y,1/2-z
-x,y,z
x,1/2-y,1/2+z
1/2+x,1/2+y,z
1/2-x,-y,1/2+z
1/2+x,1/2-y,-z
1/2-x,y,1/2-z
1/2-x,1/2-y,-z
1/2+x,y,1/2-z
1/2-x,1/2+y,z
1/2+x,-y,1/2+z
loop_
_atom_site_type_symbol
_atom_site_label
_atom_site_fract_x
_atom_site_fract_y
_atom_site_fract_z
Si Si1 0.750000 0.031023 0.750000
Si Si2 0.704139 0.212808 0.380951
Si Si3 0.563459 0.972117 0.200362
Si Si4 0.350059 0.918142 0.698114
Si Si5 0.658839 0.132971 0.907331
O O1 0.715604 0.085491 0.875338
O O2 0.700066 0.977327 0.689666
O O3 0.750000 0.178882 0.250000
O O4 0.750000 0.250000 0.500000
O O5 0.664636 0.146311 0.434295
O O6 0.667372 0.284567 0.340184
O O7 0.500000 0.955021 0.252901
O O8 0.607298 0.905650 0.190441
O O9 0.592639 0.036511 0.310630
O O10 0.562231 0.000000 0.000000
O O11 0.351775 0.876761 0.886210
#
# Coordination Sequence:
#
# PCOD9476325 Si02
#       5
#     8  16  16  16  16
#     4  10  16  28  46  72 100 134 166 214 262 318
#     4  12  21  33  49  75 115 143 168 211 267 329
#     4   8  16  32  54  75  99 135 183 229 265 309
#     4  10  19  32  49  76 108 135 173 219 266 319
#     4  10  19  30  49  75 105 136 177 216 266 321
#
# _framework density 21.397641
#
# number of rings (size 3 to 8) (size 9 to 14) (size 15 to 20)
#    0.000    2.000    4.444    2.000    0.000    0.000 
#    0.000    1.111    0.000    0.000    0.000    1.556 
#    0.000    0.000    0.000    0.889    0.000    0.000 
#
# Total GULP energy -200621.288589 kJ/mol
# GULP energy per Si atom -5572.813572 kJ/mol
# Density = 2.134894 g / cm^3
# Si number density = 21.397641 Si / 1000 Ang^3
#
#
#
# Elastic Constant Matrix: (Units=GPa)
#
#
# Indices 1 2 3 4 5 6 
#
# 1 160.2678 61.1052 10.9364 0.0000 0.0000 0.0000
# 2 61.1052 137.2007 2.0875 0.0000 0.0000 0.0000
# 3 10.9364 2.0875 28.6311 0.0000 0.0000 0.0000
# 4 0.0000 0.0000 0.0000 15.8894 0.0000 0.0000
# 5 0.0000 0.0000 0.0000 0.0000 21.2057 0.0000
# 6 0.0000 0.0000 0.0000 0.0000 0.0000 25.5697
#
#
#
# Elastic Compliance Matrix: (Units=1/GPa)
#
#
# Indices 1 2 3 4 5 6 
#
# 1 0.007719 -0.003397 -0.002701 0.000000 0.000000 0.000000
# 2 -0.003397 0.008791 0.000656 0.000000 0.000000 0.000000
# 3 -0.002701 0.000656 0.035911 0.000000 0.000000 0.000000
# 4 0.000000 0.000000 0.000000 0.062935 0.000000 0.000000
# 5 0.000000 0.000000 0.000000 0.000000 0.047157 0.000000
# 6 0.000000 0.000000 0.000000 0.000000 0.000000 0.039109
#
#
# Mechanical properties :
#
#
# Convention : Reuss Voigt Hill
#
# Bulk Modulus (GPa) = 24.07371 52.70644 38.39007
# Shear Modulus (GPa) = 22.08966 29.33100 25.71033
#
# Velocity S-wave (km/s) = 3.21649 3.70639 3.47010
# Velocity P-wave (km/s) = 5.00694 6.55758 5.83401
#
# Compressibility (1/GPa) = 0.04153909
#
# Stress axis : x y z
#
# Youngs Moduli (GPa) = 129.55202 113.74764 27.84677
#
# Poissons Ratio (x) = 0.38637 0.07521
# Poissons Ratio (y) = 0.44005 -0.01828
# Poissons Ratio (z) = 0.34989 -0.07467
#
# Static dielectric constant tensor:
#      x y z
#    x 1.726910 0.000000 0.000000 
#    y 0.000000 1.830780 0.000000 
#    z 0.000000 0.000000 1.918370 
# 
# From -- ./inp_files/9109.got.cif
#   From: 2010.05.17/outbox.cif.g08.bks.cpg/sg64_5_cif.got.tgz:9109.got - 2010.06.03 16:29:19.
