data_PCOD9476365
_publ_section_title
;
Structure prediction by ZEFSAII (Michael W. Deem and Ramdas Pophale) SiO2 
 PCOD9476365
Probable space group: C M C A
;
_chemical_formula_sum "Si O2"
_cell_formula_units_Z 112
_cell_length_a 22.388221
_cell_length_b 16.482406
_cell_length_c 14.776300
_cell_angle_alpha 90.000000
_cell_angle_beta 90.000000
_cell_angle_gamma 90.000000
_cell_volume 5452.628294
_symmetry_space_group_name_H-M "C M C A"
_symmetry_group_IT_number 64
_symmetry_cell_setting 'orthorhombic'
loop_
_space_group_symop_operation_xyz
x,y,z
-x,1/2-y,1/2+z
x,-y,-z
-x,1/2+y,1/2-z
-x,-y,-z
x,1/2+y,1/2-z
-x,y,z
x,1/2-y,1/2+z
1/2+x,1/2+y,z
1/2-x,-y,1/2+z
1/2+x,1/2-y,-z
1/2-x,y,1/2-z
1/2-x,1/2-y,-z
1/2+x,y,1/2-z
1/2-x,1/2+y,z
1/2+x,-y,1/2+z
loop_
_atom_site_type_symbol
_atom_site_label
_atom_site_fract_x
_atom_site_fract_y
_atom_site_fract_z
Si Si1 0.871485 0.888339 0.550166
Si Si2 0.148884 0.404228 0.489397
Si Si3 0.303938 0.685975 0.811838
Si Si4 0.067594 0.264141 0.515375
Si Si5 0.069092 0.972533 0.375234
Si Si6 0.748631 0.178084 0.073587
Si Si7 0.431554 0.192110 0.781645
O O1 0.891036 0.795050 0.544082
O O2 0.900250 0.926687 0.459947
O O3 0.800671 0.888365 0.547778
O O4 0.897209 0.942063 0.631700
O O5 0.144598 0.500000 0.500000
O O6 0.181309 0.373765 0.396705
O O7 0.086959 0.355601 0.496369
O O8 0.188157 0.365072 0.570593
O O9 0.250000 0.649414 0.750000
O O10 0.275079 0.771652 0.842142
O O11 0.368466 0.705939 0.767748
O O12 0.072668 0.237282 0.620593
O O13 0.000000 0.247885 0.488767
O O14 0.070229 0.905596 0.297520
O O15 0.000000 0.989241 0.395463
O O16 0.750000 0.250000 0.000000
O O17 0.500000 0.210572 0.746996
#
# Coordination Sequence:
#
# PCOD9476365 Si02
#       7
#    16  16  16  16  16  16  16
#     4  10  16  30  57  86 116 150 198 248 296 348
#     4  11  25  42  62  90 121 162 215 268 309 376
#     4  11  23  40  65  87 122 166 203 259 318 381
#     4  10  19  37  64  88 119 163 211 256 303 367
#     4   9  18  30  53  92 126 152 188 246 302 361
#     4  10  21  38  56  86 112 153 205 255 299 361
#     4   9  20  38  60  91 129 166 200 251 320 380
#
# _framework density 20.540552999999999
#
# number of rings (size 3 to 8) (size 9 to 14) (size 15 to 20)
#    0.000    2.000    2.857    3.429    8.000    0.857 
#    0.000    5.000    0.000    3.429    0.000    0.000 
#    0.000    0.000    0.000    0.000    0.000    0.000 
#
# Total GULP energy -311852.981442 kJ/mol
# GULP energy per Si atom -5568.803240 kJ/mol
# Density = 2.049380 g / cm^3
# Si number density = 20.540553 Si / 1000 Ang^3
#
#
#
# Elastic Constant Matrix: (Units=GPa)
#
#
# Indices 1 2 3 4 5 6 
#
# 1 61.8677 -10.0414 31.2570 0.0000 0.0000 0.0000
# 2 -10.0414 87.7861 11.6431 0.0000 0.0000 0.0000
# 3 31.2570 11.6431 51.1552 0.0000 0.0000 0.0000
# 4 0.0000 0.0000 0.0000 18.8881 0.0000 0.0000
# 5 0.0000 0.0000 0.0000 0.0000 29.4286 0.0000
# 6 0.0000 0.0000 0.0000 0.0000 0.0000 48.4749
#
#
#
# Elastic Compliance Matrix: (Units=1/GPa)
#
#
# Indices 1 2 3 4 5 6 
#
# 1 0.025438 0.005126 -0.016710 0.000000 0.000000 0.000000
# 2 0.005126 0.012779 -0.006041 0.000000 0.000000 0.000000
# 3 -0.016710 -0.006041 0.031133 0.000000 0.000000 0.000000
# 4 0.000000 0.000000 0.000000 0.052943 0.000000 0.000000
# 5 0.000000 0.000000 0.000000 0.000000 0.033981 0.000000
# 6 0.000000 0.000000 0.000000 0.000000 0.000000 0.020629
#
#
# Mechanical properties :
#
#
# Convention : Reuss Voigt Hill
#
# Bulk Modulus (GPa) = 29.32466 29.61406 29.46936
# Shear Modulus (GPa) = 22.36954 30.55501 26.46227
#
# Velocity S-wave (km/s) = 3.30364 3.86106 3.59318
# Velocity P-wave (km/s) = 5.37211 5.85881 5.62073
#
# Compressibility (1/GPa) = 0.03410099
#
# Stress axis : x y z
#
# Youngs Moduli (GPa) = 39.31193 78.25454 32.12011
#
# Poissons Ratio (x) = -0.40112 0.53671
# Poissons Ratio (y) = -0.20151 0.19402
# Poissons Ratio (z) = 0.65689 0.47270
#
# Static dielectric constant tensor:
#      x y z
#    x 1.736360 0.000000 0.000000 
#    y 0.000000 1.756470 0.000000 
#    z 0.000000 0.000000 1.815120 
# 
# From -- ./inp_files/34517.got.cif
#   From: 2010.05.17/outbox.cif.g08.bks.cpg/sg64_18_cif.got.tgz:34517.got - 2010.06.03 16:29:19.
