data_PCOD9476020
_publ_section_title
;
Structure prediction by ZEFSAII (Michael W. Deem and Ramdas Pophale) SiO2 
 PCOD9476020
Probable space group: C M C M
;
_chemical_formula_sum "Si O2"
_cell_formula_units_Z 80
_cell_length_a 31.453137
_cell_length_b 13.970730
_cell_length_c 7.785779
_cell_angle_alpha 90.000000
_cell_angle_beta 90.000000
_cell_angle_gamma 90.000000
_cell_volume 3421.252582
_symmetry_space_group_name_H-M "C M C M"
_symmetry_group_IT_number 63
_symmetry_cell_setting 'orthorhombic'
loop_
_space_group_symop_operation_xyz
x,y,z
-x,-y,1/2+z
x,-y,-z
-x,y,1/2-z
-x,-y,-z
x,y,1/2-z
-x,y,z
x,-y,1/2+z
1/2+x,1/2+y,z
1/2-x,1/2-y,1/2+z
1/2+x,1/2-y,-z
1/2-x,1/2+y,1/2-z
1/2-x,1/2-y,-z
1/2+x,1/2+y,1/2-z
1/2-x,1/2+y,z
1/2+x,1/2-y,1/2+z
loop_
_atom_site_type_symbol
_atom_site_label
_atom_site_fract_x
_atom_site_fract_y
_atom_site_fract_z
Si Si1 0.046085 0.704486 0.039950
Si Si2 0.774726 0.386380 0.546554
Si Si3 0.910976 0.110196 0.956258
Si Si4 0.366390 0.111921 0.043032
Si Si5 0.182240 0.887140 0.046885
O O1 0.045831 0.698589 0.250000
O O2 0.053514 0.814937 0.988993
O O3 0.088885 0.652627 0.978776
O O4 0.000000 0.669022 0.980657
O O5 0.773770 0.500000 0.500000
O O6 0.776909 0.379293 0.750000
O O7 0.820408 0.349298 0.478444
O O8 0.728431 0.346249 0.498844
O O9 0.909292 0.115795 0.750000
O O10 0.864089 0.142799 0.022488
O O11 0.918214 0.000000 0.000000
O O12 0.366523 0.125761 0.250000
O O13 0.366148 0.000000 0.000000
O O14 0.179827 0.876613 0.250000
O O15 0.183818 0.000000 0.000000
#
# Coordination Sequence:
#
# PCOD9476020 Si02
#       5
#    16  16  16  16  16
#     4   9  18  34  54  73  95 127 165 201 242 295
#     4   9  15  24  41  66  95 125 157 191 230 277
#     4   9  18  32  51  74  99 128 162 200 240 285
#     4   9  18  32  51  74  99 128 162 200 240 285
#     4   9  15  24  41  66  95 125 157 191 230 277
#
# _framework density 23.383248999999999
#
# number of rings (size 3 to 8) (size 9 to 14) (size 15 to 20)
#    0.000    3.000    0.000    2.400    0.000    2.400 
#    0.000    2.000    0.000    1.200    0.000    0.000 
#    0.000    0.000    0.000    0.000    0.000    0.000 
#
# Total GULP energy -223023.259886 kJ/mol
# GULP energy per Si atom -5575.581497 kJ/mol
# Density = 2.333003 g / cm^3
# Si number density = 23.383249 Si / 1000 Ang^3
#
#
#
# Elastic Constant Matrix: (Units=GPa)
#
#
# Indices 1 2 3 4 5 6 
#
# 1 186.4467 28.2825 9.2128 0.0000 0.0000 0.0000
# 2 28.2825 42.8652 -11.2739 0.0000 0.0000 0.0000
# 3 9.2128 -11.2739 32.1586 0.0000 0.0000 0.0000
# 4 0.0000 0.0000 0.0000 0.8569 0.0000 0.0000
# 5 0.0000 0.0000 0.0000 0.0000 0.3525 0.0000
# 6 0.0000 0.0000 0.0000 0.0000 0.0000 29.0154
#
#
#
# Elastic Compliance Matrix: (Units=1/GPa)
#
#
# Indices 1 2 3 4 5 6 
#
# 1 0.006318 -0.005116 -0.003603 0.000000 0.000000 0.000000
# 2 -0.005116 0.029841 0.011927 0.000000 0.000000 0.000000
# 3 -0.003603 0.011927 0.036310 0.000000 0.000000 0.000000
# 4 0.000000 0.000000 0.000000 1.167028 0.000000 0.000000
# 5 0.000000 0.000000 0.000000 0.000000 2.836790 0.000000
# 6 0.000000 0.000000 0.000000 0.000000 0.000000 0.034464
#
#
# Mechanical properties :
#
#
# Convention : Reuss Voigt Hill
#
# Bulk Modulus (GPa) = 12.67683 34.87925 23.77804
# Shear Modulus (GPa) = 1.21047 21.72825 11.46936
#
# Velocity S-wave (km/s) = 0.72027 3.05162 2.21711
# Velocity P-wave (km/s) = 2.47484 5.23118 4.09207
#
# Compressibility (1/GPa) = 0.07888409
#
# Stress axis : x y z
#
# Youngs Moduli (GPa) = 158.28838 33.51041 27.54100
#
# Poissons Ratio (x) = 0.17144 0.09924
# Poissons Ratio (y) = 0.80981 -0.32849
# Poissons Ratio (z) = 0.57038 -0.39969
#
# Static dielectric constant tensor:
#      x y z
#    x 1.942040 0.000000 0.000000 
#    y 0.000000 1.903530 0.000000 
#    z 0.000000 0.000000 1.851510 
# 
# From -- ./inp_files/14061.got.cif
#   From: 2010.05.17/outbox.cif.g08.bks.cpg/sg63_8_cif.got.tgz:14061.got - 2010.06.03 15:47:04.
