data_PCOD9476444
_publ_section_title
;
Structure prediction by ZEFSAII (Michael W. Deem and Ramdas Pophale) SiO2 
 PCOD9476444
Probable space group: C M C A
;
_chemical_formula_sum "Si O2"
_cell_formula_units_Z 80
_cell_length_a 16.471947
_cell_length_b 26.282087
_cell_length_c 7.547851
_cell_angle_alpha 90.000000
_cell_angle_beta 90.000000
_cell_angle_gamma 90.000000
_cell_volume 3267.594099
_symmetry_space_group_name_H-M "C M C A"
_symmetry_group_IT_number 64
_symmetry_cell_setting 'orthorhombic'
loop_
_space_group_symop_operation_xyz
x,y,z
-x,1/2-y,1/2+z
x,-y,-z
-x,1/2+y,1/2-z
-x,-y,-z
x,1/2+y,1/2-z
-x,y,z
x,1/2-y,1/2+z
1/2+x,1/2+y,z
1/2-x,-y,1/2+z
1/2+x,1/2-y,-z
1/2-x,y,1/2-z
1/2-x,1/2-y,-z
1/2+x,y,1/2-z
1/2-x,1/2+y,z
1/2+x,-y,1/2+z
loop_
_atom_site_type_symbol
_atom_site_label
_atom_site_fract_x
_atom_site_fract_y
_atom_site_fract_z
Si Si1 0.907661 0.183146 0.619147
Si Si2 0.163304 0.775150 0.030270
Si Si3 0.344969 0.413287 0.285894
Si Si4 0.096036 0.875807 0.904150
Si Si5 0.903714 0.482569 0.705342
O O1 0.899993 0.228807 0.482297
O O2 0.876124 0.127282 0.570069
O O3 0.000000 0.179389 0.679357
O O4 0.849119 0.201464 0.776764
O O5 0.142999 0.822240 0.899467
O O6 0.250000 0.750000 0.000000
O O7 0.250000 0.407214 0.250000
O O8 0.363749 0.472334 0.317425
O O9 0.393027 0.396102 0.107245
O O10 0.125741 0.924294 0.790267
O O11 0.000000 0.867479 0.870421
O O12 0.892364 0.500000 0.500000
O O13 0.000000 0.482350 0.741254
#
# Coordination Sequence:
#
# PCOD9476444 Si02
#       5
#    16  16  16  16  16
#     4  11  21  35  54  76 106 144 184 221 266 329
#     4  11  21  35  53  80 111 141 177 225 275 318
#     4  10  17  27  45  74 104 128 160 213 271 315
#     4   9  17  32  52  72  98 134 179 221 257 311
#     4   8  14  27  48  69  89 119 163 213 256 295
#
# _framework density 24.482844
#
# number of rings (size 3 to 8) (size 9 to 14) (size 15 to 20)
#    0.000    2.200    0.000    9.000    0.000    0.000 
#    0.000    2.000    0.000    0.000    0.000    0.000 
#    0.000   58.400    0.000    0.000    0.000    0.000 
#
# Total GULP energy -223465.124015 kJ/mol
# GULP energy per Si atom -5586.628100 kJ/mol
# Density = 2.442712 g / cm^3
# Si number density = 24.482844 Si / 1000 Ang^3
#
#
#
# Elastic Constant Matrix: (Units=GPa)
#
#
# Indices 1 2 3 4 5 6 
#
# 1 122.8597 69.9462 3.2700 0.0000 0.0000 0.0000
# 2 69.9462 241.4636 45.2944 0.0000 0.0000 0.0000
# 3 3.2700 45.2944 33.5270 0.0000 0.0000 0.0000
# 4 0.0000 0.0000 0.0000 15.7164 0.0000 0.0000
# 5 0.0000 0.0000 0.0000 0.0000 11.1517 0.0000
# 6 0.0000 0.0000 0.0000 0.0000 0.0000 42.9893
#
#
#
# Elastic Compliance Matrix: (Units=1/GPa)
#
#
# Indices 1 2 3 4 5 6 
#
# 1 0.010130 -0.003682 0.003986 0.000000 0.000000 0.000000
# 2 -0.003682 0.006886 -0.008943 0.000000 0.000000 0.000000
# 3 0.003986 -0.008943 0.041520 0.000000 0.000000 0.000000
# 4 0.000000 0.000000 0.000000 0.063628 0.000000 0.000000
# 5 0.000000 0.000000 0.000000 0.000000 0.089673 0.000000
# 6 0.000000 0.000000 0.000000 0.000000 0.000000 0.023262
#
#
# Mechanical properties :
#
#
# Convention : Reuss Voigt Hill
#
# Bulk Modulus (GPa) = 24.23805 70.54129 47.38967
# Shear Modulus (GPa) = 18.78801 32.59412 25.69107
#
# Velocity S-wave (km/s) = 2.77319 3.65266 3.24288
# Velocity P-wave (km/s) = 4.49173 6.83113 5.78100
#
# Compressibility (1/GPa) = 0.04125745
#
# Stress axis : x y z
#
# Youngs Moduli (GPa) = 98.72133 145.23041 24.08477
#
# Poissons Ratio (x) = 0.53475 -0.09601
# Poissons Ratio (y) = 0.36350 0.21540
# Poissons Ratio (z) = -0.39355 1.29883
#
# Static dielectric constant tensor:
#      x y z
#    x 1.889550 0.000000 0.000000 
#    y 0.000000 2.132450 0.000000 
#    z 0.000000 0.000000 2.103160 
# 
# From -- ./inp_files/14460.got.cif
#   From: 2010.05.17/outbox.cif.g08.bks.cpg/sg64_8_cif.got.tgz:14460.got - 2010.06.03 16:29:19.
