data_PCOD9476162
_publ_section_title
;
Structure prediction by ZEFSAII (Michael W. Deem and Ramdas Pophale) SiO2 
 PCOD9476162
Probable space group: C M C M
;
_chemical_formula_sum "Si O2"
_cell_formula_units_Z 48
_cell_length_a 9.000000
_cell_length_b 24.000000
_cell_length_c 24.000000
_cell_angle_alpha 90.000000
_cell_angle_beta 90.000000
_cell_angle_gamma 90.000000
_cell_volume 5184.000000
_symmetry_space_group_name_H-M "C M C M"
_symmetry_group_IT_number 63
_symmetry_cell_setting 'orthorhombic'
loop_
_space_group_symop_operation_xyz
x,y,z
-x,-y,1/2+z
x,-y,-z
-x,y,1/2-z
-x,-y,-z
x,y,1/2-z
-x,y,z
x,-y,1/2+z
1/2+x,1/2+y,z
1/2-x,1/2-y,1/2+z
1/2+x,1/2-y,-z
1/2-x,1/2+y,1/2-z
1/2-x,1/2-y,-z
1/2+x,1/2+y,1/2-z
1/2-x,1/2+y,z
1/2+x,1/2-y,1/2+z
loop_
_atom_site_type_symbol
_atom_site_label
_atom_site_fract_x
_atom_site_fract_y
_atom_site_fract_z
Si Si1 0.820460 0.935561 0.683140
Si Si2 0.320607 0.229642 0.594731
Si Si3 0.819655 0.452270 0.131322
Si Si4 0.673757 0.655003 0.684376
Si Si5 0.820876 0.380521 0.025945
Si Si6 0.319797 0.148006 0.403799
O O1 0.785955 0.935030 0.750000
O O2 0.752030 0.883163 0.649217
O O3 0.000000 0.935991 0.678006
O O4 0.751355 0.990394 0.653163
O O5 0.500000 0.235414 0.593740
O O6 0.262083 0.203048 0.652199
O O7 0.277455 0.180563 0.550537
O O8 0.242474 0.289306 0.588273
O O9 0.756231 0.402692 0.169857
O O10 0.776659 0.429616 0.069035
O O11 0.000000 0.455612 0.134005
O O12 0.676084 0.664245 0.750000
O O13 0.500000 0.652739 0.666305
O O14 0.000000 0.380672 0.027210
O O15 0.777895 0.384378 0.961299
O O16 0.500000 0.148957 0.398964
#
# Coordination Sequence:
#
# PCOD9476162 Si02
#       6
#    16  16  16  16  16  16
#     4  11  25  43  59  79 112 152 192 233 278 330
#     4  10  20  36  57  83 116 151 188 229 280 336
#     4  10  20  37  61  87 114 144 183 230 283 338
#     4  10  20  34  54  82 114 148 189 236 283 331
#     4   8  18  36  59  88 117 145 178 225 281 334
#     4  11  22  38  60  84 113 149 189 230 276 332
#
# _framework density 9.2592590000000001
#
# number of rings (size 3 to 8) (size 9 to 14) (size 15 to 20)
#    0.000    2.000    0.000    4.500    0.000    6.000 
#    0.000   12.500    0.000    0.000    0.000    0.000 
#    0.000    0.000    0.000    0.000    0.000    0.000 
#
# Total GULP energy -267844.140235 kJ/mol
# GULP energy per Si atom -5580.086255 kJ/mol
# Density = 0.923818 g / cm^3
# Si number density = 9.259259 Si / 1000 Ang^3
#
#
#
# Elastic Constant Matrix: (Units=GPa)
#
#
# Indices 1 2 3 4 5 6 
#
# 1 94.0353 26.9034 37.8314 0.0000 0.0000 0.0000
# 2 26.9034 72.1692 41.3982 0.0000 0.0000 0.0000
# 3 37.8314 41.3982 116.7660 0.0000 0.0000 0.0000
# 4 0.0000 0.0000 0.0000 17.2194 0.0000 0.0000
# 5 0.0000 0.0000 0.0000 0.0000 25.1985 0.0000
# 6 0.0000 0.0000 0.0000 0.0000 0.0000 38.8514
#
#
#
# Elastic Compliance Matrix: (Units=1/GPa)
#
#
# Indices 1 2 3 4 5 6 
#
# 1 0.012721 -0.002985 -0.003063 0.000000 0.000000 0.000000
# 2 -0.002985 0.018094 -0.005448 0.000000 0.000000 0.000000
# 3 -0.003063 -0.005448 0.011488 0.000000 0.000000 0.000000
# 4 0.000000 0.000000 0.000000 0.058074 0.000000 0.000000
# 5 0.000000 0.000000 0.000000 0.000000 0.039685 0.000000
# 6 0.000000 0.000000 0.000000 0.000000 0.000000 0.025739
#
#
# Mechanical properties :
#
#
# Convention : Reuss Voigt Hill
#
# Bulk Modulus (GPa) = 51.78457 55.02629 53.40543
# Shear Modulus (GPa) = 25.61085 28.04304 26.82695
#
# Velocity S-wave (km/s) = 3.72289 3.89565 3.81025
# Velocity P-wave (km/s) = 6.81940 7.07202 6.94686
#
# Compressibility (1/GPa) = 0.01931077
#
# Stress axis : x y z
#
# Youngs Moduli (GPa) = 78.61249 55.26644 87.04664
#
# Poissons Ratio (x) = 0.16497 0.26663
# Poissons Ratio (y) = 0.23465 0.47423
# Poissons Ratio (z) = 0.24080 0.30109
#
# Static dielectric constant tensor:
#      x y z
#    x 1.620870 0.000000 0.000000 
#    y 0.000000 1.633750 0.000000 
#    z 0.000000 0.000000 1.662230 
# 
# From -- ./inp_files/59954.got.cif
#   From: 2010.05.17/outbox.ucp.g08.bks.cvg/sg63_30_cif.got.tgz:59954.got - 2010.06.11 16:32:19.
