data_PCOD9476330
_publ_section_title
;
Structure prediction by ZEFSAII (Michael W. Deem and Ramdas Pophale) SiO2 
 PCOD9476330
Probable space group: C M C A
;
_chemical_formula_sum "Si O2"
_cell_formula_units_Z 80
_cell_length_a 19.020423
_cell_length_b 17.953694
_cell_length_c 13.903827
_cell_angle_alpha 90.000000
_cell_angle_beta 90.000000
_cell_angle_gamma 90.000000
_cell_volume 4747.974145
_symmetry_space_group_name_H-M "C M C A"
_symmetry_group_IT_number 64
_symmetry_cell_setting 'orthorhombic'
loop_
_space_group_symop_operation_xyz
x,y,z
-x,1/2-y,1/2+z
x,-y,-z
-x,1/2+y,1/2-z
-x,-y,-z
x,1/2+y,1/2-z
-x,y,z
x,1/2-y,1/2+z
1/2+x,1/2+y,z
1/2-x,-y,1/2+z
1/2+x,1/2-y,-z
1/2-x,y,1/2-z
1/2-x,1/2-y,-z
1/2+x,y,1/2-z
1/2-x,1/2+y,z
1/2+x,-y,1/2+z
loop_
_atom_site_type_symbol
_atom_site_label
_atom_site_fract_x
_atom_site_fract_y
_atom_site_fract_z
Si Si1 0.416964 0.210604 0.885631
Si Si2 0.176888 0.203300 0.796760
Si Si3 0.921319 0.918207 0.544442
Si Si4 0.710597 0.877573 0.842180
Si Si5 0.190787 0.814738 0.990003
O O1 0.500000 0.225013 0.879137
O O2 0.383748 0.192769 0.781685
O O3 0.372653 0.279515 0.928932
O O4 0.406228 0.142887 0.961266
O O5 0.250000 0.176532 0.750000
O O6 0.188187 0.292162 0.815455
O O7 0.166989 0.167664 0.901799
O O8 0.860716 0.914594 0.623126
O O9 0.000000 0.901616 0.582087
O O10 0.921895 0.000000 0.500000
O O11 0.750000 0.909711 0.750000
O O12 0.767178 0.875434 0.928740
O O13 0.250000 0.750000 0.000000
#
# Coordination Sequence:
#
# PCOD9476330 Si02
#       5
#    16  16  16  16  16
#     4  11  20  30  48  76 100 129 169 202 248 304
#     4  10  16  28  49  73 100 127 157 206 256 299
#     4  10  21  36  51  70 104 140 169 203 241 292
#     4  10  17  32  54  73  98 127 164 206 254 298
#     4  10  16  30  49  73 100 130 155 206 261 299
#
# _framework density 16.849291999999998
#
# number of rings (size 3 to 8) (size 9 to 14) (size 15 to 20)
#    0.000    1.800   10.000    0.000    0.000    1.600 
#    0.000    3.000    0.000    0.000    0.000    0.000 
#    0.000    6.400    0.000    0.000    0.000    0.000 
#
# Total GULP energy -222814.066409 kJ/mol
# GULP energy per Si atom -5570.351660 kJ/mol
# Density = 1.681094 g / cm^3
# Si number density = 16.849292 Si / 1000 Ang^3
#
#
#
# Elastic Constant Matrix: (Units=GPa)
#
#
# Indices 1 2 3 4 5 6 
#
# 1 138.6813 15.4632 72.8296 0.0000 0.0000 0.0000
# 2 15.4632 11.3454 0.1572 0.0000 0.0000 0.0000
# 3 72.8296 0.1572 130.0375 0.0000 0.0000 0.0000
# 4 0.0000 0.0000 0.0000 5.9418 0.0000 0.0000
# 5 0.0000 0.0000 0.0000 0.0000 39.2047 0.0000
# 6 0.0000 0.0000 0.0000 0.0000 0.0000 11.1835
#
#
#
# Elastic Compliance Matrix: (Units=1/GPa)
#
#
# Indices 1 2 3 4 5 6 
#
# 1 0.012978 -0.017588 -0.007247 0.000000 0.000000 0.000000
# 2 -0.017588 0.111978 0.009715 0.000000 0.000000 0.000000
# 3 -0.007247 0.009715 0.011737 0.000000 0.000000 0.000000
# 4 0.000000 0.000000 0.000000 0.168298 0.000000 0.000000
# 5 0.000000 0.000000 0.000000 0.000000 0.025507 0.000000
# 6 0.000000 0.000000 0.000000 0.000000 0.000000 0.089418
#
#
# Mechanical properties :
#
#
# Convention : Reuss Voigt Hill
#
# Bulk Modulus (GPa) = 9.39377 50.77380 30.08378
# Shear Modulus (GPa) = 10.29568 24.04027 17.16798
#
# Velocity S-wave (km/s) = 2.47462 3.78137 3.19551
# Velocity P-wave (km/s) = 3.70840 7.01887 5.61323
#
# Compressibility (1/GPa) = 0.10645357
#
# Stress axis : x y z
#
# Youngs Moduli (GPa) = 77.05514 8.93030 85.19906
#
# Poissons Ratio (x) = 0.15706 0.61745
# Poissons Ratio (y) = 1.35522 -0.82770
# Poissons Ratio (z) = 0.55843 -0.08676
#
# Static dielectric constant tensor:
#      x y z
#    x 1.571630 0.000000 0.000000 
#    y 0.000000 1.560710 0.000000 
#    z 0.000000 0.000000 1.610390 
# 
# From -- ./inp_files/25309.got.cif
#   From: 2010.05.17/outbox.cif.g08.bks.cpg/sg64_13_cif.got.tgz:25309.got - 2010.06.03 16:29:19.
