data_PCOD9476756
_publ_section_title
;
Structure prediction by ZEFSAII (Michael W. Deem and Ramdas Pophale) SiO2 
 PCOD9476756
Probable space group: C M C A
;
_chemical_formula_sum "Si O2"
_cell_formula_units_Z 80
_cell_length_a 8.817476
_cell_length_b 25.878443
_cell_length_c 21.263863
_cell_angle_alpha 90.000000
_cell_angle_beta 90.000000
_cell_angle_gamma 90.000000
_cell_volume 4852.042484
_symmetry_space_group_name_H-M "C M C A"
_symmetry_group_IT_number 64
_symmetry_cell_setting 'orthorhombic'
loop_
_space_group_symop_operation_xyz
x,y,z
-x,1/2-y,1/2+z
x,-y,-z
-x,1/2+y,1/2-z
-x,-y,-z
x,1/2+y,1/2-z
-x,y,z
x,1/2-y,1/2+z
1/2+x,1/2+y,z
1/2-x,-y,1/2+z
1/2+x,1/2-y,-z
1/2-x,y,1/2-z
1/2-x,1/2-y,-z
1/2+x,y,1/2-z
1/2-x,1/2+y,z
1/2+x,-y,1/2+z
loop_
_atom_site_type_symbol
_atom_site_label
_atom_site_fract_x
_atom_site_fract_y
_atom_site_fract_z
Si Si1 0.181734 0.816659 0.053669
Si Si2 0.682231 0.933172 0.448901
Si Si3 0.680686 0.288046 0.909628
Si Si4 0.681997 0.037283 0.084205
Si Si5 0.681256 0.627025 0.319183
O O1 0.221312 0.875139 0.072126
O O2 0.263332 0.771034 0.091040
O O3 0.000000 0.810184 0.059179
O O4 0.220403 0.809073 0.979659
O O5 0.500000 0.937998 0.450414
O O6 0.745450 0.941387 0.519545
O O7 0.753840 0.979460 0.408710
O O8 0.500000 0.290635 0.902907
O O9 0.757918 0.323952 0.858032
O O10 0.500000 0.035763 0.077247
O O11 0.721882 0.075989 0.140424
O O12 0.500000 0.629722 0.315536
O O13 0.750000 0.625319 0.250000
#
# Coordination Sequence:
#
# PCOD9476756 Si02
#       5
#    16  16  16  16  16
#     4   9  18  31  49  76 107 136 167 208 258 309
#     4  10  18  30  51  76 105 137 166 208 257 307
#     4  10  19  32  51  75 104 136 172 212 257 306
#     4  10  20  32  48  74 104 134 170 212 258 307
#     4  11  23  37  54  74 103 139 176 216 255 303
#
# _framework density 16.487901999999998
#
# number of rings (size 3 to 8) (size 9 to 14) (size 15 to 20)
#    0.000    2.000    2.000    3.600    0.000    4.800 
#    0.000    0.000    0.000    1.200    0.000    2.800 
#    0.000    0.000    0.000    0.000    0.000    0.000 
#
# Total GULP energy -223200.901170 kJ/mol
# GULP energy per Si atom -5580.022529 kJ/mol
# Density = 1.645037 g / cm^3
# Si number density = 16.487902 Si / 1000 Ang^3
#
#
#
# Elastic Constant Matrix: (Units=GPa)
#
#
# Indices 1 2 3 4 5 6 
#
# 1 55.2490 59.6840 43.4085 0.0000 0.0000 0.0000
# 2 59.6840 175.9132 70.1113 0.0000 0.0000 0.0000
# 3 43.4085 70.1113 92.4413 0.0000 0.0000 0.0000
# 4 0.0000 0.0000 0.0000 16.5316 0.0000 0.0000
# 5 0.0000 0.0000 0.0000 0.0000 23.7855 0.0000
# 6 0.0000 0.0000 0.0000 0.0000 0.0000 29.1241
#
#
#
# Elastic Compliance Matrix: (Units=1/GPa)
#
#
# Indices 1 2 3 4 5 6 
#
# 1 0.034447 -0.007511 -0.010479 0.000000 0.000000 0.000000
# 2 -0.007511 0.009785 -0.003895 0.000000 0.000000 0.000000
# 3 -0.010479 -0.003895 0.018692 0.000000 0.000000 0.000000
# 4 0.000000 0.000000 0.000000 0.060490 0.000000 0.000000
# 5 0.000000 0.000000 0.000000 0.000000 0.042042 0.000000
# 6 0.000000 0.000000 0.000000 0.000000 0.000000 0.034336
#
#
# Mechanical properties :
#
#
# Convention : Reuss Voigt Hill
#
# Bulk Modulus (GPa) = 52.20448 74.44567 63.32507
# Shear Modulus (GPa) = 20.00432 23.91488 21.95960
#
# Velocity S-wave (km/s) = 3.48699 3.81261 3.65343
# Velocity P-wave (km/s) = 6.92410 8.03934 7.50247
#
# Compressibility (1/GPa) = 0.01915545
#
# Stress axis : x y z
#
# Youngs Moduli (GPa) = 29.03044 102.19702 53.49825
#
# Poissons Ratio (x) = 0.76756 0.56061
# Poissons Ratio (y) = 0.21804 0.20835
# Poissons Ratio (z) = 0.30421 0.39801
#
# Static dielectric constant tensor:
#      x y z
#    x 1.550300 0.000000 0.000000 
#    y 0.000000 1.573350 0.000000 
#    z 0.000000 0.000000 1.516270 
# 
# From -- ./inp_files/29758.got.cif
#   From: 2010.05.17/outbox.cif.g08.bks.cpg/sg64_15_cif.got.tgz:29758.got - 2010.06.03 16:29:19.
