data_PCOD9476736
_publ_section_title
;
Structure prediction by ZEFSAII (Michael W. Deem and Ramdas Pophale) SiO2 
 PCOD9476736
Probable space group: C M C A
;
_chemical_formula_sum "Si O2"
_cell_formula_units_Z 96
_cell_length_a 18.761285
_cell_length_b 13.535449
_cell_length_c 15.102135
_cell_angle_alpha 90.000000
_cell_angle_beta 90.000000
_cell_angle_gamma 90.000000
_cell_volume 3835.072653
_symmetry_space_group_name_H-M "C M C A"
_symmetry_group_IT_number 64
_symmetry_cell_setting 'orthorhombic'
loop_
_space_group_symop_operation_xyz
x,y,z
-x,1/2-y,1/2+z
x,-y,-z
-x,1/2+y,1/2-z
-x,-y,-z
x,1/2+y,1/2-z
-x,y,z
x,1/2-y,1/2+z
1/2+x,1/2+y,z
1/2-x,-y,1/2+z
1/2+x,1/2-y,-z
1/2-x,y,1/2-z
1/2-x,1/2-y,-z
1/2+x,y,1/2-z
1/2-x,1/2+y,z
1/2+x,-y,1/2+z
loop_
_atom_site_type_symbol
_atom_site_label
_atom_site_fract_x
_atom_site_fract_y
_atom_site_fract_z
Si Si1 0.820585 0.298269 0.037840
Si Si2 0.622704 0.985951 0.401376
Si Si3 0.915946 0.761113 0.113488
Si Si4 0.274341 0.516958 0.651045
Si Si5 0.422859 0.509147 0.289657
Si Si6 0.921031 0.768197 0.314134
O O1 0.797058 0.399674 0.082307
O O2 0.860476 0.240435 0.116992
O O3 0.750000 0.250000 0.000000
O O4 0.879561 0.304723 0.961195
O O5 0.623814 0.866905 0.390958
O O6 0.702847 0.027883 0.390225
O O7 0.579963 0.023872 0.316296
O O8 0.594460 0.000000 0.500000
O O9 0.909881 0.728152 0.215468
O O10 0.000000 0.776652 0.096575
O O11 0.250000 0.553567 0.750000
O O12 0.347078 0.458550 0.670190
O O13 0.500000 0.543296 0.325396
O O14 0.421246 0.388729 0.303879
O O15 0.000000 0.740985 0.345760
#
# Coordination Sequence:
#
# PCOD9476736 Si02
#       6
#    16  16  16  16  16  16
#     4  11  19  27  49  73 100 131 170 205 253 306
#     4  10  18  30  49  74 101 131 165 211 259 299
#     4  10  20  33  49  75 103 132 173 215 256 310
#     4   9  18  33  51  72 102 135 172 212 256 311
#     4   8  15  28  49  71  91 124 166 206 249 298
#     4   8  16  30  46  67  99 131 160 204 254 299
#
# _framework density 25.032121
#
# number of rings (size 3 to 8) (size 9 to 14) (size 15 to 20)
#    0.000    2.667    1.667    3.000    0.000    2.000 
#    0.000    0.000    0.000    9.500    0.000    2.333 
#    0.000    0.000    0.000    0.000    0.000    0.000 
#
# Total GULP energy -268389.742994 kJ/mol
# GULP energy per Si atom -5591.452979 kJ/mol
# Density = 2.497515 g / cm^3
# Si number density = 25.032121 Si / 1000 Ang^3
#
#
#
# Elastic Constant Matrix: (Units=GPa)
#
#
# Indices 1 2 3 4 5 6 
#
# 1 206.1758 27.0883 62.0704 0.0000 0.0000 0.0000
# 2 27.0883 62.6694 18.7099 0.0000 0.0000 0.0000
# 3 62.0704 18.7099 129.7265 0.0000 0.0000 0.0000
# 4 0.0000 0.0000 0.0000 31.4377 0.0000 0.0000
# 5 0.0000 0.0000 0.0000 0.0000 45.1019 0.0000
# 6 0.0000 0.0000 0.0000 0.0000 0.0000 13.4576
#
#
#
# Elastic Compliance Matrix: (Units=1/GPa)
#
#
# Indices 1 2 3 4 5 6 
#
# 1 0.005848 -0.001769 -0.002543 0.000000 0.000000 0.000000
# 2 -0.001769 0.017210 -0.001636 0.000000 0.000000 0.000000
# 3 -0.002543 -0.001636 0.009161 0.000000 0.000000 0.000000
# 4 0.000000 0.000000 0.000000 0.031809 0.000000 0.000000
# 5 0.000000 0.000000 0.000000 0.000000 0.022172 0.000000
# 6 0.000000 0.000000 0.000000 0.000000 0.000000 0.074307
#
#
# Mechanical properties :
#
#
# Convention : Reuss Voigt Hill
#
# Bulk Modulus (GPa) = 49.20302 68.25653 58.72977
# Shear Modulus (GPa) = 27.90532 37.37964 32.64248
#
# Velocity S-wave (km/s) = 3.34246 3.86847 3.61504
# Velocity P-wave (km/s) = 5.88172 6.87606 6.39824
#
# Compressibility (1/GPa) = 0.02032396
#
# Stress axis : x y z
#
# Youngs Moduli (GPa) = 170.99223 58.10712 109.15516
#
# Poissons Ratio (x) = 0.10277 0.27760
# Poissons Ratio (y) = 0.30242 0.17856
# Poissons Ratio (z) = 0.43486 0.09505
#
# Static dielectric constant tensor:
#      x y z
#    x 1.936670 0.000000 0.000000 
#    y 0.000000 2.057550 0.000000 
#    z 0.000000 0.000000 1.934180 
# 
# From -- ./inp_files/17481.got.cif
#   From: 2010.05.17/outbox.cif.g08.bks.cpg/sg64_9_cif.got.tgz:17481.got - 2010.06.03 16:29:19.
