data_PCOD9476111
_publ_section_title
;
Structure prediction by ZEFSAII (Michael W. Deem and Ramdas Pophale) SiO2 
 PCOD9476111
Probable space group: C M C M
;
_chemical_formula_sum "Si O2"
_cell_formula_units_Z 48
_cell_length_a 27.000000
_cell_length_b 21.000000
_cell_length_c 9.000000
_cell_angle_alpha 90.000000
_cell_angle_beta 90.000000
_cell_angle_gamma 90.000000
_cell_volume 5103.000000
_symmetry_space_group_name_H-M "C M C M"
_symmetry_group_IT_number 63
_symmetry_cell_setting 'orthorhombic'
loop_
_space_group_symop_operation_xyz
x,y,z
-x,-y,1/2+z
x,-y,-z
-x,y,1/2-z
-x,-y,-z
x,y,1/2-z
-x,y,z
x,-y,1/2+z
1/2+x,1/2+y,z
1/2-x,1/2-y,1/2+z
1/2+x,1/2-y,-z
1/2-x,1/2+y,1/2-z
1/2-x,1/2-y,-z
1/2+x,1/2+y,1/2-z
1/2-x,1/2+y,z
1/2+x,1/2-y,1/2+z
loop_
_atom_site_type_symbol
_atom_site_label
_atom_site_fract_x
_atom_site_fract_y
_atom_site_fract_z
Si Si1 0.772496 0.847664 0.421149
Si Si2 0.582088 0.806830 0.423383
Si Si3 0.443937 0.675010 0.575083
Si Si4 0.634204 0.568714 0.571318
Si Si5 0.682435 0.205571 0.418331
Si Si6 0.558829 0.938111 0.915907
O O1 0.755701 0.857280 0.250000
O O2 0.811781 0.901877 0.460825
O O3 0.727806 0.839125 0.534766
O O4 0.800151 0.779109 0.422648
O O5 0.571589 0.808189 0.250000
O O6 0.560277 0.742670 0.494706
O O7 0.639981 0.802832 0.461583
O O8 0.564798 0.872137 0.498121
O O9 0.433346 0.686395 0.750000
O O10 0.500000 0.651068 0.561362
O O11 0.405537 0.621852 0.520684
O O12 0.626877 0.500000 0.500000
O O13 0.629632 0.563629 0.750000
O O14 0.665288 0.192682 0.250000
O O15 0.579770 0.933061 0.750000
O O16 0.500000 0.948377 0.902779
O O17 0.579673 0.000000 0.000000
#
# Coordination Sequence:
#
# PCOD9476111 Si02
#       6
#    16  16  16  16  16  16
#     4   9  18  35  56  81 112 143 183 232 284 341
#     4  12  23  35  56  87 120 152 191 239 288 341
#     4  10  21  39  60  82 113 154 199 247 299 349
#     4  10  21  38  58  83 116 155 195 241 295 353
#     4  10  19  34  58  84 112 143 184 231 283 341
#     4  10  21  38  59  82 112 151 191 231 281 341
#
# _framework density 9.4062319999999993
#
# number of rings (size 3 to 8) (size 9 to 14) (size 15 to 20)
#    0.000    1.833    1.667    3.000    0.000    5.667 
#    0.000    0.833    0.000    2.000    0.000    0.000 
#    0.000    0.000    0.000    0.000    0.000    0.000 
#
# Total GULP energy -267824.175873 kJ/mol
# GULP energy per Si atom -5579.670331 kJ/mol
# Density = 0.938482 g / cm^3
# Si number density = 9.406232 Si / 1000 Ang^3
#
#
#
# Elastic Constant Matrix: (Units=GPa)
#
#
# Indices 1 2 3 4 5 6 
#
# 1 43.4152 20.6582 12.6327 0.0000 0.0000 0.0000
# 2 20.6582 105.2757 34.2820 0.0000 0.0000 0.0000
# 3 12.6327 34.2820 60.2040 0.0000 0.0000 0.0000
# 4 0.0000 0.0000 0.0000 32.1354 0.0000 0.0000
# 5 0.0000 0.0000 0.0000 0.0000 18.4361 0.0000
# 6 0.0000 0.0000 0.0000 0.0000 0.0000 68.1069
#
#
#
# Elastic Compliance Matrix: (Units=1/GPa)
#
#
# Indices 1 2 3 4 5 6 
#
# 1 0.025873 -0.004062 -0.003116 0.000000 0.000000 0.000000
# 2 -0.004062 0.012299 -0.006151 0.000000 0.000000 0.000000
# 3 -0.003116 -0.006151 0.020767 0.000000 0.000000 0.000000
# 4 0.000000 0.000000 0.000000 0.031118 0.000000 0.000000
# 5 0.000000 0.000000 0.000000 0.000000 0.054241 0.000000
# 6 0.000000 0.000000 0.000000 0.000000 0.000000 0.014683
#
#
# Mechanical properties :
#
#
# Convention : Reuss Voigt Hill
#
# Bulk Modulus (GPa) = 30.97865 38.22674 34.60269
# Shear Modulus (GPa) = 25.45829 33.15713 29.30771
#
# Velocity S-wave (km/s) = 3.68267 4.20278 3.95129
# Velocity P-wave (km/s) = 5.88095 6.62685 6.26501
#
# Compressibility (1/GPa) = 0.03228030
#
# Stress axis : x y z
#
# Youngs Moduli (GPa) = 38.65027 81.30691 48.15434
#
# Poissons Ratio (x) = 0.33031 0.15003
# Poissons Ratio (y) = 0.15702 0.29620
# Poissons Ratio (z) = 0.12042 0.50012
#
# Static dielectric constant tensor:
#      x y z
#    x 1.688700 0.000000 0.000000 
#    y 0.000000 1.619720 0.000000 
#    z 0.000000 0.000000 1.660470 
# 
# From -- ./inp_files/12352.got.cif
#   From: 2010.05.17/outbox.ucp.g08.bks.cvg/sg63_7_cif.got.tgz:12352.got - 2010.06.11 16:32:19.
