data_PCOD9476985
_publ_section_title
;
Structure prediction by ZEFSAII (Michael W. Deem and Ramdas Pophale) SiO2 
 PCOD9476985
Probable space group: C M C A
;
_chemical_formula_sum "Si O2"
_cell_formula_units_Z 80
_cell_length_a 15.228761
_cell_length_b 21.269680
_cell_length_c 14.283882
_cell_angle_alpha 90.000000
_cell_angle_beta 90.000000
_cell_angle_gamma 90.000000
_cell_volume 4626.704692
_symmetry_space_group_name_H-M "C M C A"
_symmetry_group_IT_number 64
_symmetry_cell_setting 'orthorhombic'
loop_
_space_group_symop_operation_xyz
x,y,z
-x,1/2-y,1/2+z
x,-y,-z
-x,1/2+y,1/2-z
-x,-y,-z
x,1/2+y,1/2-z
-x,y,z
x,1/2-y,1/2+z
1/2+x,1/2+y,z
1/2-x,-y,1/2+z
1/2+x,1/2-y,-z
1/2-x,y,1/2-z
1/2-x,1/2-y,-z
1/2+x,y,1/2-z
1/2-x,1/2+y,z
1/2+x,-y,1/2+z
loop_
_atom_site_type_symbol
_atom_site_label
_atom_site_fract_x
_atom_site_fract_y
_atom_site_fract_z
Si Si1 0.898662 0.573443 0.989664
Si Si2 0.727684 0.149790 0.852466
Si Si3 0.595690 0.802766 0.448107
Si Si4 0.359369 0.170963 0.142461
Si Si5 0.342080 0.707942 0.153570
O O1 0.834118 0.607349 0.916676
O O2 0.000000 0.579914 0.958964
O O3 0.878232 0.500000 0.000000
O O4 0.888784 0.608882 0.089171
O O5 0.750000 0.123556 0.750000
O O6 0.820006 0.163123 0.904212
O O7 0.679847 0.217601 0.837065
O O8 0.500000 0.826977 0.418484
O O9 0.604633 0.730534 0.415045
O O10 0.604145 0.803423 0.559944
O O11 0.383002 0.181469 0.250993
O O12 0.253541 0.176397 0.139704
#
# Coordination Sequence:
#
# PCOD9476985 Si02
#       5
#    16  16  16  16  16
#     4  11  24  41  60  82 112 154 197 233 273 331
#     4  11  20  39  57  83 117 147 187 235 285 340
#     4  11  20  31  55  88 119 146 180 233 297 343
#     4  10  18  35  57  82 115 149 184 232 281 337
#     4  10  18  33  58  86 116 145 183 231 295 341
#
# _framework density 17.290925000000001
#
# number of rings (size 3 to 8) (size 9 to 14) (size 15 to 20)
#    0.000    1.400    8.000    1.800    0.000    2.400 
#    3.600    0.000    0.000    0.600    0.000    0.000 
#    0.000    0.000    0.000    0.000    0.000    0.000 
#
# Total GULP energy -223223.590414 kJ/mol
# GULP energy per Si atom -5580.589760 kJ/mol
# Density = 1.725157 g / cm^3
# Si number density = 17.290925 Si / 1000 Ang^3
#
#
#
# Elastic Constant Matrix: (Units=GPa)
#
#
# Indices 1 2 3 4 5 6 
#
# 1 90.1470 58.0074 48.8145 0.0000 0.0000 0.0000
# 2 58.0074 94.8093 55.2710 0.0000 0.0000 0.0000
# 3 48.8145 55.2710 153.1749 0.0000 0.0000 0.0000
# 4 0.0000 0.0000 0.0000 7.5606 0.0000 0.0000
# 5 0.0000 0.0000 0.0000 0.0000 -6.1708 0.0000
# 6 0.0000 0.0000 0.0000 0.0000 0.0000 23.4659
#
#
#
# Elastic Compliance Matrix: (Units=1/GPa)
#
#
# Indices 1 2 3 4 5 6 
#
# 1 0.018941 -0.010219 -0.002349 0.000000 0.000000 0.000000
# 2 -0.010219 0.018871 -0.003553 0.000000 0.000000 0.000000
# 3 -0.002349 -0.003553 0.008559 0.000000 0.000000 0.000000
# 4 0.000000 0.000000 0.000000 0.132265 0.000000 0.000000
# 5 0.000000 0.000000 0.000000 0.000000 -0.162055 0.000000
# 6 0.000000 0.000000 0.000000 0.000000 0.000000 0.042615
#
#
# Mechanical properties :
#
#
# Convention : Reuss Voigt Hill
#
# Bulk Modulus (GPa) = 70.77396 73.59078 72.18237
# Shear Modulus (GPa) = 52.00367 16.70703 34.35535
#
# Velocity S-wave (km/s) = 5.49008 3.11180 4.46230
# Velocity P-wave (km/s) = 9.01156 7.45411 8.26958
#
# Compressibility (1/GPa) = 0.01412949
#
# Stress axis : x y z
#
# Youngs Moduli (GPa) = 52.79644 52.99105 116.83805
#
# Poissons Ratio (x) = 0.54154 0.27440
# Poissons Ratio (y) = 0.53955 0.41508
# Poissons Ratio (z) = 0.12400 0.18826
#
# Static dielectric constant tensor:
#      x y z
#    x 1.605520 0.000000 0.000000 
#    y 0.000000 1.550070 0.000000 
#    z 0.000000 0.000000 1.610160 
# 
# From -- ./inp_files/23649.got.cif
#   From: 2010.05.17/outbox.cif.g08.bks.cpg/sg64_12_cif.got.tgz:23649.got - 2010.06.03 16:29:19.
