data_PCOD9476953
_publ_section_title
;
Structure prediction by ZEFSAII (Michael W. Deem and Ramdas Pophale) SiO2 
 PCOD9476953
Probable space group: C M C A
;
_chemical_formula_sum "Si O2"
_cell_formula_units_Z 80
_cell_length_a 15.574921
_cell_length_b 14.253438
_cell_length_c 19.990650
_cell_angle_alpha 90.000000
_cell_angle_beta 90.000000
_cell_angle_gamma 90.000000
_cell_volume 4437.847752
_symmetry_space_group_name_H-M "C M C A"
_symmetry_group_IT_number 64
_symmetry_cell_setting 'orthorhombic'
loop_
_space_group_symop_operation_xyz
x,y,z
-x,1/2-y,1/2+z
x,-y,-z
-x,1/2+y,1/2-z
-x,-y,-z
x,1/2+y,1/2-z
-x,y,z
x,1/2-y,1/2+z
1/2+x,1/2+y,z
1/2-x,-y,1/2+z
1/2+x,1/2-y,-z
1/2-x,y,1/2-z
1/2-x,1/2-y,-z
1/2+x,y,1/2-z
1/2-x,1/2+y,z
1/2+x,-y,1/2+z
loop_
_atom_site_type_symbol
_atom_site_label
_atom_site_fract_x
_atom_site_fract_y
_atom_site_fract_z
Si Si1 0.655875 0.381474 0.779573
Si Si2 0.759461 0.407512 0.469646
Si Si3 0.903860 0.944076 0.137912
Si Si4 0.780615 0.778336 0.907996
Si Si5 0.094916 0.728767 0.153131
O O1 0.750000 0.403633 0.750000
O O2 0.614708 0.475295 0.808729
O O3 0.670522 0.311014 0.841864
O O4 0.605035 0.331874 0.719994
O O5 0.715151 0.500000 0.500000
O O6 0.833037 0.445108 0.420171
O O7 0.799737 0.346256 0.529928
O O8 0.705541 0.329735 0.428870
O O9 0.898943 0.839745 0.168988
O O10 0.000000 0.956355 0.110715
O O11 0.678070 0.790202 0.892889
O O12 0.000000 0.712551 0.123163
#
# Coordination Sequence:
#
# PCOD9476953 Si02
#       5
#    16  16  16  16  16
#     4  10  19  33  52  78 102 136 171 210 252 305
#     4  10  18  33  53  74 104 135 167 213 252 304
#     4  10  20  33  52  78 104 134 169 213 265 301
#     4   9  19  33  51  78 101 133 173 206 259 301
#     4   9  19  35  52  72 104 136 167 210 256 305
#
# _framework density 18.026755999999999
#
# number of rings (size 3 to 8) (size 9 to 14) (size 15 to 20)
#    0.000    2.400    2.000    0.600    0.000    4.400 
#    0.000    0.000    0.000    0.600    0.000    0.000 
#    0.000    0.000    0.000    0.000    0.000    0.000 
#
# Total GULP energy -222829.438454 kJ/mol
# GULP energy per Si atom -5570.735961 kJ/mol
# Density = 1.798573 g / cm^3
# Si number density = 18.026756 Si / 1000 Ang^3
#
#
#
# Elastic Constant Matrix: (Units=GPa)
#
#
# Indices 1 2 3 4 5 6 
#
# 1 27.8770 11.6562 -1.9336 0.0000 0.0000 0.0000
# 2 11.6562 89.3972 23.9974 0.0000 0.0000 0.0000
# 3 -1.9336 23.9974 59.1534 0.0000 0.0000 0.0000
# 4 0.0000 0.0000 0.0000 41.2676 0.0000 0.0000
# 5 0.0000 0.0000 0.0000 0.0000 3.9507 0.0000
# 6 0.0000 0.0000 0.0000 0.0000 0.0000 13.0432
#
#
#
# Elastic Compliance Matrix: (Units=1/GPa)
#
#
# Indices 1 2 3 4 5 6 
#
# 1 0.038653 -0.006036 0.003712 0.000000 0.000000 0.000000
# 2 -0.006036 0.013496 -0.005672 0.000000 0.000000 0.000000
# 3 0.003712 -0.005672 0.019328 0.000000 0.000000 0.000000
# 4 0.000000 0.000000 0.000000 0.024232 0.000000 0.000000
# 5 0.000000 0.000000 0.000000 0.000000 0.253120 0.000000
# 6 0.000000 0.000000 0.000000 0.000000 0.000000 0.076668
#
#
# Mechanical properties :
#
#
# Convention : Reuss Voigt Hill
#
# Bulk Modulus (GPa) = 18.02320 27.09641 22.55980
# Shear Modulus (GPa) = 10.86993 21.16613 16.01803
#
# Velocity S-wave (km/s) = 2.45825 3.43031 2.98412
# Velocity P-wave (km/s) = 4.25171 5.54556 4.94116
#
# Compressibility (1/GPa) = 0.05548406
#
# Stress axis : x y z
#
# Youngs Moduli (GPa) = 25.87098 74.09742 51.73926
#
# Poissons Ratio (x) = 0.44728 -0.19207
# Poissons Ratio (y) = 0.15617 0.29348
# Poissons Ratio (z) = -0.09604 0.42030
#
# Static dielectric constant tensor:
#      x y z
#    x 1.633240 0.000000 0.000000 
#    y 0.000000 1.631720 0.000000 
#    z 0.000000 0.000000 1.613310 
# 
# From -- ./inp_files/32987.got.cif
#   From: 2010.05.17/outbox.cif.g08.bks.cpg/sg64_17_cif.got.tgz:32987.got - 2010.06.03 16:29:19.
