data_PCOD9476185
_publ_section_title
;
Structure prediction by ZEFSAII (Michael W. Deem and Ramdas Pophale) SiO2 
 PCOD9476185
Probable space group: C M C M
;
_chemical_formula_sum "Si O2"
_cell_formula_units_Z 52
_cell_length_a 27.000000
_cell_length_b 24.000000
_cell_length_c 9.000000
_cell_angle_alpha 90.000000
_cell_angle_beta 90.000000
_cell_angle_gamma 90.000000
_cell_volume 5832.000000
_symmetry_space_group_name_H-M "C M C M"
_symmetry_group_IT_number 63
_symmetry_cell_setting 'orthorhombic'
loop_
_space_group_symop_operation_xyz
x,y,z
-x,-y,1/2+z
x,-y,-z
-x,y,1/2-z
-x,-y,-z
x,y,1/2-z
-x,y,z
x,-y,1/2+z
1/2+x,1/2+y,z
1/2-x,1/2-y,1/2+z
1/2+x,1/2-y,-z
1/2-x,1/2+y,1/2-z
1/2-x,1/2-y,-z
1/2+x,1/2+y,1/2-z
1/2-x,1/2+y,z
1/2+x,1/2-y,1/2+z
loop_
_atom_site_type_symbol
_atom_site_label
_atom_site_fract_x
_atom_site_fract_y
_atom_site_fract_z
Si Si1 0.286542 0.155912 0.426941
Si Si2 0.865756 0.262433 0.072718
Si Si3 0.000000 0.061417 0.928730
Si Si4 0.636259 0.939708 0.573832
Si Si5 0.557655 0.856503 0.428596
Si Si6 0.107014 0.060349 0.571831
Si Si7 0.178910 0.842817 0.428252
O O1 0.212680 0.332006 0.750000
O O2 0.320764 0.198933 0.516208
O O3 0.313570 0.096317 0.449787
O O4 0.231536 0.159979 0.490540
O O5 0.862872 0.253938 0.250000
O O6 0.915505 0.297479 0.038765
O O7 0.857446 0.205534 0.985495
O O8 0.053254 0.086251 0.971440
O O9 0.000000 0.056778 0.750000
O O10 0.000000 0.000000 0.000000
O O11 0.628888 0.945141 0.750000
O O12 0.591085 0.903724 0.505680
O O13 0.639144 0.000000 0.500000
O O14 0.560439 0.864341 0.250000
O O15 0.500000 0.857865 0.472378
O O16 0.107201 0.054464 0.750000
O O17 0.152125 0.099659 0.531681
O O18 0.111138 0.000000 0.500000
O O19 0.185192 0.838860 0.250000
#
# Coordination Sequence:
#
# PCOD9476185 Si02
#       7
#    16  16   8  16  16  16  16
#     4  10  21  37  56  77 104 140 179 221 266 314
#     4  10  20  36  57  79 105 139 177 220 266 315
#     4   8  14  30  52  70  92 126 164 200 243 292
#     4  10  21  36  56  82 111 144 184 224 268 323
#     4   9  19  37  59  81 109 144 181 224 273 320
#     4   9  19  34  53  75 102 134 170 212 257 307
#     4  11  22  35  52  79 109 139 176 217 265 320
#
# _framework density 8.9163239999999995
#
# number of rings (size 3 to 8) (size 9 to 14) (size 15 to 20)
#    0.000    2.308    0.000    2.308    0.000    4.923 
#    1.385    3.077    0.000    0.000    0.000    0.000 
#    0.000    0.000    0.000    0.000    0.000    0.000 
#
# Total GULP energy -289958.827033 kJ/mol
# GULP energy per Si atom -5576.131289 kJ/mol
# Density = 0.889603 g / cm^3
# Si number density = 8.916324 Si / 1000 Ang^3
#
#
#
# Elastic Constant Matrix: (Units=GPa)
#
#
# Indices 1 2 3 4 5 6 
#
# 1 -0.5179 4.4102 9.2732 0.0000 0.0000 0.0000
# 2 4.4102 70.5519 17.0579 0.0000 0.0000 0.0000
# 3 9.2732 17.0579 35.1275 0.0000 0.0000 0.0000
# 4 0.0000 0.0000 0.0000 28.4179 0.0000 0.0000
# 5 0.0000 0.0000 0.0000 0.0000 20.4399 0.0000
# 6 0.0000 0.0000 0.0000 0.0000 0.0000 8.1031
#
#
#
# Elastic Compliance Matrix: (Units=1/GPa)
#
#
# Indices 1 2 3 4 5 6 
#
# 1 -0.337153 -0.000503 0.089248 0.000000 0.000000 0.000000
# 2 -0.000503 0.016059 -0.007665 0.000000 0.000000 0.000000
# 3 0.089248 -0.007665 0.008630 0.000000 0.000000 0.000000
# 4 0.000000 0.000000 0.000000 0.035189 0.000000 0.000000
# 5 0.000000 0.000000 0.000000 0.000000 0.048924 0.000000
# 6 0.000000 0.000000 0.000000 0.000000 0.000000 0.123410
#
#
# Mechanical properties :
#
#
# Convention : Reuss Voigt Hill
#
# Bulk Modulus (GPa) = -6.65316 18.51602 5.93143
# Shear Modulus (GPa) = -15.76276 16.35352 0.29538
#
# Velocity S-wave (km/s) = -2.97632 3.03158 0.40743
# Velocity P-wave (km/s) = 3.94338 4.76022 1.88540
#
# Compressibility (1/GPa) = -0.15030460
#
# Stress axis : x y z
#
# Youngs Moduli (GPa) = -2.96601 62.27151 115.87819
#
# Poissons Ratio (x) = 0.03130 -10.34191
# Poissons Ratio (y) = -0.00149 0.88826
# Poissons Ratio (z) = 0.26471 0.47734
#
# Static dielectric constant tensor:
#      x y z
#    x 1.611260 0.000000 0.000000 
#    y 0.000000 1.594530 0.000000 
#    z 0.000000 0.000000 1.587440 
# 
# From -- ./inp_files/12524.got.cif
#   From: 2010.05.17/outbox.ucp.g08.bks.cvg/sg63_7_cif.got.tgz:12524.got - 2010.06.11 16:32:19.
