data_PCOD9476458
_publ_section_title
;
Structure prediction by ZEFSAII (Michael W. Deem and Ramdas Pophale) SiO2 
 PCOD9476458
Probable space group: C M C A
;
_chemical_formula_sum "Si O2"
_cell_formula_units_Z 96
_cell_length_a 9.056055
_cell_length_b 30.839045
_cell_length_c 21.649024
_cell_angle_alpha 90.000000
_cell_angle_beta 90.000000
_cell_angle_gamma 90.000000
_cell_volume 6046.141321
_symmetry_space_group_name_H-M "C M C A"
_symmetry_group_IT_number 64
_symmetry_cell_setting 'orthorhombic'
loop_
_space_group_symop_operation_xyz
x,y,z
-x,1/2-y,1/2+z
x,-y,-z
-x,1/2+y,1/2-z
-x,-y,-z
x,1/2+y,1/2-z
-x,y,z
x,1/2-y,1/2+z
1/2+x,1/2+y,z
1/2-x,-y,1/2+z
1/2+x,1/2-y,-z
1/2-x,y,1/2-z
1/2-x,1/2-y,-z
1/2+x,y,1/2-z
1/2-x,1/2+y,z
1/2+x,-y,1/2+z
loop_
_atom_site_type_symbol
_atom_site_label
_atom_site_fract_x
_atom_site_fract_y
_atom_site_fract_z
Si Si1 0.324511 0.073298 0.400736
Si Si2 0.674831 0.809487 0.049606
Si Si3 0.175779 0.599563 0.542874
Si Si4 0.675026 0.776875 0.909049
Si Si5 0.822553 0.155532 0.182948
Si Si6 0.329813 0.986935 0.072768
O O1 0.500000 0.064935 0.398126
O O2 0.293488 0.091571 0.469705
O O3 0.286429 0.110320 0.351713
O O4 0.239270 0.028207 0.392892
O O5 0.500000 0.809036 0.061853
O O6 0.744490 0.856287 0.062092
O O7 0.756060 0.770993 0.085974
O O8 0.696151 0.798551 0.976743
O O9 0.238136 0.557320 0.577598
O O10 0.000000 0.603096 0.550259
O O11 0.500000 0.775019 0.896933
O O12 0.757363 0.806043 0.858948
O O13 0.750000 0.156502 0.250000
O O14 0.000000 0.159066 0.186442
O O15 0.500000 0.980106 0.089634
O O16 0.324698 0.000000 0.000000
#
# Coordination Sequence:
#
# PCOD9476458 Si02
#       6
#    16  16  16  16  16  16
#     4   9  18  31  46  65  94 129 163 200 241 289
#     4  10  19  30  48  72 100 130 163 203 250 301
#     4  10  17  28  46  69  98 130 162 195 241 295
#     4  10  20  33  49  70  97 130 166 205 251 299
#     4  11  22  36  52  72  98 131 171 210 250 294
#     4   9  17  27  42  66  95 125 158 194 236 284
#
# _framework density 15.877896
#
# number of rings (size 3 to 8) (size 9 to 14) (size 15 to 20)
#    0.000    2.167    1.667    2.500    0.000    5.333 
#    0.000    0.000    0.000    0.000    0.000    1.167 
#    0.000    2.667    0.000    0.000    0.000    0.000 
#
# Total GULP energy -267770.595661 kJ/mol
# GULP energy per Si atom -5578.554076 kJ/mol
# Density = 1.584176 g / cm^3
# Si number density = 15.877896 Si / 1000 Ang^3
#
#
#
# Elastic Constant Matrix: (Units=GPa)
#
#
# Indices 1 2 3 4 5 6 
#
# 1 88.0187 86.6471 46.3014 0.0000 0.0000 0.0000
# 2 86.6471 164.8968 50.8739 0.0000 0.0000 0.0000
# 3 46.3014 50.8739 62.8252 0.0000 0.0000 0.0000
# 4 0.0000 0.0000 0.0000 11.6975 0.0000 0.0000
# 5 0.0000 0.0000 0.0000 0.0000 18.7377 0.0000
# 6 0.0000 0.0000 0.0000 0.0000 0.0000 35.8983
#
#
#
# Elastic Compliance Matrix: (Units=1/GPa)
#
#
# Indices 1 2 3 4 5 6 
#
# 1 0.029101 -0.011563 -0.012083 0.000000 0.000000 0.000000
# 2 -0.011563 0.012679 -0.001745 0.000000 0.000000 0.000000
# 3 -0.012083 -0.001745 0.026235 0.000000 0.000000 0.000000
# 4 0.000000 0.000000 0.000000 0.085488 0.000000 0.000000
# 5 0.000000 0.000000 0.000000 0.000000 0.053368 0.000000
# 6 0.000000 0.000000 0.000000 0.000000 0.000000 0.027856
#
#
# Mechanical properties :
#
#
# Convention : Reuss Voigt Hill
#
# Bulk Modulus (GPa) = 58.03174 75.93171 66.98172
# Shear Modulus (GPa) = 17.16713 22.06127 19.61420
#
# Velocity S-wave (km/s) = 3.29172 3.73155 3.51852
# Velocity P-wave (km/s) = 7.14670 8.15427 7.66705
#
# Compressibility (1/GPa) = 0.01723195
#
# Stress axis : x y z
#
# Youngs Moduli (GPa) = 34.36352 78.87148 38.11672
#
# Poissons Ratio (x) = 0.91202 0.46057
# Poissons Ratio (y) = 0.39736 0.06651
# Poissons Ratio (z) = 0.41522 0.13762
#
# Static dielectric constant tensor:
#      x y z
#    x 1.524000 0.000000 0.000000 
#    y 0.000000 1.520270 0.000000 
#    z 0.000000 0.000000 1.501880 
# 
# From -- ./inp_files/36970.got.cif
#   From: 2010.05.17/outbox.cif.g08.bks.cpg/sg64_19_cif.got.tgz:36970.got - 2010.06.03 16:29:19.
