data_PCOD9476909
_publ_section_title
;
Structure prediction by ZEFSAII (Michael W. Deem and Ramdas Pophale) SiO2 
 PCOD9476909
Probable space group: C M C A
;
_chemical_formula_sum "Si O2"
_cell_formula_units_Z 96
_cell_length_a 10.868884
_cell_length_b 29.462860
_cell_length_c 17.378154
_cell_angle_alpha 90.000000
_cell_angle_beta 90.000000
_cell_angle_gamma 90.000000
_cell_volume 5564.978583
_symmetry_space_group_name_H-M "C M C A"
_symmetry_group_IT_number 64
_symmetry_cell_setting 'orthorhombic'
loop_
_space_group_symop_operation_xyz
x,y,z
-x,1/2-y,1/2+z
x,-y,-z
-x,1/2+y,1/2-z
-x,-y,-z
x,1/2+y,1/2-z
-x,y,z
x,1/2-y,1/2+z
1/2+x,1/2+y,z
1/2-x,-y,1/2+z
1/2+x,1/2-y,-z
1/2-x,y,1/2-z
1/2-x,1/2-y,-z
1/2+x,y,1/2-z
1/2-x,1/2+y,z
1/2+x,-y,1/2+z
loop_
_atom_site_type_symbol
_atom_site_label
_atom_site_fract_x
_atom_site_fract_y
_atom_site_fract_z
Si Si1 0.212299 0.926559 0.508624
Si Si2 0.755547 0.285639 0.341781
Si Si3 0.357352 0.382648 0.120737
Si Si4 0.000000 0.144377 0.471313
Si Si5 0.750000 0.448858 0.250000
Si Si6 0.000000 0.274485 0.079396
Si Si7 0.861975 0.498620 0.886414
Si Si8 0.000000 0.239514 0.407057
O O1 0.325501 0.906158 0.460773
O O2 0.120241 0.886557 0.531538
O O3 0.147107 0.959241 0.445546
O O4 0.229689 0.960047 0.581082
O O5 0.750000 0.285490 0.250000
O O6 0.776768 0.337405 0.369468
O O7 0.626770 0.267180 0.375426
O O8 0.875428 0.258213 0.369865
O O9 0.500000 0.370293 0.125521
O O10 0.323687 0.416926 0.190282
O O11 0.000000 0.172848 0.551122
O O12 0.000000 0.184678 0.408936
O O13 0.832305 0.481041 0.196383
O O14 0.000000 0.247862 0.998226
O O15 0.000000 0.479848 0.889301
#
# Coordination Sequence:
#
# PCOD9476909 Si02
#       8
#    16  16  16   8   8   8  16   8
#     4  10  18  34  56  85 102 144 195 231 275 327
#     4  12  22  37  59  90 120 150 191 241 301 347
#     4  11  21  34  53  84 122 150 176 231 291 351
#     4  10  18  33  62  77 103 140 199 230 271 338
#     4  10  22  32  48  84 114 152 186 224 292 332
#     4  10  23  35  59  86 113 153 189 238 277 354
#     4  10  18  32  56  79 111 141 189 244 270 338
#     4  10  23  39  57  83 118 154 194 232 290 352
#
# _framework density 17.250741000000001
#
# number of rings (size 3 to 8) (size 9 to 14) (size 15 to 20)
#    0.500    1.000    5.000    2.000    0.000    0.000 
#    0.000    7.500    1.833    0.000    0.000    0.000 
#    0.000    0.000    0.000    0.000    0.000    0.000 
#
# Total GULP energy -267439.342843 kJ/mol
# GULP energy per Si atom -5571.652976 kJ/mol
# Density = 1.721148 g / cm^3
# Si number density = 17.250741 Si / 1000 Ang^3
#
#
#
# Elastic Constant Matrix: (Units=GPa)
#
#
# Indices 1 2 3 4 5 6 
#
# 1 101.2465 19.6871 37.3542 0.0000 0.0000 0.0000
# 2 19.6871 71.5448 37.2466 0.0000 0.0000 0.0000
# 3 37.3542 37.2466 54.6498 0.0000 0.0000 0.0000
# 4 0.0000 0.0000 0.0000 27.0340 0.0000 0.0000
# 5 0.0000 0.0000 0.0000 0.0000 21.0125 0.0000
# 6 0.0000 0.0000 0.0000 0.0000 0.0000 13.3080
#
#
#
# Elastic Compliance Matrix: (Units=1/GPa)
#
#
# Indices 1 2 3 4 5 6 
#
# 1 0.013335 0.001667 -0.010251 0.000000 0.000000 0.000000
# 2 0.001667 0.021873 -0.016047 0.000000 0.000000 0.000000
# 3 -0.010251 -0.016047 0.036242 0.000000 0.000000 0.000000
# 4 0.000000 0.000000 0.000000 0.036990 0.000000 0.000000
# 5 0.000000 0.000000 0.000000 0.000000 0.047591 0.000000
# 6 0.000000 0.000000 0.000000 0.000000 0.000000 0.075143
#
#
# Mechanical properties :
#
#
# Convention : Reuss Voigt Hill
#
# Bulk Modulus (GPa) = 45.06920 46.22411 45.64665
# Shear Modulus (GPa) = 17.37135 21.14777 19.25956
#
# Velocity S-wave (km/s) = 3.17676 3.50509 3.34495
# Velocity P-wave (km/s) = 6.29590 6.57529 6.43711
#
# Compressibility (1/GPa) = 0.02218810
#
# Stress axis : x y z
#
# Youngs Moduli (GPa) = 74.99250 45.71929 27.59238
#
# Poissons Ratio (x) = -0.07623 0.28285
# Poissons Ratio (y) = -0.12504 0.44277
# Poissons Ratio (z) = 0.76874 0.73366
#
# Static dielectric constant tensor:
#      x y z
#    x 1.579830 0.000000 0.000000 
#    y 0.000000 1.585420 0.000000 
#    z 0.000000 0.000000 1.587970 
# 
# From -- ./inp_files/22701.got.cif
#   From: 2010.05.17/outbox.cif.g08.bks.cpg/sg64_12_cif.got.tgz:22701.got - 2010.06.03 16:29:19.
