data_PCOD9476092
_publ_section_title
;
Structure prediction by ZEFSAII (Michael W. Deem and Ramdas Pophale) SiO2 
 PCOD9476092
Probable space group: C M C M
;
_chemical_formula_sum "Si O2"
_cell_formula_units_Z 48
_cell_length_a 24.000000
_cell_length_b 12.000000
_cell_length_c 18.000000
_cell_angle_alpha 90.000000
_cell_angle_beta 90.000000
_cell_angle_gamma 90.000000
_cell_volume 5184.000000
_symmetry_space_group_name_H-M "C M C M"
_symmetry_group_IT_number 63
_symmetry_cell_setting 'orthorhombic'
loop_
_space_group_symop_operation_xyz
x,y,z
-x,-y,1/2+z
x,-y,-z
-x,y,1/2-z
-x,-y,-z
x,y,1/2-z
-x,y,z
x,-y,1/2+z
1/2+x,1/2+y,z
1/2-x,1/2-y,1/2+z
1/2+x,1/2-y,-z
1/2-x,1/2+y,1/2-z
1/2-x,1/2-y,-z
1/2+x,1/2+y,1/2-z
1/2-x,1/2+y,z
1/2+x,1/2-y,1/2+z
loop_
_atom_site_type_symbol
_atom_site_label
_atom_site_fract_x
_atom_site_fract_y
_atom_site_fract_z
Si Si1 0.787854 0.135973 0.514304
Si Si2 0.566052 0.073055 0.661069
Si Si3 0.850637 0.145242 0.834259
Si Si4 0.398691 0.263629 0.942211
Si Si5 0.061251 0.947192 0.665866
Si Si6 0.564511 0.821330 0.895974
O O1 0.750000 0.250000 0.500000
O O2 0.804987 0.140833 0.601091
O O3 0.842821 0.169974 0.466572
O O4 0.772798 0.000000 0.500000
O O5 0.576996 0.069024 0.750000
O O6 0.500000 0.103581 0.652018
O O7 0.603840 0.161510 0.616457
O O8 0.572963 0.951355 0.623668
O O9 0.828865 0.148639 0.750000
O O10 0.891558 0.249340 0.849274
O O11 0.890483 0.037579 0.842373
O O12 0.434086 0.355278 0.897685
O O13 0.424365 0.212291 0.017956
O O14 0.065961 0.898509 0.750000
O O15 0.000000 0.000848 0.661229
O O16 0.500000 0.795518 0.877935
#
# Coordination Sequence:
#
# PCOD9476092 Si02
#       6
#    16  16  16  16  16  16
#     4  11  25  47  68  90 119 159 211 276 336 379
#     4  10  20  34  53  84 127 169 207 248 303 378
#     4  10  21  39  61  89 125 161 203 252 312 380
#     4  11  21  36  59  86 120 158 211 259 319 374
#     4  10  19  32  57  93 132 167 199 242 307 387
#     4  10  20  32  53  85 128 171 207 246 297 375
#
# _framework density 9.2592590000000001
#
# number of rings (size 3 to 8) (size 9 to 14) (size 15 to 20)
#    0.000    1.667    1.667    3.500    0.000    7.000 
#    0.000    5.000    0.000    0.000    0.000    0.000 
#    0.000    0.000    0.000    0.000    0.000    0.000 
#
# Total GULP energy -267480.298962 kJ/mol
# GULP energy per Si atom -5572.506228 kJ/mol
# Density = 0.923818 g / cm^3
# Si number density = 9.259259 Si / 1000 Ang^3
#
#
#
# Elastic Constant Matrix: (Units=GPa)
#
#
# Indices 1 2 3 4 5 6 
#
# 1 49.5526 27.0212 33.8160 0.0000 0.0000 0.0000
# 2 27.0212 112.0083 48.2172 0.0000 0.0000 0.0000
# 3 33.8160 48.2172 137.5802 0.0000 0.0000 0.0000
# 4 0.0000 0.0000 0.0000 37.0456 0.0000 0.0000
# 5 0.0000 0.0000 0.0000 0.0000 -1.7111 0.0000
# 6 0.0000 0.0000 0.0000 0.0000 0.0000 34.2471
#
#
#
# Elastic Compliance Matrix: (Units=1/GPa)
#
#
# Indices 1 2 3 4 5 6 
#
# 1 0.025759 -0.004109 -0.004891 0.000000 0.000000 0.000000
# 2 -0.004109 0.011169 -0.002905 0.000000 0.000000 0.000000
# 3 -0.004891 -0.002905 0.009489 0.000000 0.000000 0.000000
# 4 0.000000 0.000000 0.000000 0.026994 0.000000 0.000000
# 5 0.000000 0.000000 0.000000 0.000000 -0.584413 0.000000
# 6 0.000000 0.000000 0.000000 0.000000 0.000000 0.029200
#
#
# Mechanical properties :
#
#
# Convention : Reuss Voigt Hill
#
# Bulk Modulus (GPa) = 44.23224 57.47223 50.85223
# Shear Modulus (GPa) = -11.09982 26.58878 7.74448
#
# Velocity S-wave (km/s) = -2.45090 3.79330 2.04722
# Velocity P-wave (km/s) = 3.99099 7.09139 5.75395
#
# Compressibility (1/GPa) = 0.02260795
#
# Stress axis : x y z
#
# Youngs Moduli (GPa) = 38.82138 89.52982 105.38792
#
# Poissons Ratio (x) = 0.36783 0.51550
# Poissons Ratio (y) = 0.15950 0.30612
# Poissons Ratio (z) = 0.18989 0.26006
#
# Static dielectric constant tensor:
#      x y z
#    x 1.642670 0.000000 0.000000 
#    y 0.000000 1.662690 0.000000 
#    z 0.000000 0.000000 1.644220 
# 
# From -- ./inp_files/48004.got.cif
#   From: 2010.05.17/outbox.ucp.g08.bks.cvg/sg63_25_cif.got.tgz:48004.got - 2010.06.11 16:32:19.
