data_PCOD9476268
_publ_section_title
;
Structure prediction by ZEFSAII (Michael W. Deem and Ramdas Pophale) SiO2 
 PCOD9476268
Probable space group: C M C M
;
_chemical_formula_sum "Si O2"
_cell_formula_units_Z 56
_cell_length_a 24.000000
_cell_length_b 15.000000
_cell_length_c 15.000000
_cell_angle_alpha 90.000000
_cell_angle_beta 90.000000
_cell_angle_gamma 90.000000
_cell_volume 5400.000000
_symmetry_space_group_name_H-M "C M C M"
_symmetry_group_IT_number 63
_symmetry_cell_setting 'orthorhombic'
loop_
_space_group_symop_operation_xyz
x,y,z
-x,-y,1/2+z
x,-y,-z
-x,y,1/2-z
-x,-y,-z
x,y,1/2-z
-x,y,z
x,-y,1/2+z
1/2+x,1/2+y,z
1/2-x,1/2-y,1/2+z
1/2+x,1/2-y,-z
1/2-x,1/2+y,1/2-z
1/2-x,1/2-y,-z
1/2+x,1/2+y,1/2-z
1/2-x,1/2+y,z
1/2+x,1/2-y,1/2+z
loop_
_atom_site_type_symbol
_atom_site_label
_atom_site_fract_x
_atom_site_fract_y
_atom_site_fract_z
Si Si1 0.561598 0.100435 0.468319
Si Si2 0.437870 0.469083 0.397713
Si Si3 0.668863 0.646398 0.849687
Si Si4 0.264262 0.599114 0.018857
Si Si5 0.863368 0.120752 0.154749
Si Si6 0.665270 0.853678 0.649492
Si Si7 0.064683 0.294488 0.150854
O O1 0.500000 0.129715 0.435414
O O2 0.610148 0.107708 0.396336
O O3 0.573906 0.151429 0.560646
O O4 0.557820 0.000000 0.500000
O O5 0.439604 0.500000 0.500000
O O6 0.500000 0.439283 0.371809
O O7 0.387643 0.400834 0.382403
O O8 0.416190 0.555809 0.347014
O O9 0.683705 0.612482 0.750000
O O10 0.655043 0.749159 0.842648
O O11 0.717774 0.636633 0.922607
O O12 0.320978 0.597952 0.076638
O O13 0.217004 0.639876 0.081208
O O14 0.244595 0.500000 0.000000
O O15 0.833819 0.112274 0.250000
O O16 0.889659 0.217519 0.147093
O O17 0.676213 0.889150 0.750000
O O18 0.069975 0.338208 0.250000
O O19 0.000000 0.262281 0.146842
#
# Coordination Sequence:
#
# PCOD9476268 Si02
#       7
#    16  16  16  16  16  16  16
#     4  10  22  42  67  92 120 156 200 259 323 382
#     4  11  22  37  60  93 134 177 215 256 310 374
#     4  11  23  41  62  90 127 170 216 262 313 371
#     4  12  23  42  64  90 123 165 211 267 316 369
#     4  11  20  35  61  91 128 171 211 256 310 367
#     4  11  26  44  64  90 122 161 209 261 316 384
#     4   9  19  35  59  93 129 166 209 257 310 371
#
# _framework density 10.370369999999999
#
# number of rings (size 3 to 8) (size 9 to 14) (size 15 to 20)
#    0.000    1.286    2.857    3.000    0.000    3.714 
#    0.000    5.000    0.000    0.000    0.000    0.000 
#    0.000    0.000    0.000    0.000    0.000    0.000 
#
# Total GULP energy -312186.643679 kJ/mol
# GULP energy per Si atom -5574.761494 kJ/mol
# Density = 1.034677 g / cm^3
# Si number density = 10.370370 Si / 1000 Ang^3
#
#
#
# Elastic Constant Matrix: (Units=GPa)
#
#
# Indices 1 2 3 4 5 6 
#
# 1 98.0544 19.3278 77.1599 0.0000 0.0000 0.0000
# 2 19.3278 58.5818 31.3820 0.0000 0.0000 0.0000
# 3 77.1599 31.3820 131.5428 0.0000 0.0000 0.0000
# 4 0.0000 0.0000 0.0000 31.5774 0.0000 0.0000
# 5 0.0000 0.0000 0.0000 0.0000 -136.1912 0.0000
# 6 0.0000 0.0000 0.0000 0.0000 0.0000 -20.8580
#
#
#
# Elastic Compliance Matrix: (Units=1/GPa)
#
#
# Indices 1 2 3 4 5 6 
#
# 1 0.018947 -0.000341 -0.011033 0.000000 0.000000 0.000000
# 2 -0.000341 0.019578 -0.004471 0.000000 0.000000 0.000000
# 3 -0.011033 -0.004471 0.015140 0.000000 0.000000 0.000000
# 4 0.000000 0.000000 0.000000 0.031668 0.000000 0.000000
# 5 0.000000 0.000000 0.000000 0.000000 -0.007343 0.000000
# 6 0.000000 0.000000 0.000000 0.000000 0.000000 -0.047943
#
#
# Mechanical properties :
#
#
# Convention : Reuss Voigt Hill
#
# Bulk Modulus (GPa) = 45.50335 60.43539 52.96937
# Shear Modulus (GPa) = 72.39927 -14.40706 28.99611
#
# Velocity S-wave (km/s) = 5.91461 -2.63844 3.74308
# Velocity P-wave (km/s) = 8.28433 4.46318 6.65395
#
# Compressibility (1/GPa) = 0.02197640
#
# Stress axis : x y z
#
# Youngs Moduli (GPa) = 52.77767 51.07901 66.04954
#
# Poissons Ratio (x) = 0.01742 0.72871
# Poissons Ratio (y) = 0.01800 0.29528
# Poissons Ratio (z) = 0.58228 0.22835
#
# Static dielectric constant tensor:
#      x y z
#    x 1.725070 0.000000 0.000000 
#    y 0.000000 1.773140 0.000000 
#    z 0.000000 0.000000 1.523250 
# 
# From -- ./inp_files/36934.got.cif
#   From: 2010.05.17/outbox.ucp.g08.bks.cvg/sg63_19_cif.got.tgz:36934.got - 2010.06.11 16:32:19.
