data_PCOD9476724
_publ_section_title
;
Structure prediction by ZEFSAII (Michael W. Deem and Ramdas Pophale) SiO2 
 PCOD9476724
Probable space group: C M C A
;
_chemical_formula_sum "Si O2"
_cell_formula_units_Z 88
_cell_length_a 9.819382
_cell_length_b 23.614973
_cell_length_c 22.758498
_cell_angle_alpha 90.000000
_cell_angle_beta 90.000000
_cell_angle_gamma 90.000000
_cell_volume 5277.341582
_symmetry_space_group_name_H-M "C M C A"
_symmetry_group_IT_number 64
_symmetry_cell_setting 'orthorhombic'
loop_
_space_group_symop_operation_xyz
x,y,z
-x,1/2-y,1/2+z
x,-y,-z
-x,1/2+y,1/2-z
-x,-y,-z
x,1/2+y,1/2-z
-x,y,z
x,1/2-y,1/2+z
1/2+x,1/2+y,z
1/2-x,-y,1/2+z
1/2+x,1/2-y,-z
1/2-x,y,1/2-z
1/2-x,1/2-y,-z
1/2+x,y,1/2-z
1/2-x,1/2+y,z
1/2+x,-y,1/2+z
loop_
_atom_site_type_symbol
_atom_site_label
_atom_site_fract_x
_atom_site_fract_y
_atom_site_fract_z
Si Si1 0.155121 0.427479 0.891030
Si Si2 0.159255 0.999949 0.192339
Si Si3 0.151314 0.091109 0.908958
Si Si4 0.654686 0.201265 0.072129
Si Si5 0.753319 0.500000 0.000000
Si Si6 0.843269 0.804193 0.430093
O O1 0.266444 0.452048 0.846607
O O2 0.181281 0.361639 0.904183
O O3 0.165510 0.463478 0.951599
O O4 0.000000 0.433782 0.868628
O O5 0.250000 0.991928 0.250000
O O6 0.000000 0.012626 0.204556
O O7 0.162345 0.944523 0.150887
O O8 0.264357 0.139222 0.912136
O O9 0.000000 0.116290 0.913913
O O10 0.170364 0.045745 0.961694
O O11 0.500000 0.217508 0.088566
O O12 0.761961 0.248728 0.090889
O O13 0.658930 0.197367 0.001237
O O14 0.000000 0.804426 0.411072
#
# Coordination Sequence:
#
# PCOD9476724 Si02
#       6
#    16  16  16  16   8  16
#     4  10  19  32  53  77 106 138 170 213 257 305
#     4  10  22  38  55  77 102 135 176 214 262 308
#     4  10  20  33  51  75 105 137 169 213 260 309
#     4   9  18  32  47  72 106 142 174 205 250 303
#     4  10  18  30  48  78 106 136 172 206 252 312
#     4  10  19  31  48  74 104 140 177 209 250 303
#
# _framework density 16.675063000000002
#
# number of rings (size 3 to 8) (size 9 to 14) (size 15 to 20)
#    0.000    2.182    1.818    1.636    0.000    5.818 
#    0.000    0.000    0.000    1.091    0.000    5.091 
#    0.000    0.000    0.000    0.000    0.000    0.000 
#
# Total GULP energy -245295.103171 kJ/mol
# GULP energy per Si atom -5574.888708 kJ/mol
# Density = 1.663711 g / cm^3
# Si number density = 16.675063 Si / 1000 Ang^3
#
#
#
# Elastic Constant Matrix: (Units=GPa)
#
#
# Indices 1 2 3 4 5 6 
#
# 1 170.5697 86.8580 46.1044 0.0000 0.0000 0.0000
# 2 86.8580 108.4878 20.1672 0.0000 0.0000 0.0000
# 3 46.1044 20.1672 60.7228 0.0000 0.0000 0.0000
# 4 0.0000 0.0000 0.0000 9.4798 0.0000 0.0000
# 5 0.0000 0.0000 0.0000 0.0000 14.5740 0.0000
# 6 0.0000 0.0000 0.0000 0.0000 0.0000 28.2986
#
#
#
# Elastic Compliance Matrix: (Units=1/GPa)
#
#
# Indices 1 2 3 4 5 6 
#
# 1 0.011727 -0.008242 -0.006166 0.000000 0.000000 0.000000
# 2 -0.008242 0.015618 0.001071 0.000000 0.000000 0.000000
# 3 -0.006166 0.001071 0.020794 0.000000 0.000000 0.000000
# 4 0.000000 0.000000 0.000000 0.105487 0.000000 0.000000
# 5 0.000000 0.000000 0.000000 0.000000 0.068615 0.000000
# 6 0.000000 0.000000 0.000000 0.000000 0.000000 0.035337
#
#
# Mechanical properties :
#
#
# Convention : Reuss Voigt Hill
#
# Bulk Modulus (GPa) = 46.59004 71.78219 59.18611
# Shear Modulus (GPa) = 17.15813 22.91388 20.03600
#
# Velocity S-wave (km/s) = 3.21124 3.71096 3.47011
# Velocity P-wave (km/s) = 6.46142 7.84237 7.18515
#
# Compressibility (1/GPa) = 0.02146381
#
# Stress axis : x y z
#
# Youngs Moduli (GPa) = 85.27654 64.03068 48.09044
#
# Poissons Ratio (x) = 0.52776 0.29653
# Poissons Ratio (y) = 0.70288 -0.05151
# Poissons Ratio (z) = 0.52582 -0.06859
#
# Static dielectric constant tensor:
#      x y z
#    x 1.573320 0.000000 0.000000 
#    y 0.000000 1.544140 0.000000 
#    z 0.000000 0.000000 1.539040 
# 
# From -- ./inp_files/36762.got.cif
#   From: 2010.05.17/outbox.cif.g08.bks.cpg/sg64_19_cif.got.tgz:36762.got - 2010.06.03 16:29:19.
