data_PCOD9476383
_publ_section_title
;
Structure prediction by ZEFSAII (Michael W. Deem and Ramdas Pophale) SiO2 
 PCOD9476383
Probable space group: C M C A
;
_chemical_formula_sum "Si O2"
_cell_formula_units_Z 112
_cell_length_a 21.165158
_cell_length_b 15.061855
_cell_length_c 19.369588
_cell_angle_alpha 90.000000
_cell_angle_beta 90.000000
_cell_angle_gamma 90.000000
_cell_volume 6174.763956
_symmetry_space_group_name_H-M "C M C A"
_symmetry_group_IT_number 64
_symmetry_cell_setting 'orthorhombic'
loop_
_space_group_symop_operation_xyz
x,y,z
-x,1/2-y,1/2+z
x,-y,-z
-x,1/2+y,1/2-z
-x,-y,-z
x,1/2+y,1/2-z
-x,y,z
x,1/2-y,1/2+z
1/2+x,1/2+y,z
1/2-x,-y,1/2+z
1/2+x,1/2-y,-z
1/2-x,y,1/2-z
1/2-x,1/2-y,-z
1/2+x,y,1/2-z
1/2-x,1/2+y,z
1/2+x,-y,1/2+z
loop_
_atom_site_type_symbol
_atom_site_label
_atom_site_fract_x
_atom_site_fract_y
_atom_site_fract_z
Si Si1 0.261533 0.948096 0.938503
Si Si2 0.832836 0.800355 0.786510
Si Si3 0.198020 0.009494 0.803936
Si Si4 0.071634 0.819683 0.898540
Si Si5 0.795082 0.273276 0.862007
Si Si6 0.426969 0.532764 0.873600
Si Si7 0.649473 0.351874 0.022008
O O1 0.231908 0.009365 0.878677
O O2 0.297126 0.870025 0.898101
O O3 0.202163 0.903600 0.978019
O O4 0.296477 0.000000 0.000000
O O5 0.815129 0.905820 0.784984
O O6 0.895859 0.785898 0.829159
O O7 0.835440 0.769391 0.708008
O O8 0.775542 0.760019 0.831742
O O9 0.250000 0.045523 0.750000
O O10 0.127677 0.048403 0.815552
O O11 0.000000 0.792251 0.905609
O O12 0.074576 0.927661 0.891655
O O13 0.112364 0.794658 0.965172
O O14 0.816177 0.205019 0.919633
O O15 0.500000 0.555024 0.856706
O O16 0.401584 0.586067 0.939876
#
# Coordination Sequence:
#
# PCOD9476383 Si02
#       7
#    16  16  16  16  16  16  16
#     4  11  18  31  50  78 107 135 175 222 262 316
#     4   9  17  35  51  70 101 142 182 219 249 319
#     4  10  16  32  54  74 105 139 181 216 256 313
#     4  10  19  32  55  77 103 142 176 213 268 324
#     4  10  20  32  52  73 106 145 176 219 270 306
#     4  10  20  33  51  80 112 138 171 217 270 324
#     4  12  19  30  49  81 111 138 171 219 274 323
#
# _framework density 18.138345000000001
#
# number of rings (size 3 to 8) (size 9 to 14) (size 15 to 20)
#    0.000    1.714    8.571    1.286    0.000    1.143 
#    2.571    1.429    0.000    0.000    0.000    0.000 
#    0.000    5.714    0.000    0.000    0.000    0.000 
#
# Total GULP energy -312198.562719 kJ/mol
# GULP energy per Si atom -5574.974334 kJ/mol
# Density = 1.809706 g / cm^3
# Si number density = 18.138345 Si / 1000 Ang^3
#
#
#
# Elastic Constant Matrix: (Units=GPa)
#
#
# Indices 1 2 3 4 5 6 
#
# 1 78.7400 18.9714 59.3459 0.0000 0.0000 0.0000
# 2 18.9714 28.3225 26.6598 0.0000 0.0000 0.0000
# 3 59.3459 26.6598 149.3676 0.0000 0.0000 0.0000
# 4 0.0000 0.0000 0.0000 24.0934 0.0000 0.0000
# 5 0.0000 0.0000 0.0000 0.0000 20.9501 0.0000
# 6 0.0000 0.0000 0.0000 0.0000 0.0000 7.2203
#
#
#
# Elastic Compliance Matrix: (Units=1/GPa)
#
#
# Indices 1 2 3 4 5 6 
#
# 1 0.019164 -0.006814 -0.006398 0.000000 0.000000 0.000000
# 2 -0.006814 0.044860 -0.005299 0.000000 0.000000 0.000000
# 3 -0.006398 -0.005299 0.010183 0.000000 0.000000 0.000000
# 4 0.000000 0.000000 0.000000 0.041505 0.000000 0.000000
# 5 0.000000 0.000000 0.000000 0.000000 0.047733 0.000000
# 6 0.000000 0.000000 0.000000 0.000000 0.000000 0.138498
#
#
# Mechanical properties :
#
#
# Convention : Reuss Voigt Hill
#
# Bulk Modulus (GPa) = 26.89346 51.82048 39.35697
# Shear Modulus (GPa) = 14.23038 20.54963 17.39001
#
# Velocity S-wave (km/s) = 2.80402 3.36957 3.09972
# Velocity P-wave (km/s) = 5.03412 6.61591 5.87846
#
# Compressibility (1/GPa) = 0.03718376
#
# Stress axis : x y z
#
# Youngs Moduli (GPa) = 52.18159 22.29134 98.20569
#
# Poissons Ratio (x) = 0.15190 0.62830
# Poissons Ratio (y) = 0.35558 0.52044
# Poissons Ratio (z) = 0.33385 0.11813
#
# Static dielectric constant tensor:
#      x y z
#    x 1.622660 0.000000 0.000000 
#    y 0.000000 1.678880 0.000000 
#    z 0.000000 0.000000 1.642800 
# 
# From -- ./inp_files/34472.got.cif
#   From: 2010.05.17/outbox.cif.g08.bks.cpg/sg64_18_cif.got.tgz:34472.got - 2010.06.03 16:29:19.
