data_PCOD9476943
_publ_section_title
;
Structure prediction by ZEFSAII (Michael W. Deem and Ramdas Pophale) SiO2 
 PCOD9476943
Probable space group: C M C A
;
_chemical_formula_sum "Si O2"
_cell_formula_units_Z 96
_cell_length_a 25.105063
_cell_length_b 8.340093
_cell_length_c 22.156054
_cell_angle_alpha 90.000000
_cell_angle_beta 90.000000
_cell_angle_gamma 90.000000
_cell_volume 4639.002686
_symmetry_space_group_name_H-M "C M C A"
_symmetry_group_IT_number 64
_symmetry_cell_setting 'orthorhombic'
loop_
_space_group_symop_operation_xyz
x,y,z
-x,1/2-y,1/2+z
x,-y,-z
-x,1/2+y,1/2-z
-x,-y,-z
x,1/2+y,1/2-z
-x,y,z
x,1/2-y,1/2+z
1/2+x,1/2+y,z
1/2-x,-y,1/2+z
1/2+x,1/2-y,-z
1/2-x,y,1/2-z
1/2-x,1/2-y,-z
1/2+x,y,1/2-z
1/2-x,1/2+y,z
1/2+x,-y,1/2+z
loop_
_atom_site_type_symbol
_atom_site_label
_atom_site_fract_x
_atom_site_fract_y
_atom_site_fract_z
Si Si1 0.813483 0.638071 0.613466
Si Si2 0.103728 0.292144 0.069952
Si Si3 0.791219 0.502318 0.069197
Si Si4 0.500000 0.452342 0.390935
Si Si5 0.376374 0.500000 0.000000
Si Si6 0.000000 0.206027 0.223961
Si Si7 0.500000 0.680905 0.860313
Si Si8 0.405953 0.971785 0.665764
O O1 0.753506 0.570148 0.613613
O O2 0.840694 0.548630 0.556911
O O3 0.852980 0.583689 0.668552
O O4 0.808872 0.825009 0.595389
O O5 0.157597 0.389307 0.062353
O O6 0.053353 0.403992 0.075287
O O7 0.109797 0.189467 0.131164
O O8 0.093507 0.160112 0.018816
O O9 0.769251 0.500000 0.000000
O O10 0.500000 0.340536 0.329539
O O11 0.500000 0.641702 0.384603
O O12 0.000000 0.286937 0.288358
O O13 0.053901 0.097370 0.217219
O O14 0.552189 0.576548 0.873822
#
# Coordination Sequence:
#
# PCOD9476943 Si02
#       8
#    16  16  16   8   8   8   8  16
#     4  11  20  33  54  81 118 153 199 244 284 319
#     4  10  21  35  52  75 116 152 200 239 283 332
#     4  12  21  34  55  84 111 162 215 246 267 325
#     4  10  20  35  52  81 108 139 185 238 291 354
#     4  10  18  33  50  72 106 159 192 240 276 324
#     4   9  19  37  62  87 108 139 178 230 290 362
#     4  11  19  37  63  84 108 139 182 234 296 361
#     4   9  20  35  55  87 116 143 181 238 294 343
#
# _framework density 20.694102999999998
#
# number of rings (size 3 to 8) (size 9 to 14) (size 15 to 20)
#    0.000    1.667    2.500    5.000    0.000    0.333 
#    0.000    2.083    0.000    0.000    0.000   39.667 
#    0.000    0.000    0.000    0.000    0.000    0.000 
#
# Total GULP energy -267462.753044 kJ/mol
# GULP energy per Si atom -5572.140688 kJ/mol
# Density = 2.064700 g / cm^3
# Si number density = 20.694103 Si / 1000 Ang^3
#
#
#
# Elastic Constant Matrix: (Units=GPa)
#
#
# Indices 1 2 3 4 5 6 
#
# 1 110.0074 29.2103 12.7172 0.0000 0.0000 0.0000
# 2 29.2103 111.7183 -0.1576 0.0000 0.0000 0.0000
# 3 12.7172 -0.1576 24.1745 0.0000 0.0000 0.0000
# 4 0.0000 0.0000 0.0000 27.4268 0.0000 0.0000
# 5 0.0000 0.0000 0.0000 0.0000 4.6428 0.0000
# 6 0.0000 0.0000 0.0000 0.0000 0.0000 -23.5318
#
#
#
# Elastic Compliance Matrix: (Units=1/GPa)
#
#
# Indices 1 2 3 4 5 6 
#
# 1 0.010456 -0.002742 -0.005519 0.000000 0.000000 0.000000
# 2 -0.002742 0.009670 0.001505 0.000000 0.000000 0.000000
# 3 -0.005519 0.001505 0.044279 0.000000 0.000000 0.000000
# 4 0.000000 0.000000 0.000000 0.036461 0.000000 0.000000
# 5 0.000000 0.000000 0.000000 0.000000 0.215390 0.000000
# 6 0.000000 0.000000 0.000000 0.000000 0.000000 -0.042496
#
#
# Mechanical properties :
#
#
# Convention : Reuss Voigt Hill
#
# Bulk Modulus (GPa) = 19.64814 36.60445 28.12629
# Shear Modulus (GPa) = 16.43469 15.31624 15.87547
#
# Velocity S-wave (km/s) = 2.82116 2.72348 2.77275
# Velocity P-wave (km/s) = 4.48633 5.25514 4.88588
#
# Compressibility (1/GPa) = 0.05089541
#
# Stress axis : x y z
#
# Youngs Moduli (GPa) = 95.63647 103.41192 22.58416
#
# Poissons Ratio (x) = 0.28353 0.12463
# Poissons Ratio (y) = 0.26221 -0.03400
# Poissons Ratio (z) = 0.52777 -0.15567
#
# Static dielectric constant tensor:
#      x y z
#    x 1.748370 0.000000 0.000000 
#    y 0.000000 1.760230 0.000000 
#    z 0.000000 0.000000 1.778360 
# 
# From -- ./inp_files/46660.got.cif
#   From: 2010.05.17/outbox.cif.g08.bks.cpg/sg64_24_cif.got.tgz:46660.got - 2010.06.03 16:29:19.
