data_PCOD9476505
_publ_section_title
;
Structure prediction by ZEFSAII (Michael W. Deem and Ramdas Pophale) SiO2 
 PCOD9476505
Probable space group: C M C A
;
_chemical_formula_sum "Si O2"
_cell_formula_units_Z 96
_cell_length_a 10.482879
_cell_length_b 19.039812
_cell_length_c 27.495778
_cell_angle_alpha 90.000000
_cell_angle_beta 90.000000
_cell_angle_gamma 90.000000
_cell_volume 5487.938570
_symmetry_space_group_name_H-M "C M C A"
_symmetry_group_IT_number 64
_symmetry_cell_setting 'orthorhombic'
loop_
_space_group_symop_operation_xyz
x,y,z
-x,1/2-y,1/2+z
x,-y,-z
-x,1/2+y,1/2-z
-x,-y,-z
x,1/2+y,1/2-z
-x,y,z
x,1/2-y,1/2+z
1/2+x,1/2+y,z
1/2-x,-y,1/2+z
1/2+x,1/2-y,-z
1/2-x,y,1/2-z
1/2-x,1/2-y,-z
1/2+x,y,1/2-z
1/2-x,1/2+y,z
1/2+x,-y,1/2+z
loop_
_atom_site_type_symbol
_atom_site_label
_atom_site_fract_x
_atom_site_fract_y
_atom_site_fract_z
Si Si1 0.852916 0.939754 0.965183
Si Si2 0.500000 0.349493 0.316605
Si Si3 0.260553 0.978070 0.635824
Si Si4 0.000000 0.350379 0.295529
Si Si5 0.647773 0.201743 0.527584
Si Si6 0.000000 0.020568 0.202058
Si Si7 0.500000 0.519995 0.312360
Si Si8 0.767363 0.648764 0.633499
O O1 0.000000 0.959428 0.952874
O O2 0.778802 0.939323 0.915007
O O3 0.854416 0.869183 0.995759
O O4 0.799548 0.000000 0.000000
O O5 0.500000 0.324574 0.260292
O O6 0.500000 0.434617 0.312507
O O7 0.628343 0.330498 0.345885
O O8 0.374968 0.959302 0.672185
O O9 0.127419 0.959303 0.660056
O O10 0.268077 0.063159 0.627806
O O11 0.000000 0.435575 0.294297
O O12 0.125850 0.331791 0.326357
O O13 0.500000 0.228038 0.529296
O O14 0.750000 0.250000 0.500000
O O15 0.695014 0.182764 0.581996
O O16 0.000000 0.046270 0.257172
#
# Coordination Sequence:
#
# PCOD9476505 Si02
#       8
#    16   8  16   8  16   8   8  16
#     4  10  19  34  59  82 103 138 187 223 259 317
#     4   9  18  28  46  77 115 142 171 219 274 333
#     4  10  17  30  50  80 107 142 180 220 271 319
#     4   9  16  28  48  77 107 142 181 217 270 323
#     4  11  24  40  57  80 109 147 188 227 274 328
#     4   9  16  26  48  72 109 147 177 215 264 329
#     4   9  18  28  40  76 121 143 165 215 282 327
#     4  10  18  31  52  77 111 144 175 223 275 319
#
# _framework density 17.492908
#
# number of rings (size 3 to 8) (size 9 to 14) (size 15 to 20)
#    0.000    2.167    3.333    1.000    1.167    4.000 
#    1.500    0.417    0.000    0.000    0.000    7.000 
#    0.000    0.000    0.000    0.000    0.000    0.000 
#
# Total GULP energy -267596.330531 kJ/mol
# GULP energy per Si atom -5574.923553 kJ/mol
# Density = 1.745309 g / cm^3
# Si number density = 17.492908 Si / 1000 Ang^3
#
#
#
# Elastic Constant Matrix: (Units=GPa)
#
#
# Indices 1 2 3 4 5 6 
#
# 1 173.0050 17.1129 99.3774 0.0000 0.0000 0.0000
# 2 17.1129 14.7959 16.5441 0.0000 0.0000 0.0000
# 3 99.3774 16.5441 179.7700 0.0000 0.0000 0.0000
# 4 0.0000 0.0000 0.0000 16.3997 0.0000 0.0000
# 5 0.0000 0.0000 0.0000 0.0000 18.8238 0.0000
# 6 0.0000 0.0000 0.0000 0.0000 0.0000 39.3870
#
#
#
# Elastic Compliance Matrix: (Units=1/GPa)
#
#
# Indices 1 2 3 4 5 6 
#
# 1 0.008827 -0.005298 -0.004392 0.000000 0.000000 0.000000
# 2 -0.005298 0.078519 -0.004297 0.000000 0.000000 0.000000
# 3 -0.004392 -0.004297 0.008386 0.000000 0.000000 0.000000
# 4 0.000000 0.000000 0.000000 0.060977 0.000000 0.000000
# 5 0.000000 0.000000 0.000000 0.000000 0.053124 0.000000
# 6 0.000000 0.000000 0.000000 0.000000 0.000000 0.025389
#
#
# Mechanical properties :
#
#
# Convention : Reuss Voigt Hill
#
# Bulk Modulus (GPa) = 14.75859 70.40441 42.58150
# Shear Modulus (GPa) = 17.49578 30.55787 24.02682
#
# Velocity S-wave (km/s) = 3.16597 4.18409 3.71012
# Velocity P-wave (km/s) = 4.67115 7.97978 6.53822
#
# Compressibility (1/GPa) = 0.06775716
#
# Stress axis : x y z
#
# Youngs Moduli (GPa) = 113.28673 12.73576 119.24540
#
# Poissons Ratio (x) = 0.06748 0.52373
# Poissons Ratio (y) = 0.60024 0.51241
# Poissons Ratio (z) = 0.49756 0.05473
#
# Static dielectric constant tensor:
#      x y z
#    x 1.616280 0.000000 0.000000 
#    y 0.000000 1.578190 0.000000 
#    z 0.000000 0.000000 1.580920 
# 
# From -- ./inp_files/44372.got.cif
#   From: 2010.05.17/outbox.cif.g08.bks.cpg/sg64_23_cif.got.tgz:44372.got - 2010.06.03 16:29:19.
