data_PCOD9476216
_publ_section_title
;
Structure prediction by ZEFSAII (Michael W. Deem and Ramdas Pophale) SiO2 
 PCOD9476216
Probable space group: C M C M
;
_chemical_formula_sum "Si O2"
_cell_formula_units_Z 40
_cell_length_a 27.000000
_cell_length_b 18.000000
_cell_length_c 9.000000
_cell_angle_alpha 90.000000
_cell_angle_beta 90.000000
_cell_angle_gamma 90.000000
_cell_volume 4374.000000
_symmetry_space_group_name_H-M "C M C M"
_symmetry_group_IT_number 63
_symmetry_cell_setting 'orthorhombic'
loop_
_space_group_symop_operation_xyz
x,y,z
-x,-y,1/2+z
x,-y,-z
-x,y,1/2-z
-x,-y,-z
x,y,1/2-z
-x,y,z
x,-y,1/2+z
1/2+x,1/2+y,z
1/2-x,1/2-y,1/2+z
1/2+x,1/2-y,-z
1/2-x,1/2+y,1/2-z
1/2-x,1/2-y,-z
1/2+x,1/2+y,1/2-z
1/2-x,1/2+y,z
1/2+x,1/2-y,1/2+z
loop_
_atom_site_type_symbol
_atom_site_label
_atom_site_fract_x
_atom_site_fract_y
_atom_site_fract_z
Si Si1 0.356679 0.338645 0.077007
Si Si2 0.750224 0.668121 0.927439
Si Si3 0.152138 0.339246 0.924218
Si Si4 0.054730 0.080449 0.426250
Si Si5 0.946416 0.419014 0.929091
O O1 0.365384 0.357013 0.250000
O O2 0.302292 0.368485 0.032431
O O3 0.352864 0.249652 0.064426
O O4 0.401155 0.368691 0.981354
O O5 0.751141 0.675953 0.750000
O O6 0.750000 0.750000 0.000000
O O7 0.800320 0.632326 0.986757
O O8 0.159221 0.356332 0.750000
O O9 0.101007 0.373536 0.978725
O O10 0.056524 0.072232 0.250000
O O11 0.000000 0.109684 0.467968
O O12 0.060124 0.000000 0.500000
O O13 0.944481 0.424782 0.750000
O O14 0.000000 0.385153 0.967972
O O15 0.944414 0.500000 0.000000
#
# Coordination Sequence:
#
# PCOD9476216 Si02
#       5
#    16  16  16  16  16
#     4   9  18  32  51  75 100 128 163 200 240 290
#     4   9  17  30  49  73 101 131 162 198 243 291
#     4   9  18  32  51  75 101 131 166 202 244 292
#     4  10  21  36  53  73  98 129 163 200 245 294
#     4   9  18  33  51  71  98 132 168 205 246 292
#
# _framework density 9.1449470000000002
#
# number of rings (size 3 to 8) (size 9 to 14) (size 15 to 20)
#    0.000    2.800    0.000    2.400    0.000    6.800 
#    0.000    3.000    0.000    4.800    0.000    0.000 
#    0.000    0.000    0.000    0.000    0.000    0.000 
#
# Total GULP energy -222721.032769 kJ/mol
# GULP energy per Si atom -5568.025819 kJ/mol
# Density = 0.912413 g / cm^3
# Si number density = 9.144947 Si / 1000 Ang^3
#
#
#
# Elastic Constant Matrix: (Units=GPa)
#
#
# Indices 1 2 3 4 5 6 
#
# 1 194.1090 39.9872 68.2049 0.0000 0.0000 0.0000
# 2 39.9872 3.8363 15.4217 0.0000 0.0000 0.0000
# 3 68.2049 15.4217 40.1895 0.0000 0.0000 0.0000
# 4 0.0000 0.0000 0.0000 20.9800 0.0000 0.0000
# 5 0.0000 0.0000 0.0000 0.0000 95.5886 0.0000
# 6 0.0000 0.0000 0.0000 0.0000 0.0000 34.1262
#
#
#
# Elastic Compliance Matrix: (Units=1/GPa)
#
#
# Indices 1 2 3 4 5 6 
#
# 1 0.005880 0.039031 -0.024956 0.000000 0.000000 0.000000
# 2 0.039031 -0.221381 0.018711 0.000000 0.000000 0.000000
# 3 -0.024956 0.018711 0.060056 0.000000 0.000000 0.000000
# 4 0.000000 0.000000 0.000000 0.047665 0.000000 0.000000
# 5 0.000000 0.000000 0.000000 0.000000 0.010461 0.000000
# 6 0.000000 0.000000 0.000000 0.000000 0.000000 0.029303
#
#
# Mechanical properties :
#
#
# Convention : Reuss Voigt Hill
#
# Bulk Modulus (GPa) = -11.12653 53.92915 21.40131
# Shear Modulus (GPa) = -30.57256 37.77368 3.60056
#
# Velocity S-wave (km/s) = -4.09290 4.54946 1.40459
# Velocity P-wave (km/s) = 5.33221 7.55953 3.78907
#
# Compressibility (1/GPa) = -0.08987532
#
# Stress axis : x y z
#
# Youngs Moduli (GPa) = 170.06123 -4.51709 16.65124
#
# Poissons Ratio (x) = 0.17631 0.41556
# Poissons Ratio (y) = -6.63767 -0.31155
# Poissons Ratio (z) = 4.24412 0.08452
#
# Static dielectric constant tensor:
#      x y z
#    x 1.692880 0.000000 0.000000 
#    y 0.000000 1.601490 0.000000 
#    z 0.000000 0.000000 1.612190 
# 
# From -- ./inp_files/11971.got.cif
#   From: 2010.05.17/outbox.ucp.g08.bks.cvg/sg63_6_cif.got.tgz:11971.got - 2010.06.11 16:32:19.
