data_PCOD9476070
_publ_section_title
;
Structure prediction by ZEFSAII (Michael W. Deem and Ramdas Pophale) SiO2 
 PCOD9476070
Probable space group: C M C M
;
_chemical_formula_sum "Si O2"
_cell_formula_units_Z 40
_cell_length_a 18.000000
_cell_length_b 27.000000
_cell_length_c 9.000000
_cell_angle_alpha 90.000000
_cell_angle_beta 90.000000
_cell_angle_gamma 90.000000
_cell_volume 4374.000000
_symmetry_space_group_name_H-M "C M C M"
_symmetry_group_IT_number 63
_symmetry_cell_setting 'orthorhombic'
loop_
_space_group_symop_operation_xyz
x,y,z
-x,-y,1/2+z
x,-y,-z
-x,y,1/2-z
-x,-y,-z
x,y,1/2-z
-x,y,z
x,-y,1/2+z
1/2+x,1/2+y,z
1/2-x,1/2-y,1/2+z
1/2+x,1/2-y,-z
1/2-x,1/2+y,1/2-z
1/2-x,1/2-y,-z
1/2+x,1/2+y,1/2-z
1/2-x,1/2+y,z
1/2+x,1/2-y,1/2+z
loop_
_atom_site_type_symbol
_atom_site_label
_atom_site_fract_x
_atom_site_fract_y
_atom_site_fract_z
Si Si1 0.920577 0.422306 0.071367
Si Si2 0.241645 0.451532 0.073322
Si Si3 0.714478 0.352524 0.924921
Si Si4 0.618245 0.821079 0.923429
Si Si5 0.917573 0.219539 0.425118
O O1 0.919655 0.424565 0.250000
O O2 0.844096 0.446374 0.017327
O O3 0.000000 0.442407 0.017780
O O4 0.914862 0.365703 0.018863
O O5 0.241324 0.455427 0.250000
O O6 0.275097 0.500000 0.000000
O O7 0.281019 0.401895 0.020441
O O8 0.707865 0.365197 0.750000
O O9 0.792601 0.324038 0.942603
O O10 0.646355 0.318259 0.968649
O O11 0.601326 0.828776 0.750000
O O12 0.589471 0.769183 0.981162
O O13 0.907078 0.231673 0.250000
O O14 0.000000 0.198288 0.442381
#
# Coordination Sequence:
#
# PCOD9476070 Si02
#       5
#    16  16  16  16  16
#     4   9  18  32  48  68  98 134 167 197 232 278
#     4  10  20  34  53  74  95 123 160 201 245 290
#     4   9  19  35  52  71  97 128 163 201 239 283
#     4  10  19  30  47  72 101 133 166 198 233 276
#     4  10  20  33  50  72  99 131 163 197 240 287
#
# _framework density 9.1449470000000002
#
# number of rings (size 3 to 8) (size 9 to 14) (size 15 to 20)
#    0.000    2.400    0.000    2.400    0.000    6.000 
#    0.000    0.000    0.000    0.600    0.000    0.000 
#    0.000    0.000    0.000    0.000    0.000    0.000 
#
# Total GULP energy -223086.800512 kJ/mol
# GULP energy per Si atom -5577.170013 kJ/mol
# Density = 0.912413 g / cm^3
# Si number density = 9.144947 Si / 1000 Ang^3
#
#
#
# Elastic Constant Matrix: (Units=GPa)
#
#
# Indices 1 2 3 4 5 6 
#
# 1 49.4232 31.7002 5.9662 0.0000 0.0000 0.0000
# 2 31.7002 72.2870 14.3825 0.0000 0.0000 0.0000
# 3 5.9662 14.3825 -6.4760 0.0000 0.0000 0.0000
# 4 0.0000 0.0000 0.0000 20.8615 0.0000 0.0000
# 5 0.0000 0.0000 0.0000 0.0000 15.0344 0.0000
# 6 0.0000 0.0000 0.0000 0.0000 0.0000 -24.4069
#
#
#
# Elastic Compliance Matrix: (Units=1/GPa)
#
#
# Indices 1 2 3 4 5 6 
#
# 1 0.028142 -0.012137 -0.001028 0.000000 0.000000 0.000000
# 2 -0.012137 0.014828 0.021751 0.000000 0.000000 0.000000
# 3 -0.001028 0.021751 -0.107056 0.000000 0.000000 0.000000
# 4 0.000000 0.000000 0.000000 0.047935 0.000000 0.000000
# 5 0.000000 0.000000 0.000000 0.000000 0.066514 0.000000
# 6 0.000000 0.000000 0.000000 0.000000 0.000000 -0.040972
#
#
# Mechanical properties :
#
#
# Convention : Reuss Voigt Hill
#
# Bulk Modulus (GPa) = -21.31633 24.37025 1.52696
# Shear Modulus (GPa) = -213.50265 6.51014 -103.49625
#
# Velocity S-wave (km/s) = -10.81601 1.88869 -7.53057
# Velocity P-wave (km/s) = 12.94841 4.25553 8.64731
#
# Compressibility (1/GPa) = -0.04691238
#
# Stress axis : x y z
#
# Youngs Moduli (GPa) = 35.53404 67.43804 -9.34090
#
# Poissons Ratio (x) = 0.81848 -0.00960
# Poissons Ratio (y) = 0.43127 0.20317
# Poissons Ratio (z) = 0.03652 -1.46685
#
# Static dielectric constant tensor:
#      x y z
#    x 1.659440 0.000000 0.000000 
#    y 0.000000 1.608520 0.000000 
#    z 0.000000 0.000000 1.602960 
# 
# From -- ./inp_files/6386.got.cif
#   From: 2010.05.17/outbox.ucp.g08.bks.cvg/sg63_4_cif.got.tgz:6386.got - 2010.06.11 16:32:19.
