data_PCOD9476430
_publ_section_title
;
Structure prediction by ZEFSAII (Michael W. Deem and Ramdas Pophale) SiO2 
 PCOD9476430
Probable space group: C M C A
;
_chemical_formula_sum "Si O2"
_cell_formula_units_Z 80
_cell_length_a 8.416708
_cell_length_b 26.914274
_cell_length_c 17.879585
_cell_angle_alpha 90.000000
_cell_angle_beta 90.000000
_cell_angle_gamma 90.000000
_cell_volume 4050.254975
_symmetry_space_group_name_H-M "C M C A"
_symmetry_group_IT_number 64
_symmetry_cell_setting 'orthorhombic'
loop_
_space_group_symop_operation_xyz
x,y,z
-x,1/2-y,1/2+z
x,-y,-z
-x,1/2+y,1/2-z
-x,-y,-z
x,1/2+y,1/2-z
-x,y,z
x,1/2-y,1/2+z
1/2+x,1/2+y,z
1/2-x,-y,1/2+z
1/2+x,1/2-y,-z
1/2-x,y,1/2-z
1/2-x,1/2-y,-z
1/2+x,y,1/2-z
1/2-x,1/2+y,z
1/2+x,-y,1/2+z
loop_
_atom_site_type_symbol
_atom_site_label
_atom_site_fract_x
_atom_site_fract_y
_atom_site_fract_z
Si Si1 0.306540 0.337268 0.438313
Si Si2 0.312831 0.445028 0.417694
Si Si3 0.810055 0.350772 0.889487
Si Si4 0.313961 0.952443 0.585745
Si Si5 0.190438 0.751141 0.329489
O O1 0.500000 0.337500 0.438631
O O2 0.257197 0.389172 0.399184
O O3 0.256365 0.338743 0.524932
O O4 0.253319 0.288562 0.394519
O O5 0.500000 0.449201 0.403619
O O6 0.227569 0.493028 0.383331
O O7 0.282169 0.447882 0.507491
O O8 0.735630 0.403902 0.868107
O O9 0.757013 0.303948 0.841612
O O10 0.000000 0.355360 0.888579
O O11 0.500000 0.950499 0.568548
O O12 0.250000 0.770462 0.250000
O O13 0.000000 0.749335 0.330827
#
# Coordination Sequence:
#
# PCOD9476430 Si02
#       5
#    16  16  16  16  16
#     4   8  17  32  53  77 103 132 169 210 253 300
#     4   9  15  27  46  71 101 134 167 205 250 301
#     4  10  19  34  54  77 101 133 171 212 256 301
#     4  10  17  26  43  73 106 134 162 203 253 304
#     4  11  22  37  53  74 102 135 170 210 254 304
#
# _framework density 19.751843999999998
#
# number of rings (size 3 to 8) (size 9 to 14) (size 15 to 20)
#    0.000    2.400    0.000    6.600    0.000    0.000 
#    0.000   11.000    0.000    1.200    0.000    5.600 
#    0.000    0.000    0.000    0.000    0.000    0.000 
#
# Total GULP energy -223032.245656 kJ/mol
# GULP energy per Si atom -5575.806141 kJ/mol
# Density = 1.970689 g / cm^3
# Si number density = 19.751844 Si / 1000 Ang^3
#
#
#
# Elastic Constant Matrix: (Units=GPa)
#
#
# Indices 1 2 3 4 5 6 
#
# 1 38.9643 11.7296 2.4424 0.0000 0.0000 0.0000
# 2 11.7296 106.2444 4.6139 0.0000 0.0000 0.0000
# 3 2.4424 4.6139 22.6221 0.0000 0.0000 0.0000
# 4 0.0000 0.0000 0.0000 -1.1632 0.0000 0.0000
# 5 0.0000 0.0000 0.0000 0.0000 20.6628 0.0000
# 6 0.0000 0.0000 0.0000 0.0000 0.0000 22.8425
#
#
#
# Elastic Compliance Matrix: (Units=1/GPa)
#
#
# Indices 1 2 3 4 5 6 
#
# 1 0.026665 -0.002844 -0.002299 0.000000 0.000000 0.000000
# 2 -0.002844 0.009800 -0.001692 0.000000 0.000000 0.000000
# 3 -0.002299 -0.001692 0.044798 0.000000 0.000000 0.000000
# 4 0.000000 0.000000 0.000000 -0.859731 0.000000 0.000000
# 5 0.000000 0.000000 0.000000 0.000000 0.048396 0.000000
# 6 0.000000 0.000000 0.000000 0.000000 0.000000 0.043778
#
#
# Mechanical properties :
#
#
# Convention : Reuss Voigt Hill
#
# Bulk Modulus (GPa) = 14.79437 22.82251 18.80844
# Shear Modulus (GPa) = -7.69119 18.40475 5.35678
#
# Velocity S-wave (km/s) = -1.97544 3.05585 1.64861
# Velocity P-wave (km/s) = 1.51764 4.90211 3.62863
#
# Compressibility (1/GPa) = 0.06759328
#
# Stress axis : x y z
#
# Youngs Moduli (GPa) = 37.50271 102.04381 22.32250
#
# Poissons Ratio (x) = 0.29021 0.05132
# Poissons Ratio (y) = 0.10666 0.03776
# Poissons Ratio (z) = 0.08621 0.17262
#
# Static dielectric constant tensor:
#      x y z
#    x 1.664920 0.000000 0.000000 
#    y 0.000000 1.763110 0.000000 
#    z 0.000000 0.000000 1.701020 
# 
# From -- ./inp_files/29799.got.cif
#   From: 2010.05.17/outbox.cif.g08.bks.cpg/sg64_15_cif.got.tgz:29799.got - 2010.06.03 16:29:19.
