data_PCOD9476529
_publ_section_title
;
Structure prediction by ZEFSAII (Michael W. Deem and Ramdas Pophale) SiO2 
 PCOD9476529
Probable space group: C M C A
;
_chemical_formula_sum "Si O2"
_cell_formula_units_Z 112
_cell_length_a 23.281609
_cell_length_b 10.028444
_cell_length_c 22.692465
_cell_angle_alpha 90.000000
_cell_angle_beta 90.000000
_cell_angle_gamma 90.000000
_cell_volume 5298.198425
_symmetry_space_group_name_H-M "C M C A"
_symmetry_group_IT_number 64
_symmetry_cell_setting 'orthorhombic'
loop_
_space_group_symop_operation_xyz
x,y,z
-x,1/2-y,1/2+z
x,-y,-z
-x,1/2+y,1/2-z
-x,-y,-z
x,1/2+y,1/2-z
-x,y,z
x,1/2-y,1/2+z
1/2+x,1/2+y,z
1/2-x,-y,1/2+z
1/2+x,1/2-y,-z
1/2-x,y,1/2-z
1/2-x,1/2-y,-z
1/2+x,y,1/2-z
1/2-x,1/2+y,z
1/2+x,-y,1/2+z
loop_
_atom_site_type_symbol
_atom_site_label
_atom_site_fract_x
_atom_site_fract_y
_atom_site_fract_z
Si Si1 0.565931 0.120795 0.047493
Si Si2 0.891341 0.412963 0.132384
Si Si3 0.333043 0.754768 0.303966
Si Si4 0.118607 0.985214 0.856777
Si Si5 0.067094 0.680166 0.452234
Si Si6 0.205375 0.250021 0.173228
Si Si7 0.435275 0.940340 0.764760
O O1 0.500000 0.144976 0.066857
O O2 0.601332 0.053996 0.099633
O O3 0.588053 0.250596 0.012804
O O4 0.563658 0.000000 0.000000
O O5 0.924341 0.298464 0.096078
O O6 0.825488 0.364693 0.134928
O O7 0.921369 0.428120 0.196153
O O8 0.272114 0.715425 0.332824
O O9 0.310246 0.799335 0.239274
O O10 0.383445 0.654072 0.285939
O O11 0.359471 0.867519 0.345061
O O12 0.096849 0.945403 0.921433
O O13 0.169805 0.883332 0.840582
O O14 0.071737 0.961748 0.805045
O O15 0.000000 0.653280 0.459911
O O16 0.500000 0.894997 0.778022
#
# Coordination Sequence:
#
# PCOD9476529 Si02
#       7
#    16  16  16  16  16  16  16
#     4   8  14  26  48  76 103 130 168 216 262 302
#     4  10  17  31  51  80 101 132 168 223 257 292
#     4  10  21  35  50  72 104 140 172 206 250 319
#     4  10  20  34  49  74 101 138 170 209 255 309
#     4   9  17  30  50  77 105 137 172 208 256 310
#     4   9  20  33  53  72  95 135 180 213 251 298
#     4  11  22  32  48  79 111 138 166 208 265 310
#
# _framework density 21.139261000000001
#
# number of rings (size 3 to 8) (size 9 to 14) (size 15 to 20)
#    0.000    2.429    1.429    2.571    2.000    2.286 
#    0.000    0.000    0.000    1.714    7.429    3.000 
#    0.000    0.000    0.000    0.000    0.000    0.000 
#
# Total GULP energy -312029.513593 kJ/mol
# GULP energy per Si atom -5571.955600 kJ/mol
# Density = 2.109115 g / cm^3
# Si number density = 21.139261 Si / 1000 Ang^3
#
#
#
# Elastic Constant Matrix: (Units=GPa)
#
#
# Indices 1 2 3 4 5 6 
#
# 1 122.9545 7.8122 5.6042 0.0000 0.0000 0.0000
# 2 7.8122 32.2891 1.8672 0.0000 0.0000 0.0000
# 3 5.6042 1.8672 24.6912 0.0000 0.0000 0.0000
# 4 0.0000 0.0000 0.0000 25.9129 0.0000 0.0000
# 5 0.0000 0.0000 0.0000 0.0000 9.6793 0.0000
# 6 0.0000 0.0000 0.0000 0.0000 0.0000 9.3358
#
#
#
# Elastic Compliance Matrix: (Units=1/GPa)
#
#
# Indices 1 2 3 4 5 6 
#
# 1 0.008334 -0.001915 -0.001747 0.000000 0.000000 0.000000
# 2 -0.001915 0.031546 -0.001951 0.000000 0.000000 0.000000
# 3 -0.001747 -0.001951 0.041044 0.000000 0.000000 0.000000
# 4 0.000000 0.000000 0.000000 0.038591 0.000000 0.000000
# 5 0.000000 0.000000 0.000000 0.000000 0.103313 0.000000
# 6 0.000000 0.000000 0.000000 0.000000 0.000000 0.107115
#
#
# Mechanical properties :
#
#
# Convention : Reuss Voigt Hill
#
# Bulk Modulus (GPa) = 14.34743 23.38909 18.86826
# Shear Modulus (GPa) = 13.72107 19.96235 16.84171
#
# Velocity S-wave (km/s) = 2.55047 3.07632 2.82565
# Velocity P-wave (km/s) = 3.93383 4.86895 4.42615
#
# Compressibility (1/GPa) = 0.06969890
#
# Stress axis : x y z
#
# Youngs Moduli (GPa) = 119.98448 31.69927 24.36390
#
# Poissons Ratio (x) = 0.06072 0.04256
# Poissons Ratio (y) = 0.22982 0.04753
# Poissons Ratio (z) = 0.20959 0.06184
#
# Static dielectric constant tensor:
#      x y z
#    x 1.757650 0.000000 0.000000 
#    y 0.000000 1.826140 0.000000 
#    z 0.000000 0.000000 1.812540 
# 
# From -- ./inp_files/46701.got.cif
#   From: 2010.05.17/outbox.cif.g08.bks.cpg/sg64_24_cif.got.tgz:46701.got - 2010.06.03 16:29:19.
