data_PCOD9476129
_publ_section_title
;
Structure prediction by ZEFSAII (Michael W. Deem and Ramdas Pophale) SiO2 
 PCOD9476129
Probable space group: C M C M
;
_chemical_formula_sum "Si O2"
_cell_formula_units_Z 56
_cell_length_a 24.000000
_cell_length_b 15.000000
_cell_length_c 15.000000
_cell_angle_alpha 90.000000
_cell_angle_beta 90.000000
_cell_angle_gamma 90.000000
_cell_volume 5400.000000
_symmetry_space_group_name_H-M "C M C M"
_symmetry_group_IT_number 63
_symmetry_cell_setting 'orthorhombic'
loop_
_space_group_symop_operation_xyz
x,y,z
-x,-y,1/2+z
x,-y,-z
-x,y,1/2-z
-x,-y,-z
x,y,1/2-z
-x,y,z
x,-y,1/2+z
1/2+x,1/2+y,z
1/2-x,1/2-y,1/2+z
1/2+x,1/2-y,-z
1/2-x,1/2+y,1/2-z
1/2-x,1/2-y,-z
1/2+x,1/2+y,1/2-z
1/2-x,1/2+y,z
1/2+x,1/2-y,1/2+z
loop_
_atom_site_type_symbol
_atom_site_label
_atom_site_fract_x
_atom_site_fract_y
_atom_site_fract_z
Si Si1 0.176991 0.590689 0.356752
Si Si2 0.770669 0.957211 0.357139
Si Si3 0.603762 0.522322 0.641428
Si Si4 0.752974 0.237469 0.857793
Si Si5 0.934152 0.485934 0.105386
Si Si6 0.619583 0.788810 0.143772
Si Si7 0.935114 0.861259 0.978726
O O1 0.183389 0.594017 0.250000
O O2 0.217864 0.512008 0.390961
O O3 0.207453 0.681566 0.391077
O O4 0.112308 0.562170 0.369676
O O5 0.762876 0.949406 0.250000
O O6 0.830702 0.001716 0.369455
O O7 0.774446 0.857308 0.393280
O O8 0.593776 0.534502 0.750000
O O9 0.591015 0.605340 0.573848
O O10 0.571273 0.441336 0.594186
O O11 0.759074 0.239772 0.750000
O O12 0.685914 0.230260 0.871392
O O13 0.904154 0.390449 0.129404
O O14 0.000000 0.489533 0.138613
O O15 0.938515 0.500000 0.000000
O O16 0.609344 0.768141 0.250000
O O17 0.589859 0.724513 0.072034
O O18 0.000000 0.845923 0.996327
#
# Coordination Sequence:
#
# PCOD9476129 Si02
#       7
#    16  16  16  16  16  16  16
#     4  10  19  36  62  92 124 164 215 270 335 403
#     4   9  17  34  58  88 125 160 206 266 325 396
#     4  10  21  39  61  87 132 183 214 261 342 405
#     4   9  18  34  61  94 127 160 204 270 338 401
#     4  11  25  43  60  87 132 178 224 278 335 404
#     4  11  22  42  69  98 130 171 222 283 352 398
#     4  11  24  39  60  97 132 166 228 285 318 390
#
# _framework density 10.370369999999999
#
# number of rings (size 3 to 8) (size 9 to 14) (size 15 to 20)
#    0.000    1.857    1.429    3.000    0.000    7.143 
#    5.143    1.429    0.000    1.714    0.000   12.000 
#    0.000    0.000    0.000    0.000    0.000    0.000 
#
# Total GULP energy -312135.483571 kJ/mol
# GULP energy per Si atom -5573.847921 kJ/mol
# Density = 1.034677 g / cm^3
# Si number density = 10.370370 Si / 1000 Ang^3
#
#
#
# Elastic Constant Matrix: (Units=GPa)
#
#
# Indices 1 2 3 4 5 6 
#
# 1 123.0894 32.9653 2.8502 0.0000 0.0000 0.0000
# 2 32.9653 86.6572 -0.7177 0.0000 0.0000 0.0000
# 3 2.8502 -0.7177 92.2547 0.0000 0.0000 0.0000
# 4 0.0000 0.0000 0.0000 26.2590 0.0000 0.0000
# 5 0.0000 0.0000 0.0000 0.0000 21.2469 0.0000
# 6 0.0000 0.0000 0.0000 0.0000 0.0000 35.3592
#
#
#
# Elastic Compliance Matrix: (Units=1/GPa)
#
#
# Indices 1 2 3 4 5 6 
#
# 1 0.009054 -0.003447 -0.000307 0.000000 0.000000 0.000000
# 2 -0.003447 0.012853 0.000206 0.000000 0.000000 0.000000
# 3 -0.000307 0.000206 0.010851 0.000000 0.000000 0.000000
# 4 0.000000 0.000000 0.000000 0.038082 0.000000 0.000000
# 5 0.000000 0.000000 0.000000 0.000000 0.047066 0.000000
# 6 0.000000 0.000000 0.000000 0.000000 0.000000 0.028281
#
#
# Mechanical properties :
#
#
# Convention : Reuss Voigt Hill
#
# Bulk Modulus (GPa) = 38.96553 41.35524 40.16039
# Shear Modulus (GPa) = 30.89560 34.36659 32.63109
#
# Velocity S-wave (km/s) = 3.86373 4.07499 3.97077
# Velocity P-wave (km/s) = 6.22353 6.49024 6.35828
#
# Compressibility (1/GPa) = 0.02566371
#
# Stress axis : x y z
#
# Youngs Moduli (GPa) = 110.44330 77.80478 92.16054
#
# Poissons Ratio (x) = 0.26819 0.02825
# Poissons Ratio (y) = 0.38069 -0.01903
# Poissons Ratio (z) = 0.03386 -0.01606
#
# Static dielectric constant tensor:
#      x y z
#    x 1.760180 0.000000 0.000000 
#    y 0.000000 1.797400 0.000000 
#    z 0.000000 0.000000 1.753840 
# 
# From -- ./inp_files/36908.got.cif
#   From: 2010.05.17/outbox.ucp.g08.bks.cvg/sg63_19_cif.got.tgz:36908.got - 2010.06.11 16:32:19.
