data_PCOD9476597
_publ_section_title
;
Structure prediction by ZEFSAII (Michael W. Deem and Ramdas Pophale) SiO2 
 PCOD9476597
Probable space group: C M C A
;
_chemical_formula_sum "Si O2"
_cell_formula_units_Z 80
_cell_length_a 28.189536
_cell_length_b 10.820784
_cell_length_c 12.593006
_cell_angle_alpha 90.000000
_cell_angle_beta 90.000000
_cell_angle_gamma 90.000000
_cell_volume 3841.280890
_symmetry_space_group_name_H-M "C M C A"
_symmetry_group_IT_number 64
_symmetry_cell_setting 'orthorhombic'
loop_
_space_group_symop_operation_xyz
x,y,z
-x,1/2-y,1/2+z
x,-y,-z
-x,1/2+y,1/2-z
-x,-y,-z
x,1/2+y,1/2-z
-x,y,z
x,1/2-y,1/2+z
1/2+x,1/2+y,z
1/2-x,-y,1/2+z
1/2+x,1/2-y,-z
1/2-x,y,1/2-z
1/2-x,1/2-y,-z
1/2+x,y,1/2-z
1/2-x,1/2+y,z
1/2+x,-y,1/2+z
loop_
_atom_site_type_symbol
_atom_site_label
_atom_site_fract_x
_atom_site_fract_y
_atom_site_fract_z
Si Si1 0.798845 0.617393 0.080377
Si Si2 0.945840 0.836549 0.470502
Si Si3 0.804666 0.132884 0.058767
Si Si4 0.899655 0.050003 0.338578
Si Si5 0.591470 0.413107 0.896571
O O1 0.744868 0.631255 0.122733
O O2 0.844198 0.587242 0.152819
O O3 0.797906 0.500000 0.000000
O O4 0.805528 0.748021 0.019044
O O5 0.928077 0.847701 0.592159
O O6 0.941375 0.700980 0.424722
O O7 0.000000 0.877527 0.460939
O O8 0.911143 0.925154 0.403252
O O9 0.854824 0.137590 0.115728
O O10 0.805009 0.000000 0.000000
O O11 0.918217 0.032766 0.219407
O O12 0.589987 0.500000 0.000000
#
# Coordination Sequence:
#
# PCOD9476597 Si02
#       5
#    16  16  16  16  16
#     4  10  17  35  63  90 130 174 214 258 317 387
#     4  11  25  46  68  94 126 170 224 273 332 395
#     4   9  19  34  58  94 134 166 211 263 315 387
#     4  11  22  41  70  92 128 173 218 268 328 390
#     4  11  25  42  64  99 136 166 215 274 331 391
#
# _framework density 20.826387
#
# number of rings (size 3 to 8) (size 9 to 14) (size 15 to 20)
#    0.000    1.600    4.000    1.200    2.800    2.800 
#    0.000    0.000    0.000    9.600    0.000    0.000 
#    0.000    0.000    0.000    0.000    0.000    0.000 
#
# Total GULP energy -222844.361245 kJ/mol
# GULP energy per Si atom -5571.109031 kJ/mol
# Density = 2.077899 g / cm^3
# Si number density = 20.826387 Si / 1000 Ang^3
#
#
#
# Elastic Constant Matrix: (Units=GPa)
#
#
# Indices 1 2 3 4 5 6 
#
# 1 106.8132 32.9784 20.1788 0.0000 0.0000 0.0000
# 2 32.9784 99.2412 30.4005 0.0000 0.0000 0.0000
# 3 20.1788 30.4005 126.6650 0.0000 0.0000 0.0000
# 4 0.0000 0.0000 0.0000 10.2540 0.0000 0.0000
# 5 0.0000 0.0000 0.0000 0.0000 -6.9114 0.0000
# 6 0.0000 0.0000 0.0000 0.0000 0.0000 56.6929
#
#
#
# Elastic Compliance Matrix: (Units=1/GPa)
#
#
# Indices 1 2 3 4 5 6 
#
# 1 0.010528 -0.003221 -0.000904 0.000000 0.000000 0.000000
# 2 -0.003221 0.011862 -0.002334 0.000000 0.000000 0.000000
# 3 -0.000904 -0.002334 0.008599 0.000000 0.000000 0.000000
# 4 0.000000 0.000000 0.000000 0.097522 0.000000 0.000000
# 5 0.000000 0.000000 0.000000 0.000000 -0.144688 0.000000
# 6 0.000000 0.000000 0.000000 0.000000 0.000000 0.017639
#
#
# Mechanical properties :
#
#
# Convention : Reuss Voigt Hill
#
# Bulk Modulus (GPa) = 55.34008 55.53720 55.43864
# Shear Modulus (GPa) = 245.06055 28.61789 136.83922
#
# Velocity S-wave (km/s) = 10.85927 3.71093 8.11464
# Velocity P-wave (km/s) = 13.55955 6.71461 10.69924
#
# Compressibility (1/GPa) = 0.01807009
#
# Stress axis : x y z
#
# Youngs Moduli (GPa) = 94.98902 84.30382 116.29319
#
# Poissons Ratio (x) = 0.27158 0.10512
# Poissons Ratio (y) = 0.30600 0.27140
# Poissons Ratio (z) = 0.08587 0.19674
#
# Static dielectric constant tensor:
#      x y z
#    x 1.776400 0.000000 0.000000 
#    y 0.000000 1.742050 0.000000 
#    z 0.000000 0.000000 1.812460 
# 
# From -- ./inp_files/19618.got.cif
#   From: 2010.05.17/outbox.cif.g08.bks.cpg/sg64_10_cif.got.tgz:19618.got - 2010.06.03 16:29:19.
