data_PCOD9476914
_publ_section_title
;
Structure prediction by ZEFSAII (Michael W. Deem and Ramdas Pophale) SiO2 
 PCOD9476914
Probable space group: C M C A
;
_chemical_formula_sum "Si O2"
_cell_formula_units_Z 88
_cell_length_a 7.419962
_cell_length_b 25.103810
_cell_length_c 19.406749
_cell_angle_alpha 90.000000
_cell_angle_beta 90.000000
_cell_angle_gamma 90.000000
_cell_volume 3614.881867
_symmetry_space_group_name_H-M "C M C A"
_symmetry_group_IT_number 64
_symmetry_cell_setting 'orthorhombic'
loop_
_space_group_symop_operation_xyz
x,y,z
-x,1/2-y,1/2+z
x,-y,-z
-x,1/2+y,1/2-z
-x,-y,-z
x,1/2+y,1/2-z
-x,y,z
x,1/2-y,1/2+z
1/2+x,1/2+y,z
1/2-x,-y,1/2+z
1/2+x,1/2-y,-z
1/2-x,y,1/2-z
1/2-x,1/2-y,-z
1/2+x,y,1/2-z
1/2-x,1/2+y,z
1/2+x,-y,1/2+z
loop_
_atom_site_type_symbol
_atom_site_label
_atom_site_fract_x
_atom_site_fract_y
_atom_site_fract_z
Si Si1 0.712453 0.341148 0.016452
Si Si2 0.750000 0.861402 0.250000
Si Si3 0.714546 0.541916 0.328957
Si Si4 0.777872 0.274165 0.354582
Si Si5 0.216882 0.068899 0.625797
Si Si6 0.296623 0.342742 0.639986
O O1 0.500000 0.336830 0.003908
O O2 0.765336 0.293413 0.068048
O O3 0.747537 0.395620 0.058800
O O4 0.804164 0.340952 0.942870
O O5 0.686374 0.816804 0.195113
O O6 0.689056 0.902928 0.308837
O O7 0.500000 0.546315 0.340569
O O8 0.750000 0.526773 0.250000
O O9 0.774710 0.492657 0.376209
O O10 0.790708 0.601058 0.340580
O O11 0.718674 0.214297 0.339191
O O12 0.000000 0.278794 0.347495
O O13 0.000000 0.070607 0.639887
O O14 0.500000 0.342829 0.668557
#
# Coordination Sequence:
#
# PCOD9476914 Si02
#       6
#    16   8  16  16  16  16
#     4  10  21  37  58  84 111 144 189 233 277 324
#     4  10  18  32  56  86 110 144 184 234 272 328
#     4  10  22  38  58  83 112 149 185 225 275 331
#     4   9  19  34  54  81 112 146 184 230 276 327
#     4  10  20  36  58  83 112 146 185 228 279 328
#     4  10  21  38  57  79 114 150 184 225 277 334
#
# _framework density 24.343810000000001
#
# number of rings (size 3 to 8) (size 9 to 14) (size 15 to 20)
#    0.000    2.182    0.909    1.636    1.273    2.909 
#    0.000    8.182    0.000    0.000    0.000    0.000 
#    0.000    0.000    0.000    0.000    0.000    0.000 
#
# Total GULP energy -245341.340533 kJ/mol
# GULP energy per Si atom -5575.939558 kJ/mol
# Density = 2.428840 g / cm^3
# Si number density = 24.343810 Si / 1000 Ang^3
#
#
#
# Elastic Constant Matrix: (Units=GPa)
#
#
# Indices 1 2 3 4 5 6 
#
# 1 103.4727 10.4747 -7.8237 0.0000 0.0000 0.0000
# 2 10.4747 205.4206 -8.4053 0.0000 0.0000 0.0000
# 3 -7.8237 -8.4053 42.2098 0.0000 0.0000 0.0000
# 4 0.0000 0.0000 0.0000 24.1792 0.0000 0.0000
# 5 0.0000 0.0000 0.0000 0.0000 -68.5429 0.0000
# 6 0.0000 0.0000 0.0000 0.0000 0.0000 15.6492
#
#
#
# Elastic Compliance Matrix: (Units=1/GPa)
#
#
# Indices 1 2 3 4 5 6 
#
# 1 0.009839 -0.000431 0.001738 0.000000 0.000000 0.000000
# 2 -0.000431 0.004927 0.000901 0.000000 0.000000 0.000000
# 3 0.001738 0.000901 0.024193 0.000000 0.000000 0.000000
# 4 0.000000 0.000000 0.000000 0.041358 0.000000 0.000000
# 5 0.000000 0.000000 0.000000 0.000000 -0.014589 0.000000
# 6 0.000000 0.000000 0.000000 0.000000 0.000000 0.063901
#
#
# Mechanical properties :
#
#
# Convention : Reuss Voigt Hill
#
# Bulk Modulus (GPa) = 23.05396 37.73271 30.39333
# Shear Modulus (GPa) = 35.79870 18.04762 26.92316
#
# Velocity S-wave (km/s) = 3.83893 2.72575 3.32920
# Velocity P-wave (km/s) = 5.39820 5.04380 5.22400
#
# Compressibility (1/GPa) = 0.04337649
#
# Stress axis : x y z
#
# Youngs Moduli (GPa) = 101.63237 202.96751 41.33457
#
# Poissons Ratio (x) = 0.08740 -0.07184
# Poissons Ratio (y) = 0.04376 -0.03725
# Poissons Ratio (z) = -0.17664 -0.18293
#
# Static dielectric constant tensor:
#      x y z
#    x 1.474960 0.000000 0.000000 
#    y 0.000000 1.938370 0.000000 
#    z 0.000000 0.000000 1.853640 
# 
# From -- ./inp_files/36803.got.cif
#   From: 2010.05.17/outbox.cif.g08.bks.cpg/sg64_19_cif.got.tgz:36803.got - 2010.06.03 16:29:19.
