data_PCOD9476510
_publ_section_title
;
Structure prediction by ZEFSAII (Michael W. Deem and Ramdas Pophale) SiO2 
 PCOD9476510
Probable space group: C M C A
;
_chemical_formula_sum "Si O2"
_cell_formula_units_Z 80
_cell_length_a 8.543440
_cell_length_b 26.306489
_cell_length_c 20.428705
_cell_angle_alpha 90.000000
_cell_angle_beta 90.000000
_cell_angle_gamma 90.000000
_cell_volume 4591.308761
_symmetry_space_group_name_H-M "C M C A"
_symmetry_group_IT_number 64
_symmetry_cell_setting 'orthorhombic'
loop_
_space_group_symop_operation_xyz
x,y,z
-x,1/2-y,1/2+z
x,-y,-z
-x,1/2+y,1/2-z
-x,-y,-z
x,1/2+y,1/2-z
-x,y,z
x,1/2-y,1/2+z
1/2+x,1/2+y,z
1/2-x,-y,1/2+z
1/2+x,1/2-y,-z
1/2-x,y,1/2-z
1/2-x,1/2-y,-z
1/2+x,y,1/2-z
1/2-x,1/2+y,z
1/2+x,-y,1/2+z
loop_
_atom_site_type_symbol
_atom_site_label
_atom_site_fract_x
_atom_site_fract_y
_atom_site_fract_z
Si Si1 0.686723 0.154617 0.597203
Si Si2 0.688098 0.635831 0.450136
Si Si3 0.190506 0.478050 0.929759
Si Si4 0.311605 0.439596 0.322751
Si Si5 0.813485 0.759308 0.926307
O O1 0.500000 0.154527 0.593215
O O2 0.755234 0.140036 0.525573
O O3 0.746813 0.113003 0.648020
O O4 0.745626 0.211586 0.613170
O O5 0.500000 0.639093 0.450282
O O6 0.737628 0.580713 0.423747
O O7 0.755997 0.683925 0.410934
O O8 0.240097 0.515247 0.871688
O O9 0.000000 0.478585 0.930763
O O10 0.242832 0.500000 0.000000
O O11 0.500000 0.437718 0.323010
O O12 0.250000 0.447903 0.250000
O O13 0.000000 0.757245 0.926610
O O14 0.750000 0.750000 0.000000
#
# Coordination Sequence:
#
# PCOD9476510 Si02
#       5
#    16  16  16  16  16
#     4  11  20  32  50  76 106 139 176 219 270 321
#     4  10  17  30  52  78 106 139 177 221 269 319
#     4   9  17  32  55  79 105 142 181 221 269 323
#     4  11  22  38  56  78 108 143 182 221 270 326
#     4  10  18  29  46  73 106 138 170 213 265 317
#
# _framework density 17.424226000000001
#
# number of rings (size 3 to 8) (size 9 to 14) (size 15 to 20)
#    0.000    1.800    2.000    7.200    0.000    0.000 
#    0.000    5.000    0.000    1.200    0.000    5.600 
#    0.000    0.000    0.000    0.000    0.000    0.000 
#
# Total GULP energy -223185.246500 kJ/mol
# GULP energy per Si atom -5579.631162 kJ/mol
# Density = 1.738457 g / cm^3
# Si number density = 17.424226 Si / 1000 Ang^3
#
#
#
# Elastic Constant Matrix: (Units=GPa)
#
#
# Indices 1 2 3 4 5 6 
#
# 1 99.3347 47.0833 23.6995 0.0000 0.0000 0.0000
# 2 47.0833 198.3598 70.4101 0.0000 0.0000 0.0000
# 3 23.6995 70.4101 85.7726 0.0000 0.0000 0.0000
# 4 0.0000 0.0000 0.0000 20.0593 0.0000 0.0000
# 5 0.0000 0.0000 0.0000 0.0000 20.3969 0.0000
# 6 0.0000 0.0000 0.0000 0.0000 0.0000 23.8589
#
#
#
# Elastic Compliance Matrix: (Units=1/GPa)
#
#
# Indices 1 2 3 4 5 6 
#
# 1 0.011447 -0.002250 -0.001316 0.000000 0.000000 0.000000
# 2 -0.002250 0.007557 -0.005581 0.000000 0.000000 0.000000
# 3 -0.001316 -0.005581 0.016604 0.000000 0.000000 0.000000
# 4 0.000000 0.000000 0.000000 0.049852 0.000000 0.000000
# 5 0.000000 0.000000 0.000000 0.000000 0.049027 0.000000
# 6 0.000000 0.000000 0.000000 0.000000 0.000000 0.041913
#
#
# Mechanical properties :
#
#
# Convention : Reuss Voigt Hill
#
# Bulk Modulus (GPa) = 57.75929 73.98365 65.87147
# Shear Modulus (GPa) = 24.94180 29.01462 26.97821
#
# Velocity S-wave (km/s) = 3.78755 4.08510 3.93913
# Velocity P-wave (km/s) = 7.23520 8.05004 7.65347
#
# Compressibility (1/GPa) = 0.01731323
#
# Stress axis : x y z
#
# Youngs Moduli (GPa) = 87.35574 132.33390 60.22605
#
# Poissons Ratio (x) = 0.29777 0.07925
# Poissons Ratio (y) = 0.19656 0.33615
# Poissons Ratio (z) = 0.11495 0.73862
#
# Static dielectric constant tensor:
#      x y z
#    x 1.591980 0.000000 0.000000 
#    y 0.000000 1.640760 0.000000 
#    z 0.000000 0.000000 1.535790 
# 
# From -- ./inp_files/29747.got.cif
#   From: 2010.05.17/outbox.cif.g08.bks.cpg/sg64_15_cif.got.tgz:29747.got - 2010.06.03 16:29:19.
