data_PCOD9476791
_publ_section_title
;
Structure prediction by ZEFSAII (Michael W. Deem and Ramdas Pophale) SiO2 
 PCOD9476791
Probable space group: C M C A
;
_chemical_formula_sum "Si O2"
_cell_formula_units_Z 96
_cell_length_a 8.560529
_cell_length_b 26.061459
_cell_length_c 26.000547
_cell_angle_alpha 90.000000
_cell_angle_beta 90.000000
_cell_angle_gamma 90.000000
_cell_volume 5800.718800
_symmetry_space_group_name_H-M "C M C A"
_symmetry_group_IT_number 64
_symmetry_cell_setting 'orthorhombic'
loop_
_space_group_symop_operation_xyz
x,y,z
-x,1/2-y,1/2+z
x,-y,-z
-x,1/2+y,1/2-z
-x,-y,-z
x,1/2+y,1/2-z
-x,y,z
x,1/2-y,1/2+z
1/2+x,1/2+y,z
1/2-x,-y,1/2+z
1/2+x,1/2-y,-z
1/2-x,y,1/2-z
1/2-x,1/2-y,-z
1/2+x,y,1/2-z
1/2-x,1/2+y,z
1/2+x,-y,1/2+z
loop_
_atom_site_type_symbol
_atom_site_label
_atom_site_fract_x
_atom_site_fract_y
_atom_site_fract_z
Si Si1 0.812262 0.191766 0.003158
Si Si2 0.813991 0.609834 0.308082
Si Si3 0.313547 0.502205 0.308533
Si Si4 0.187960 0.105771 0.808199
Si Si5 0.689655 0.689795 0.889947
Si Si6 0.312592 0.809049 0.888148
O O1 0.767055 0.169924 0.947117
O O2 0.000000 0.191548 0.007154
O O3 0.750000 0.250000 0.000000
O O4 0.740428 0.170725 0.055745
O O5 0.750000 0.616201 0.250000
O O6 0.747734 0.556024 0.330274
O O7 0.759324 0.656362 0.343655
O O8 0.000000 0.606741 0.305763
O O9 0.500000 0.501559 0.308302
O O10 0.250000 0.502522 0.250000
O O11 0.248289 0.448753 0.329956
O O12 0.250000 0.111974 0.750000
O O13 0.241396 0.152177 0.844740
O O14 0.000000 0.104538 0.806412
O O15 0.500000 0.690691 0.888790
O O16 0.739332 0.749217 0.883686
O O17 0.500000 0.810196 0.885152
#
# Coordination Sequence:
#
# PCOD9476791 Si02
#       6
#    16  16  16  16  16  16
#     4   9  16  30  49  70  93 126 167 205 241 285
#     4  11  21  34  51  73  98 129 162 198 240 288
#     4  10  18  31  49  70  93 123 160 200 237 280
#     4  10  18  31  48  70  97 128 160 196 236 282
#     4   8  17  31  49  70  98 130 162 197 239 285
#     4  10  19  33  50  73 101 130 161 200 243 290
#
# _framework density 16.549672000000001
#
# number of rings (size 3 to 8) (size 9 to 14) (size 15 to 20)
#    0.000    2.333    0.000    7.500    0.000    0.667 
#    0.000   11.667    0.000    1.000    0.000    7.000 
#    0.000    0.000    0.000    0.000    0.000    0.000 
#
# Total GULP energy -267412.126134 kJ/mol
# GULP energy per Si atom -5571.085961 kJ/mol
# Density = 1.651200 g / cm^3
# Si number density = 16.549672 Si / 1000 Ang^3
#
#
#
# Elastic Constant Matrix: (Units=GPa)
#
#
# Indices 1 2 3 4 5 6 
#
# 1 97.9615 34.4073 33.0678 0.0000 0.0000 0.0000
# 2 34.4073 108.0649 65.7947 0.0000 0.0000 0.0000
# 3 33.0678 65.7947 102.3404 0.0000 0.0000 0.0000
# 4 0.0000 0.0000 0.0000 -2.0466 0.0000 0.0000
# 5 0.0000 0.0000 0.0000 0.0000 24.6027 0.0000
# 6 0.0000 0.0000 0.0000 0.0000 0.0000 18.7854
#
#
#
# Elastic Compliance Matrix: (Units=1/GPa)
#
#
# Indices 1 2 3 4 5 6 
#
# 1 0.011814 -0.002362 -0.002299 0.000000 0.000000 0.000000
# 2 -0.002362 0.015678 -0.009316 0.000000 0.000000 0.000000
# 3 -0.002299 -0.009316 0.016503 0.000000 0.000000 0.000000
# 4 0.000000 0.000000 0.000000 -0.488620 0.000000 0.000000
# 5 0.000000 0.000000 0.000000 0.000000 0.040646 0.000000
# 6 0.000000 0.000000 0.000000 0.000000 0.000000 0.053233
#
#
# Mechanical properties :
#
#
# Convention : Reuss Voigt Hill
#
# Bulk Modulus (GPa) = 62.33857 63.87849 63.10853
# Shear Modulus (GPa) = -15.75071 19.94144 2.09537
#
# Velocity S-wave (km/s) = -3.08835 3.47500 1.12643
# Velocity P-wave (km/s) = 5.00321 7.40153 6.31723
#
# Compressibility (1/GPa) = 0.01604143
#
# Stress axis : x y z
#
# Youngs Moduli (GPa) = 84.64817 63.78465 60.59353
#
# Poissons Ratio (x) = 0.15065 0.13929
# Poissons Ratio (y) = 0.19992 0.56450
# Poissons Ratio (z) = 0.19459 0.59422
#
# Static dielectric constant tensor:
#      x y z
#    x 1.560430 0.000000 0.000000 
#    y 0.000000 1.564400 0.000000 
#    z 0.000000 0.000000 1.547310 
# 
# From -- ./inp_files/43230.got.cif
#   From: 2010.05.17/outbox.cif.g08.bks.cpg/sg64_22_cif.got.tgz:43230.got - 2010.06.03 16:29:19.
