data_PCOD9476726
_publ_section_title
;
Structure prediction by ZEFSAII (Michael W. Deem and Ramdas Pophale) SiO2 
 PCOD9476726
Probable space group: C M C A
;
_chemical_formula_sum "Si O2"
_cell_formula_units_Z 96
_cell_length_a 10.480752
_cell_length_b 14.382348
_cell_length_c 28.493894
_cell_angle_alpha 90.000000
_cell_angle_beta 90.000000
_cell_angle_gamma 90.000000
_cell_volume 4295.107538
_symmetry_space_group_name_H-M "C M C A"
_symmetry_group_IT_number 64
_symmetry_cell_setting 'orthorhombic'
loop_
_space_group_symop_operation_xyz
x,y,z
-x,1/2-y,1/2+z
x,-y,-z
-x,1/2+y,1/2-z
-x,-y,-z
x,1/2+y,1/2-z
-x,y,z
x,1/2-y,1/2+z
1/2+x,1/2+y,z
1/2-x,-y,1/2+z
1/2+x,1/2-y,-z
1/2-x,y,1/2-z
1/2-x,1/2-y,-z
1/2+x,y,1/2-z
1/2-x,1/2+y,z
1/2+x,-y,1/2+z
loop_
_atom_site_type_symbol
_atom_site_label
_atom_site_fract_x
_atom_site_fract_y
_atom_site_fract_z
Si Si1 0.648835 0.490400 0.210357
Si Si2 0.000000 0.257476 0.064419
Si Si3 0.000000 0.018744 0.555916
Si Si4 0.744714 0.989080 0.391978
Si Si5 0.645537 0.236520 0.711342
Si Si6 0.266597 0.737553 0.892830
Si Si7 0.500000 0.988008 0.445443
Si Si8 0.500000 0.227309 0.545789
O O1 0.500000 0.521142 0.214798
O O2 0.750000 0.518984 0.250000
O O3 0.711409 0.517482 0.160774
O O4 0.643496 0.376974 0.211492
O O5 0.127132 0.229982 0.092017
O O6 0.000000 0.369609 0.060615
O O7 0.000000 0.225931 0.010259
O O8 0.123902 0.983277 0.583643
O O9 0.000000 0.000000 0.500000
O O10 0.742995 0.875689 0.392062
O O11 0.628647 0.024433 0.423363
O O12 0.500000 0.267261 0.721116
O O13 0.750000 0.264571 0.750000
O O14 0.687641 0.265277 0.658994
O O15 0.371143 0.767113 0.931563
O O16 0.500000 0.878178 0.435977
O O17 0.500000 0.000000 0.500000
#
# Coordination Sequence:
#
# PCOD9476726 Si02
#       8
#    16   8   8  16  16  16   8   8
#     4   9  16  25  39  61  88 118 149 180 223 278
#     4  10  20  30  47  67  89 125 156 188 227 270
#     4  10  20  32  45  65  93 123 156 192 227 268
#     4   9  17  29  43  62  91 122 150 184 230 273
#     4   9  16  25  39  60  88 119 148 181 223 275
#     4   9  17  29  43  62  91 122 149 184 231 271
#     4  10  18  30  49  67  89 123 154 188 227 266
#     4  10  18  32  47  65  93 121 154 190 225 268
#
# _framework density 22.351011
#
# number of rings (size 3 to 8) (size 9 to 14) (size 15 to 20)
#    0.000    2.667    1.667    1.000    2.333    0.000 
#    0.000    0.000    0.000    0.000    0.000    0.000 
#    0.000    8.000    0.000    0.000    0.000    0.000 
#
# Total GULP energy -268137.537337 kJ/mol
# GULP energy per Si atom -5586.198695 kJ/mol
# Density = 2.230014 g / cm^3
# Si number density = 22.351011 Si / 1000 Ang^3
#
#
#
# Elastic Constant Matrix: (Units=GPa)
#
#
# Indices 1 2 3 4 5 6 
#
# 1 284.8323 7.4723 146.3131 0.0000 0.0000 0.0000
# 2 7.4723 80.5156 -13.4087 0.0000 0.0000 0.0000
# 3 146.3131 -13.4087 200.5183 0.0000 0.0000 0.0000
# 4 0.0000 0.0000 0.0000 14.8809 0.0000 0.0000
# 5 0.0000 0.0000 0.0000 0.0000 48.6705 0.0000
# 6 0.0000 0.0000 0.0000 0.0000 0.0000 -6.9917
#
#
#
# Elastic Compliance Matrix: (Units=1/GPa)
#
#
# Indices 1 2 3 4 5 6 
#
# 1 0.005736 -0.001243 -0.004269 0.000000 0.000000 0.000000
# 2 -0.001243 0.012829 0.001765 0.000000 0.000000 0.000000
# 3 -0.004269 0.001765 0.008220 0.000000 0.000000 0.000000
# 4 0.000000 0.000000 0.000000 0.067200 0.000000 0.000000
# 5 0.000000 0.000000 0.000000 0.000000 0.020546 0.000000
# 6 0.000000 0.000000 0.000000 0.000000 0.000000 -0.143027
#
#
# Mechanical properties :
#
#
# Convention : Reuss Voigt Hill
#
# Bulk Modulus (GPa) = 51.83606 94.06885 72.95245
# Shear Modulus (GPa) = -343.15626 39.67790 -151.73918
#
# Velocity S-wave (km/s) = -12.40419 4.21790 -8.24843
# Velocity P-wave (km/s) = 13.48739 8.11784 7.61611
#
# Compressibility (1/GPa) = 0.01929159
#
# Stress axis : x y z
#
# Youngs Moduli (GPa) = 174.33118 77.94669 121.65639
#
# Poissons Ratio (x) = 0.09691 0.51932
# Poissons Ratio (y) = 0.21674 -0.21473
# Poissons Ratio (z) = 0.74417 -0.13758
#
# Static dielectric constant tensor:
#      x y z
#    x 1.798470 0.000000 0.000000 
#    y 0.000000 1.969270 0.000000 
#    z 0.000000 0.000000 1.759580 
# 
# From -- ./inp_files/38440.got.cif
#   From: 2010.05.17/outbox.cif.g08.bks.cpg/sg64_20_cif.got.tgz:38440.got - 2010.06.03 16:29:19.
