data_PCOD9476699
_publ_section_title
;
Structure prediction by ZEFSAII (Michael W. Deem and Ramdas Pophale) SiO2 
 PCOD9476699
Probable space group: C M C A
;
_chemical_formula_sum "Si O2"
_cell_formula_units_Z 112
_cell_length_a 17.923271
_cell_length_b 16.259626
_cell_length_c 18.272188
_cell_angle_alpha 90.000000
_cell_angle_beta 90.000000
_cell_angle_gamma 90.000000
_cell_volume 5324.984871
_symmetry_space_group_name_H-M "C M C A"
_symmetry_group_IT_number 64
_symmetry_cell_setting 'orthorhombic'
loop_
_space_group_symop_operation_xyz
x,y,z
-x,1/2-y,1/2+z
x,-y,-z
-x,1/2+y,1/2-z
-x,-y,-z
x,1/2+y,1/2-z
-x,y,z
x,1/2-y,1/2+z
1/2+x,1/2+y,z
1/2-x,-y,1/2+z
1/2+x,1/2-y,-z
1/2-x,y,1/2-z
1/2-x,1/2-y,-z
1/2+x,y,1/2-z
1/2-x,1/2+y,z
1/2+x,-y,1/2+z
loop_
_atom_site_type_symbol
_atom_site_label
_atom_site_fract_x
_atom_site_fract_y
_atom_site_fract_z
Si Si1 0.416306 0.073460 0.208322
Si Si2 0.875772 0.077158 0.125075
Si Si3 0.771519 0.842534 0.665444
Si Si4 0.665360 0.905846 0.231055
Si Si5 0.138149 0.610105 0.604102
Si Si6 0.083267 0.224612 0.015282
Si Si7 0.710838 0.315048 0.409848
O O1 0.500000 0.082075 0.181621
O O2 0.412145 0.091113 0.295465
O O3 0.356070 0.128488 0.166925
O O4 0.385531 0.980640 0.205638
O O5 0.787081 0.088004 0.139653
O O6 0.902666 0.149178 0.072203
O O7 0.888749 0.984335 0.097272
O O8 0.750000 0.822136 0.750000
O O9 0.755497 0.766566 0.613151
O O10 0.750000 0.935052 0.250000
O O11 0.638343 0.872057 0.309001
O O12 0.670755 0.842719 0.165003
O O13 0.091680 0.677798 0.561383
O O14 0.223550 0.619762 0.573864
O O15 0.148347 0.290497 0.031798
O O16 0.000000 0.257924 0.024851
#
# Coordination Sequence:
#
# PCOD9476699 Si02
#       7
#    16  16  16  16  16  16  16
#     4  10  18  29  50  80 109 135 169 219 273 316
#     4   9  19  34  52  73 103 142 181 217 258 312
#     4   9  16  30  51  74 101 137 177 214 253 306
#     4   9  18  34  55  78 103 135 180 223 259 306
#     4  10  19  34  55  77 102 137 179 220 260 311
#     4  11  23  36  52  78 111 141 171 216 271 321
#     4  10  20  36  56  77 104 142 182 215 257 316
#
# _framework density 21.032924999999999
#
# number of rings (size 3 to 8) (size 9 to 14) (size 15 to 20)
#    0.000    2.286    0.000    5.571    0.000    4.000 
#    0.000    0.714    0.000    7.714    0.000    0.000 
#    0.000   17.143    0.000    0.000    0.000    0.000 
#
# Total GULP energy -312747.242309 kJ/mol
# GULP energy per Si atom -5584.772184 kJ/mol
# Density = 2.098505 g / cm^3
# Si number density = 21.032925 Si / 1000 Ang^3
#
#
#
# Elastic Constant Matrix: (Units=GPa)
#
#
# Indices 1 2 3 4 5 6 
#
# 1 125.6015 9.3673 15.2918 0.0000 0.0000 0.0000
# 2 9.3673 19.9712 1.3386 0.0000 0.0000 0.0000
# 3 15.2918 1.3386 33.8110 0.0000 0.0000 0.0000
# 4 0.0000 0.0000 0.0000 7.1548 0.0000 0.0000
# 5 0.0000 0.0000 0.0000 0.0000 15.6875 0.0000
# 6 0.0000 0.0000 0.0000 0.0000 0.0000 10.6099
#
#
#
# Elastic Compliance Matrix: (Units=1/GPa)
#
#
# Indices 1 2 3 4 5 6 
#
# 1 0.008708 -0.003831 -0.003787 0.000000 0.000000 0.000000
# 2 -0.003831 0.051890 -0.000322 0.000000 0.000000 0.000000
# 3 -0.003787 -0.000322 0.031302 0.000000 0.000000 0.000000
# 4 0.000000 0.000000 0.000000 0.139766 0.000000 0.000000
# 5 0.000000 0.000000 0.000000 0.000000 0.063745 0.000000
# 6 0.000000 0.000000 0.000000 0.000000 0.000000 0.094252
#
#
# Mechanical properties :
#
#
# Convention : Reuss Voigt Hill
#
# Bulk Modulus (GPa) = 13.15417 25.70879 19.43148
# Shear Modulus (GPa) = 11.60408 16.91617 14.26013
#
# Velocity S-wave (km/s) = 2.35140 2.83904 2.60665
# Velocity P-wave (km/s) = 3.69321 4.79547 4.27997
#
# Compressibility (1/GPa) = 0.07602151
#
# Stress axis : x y z
#
# Youngs Moduli (GPa) = 114.83116 19.27138 31.94719
#
# Poissons Ratio (x) = 0.07382 0.12098
# Poissons Ratio (y) = 0.43990 0.01028
# Poissons Ratio (z) = 0.43486 0.00620
#
# Static dielectric constant tensor:
#      x y z
#    x 1.774670 0.000000 0.000000 
#    y 0.000000 1.767030 0.000000 
#    z 0.000000 0.000000 1.781880 
# 
# From -- ./inp_files/40367.got.cif
#   From: 2010.05.17/outbox.cif.g08.bks.cpg/sg64_21_cif.got.tgz:40367.got - 2010.06.03 16:29:19.
