data_PCOD9476951
_publ_section_title
;
Structure prediction by ZEFSAII (Michael W. Deem and Ramdas Pophale) SiO2 
 PCOD9476951
Probable space group: C M C A
;
_chemical_formula_sum "Si O2"
_cell_formula_units_Z 80
_cell_length_a 14.158275
_cell_length_b 33.788006
_cell_length_c 7.738864
_cell_angle_alpha 90.000000
_cell_angle_beta 90.000000
_cell_angle_gamma 90.000000
_cell_volume 3702.116837
_symmetry_space_group_name_H-M "C M C A"
_symmetry_group_IT_number 64
_symmetry_cell_setting 'orthorhombic'
loop_
_space_group_symop_operation_xyz
x,y,z
-x,1/2-y,1/2+z
x,-y,-z
-x,1/2+y,1/2-z
-x,-y,-z
x,1/2+y,1/2-z
-x,y,z
x,1/2-y,1/2+z
1/2+x,1/2+y,z
1/2-x,-y,1/2+z
1/2+x,1/2-y,-z
1/2-x,y,1/2-z
1/2-x,1/2-y,-z
1/2+x,y,1/2-z
1/2-x,1/2+y,z
1/2+x,-y,1/2+z
loop_
_atom_site_type_symbol
_atom_site_label
_atom_site_fract_x
_atom_site_fract_y
_atom_site_fract_z
Si Si1 0.105527 0.957549 0.046956
Si Si2 0.106247 0.455835 0.038356
Si Si3 0.886388 0.233177 0.676348
Si Si4 0.790423 0.198624 0.016151
Si Si5 0.745940 0.890636 0.461444
O O1 0.103464 0.954484 0.253757
O O2 0.162638 0.920114 0.986456
O O3 0.000000 0.957017 0.976343
O O4 0.147484 0.000000 0.000000
O O5 0.163497 0.416817 0.985096
O O6 0.000000 0.454517 0.968329
O O7 0.144062 0.500000 0.000000
O O8 0.856870 0.209918 0.850183
O O9 0.845925 0.278149 0.667116
O O10 0.814318 0.214296 0.535862
O O11 0.000000 0.231565 0.647926
O O12 0.775437 0.152195 0.036733
O O13 0.750000 0.885945 0.250000
#
# Coordination Sequence:
#
# PCOD9476951 Si02
#       5
#    16  16  16  16  16
#     4   9  18  31  51  75 105 141 176 215 262 318
#     4   9  18  32  54  79 108 144 180 217 264 320
#     4  10  20  36  59  81 109 146 181 231 287 334
#     4  10  21  37  57  84 111 141 191 232 275 344
#     4  10  18  33  52  81 106 137 177 227 262 318
#
# _framework density 21.609259000000002
#
# number of rings (size 3 to 8) (size 9 to 14) (size 15 to 20)
#    0.000    2.400    2.000    1.200    0.000    2.400 
#    0.000    0.000   17.600    0.000    0.000    0.000 
#    0.000    0.000    0.000    0.000    0.000    0.000 
#
# Total GULP energy -222938.445750 kJ/mol
# GULP energy per Si atom -5573.461144 kJ/mol
# Density = 2.156008 g / cm^3
# Si number density = 21.609259 Si / 1000 Ang^3
#
#
#
# Elastic Constant Matrix: (Units=GPa)
#
#
# Indices 1 2 3 4 5 6 
#
# 1 187.5897 82.9857 16.4621 0.0000 0.0000 0.0000
# 2 82.9857 225.7602 8.6897 0.0000 0.0000 0.0000
# 3 16.4621 8.6897 58.9599 0.0000 0.0000 0.0000
# 4 0.0000 0.0000 0.0000 24.8790 0.0000 0.0000
# 5 0.0000 0.0000 0.0000 0.0000 9.5622 0.0000
# 6 0.0000 0.0000 0.0000 0.0000 0.0000 27.4459
#
#
#
# Elastic Compliance Matrix: (Units=1/GPa)
#
#
# Indices 1 2 3 4 5 6 
#
# 1 0.006490 -0.002329 -0.001469 0.000000 0.000000 0.000000
# 2 -0.002329 0.005291 -0.000129 0.000000 0.000000 0.000000
# 3 -0.001469 -0.000129 0.017390 0.000000 0.000000 0.000000
# 4 0.000000 0.000000 0.000000 0.040195 0.000000 0.000000
# 5 0.000000 0.000000 0.000000 0.000000 0.104578 0.000000
# 6 0.000000 0.000000 0.000000 0.000000 0.000000 0.036435
#
#
# Mechanical properties :
#
#
# Convention : Reuss Voigt Hill
#
# Bulk Modulus (GPa) = 46.91355 76.50941 61.71148
# Shear Modulus (GPa) = 22.18883 36.65557 29.42220
#
# Velocity S-wave (km/s) = 3.20788 4.12307 3.69393
# Velocity P-wave (km/s) = 5.95632 7.62555 6.84203
#
# Compressibility (1/GPa) = 0.02131580
#
# Stress axis : x y z
#
# Youngs Moduli (GPa) = 154.08274 189.01465 57.50481
#
# Poissons Ratio (x) = 0.44023 0.08446
# Poissons Ratio (y) = 0.35887 0.00744
# Poissons Ratio (z) = 0.22632 0.02447
#
# Static dielectric constant tensor:
#      x y z
#    x 1.807560 0.000000 0.000000 
#    y 0.000000 1.759260 0.000000 
#    z 0.000000 0.000000 1.885010 
# 
# From -- ./inp_files/14446.got.cif
#   From: 2010.05.17/outbox.cif.g08.bks.cpg/sg64_8_cif.got.tgz:14446.got - 2010.06.03 16:29:19.
