data_PCOD9476994
_publ_section_title
;
Structure prediction by ZEFSAII (Michael W. Deem and Ramdas Pophale) SiO2 
 PCOD9476994
Probable space group: C M C A
;
_chemical_formula_sum "Si O2"
_cell_formula_units_Z 72
_cell_length_a 11.007241
_cell_length_b 20.057433
_cell_length_c 14.523797
_cell_angle_alpha 90.000000
_cell_angle_beta 90.000000
_cell_angle_gamma 90.000000
_cell_volume 3206.520314
_symmetry_space_group_name_H-M "C M C A"
_symmetry_group_IT_number 64
_symmetry_cell_setting 'orthorhombic'
loop_
_space_group_symop_operation_xyz
x,y,z
-x,1/2-y,1/2+z
x,-y,-z
-x,1/2+y,1/2-z
-x,-y,-z
x,1/2+y,1/2-z
-x,y,z
x,1/2-y,1/2+z
1/2+x,1/2+y,z
1/2-x,-y,1/2+z
1/2+x,1/2-y,-z
1/2-x,y,1/2-z
1/2-x,1/2-y,-z
1/2+x,y,1/2-z
1/2-x,1/2+y,z
1/2+x,-y,1/2+z
loop_
_atom_site_type_symbol
_atom_site_label
_atom_site_fract_x
_atom_site_fract_y
_atom_site_fract_z
Si Si1 0.500000 0.208737 0.151852
Si Si2 0.764920 0.551683 0.429581
Si Si3 0.750000 0.038959 0.750000
Si Si4 0.766814 0.804092 0.862373
Si Si5 0.500000 0.062967 0.095328
Si Si6 0.000000 0.420373 0.195236
Si Si7 0.500000 0.777126 0.148579
O O1 0.631934 0.218343 0.105582
O O2 0.500000 0.253980 0.243171
O O3 0.500000 0.127069 0.163817
O O4 0.825326 0.500000 0.500000
O O5 0.757251 0.509682 0.336572
O O6 0.809135 0.625145 0.404660
O O7 0.625020 0.565331 0.460505
O O8 0.872709 0.081868 0.749161
O O9 0.750000 0.811616 0.750000
O O10 0.873501 0.753283 0.884764
O O11 0.500000 0.993200 0.149159
O O12 0.000000 0.355459 0.133023
#
# Coordination Sequence:
#
# PCOD9476994 Si02
#       7
#     8  16   8  16   8   8   8
#     4   8  16  29  54  77 105 133 190 236 274 315
#     4  10  18  33  59  90 116 151 188 243 301 335
#     4  10  22  38  56  86 124 144 196 240 284 358
#     4   9  17  31  51  81 111 135 190 233 272 332
#     4   8  17  34  54  84 113 143 194 246 275 342
#     4  10  22  35  56  81 119 157 184 231 297 344
#     4  10  20  30  52  80 109 157 191 219 282 347
#
# _framework density 22.454248
#
# number of rings (size 3 to 8) (size 9 to 14) (size 15 to 20)
#    0.000    2.667    1.111    0.333    7.778    0.000 
#    0.000    2.222    0.000    5.333   34.667    0.000 
#    0.000    0.000    0.000    0.000    0.000    0.000 
#
# Total GULP energy -200576.159188 kJ/mol
# GULP energy per Si atom -5571.559977 kJ/mol
# Density = 2.240314 g / cm^3
# Si number density = 22.454248 Si / 1000 Ang^3
#
#
#
# Elastic Constant Matrix: (Units=GPa)
#
#
# Indices 1 2 3 4 5 6 
#
# 1 168.8897 58.1538 -1.1092 0.0000 0.0000 0.0000
# 2 58.1538 89.7787 18.4414 0.0000 0.0000 0.0000
# 3 -1.1092 18.4414 63.3191 0.0000 0.0000 0.0000
# 4 0.0000 0.0000 0.0000 28.2379 0.0000 0.0000
# 5 0.0000 0.0000 0.0000 0.0000 -0.2372 0.0000
# 6 0.0000 0.0000 0.0000 0.0000 0.0000 22.7853
#
#
#
# Elastic Compliance Matrix: (Units=1/GPa)
#
#
# Indices 1 2 3 4 5 6 
#
# 1 0.007791 -0.005397 0.001708 0.000000 0.000000 0.000000
# 2 -0.005397 0.015586 -0.004634 0.000000 0.000000 0.000000
# 3 0.001708 -0.004634 0.017173 0.000000 0.000000 0.000000
# 4 0.000000 0.000000 0.000000 0.035413 0.000000 0.000000
# 5 0.000000 0.000000 0.000000 0.000000 -4.215599 0.000000
# 6 0.000000 0.000000 0.000000 0.000000 0.000000 0.043888
#
#
# Mechanical properties :
#
#
# Convention : Reuss Voigt Hill
#
# Bulk Modulus (GPa) = 41.83421 52.55108 47.19264
# Shear Modulus (GPa) = -1.22816 26.59063 12.68123
#
# Velocity S-wave (km/s) = -0.74037 3.44497 2.37904
# Velocity P-wave (km/s) = 4.23562 6.26723 5.34877
#
# Compressibility (1/GPa) = 0.02390388
#
# Stress axis : x y z
#
# Youngs Moduli (GPa) = 128.35816 64.15825 58.23232
#
# Poissons Ratio (x) = 0.34628 -0.09948
# Poissons Ratio (y) = 0.69279 0.26985
# Poissons Ratio (z) = -0.21929 0.29731
#
# Static dielectric constant tensor:
#      x y z
#    x 1.898970 0.000000 0.000000 
#    y 0.000000 1.807440 0.000000 
#    z 0.000000 0.000000 1.834330 
# 
# From -- ./inp_files/30744.got.cif
#   From: 2010.05.17/outbox.cif.g08.bks.cpg/sg64_16_cif.got.tgz:30744.got - 2010.06.03 16:29:19.
