data_PCOD9476270
_publ_section_title
;
Structure prediction by ZEFSAII (Michael W. Deem and Ramdas Pophale) SiO2 
 PCOD9476270
Probable space group: C M C M
;
_chemical_formula_sum "Si O2"
_cell_formula_units_Z 56
_cell_length_a 15.000000
_cell_length_b 12.000000
_cell_length_c 30.000000
_cell_angle_alpha 90.000000
_cell_angle_beta 90.000000
_cell_angle_gamma 90.000000
_cell_volume 5400.000000
_symmetry_space_group_name_H-M "C M C M"
_symmetry_group_IT_number 63
_symmetry_cell_setting 'orthorhombic'
loop_
_space_group_symop_operation_xyz
x,y,z
-x,-y,1/2+z
x,-y,-z
-x,y,1/2-z
-x,-y,-z
x,y,1/2-z
-x,y,z
x,-y,1/2+z
1/2+x,1/2+y,z
1/2-x,1/2-y,1/2+z
1/2+x,1/2-y,-z
1/2-x,1/2+y,1/2-z
1/2-x,1/2-y,-z
1/2+x,1/2+y,1/2-z
1/2-x,1/2+y,z
1/2+x,1/2-y,1/2+z
loop_
_atom_site_type_symbol
_atom_site_label
_atom_site_fract_x
_atom_site_fract_y
_atom_site_fract_z
Si Si1 0.901542 0.223943 0.512102
Si Si2 0.599586 0.549484 0.913386
Si Si3 0.234236 0.185152 0.645515
Si Si4 0.807677 0.842820 0.931035
Si Si5 0.099596 0.322142 0.698723
Si Si6 0.866234 0.453088 0.952164
Si Si7 0.903117 0.547779 0.643013
O O1 0.886164 0.111254 0.539302
O O2 0.833394 0.237367 0.471641
O O3 0.898180 0.324946 0.547134
O O4 0.000000 0.221998 0.492689
O O5 0.500000 0.581356 0.899478
O O6 0.671644 0.597009 0.879569
O O7 0.609017 0.417249 0.917131
O O8 0.263705 0.277381 0.609272
O O9 0.176836 0.239633 0.684135
O O10 0.324013 0.124494 0.659330
O O11 0.739084 0.935965 0.948422
O O12 0.108696 0.356378 0.750000
O O13 0.104285 0.428793 0.666784
O O14 0.000000 0.273143 0.693148
O O15 0.895954 0.524053 0.910031
O O16 0.892942 0.500000 0.000000
O O17 0.000000 0.596121 0.652584
#
# Coordination Sequence:
#
# PCOD9476270 Si02
#       7
#    16  16  16  16  16  16  16
#     4  11  23  36  53  79 115 166 223 268 306 361
#     4  11  22  38  58  82 118 162 208 261 316 364
#     4  12  22  40  63  93 122 159 200 256 313 369
#     4  12  23  36  55  83 120 165 213 258 311 361
#     4  10  22  44  72  97 122 155 198 250 311 383
#     4  12  22  36  58  83 122 173 224 262 306 355
#     4  11  24  42  63  94 133 169 209 256 315 375
#
# _framework density 10.370369999999999
#
# number of rings (size 3 to 8) (size 9 to 14) (size 15 to 20)
#    0.000    0.714    4.286    3.857    0.000    7.429 
#    0.000    0.000    0.000    0.000    0.000    0.000 
#    0.000    0.000    0.000    0.000    0.000    0.000 
#
# Total GULP energy -312802.257615 kJ/mol
# GULP energy per Si atom -5585.754600 kJ/mol
# Density = 1.034677 g / cm^3
# Si number density = 10.370370 Si / 1000 Ang^3
#
#
#
# Elastic Constant Matrix: (Units=GPa)
#
#
# Indices 1 2 3 4 5 6 
#
# 1 118.5881 38.8243 37.2568 0.0000 0.0000 0.0000
# 2 38.8243 48.9358 1.9708 0.0000 0.0000 0.0000
# 3 37.2568 1.9708 50.9901 0.0000 0.0000 0.0000
# 4 0.0000 0.0000 0.0000 12.3267 0.0000 0.0000
# 5 0.0000 0.0000 0.0000 0.0000 29.4601 0.0000
# 6 0.0000 0.0000 0.0000 0.0000 0.0000 34.7753
#
#
#
# Elastic Compliance Matrix: (Units=1/GPa)
#
#
# Indices 1 2 3 4 5 6 
#
# 1 0.015933 -0.012191 -0.011171 0.000000 0.000000 0.000000
# 2 -0.012191 0.029795 0.007756 0.000000 0.000000 0.000000
# 3 -0.011171 0.007756 0.027474 0.000000 0.000000 0.000000
# 4 0.000000 0.000000 0.000000 0.081125 0.000000 0.000000
# 5 0.000000 0.000000 0.000000 0.000000 0.033944 0.000000
# 6 0.000000 0.000000 0.000000 0.000000 0.000000 0.028756
#
#
# Mechanical properties :
#
#
# Convention : Reuss Voigt Hill
#
# Bulk Modulus (GPa) = 23.81502 41.62421 32.71962
# Shear Modulus (GPa) = 19.06685 24.67657 21.87171
#
# Velocity S-wave (km/s) = 3.03528 3.45304 3.25087
# Velocity P-wave (km/s) = 4.87761 6.00086 5.46815
#
# Compressibility (1/GPa) = 0.04199030
#
# Stress axis : x y z
#
# Youngs Moduli (GPa) = 62.76175 33.56303 36.39817
#
# Poissons Ratio (x) = 0.40917 0.40659
# Poissons Ratio (y) = 0.76514 -0.28231
# Poissons Ratio (z) = 0.70109 -0.26032
#
# Static dielectric constant tensor:
#      x y z
#    x 1.827650 0.000000 0.000000 
#    y 0.000000 1.754080 0.000000 
#    z 0.000000 0.000000 1.705030 
# 
# From -- ./inp_files/73400.got.cif
#   From: 2010.05.17/outbox.ucp.g08.bks.cvg/sg63_37_cif.got.tgz:73400.got - 2010.06.11 16:32:19.
