data_PCOD9476217
_publ_section_title
;
Structure prediction by ZEFSAII (Michael W. Deem and Ramdas Pophale) SiO2 
 PCOD9476217
Probable space group: C M C M
;
_chemical_formula_sum "Si O2"
_cell_formula_units_Z 48
_cell_length_a 9.000000
_cell_length_b 21.000000
_cell_length_c 27.000000
_cell_angle_alpha 90.000000
_cell_angle_beta 90.000000
_cell_angle_gamma 90.000000
_cell_volume 5103.000000
_symmetry_space_group_name_H-M "C M C M"
_symmetry_group_IT_number 63
_symmetry_cell_setting 'orthorhombic'
loop_
_space_group_symop_operation_xyz
x,y,z
-x,-y,1/2+z
x,-y,-z
-x,y,1/2-z
-x,-y,-z
x,y,1/2-z
-x,y,z
x,-y,1/2+z
1/2+x,1/2+y,z
1/2-x,1/2-y,1/2+z
1/2+x,1/2-y,-z
1/2-x,1/2+y,1/2-z
1/2-x,1/2-y,-z
1/2+x,1/2+y,1/2-z
1/2-x,1/2+y,z
1/2+x,1/2-y,1/2+z
loop_
_atom_site_type_symbol
_atom_site_label
_atom_site_fract_x
_atom_site_fract_y
_atom_site_fract_z
Si Si1 0.829229 0.181973 0.690441
Si Si2 0.177026 0.439291 0.532847
Si Si3 0.676203 0.441889 0.639750
Si Si4 0.327737 0.698824 0.355111
Si Si5 0.167175 0.555467 0.690551
Si Si6 0.672752 0.690852 0.025661
O O1 0.817599 0.186237 0.750000
O O2 0.774492 0.247321 0.667243
O O3 0.728013 0.123423 0.673017
O O4 0.000000 0.168848 0.677901
O O5 0.215634 0.500000 0.500000
O O6 0.241130 0.448451 0.587640
O O7 0.247787 0.374841 0.511899
O O8 0.000000 0.432655 0.534833
O O9 0.500000 0.441725 0.630887
O O10 0.713533 0.372427 0.661713
O O11 0.726066 0.499326 0.673803
O O12 0.500000 0.711295 0.341826
O O13 0.316815 0.697911 0.414762
O O14 0.164307 0.557492 0.750000
O O15 0.000000 0.544042 0.672257
O O16 0.500000 0.688064 0.012471
O O17 0.750000 0.750000 0.000000
#
# Coordination Sequence:
#
# PCOD9476217 Si02
#       6
#    16  16  16  16  16  16
#     4  10  21  36  55  80 108 139 178 222 266 315
#     4  10  21  37  57  81 110 143 179 222 270 320
#     4  10  21  37  57  81 110 143 179 222 269 319
#     4   9  20  37  55  78 108 141 177 217 264 317
#     4  10  21  37  57  80 108 143 181 222 268 318
#     4  10  21  37  57  81 109 142 181 223 268 320
#
# _framework density 9.4062319999999993
#
# number of rings (size 3 to 8) (size 9 to 14) (size 15 to 20)
#    0.000    2.167    0.000    3.500    0.000    9.333 
#    0.000    5.000    0.000    0.000    0.000    0.000 
#    0.000    0.000    0.000    0.000    0.000    0.000 
#
# Total GULP energy -267931.762749 kJ/mol
# GULP energy per Si atom -5581.911724 kJ/mol
# Density = 0.938482 g / cm^3
# Si number density = 9.406232 Si / 1000 Ang^3
#
#
#
# Elastic Constant Matrix: (Units=GPa)
#
#
# Indices 1 2 3 4 5 6 
#
# 1 39.8706 52.5742 21.2952 0.0000 0.0000 0.0000
# 2 52.5742 130.7020 27.7950 0.0000 0.0000 0.0000
# 3 21.2952 27.7950 2.5727 0.0000 0.0000 0.0000
# 4 0.0000 0.0000 0.0000 28.9180 0.0000 0.0000
# 5 0.0000 0.0000 0.0000 0.0000 26.8268 0.0000
# 6 0.0000 0.0000 0.0000 0.0000 0.0000 36.3525
#
#
#
# Elastic Compliance Matrix: (Units=1/GPa)
#
#
# Indices 1 2 3 4 5 6 
#
# 1 0.020255 -0.021199 0.061373 0.000000 0.000000 0.000000
# 2 -0.021199 0.016290 -0.000528 0.000000 0.000000 0.000000
# 3 0.061373 -0.000528 -0.113604 0.000000 0.000000 0.000000
# 4 0.000000 0.000000 0.000000 0.034581 0.000000 0.000000
# 5 0.000000 0.000000 0.000000 0.000000 0.037276 0.000000
# 6 0.000000 0.000000 0.000000 0.000000 0.000000 0.027508
#
#
# Mechanical properties :
#
#
# Convention : Reuss Voigt Hill
#
# Bulk Modulus (GPa) = 447.77704 41.83046 244.80375
# Shear Modulus (GPa) = -88.90227 23.18485 -32.85871
#
# Velocity S-wave (km/s) = -6.88184 3.51439 -4.18382
# Velocity P-wave (km/s) = 13.24356 6.22509 10.34755
#
# Compressibility (1/GPa) = 0.00223325
#
# Stress axis : x y z
#
# Youngs Moduli (GPa) = 49.37134 61.38581 -8.80251
#
# Poissons Ratio (x) = 1.30131 0.54024
# Poissons Ratio (y) = 1.04662 -0.00465
# Poissons Ratio (z) = -3.03006 0.03241
#
# Static dielectric constant tensor:
#      x y z
#    x 1.634280 0.000000 0.000000 
#    y 0.000000 1.635630 0.000000 
#    z 0.000000 0.000000 1.642370 
# 
# From -- ./inp_files/67006.got.cif
#   From: 2010.05.17/outbox.ucp.g08.bks.cvg/sg63_34_cif.got.tgz:67006.got - 2010.06.11 16:32:19.
