data_PCOD9476558
_publ_section_title
;
Structure prediction by ZEFSAII (Michael W. Deem and Ramdas Pophale) SiO2 
 PCOD9476558
Probable space group: C M C A
;
_chemical_formula_sum "Si O2"
_cell_formula_units_Z 96
_cell_length_a 15.411978
_cell_length_b 13.819181
_cell_length_c 18.144774
_cell_angle_alpha 90.000000
_cell_angle_beta 90.000000
_cell_angle_gamma 90.000000
_cell_volume 3864.490543
_symmetry_space_group_name_H-M "C M C A"
_symmetry_group_IT_number 64
_symmetry_cell_setting 'orthorhombic'
loop_
_space_group_symop_operation_xyz
x,y,z
-x,1/2-y,1/2+z
x,-y,-z
-x,1/2+y,1/2-z
-x,-y,-z
x,1/2+y,1/2-z
-x,y,z
x,1/2-y,1/2+z
1/2+x,1/2+y,z
1/2-x,-y,1/2+z
1/2+x,1/2-y,-z
1/2-x,y,1/2-z
1/2-x,1/2-y,-z
1/2+x,y,1/2-z
1/2-x,1/2+y,z
1/2+x,-y,1/2+z
loop_
_atom_site_type_symbol
_atom_site_label
_atom_site_fract_x
_atom_site_fract_y
_atom_site_fract_z
Si Si1 0.185065 0.170894 0.667874
Si Si2 0.347891 0.042177 0.236262
Si Si3 0.659123 0.787598 0.863443
Si Si4 0.188717 0.393411 0.000015
Si Si5 0.500000 0.145182 0.970309
Si Si6 0.500000 0.472109 0.171681
Si Si7 0.000000 0.679675 0.562045
Si Si8 0.000000 0.681819 0.805359
O O1 0.167264 0.063636 0.699979
O O2 0.277981 0.218851 0.683130
O O3 0.194940 0.153612 0.579769
O O4 0.096116 0.228819 0.688062
O O5 0.250000 0.076870 0.250000
O O6 0.412800 0.028256 0.304488
O O7 0.382621 0.122947 0.180358
O O8 0.717322 0.835090 0.928606
O O9 0.585915 0.721786 0.899552
O O10 0.084460 0.396268 0.990973
O O11 0.227146 0.500000 0.000000
O O12 0.500000 0.263031 0.983699
O O13 0.500000 0.122681 0.883399
O O14 0.500000 0.431757 0.088456
O O15 0.500000 0.381855 0.231002
#
# Coordination Sequence:
#
# PCOD9476558 Si02
#       8
#    16  16  16  16   8   8   8   8
#     4  10  20  37  58  85 118 152 193 246 299 352
#     4  11  23  38  57  83 116 156 200 241 293 355
#     4  11  22  36  58  88 116 153 196 243 297 362
#     4  10  17  32  56  86 117 149 190 243 299 354
#     4   8  17  29  53  89 116 146 190 238 297 361
#     4  10  21  39  59  82 116 158 195 250 302 351
#     4  10  21  36  58  86 119 152 193 241 300 359
#     4   8  18  34  58  84 116 147 190 241 299 353
#
# _framework density 24.841566
#
# number of rings (size 3 to 8) (size 9 to 14) (size 15 to 20)
#    0.000    2.000    1.667    2.250    0.000    3.333 
#    0.000    0.833    0.000    0.000    0.000    1.167 
#    0.000    0.000    0.000    0.000    0.000    0.000 
#
# Total GULP energy -267859.637838 kJ/mol
# GULP energy per Si atom -5580.409122 kJ/mol
# Density = 2.478503 g / cm^3
# Si number density = 24.841566 Si / 1000 Ang^3
#
#
#
# Elastic Constant Matrix: (Units=GPa)
#
#
# Indices 1 2 3 4 5 6 
#
# 1 83.9433 8.3852 -15.5793 0.0000 0.0000 0.0000
# 2 8.3852 67.5251 -3.4126 0.0000 0.0000 0.0000
# 3 -15.5793 -3.4126 49.7418 0.0000 0.0000 0.0000
# 4 0.0000 0.0000 0.0000 28.5901 0.0000 0.0000
# 5 0.0000 0.0000 0.0000 0.0000 23.9844 0.0000
# 6 0.0000 0.0000 0.0000 0.0000 0.0000 -21.4237
#
#
#
# Elastic Compliance Matrix: (Units=1/GPa)
#
#
# Indices 1 2 3 4 5 6 
#
# 1 0.012777 -0.001389 0.003906 0.000000 0.000000 0.000000
# 2 -0.001389 0.015012 0.000595 0.000000 0.000000 0.000000
# 3 0.003906 0.000595 0.021368 0.000000 0.000000 0.000000
# 4 0.000000 0.000000 0.000000 0.034977 0.000000 0.000000
# 5 0.000000 0.000000 0.000000 0.000000 0.041694 0.000000
# 6 0.000000 0.000000 0.000000 0.000000 0.000000 -0.046677
#
#
# Mechanical properties :
#
#
# Convention : Reuss Voigt Hill
#
# Bulk Modulus (GPa) = 18.05688 19.99965 19.02826
# Shear Modulus (GPa) = 54.71274 20.35127 37.53201
#
# Velocity S-wave (km/s) = 4.69814 2.86535 3.89119
# Velocity P-wave (km/s) = 6.05926 4.36065 5.27873
#
# Compressibility (1/GPa) = 0.05538055
#
# Stress axis : x y z
#
# Youngs Moduli (GPa) = 78.26831 66.61392 46.79874
#
# Poissons Ratio (x) = 0.09254 -0.18281
# Poissons Ratio (y) = 0.10873 -0.02784
# Poissons Ratio (z) = -0.30574 -0.03962
#
# Static dielectric constant tensor:
#      x y z
#    x 2.064110 0.000000 0.000000 
#    y 0.000000 2.021440 0.000000 
#    z 0.000000 0.000000 2.027800 
# 
# From -- ./inp_files/39295.got.cif
#   From: 2010.05.17/outbox.cif.g08.bks.cpg/sg64_20_cif.got.tgz:39295.got - 2010.06.03 16:29:19.
