data_PCOD9476247
_publ_section_title
;
Structure prediction by ZEFSAII (Michael W. Deem and Ramdas Pophale) SiO2 
 PCOD9476247
Probable space group: C M C M
;
_chemical_formula_sum "Si O2"
_cell_formula_units_Z 44
_cell_length_a 21.000000
_cell_length_b 9.000000
_cell_length_c 24.000000
_cell_angle_alpha 90.000000
_cell_angle_beta 90.000000
_cell_angle_gamma 90.000000
_cell_volume 4536.000000
_symmetry_space_group_name_H-M "C M C M"
_symmetry_group_IT_number 63
_symmetry_cell_setting 'orthorhombic'
loop_
_space_group_symop_operation_xyz
x,y,z
-x,-y,1/2+z
x,-y,-z
-x,y,1/2-z
-x,-y,-z
x,y,1/2-z
-x,y,z
x,-y,1/2+z
1/2+x,1/2+y,z
1/2-x,1/2-y,1/2+z
1/2+x,1/2-y,-z
1/2-x,1/2+y,1/2-z
1/2-x,1/2-y,-z
1/2+x,1/2+y,1/2-z
1/2-x,1/2+y,z
1/2+x,1/2-y,1/2+z
loop_
_atom_site_type_symbol
_atom_site_label
_atom_site_fract_x
_atom_site_fract_y
_atom_site_fract_z
Si Si1 0.925856 0.895580 0.355581
Si Si2 0.814762 0.570600 0.624961
Si Si3 0.788529 0.523685 0.250000
Si Si4 0.350249 0.500000 0.500000
Si Si5 0.190931 0.764986 0.418734
Si Si6 0.574879 0.700503 0.410357
Si Si7 0.338925 0.351591 0.250000
O O1 0.880602 0.815312 0.400638
O O2 0.886802 0.856568 0.301124
O O3 0.000000 0.850104 0.357471
O O4 0.924292 0.074179 0.362425
O O5 0.817845 0.535176 0.691381
O O6 0.807760 0.413563 0.590810
O O7 0.750297 0.668161 0.616435
O O8 0.876149 0.665913 0.604078
O O9 0.713875 0.480694 0.250000
O O10 0.799315 0.699562 0.250000
O O11 0.305608 0.631026 0.525939
O O12 0.395838 0.399460 0.539492
O O13 0.500000 0.742467 0.419641
#
# Coordination Sequence:
#
# PCOD9476247 Si02
#       7
#    16  16   8   8  16  16   8
#     4  10  21  39  61  90 128 168 217 265 320 390
#     4  12  24  42  66  97 135 172 219 273 326 393
#     4  12  24  40  65  95 133 172 217 264 318 390
#     4  10  23  44  72  94 129 170 220 276 333 398
#     4  11  23  41  65  97 128 173 218 274 330 387
#     4  10  24  44  67  95 129 172 218 270 330 391
#     4  12  23  38  63  95 124 178 219 266 331 380
#
# _framework density 9.7001760000000008
#
# number of rings (size 3 to 8) (size 9 to 14) (size 15 to 20)
#    0.000    1.091    3.636    2.727    2.545    5.091 
#    0.000    2.273    0.000    0.000    0.000    0.000 
#    0.000    0.000    0.000    0.000    0.000    0.000 
#
# Total GULP energy -245130.526586 kJ/mol
# GULP energy per Si atom -5571.148332 kJ/mol
# Density = 0.967810 g / cm^3
# Si number density = 9.700176 Si / 1000 Ang^3
#
#
#
# Elastic Constant Matrix: (Units=GPa)
#
#
# Indices 1 2 3 4 5 6 
#
# 1 151.1987 79.7354 26.5279 0.0000 0.0000 0.0000
# 2 79.7354 144.1683 23.4653 0.0000 0.0000 0.0000
# 3 26.5279 23.4653 52.0122 0.0000 0.0000 0.0000
# 4 0.0000 0.0000 0.0000 24.7351 0.0000 0.0000
# 5 0.0000 0.0000 0.0000 0.0000 34.0328 0.0000
# 6 0.0000 0.0000 0.0000 0.0000 0.0000 41.5349
#
#
#
# Elastic Compliance Matrix: (Units=1/GPa)
#
#
# Indices 1 2 3 4 5 6 
#
# 1 0.009682 -0.004912 -0.002722 0.000000 0.000000 0.000000
# 2 -0.004912 0.009978 -0.001996 0.000000 0.000000 0.000000
# 3 -0.002722 -0.001996 0.021515 0.000000 0.000000 0.000000
# 4 0.000000 0.000000 0.000000 0.040428 0.000000 0.000000
# 5 0.000000 0.000000 0.000000 0.000000 0.029383 0.000000
# 6 0.000000 0.000000 0.000000 0.000000 0.000000 0.024076
#
#
# Mechanical properties :
#
#
# Convention : Reuss Voigt Hill
#
# Bulk Modulus (GPa) = 45.63179 67.42626 56.52903
# Shear Modulus (GPa) = 30.93539 34.57062 32.75301
#
# Velocity S-wave (km/s) = 3.99755 4.22590 4.11331
# Velocity P-wave (km/s) = 6.69921 7.65778 7.19448
#
# Compressibility (1/GPa) = 0.02191454
#
# Stress axis : x y z
#
# Youngs Moduli (GPa) = 103.28958 100.22349 46.47860
#
# Poissons Ratio (x) = 0.49225 0.12652
# Poissons Ratio (y) = 0.50731 0.09279
# Poissons Ratio (z) = 0.28116 0.20009
#
# Static dielectric constant tensor:
#      x y z
#    x 1.645950 0.000000 0.000000 
#    y 0.000000 1.668930 0.000000 
#    z 0.000000 0.000000 2.014280 
# 
# From -- ./inp_files/64460.got.cif
#   From: 2010.05.17/outbox.ucp.g08.bks.cvg/sg63_33_cif.got.tgz:64460.got - 2010.06.11 16:32:19.
