data_PCOD9476264
_publ_section_title
;
Structure prediction by ZEFSAII (Michael W. Deem and Ramdas Pophale) SiO2 
 PCOD9476264
Probable space group: C M C M
;
_chemical_formula_sum "Si O2"
_cell_formula_units_Z 32
_cell_length_a 9.000000
_cell_length_b 24.000000
_cell_length_c 15.000000
_cell_angle_alpha 90.000000
_cell_angle_beta 90.000000
_cell_angle_gamma 90.000000
_cell_volume 3240.000000
_symmetry_space_group_name_H-M "C M C M"
_symmetry_group_IT_number 63
_symmetry_cell_setting 'orthorhombic'
loop_
_space_group_symop_operation_xyz
x,y,z
-x,-y,1/2+z
x,-y,-z
-x,y,1/2-z
-x,-y,-z
x,y,1/2-z
-x,y,z
x,-y,1/2+z
1/2+x,1/2+y,z
1/2-x,1/2-y,1/2+z
1/2+x,1/2-y,-z
1/2-x,1/2+y,1/2-z
1/2-x,1/2-y,-z
1/2+x,1/2+y,1/2-z
1/2-x,1/2+y,z
1/2+x,1/2-y,1/2+z
loop_
_atom_site_type_symbol
_atom_site_label
_atom_site_fract_x
_atom_site_fract_y
_atom_site_fract_z
Si Si1 0.670547 0.558431 0.750000
Si Si2 0.671739 0.858267 0.600846
Si Si3 0.177475 0.371173 0.397371
Si Si4 0.823618 0.249091 0.402106
Si Si5 0.165828 0.449929 0.750000
O O1 0.500000 0.572394 0.750000
O O2 0.745768 0.583979 0.837009
O O3 0.704412 0.493685 0.750000
O O4 0.500000 0.839941 0.592565
O O5 0.723443 0.872867 0.501010
O O6 0.761766 0.806688 0.640557
O O7 0.676252 0.910804 0.664261
O O8 0.212554 0.309088 0.361598
O O9 0.000000 0.378599 0.393841
O O10 0.750000 0.250000 0.500000
O O11 0.000000 0.245889 0.410239
O O12 0.000000 0.476596 0.750000
#
# Coordination Sequence:
#
# PCOD9476264 Si02
#       5
#     8  16  16  16   8
#     4  12  26  39  54  79 107 142 192 240 275 312
#     4   9  19  36  60  87 112 143 180 219 271 330
#     4   9  19  37  58  81 112 148 181 216 269 331
#     4   9  17  31  55  85 115 145 178 219 269 326
#     4  10  22  41  60  79 109 146 184 226 273 332
#
# _framework density 9.8765429999999999
#
# number of rings (size 3 to 8) (size 9 to 14) (size 15 to 20)
#    0.000    2.500    0.000    3.375    0.000    8.000 
#    0.000    7.500    0.000    0.000    0.000    0.000 
#    0.000    0.000    0.000    0.000    0.000    0.000 
#
# Total GULP energy -178386.314774 kJ/mol
# GULP energy per Si atom -5574.572337 kJ/mol
# Density = 0.985406 g / cm^3
# Si number density = 9.876543 Si / 1000 Ang^3
#
#
#
# Elastic Constant Matrix: (Units=GPa)
#
#
# Indices 1 2 3 4 5 6 
#
# 1 24.0487 32.2717 23.5574 0.0000 0.0000 0.0000
# 2 32.2717 55.8302 32.9074 0.0000 0.0000 0.0000
# 3 23.5574 32.9074 90.9449 0.0000 0.0000 0.0000
# 4 0.0000 0.0000 0.0000 16.6595 0.0000 0.0000
# 5 0.0000 0.0000 0.0000 0.0000 13.6263 0.0000
# 6 0.0000 0.0000 0.0000 0.0000 0.0000 33.0721
#
#
#
# Elastic Compliance Matrix: (Units=1/GPa)
#
#
# Indices 1 2 3 4 5 6 
#
# 1 0.195812 -0.105869 -0.012413 0.000000 0.000000 0.000000
# 2 -0.105869 0.080007 -0.001527 0.000000 0.000000 0.000000
# 3 -0.012413 -0.001527 0.014763 0.000000 0.000000 0.000000
# 4 0.000000 0.000000 0.000000 0.060026 0.000000 0.000000
# 5 0.000000 0.000000 0.000000 0.000000 0.073388 0.000000
# 6 0.000000 0.000000 0.000000 0.000000 0.000000 0.030237
#
#
# Mechanical properties :
#
#
# Convention : Reuss Voigt Hill
#
# Bulk Modulus (GPa) = 19.62159 38.69962 29.16061
# Shear Modulus (GPa) = 7.03395 18.14406 12.58900
#
# Velocity S-wave (km/s) = 1.88909 3.03404 2.52726
# Velocity P-wave (km/s) = 3.83578 5.64872 4.82811
#
# Compressibility (1/GPa) = 0.05096426
#
# Stress axis : x y z
#
# Youngs Moduli (GPa) = 5.10695 12.49888 67.73490
#
# Poissons Ratio (x) = 1.32324 0.84081
# Poissons Ratio (y) = 0.54067 0.10340
# Poissons Ratio (z) = 0.06339 0.01908
#
# Static dielectric constant tensor:
#      x y z
#    x 1.678210 0.000000 0.000000 
#    y 0.000000 1.756350 0.000000 
#    z 0.000000 0.000000 1.650670 
# 
# From -- ./inp_files/27600.got.cif
#   From: 2010.05.17/outbox.ucp.g08.bks.cvg/sg63_14_cif.got.tgz:27600.got - 2010.06.11 16:32:19.
