data_PCOD9476567
_publ_section_title
;
Structure prediction by ZEFSAII (Michael W. Deem and Ramdas Pophale) SiO2 
 PCOD9476567
Probable space group: C M C A
;
_chemical_formula_sum "Si O2"
_cell_formula_units_Z 128
_cell_length_a 19.900341
_cell_length_b 15.228561
_cell_length_c 23.179438
_cell_angle_alpha 90.000000
_cell_angle_beta 90.000000
_cell_angle_gamma 90.000000
_cell_volume 7024.611131
_symmetry_space_group_name_H-M "C M C A"
_symmetry_group_IT_number 64
_symmetry_cell_setting 'orthorhombic'
loop_
_space_group_symop_operation_xyz
x,y,z
-x,1/2-y,1/2+z
x,-y,-z
-x,1/2+y,1/2-z
-x,-y,-z
x,1/2+y,1/2-z
-x,y,z
x,1/2-y,1/2+z
1/2+x,1/2+y,z
1/2-x,-y,1/2+z
1/2+x,1/2-y,-z
1/2-x,y,1/2-z
1/2-x,1/2-y,-z
1/2+x,y,1/2-z
1/2-x,1/2+y,z
1/2+x,-y,1/2+z
loop_
_atom_site_type_symbol
_atom_site_label
_atom_site_fract_x
_atom_site_fract_y
_atom_site_fract_z
Si Si1 0.421763 0.090334 0.656834
Si Si2 0.925178 0.882449 0.813583
Si Si3 0.292977 0.665491 0.519113
Si Si4 0.328433 0.868856 0.238068
Si Si5 0.679697 0.036671 0.562976
Si Si6 0.178200 0.922143 0.721659
Si Si7 0.154112 0.244493 0.624472
Si Si8 0.769508 0.620676 0.103927
O O1 0.500000 0.119446 0.652600
O O2 0.377951 0.139592 0.706439
O O3 0.378306 0.086898 0.597890
O O4 0.424196 0.986023 0.672244
O O5 0.876095 0.872447 0.759615
O O6 0.898630 0.822458 0.865529
O O7 0.000000 0.855975 0.798605
O O8 0.250000 0.750000 0.500000
O O9 0.241676 0.601473 0.551557
O O10 0.350319 0.692995 0.563943
O O11 0.307760 0.623366 0.457038
O O12 0.250000 0.846163 0.250000
O O13 0.349471 0.816833 0.180640
O O14 0.330275 0.973156 0.225552
O O15 0.657871 0.000000 0.500000
O O16 0.713158 0.956507 0.598875
O O17 0.250000 0.901222 0.750000
O O18 0.180594 0.896436 0.655640
O O19 0.226746 0.292398 0.619313
#
# Coordination Sequence:
#
# PCOD9476567 Si02
#       8
#    16  16  16  16  16  16  16  16
#     4  10  20  37  54  77 111 150 190 232 280 343
#     4  10  21  34  53  76 107 146 185 226 275 338
#     4   9  20  32  51  80 109 138 178 228 279 321
#     4  10  21  31  52  78 106 139 182 232 282 334
#     4  10  18  34  56  81 114 148 186 233 284 339
#     4  10  17  33  53  75 104 137 185 222 270 329
#     4  11  19  32  52  75 108 140 179 221 288 335
#     4  10  18  31  53  82 108 138 178 235 271 335
#
# _framework density 18.221648999999999
#
# number of rings (size 3 to 8) (size 9 to 14) (size 15 to 20)
#    0.000    2.000    2.500    3.000    1.750    0.750 
#    0.000    0.000    0.000    0.750    0.000    0.000 
#    0.000    8.000    0.000    0.000    0.000    0.000 
#
# Total GULP energy -356704.317935 kJ/mol
# GULP energy per Si atom -5573.504968 kJ/mol
# Density = 1.818018 g / cm^3
# Si number density = 18.221649 Si / 1000 Ang^3
#
#
#
# Elastic Constant Matrix: (Units=GPa)
#
#
# Indices 1 2 3 4 5 6 
#
# 1 67.2046 16.6140 45.3203 0.0000 0.0000 0.0000
# 2 16.6140 33.8026 21.5303 0.0000 0.0000 0.0000
# 3 45.3203 21.5303 95.5620 0.0000 0.0000 0.0000
# 4 0.0000 0.0000 0.0000 30.3721 0.0000 0.0000
# 5 0.0000 0.0000 0.0000 0.0000 17.8867 0.0000
# 6 0.0000 0.0000 0.0000 0.0000 0.0000 5.4265
#
#
#
# Elastic Compliance Matrix: (Units=1/GPa)
#
#
# Indices 1 2 3 4 5 6 
#
# 1 0.022576 -0.004993 -0.009582 0.000000 0.000000 0.000000
# 2 -0.004993 0.035644 -0.005663 0.000000 0.000000 0.000000
# 3 -0.009582 -0.005663 0.016284 0.000000 0.000000 0.000000
# 4 0.000000 0.000000 0.000000 0.032925 0.000000 0.000000
# 5 0.000000 0.000000 0.000000 0.000000 0.055907 0.000000
# 6 0.000000 0.000000 0.000000 0.000000 0.000000 0.184281
#
#
# Mechanical properties :
#
#
# Convention : Reuss Voigt Hill
#
# Bulk Modulus (GPa) = 29.38620 40.38873 34.88747
# Shear Modulus (GPa) = 12.51765 18.27736 15.39751
#
# Velocity S-wave (km/s) = 2.62385 3.17054 2.91006
# Velocity P-wave (km/s) = 5.03404 5.96796 5.52078
#
# Compressibility (1/GPa) = 0.03402957
#
# Stress axis : x y z
#
# Youngs Moduli (GPa) = 44.29528 28.05483 61.40868
#
# Poissons Ratio (x) = 0.14008 0.58839
# Poissons Ratio (y) = 0.22117 0.34775
# Poissons Ratio (z) = 0.42442 0.15887
#
# Static dielectric constant tensor:
#      x y z
#    x 1.605490 0.000000 0.000000 
#    y 0.000000 1.702100 0.000000 
#    z 0.000000 0.000000 1.698450 
# 
# From -- ./inp_files/41168.got.cif
#   From: 2010.05.17/outbox.cif.g08.bks.cpg/sg64_21_cif.got.tgz:41168.got - 2010.06.03 16:29:19.
