data_PCOD9476484
_publ_section_title
;
Structure prediction by ZEFSAII (Michael W. Deem and Ramdas Pophale) SiO2 
 PCOD9476484
Probable space group: C M C A
;
_chemical_formula_sum "Si O2"
_cell_formula_units_Z 80
_cell_length_a 13.831522
_cell_length_b 12.826052
_cell_length_c 18.157789
_cell_angle_alpha 90.000000
_cell_angle_beta 90.000000
_cell_angle_gamma 90.000000
_cell_volume 3221.261139
_symmetry_space_group_name_H-M "C M C A"
_symmetry_group_IT_number 64
_symmetry_cell_setting 'orthorhombic'
loop_
_space_group_symop_operation_xyz
x,y,z
-x,1/2-y,1/2+z
x,-y,-z
-x,1/2+y,1/2-z
-x,-y,-z
x,1/2+y,1/2-z
-x,y,z
x,1/2-y,1/2+z
1/2+x,1/2+y,z
1/2-x,-y,1/2+z
1/2+x,1/2-y,-z
1/2-x,y,1/2-z
1/2-x,1/2-y,-z
1/2+x,y,1/2-z
1/2-x,1/2+y,z
1/2+x,-y,1/2+z
loop_
_atom_site_type_symbol
_atom_site_label
_atom_site_fract_x
_atom_site_fract_y
_atom_site_fract_z
Si Si1 0.188411 0.005075 0.402363
Si Si2 0.109938 0.832300 0.491385
Si Si3 0.885110 0.303232 0.379833
Si Si4 0.109828 0.046495 0.115702
Si Si5 0.385714 0.378741 0.724652
O O1 0.169662 0.886357 0.425756
O O2 0.290501 0.055350 0.428185
O O3 0.112032 0.077512 0.445698
O O4 0.169956 0.028567 0.317160
O O5 0.146681 0.733643 0.538420
O O6 0.000000 0.813566 0.465712
O O7 0.877528 0.424627 0.362537
O O8 0.850061 0.226577 0.315370
O O9 0.000000 0.284581 0.383771
O O10 0.000000 0.059269 0.085353
O O11 0.121403 0.117287 0.187694
O O12 0.500000 0.393846 0.711015
#
# Coordination Sequence:
#
# PCOD9476484 Si02
#       5
#    16  16  16  16  16
#     4  10  17  29  49  75  98 124 166 209 251 294
#     4   9  17  32  55  76  94 124 172 222 255 285
#     4   8  16  32  52  72  97 130 165 207 256 295
#     4  10  20  32  47  72 106 138 166 198 246 309
#     4   9  17  32  53  73  96 128 168 213 253 292
#
# _framework density 24.834993000000001
#
# number of rings (size 3 to 8) (size 9 to 14) (size 15 to 20)
#    0.000    2.800    0.000    4.200    0.000    0.800 
#    0.000   10.000    0.000    0.000    0.000   19.600 
#    0.000    0.000    0.000    0.000    0.000    0.000 
#
# Total GULP energy -222987.371907 kJ/mol
# GULP energy per Si atom -5574.684298 kJ/mol
# Density = 2.477847 g / cm^3
# Si number density = 24.834993 Si / 1000 Ang^3
#
#
#
# Elastic Constant Matrix: (Units=GPa)
#
#
# Indices 1 2 3 4 5 6 
#
# 1 130.6494 15.0642 16.5804 0.0000 0.0000 0.0000
# 2 15.0642 82.7284 5.7812 0.0000 0.0000 0.0000
# 3 16.5804 5.7812 36.9052 0.0000 0.0000 0.0000
# 4 0.0000 0.0000 0.0000 23.1349 0.0000 0.0000
# 5 0.0000 0.0000 0.0000 0.0000 18.0028 0.0000
# 6 0.0000 0.0000 0.0000 0.0000 0.0000 15.8443
#
#
#
# Elastic Compliance Matrix: (Units=1/GPa)
#
#
# Indices 1 2 3 4 5 6 
#
# 1 0.008244 -0.001256 -0.003507 0.000000 0.000000 0.000000
# 2 -0.001256 0.012413 -0.001380 0.000000 0.000000 0.000000
# 3 -0.003507 -0.001380 0.028888 0.000000 0.000000 0.000000
# 4 0.000000 0.000000 0.000000 0.043225 0.000000 0.000000
# 5 0.000000 0.000000 0.000000 0.000000 0.055547 0.000000
# 6 0.000000 0.000000 0.000000 0.000000 0.000000 0.063114
#
#
# Mechanical properties :
#
#
# Convention : Reuss Voigt Hill
#
# Bulk Modulus (GPa) = 26.83943 36.12607 31.48275
# Shear Modulus (GPa) = 21.17416 25.58689 23.38052
#
# Velocity S-wave (km/s) = 2.92309 3.21327 3.07161
# Velocity P-wave (km/s) = 4.71414 5.32399 5.02832
#
# Compressibility (1/GPa) = 0.03725862
#
# Stress axis : x y z
#
# Youngs Moduli (GPa) = 121.30084 80.56125 34.61617
#
# Poissons Ratio (x) = 0.10119 0.12140
# Poissons Ratio (y) = 0.15236 0.04778
# Poissons Ratio (z) = 0.42540 0.11119
#
# Static dielectric constant tensor:
#      x y z
#    x 2.051980 0.000000 0.000000 
#    y 0.000000 1.992530 0.000000 
#    z 0.000000 0.000000 1.996270 
# 
# From -- ./inp_files/38963.got.cif
#   From: 2010.05.17/outbox.cif.g08.bks.cpg/sg64_20_cif.got.tgz:38963.got - 2010.06.03 16:29:19.
