data_PCOD9476287
_publ_section_title
;
Structure prediction by ZEFSAII (Michael W. Deem and Ramdas Pophale) SiO2 
 PCOD9476287
Probable space group: C M C M
;
_chemical_formula_sum "Si O2"
_cell_formula_units_Z 56
_cell_length_a 15.000000
_cell_length_b 24.000000
_cell_length_c 15.000000
_cell_angle_alpha 90.000000
_cell_angle_beta 90.000000
_cell_angle_gamma 90.000000
_cell_volume 5400.000000
_symmetry_space_group_name_H-M "C M C M"
_symmetry_group_IT_number 63
_symmetry_cell_setting 'orthorhombic'
loop_
_space_group_symop_operation_xyz
x,y,z
-x,-y,1/2+z
x,-y,-z
-x,y,1/2-z
-x,-y,-z
x,y,1/2-z
-x,y,z
x,-y,1/2+z
1/2+x,1/2+y,z
1/2-x,1/2-y,1/2+z
1/2+x,1/2-y,-z
1/2-x,1/2+y,1/2-z
1/2-x,1/2-y,-z
1/2+x,1/2+y,1/2-z
1/2-x,1/2+y,z
1/2+x,1/2-y,1/2+z
loop_
_atom_site_type_symbol
_atom_site_label
_atom_site_fract_x
_atom_site_fract_y
_atom_site_fract_z
Si Si1 0.609199 0.698889 0.647728
Si Si2 0.891532 0.746828 0.968532
Si Si3 0.108605 0.642732 0.852513
Si Si4 0.605275 0.357942 0.857168
Si Si5 0.217379 0.033753 0.140798
Si Si6 0.397594 0.572727 0.641497
Si Si7 0.398623 0.984628 0.141411
O O1 0.637691 0.710522 0.750000
O O2 0.500000 0.698690 0.648986
O O3 0.638596 0.741016 0.569951
O O4 0.634529 0.635441 0.621017
O O5 0.859391 0.690900 0.919113
O O6 0.871741 0.801253 0.908795
O O7 0.000000 0.742983 0.971627
O O8 0.139967 0.651352 0.750000
O O9 0.128059 0.579203 0.880408
O O10 0.000000 0.645715 0.849433
O O11 0.614695 0.350091 0.750000
O O12 0.500000 0.370297 0.873777
O O13 0.666139 0.410106 0.885838
O O14 0.216749 0.033712 0.250000
O O15 0.163160 0.978566 0.111885
O O16 0.320151 0.026005 0.112066
O O17 0.399680 0.570956 0.750000
O O18 0.500000 0.566253 0.610422
O O19 0.401284 0.985969 0.250000
O O20 0.500000 0.996278 0.110760
#
# Coordination Sequence:
#
# PCOD9476287 Si02
#       7
#    16  16  16  16  16  16  16
#     4   8  14  24  37  54  79 112 148 184 219 259
#     4   9  15  23  37  57  84 119 151 176 212 267
#     4   8  13  22  37  57  82 113 146 178 216 265
#     4   9  16  24  35  57  91 125 153 180 211 257
#     4   9  15  23  37  55  79 113 147 182 227 267
#     4   8  13  22  36  53  76 109 145 178 214 258
#     4   8  14  24  38  58  83 109 142 187 232 271
#
# _framework density 10.370369999999999
#
# number of rings (size 3 to 8) (size 9 to 14) (size 15 to 20)
#    0.000    3.571    0.000    2.571    0.000    3.429 
#    0.000    0.714    0.000    4.286    0.000    0.000 
#    0.000    5.714    0.000   25.571    0.000    1.143 
#
# Total GULP energy -312672.739229 kJ/mol
# GULP energy per Si atom -5583.441772 kJ/mol
# Density = 1.034677 g / cm^3
# Si number density = 10.370370 Si / 1000 Ang^3
#
#
#
# Elastic Constant Matrix: (Units=GPa)
#
#
# Indices 1 2 3 4 5 6 
#
# 1 65.7798 34.5604 10.8784 0.0000 0.0000 0.0000
# 2 34.5604 59.9175 22.6759 0.0000 0.0000 0.0000
# 3 10.8784 22.6759 54.9525 0.0000 0.0000 0.0000
# 4 0.0000 0.0000 0.0000 12.1499 0.0000 0.0000
# 5 0.0000 0.0000 0.0000 0.0000 4.9929 0.0000
# 6 0.0000 0.0000 0.0000 0.0000 0.0000 12.8708
#
#
#
# Elastic Compliance Matrix: (Units=1/GPa)
#
#
# Indices 1 2 3 4 5 6 
#
# 1 0.021862 -0.013003 0.001038 0.000000 0.000000 0.000000
# 2 -0.013003 0.027512 -0.008779 0.000000 0.000000 0.000000
# 3 0.001038 -0.008779 0.021615 0.000000 0.000000 0.000000
# 4 0.000000 0.000000 0.000000 0.082305 0.000000 0.000000
# 5 0.000000 0.000000 0.000000 0.000000 0.200285 0.000000
# 6 0.000000 0.000000 0.000000 0.000000 0.000000 0.077695
#
#
# Mechanical properties :
#
#
# Convention : Reuss Voigt Hill
#
# Bulk Modulus (GPa) = 33.89693 35.20882 34.55287
# Shear Modulus (GPa) = 10.36064 13.50506 11.93285
#
# Velocity S-wave (km/s) = 2.23744 2.55451 2.40121
# Velocity P-wave (km/s) = 4.80141 5.07082 4.93795
#
# Compressibility (1/GPa) = 0.02950120
#
# Stress axis : x y z
#
# Youngs Moduli (GPa) = 45.74094 36.34783 46.26505
#
# Poissons Ratio (x) = 0.47263 -0.04801
# Poissons Ratio (y) = 0.59476 0.40614
# Poissons Ratio (z) = -0.04747 0.31908
#
# Static dielectric constant tensor:
#      x y z
#    x 1.759170 0.000000 0.000000 
#    y 0.000000 1.708500 0.000000 
#    z 0.000000 0.000000 1.754990 
# 
# From -- ./inp_files/32267.got.cif
#   From: 2010.05.17/outbox.ucp.g08.bks.cvg/sg63_17_cif.got.tgz:32267.got - 2010.06.11 16:32:19.
