data_PCOD9476047
_publ_section_title
;
Structure prediction by ZEFSAII (Michael W. Deem and Ramdas Pophale) SiO2 
 PCOD9476047
Probable space group: C M C M
;
_chemical_formula_sum "Si O2"
_cell_formula_units_Z 44
_cell_length_a 18.000000
_cell_length_b 30.000000
_cell_length_c 9.000000
_cell_angle_alpha 90.000000
_cell_angle_beta 90.000000
_cell_angle_gamma 90.000000
_cell_volume 4860.000000
_symmetry_space_group_name_H-M "C M C M"
_symmetry_group_IT_number 63
_symmetry_cell_setting 'orthorhombic'
loop_
_space_group_symop_operation_xyz
x,y,z
-x,-y,1/2+z
x,-y,-z
-x,y,1/2-z
-x,-y,-z
x,y,1/2-z
-x,y,z
x,-y,1/2+z
1/2+x,1/2+y,z
1/2-x,1/2-y,1/2+z
1/2+x,1/2-y,-z
1/2-x,1/2+y,1/2-z
1/2-x,1/2-y,-z
1/2+x,1/2+y,1/2-z
1/2-x,1/2+y,z
1/2+x,1/2-y,1/2+z
loop_
_atom_site_type_symbol
_atom_site_label
_atom_site_fract_x
_atom_site_fract_y
_atom_site_fract_z
Si Si1 0.500000 0.548779 0.570204
Si Si2 0.786721 0.451804 0.428872
Si Si3 0.087233 0.199605 0.931574
Si Si4 0.087933 0.605551 0.429594
Si Si5 0.644671 0.605797 0.930420
Si Si6 0.090341 0.296268 0.577100
O O1 0.500000 0.500000 0.500000
O O2 0.500000 0.545199 0.750000
O O3 0.426732 0.576406 0.525782
O O4 0.773803 0.500000 0.500000
O O5 0.787964 0.455030 0.250000
O O6 0.862713 0.431064 0.490554
O O7 0.720026 0.418600 0.475160
O O8 0.089406 0.201132 0.750000
O O9 0.133121 0.156630 0.981766
O O10 0.113361 0.248310 0.987037
O O11 0.000000 0.193252 0.969752
O O12 0.097497 0.603621 0.250000
O O13 0.111446 0.655343 0.484348
O O14 0.000000 0.600216 0.458087
O O15 0.644251 0.607125 0.750000
O O16 0.113091 0.296752 0.750000
O O17 0.000000 0.295410 0.575980
#
# Coordination Sequence:
#
# PCOD9476047 Si02
#       6
#     8  16  16  16  16  16
#     4  10  18  30  48  70  96 130 172 214 249 282
#     4  11  23  37  52  72 100 133 167 206 255 302
#     4   8  11  20  42  72 103 132 163 201 239 278
#     4   9  18  35  57  79 101 126 161 204 248 300
#     4   9  17  29  46  71 102 133 167 207 247 286
#     4   7  11  21  43  74 102 126 156 196 241 286
#
# _framework density 9.0534979999999994
#
# number of rings (size 3 to 8) (size 9 to 14) (size 15 to 20)
#    0.000    3.091    0.909    3.273    0.000    0.727 
#    0.000    1.818    0.000    0.000    0.000    2.545 
#    0.000    0.000    0.000    0.000    0.000    0.000 
#
# Total GULP energy -245008.402116 kJ/mol
# GULP energy per Si atom -5568.372775 kJ/mol
# Density = 0.903289 g / cm^3
# Si number density = 9.053498 Si / 1000 Ang^3
#
#
#
# Elastic Constant Matrix: (Units=GPa)
#
#
# Indices 1 2 3 4 5 6 
#
# 1 56.9255 21.0293 16.9632 0.0000 0.0000 0.0000
# 2 21.0293 58.8066 10.5148 0.0000 0.0000 0.0000
# 3 16.9632 10.5148 14.6791 0.0000 0.0000 0.0000
# 4 0.0000 0.0000 0.0000 8.1640 0.0000 0.0000
# 5 0.0000 0.0000 0.0000 0.0000 11.3125 0.0000
# 6 0.0000 0.0000 0.0000 0.0000 0.0000 24.4087
#
#
#
# Elastic Compliance Matrix: (Units=1/GPa)
#
#
# Indices 1 2 3 4 5 6 
#
# 1 0.027944 -0.004839 -0.028827 0.000000 0.000000 0.000000
# 2 -0.004839 0.020341 -0.008979 0.000000 0.000000 0.000000
# 3 -0.028827 -0.008979 0.107868 0.000000 0.000000 0.000000
# 4 0.000000 0.000000 0.000000 0.122488 0.000000 0.000000
# 5 0.000000 0.000000 0.000000 0.000000 0.088398 0.000000
# 6 0.000000 0.000000 0.000000 0.000000 0.000000 0.040969
#
#
# Mechanical properties :
#
#
# Convention : Reuss Voigt Hill
#
# Bulk Modulus (GPa) = 14.11139 25.26955 19.69047
# Shear Modulus (GPa) = 9.67273 14.23731 11.95502
#
# Velocity S-wave (km/s) = 2.31378 2.80712 2.57231
# Velocity P-wave (km/s) = 3.86631 4.94900 4.44077
#
# Compressibility (1/GPa) = 0.07086475
#
# Stress axis : x y z
#
# Youngs Moduli (GPa) = 35.78548 49.16280 9.27063
#
# Poissons Ratio (x) = 0.23788 0.26724
# Poissons Ratio (y) = 0.17315 0.08324
# Poissons Ratio (z) = 1.03157 0.44142
#
# Static dielectric constant tensor:
#      x y z
#    x 1.612470 0.000000 0.000000 
#    y 0.000000 1.662830 0.000000 
#    z 0.000000 0.000000 1.593840 
# 
# From -- ./inp_files/6868.got.cif
#   From: 2010.05.17/outbox.ucp.g08.bks.cvg/sg63_4_cif.got.tgz:6868.got - 2010.06.11 16:32:19.
