data_PCOD9476461
_publ_section_title
;
Structure prediction by ZEFSAII (Michael W. Deem and Ramdas Pophale) SiO2 
 PCOD9476461
Probable space group: C M C A
;
_chemical_formula_sum "Si O2"
_cell_formula_units_Z 116
_cell_length_a 14.320126
_cell_length_b 23.477899
_cell_length_c 15.257159
_cell_angle_alpha 90.000000
_cell_angle_beta 90.000000
_cell_angle_gamma 90.000000
_cell_volume 5129.555599
_symmetry_space_group_name_H-M "C M C A"
_symmetry_group_IT_number 64
_symmetry_cell_setting 'orthorhombic'
loop_
_space_group_symop_operation_xyz
x,y,z
-x,1/2-y,1/2+z
x,-y,-z
-x,1/2+y,1/2-z
-x,-y,-z
x,1/2+y,1/2-z
-x,y,z
x,1/2-y,1/2+z
1/2+x,1/2+y,z
1/2-x,-y,1/2+z
1/2+x,1/2-y,-z
1/2-x,y,1/2-z
1/2-x,1/2-y,-z
1/2+x,y,1/2-z
1/2-x,1/2+y,z
1/2+x,-y,1/2+z
loop_
_atom_site_type_symbol
_atom_site_label
_atom_site_fract_x
_atom_site_fract_y
_atom_site_fract_z
Si Si1 0.392754 0.772829 0.115074
Si Si2 0.302334 0.017848 0.656442
Si Si3 0.103655 0.911985 0.774128
Si Si4 0.334191 0.432048 0.572866
Si Si5 0.773798 0.645642 0.645774
Si Si6 0.500000 0.500000 0.500000
Si Si7 0.771505 0.670410 0.391018
Si Si8 0.394576 0.250027 0.675559
O O1 0.500000 0.782599 0.087273
O O2 0.321521 0.825681 0.108519
O O3 0.342551 0.717738 0.072199
O O4 0.394268 0.757114 0.219002
O O5 0.250000 0.020837 0.750000
O O6 0.385680 0.973995 0.679337
O O7 0.235876 0.983661 0.591528
O O8 0.310310 0.082325 0.624363
O O9 0.124248 0.919589 0.671069
O O10 0.000000 0.889396 0.785435
O O11 0.173985 0.868673 0.820584
O O12 0.418129 0.451321 0.512457
O O13 0.273989 0.377215 0.547302
O O14 0.750000 0.643838 0.750000
O O15 0.857647 0.690656 0.636353
O O16 0.684533 0.705113 0.351182
O O17 0.500000 0.264712 0.648195
#
# Coordination Sequence:
#
# PCOD9476461 Si02
#       8
#    16  16  16  16  16   4  16  16
#     4   9  15  24  39  66  97 128 156 188 238 304
#     4   8  16  30  46  65  98 130 161 201 249 291
#     4  10  17  28  47  72  97 132 164 198 250 300
#     4  10  20  33  45  66  96 129 166 211 246 294
#     4   8  14  26  38  60  97 129 154 189 234 296
#     4  12  24  36  48  68  98 132 180 206 248 294
#     4  10  18  28  45  68 100 128 157 201 252 298
#     4   9  16  23  38  63  98 134 158 183 238 304
#
# _framework density 22.614045000000001
#
# number of rings (size 3 to 8) (size 9 to 14) (size 15 to 20)
#    0.000    2.759    0.690    4.552    0.966    1.655 
#    1.241    2.759    0.000    0.000    0.000   15.931 
#    0.000    0.000    0.000    0.000    0.000    0.000 
#
# Total GULP energy -323228.662026 kJ/mol
# GULP energy per Si atom -5572.907966 kJ/mol
# Density = 2.256257 g / cm^3
# Si number density = 22.614045 Si / 1000 Ang^3
#
#
#
# Elastic Constant Matrix: (Units=GPa)
#
#
# Indices 1 2 3 4 5 6 
#
# 1 151.3642 57.0804 17.0763 0.0000 0.0000 0.0000
# 2 57.0804 173.8347 19.0863 0.0000 0.0000 0.0000
# 3 17.0763 19.0863 53.8402 0.0000 0.0000 0.0000
# 4 0.0000 0.0000 0.0000 5.6292 0.0000 0.0000
# 5 0.0000 0.0000 0.0000 0.0000 8.9676 0.0000
# 6 0.0000 0.0000 0.0000 0.0000 0.0000 -18.1317
#
#
#
# Elastic Compliance Matrix: (Units=1/GPa)
#
#
# Indices 1 2 3 4 5 6 
#
# 1 0.007671 -0.002343 -0.001602 0.000000 0.000000 0.000000
# 2 -0.002343 0.006701 -0.001632 0.000000 0.000000 0.000000
# 3 -0.001602 -0.001632 0.019660 0.000000 0.000000 0.000000
# 4 0.000000 0.000000 0.000000 0.177644 0.000000 0.000000
# 5 0.000000 0.000000 0.000000 0.000000 0.111512 0.000000
# 6 0.000000 0.000000 0.000000 0.000000 0.000000 -0.055152
#
#
# Mechanical properties :
#
#
# Convention : Reuss Voigt Hill
#
# Bulk Modulus (GPa) = 43.71208 62.83610 53.27409
# Shear Modulus (GPa) = 17.43265 18.34610 17.88938
#
# Velocity S-wave (km/s) = 2.77948 2.85137 2.81565
# Velocity P-wave (km/s) = 5.44722 6.21989 5.84634
#
# Compressibility (1/GPa) = 0.02287697
#
# Stress axis : x y z
#
# Youngs Moduli (GPa) = 130.36330 149.22852 50.86359
#
# Poissons Ratio (x) = 0.34962 0.08150
# Poissons Ratio (y) = 0.30542 0.08303
# Poissons Ratio (z) = 0.20889 0.24361
#
# Static dielectric constant tensor:
#      x y z
#    x 1.789400 0.000000 0.000000 
#    y 0.000000 1.870050 0.000000 
#    z 0.000000 0.000000 1.954810 
# 
# From -- ./inp_files/32538.got.cif
#   From: 2010.05.17/outbox.cif.g08.bks.cpg/sg64_17_cif.got.tgz:32538.got - 2010.06.03 16:29:19.
