data_PCOD9476242
_publ_section_title
;
Structure prediction by ZEFSAII (Michael W. Deem and Ramdas Pophale) SiO2 
 PCOD9476242
Probable space group: C M C M
;
_chemical_formula_sum "Si O2"
_cell_formula_units_Z 40
_cell_length_a 12.000000
_cell_length_b 21.000000
_cell_length_c 18.000000
_cell_angle_alpha 90.000000
_cell_angle_beta 90.000000
_cell_angle_gamma 90.000000
_cell_volume 4536.000000
_symmetry_space_group_name_H-M "C M C M"
_symmetry_group_IT_number 63
_symmetry_cell_setting 'orthorhombic'
loop_
_space_group_symop_operation_xyz
x,y,z
-x,-y,1/2+z
x,-y,-z
-x,y,1/2-z
-x,-y,-z
x,y,1/2-z
-x,y,z
x,-y,1/2+z
1/2+x,1/2+y,z
1/2-x,1/2-y,1/2+z
1/2+x,1/2-y,-z
1/2-x,1/2+y,1/2-z
1/2-x,1/2-y,-z
1/2+x,1/2+y,1/2-z
1/2-x,1/2+y,z
1/2+x,1/2-y,1/2+z
loop_
_atom_site_type_symbol
_atom_site_label
_atom_site_fract_x
_atom_site_fract_y
_atom_site_fract_z
Si Si1 0.132695 0.116488 0.575633
Si Si2 0.132942 0.749913 0.338959
Si Si3 0.000000 0.599784 0.014477
Si Si4 0.748248 0.000285 0.664434
Si Si5 0.264686 0.866124 0.576123
Si Si6 0.500000 0.021837 0.624191
O O1 0.151977 0.180809 0.623989
O O2 0.192698 0.054985 0.613893
O O3 0.177619 0.130596 0.492182
O O4 0.000000 0.104587 0.573864
O O5 0.147460 0.752934 0.250000
O O6 0.217110 0.696976 0.373401
O O7 0.000000 0.733464 0.351669
O O8 0.884792 0.631715 0.035663
O O9 0.000000 0.536675 0.065861
O O10 0.000000 0.583354 0.928013
O O11 0.789951 0.999683 0.750000
O O12 0.616268 0.016505 0.666135
O O13 0.754968 0.930139 0.625762
#
# Coordination Sequence:
#
# PCOD9476242 Si02
#       6
#    16  16   8  16  16   8
#     4  11  24  40  58  83 117 162 202 230 273 343
#     4  10  21  38  61  88 117 147 186 241 298 348
#     4   9  16  30  56  86 112 140 178 240 292 338
#     4  11  22  35  57  87 119 150 188 243 296 344
#     4  11  20  37  61  88 114 145 196 244 290 337
#     4   9  17  32  52  84 118 144 177 229 300 349
#
# _framework density 8.8183419999999995
#
# number of rings (size 3 to 8) (size 9 to 14) (size 15 to 20)
#    0.000    1.600    3.000    2.700    0.000    2.800 
#    0.000    0.000    0.000    1.800    0.000    0.000 
#    0.000    0.000    0.000    0.000    0.000    0.000 
#
# Total GULP energy -222959.838825 kJ/mol
# GULP energy per Si atom -5573.995971 kJ/mol
# Density = 0.879827 g / cm^3
# Si number density = 8.818342 Si / 1000 Ang^3
#
#
#
# Elastic Constant Matrix: (Units=GPa)
#
#
# Indices 1 2 3 4 5 6 
#
# 1 89.2231 44.6099 36.5601 0.0000 0.0000 0.0000
# 2 44.6099 121.8756 58.1940 0.0000 0.0000 0.0000
# 3 36.5601 58.1940 133.2917 0.0000 0.0000 0.0000
# 4 0.0000 0.0000 0.0000 32.0033 0.0000 0.0000
# 5 0.0000 0.0000 0.0000 0.0000 23.5843 0.0000
# 6 0.0000 0.0000 0.0000 0.0000 0.0000 27.1437
#
#
#
# Elastic Compliance Matrix: (Units=1/GPa)
#
#
# Indices 1 2 3 4 5 6 
#
# 1 0.014147 -0.004201 -0.002046 0.000000 0.000000 0.000000
# 2 -0.004201 0.011614 -0.003918 0.000000 0.000000 0.000000
# 3 -0.002046 -0.003918 0.009774 0.000000 0.000000 0.000000
# 4 0.000000 0.000000 0.000000 0.031247 0.000000 0.000000
# 5 0.000000 0.000000 0.000000 0.000000 0.042401 0.000000
# 6 0.000000 0.000000 0.000000 0.000000 0.000000 0.036841
#
#
# Mechanical properties :
#
#
# Convention : Reuss Voigt Hill
#
# Bulk Modulus (GPa) = 65.77246 69.23538 67.50392
# Shear Modulus (GPa) = 29.16780 30.21470 29.69125
#
# Velocity S-wave (km/s) = 4.07112 4.14354 4.10749
# Velocity P-wave (km/s) = 7.71185 7.88883 7.80084
#
# Compressibility (1/GPa) = 0.01520393
#
# Stress axis : x y z
#
# Youngs Moduli (GPa) = 70.68763 86.10547 102.31040
#
# Poissons Ratio (x) = 0.36174 0.20934
# Poissons Ratio (y) = 0.29697 0.40086
# Poissons Ratio (z) = 0.14463 0.33737
#
# Static dielectric constant tensor:
#      x y z
#    x 1.595250 0.000000 0.000000 
#    y 0.000000 1.610310 0.000000 
#    z 0.000000 0.000000 1.606410 
# 
# From -- ./inp_files/42175.got.cif
#   From: 2010.05.17/outbox.ucp.g08.bks.cvg/sg63_22_cif.got.tgz:42175.got - 2010.06.11 16:32:19.
