data_PCOD9476620
_publ_section_title
;
Structure prediction by ZEFSAII (Michael W. Deem and Ramdas Pophale) SiO2 
 PCOD9476620
Probable space group: C M C A
;
_chemical_formula_sum "Si O2"
_cell_formula_units_Z 68
_cell_length_a 20.608606
_cell_length_b 20.413303
_cell_length_c 7.905457
_cell_angle_alpha 90.000000
_cell_angle_beta 90.000000
_cell_angle_gamma 90.000000
_cell_volume 3325.744481
_symmetry_space_group_name_H-M "C M C A"
_symmetry_group_IT_number 64
_symmetry_cell_setting 'orthorhombic'
loop_
_space_group_symop_operation_xyz
x,y,z
-x,1/2-y,1/2+z
x,-y,-z
-x,1/2+y,1/2-z
-x,-y,-z
x,1/2+y,1/2-z
-x,y,z
x,1/2-y,1/2+z
1/2+x,1/2+y,z
1/2-x,-y,1/2+z
1/2+x,1/2-y,-z
1/2-x,y,1/2-z
1/2-x,1/2-y,-z
1/2+x,y,1/2-z
1/2-x,1/2+y,z
1/2+x,-y,1/2+z
loop_
_atom_site_type_symbol
_atom_site_label
_atom_site_fract_x
_atom_site_fract_y
_atom_site_fract_z
Si Si1 0.400548 0.116188 0.105611
Si Si2 0.500000 0.216376 0.989204
Si Si3 0.236464 0.075533 0.451488
Si Si4 0.000000 0.351311 0.370349
Si Si5 0.877902 0.578627 0.495991
Si Si6 0.500000 0.000000 0.000000
O O1 0.329591 0.114671 0.020953
O O2 0.392905 0.101802 0.305295
O O3 0.437318 0.184279 0.077471
O O4 0.443930 0.056940 0.032681
O O5 0.500000 0.187674 0.802414
O O6 0.500000 0.294170 0.990677
O O7 0.250000 0.077005 0.250000
O O8 0.303685 0.097794 0.538555
O O9 0.224727 0.000000 0.500000
O O10 0.064485 0.394448 0.388439
O O11 0.879851 0.500000 0.500000
#
# Coordination Sequence:
#
# PCOD9476620 Si02
#       6
#    16   8  16   8  16   4
#     4  10  20  35  56  88 119 150 197 228 289 338
#     4  11  26  39  63  80 113 155 192 248 283 352
#     4   9  18  33  54  84 121 153 186 237 286 340
#     4  12  24  43  58  83 113 150 202 237 298 343
#     4  10  22  36  60  87 122 154 187 243 291 336
#     4  10  18  26  56  78 118 146 184 230 266 324
#
# _framework density 20.446550999999999
#
# number of rings (size 3 to 8) (size 9 to 14) (size 15 to 20)
#    0.000    1.882    1.176    3.176    6.588    1.882 
#    0.000    1.176    0.000    0.000    0.000    0.000 
#    0.000    0.000    0.000    0.000    0.000    0.000 
#
# Total GULP energy -189428.820546 kJ/mol
# GULP energy per Si atom -5571.435898 kJ/mol
# Density = 2.040001 g / cm^3
# Si number density = 20.446551 Si / 1000 Ang^3
#
#
#
# Elastic Constant Matrix: (Units=GPa)
#
#
# Indices 1 2 3 4 5 6 
#
# 1 185.1857 34.0894 16.1158 0.0000 0.0000 0.0000
# 2 34.0894 43.4098 -9.7007 0.0000 0.0000 0.0000
# 3 16.1158 -9.7007 37.2414 0.0000 0.0000 0.0000
# 4 0.0000 0.0000 0.0000 27.9449 0.0000 0.0000
# 5 0.0000 0.0000 0.0000 0.0000 -2.8911 0.0000
# 6 0.0000 0.0000 0.0000 0.0000 0.0000 7.2083
#
#
#
# Elastic Compliance Matrix: (Units=1/GPa)
#
#
# Indices 1 2 3 4 5 6 
#
# 1 0.007025 -0.006579 -0.004753 0.000000 0.000000 0.000000
# 2 -0.006579 0.030621 0.010823 0.000000 0.000000 0.000000
# 3 -0.004753 0.010823 0.031728 0.000000 0.000000 0.000000
# 4 0.000000 0.000000 0.000000 0.035785 0.000000 0.000000
# 5 0.000000 0.000000 0.000000 0.000000 -0.345886 0.000000
# 6 0.000000 0.000000 0.000000 0.000000 0.000000 0.138729
#
#
# Mechanical properties :
#
#
# Convention : Reuss Voigt Hill
#
# Bulk Modulus (GPa) = 14.62939 38.53843 26.58391
# Shear Modulus (GPa) = -63.94263 21.47457 -21.23403
#
# Velocity S-wave (km/s) = -5.59830 3.24432 -3.22609
# Velocity P-wave (km/s) = 5.88366 5.73789 0.92034
#
# Compressibility (1/GPa) = 0.06835555
#
# Stress axis : x y z
#
# Youngs Moduli (GPa) = 142.35541 32.65726 31.51789
#
# Poissons Ratio (x) = 0.21484 0.14982
# Poissons Ratio (y) = 0.93651 -0.34112
# Poissons Ratio (z) = 0.67668 -0.35345
#
# Static dielectric constant tensor:
#      x y z
#    x 1.760500 0.000000 0.000000 
#    y 0.000000 1.677070 0.000000 
#    z 0.000000 0.000000 1.789240 
# 
# From -- ./inp_files/7906.got.cif
#   From: 2010.05.17/outbox.cif.g08.bks.cpg/sg64_4_cif.got.tgz:7906.got - 2010.06.03 16:29:19.
