data_PCOD9476559
_publ_section_title
;
Structure prediction by ZEFSAII (Michael W. Deem and Ramdas Pophale) SiO2 
 PCOD9476559
Probable space group: C M C A
;
_chemical_formula_sum "Si O2"
_cell_formula_units_Z 104
_cell_length_a 16.523275
_cell_length_b 22.704180
_cell_length_c 15.390866
_cell_angle_alpha 90.000000
_cell_angle_beta 90.000000
_cell_angle_gamma 90.000000
_cell_volume 5773.843514
_symmetry_space_group_name_H-M "C M C A"
_symmetry_group_IT_number 64
_symmetry_cell_setting 'orthorhombic'
loop_
_space_group_symop_operation_xyz
x,y,z
-x,1/2-y,1/2+z
x,-y,-z
-x,1/2+y,1/2-z
-x,-y,-z
x,1/2+y,1/2-z
-x,y,z
x,1/2-y,1/2+z
1/2+x,1/2+y,z
1/2-x,-y,1/2+z
1/2+x,1/2-y,-z
1/2-x,y,1/2-z
1/2-x,1/2-y,-z
1/2+x,y,1/2-z
1/2-x,1/2+y,z
1/2+x,-y,1/2+z
loop_
_atom_site_type_symbol
_atom_site_label
_atom_site_fract_x
_atom_site_fract_y
_atom_site_fract_z
Si Si1 0.750000 0.876511 0.250000
Si Si2 0.690082 0.222650 0.626976
Si Si3 0.098089 0.083129 0.330016
Si Si4 0.648063 0.738725 0.055899
Si Si5 0.403547 0.446930 0.313235
Si Si6 0.404615 0.870877 0.015239
Si Si7 0.407014 0.301238 0.762543
O O1 0.732587 0.834001 0.331749
O O2 0.666783 0.912658 0.238297
O O3 0.639078 0.210325 0.539455
O O4 0.760132 0.265607 0.591038
O O5 0.642490 0.254960 0.704104
O O6 0.128329 0.105440 0.423833
O O7 0.121745 0.132770 0.260341
O O8 0.000000 0.082146 0.333746
O O9 0.118976 0.015745 0.311716
O O10 0.597929 0.713177 0.135851
O O11 0.629916 0.807948 0.043121
O O12 0.500000 0.439464 0.287800
O O13 0.397153 0.419793 0.410117
O O14 0.500000 0.860185 0.002868
O O15 0.500000 0.296447 0.734070
#
# Coordination Sequence:
#
# PCOD9476559 Si02
#       7
#     8  16  16  16  16  16  16
#     4  12  22  40  58  88 116 158 202 232 288 368
#     4  11  22  37  55  81 122 150 187 242 293 352
#     4   9  19  35  57  85 115 145 188 246 299 347
#     4  11  21  35  55  83 120 157 181 237 300 355
#     4  10  21  38  59  84 117 153 194 249 296 340
#     4  10  17  32  58  85 112 145 192 246 304 351
#     4  11  21  36  59  85 115 154 197 239 295 359
#
# _framework density 18.012264999999999
#
# number of rings (size 3 to 8) (size 9 to 14) (size 15 to 20)
#    0.000    1.538    4.615    0.923    0.000    4.308 
#    2.769    0.000    0.000    0.000    0.000    3.231 
#    0.000    0.000    0.000    0.000    0.000    0.000 
#
# Total GULP energy -289771.811896 kJ/mol
# GULP energy per Si atom -5572.534844 kJ/mol
# Density = 1.797127 g / cm^3
# Si number density = 18.012265 Si / 1000 Ang^3
#
#
#
# Elastic Constant Matrix: (Units=GPa)
#
#
# Indices 1 2 3 4 5 6 
#
# 1 55.2071 37.7534 23.2450 0.0000 0.0000 0.0000
# 2 37.7534 112.3663 53.0213 0.0000 0.0000 0.0000
# 3 23.2450 53.0213 103.1165 0.0000 0.0000 0.0000
# 4 0.0000 0.0000 0.0000 8.7403 0.0000 0.0000
# 5 0.0000 0.0000 0.0000 0.0000 19.8399 0.0000
# 6 0.0000 0.0000 0.0000 0.0000 0.0000 22.9455
#
#
#
# Elastic Compliance Matrix: (Units=1/GPa)
#
#
# Indices 1 2 3 4 5 6 
#
# 1 0.023728 -0.007194 -0.001650 0.000000 0.000000 0.000000
# 2 -0.007194 0.013931 -0.005542 0.000000 0.000000 0.000000
# 3 -0.001650 -0.005542 0.012919 0.000000 0.000000 0.000000
# 4 0.000000 0.000000 0.000000 0.114412 0.000000 0.000000
# 5 0.000000 0.000000 0.000000 0.000000 0.050403 0.000000
# 6 0.000000 0.000000 0.000000 0.000000 0.000000 0.043582
#
#
# Mechanical properties :
#
#
# Convention : Reuss Voigt Hill
#
# Bulk Modulus (GPa) = 45.85536 55.41435 50.63485
# Shear Modulus (GPa) = 16.94830 20.74982 18.84906
#
# Velocity S-wave (km/s) = 3.07079 3.39777 3.23841
# Velocity P-wave (km/s) = 6.17139 6.79887 6.49272
#
# Compressibility (1/GPa) = 0.02180770
#
# Stress axis : x y z
#
# Youngs Moduli (GPa) = 42.14488 71.78059 77.40419
#
# Poissons Ratio (x) = 0.51636 0.12771
# Poissons Ratio (y) = 0.30317 0.42895
# Poissons Ratio (z) = 0.06954 0.39779
#
# Static dielectric constant tensor:
#      x y z
#    x 1.666360 0.000000 0.000000 
#    y 0.000000 1.610810 0.000000 
#    z 0.000000 0.000000 1.654610 
# 
# From -- ./inp_files/25641.got.cif
#   From: 2010.05.17/outbox.cif.g08.bks.cpg/sg64_13_cif.got.tgz:25641.got - 2010.06.03 16:29:19.
