data_PCOD9476272
_publ_section_title
;
Structure prediction by ZEFSAII (Michael W. Deem and Ramdas Pophale) SiO2 
 PCOD9476272
Probable space group: C M C M
;
_chemical_formula_sum "Si O2"
_cell_formula_units_Z 48
_cell_length_a 24.000000
_cell_length_b 24.000000
_cell_length_c 9.000000
_cell_angle_alpha 90.000000
_cell_angle_beta 90.000000
_cell_angle_gamma 90.000000
_cell_volume 5184.000000
_symmetry_space_group_name_H-M "C M C M"
_symmetry_group_IT_number 63
_symmetry_cell_setting 'orthorhombic'
loop_
_space_group_symop_operation_xyz
x,y,z
-x,-y,1/2+z
x,-y,-z
-x,y,1/2-z
-x,-y,-z
x,y,1/2-z
-x,y,z
x,-y,1/2+z
1/2+x,1/2+y,z
1/2-x,1/2-y,1/2+z
1/2+x,1/2-y,-z
1/2-x,1/2+y,1/2-z
1/2-x,1/2-y,-z
1/2+x,1/2+y,1/2-z
1/2-x,1/2+y,z
1/2+x,1/2-y,1/2+z
loop_
_atom_site_type_symbol
_atom_site_label
_atom_site_fract_x
_atom_site_fract_y
_atom_site_fract_z
Si Si1 0.225189 0.302166 0.925230
Si Si2 0.150458 0.444940 0.572163
Si Si3 0.277754 0.581991 0.073104
Si Si4 0.000000 0.262286 0.072567
Si Si5 0.500000 0.640030 0.928892
Si Si6 0.602267 0.442325 0.428367
Si Si7 0.399057 0.829248 0.929317
O O1 0.220542 0.296576 0.750000
O O2 0.266957 0.352916 0.950186
O O3 0.162133 0.309152 0.977376
O O4 0.250000 0.250000 0.000000
O O5 0.127979 0.500000 0.500000
O O6 0.153917 0.446833 0.750000
O O7 0.215940 0.439196 0.523552
O O8 0.108952 0.394485 0.536586
O O9 0.284019 0.569603 0.250000
O O10 0.334533 0.566036 0.989958
O O11 0.000000 0.260527 0.250000
O O12 0.000000 0.199737 0.007578
O O13 0.946728 0.295939 0.011428
O O14 0.500000 0.647844 0.750000
O O15 0.443553 0.605170 0.965933
O O16 0.582047 0.500000 0.500000
O O17 0.604749 0.446442 0.250000
O O18 0.405842 0.823000 0.750000
#
# Coordination Sequence:
#
# PCOD9476272 Si02
#       7
#    16  16  16   8   8  16  16
#     4   9  19  34  55  82 115 151 189 235 283 337
#     4   9  18  34  58  86 117 153 188 227 281 339
#     4   9  19  35  54  83 120 152 186 230 282 339
#     4  12  26  41  62  89 113 144 194 250 289 330
#     4  10  25  45  61  79 109 152 195 234 288 354
#     4  11  23  39  60  84 112 150 193 237 285 339
#     4   9  20  40  60  80 114 158 190 227 289 349
#
# _framework density 9.2592590000000001
#
# number of rings (size 3 to 8) (size 9 to 14) (size 15 to 20)
#    0.000    2.333    0.000    4.000    2.333    5.333 
#    0.000    3.750    0.000    0.000    0.000    0.000 
#    0.000    0.000    0.000    0.000    0.000    0.000 
#
# Total GULP energy -267301.018958 kJ/mol
# GULP energy per Si atom -5568.771228 kJ/mol
# Density = 0.923818 g / cm^3
# Si number density = 9.259259 Si / 1000 Ang^3
#
#
#
# Elastic Constant Matrix: (Units=GPa)
#
#
# Indices 1 2 3 4 5 6 
#
# 1 91.2563 87.2277 41.2140 0.0000 0.0000 0.0000
# 2 87.2277 112.7603 100.4433 0.0000 0.0000 0.0000
# 3 41.2140 100.4433 15.2165 0.0000 0.0000 0.0000
# 4 0.0000 0.0000 0.0000 31.8501 0.0000 0.0000
# 5 0.0000 0.0000 0.0000 0.0000 18.8475 0.0000
# 6 0.0000 0.0000 0.0000 0.0000 0.0000 943.2627
#
#
#
# Elastic Compliance Matrix: (Units=1/GPa)
#
#
# Indices 1 2 3 4 5 6 
#
# 1 0.023977 -0.008053 -0.011781 0.000000 0.000000 0.000000
# 2 -0.008053 0.000888 0.015953 0.000000 0.000000 0.000000
# 3 -0.011781 0.015953 -0.007678 0.000000 0.000000 0.000000
# 4 0.000000 0.000000 0.000000 0.031397 0.000000 0.000000
# 5 0.000000 0.000000 0.000000 0.000000 0.053057 0.000000
# 6 0.000000 0.000000 0.000000 0.000000 0.000000 0.001060
#
#
# Mechanical properties :
#
#
# Convention : Reuss Voigt Hill
#
# Bulk Modulus (GPa) = 106.11993 75.22256 90.67125
# Shear Modulus (GPa) = 44.01242 198.14860 121.08051
#
# Velocity S-wave (km/s) = 4.88040 10.35531 8.09478
# Velocity P-wave (km/s) = 9.44388 13.55305 11.68058
#
# Compressibility (1/GPa) = 0.00942330
#
# Stress axis : x y z
#
# Youngs Moduli (GPa) = 41.70725 1126.52671 -130.23498
#
# Poissons Ratio (x) = 9.07235 -1.53430
# Poissons Ratio (y) = 0.33588 2.07765
# Poissons Ratio (z) = 0.49135 -17.97160
#
# Static dielectric constant tensor:
#      x y z
#    x 1.623510 0.000000 0.000000 
#    y 0.000000 1.659860 0.000000 
#    z 0.000000 0.000000 1.609610 
# 
# From -- ./inp_files/10518.got.cif
#   From: 2010.05.17/outbox.ucp.g08.bks.cvg/sg63_6_cif.got.tgz:10518.got - 2010.06.11 16:32:19.
