data_PCOD9476095
_publ_section_title
;
Structure prediction by ZEFSAII (Michael W. Deem and Ramdas Pophale) SiO2 
 PCOD9476095
Probable space group: C M C M
;
_chemical_formula_sum "Si O2"
_cell_formula_units_Z 40
_cell_length_a 21.000000
_cell_length_b 24.000000
_cell_length_c 9.000000
_cell_angle_alpha 90.000000
_cell_angle_beta 90.000000
_cell_angle_gamma 90.000000
_cell_volume 4536.000000
_symmetry_space_group_name_H-M "C M C M"
_symmetry_group_IT_number 63
_symmetry_cell_setting 'orthorhombic'
loop_
_space_group_symop_operation_xyz
x,y,z
-x,-y,1/2+z
x,-y,-z
-x,y,1/2-z
-x,-y,-z
x,y,1/2-z
-x,y,z
x,-y,1/2+z
1/2+x,1/2+y,z
1/2-x,1/2-y,1/2+z
1/2+x,1/2-y,-z
1/2-x,1/2+y,1/2-z
1/2-x,1/2-y,-z
1/2+x,1/2+y,1/2-z
1/2-x,1/2+y,z
1/2+x,1/2-y,1/2+z
loop_
_atom_site_type_symbol
_atom_site_label
_atom_site_fract_x
_atom_site_fract_y
_atom_site_fract_z
Si Si1 0.500000 0.734356 0.922667
Si Si2 0.850148 0.252220 0.922833
Si Si3 0.741987 0.445614 0.573766
Si Si4 0.243485 0.335149 0.077133
Si Si5 0.897135 0.944077 0.072382
Si Si6 0.000000 0.126786 0.420348
O O1 0.500000 0.711998 0.750000
O O2 0.427055 0.758359 0.935438
O O3 0.500000 0.692055 0.059067
O O4 0.834518 0.266201 0.750000
O O5 0.814280 0.192119 0.945619
O O6 0.810341 0.290254 0.035697
O O7 0.773495 0.500000 0.500000
O O8 0.735370 0.452564 0.750000
O O9 0.771446 0.387116 0.528508
O O10 0.673305 0.441138 0.493810
O O11 0.240289 0.351539 0.250000
O O12 0.896743 0.946275 0.250000
O O13 0.939238 0.894856 0.009551
O O14 0.925511 0.000000 0.000000
O O15 0.000000 0.108465 0.250000
#
# Coordination Sequence:
#
# PCOD9476095 Si02
#       6
#     8  16  16  16  16   8
#     4  10  20  35  53  74 101 133 171 214 259 306
#     4   9  19  34  53  76 103 137 175 216 261 308
#     4  11  21  34  52  75 102 131 167 210 257 307
#     4  10  19  33  53  77 106 139 175 214 259 309
#     4  11  21  34  48  65  92 127 168 210 253 297
#     4  12  23  33  46  66  93 129 171 210 251 298
#
# _framework density 8.8183419999999995
#
# number of rings (size 3 to 8) (size 9 to 14) (size 15 to 20)
#    0.000    1.600    0.000    7.800    0.000    3.200 
#    0.000    0.000    0.000    0.000    0.000    0.700 
#    0.000    0.000    0.000    0.000    0.000    0.000 
#
# Total GULP energy -222724.953149 kJ/mol
# GULP energy per Si atom -5568.123829 kJ/mol
# Density = 0.879827 g / cm^3
# Si number density = 8.818342 Si / 1000 Ang^3
#
#
#
# Elastic Constant Matrix: (Units=GPa)
#
#
# Indices 1 2 3 4 5 6 
#
# 1 66.9692 8.1812 13.8729 0.0000 0.0000 0.0000
# 2 8.1812 53.0159 34.2125 0.0000 0.0000 0.0000
# 3 13.8729 34.2125 137.3269 0.0000 0.0000 0.0000
# 4 0.0000 0.0000 0.0000 29.3001 0.0000 0.0000
# 5 0.0000 0.0000 0.0000 0.0000 49.2466 0.0000
# 6 0.0000 0.0000 0.0000 0.0000 0.0000 21.2359
#
#
#
# Elastic Compliance Matrix: (Units=1/GPa)
#
#
# Indices 1 2 3 4 5 6 
#
# 1 0.015369 -0.001632 -0.001146 0.000000 0.000000 0.000000
# 2 -0.001632 0.022649 -0.005478 0.000000 0.000000 0.000000
# 3 -0.001146 -0.005478 0.008762 0.000000 0.000000 0.000000
# 4 0.000000 0.000000 0.000000 0.034130 0.000000 0.000000
# 5 0.000000 0.000000 0.000000 0.000000 0.020306 0.000000
# 6 0.000000 0.000000 0.000000 0.000000 0.000000 0.047090
#
#
# Mechanical properties :
#
#
# Convention : Reuss Voigt Hill
#
# Bulk Modulus (GPa) = 33.03744 41.09393 37.06568
# Shear Modulus (GPa) = 28.58656 33.35954 30.97305
#
# Velocity S-wave (km/s) = 4.03036 4.35384 4.19522
# Velocity P-wave (km/s) = 6.35856 6.97319 6.67295
#
# Compressibility (1/GPa) = 0.03026869
#
# Stress axis : x y z
#
# Youngs Moduli (GPa) = 65.06598 44.15193 114.12476
#
# Poissons Ratio (x) = 0.07206 0.13078
# Poissons Ratio (y) = 0.10620 0.62514
# Poissons Ratio (z) = 0.07456 0.24185
#
# Static dielectric constant tensor:
#      x y z
#    x 1.638190 0.000000 0.000000 
#    y 0.000000 1.753740 0.000000 
#    z 0.000000 0.000000 1.588640 
# 
# From -- ./inp_files/8116.got.cif
#   From: 2010.05.17/outbox.ucp.g08.bks.cvg/sg63_5_cif.got.tgz:8116.got - 2010.06.11 16:32:19.
