data_PCOD9476992
_publ_section_title
;
Structure prediction by ZEFSAII (Michael W. Deem and Ramdas Pophale) SiO2 
 PCOD9476992
Probable space group: C M C A
;
_chemical_formula_sum "Si O2"
_cell_formula_units_Z 72
_cell_length_a 19.872240
_cell_length_b 10.606612
_cell_length_c 13.982911
_cell_angle_alpha 90.000000
_cell_angle_beta 90.000000
_cell_angle_gamma 90.000000
_cell_volume 2947.277979
_symmetry_space_group_name_H-M "C M C A"
_symmetry_group_IT_number 64
_symmetry_cell_setting 'orthorhombic'
loop_
_space_group_symop_operation_xyz
x,y,z
-x,1/2-y,1/2+z
x,-y,-z
-x,1/2+y,1/2-z
-x,-y,-z
x,1/2+y,1/2-z
-x,y,z
x,1/2-y,1/2+z
1/2+x,1/2+y,z
1/2-x,-y,1/2+z
1/2+x,1/2-y,-z
1/2-x,y,1/2-z
1/2-x,1/2-y,-z
1/2+x,y,1/2-z
1/2-x,1/2+y,z
1/2+x,-y,1/2+z
loop_
_atom_site_type_symbol
_atom_site_label
_atom_site_fract_x
_atom_site_fract_y
_atom_site_fract_z
Si Si1 0.500000 0.703288 0.912233
Si Si2 0.645402 0.285632 0.058988
Si Si3 0.500000 0.345373 0.785233
Si Si4 0.213211 0.105334 0.583991
Si Si5 0.000000 0.623988 0.923029
Si Si6 0.386767 0.035802 0.179628
O O1 0.572492 0.647749 0.941068
O O2 0.500000 0.740433 0.800421
O O3 0.500000 0.839758 0.966497
O O4 0.708683 0.364476 0.094273
O O5 0.633568 0.167452 0.130413
O O6 0.672187 0.225798 0.958610
O O7 0.500000 0.262879 0.878138
O O8 0.566421 0.429233 0.768963
O O9 0.207061 0.000000 0.500000
O O10 0.179253 0.049688 0.678956
O O11 0.064644 0.548966 0.887486
#
# Coordination Sequence:
#
# PCOD9476992 Si02
#       6
#     8  16   8  16   8  16
#     4  10  18  33  59  85 118 156 195 268 314 382
#     4   9  17  28  54  95 114 145 205 251 312 400
#     4   9  21  32  58  96 117 148 216 256 308 387
#     4   9  16  29  53  89 123 151 196 255 316 380
#     4  11  19  34  62  89 120 158 204 268 328 370
#     4   9  18  33  60  81 116 156 199 261 313 376
#
# _framework density 24.429321999999999
#
# number of rings (size 3 to 8) (size 9 to 14) (size 15 to 20)
#    0.000    2.667    2.222    0.667    3.111    1.778 
#    0.000    0.556   19.556   10.667    0.000    0.000 
#    0.000    0.000    0.000    0.889    0.000    0.000 
#
# Total GULP energy -200971.374341 kJ/mol
# GULP energy per Si atom -5582.538176 kJ/mol
# Density = 2.437372 g / cm^3
# Si number density = 24.429322 Si / 1000 Ang^3
#
#
#
# Elastic Constant Matrix: (Units=GPa)
#
#
# Indices 1 2 3 4 5 6 
#
# 1 233.1454 49.1732 30.0981 0.0000 0.0000 0.0000
# 2 49.1732 57.6720 24.6850 0.0000 0.0000 0.0000
# 3 30.0981 24.6850 50.1655 0.0000 0.0000 0.0000
# 4 0.0000 0.0000 0.0000 38.3809 0.0000 0.0000
# 5 0.0000 0.0000 0.0000 0.0000 -0.4948 0.0000
# 6 0.0000 0.0000 0.0000 0.0000 0.0000 61.0406
#
#
#
# Elastic Compliance Matrix: (Units=1/GPa)
#
#
# Indices 1 2 3 4 5 6 
#
# 1 0.005287 -0.003991 -0.001208 0.000000 0.000000 0.000000
# 2 -0.003991 0.024978 -0.009897 0.000000 0.000000 0.000000
# 3 -0.001208 -0.009897 0.025529 0.000000 0.000000 0.000000
# 4 0.000000 0.000000 0.000000 0.026055 0.000000 0.000000
# 5 0.000000 0.000000 0.000000 0.000000 -2.020887 0.000000
# 6 0.000000 0.000000 0.000000 0.000000 0.000000 0.016383
#
#
# Mechanical properties :
#
#
# Convention : Reuss Voigt Hill
#
# Bulk Modulus (GPa) = 39.05870 60.98839 50.02354
# Shear Modulus (GPa) = -2.65403 35.58711 16.46654
#
# Velocity S-wave (km/s) = -1.04344 3.82086 2.59906
# Velocity P-wave (km/s) = 3.81726 6.66969 5.43398
#
# Compressibility (1/GPa) = 0.02560249
#
# Stress axis : x y z
#
# Youngs Moduli (GPa) = 189.14991 40.03535 39.17140
#
# Poissons Ratio (x) = 0.15976 0.04733
# Poissons Ratio (y) = 0.75481 0.38767
# Poissons Ratio (z) = 0.22856 0.39622
#
# Static dielectric constant tensor:
#      x y z
#    x 2.013670 0.000000 0.000000 
#    y 0.000000 1.961750 0.000000 
#    z 0.000000 0.000000 1.943880 
# 
# From -- ./inp_files/32886.got.cif
#   From: 2010.05.17/outbox.cif.g08.bks.cpg/sg64_17_cif.got.tgz:32886.got - 2010.06.03 16:29:19.
