data_PCOD9476104
_publ_section_title
;
Structure prediction by ZEFSAII (Michael W. Deem and Ramdas Pophale) SiO2 
 PCOD9476104
Probable space group: C M C M
;
_chemical_formula_sum "Si O2"
_cell_formula_units_Z 58
_cell_length_a 24.000000
_cell_length_b 30.000000
_cell_length_c 9.000000
_cell_angle_alpha 90.000000
_cell_angle_beta 90.000000
_cell_angle_gamma 90.000000
_cell_volume 6480.000000
_symmetry_space_group_name_H-M "C M C M"
_symmetry_group_IT_number 63
_symmetry_cell_setting 'orthorhombic'
loop_
_space_group_symop_operation_xyz
x,y,z
-x,-y,1/2+z
x,-y,-z
-x,y,1/2-z
-x,-y,-z
x,y,1/2-z
-x,y,z
x,-y,1/2+z
1/2+x,1/2+y,z
1/2-x,1/2-y,1/2+z
1/2+x,1/2-y,-z
1/2-x,1/2+y,1/2-z
1/2-x,1/2-y,-z
1/2+x,1/2+y,1/2-z
1/2-x,1/2+y,z
1/2+x,1/2-y,1/2+z
loop_
_atom_site_type_symbol
_atom_site_label
_atom_site_fract_x
_atom_site_fract_y
_atom_site_fract_z
Si Si1 0.563242 0.802091 0.921381
Si Si2 0.392419 0.545068 0.415276
Si Si3 0.564396 0.102810 0.927525
Si Si4 0.666136 0.048208 0.429093
Si Si5 0.781680 0.918848 0.075424
Si Si6 0.339739 0.241600 0.922882
Si Si7 0.732217 0.313272 0.420636
Si Si8 0.500000 0.423969 0.750000
O O1 0.573530 0.814872 0.750000
O O2 0.500000 0.785541 0.932351
O O3 0.568208 0.845586 0.024296
O O4 0.607049 0.766186 0.976366
O O5 0.408746 0.500000 0.500000
O O6 0.370425 0.533307 0.250000
O O7 0.340641 0.566715 0.503432
O O8 0.449147 0.572445 0.378150
O O9 0.571540 0.098164 0.750000
O O10 0.500000 0.088490 0.964248
O O11 0.614552 0.078105 0.011808
O O12 0.666635 0.047554 0.250000
O O13 0.726930 0.063150 0.490396
O O14 0.656056 0.000000 0.500000
O O15 0.779405 0.932072 0.250000
O O16 0.776961 0.865419 0.067675
O O17 0.354688 0.242221 0.750000
O O18 0.295899 0.201300 0.949273
O O19 0.306598 0.285670 0.969347
O O20 0.720393 0.298995 0.250000
#
# Coordination Sequence:
#
# PCOD9476104 Si02
#       8
#    16  16  16  16  16  16  16   4
#     4  10  20  34  55  82 113 149 188 231 276 328
#     4  10  20  36  58  85 112 144 183 227 278 332
#     4  10  21  38  59  84 115 153 197 243 287 335
#     4  12  25  40  59  83 116 154 194 239 288 343
#     4  11  22  38  59  85 117 150 187 231 289 342
#     4  10  19  33  56  83 109 140 185 230 279 326
#     4   9  20  36  55  79 110 145 178 224 274 334
#     4   8  22  36  62  84 114 144 180 236 274 332
#
# _framework density 8.9506169999999994
#
# number of rings (size 3 to 8) (size 9 to 14) (size 15 to 20)
#    0.414    1.379    0.000    4.759    0.000    4.690 
#    0.000    0.000    1.517    0.000    0.000    0.000 
#    0.000    0.000    0.000    0.000    0.000    0.000 
#
# Total GULP energy -322898.734730 kJ/mol
# GULP energy per Si atom -5567.219564 kJ/mol
# Density = 0.893025 g / cm^3
# Si number density = 8.950617 Si / 1000 Ang^3
#
#
#
# Elastic Constant Matrix: (Units=GPa)
#
#
# Indices 1 2 3 4 5 6 
#
# 1 99.8012 4.0626 51.2924 0.0000 0.0000 0.0000
# 2 4.0626 10.1535 11.2486 0.0000 0.0000 0.0000
# 3 51.2924 11.2486 112.5573 0.0000 0.0000 0.0000
# 4 0.0000 0.0000 0.0000 22.7571 0.0000 0.0000
# 5 0.0000 0.0000 0.0000 0.0000 39.2078 0.0000
# 6 0.0000 0.0000 0.0000 0.0000 0.0000 12.2629
#
#
#
# Elastic Compliance Matrix: (Units=1/GPa)
#
#
# Indices 1 2 3 4 5 6 
#
# 1 0.013106 0.001543 -0.006127 0.000000 0.000000 0.000000
# 2 0.001543 0.110932 -0.011789 0.000000 0.000000 0.000000
# 3 -0.006127 -0.011789 0.012854 0.000000 0.000000 0.000000
# 4 0.000000 0.000000 0.000000 0.043942 0.000000 0.000000
# 5 0.000000 0.000000 0.000000 0.000000 0.025505 0.000000
# 6 0.000000 0.000000 0.000000 0.000000 0.000000 0.081547
#
#
# Mechanical properties :
#
#
# Convention : Reuss Voigt Hill
#
# Bulk Modulus (GPa) = 9.60185 39.52437 24.56311
# Shear Modulus (GPa) = 14.07075 25.23944 19.65510
#
# Velocity S-wave (km/s) = 2.80665 3.75897 3.31716
# Velocity P-wave (km/s) = 3.98478 6.40054 5.33129
#
# Compressibility (1/GPa) = 0.10414664
#
# Stress axis : x y z
#
# Youngs Moduli (GPa) = 76.30199 9.01456 77.79413
#
# Poissons Ratio (x) = -0.01391 0.47661
# Poissons Ratio (y) = -0.11777 0.91715
# Poissons Ratio (z) = 0.46747 0.10628
#
# Static dielectric constant tensor:
#      x y z
#    x 1.609120 0.000000 0.000000 
#    y 0.000000 1.606950 0.000000 
#    z 0.000000 0.000000 1.629430 
# 
# From -- ./inp_files/10918.got.cif
#   From: 2010.05.17/outbox.ucp.g08.bks.cvg/sg63_6_cif.got.tgz:10918.got - 2010.06.11 16:32:19.
