data_PCOD9476552
_publ_section_title
;
Structure prediction by ZEFSAII (Michael W. Deem and Ramdas Pophale) SiO2 
 PCOD9476552
Probable space group: C M C A
;
_chemical_formula_sum "Si O2"
_cell_formula_units_Z 88
_cell_length_a 33.231942
_cell_length_b 26.239411
_cell_length_c 4.988325
_cell_angle_alpha 90.000000
_cell_angle_beta 90.000000
_cell_angle_gamma 90.000000
_cell_volume 4349.752479
_symmetry_space_group_name_H-M "C M C A"
_symmetry_group_IT_number 64
_symmetry_cell_setting 'orthorhombic'
loop_
_space_group_symop_operation_xyz
x,y,z
-x,1/2-y,1/2+z
x,-y,-z
-x,1/2+y,1/2-z
-x,-y,-z
x,1/2+y,1/2-z
-x,y,z
x,1/2-y,1/2+z
1/2+x,1/2+y,z
1/2-x,-y,1/2+z
1/2+x,1/2-y,-z
1/2-x,y,1/2-z
1/2-x,1/2-y,-z
1/2+x,y,1/2-z
1/2-x,1/2+y,z
1/2+x,-y,1/2+z
loop_
_atom_site_type_symbol
_atom_site_label
_atom_site_fract_x
_atom_site_fract_y
_atom_site_fract_z
Si Si1 0.000000 0.781711 0.346520
Si Si2 0.939093 0.865338 0.398719
Si Si3 0.701590 0.283283 0.261580
Si Si4 0.364530 0.449933 0.841728
Si Si5 0.650860 0.117291 0.850051
Si Si6 0.044644 0.430004 0.613855
O O1 0.961416 0.816225 0.292238
O O2 0.000000 0.765917 0.653885
O O3 0.891836 0.857953 0.424591
O O4 0.955130 0.881876 0.687289
O O5 0.948993 0.910942 0.189888
O O6 0.689444 0.239900 0.475552
O O7 0.750000 0.287799 0.250000
O O8 0.683531 0.338111 0.339955
O O9 0.345482 0.429741 0.563014
O O10 0.413198 0.457081 0.802947
O O11 0.349772 0.500000 0.000000
O O12 0.355843 0.405276 0.054171
O O13 0.000000 0.453592 0.645588
#
# Coordination Sequence:
#
# PCOD9476552 Si02
#       6
#     8  16  16  16  16  16
#     4  12  22  30  44  66  95 134 181 230 278 326
#     4  10  20  33  47  69  99 142 185 224 276 339
#     4  10  21  38  63  93 119 143 183 236 288 348
#     4  10  21  35  55  85 114 151 198 236 283 343
#     4  10  21  37  59  81 115 155 183 235 294 340
#     4  10  17  32  53  67  99 141 184 238 283 321
#
# _framework density 20.231038000000002
#
# number of rings (size 3 to 8) (size 9 to 14) (size 15 to 20)
#    0.000    1.818    1.818    2.727    0.000    1.818 
#    0.000    0.000    0.000    8.727    0.000    0.000 
#    0.000    0.000    0.000    0.000    0.000    0.000 
#
# Total GULP energy -245266.763995 kJ/mol
# GULP energy per Si atom -5574.244636 kJ/mol
# Density = 2.018499 g / cm^3
# Si number density = 20.231038 Si / 1000 Ang^3
#
#
#
# Elastic Constant Matrix: (Units=GPa)
#
#
# Indices 1 2 3 4 5 6 
#
# 1 46.1167 23.1973 15.5432 0.0000 0.0000 0.0000
# 2 23.1973 52.6331 2.9407 0.0000 0.0000 0.0000
# 3 15.5432 2.9407 93.1977 0.0000 0.0000 0.0000
# 4 0.0000 0.0000 0.0000 31.0063 0.0000 0.0000
# 5 0.0000 0.0000 0.0000 0.0000 17.4678 0.0000
# 6 0.0000 0.0000 0.0000 0.0000 0.0000 23.7860
#
#
#
# Elastic Compliance Matrix: (Units=1/GPa)
#
#
# Indices 1 2 3 4 5 6 
#
# 1 0.029664 -0.012820 -0.004543 0.000000 0.000000 0.000000
# 2 -0.012820 0.024574 0.001363 0.000000 0.000000 0.000000
# 3 -0.004543 0.001363 0.011444 0.000000 0.000000 0.000000
# 4 0.000000 0.000000 0.000000 0.032252 0.000000 0.000000
# 5 0.000000 0.000000 0.000000 0.000000 0.057248 0.000000
# 6 0.000000 0.000000 0.000000 0.000000 0.000000 0.042042
#
#
# Mechanical properties :
#
#
# Convention : Reuss Voigt Hill
#
# Bulk Modulus (GPa) = 29.68969 30.58998 30.13983
# Shear Modulus (GPa) = 20.79427 24.46977 22.63202
#
# Velocity S-wave (km/s) = 3.20947 3.48158 3.34829
# Velocity P-wave (km/s) = 5.33305 5.59598 5.46610
#
# Compressibility (1/GPa) = 0.03368173
#
# Stress axis : x y z
#
# Youngs Moduli (GPa) = 33.71102 40.69408 87.37828
#
# Poissons Ratio (x) = 0.52170 0.39693
# Poissons Ratio (y) = 0.43218 -0.11907
# Poissons Ratio (z) = 0.15314 -0.05545
#
# Static dielectric constant tensor:
#      x y z
#    x 1.718240 0.000000 0.000000 
#    y 0.000000 1.723220 0.000000 
#    z 0.000000 0.000000 1.724970 
# 
# From -- ./inp_files/3306.got.cif
#   From: 2010.05.17/outbox.cif.g08.bks.cpg/sg64_2_cif.got.tgz:3306.got - 2010.06.03 16:29:19.
