data_PCOD9476145
_publ_section_title
;
Structure prediction by ZEFSAII (Michael W. Deem and Ramdas Pophale) SiO2 
 PCOD9476145
Probable space group: C M C M
;
_chemical_formula_sum "Si O2"
_cell_formula_units_Z 40
_cell_length_a 27.000000
_cell_length_b 18.000000
_cell_length_c 9.000000
_cell_angle_alpha 90.000000
_cell_angle_beta 90.000000
_cell_angle_gamma 90.000000
_cell_volume 4374.000000
_symmetry_space_group_name_H-M "C M C M"
_symmetry_group_IT_number 63
_symmetry_cell_setting 'orthorhombic'
loop_
_space_group_symop_operation_xyz
x,y,z
-x,-y,1/2+z
x,-y,-z
-x,y,1/2-z
-x,-y,-z
x,y,1/2-z
-x,y,z
x,-y,1/2+z
1/2+x,1/2+y,z
1/2-x,1/2-y,1/2+z
1/2+x,1/2-y,-z
1/2-x,1/2+y,1/2-z
1/2-x,1/2-y,-z
1/2+x,1/2+y,1/2-z
1/2-x,1/2+y,z
1/2+x,1/2-y,1/2+z
loop_
_atom_site_type_symbol
_atom_site_label
_atom_site_fract_x
_atom_site_fract_y
_atom_site_fract_z
Si Si1 0.059747 0.574334 0.080481
Si Si2 0.406892 0.777506 0.424204
Si Si3 0.701426 0.718100 0.074505
Si Si4 0.659376 0.426722 0.072863
Si Si5 0.554129 0.629801 0.571039
O O1 0.077309 0.578577 0.250000
O O2 0.000000 0.572815 0.083338
O O3 0.077231 0.500000 0.000000
O O4 0.076215 0.644896 0.988178
O O5 0.417889 0.770534 0.250000
O O6 0.347954 0.767632 0.444637
O O7 0.435016 0.711950 0.510396
O O8 0.708419 0.706496 0.250000
O O9 0.750000 0.750000 0.000000
O O10 0.688064 0.642707 0.991342
O O11 0.661290 0.428918 0.250000
O O12 0.601882 0.416951 0.024227
O O13 0.680112 0.500000 0.000000
O O14 0.554079 0.631930 0.750000
O O15 0.500000 0.603781 0.520066
#
# Coordination Sequence:
#
# PCOD9476145 Si02
#       5
#    16  16  16  16  16
#     4  10  20  33  50  73 103 139 175 211 254 304
#     4  10  20  33  51  76 104 133 169 214 260 308
#     4  10  21  38  59  81 104 133 172 216 263 313
#     4  10  20  35  55  79 109 142 175 214 259 305
#     4   9  18  32  50  74 105 142 180 213 249 298
#
# _framework density 9.1449470000000002
#
# number of rings (size 3 to 8) (size 9 to 14) (size 15 to 20)
#    0.000    2.200    0.000    3.000    0.000    7.600 
#    0.000    1.000    0.000    4.800    0.000    0.000 
#    0.000    0.000    0.000    0.000    0.000    0.000 
#
# Total GULP energy -223107.507594 kJ/mol
# GULP energy per Si atom -5577.687690 kJ/mol
# Density = 0.912413 g / cm^3
# Si number density = 9.144947 Si / 1000 Ang^3
#
#
#
# Elastic Constant Matrix: (Units=GPa)
#
#
# Indices 1 2 3 4 5 6 
#
# 1 64.4486 16.9855 27.6484 0.0000 0.0000 0.0000
# 2 16.9855 83.4393 5.3191 0.0000 0.0000 0.0000
# 3 27.6484 5.3191 -5.9938 0.0000 0.0000 0.0000
# 4 0.0000 0.0000 0.0000 20.9208 0.0000 0.0000
# 5 0.0000 0.0000 0.0000 0.0000 21.6213 0.0000
# 6 0.0000 0.0000 0.0000 0.0000 0.0000 -37.3079
#
#
#
# Elastic Compliance Matrix: (Units=1/GPa)
#
#
# Indices 1 2 3 4 5 6 
#
# 1 0.005799 -0.002731 0.024328 0.000000 0.000000 0.000000
# 2 -0.002731 0.012630 -0.001392 0.000000 0.000000 0.000000
# 3 0.024328 -0.001392 -0.055854 0.000000 0.000000 0.000000
# 4 0.000000 0.000000 0.000000 0.047799 0.000000 0.000000
# 5 0.000000 0.000000 0.000000 0.000000 0.046251 0.000000
# 6 0.000000 0.000000 0.000000 0.000000 0.000000 -0.026804
#
#
# Mechanical properties :
#
#
# Convention : Reuss Voigt Hill
#
# Bulk Modulus (GPa) = 335.03538 26.86668 180.95103
# Shear Modulus (GPa) = -521.21369 7.17625 -257.01872
#
# Velocity S-wave (km/s) = -16.89947 1.98296 -11.86718
# Velocity P-wave (km/s) = 14.04320 4.46812 9.41401
#
# Compressibility (1/GPa) = 0.00298476
#
# Stress axis : x y z
#
# Youngs Moduli (GPa) = 172.42943 79.17962 -17.90396
#
# Poissons Ratio (x) = 0.21627 0.43557
# Poissons Ratio (y) = 0.47098 -0.02492
# Poissons Ratio (z) = -4.19485 0.11020
#
# Static dielectric constant tensor:
#      x y z
#    x 1.572920 0.000000 0.000000 
#    y 0.000000 1.394820 0.000000 
#    z 0.000000 0.000000 1.616440 
# 
# From -- ./inp_files/11980.got.cif
#   From: 2010.05.17/outbox.ucp.g08.bks.cvg/sg63_6_cif.got.tgz:11980.got - 2010.06.11 16:32:19.
