data_PCOD9476168
_publ_section_title
;
Structure prediction by ZEFSAII (Michael W. Deem and Ramdas Pophale) SiO2 
 PCOD9476168
Probable space group: C M C M
;
_chemical_formula_sum "Si O2"
_cell_formula_units_Z 48
_cell_length_a 9.000000
_cell_length_b 24.000000
_cell_length_c 24.000000
_cell_angle_alpha 90.000000
_cell_angle_beta 90.000000
_cell_angle_gamma 90.000000
_cell_volume 5184.000000
_symmetry_space_group_name_H-M "C M C M"
_symmetry_group_IT_number 63
_symmetry_cell_setting 'orthorhombic'
loop_
_space_group_symop_operation_xyz
x,y,z
-x,-y,1/2+z
x,-y,-z
-x,y,1/2-z
-x,-y,-z
x,y,1/2-z
-x,y,z
x,-y,1/2+z
1/2+x,1/2+y,z
1/2-x,1/2-y,1/2+z
1/2+x,1/2-y,-z
1/2-x,1/2+y,1/2-z
1/2-x,1/2-y,-z
1/2+x,1/2+y,1/2-z
1/2-x,1/2+y,z
1/2+x,1/2-y,1/2+z
loop_
_atom_site_type_symbol
_atom_site_label
_atom_site_fract_x
_atom_site_fract_y
_atom_site_fract_z
Si Si1 0.827394 0.991877 0.066277
Si Si2 0.829684 0.615564 0.889272
Si Si3 0.678166 0.695400 0.187029
Si Si4 0.320653 0.385127 0.909076
Si Si5 0.834265 0.193046 0.683406
Si Si6 0.673421 0.190257 0.502584
O O1 0.726595 0.941687 0.085449
O O2 0.000000 0.980385 0.080522
O O3 0.779589 0.050482 0.092016
O O4 0.820079 0.000000 0.000000
O O5 0.730021 0.635890 0.838797
O O6 0.000000 0.612103 0.872424
O O7 0.814335 0.662595 0.936800
O O8 0.732244 0.687241 0.250000
O O9 0.500000 0.696673 0.187855
O O10 0.725834 0.646760 0.146378
O O11 0.734524 0.754761 0.165804
O O12 0.500000 0.382664 0.914786
O O13 0.250328 0.352392 0.960326
O O14 0.835157 0.192644 0.750000
O O15 0.000000 0.201793 0.662169
O O16 0.500000 0.195894 0.488806
O O17 0.750000 0.250000 0.500000
#
# Coordination Sequence:
#
# PCOD9476168 Si02
#       6
#    16  16  16  16  16  16
#     4  10  20  36  57  79 108 148 188 229 274 322
#     4  11  23  37  55  80 110 144 183 226 274 330
#     4   9  18  34  56  81 110 142 176 219 272 327
#     4  10  20  35  55  79 107 142 184 224 270 326
#     4  10  21  37  58  83 110 142 181 224 271 325
#     4  11  23  35  51  78 110 141 176 222 275 328
#
# _framework density 9.2592590000000001
#
# number of rings (size 3 to 8) (size 9 to 14) (size 15 to 20)
#    0.000    1.833    1.667    2.500    0.000    8.667 
#    0.000    0.833    0.000    3.000    0.000    0.000 
#    0.000    0.000    0.000    0.000    0.000    0.000 
#
# Total GULP energy -267846.363439 kJ/mol
# GULP energy per Si atom -5580.132572 kJ/mol
# Density = 0.923818 g / cm^3
# Si number density = 9.259259 Si / 1000 Ang^3
#
#
#
# Elastic Constant Matrix: (Units=GPa)
#
#
# Indices 1 2 3 4 5 6 
#
# 1 -1.9111 13.6895 23.1273 0.0000 0.0000 0.0000
# 2 13.6895 65.6028 21.1684 0.0000 0.0000 0.0000
# 3 23.1273 21.1684 33.9499 0.0000 0.0000 0.0000
# 4 0.0000 0.0000 0.0000 12.0139 0.0000 0.0000
# 5 0.0000 0.0000 0.0000 0.0000 17.9517 0.0000
# 6 0.0000 0.0000 0.0000 0.0000 0.0000 6.9565
#
#
#
# Elastic Compliance Matrix: (Units=1/GPa)
#
#
# Indices 1 2 3 4 5 6 
#
# 1 -0.056573 -0.000789 0.039031 0.000000 0.000000 0.000000
# 2 -0.000789 0.019072 -0.011354 0.000000 0.000000 0.000000
# 3 0.039031 -0.011354 0.009946 0.000000 0.000000 0.000000
# 4 0.000000 0.000000 0.000000 0.083237 0.000000 0.000000
# 5 0.000000 0.000000 0.000000 0.000000 0.055705 0.000000
# 6 0.000000 0.000000 0.000000 0.000000 0.000000 0.143751
#
#
# Mechanical properties :
#
#
# Convention : Reuss Voigt Hill
#
# Bulk Modulus (GPa) = 38.13898 23.73467 30.93683
# Shear Modulus (GPa) = 23.79807 10.02818 16.91313
#
# Velocity S-wave (km/s) = 3.58871 2.32959 3.02538
# Velocity P-wave (km/s) = 6.14911 4.48113 5.38015
#
# Compressibility (1/GPa) = 0.02621989
#
# Stress axis : x y z
#
# Youngs Moduli (GPa) = -17.67614 52.43411 100.54334
#
# Poissons Ratio (x) = 0.04137 -3.92430
# Poissons Ratio (y) = -0.01395 1.14157
# Poissons Ratio (z) = 0.68992 0.59534
#
# Static dielectric constant tensor:
#      x y z
#    x 1.645740 0.000000 0.000000 
#    y 0.000000 1.602210 0.000000 
#    z 0.000000 0.000000 1.676210 
# 
# From -- ./inp_files/59844.got.cif
#   From: 2010.05.17/outbox.ucp.g08.bks.cvg/sg63_30_cif.got.tgz:59844.got - 2010.06.11 16:32:19.
