data_PCOD9476375
_publ_section_title
;
Structure prediction by ZEFSAII (Michael W. Deem and Ramdas Pophale) SiO2 
 PCOD9476375
Probable space group: C M C A
;
_chemical_formula_sum "Si O2"
_cell_formula_units_Z 96
_cell_length_a 16.586025
_cell_length_b 12.597613
_cell_length_c 20.049674
_cell_angle_alpha 90.000000
_cell_angle_beta 90.000000
_cell_angle_gamma 90.000000
_cell_volume 4189.265584
_symmetry_space_group_name_H-M "C M C A"
_symmetry_group_IT_number 64
_symmetry_cell_setting 'orthorhombic'
loop_
_space_group_symop_operation_xyz
x,y,z
-x,1/2-y,1/2+z
x,-y,-z
-x,1/2+y,1/2-z
-x,-y,-z
x,1/2+y,1/2-z
-x,y,z
x,1/2-y,1/2+z
1/2+x,1/2+y,z
1/2-x,-y,1/2+z
1/2+x,1/2-y,-z
1/2-x,y,1/2-z
1/2-x,1/2-y,-z
1/2+x,y,1/2-z
1/2-x,1/2+y,z
1/2+x,-y,1/2+z
loop_
_atom_site_type_symbol
_atom_site_label
_atom_site_fract_x
_atom_site_fract_y
_atom_site_fract_z
Si Si1 0.097618 0.478888 0.245943
Si Si2 0.318823 0.816656 0.349715
Si Si3 0.836023 0.675091 0.321665
Si Si4 0.780467 0.981840 0.928909
Si Si5 0.331344 0.189512 0.025287
Si Si6 0.090751 0.130678 0.615199
O O1 0.131765 0.382941 0.293937
O O2 0.169108 0.598533 0.385330
O O3 0.000000 0.483621 0.253046
O O4 0.121292 0.454483 0.169847
O O5 0.250208 0.737435 0.321067
O O6 0.138232 0.091563 0.234673
O O7 0.364229 0.755021 0.410522
O O8 0.772836 0.409433 0.389904
O O9 0.901296 0.763479 0.339032
O O10 0.697908 0.922529 0.945455
O O11 0.621936 0.164888 0.957605
O O12 0.821494 0.000000 0.000000
O O13 0.250000 0.250000 0.000000
O O14 0.000000 0.097158 0.603333
#
# Coordination Sequence:
#
# PCOD9476375 Si02
#       6
#    16  16  16  16  16  16
#     4  10  24  43  65  97 143 185 232 292 355 421
#     4  10  20  38  67  99 134 176 241 293 349 406
#     4  10  20  40  64  93 127 181 231 283 340 424
#     4  10  16  31  61  91 130 167 213 287 345 392
#     4  11  19  37  62  97 137 180 231 288 356 423
#     4  11  22  40  65  96 139 188 232 287 364 432
#
# _framework density 22.915711999999999
#
# number of rings (size 3 to 8) (size 9 to 14) (size 15 to 20)
#    0.000    1.667    5.000    0.500    0.000    1.333 
#    0.000   15.000    0.000   11.000    0.000    3.500 
#    0.000    0.000    0.000    0.000    0.000    0.000 
#
# Total GULP energy -267711.358987 kJ/mol
# GULP energy per Si atom -5577.319979 kJ/mol
# Density = 2.286355 g / cm^3
# Si number density = 22.915712 Si / 1000 Ang^3
#
#
#
# Elastic Constant Matrix: (Units=GPa)
#
#
# Indices 1 2 3 4 5 6 
#
# 1 55.0867 21.7323 51.9092 0.0000 0.0000 0.0000
# 2 21.7323 110.4708 66.7930 0.0000 0.0000 0.0000
# 3 51.9092 66.7930 183.0856 0.0000 0.0000 0.0000
# 4 0.0000 0.0000 0.0000 45.9622 0.0000 0.0000
# 5 0.0000 0.0000 0.0000 0.0000 33.8534 0.0000
# 6 0.0000 0.0000 0.0000 0.0000 0.0000 16.8086
#
#
#
# Elastic Compliance Matrix: (Units=1/GPa)
#
#
# Indices 1 2 3 4 5 6 
#
# 1 0.024827 -0.000806 -0.006745 0.000000 0.000000 0.000000
# 2 -0.000806 0.011640 -0.004018 0.000000 0.000000 0.000000
# 3 -0.006745 -0.004018 0.008840 0.000000 0.000000 0.000000
# 4 0.000000 0.000000 0.000000 0.021757 0.000000 0.000000
# 5 0.000000 0.000000 0.000000 0.000000 0.029539 0.000000
# 6 0.000000 0.000000 0.000000 0.000000 0.000000 0.059493
#
#
# Mechanical properties :
#
#
# Convention : Reuss Voigt Hill
#
# Bulk Modulus (GPa) = 45.10723 69.94578 57.52651
# Shear Modulus (GPa) = 26.79172 33.20540 29.99856
#
# Velocity S-wave (km/s) = 3.42298 3.81073 3.62205
# Velocity P-wave (km/s) = 5.94551 7.06764 6.53072
#
# Compressibility (1/GPa) = 0.02216939
#
# Stress axis : x y z
#
# Youngs Moduli (GPa) = 40.27849 85.90993 113.11991
#
# Poissons Ratio (x) = 0.06923 0.76300
# Poissons Ratio (y) = 0.03246 0.45452
# Poissons Ratio (z) = 0.27168 0.34519
#
# Static dielectric constant tensor:
#      x y z
#    x 1.911780 0.000000 0.000000 
#    y 0.000000 1.935680 0.000000 
#    z 0.000000 0.000000 1.910680 
# 
# From -- ./inp_files/50830.got.cif
#   From: 2010.05.17/outbox.cif.g08.bks.cpg/sg64_26_cif.got.tgz:50830.got - 2010.06.03 16:29:19.
