data_PCOD9476677
_publ_section_title
;
Structure prediction by ZEFSAII (Michael W. Deem and Ramdas Pophale) SiO2 
 PCOD9476677
Probable space group: C M C A
;
_chemical_formula_sum "Si O2"
_cell_formula_units_Z 96
_cell_length_a 8.407125
_cell_length_b 24.486779
_cell_length_c 27.123198
_cell_angle_alpha 90.000000
_cell_angle_beta 90.000000
_cell_angle_gamma 90.000000
_cell_volume 5583.674082
_symmetry_space_group_name_H-M "C M C A"
_symmetry_group_IT_number 64
_symmetry_cell_setting 'orthorhombic'
loop_
_space_group_symop_operation_xyz
x,y,z
-x,1/2-y,1/2+z
x,-y,-z
-x,1/2+y,1/2-z
-x,-y,-z
x,1/2+y,1/2-z
-x,y,z
x,1/2-y,1/2+z
1/2+x,1/2+y,z
1/2-x,-y,1/2+z
1/2+x,1/2-y,-z
1/2-x,y,1/2-z
1/2-x,1/2-y,-z
1/2+x,y,1/2-z
1/2-x,1/2+y,z
1/2+x,-y,1/2+z
loop_
_atom_site_type_symbol
_atom_site_label
_atom_site_fract_x
_atom_site_fract_y
_atom_site_fract_z
Si Si1 0.186068 0.505513 0.623946
Si Si2 0.814142 0.429732 0.959138
Si Si3 0.811358 0.829955 0.614282
Si Si4 0.193221 0.270361 0.446392
Si Si5 0.807211 0.104284 0.935419
Si Si6 0.810649 0.413843 0.805430
O O1 0.214044 0.471747 0.573401
O O2 0.242671 0.566579 0.610727
O O3 0.269053 0.469841 0.666027
O O4 0.000000 0.507210 0.635648
O O5 0.796771 0.371652 0.931554
O O6 0.000000 0.445376 0.956548
O O7 0.759238 0.422449 0.014692
O O8 0.747779 0.772200 0.595249
O O9 0.745488 0.863380 0.661134
O O10 0.000000 0.822403 0.623450
O O11 0.250000 0.250000 0.500000
O O12 0.242644 0.332471 0.435323
O O13 0.000000 0.268896 0.446943
O O14 0.000000 0.102617 0.937474
O O15 0.750000 0.413119 0.750000
O O16 0.000000 0.409236 0.805087
#
# Coordination Sequence:
#
# PCOD9476677 Si02
#       6
#    16  16  16  16  16  16
#     4  10  20  33  47  70 101 132 166 207 250 299
#     4  10  18  29  46  69  98 135 172 207 246 292
#     4   8  16  30  48  71  99 127 163 204 246 290
#     4  10  18  31  48  70 100 138 174 207 240 287
#     4  10  20  30  45  69 101 138 173 203 243 292
#     4  10  20  36  57  79  97 122 159 208 262 310
#
# _framework density 17.192979999999999
#
# number of rings (size 3 to 8) (size 9 to 14) (size 15 to 20)
#    0.000    2.333    1.667    3.000    0.000    3.333 
#    0.000    0.833    0.000    1.000    0.000    2.333 
#    0.000    0.000    0.000    0.000    0.000    0.000 
#
# Total GULP energy -267542.650766 kJ/mol
# GULP energy per Si atom -5573.805224 kJ/mol
# Density = 1.715385 g / cm^3
# Si number density = 17.192980 Si / 1000 Ang^3
#
#
#
# Elastic Constant Matrix: (Units=GPa)
#
#
# Indices 1 2 3 4 5 6 
#
# 1 13.9434 6.6295 13.4604 0.0000 0.0000 0.0000
# 2 6.6295 92.0353 54.1433 0.0000 0.0000 0.0000
# 3 13.4604 54.1433 117.8179 0.0000 0.0000 0.0000
# 4 0.0000 0.0000 0.0000 9.4647 0.0000 0.0000
# 5 0.0000 0.0000 0.0000 0.0000 21.9467 0.0000
# 6 0.0000 0.0000 0.0000 0.0000 0.0000 14.8819
#
#
#
# Elastic Compliance Matrix: (Units=1/GPa)
#
#
# Indices 1 2 3 4 5 6 
#
# 1 0.080628 -0.000533 -0.008967 0.000000 0.000000 0.000000
# 2 -0.000533 0.014895 -0.006784 0.000000 0.000000 0.000000
# 3 -0.008967 -0.006784 0.012630 0.000000 0.000000 0.000000
# 4 0.000000 0.000000 0.000000 0.105655 0.000000 0.000000
# 5 0.000000 0.000000 0.000000 0.000000 0.045565 0.000000
# 6 0.000000 0.000000 0.000000 0.000000 0.000000 0.067196
#
#
# Mechanical properties :
#
#
# Convention : Reuss Voigt Hill
#
# Bulk Modulus (GPa) = 13.23012 41.36259 27.29635
# Shear Modulus (GPa) = 13.00965 19.22957 16.11961
#
# Velocity S-wave (km/s) = 2.75377 3.34796 3.06530
# Velocity P-wave (km/s) = 4.22171 6.24941 5.33282
#
# Compressibility (1/GPa) = 0.07558512
#
# Stress axis : x y z
#
# Youngs Moduli (GPa) = 12.40268 67.13784 79.17847
#
# Poissons Ratio (x) = 0.03577 0.70997
# Poissons Ratio (y) = 0.00661 0.53715
# Poissons Ratio (z) = 0.11121 0.45546
#
# Static dielectric constant tensor:
#      x y z
#    x 1.594300 0.000000 0.000000 
#    y 0.000000 1.627800 0.000000 
#    z 0.000000 0.000000 1.558240 
# 
# From -- ./inp_files/42991.got.cif
#   From: 2010.05.17/outbox.cif.g08.bks.cpg/sg64_22_cif.got.tgz:42991.got - 2010.06.03 16:29:19.
