data_PCOD9476171
_publ_section_title
;
Structure prediction by ZEFSAII (Michael W. Deem and Ramdas Pophale) SiO2 
 PCOD9476171
Probable space group: C M C M
;
_chemical_formula_sum "Si O2"
_cell_formula_units_Z 48
_cell_length_a 27.000000
_cell_length_b 21.000000
_cell_length_c 9.000000
_cell_angle_alpha 90.000000
_cell_angle_beta 90.000000
_cell_angle_gamma 90.000000
_cell_volume 5103.000000
_symmetry_space_group_name_H-M "C M C M"
_symmetry_group_IT_number 63
_symmetry_cell_setting 'orthorhombic'
loop_
_space_group_symop_operation_xyz
x,y,z
-x,-y,1/2+z
x,-y,-z
-x,y,1/2-z
-x,-y,-z
x,y,1/2-z
-x,y,z
x,-y,1/2+z
1/2+x,1/2+y,z
1/2-x,1/2-y,1/2+z
1/2+x,1/2-y,-z
1/2-x,1/2+y,1/2-z
1/2-x,1/2-y,-z
1/2+x,1/2+y,1/2-z
1/2-x,1/2+y,z
1/2+x,1/2-y,1/2+z
loop_
_atom_site_type_symbol
_atom_site_label
_atom_site_fract_x
_atom_site_fract_y
_atom_site_fract_z
Si Si1 0.058681 0.300164 0.576169
Si Si2 0.220964 0.585972 0.417627
Si Si3 0.700827 0.766232 0.915801
Si Si4 0.116586 0.191730 0.427605
Si Si5 0.610448 0.935318 0.930861
Si Si6 0.328578 0.431037 0.069697
O O1 0.073556 0.290480 0.750000
O O2 0.070621 0.233673 0.490716
O O3 0.085954 0.366527 0.527725
O O4 0.000000 0.311845 0.569463
O O5 0.230712 0.559598 0.250000
O O6 0.206059 0.659138 0.399484
O O7 0.168285 0.562826 0.479607
O O8 0.271344 0.579674 0.512814
O O9 0.695762 0.737653 0.750000
O O10 0.750000 0.750000 0.000000
O O11 0.658677 0.741620 0.023290
O O12 0.113589 0.182767 0.250000
O O13 0.135773 0.125518 0.504322
O O14 0.609037 0.938507 0.750000
O O15 0.587199 0.000000 0.000000
O O16 0.330360 0.431587 0.250000
O O17 0.342848 0.500000 0.000000
#
# Coordination Sequence:
#
# PCOD9476171 Si02
#       6
#    16  16  16  16  16  16
#     4  10  22  43  67  88 114 152 200 254 312 367
#     4  10  20  35  55  82 121 162 206 246 288 345
#     4  11  20  33  55  84 118 156 201 246 292 349
#     4  12  24  39  61  88 121 156 199 250 305 363
#     4  10  21  37  56  84 120 161 203 246 295 350
#     4  12  25  40  60  87 124 163 205 244 295 358
#
# _framework density 9.4062319999999993
#
# number of rings (size 3 to 8) (size 9 to 14) (size 15 to 20)
#    0.000    1.167    3.333    4.000    0.000    4.000 
#    0.000    0.000    0.000    0.500    0.000    0.000 
#    0.000    0.000    0.000    0.000    0.000    0.000 
#
# Total GULP energy -267337.886712 kJ/mol
# GULP energy per Si atom -5569.539306 kJ/mol
# Density = 0.938482 g / cm^3
# Si number density = 9.406232 Si / 1000 Ang^3
#
#
#
# Elastic Constant Matrix: (Units=GPa)
#
#
# Indices 1 2 3 4 5 6 
#
# 1 69.5506 38.5793 26.7315 0.0000 0.0000 0.0000
# 2 38.5793 155.1673 52.8753 0.0000 0.0000 0.0000
# 3 26.7315 52.8753 107.7832 0.0000 0.0000 0.0000
# 4 0.0000 0.0000 0.0000 34.1324 0.0000 0.0000
# 5 0.0000 0.0000 0.0000 0.0000 19.5131 0.0000
# 6 0.0000 0.0000 0.0000 0.0000 0.0000 12.4345
#
#
#
# Elastic Compliance Matrix: (Units=1/GPa)
#
#
# Indices 1 2 3 4 5 6 
#
# 1 0.017270 -0.003403 -0.002614 0.000000 0.000000 0.000000
# 2 -0.003403 0.008409 -0.003281 0.000000 0.000000 0.000000
# 3 -0.002614 -0.003281 0.011536 0.000000 0.000000 0.000000
# 4 0.000000 0.000000 0.000000 0.029298 0.000000 0.000000
# 5 0.000000 0.000000 0.000000 0.000000 0.051248 0.000000
# 6 0.000000 0.000000 0.000000 0.000000 0.000000 0.080421
#
#
# Mechanical properties :
#
#
# Convention : Reuss Voigt Hill
#
# Bulk Modulus (GPa) = 53.70914 63.20814 58.45864
# Shear Modulus (GPa) = 22.42312 27.50366 24.96339
#
# Velocity S-wave (km/s) = 3.45618 3.82775 3.64670
# Velocity P-wave (km/s) = 6.67373 7.29435 6.99093
#
# Compressibility (1/GPa) = 0.01861881
#
# Stress axis : x y z
#
# Youngs Moduli (GPa) = 57.90267 118.92160 86.68718
#
# Poissons Ratio (x) = 0.40472 0.22657
# Poissons Ratio (y) = 0.19706 0.28443
# Poissons Ratio (z) = 0.15134 0.39019
#
# Static dielectric constant tensor:
#      x y z
#    x 1.621160 0.000000 0.000000 
#    y 0.000000 1.684900 0.000000 
#    z 0.000000 0.000000 1.569750 
# 
# From -- ./inp_files/12365.got.cif
#   From: 2010.05.17/outbox.ucp.g08.bks.cvg/sg63_7_cif.got.tgz:12365.got - 2010.06.11 16:32:19.
