data_PCOD9476322
_publ_section_title
;
Structure prediction by ZEFSAII (Michael W. Deem and Ramdas Pophale) SiO2 
 PCOD9476322
Probable space group: C M C A
;
_chemical_formula_sum "Si O2"
_cell_formula_units_Z 112
_cell_length_a 28.049679
_cell_length_b 14.273073
_cell_length_c 13.104984
_cell_angle_alpha 90.000000
_cell_angle_beta 90.000000
_cell_angle_gamma 90.000000
_cell_volume 5246.647389
_symmetry_space_group_name_H-M "C M C A"
_symmetry_group_IT_number 64
_symmetry_cell_setting 'orthorhombic'
loop_
_space_group_symop_operation_xyz
x,y,z
-x,1/2-y,1/2+z
x,-y,-z
-x,1/2+y,1/2-z
-x,-y,-z
x,1/2+y,1/2-z
-x,y,z
x,1/2-y,1/2+z
1/2+x,1/2+y,z
1/2-x,-y,1/2+z
1/2+x,1/2-y,-z
1/2-x,y,1/2-z
1/2-x,1/2-y,-z
1/2+x,y,1/2-z
1/2-x,1/2+y,z
1/2+x,-y,1/2+z
loop_
_atom_site_type_symbol
_atom_site_label
_atom_site_fract_x
_atom_site_fract_y
_atom_site_fract_z
Si Si1 0.205385 0.930745 0.679885
Si Si2 0.895324 0.595297 0.532141
Si Si3 0.607212 0.010837 0.749105
Si Si4 0.233132 0.633906 0.869019
Si Si5 0.945797 0.650468 0.337245
Si Si6 0.635216 0.695018 0.677578
Si Si7 0.675835 0.262040 0.094447
O O1 0.250000 0.898919 0.750000
O O2 0.188251 0.847076 0.607167
O O3 0.160159 0.963492 0.749850
O O4 0.222346 0.023884 0.620964
O O5 0.867249 0.500000 0.500000
O O6 0.906757 0.570486 0.648435
O O7 0.937158 0.605029 0.449587
O O8 0.865811 0.690956 0.528568
O O9 0.612538 0.091057 0.833257
O O10 0.570082 0.926273 0.747199
O O11 0.250000 0.641642 0.750000
O O12 0.184473 0.691607 0.885894
O O13 0.277098 0.677352 0.928243
O O14 0.907107 0.732166 0.332211
O O15 0.000000 0.679707 0.324228
O O16 0.656961 0.711987 0.790810
#
# Coordination Sequence:
#
# PCOD9476322 Si02
#       7
#    16  16  16  16  16  16  16
#     4  10  16  27  56  87 112 144 174 215 261 320
#     4   9  20  36  52  74 114 148 176 219 274 326
#     4   9  19  34  56  82 109 136 178 230 267 321
#     4   8  16  28  49  83 113 139 172 208 265 325
#     4  11  22  36  55  78 105 143 187 230 285 329
#     4   9  17  33  54  81 110 135 176 231 270 313
#     4  10  17  31  55  80 107 143 181 210 257 325
#
# _framework density 21.346965000000001
#
# number of rings (size 3 to 8) (size 9 to 14) (size 15 to 20)
#    0.000    2.571    1.429    3.857    0.000    3.143 
#    0.000    2.857    0.000    2.571    0.000    4.000 
#    0.000    0.000    0.000    0.000    0.000    0.000 
#
# Total GULP energy -311844.457737 kJ/mol
# GULP energy per Si atom -5568.651031 kJ/mol
# Density = 2.129838 g / cm^3
# Si number density = 21.346965 Si / 1000 Ang^3
#
#
#
# Elastic Constant Matrix: (Units=GPa)
#
#
# Indices 1 2 3 4 5 6 
#
# 1 123.4603 48.1720 16.5935 0.0000 0.0000 0.0000
# 2 48.1720 105.3903 -8.1810 0.0000 0.0000 0.0000
# 3 16.5935 -8.1810 19.9745 0.0000 0.0000 0.0000
# 4 0.0000 0.0000 0.0000 21.0966 0.0000 0.0000
# 5 0.0000 0.0000 0.0000 0.0000 23.0650 0.0000
# 6 0.0000 0.0000 0.0000 0.0000 0.0000 12.4836
#
#
#
# Elastic Compliance Matrix: (Units=1/GPa)
#
#
# Indices 1 2 3 4 5 6 
#
# 1 0.012490 -0.006728 -0.013132 0.000000 0.000000 0.000000
# 2 -0.006728 0.013425 0.011088 0.000000 0.000000 0.000000
# 3 -0.013132 0.011088 0.065514 0.000000 0.000000 0.000000
# 4 0.000000 0.000000 0.000000 0.047401 0.000000 0.000000
# 5 0.000000 0.000000 0.000000 0.000000 0.043356 0.000000
# 6 0.000000 0.000000 0.000000 0.000000 0.000000 0.080105
#
#
# Mechanical properties :
#
#
# Convention : Reuss Voigt Hill
#
# Bulk Modulus (GPa) = 13.53468 40.22158 26.87813
# Shear Modulus (GPa) = 16.42239 24.14508 20.28373
#
# Velocity S-wave (km/s) = 2.77665 3.36680 3.08586
# Velocity P-wave (km/s) = 4.07846 5.83065 5.03142
#
# Compressibility (1/GPa) = 0.07388430
#
# Stress axis : x y z
#
# Youngs Moduli (GPa) = 80.06443 74.49010 15.26393
#
# Poissons Ratio (x) = 0.50119 0.20044
# Poissons Ratio (y) = 0.53869 -0.16924
# Poissons Ratio (z) = 1.05137 -0.82593
#
# Static dielectric constant tensor:
#      x y z
#    x 1.735660 0.000000 0.000000 
#    y 0.000000 1.836730 0.000000 
#    z 0.000000 0.000000 1.870720 
# 
# From -- ./inp_files/28074.got.cif
#   From: 2010.05.17/outbox.cif.g08.bks.cpg/sg64_15_cif.got.tgz:28074.got - 2010.06.03 16:29:19.
