data_PCOD9476315
_publ_section_title
;
Structure prediction by ZEFSAII (Michael W. Deem and Ramdas Pophale) SiO2 
 PCOD9476315
Probable space group: C M C A
;
_chemical_formula_sum "Si O2"
_cell_formula_units_Z 48
_cell_length_a 28.262735
_cell_length_b 14.195650
_cell_length_c 5.055474
_cell_angle_alpha 90.000000
_cell_angle_beta 90.000000
_cell_angle_gamma 90.000000
_cell_volume 2028.296077
_symmetry_space_group_name_H-M "C M C A"
_symmetry_group_IT_number 64
_symmetry_cell_setting 'orthorhombic'
loop_
_space_group_symop_operation_xyz
x,y,z
-x,1/2-y,1/2+z
x,-y,-z
-x,1/2+y,1/2-z
-x,-y,-z
x,1/2+y,1/2-z
-x,y,z
x,1/2-y,1/2+z
1/2+x,1/2+y,z
1/2-x,-y,1/2+z
1/2+x,1/2-y,-z
1/2-x,y,1/2-z
1/2-x,1/2-y,-z
1/2+x,y,1/2-z
1/2-x,1/2+y,z
1/2+x,-y,1/2+z
loop_
_atom_site_type_symbol
_atom_site_label
_atom_site_fract_x
_atom_site_fract_y
_atom_site_fract_z
Si Si1 0.500000 0.691396 0.545742
Si Si2 0.101606 0.387252 0.015535
Si Si3 0.750000 0.067875 0.250000
Si Si4 0.344856 0.385316 0.983012
O O1 0.500000 0.780851 0.738460
O O2 0.451145 0.638276 0.600547
O O3 0.140580 0.353232 0.226706
O O4 0.104269 0.500000 0.000000
O O5 0.115633 0.352996 0.724702
O O6 0.706822 0.129736 0.360730
O O7 0.764602 0.000000 0.500000
O O8 0.346190 0.500000 0.000000
#
# Coordination Sequence:
#
# PCOD9476315 Si02
#       4
#     8  16   8  16
#     4  12  25  40  57  80 106 142 186 232 279 324
#     4  10  20  36  56  80 109 143 181 222 269 323
#     4  10  16  26  46  80 118 144 168 214 270 320
#     4   9  17  29  50  80 112 142 173 215 268 318
#
# _framework density 23.665182000000001
#
# number of rings (size 3 to 8) (size 9 to 14) (size 15 to 20)
#    0.000    2.000    0.000    7.500    0.000    0.000 
#    0.000    6.667    0.000    0.000    0.000   23.333 
#    0.000    0.000    0.000    0.000    0.000    0.000 
#
# Total GULP energy -134127.786152 kJ/mol
# GULP energy per Si atom -5588.657756 kJ/mol
# Density = 2.361132 g / cm^3
# Si number density = 23.665182 Si / 1000 Ang^3
#
#
#
# Elastic Constant Matrix: (Units=GPa)
#
#
# Indices 1 2 3 4 5 6 
#
# 1 165.6852 6.4027 51.8270 0.0000 0.0000 0.0000
# 2 6.4027 55.0475 -10.7625 0.0000 0.0000 0.0000
# 3 51.8270 -10.7625 114.2199 0.0000 0.0000 0.0000
# 4 0.0000 0.0000 0.0000 5.4699 0.0000 0.0000
# 5 0.0000 0.0000 0.0000 0.0000 42.4286 0.0000
# 6 0.0000 0.0000 0.0000 0.0000 0.0000 9.2846
#
#
#
# Elastic Compliance Matrix: (Units=1/GPa)
#
#
# Indices 1 2 3 4 5 6 
#
# 1 0.007152 -0.001494 -0.003386 0.000000 0.000000 0.000000
# 2 -0.001494 0.018819 0.002451 0.000000 0.000000 0.000000
# 3 -0.003386 0.002451 0.010522 0.000000 0.000000 0.000000
# 4 0.000000 0.000000 0.000000 0.182820 0.000000 0.000000
# 5 0.000000 0.000000 0.000000 0.000000 0.023569 0.000000
# 6 0.000000 0.000000 0.000000 0.000000 0.000000 0.107705
#
#
# Mechanical properties :
#
#
# Convention : Reuss Voigt Hill
#
# Bulk Modulus (GPa) = 31.60952 47.76523 39.68738
# Shear Modulus (GPa) = 13.66150 30.60231 22.13191
#
# Velocity S-wave (km/s) = 2.40528 3.59992 3.06144
# Velocity P-wave (km/s) = 4.59345 6.12428 5.41325
#
# Compressibility (1/GPa) = 0.03163603
#
# Stress axis : x y z
#
# Youngs Moduli (GPa) = 139.81142 53.13744 95.03467
#
# Poissons Ratio (x) = 0.07939 0.32181
# Poissons Ratio (y) = 0.20887 -0.23294
# Poissons Ratio (z) = 0.47343 -0.13025
#
# Static dielectric constant tensor:
#      x y z
#    x 1.897080 0.000000 0.000000 
#    y 0.000000 1.935580 0.000000 
#    z 0.000000 0.000000 1.875430 
# 
# From -- ./inp_files/2057.got.cif
#   From: 2010.05.17/outbox.cif.g08.bks.cpg/sg64_2_cif.got.tgz:2057.got - 2010.06.03 16:29:19.
