data_PCOD9476179
_publ_section_title
;
Structure prediction by ZEFSAII (Michael W. Deem and Ramdas Pophale) SiO2 
 PCOD9476179
Probable space group: C M C M
;
_chemical_formula_sum "Si O2"
_cell_formula_units_Z 48
_cell_length_a 27.000000
_cell_length_b 21.000000
_cell_length_c 9.000000
_cell_angle_alpha 90.000000
_cell_angle_beta 90.000000
_cell_angle_gamma 90.000000
_cell_volume 5103.000000
_symmetry_space_group_name_H-M "C M C M"
_symmetry_group_IT_number 63
_symmetry_cell_setting 'orthorhombic'
loop_
_space_group_symop_operation_xyz
x,y,z
-x,-y,1/2+z
x,-y,-z
-x,y,1/2-z
-x,-y,-z
x,y,1/2-z
-x,y,z
x,-y,1/2+z
1/2+x,1/2+y,z
1/2-x,1/2-y,1/2+z
1/2+x,1/2-y,-z
1/2-x,1/2+y,1/2-z
1/2-x,1/2-y,-z
1/2+x,1/2+y,1/2-z
1/2-x,1/2+y,z
1/2+x,1/2-y,1/2+z
loop_
_atom_site_type_symbol
_atom_site_label
_atom_site_fract_x
_atom_site_fract_y
_atom_site_fract_z
Si Si1 0.394714 0.192791 0.427515
Si Si2 0.265239 0.565098 0.572987
Si Si3 0.373326 0.566108 0.428606
Si Si4 0.712424 0.800369 0.427365
Si Si5 0.940285 0.432757 0.424720
Si Si6 0.442468 0.686363 0.425659
O O1 0.392823 0.189376 0.250000
O O2 0.340648 0.205497 0.495837
O O3 0.415401 0.126931 0.494494
O O4 0.428386 0.251622 0.480879
O O5 0.244942 0.500000 0.500000
O O6 0.271336 0.555807 0.750000
O O7 0.318792 0.576141 0.497598
O O8 0.232475 0.627773 0.549354
O O9 0.392093 0.500000 0.500000
O O10 0.370012 0.559787 0.250000
O O11 0.407944 0.626246 0.463295
O O12 0.708858 0.789295 0.250000
O O13 0.750000 0.750000 0.500000
O O14 0.926511 0.500000 0.500000
O O15 0.927334 0.432987 0.250000
O O16 0.000000 0.426420 0.436556
O O17 0.434892 0.700899 0.250000
O O18 0.500000 0.670047 0.446471
#
# Coordination Sequence:
#
# PCOD9476179 Si02
#       6
#    16  16  16  16  16  16
#     4  12  25  39  59  87 118 154 195 239 290 347
#     4  10  21  37  59  85 113 147 187 230 279 336
#     4  10  20  35  58  85 115 151 189 232 284 341
#     4  11  24  41  61  86 116 151 193 241 292 346
#     4  10  21  39  63  89 119 155 194 239 291 347
#     4  10  22  40  60  83 114 153 195 240 291 343
#
# _framework density 9.4062319999999993
#
# number of rings (size 3 to 8) (size 9 to 14) (size 15 to 20)
#    0.000    1.500    0.000    6.000    0.000   11.000 
#    0.000    1.667    0.000    0.000    0.000    0.000 
#    0.000    0.000    0.000    0.000    0.000    0.000 
#
# Total GULP energy -268399.063525 kJ/mol
# GULP energy per Si atom -5591.647157 kJ/mol
# Density = 0.938482 g / cm^3
# Si number density = 9.406232 Si / 1000 Ang^3
#
#
#
# Elastic Constant Matrix: (Units=GPa)
#
#
# Indices 1 2 3 4 5 6 
#
# 1 23.2060 -6.0653 13.2463 0.0000 0.0000 0.0000
# 2 -6.0653 55.8812 25.8923 0.0000 0.0000 0.0000
# 3 13.2463 25.8923 102.8316 0.0000 0.0000 0.0000
# 4 0.0000 0.0000 0.0000 38.0017 0.0000 0.0000
# 5 0.0000 0.0000 0.0000 0.0000 24.0037 0.0000
# 6 0.0000 0.0000 0.0000 0.0000 0.0000 41.2727
#
#
#
# Elastic Compliance Matrix: (Units=1/GPa)
#
#
# Indices 1 2 3 4 5 6 
#
# 1 0.050737 0.009663 -0.008969 0.000000 0.000000 0.000000
# 2 0.009663 0.022099 -0.006809 0.000000 0.000000 0.000000
# 3 -0.008969 -0.006809 0.012594 0.000000 0.000000 0.000000
# 4 0.000000 0.000000 0.000000 0.026315 0.000000 0.000000
# 5 0.000000 0.000000 0.000000 0.000000 0.041660 0.000000
# 6 0.000000 0.000000 0.000000 0.000000 0.000000 0.024229
#
#
# Mechanical properties :
#
#
# Convention : Reuss Voigt Hill
#
# Bulk Modulus (GPa) = 13.66118 27.56284 20.61201
# Shear Modulus (GPa) = 23.33561 30.57864 26.95713
#
# Velocity S-wave (km/s) = 3.52580 4.03606 3.78953
# Velocity P-wave (km/s) = 4.88391 6.03348 5.48887
#
# Compressibility (1/GPa) = 0.07320011
#
# Stress axis : x y z
#
# Youngs Moduli (GPa) = 19.70941 45.25131 79.40028
#
# Poissons Ratio (x) = -0.43725 0.71212
# Poissons Ratio (y) = -0.19044 0.54064
# Poissons Ratio (z) = 0.17677 0.30812
#
# Static dielectric constant tensor:
#      x y z
#    x 1.641710 0.000000 0.000000 
#    y 0.000000 1.632870 0.000000 
#    z 0.000000 0.000000 1.628950 
# 
# From -- ./inp_files/12317.got.cif
#   From: 2010.05.17/outbox.ucp.g08.bks.cvg/sg63_7_cif.got.tgz:12317.got - 2010.06.11 16:32:19.
