data_PCOD9476611
_publ_section_title
;
Structure prediction by ZEFSAII (Michael W. Deem and Ramdas Pophale) SiO2 
 PCOD9476611
Probable space group: C M C A
;
_chemical_formula_sum "Si O2"
_cell_formula_units_Z 96
_cell_length_a 23.631432
_cell_length_b 10.469395
_cell_length_c 18.809518
_cell_angle_alpha 90.000000
_cell_angle_beta 90.000000
_cell_angle_gamma 90.000000
_cell_volume 4653.602583
_symmetry_space_group_name_H-M "C M C A"
_symmetry_group_IT_number 64
_symmetry_cell_setting 'orthorhombic'
loop_
_space_group_symop_operation_xyz
x,y,z
-x,1/2-y,1/2+z
x,-y,-z
-x,1/2+y,1/2-z
-x,-y,-z
x,1/2+y,1/2-z
-x,y,z
x,1/2-y,1/2+z
1/2+x,1/2+y,z
1/2-x,-y,1/2+z
1/2+x,1/2-y,-z
1/2-x,y,1/2-z
1/2-x,1/2-y,-z
1/2+x,y,1/2-z
1/2-x,1/2+y,z
1/2+x,-y,1/2+z
loop_
_atom_site_type_symbol
_atom_site_label
_atom_site_fract_x
_atom_site_fract_y
_atom_site_fract_z
Si Si1 0.625180 0.588838 0.703231
Si Si2 0.787684 0.948578 0.077731
Si Si3 0.564535 0.680150 0.284168
Si Si4 0.280398 0.903089 0.813491
Si Si5 0.629408 0.253419 0.094058
Si Si6 0.833455 0.630860 0.953751
O O1 0.584244 0.467979 0.720560
O O2 0.604041 0.717595 0.741785
O O3 0.687196 0.527170 0.719167
O O4 0.630798 0.616688 0.618304
O O5 0.845471 0.892103 0.106999
O O6 0.732848 0.853118 0.068621
O O7 0.765898 0.054896 0.130442
O O8 0.797981 0.000000 0.000000
O O9 0.500000 0.693247 0.260618
O O10 0.571410 0.721088 0.367445
O O11 0.250000 0.829777 0.750000
O O12 0.327265 0.833087 0.859894
O O13 0.640111 0.227346 0.010943
O O14 0.833626 0.500000 0.000000
#
# Coordination Sequence:
#
# PCOD9476611 Si02
#       6
#    16  16  16  16  16  16
#     4  10  22  40  64  88 119 154 198 252 301 358
#     4  10  19  33  54  84 121 158 187 227 294 360
#     4  11  23  42  63  85 114 154 201 254 305 351
#     4  10  20  33  53  88 122 151 194 232 292 364
#     4  11  21  37  57  83 121 159 199 247 293 350
#     4  10  17  38  60  88 120 153 198 242 292 358
#
# _framework density 20.629179000000001
#
# number of rings (size 3 to 8) (size 9 to 14) (size 15 to 20)
#    0.000    1.667    6.667    2.000    0.000    6.000 
#    3.000    2.500    0.000    0.500    0.000    0.000 
#    0.000    0.000    0.000    0.000    0.000    0.000 
#
# Total GULP energy -267462.552647 kJ/mol
# GULP energy per Si atom -5572.136513 kJ/mol
# Density = 2.058223 g / cm^3
# Si number density = 20.629179 Si / 1000 Ang^3
#
#
#
# Elastic Constant Matrix: (Units=GPa)
#
#
# Indices 1 2 3 4 5 6 
#
# 1 37.2711 18.9962 18.4453 0.0000 0.0000 0.0000
# 2 18.9962 66.6689 23.0214 0.0000 0.0000 0.0000
# 3 18.4453 23.0214 101.6423 0.0000 0.0000 0.0000
# 4 0.0000 0.0000 0.0000 21.9050 0.0000 0.0000
# 5 0.0000 0.0000 0.0000 0.0000 16.8783 0.0000
# 6 0.0000 0.0000 0.0000 0.0000 0.0000 -10.2062
#
#
#
# Elastic Compliance Matrix: (Units=1/GPa)
#
#
# Indices 1 2 3 4 5 6 
#
# 1 0.032948 -0.007945 -0.004180 0.000000 0.000000 0.000000
# 2 -0.007945 0.018188 -0.002678 0.000000 0.000000 0.000000
# 3 -0.004180 -0.002678 0.011203 0.000000 0.000000 0.000000
# 4 0.000000 0.000000 0.000000 0.045652 0.000000 0.000000
# 5 0.000000 0.000000 0.000000 0.000000 0.059248 0.000000
# 6 0.000000 0.000000 0.000000 0.000000 0.000000 -0.097980
#
#
# Mechanical properties :
#
#
# Convention : Reuss Voigt Hill
#
# Bulk Modulus (GPa) = 30.54826 36.27870 33.41348
# Shear Modulus (GPa) = 45.54752 15.39004 30.46878
#
# Velocity S-wave (km/s) = 4.70395 2.73432 3.84731
# Velocity P-wave (km/s) = 6.65907 5.25290 5.99734
#
# Compressibility (1/GPa) = 0.03273509
#
# Stress axis : x y z
#
# Youngs Moduli (GPa) = 30.35067 54.98180 89.25839
#
# Poissons Ratio (x) = 0.43681 0.37308
# Poissons Ratio (y) = 0.24113 0.23901
# Poissons Ratio (z) = 0.12686 0.14722
#
# Static dielectric constant tensor:
#      x y z
#    x 1.735020 0.000000 0.000000 
#    y 0.000000 1.850000 0.000000 
#    z 0.000000 0.000000 1.782100 
# 
# From -- ./inp_files/34930.got.cif
#   From: 2010.05.17/outbox.cif.g08.bks.cpg/sg64_18_cif.got.tgz:34930.got - 2010.06.03 16:29:19.
