data_PCOD9476632
_publ_section_title
;
Structure prediction by ZEFSAII (Michael W. Deem and Ramdas Pophale) SiO2 
 PCOD9476632
Probable space group: C M C A
;
_chemical_formula_sum "Si O2"
_cell_formula_units_Z 88
_cell_length_a 26.964054
_cell_length_b 15.441574
_cell_length_c 8.922695
_cell_angle_alpha 90.000000
_cell_angle_beta 90.000000
_cell_angle_gamma 90.000000
_cell_volume 3715.119632
_symmetry_space_group_name_H-M "C M C A"
_symmetry_group_IT_number 64
_symmetry_cell_setting 'orthorhombic'
loop_
_space_group_symop_operation_xyz
x,y,z
-x,1/2-y,1/2+z
x,-y,-z
-x,1/2+y,1/2-z
-x,-y,-z
x,1/2+y,1/2-z
-x,y,z
x,1/2-y,1/2+z
1/2+x,1/2+y,z
1/2-x,-y,1/2+z
1/2+x,1/2-y,-z
1/2-x,y,1/2-z
1/2-x,1/2-y,-z
1/2+x,y,1/2-z
1/2-x,1/2+y,z
1/2+x,-y,1/2+z
loop_
_atom_site_type_symbol
_atom_site_label
_atom_site_fract_x
_atom_site_fract_y
_atom_site_fract_z
Si Si1 0.500000 0.874934 0.861165
Si Si2 0.606896 0.440156 0.666203
Si Si3 0.750000 0.276062 0.250000
Si Si4 0.099941 0.792885 0.911244
Si Si5 0.500000 0.245564 0.387734
Si Si6 0.814485 0.167254 0.484716
Si Si7 0.057340 0.571153 0.634399
O O1 0.448222 0.919694 0.899728
O O2 0.500000 0.852767 0.682547
O O3 0.500000 0.783423 0.944749
O O4 0.653413 0.416672 0.561953
O O5 0.596488 0.531675 0.746636
O O6 0.613572 0.365952 0.792531
O O7 0.785095 0.211829 0.346897
O O8 0.722044 0.335795 0.372404
O O9 0.144823 0.736767 0.964388
O O10 0.076682 0.843854 0.051552
O O11 0.056225 0.732169 0.844243
O O12 0.055742 0.500000 0.500000
O O13 0.000000 0.579021 0.691495
#
# Coordination Sequence:
#
# PCOD9476632 Si02
#       7
#     8  16   8  16   8  16  16
#     4  10  18  27  45  81 119 147 192 238 290 362
#     4  10  18  30  52  83 117 158 195 240 307 374
#     4  10  24  38  56  82 110 140 206 282 320 358
#     4  10  18  30  52  83 118 157 196 238 304 371
#     4  10  18  27  45  81 119 151 190 238 280 366
#     4  11  20  37  58  84 112 150 205 265 323 369
#     4   9  16  28  48  82 126 159 192 237 290 372
#
# _framework density 23.686990999999999
#
# number of rings (size 3 to 8) (size 9 to 14) (size 15 to 20)
#    0.000    2.000    5.455    0.000    0.000    0.000 
#    0.000    0.000    0.000    2.182    0.000    2.545 
#    0.000    0.000    0.000    0.000    0.000    0.091 
#
# Total GULP energy -245444.308664 kJ/mol
# GULP energy per Si atom -5578.279742 kJ/mol
# Density = 2.363308 g / cm^3
# Si number density = 23.686991 Si / 1000 Ang^3
#
#
#
# Elastic Constant Matrix: (Units=GPa)
#
#
# Indices 1 2 3 4 5 6 
#
# 1 134.0445 28.1181 66.3491 0.0000 0.0000 0.0000
# 2 28.1181 72.4003 56.8695 0.0000 0.0000 0.0000
# 3 66.3491 56.8695 137.5237 0.0000 0.0000 0.0000
# 4 0.0000 0.0000 0.0000 45.0168 0.0000 0.0000
# 5 0.0000 0.0000 0.0000 0.0000 48.8442 0.0000
# 6 0.0000 0.0000 0.0000 0.0000 0.0000 -9.3569
#
#
#
# Elastic Compliance Matrix: (Units=1/GPa)
#
#
# Indices 1 2 3 4 5 6 
#
# 1 0.009802 -0.000137 -0.004672 0.000000 0.000000 0.000000
# 2 -0.000137 0.020459 -0.008394 0.000000 0.000000 0.000000
# 3 -0.004672 -0.008394 0.012997 0.000000 0.000000 0.000000
# 4 0.000000 0.000000 0.000000 0.022214 0.000000 0.000000
# 5 0.000000 0.000000 0.000000 0.000000 0.020473 0.000000
# 6 0.000000 0.000000 0.000000 0.000000 0.000000 -0.106873
#
#
# Mechanical properties :
#
#
# Convention : Reuss Voigt Hill
#
# Bulk Modulus (GPa) = 59.34439 71.84911 65.59675
# Shear Modulus (GPa) = 450.64841 29.74294 240.19567
#
# Velocity S-wave (km/s) = 13.80813 3.54738 10.08088
# Velocity P-wave (km/s) = 16.71309 6.86856 12.77702
#
# Compressibility (1/GPa) = 0.01685079
#
# Stress axis : x y z
#
# Youngs Moduli (GPa) = 102.02443 48.87883 76.94125
#
# Poissons Ratio (x) = 0.00668 0.35950
# Poissons Ratio (y) = 0.01393 0.64587
# Poissons Ratio (z) = 0.47669 0.41030
#
# Static dielectric constant tensor:
#      x y z
#    x 1.918290 0.000000 0.000000 
#    y 0.000000 1.935170 0.000000 
#    z 0.000000 0.000000 2.025330 
# 
# From -- ./inp_files/9394.got.cif
#   From: 2010.05.17/outbox.cif.g08.bks.cpg/sg64_5_cif.got.tgz:9394.got - 2010.06.03 16:29:19.
