data_PCOD9476769
_publ_section_title
;
Structure prediction by ZEFSAII (Michael W. Deem and Ramdas Pophale) SiO2 
 PCOD9476769
Probable space group: C M C A
;
_chemical_formula_sum "Si O2"
_cell_formula_units_Z 80
_cell_length_a 11.662038
_cell_length_b 22.142070
_cell_length_c 18.402530
_cell_angle_alpha 90.000000
_cell_angle_beta 90.000000
_cell_angle_gamma 90.000000
_cell_volume 4751.931877
_symmetry_space_group_name_H-M "C M C A"
_symmetry_group_IT_number 64
_symmetry_cell_setting 'orthorhombic'
loop_
_space_group_symop_operation_xyz
x,y,z
-x,1/2-y,1/2+z
x,-y,-z
-x,1/2+y,1/2-z
-x,-y,-z
x,1/2+y,1/2-z
-x,y,z
x,1/2-y,1/2+z
1/2+x,1/2+y,z
1/2-x,-y,1/2+z
1/2+x,1/2-y,-z
1/2-x,y,1/2-z
1/2-x,1/2-y,-z
1/2+x,y,1/2-z
1/2-x,1/2+y,z
1/2+x,-y,1/2+z
loop_
_atom_site_type_symbol
_atom_site_label
_atom_site_fract_x
_atom_site_fract_y
_atom_site_fract_z
Si Si1 0.363620 0.273168 0.405062
Si Si2 0.136497 0.933896 0.030642
Si Si3 0.000000 0.951506 0.398607
Si Si4 0.715708 0.165626 0.053133
Si Si5 0.500000 0.591340 0.434242
Si Si6 0.275424 0.893922 0.165583
O O1 0.500000 0.267403 0.391357
O O2 0.344363 0.296165 0.488096
O O3 0.291835 0.211324 0.399804
O O4 0.305787 0.324931 0.356048
O O5 0.177115 0.920550 0.112831
O O6 0.000000 0.928867 0.024625
O O7 0.200154 0.883032 0.983649
O O8 0.171351 0.000000 0.000000
O O9 0.111806 0.930565 0.356658
O O10 0.000000 0.917929 0.477414
O O11 0.000000 0.023007 0.407516
O O12 0.612682 0.128072 0.088597
O O13 0.250000 0.899051 0.250000
#
# Coordination Sequence:
#
# PCOD9476769 Si02
#       6
#    16  16   8  16   8  16
#     4  10  18  33  51  77 114 141 181 227 278 334
#     4  10  20  34  53  82 113 143 188 240 287 334
#     4  11  20  36  59  84 115 146 191 244 284 340
#     4  10  18  30  52  83 108 142 180 228 282 331
#     4  11  18  34  61  86 114 144 191 242 289 334
#     4  11  22  36  56  83 112 150 190 234 290 341
#
# _framework density 16.835258
#
# number of rings (size 3 to 8) (size 9 to 14) (size 15 to 20)
#    0.000    1.600    6.000    1.800    1.400    0.000 
#    1.800    0.000    0.000    4.800    0.000    0.000 
#    0.000    0.000    0.000    0.000    0.000    0.000 
#
# Total GULP energy -223110.762931 kJ/mol
# GULP energy per Si atom -5577.769073 kJ/mol
# Density = 1.679694 g / cm^3
# Si number density = 16.835258 Si / 1000 Ang^3
#
#
#
# Elastic Constant Matrix: (Units=GPa)
#
#
# Indices 1 2 3 4 5 6 
#
# 1 100.3455 64.4707 32.4708 0.0000 0.0000 0.0000
# 2 64.4707 123.4843 42.8494 0.0000 0.0000 0.0000
# 3 32.4708 42.8494 71.0461 0.0000 0.0000 0.0000
# 4 0.0000 0.0000 0.0000 12.4826 0.0000 0.0000
# 5 0.0000 0.0000 0.0000 0.0000 4.6644 0.0000
# 6 0.0000 0.0000 0.0000 0.0000 0.0000 -29.1744
#
#
#
# Elastic Compliance Matrix: (Units=1/GPa)
#
#
# Indices 1 2 3 4 5 6 
#
# 1 0.015415 -0.007087 -0.002771 0.000000 0.000000 0.000000
# 2 -0.007087 0.013499 -0.004903 0.000000 0.000000 0.000000
# 3 -0.002771 -0.004903 0.018299 0.000000 0.000000 0.000000
# 4 0.000000 0.000000 0.000000 0.080112 0.000000 0.000000
# 5 0.000000 0.000000 0.000000 0.000000 0.214392 0.000000
# 6 0.000000 0.000000 0.000000 0.000000 0.000000 -0.034277
#
#
# Mechanical properties :
#
#
# Convention : Reuss Voigt Hill
#
# Bulk Modulus (GPa) = 56.52250 63.82863 60.17556
# Shear Modulus (GPa) = 14.58322 7.93350 11.25836
#
# Velocity S-wave (km/s) = 2.94637 2.17317 2.58880
# Velocity P-wave (km/s) = 6.72470 6.65529 6.69008
#
# Compressibility (1/GPa) = 0.01769207
#
# Stress axis : x y z
#
# Youngs Moduli (GPa) = 64.86999 74.07701 54.64777
#
# Poissons Ratio (x) = 0.52496 0.15145
# Poissons Ratio (y) = 0.45971 0.26793
# Poissons Ratio (z) = 0.17977 0.36319
#
# Static dielectric constant tensor:
#      x y z
#    x 1.445880 0.000000 0.000000 
#    y 0.000000 1.580470 0.000000 
#    z 0.000000 0.000000 1.546900 
# 
# From -- ./inp_files/30873.got.cif
#   From: 2010.05.17/outbox.cif.g08.bks.cpg/sg64_16_cif.got.tgz:30873.got - 2010.06.03 16:29:19.
