data_PCOD9476898
_publ_section_title
;
Structure prediction by ZEFSAII (Michael W. Deem and Ramdas Pophale) SiO2 
 PCOD9476898
Probable space group: C M C A
;
_chemical_formula_sum "Si O2"
_cell_formula_units_Z 64
_cell_length_a 21.397477
_cell_length_b 18.510563
_cell_length_c 7.971288
_cell_angle_alpha 90.000000
_cell_angle_beta 90.000000
_cell_angle_gamma 90.000000
_cell_volume 3157.262538
_symmetry_space_group_name_H-M "C M C A"
_symmetry_group_IT_number 64
_symmetry_cell_setting 'orthorhombic'
loop_
_space_group_symop_operation_xyz
x,y,z
-x,1/2-y,1/2+z
x,-y,-z
-x,1/2+y,1/2-z
-x,-y,-z
x,1/2+y,1/2-z
-x,y,z
x,1/2-y,1/2+z
1/2+x,1/2+y,z
1/2-x,-y,1/2+z
1/2+x,1/2-y,-z
1/2-x,y,1/2-z
1/2-x,1/2-y,-z
1/2+x,y,1/2-z
1/2-x,1/2+y,z
1/2+x,-y,1/2+z
loop_
_atom_site_type_symbol
_atom_site_label
_atom_site_fract_x
_atom_site_fract_y
_atom_site_fract_z
Si Si1 0.931516 0.641789 0.746347
Si Si2 0.391328 0.291588 0.917347
Si Si3 0.193431 0.805187 0.631619
Si Si4 0.306715 0.067956 0.879165
O O1 0.923366 0.718454 0.846292
O O2 0.929364 0.661225 0.548511
O O3 0.871774 0.592890 0.792626
O O4 0.000000 0.611700 0.788960
O O5 0.250000 0.284021 0.750000
O O6 0.165417 0.262119 0.467539
O O7 0.362207 0.331023 0.756348
O O8 0.211572 0.866022 0.500981
O O9 0.250000 0.055007 0.750000
O O10 0.316334 0.000000 0.000000
#
# Coordination Sequence:
#
# PCOD9476898 Si02
#       4
#    16  16  16  16
#     4  10  20  36  59  87 119 153 189 231 283 343
#     4   9  19  32  54  87 119 150 182 228 289 345
#     4  10  18  32  54  82 115 148 188 234 284 342
#     4  11  24  40  59  80 110 153 198 243 287 334
#
# _framework density 20.270724999999999
#
# number of rings (size 3 to 8) (size 9 to 14) (size 15 to 20)
#    0.000    2.000    0.000    3.750    0.000    7.500 
#    0.000    1.250    0.000    5.250    0.000    0.000 
#    0.000    0.000    0.000    0.000    0.000    0.000 
#
# Total GULP energy -178587.555818 kJ/mol
# GULP energy per Si atom -5580.861119 kJ/mol
# Density = 2.022459 g / cm^3
# Si number density = 20.270725 Si / 1000 Ang^3
#
#
#
# Elastic Constant Matrix: (Units=GPa)
#
#
# Indices 1 2 3 4 5 6 
#
# 1 134.7267 33.5463 51.6982 0.0000 0.0000 0.0000
# 2 33.5463 47.8755 22.0884 0.0000 0.0000 0.0000
# 3 51.6982 22.0884 110.7237 0.0000 0.0000 0.0000
# 4 0.0000 0.0000 0.0000 30.5958 0.0000 0.0000
# 5 0.0000 0.0000 0.0000 0.0000 12.9116 0.0000
# 6 0.0000 0.0000 0.0000 0.0000 0.0000 3.7914
#
#
#
# Elastic Compliance Matrix: (Units=1/GPa)
#
#
# Indices 1 2 3 4 5 6 
#
# 1 0.010186 -0.005444 -0.003670 0.000000 0.000000 0.000000
# 2 -0.005444 0.025915 -0.002628 0.000000 0.000000 0.000000
# 3 -0.003670 -0.002628 0.011269 0.000000 0.000000 0.000000
# 4 0.000000 0.000000 0.000000 0.032684 0.000000 0.000000
# 5 0.000000 0.000000 0.000000 0.000000 0.077450 0.000000
# 6 0.000000 0.000000 0.000000 0.000000 0.000000 0.263755
#
#
# Mechanical properties :
#
#
# Convention : Reuss Voigt Hill
#
# Bulk Modulus (GPa) = 41.86527 56.44354 49.15441
# Shear Modulus (GPa) = 11.04470 21.85928 16.45199
#
# Velocity S-wave (km/s) = 2.33675 3.28741 2.85197
# Velocity P-wave (km/s) = 5.28947 6.50498 5.92846
#
# Compressibility (1/GPa) = 0.02388615
#
# Stress axis : x y z
#
# Youngs Moduli (GPa) = 98.17081 38.58817 88.73683
#
# Poissons Ratio (x) = 0.21009 0.32567
# Poissons Ratio (y) = 0.53447 0.23318
# Poissons Ratio (z) = 0.36029 0.10140
#
# Static dielectric constant tensor:
#      x y z
#    x 1.806070 0.000000 0.000000 
#    y 0.000000 1.713780 0.000000 
#    z 0.000000 0.000000 1.753350 
# 
# From -- ./inp_files/6799.got.cif
#   From: 2010.05.17/outbox.cif.g08.bks.cpg/sg64_4_cif.got.tgz:6799.got - 2010.06.03 16:29:19.
