data_PCOD9476286
_publ_section_title
;
Structure prediction by ZEFSAII (Michael W. Deem and Ramdas Pophale) SiO2 
 PCOD9476286
Probable space group: C M C M
;
_chemical_formula_sum "Si O2"
_cell_formula_units_Z 40
_cell_length_a 27.000000
_cell_length_b 9.000000
_cell_length_c 18.000000
_cell_angle_alpha 90.000000
_cell_angle_beta 90.000000
_cell_angle_gamma 90.000000
_cell_volume 4374.000000
_symmetry_space_group_name_H-M "C M C M"
_symmetry_group_IT_number 63
_symmetry_cell_setting 'orthorhombic'
loop_
_space_group_symop_operation_xyz
x,y,z
-x,-y,1/2+z
x,-y,-z
-x,y,1/2-z
-x,-y,-z
x,y,1/2-z
-x,y,z
x,-y,1/2+z
1/2+x,1/2+y,z
1/2-x,1/2-y,1/2+z
1/2+x,1/2-y,-z
1/2-x,1/2+y,1/2-z
1/2-x,1/2-y,-z
1/2+x,1/2+y,1/2-z
1/2-x,1/2+y,z
1/2+x,1/2-y,1/2+z
loop_
_atom_site_type_symbol
_atom_site_label
_atom_site_fract_x
_atom_site_fract_y
_atom_site_fract_z
Si Si1 0.790837 0.756174 0.163917
Si Si2 0.793384 0.933067 0.918660
Si Si3 0.609987 0.895134 0.887282
Si Si4 0.000000 0.271006 0.448089
Si Si5 0.000000 0.611885 0.111406
Si Si6 0.610185 0.229143 0.556820
O O1 0.775173 0.754278 0.250000
O O2 0.749849 0.673358 0.112950
O O3 0.843364 0.671855 0.155354
O O4 0.797509 0.924408 0.135019
O O5 0.844915 0.841017 0.926061
O O6 0.780946 0.000000 0.000000
O O7 0.554705 0.866677 0.854010
O O8 0.615949 0.072847 0.899222
O O9 0.611273 0.820173 0.969857
O O10 0.945624 0.208354 0.427316
O O11 0.000000 0.288321 0.537072
O O12 0.000000 0.439999 0.416429
#
# Coordination Sequence:
#
# PCOD9476286 Si02
#       6
#    16  16  16   8   8  16
#     4  12  26  41  57  82 117 153 191 240 299 348
#     4  12  24  40  60  85 112 152 196 244 285 346
#     4   9  17  33  59  87 118 147 189 231 281 335
#     4   7  12  26  50  86 122 141 176 232 281 323
#     4   7  12  26  52  85 115 150 180 225 273 331
#     4   9  17  32  59  90 115 147 188 235 279 328
#
# _framework density 9.1449470000000002
#
# number of rings (size 3 to 8) (size 9 to 14) (size 15 to 20)
#    0.000    2.200    2.000    4.800    2.800    0.000 
#    0.000    3.000    0.000    0.000    0.000    4.900 
#    0.000    0.000    0.000    0.000    0.000    0.000 
#
# Total GULP energy -223068.202179 kJ/mol
# GULP energy per Si atom -5576.705054 kJ/mol
# Density = 0.912413 g / cm^3
# Si number density = 9.144947 Si / 1000 Ang^3
#
#
#
# Elastic Constant Matrix: (Units=GPa)
#
#
# Indices 1 2 3 4 5 6 
#
# 1 178.4961 67.3895 41.7629 0.0000 0.0000 0.0000
# 2 67.3895 87.4176 33.4268 0.0000 0.0000 0.0000
# 3 41.7629 33.4268 55.3463 0.0000 0.0000 0.0000
# 4 0.0000 0.0000 0.0000 14.0941 0.0000 0.0000
# 5 0.0000 0.0000 0.0000 0.0000 7.7695 0.0000
# 6 0.0000 0.0000 0.0000 0.0000 0.0000 37.1851
#
#
#
# Elastic Compliance Matrix: (Units=1/GPa)
#
#
# Indices 1 2 3 4 5 6 
#
# 1 0.008296 -0.005203 -0.003117 0.000000 0.000000 0.000000
# 2 -0.005203 0.018138 -0.007028 0.000000 0.000000 0.000000
# 3 -0.003117 -0.007028 0.024665 0.000000 0.000000 0.000000
# 4 0.000000 0.000000 0.000000 0.070952 0.000000 0.000000
# 5 0.000000 0.000000 0.000000 0.000000 0.128709 0.000000
# 6 0.000000 0.000000 0.000000 0.000000 0.000000 0.026892
#
#
# Mechanical properties :
#
#
# Convention : Reuss Voigt Hill
#
# Bulk Modulus (GPa) = 49.01675 67.37982 58.19828
# Shear Modulus (GPa) = 15.86541 23.72179 19.79360
#
# Velocity S-wave (km/s) = 2.94843 3.60528 3.29327
# Velocity P-wave (km/s) = 6.20073 7.36550 6.80807
#
# Compressibility (1/GPa) = 0.02040119
#
# Stress axis : x y z
#
# Youngs Moduli (GPa) = 120.53576 55.13250 40.54300
#
# Poissons Ratio (x) = 0.28688 0.12639
# Poissons Ratio (y) = 0.62721 0.28495
# Poissons Ratio (z) = 0.37577 0.38748
#
# Static dielectric constant tensor:
#      x y z
#    x 1.664180 0.000000 0.000000 
#    y 0.000000 1.615390 0.000000 
#    z 0.000000 0.000000 1.617450 
# 
# From -- ./inp_files/48881.got.cif
#   From: 2010.05.17/outbox.ucp.g08.bks.cvg/sg63_25_cif.got.tgz:48881.got - 2010.06.11 16:32:19.
