data_PCOD9476285
_publ_section_title
;
Structure prediction by ZEFSAII (Michael W. Deem and Ramdas Pophale) SiO2 
 PCOD9476285
Probable space group: C M C M
;
_chemical_formula_sum "Si O2"
_cell_formula_units_Z 46
_cell_length_a 27.000000
_cell_length_b 9.000000
_cell_length_c 21.000000
_cell_angle_alpha 90.000000
_cell_angle_beta 90.000000
_cell_angle_gamma 90.000000
_cell_volume 5103.000000
_symmetry_space_group_name_H-M "C M C M"
_symmetry_group_IT_number 63
_symmetry_cell_setting 'orthorhombic'
loop_
_space_group_symop_operation_xyz
x,y,z
-x,-y,1/2+z
x,-y,-z
-x,y,1/2-z
-x,-y,-z
x,y,1/2-z
-x,y,z
x,-y,1/2+z
1/2+x,1/2+y,z
1/2-x,1/2-y,1/2+z
1/2+x,1/2-y,-z
1/2-x,1/2+y,1/2-z
1/2-x,1/2-y,-z
1/2+x,1/2+y,1/2-z
1/2-x,1/2+y,z
1/2+x,1/2-y,1/2+z
loop_
_atom_site_type_symbol
_atom_site_label
_atom_site_fract_x
_atom_site_fract_y
_atom_site_fract_z
Si Si1 0.723496 0.000000 0.000000
Si Si2 0.716738 0.385290 0.615638
Si Si3 0.500000 0.139510 0.250000
Si Si4 0.058827 0.179775 0.991225
Si Si5 0.411294 0.852087 0.639455
Si Si6 0.193850 0.796554 0.324392
Si Si7 0.637403 0.154378 0.583266
O O1 0.759626 0.902300 0.955302
O O2 0.684237 0.086375 0.955422
O O3 0.762284 0.316452 0.655642
O O4 0.702666 0.551385 0.637048
O O5 0.667786 0.281710 0.621749
O O6 0.544922 0.140382 0.192936
O O7 0.070038 0.253713 0.921672
O O8 0.000000 0.205081 0.005110
O O9 0.096786 0.264433 0.038559
O O10 0.066947 0.000000 0.000000
O O11 0.360500 0.772163 0.662692
O O12 0.391792 0.017955 0.617856
O O13 0.198160 0.829686 0.250000
#
# Coordination Sequence:
#
# PCOD9476285 Si02
#       7
#     8  16   4  16  16  16  16
#     4  12  22  38  67 104 139 174 206 268 348 406
#     4  12  25  41  65 102 144 176 221 277 337 410
#     4  12  28  48  72  90 130 188 230 288 328 396
#     4  11  24  42  70 101 132 168 219 289 351 404
#     4  12  24  46  69  97 131 176 231 277 340 401
#     4  12  24  43  65  93 133 185 229 268 325 400
#     4  12  24  41  70 102 135 176 222 279 347 404
#
# _framework density 9.0143050000000002
#
# number of rings (size 3 to 8) (size 9 to 14) (size 15 to 20)
#    0.000    0.174    6.957    2.087    4.870    0.696 
#    3.130    0.000    0.000    4.174    0.000    0.000 
#    0.000    0.000    0.000    0.000    0.000    0.000 
#
# Total GULP energy -256223.589164 kJ/mol
# GULP energy per Si atom -5570.078025 kJ/mol
# Density = 0.899379 g / cm^3
# Si number density = 9.014305 Si / 1000 Ang^3
#
#
#
# Elastic Constant Matrix: (Units=GPa)
#
#
# Indices 1 2 3 4 5 6 
#
# 1 164.7267 61.5741 61.1200 0.0000 0.0000 0.0000
# 2 61.5741 116.5345 41.7563 0.0000 0.0000 0.0000
# 3 61.1200 41.7563 96.6388 0.0000 0.0000 0.0000
# 4 0.0000 0.0000 0.0000 17.5827 0.0000 0.0000
# 5 0.0000 0.0000 0.0000 0.0000 37.1269 0.0000
# 6 0.0000 0.0000 0.0000 0.0000 0.0000 40.6543
#
#
#
# Elastic Compliance Matrix: (Units=1/GPa)
#
#
# Indices 1 2 3 4 5 6 
#
# 1 0.008809 -0.003145 -0.004213 0.000000 0.000000 0.000000
# 2 -0.003145 0.011276 -0.002883 0.000000 0.000000 0.000000
# 3 -0.004213 -0.002883 0.014258 0.000000 0.000000 0.000000
# 4 0.000000 0.000000 0.000000 0.056874 0.000000 0.000000
# 5 0.000000 0.000000 0.000000 0.000000 0.026935 0.000000
# 6 0.000000 0.000000 0.000000 0.000000 0.000000 0.024598
#
#
# Mechanical properties :
#
#
# Convention : Reuss Voigt Hill
#
# Bulk Modulus (GPa) = 72.14156 78.53342 75.33749
# Shear Modulus (GPa) = 29.78824 33.30277 31.54550
#
# Velocity S-wave (km/s) = 4.06923 4.30259 4.18754
# Velocity P-wave (km/s) = 7.88543 8.26668 8.07831
#
# Compressibility (1/GPa) = 0.01386164
#
# Stress axis : x y z
#
# Youngs Moduli (GPa) = 113.51578 88.68361 70.13727
#
# Poissons Ratio (x) = 0.27893 0.29546
# Poissons Ratio (y) = 0.35703 0.20221
# Poissons Ratio (z) = 0.47819 0.25567
#
# Static dielectric constant tensor:
#      x y z
#    x 1.590250 0.000000 0.000000 
#    y 0.000000 1.656650 0.000000 
#    z 0.000000 0.000000 1.652160 
# 
# From -- ./inp_files/58128.got.cif
#   From: 2010.05.17/outbox.ucp.g08.bks.cvg/sg63_30_cif.got.tgz:58128.got - 2010.06.11 16:32:19.
