data_PCOD9476388
_publ_section_title
;
Structure prediction by ZEFSAII (Michael W. Deem and Ramdas Pophale) SiO2 
 PCOD9476388
Probable space group: C M C A
;
_chemical_formula_sum "Si O2"
_cell_formula_units_Z 64
_cell_length_a 23.246502
_cell_length_b 29.103434
_cell_length_c 5.206779
_cell_angle_alpha 90.000000
_cell_angle_beta 90.000000
_cell_angle_gamma 90.000000
_cell_volume 3522.662144
_symmetry_space_group_name_H-M "C M C A"
_symmetry_group_IT_number 64
_symmetry_cell_setting 'orthorhombic'
loop_
_space_group_symop_operation_xyz
x,y,z
-x,1/2-y,1/2+z
x,-y,-z
-x,1/2+y,1/2-z
-x,-y,-z
x,1/2+y,1/2-z
-x,y,z
x,1/2-y,1/2+z
1/2+x,1/2+y,z
1/2-x,-y,1/2+z
1/2+x,1/2-y,-z
1/2-x,y,1/2-z
1/2-x,1/2-y,-z
1/2+x,y,1/2-z
1/2-x,1/2+y,z
1/2+x,-y,1/2+z
loop_
_atom_site_type_symbol
_atom_site_label
_atom_site_fract_x
_atom_site_fract_y
_atom_site_fract_z
Si Si1 0.710033 0.500000 0.500000
Si Si2 0.812535 0.400347 0.886300
Si Si3 0.500000 0.219467 0.205061
Si Si4 0.313237 0.688802 0.675128
Si Si5 0.877209 0.320215 0.680004
O O1 0.750000 0.507965 0.750000
O O2 0.675816 0.546972 0.450297
O O3 0.750000 0.398159 0.750000
O O4 0.859407 0.373684 0.713852
O O5 0.809184 0.366638 0.130945
O O6 0.500000 0.259582 0.419903
O O7 0.442331 0.190565 0.253225
O O8 0.250000 0.705497 0.750000
O O9 0.336416 0.703575 0.396354
O O10 0.358788 0.695992 0.899795
#
# Coordination Sequence:
#
# PCOD9476388 Si02
#       5
#     8  16   8  16  16
#     4  10  20  26  46  85 128 153 182 222 262 316
#     4   9  18  31  54  84 121 153 182 221 270 330
#     4  12  26  46  62  83 105 139 197 254 288 330
#     4  10  16  32  56  85 109 145 181 220 275 339
#     4  10  21  34  60  79 110 149 187 230 282 343
#
# _framework density 18.168078000000001
#
# number of rings (size 3 to 8) (size 9 to 14) (size 15 to 20)
#    1.500    0.500    2.500    3.000    3.500    0.000 
#    0.000    0.000    0.000   26.250    0.000    1.750 
#    0.000    0.000    0.000    0.000    0.000    0.000 
#
# Total GULP energy -178312.968698 kJ/mol
# GULP energy per Si atom -5572.280272 kJ/mol
# Density = 1.812673 g / cm^3
# Si number density = 18.168078 Si / 1000 Ang^3
#
#
#
# Elastic Constant Matrix: (Units=GPa)
#
#
# Indices 1 2 3 4 5 6 
#
# 1 80.1496 14.1382 -8.2877 0.0000 0.0000 0.0000
# 2 14.1382 122.9154 -10.4683 0.0000 0.0000 0.0000
# 3 -8.2877 -10.4683 78.0838 0.0000 0.0000 0.0000
# 4 0.0000 0.0000 0.0000 -7.6141 0.0000 0.0000
# 5 0.0000 0.0000 0.0000 0.0000 25.0900 0.0000
# 6 0.0000 0.0000 0.0000 0.0000 0.0000 13.1734
#
#
#
# Elastic Compliance Matrix: (Units=1/GPa)
#
#
# Indices 1 2 3 4 5 6 
#
# 1 0.012841 -0.001377 0.001178 0.000000 0.000000 0.000000
# 2 -0.001377 0.008377 0.000977 0.000000 0.000000 0.000000
# 3 0.001178 0.000977 0.013063 0.000000 0.000000 0.000000
# 4 0.000000 0.000000 0.000000 -0.131335 0.000000 0.000000
# 5 0.000000 0.000000 0.000000 0.000000 0.039857 0.000000
# 6 0.000000 0.000000 0.000000 0.000000 0.000000 0.075910
#
#
# Mechanical properties :
#
#
# Convention : Reuss Voigt Hill
#
# Bulk Modulus (GPa) = 27.90278 30.21258 29.05768
# Shear Modulus (GPa) = 171.80917 25.18096 98.49506
#
# Velocity S-wave (km/s) = 9.73508 3.72694 7.37095
# Velocity P-wave (km/s) = 11.90604 5.93175 9.40584
#
# Compressibility (1/GPa) = 0.03583873
#
# Stress axis : x y z
#
# Youngs Moduli (GPa) = 77.87336 119.37111 76.55322
#
# Poissons Ratio (x) = 0.16434 -0.09021
# Poissons Ratio (y) = 0.10721 -0.07479
# Poissons Ratio (z) = -0.09177 -0.11662
#
# Static dielectric constant tensor:
#      x y z
#    x 1.586790 0.000000 0.000000 
#    y 0.000000 1.680540 0.000000 
#    z 0.000000 0.000000 1.659220 
# 
# From -- ./inp_files/2242.got.cif
#   From: 2010.05.17/outbox.cif.g08.bks.cpg/sg64_2_cif.got.tgz:2242.got - 2010.06.03 16:29:19.
