data_PCOD9476210
_publ_section_title
;
Structure prediction by ZEFSAII (Michael W. Deem and Ramdas Pophale) SiO2 
 PCOD9476210
Probable space group: C M C M
;
_chemical_formula_sum "Si O2"
_cell_formula_units_Z 56
_cell_length_a 15.000000
_cell_length_b 24.000000
_cell_length_c 15.000000
_cell_angle_alpha 90.000000
_cell_angle_beta 90.000000
_cell_angle_gamma 90.000000
_cell_volume 5400.000000
_symmetry_space_group_name_H-M "C M C M"
_symmetry_group_IT_number 63
_symmetry_cell_setting 'orthorhombic'
loop_
_space_group_symop_operation_xyz
x,y,z
-x,-y,1/2+z
x,-y,-z
-x,y,1/2-z
-x,-y,-z
x,y,1/2-z
-x,y,z
x,-y,1/2+z
1/2+x,1/2+y,z
1/2-x,1/2-y,1/2+z
1/2+x,1/2-y,-z
1/2-x,1/2+y,1/2-z
1/2-x,1/2-y,-z
1/2+x,1/2+y,1/2-z
1/2-x,1/2+y,z
1/2+x,1/2-y,1/2+z
loop_
_atom_site_type_symbol
_atom_site_label
_atom_site_fract_x
_atom_site_fract_y
_atom_site_fract_z
Si Si1 0.277462 0.471260 0.851982
Si Si2 0.104105 0.930171 0.354571
Si Si3 0.402677 0.682690 0.964239
Si Si4 0.899800 0.473918 0.401939
Si Si5 0.759777 0.236899 0.851442
Si Si6 0.101745 0.349354 0.143623
Si Si7 0.836765 0.149896 0.352056
O O1 0.308610 0.470104 0.750000
O O2 0.335912 0.520423 0.893670
O O3 0.175936 0.490791 0.854054
O O4 0.295868 0.408965 0.882789
O O5 0.127050 0.919361 0.250000
O O6 0.115623 0.874469 0.410836
O O7 0.000000 0.946213 0.357749
O O8 0.500000 0.702987 0.938352
O O9 0.329762 0.724516 0.927932
O O10 0.400151 0.669669 0.068795
O O11 0.902218 0.500000 0.500000
O O12 0.875126 0.408386 0.401695
O O13 0.000000 0.477173 0.363776
O O14 0.789448 0.221207 0.750000
O O15 0.672015 0.199673 0.871302
O O16 0.736318 0.301638 0.849425
O O17 0.102917 0.360491 0.250000
O O18 0.000000 0.333850 0.118995
O O19 0.873048 0.146350 0.250000
#
# Coordination Sequence:
#
# PCOD9476210 Si02
#       7
#    16  16  16  16  16  16  16
#     4  10  21  37  59  83 113 160 199 235 294 353
#     4   9  19  36  59  91 123 149 191 247 300 355
#     4  11  23  38  61  91 118 154 199 245 300 352
#     4  10  21  34  52  84 117 146 184 235 293 350
#     4  10  21  40  64  89 119 153 193 248 302 349
#     4   9  18  34  59  88 113 144 190 241 296 351
#     4  10  24  42  58  82 118 161 206 244 287 350
#
# _framework density 10.370369999999999
#
# number of rings (size 3 to 8) (size 9 to 14) (size 15 to 20)
#    0.000    2.143    0.000    2.143    4.000    5.429 
#    0.000    5.000    0.000    2.571    0.000    0.000 
#    0.000    0.000    0.000    0.000    0.000    0.000 
#
# Total GULP energy -312392.090075 kJ/mol
# GULP energy per Si atom -5578.430180 kJ/mol
# Density = 1.034677 g / cm^3
# Si number density = 10.370370 Si / 1000 Ang^3
#
#
#
# Elastic Constant Matrix: (Units=GPa)
#
#
# Indices 1 2 3 4 5 6 
#
# 1 37.2950 32.4280 27.4901 0.0000 0.0000 0.0000
# 2 32.4280 36.4299 14.4987 0.0000 0.0000 0.0000
# 3 27.4901 14.4987 78.8073 0.0000 0.0000 0.0000
# 4 0.0000 0.0000 0.0000 12.6048 0.0000 0.0000
# 5 0.0000 0.0000 0.0000 0.0000 -168.0822 0.0000
# 6 0.0000 0.0000 0.0000 0.0000 0.0000 -56.4007
#
#
#
# Elastic Compliance Matrix: (Units=1/GPa)
#
#
# Indices 1 2 3 4 5 6 
#
# 1 0.181256 -0.146940 -0.036193 0.000000 0.000000 0.000000
# 2 -0.146940 0.148740 0.023892 0.000000 0.000000 0.000000
# 3 -0.036193 0.023892 0.020919 0.000000 0.000000 0.000000
# 4 0.000000 0.000000 0.000000 0.079335 0.000000 0.000000
# 5 0.000000 0.000000 0.000000 0.000000 -0.005949 0.000000
# 6 0.000000 0.000000 0.000000 0.000000 0.000000 -0.017730
#
#
# Mechanical properties :
#
#
# Convention : Reuss Voigt Hill
#
# Bulk Modulus (GPa) = 30.83421 33.48509 32.15965
# Shear Modulus (GPa) = 6.79474 -37.16792 -15.18659
#
# Velocity S-wave (km/s) = 1.81195 -4.23782 -2.70887
# Velocity P-wave (km/s) = 4.39048 2.78673 2.39900
#
# Compressibility (1/GPa) = 0.03243151
#
# Stress axis : x y z
#
# Youngs Moduli (GPa) = 5.51706 6.72316 47.80387
#
# Poissons Ratio (x) = 0.98790 1.73018
# Poissons Ratio (y) = 0.81068 -1.14213
# Poissons Ratio (z) = 0.19968 -0.16063
#
# Static dielectric constant tensor:
#      x y z
#    x 1.753800 0.000000 0.000000 
#    y 0.000000 1.741250 0.000000 
#    z 0.000000 0.000000 1.785510 
# 
# From -- ./inp_files/32263.got.cif
#   From: 2010.05.17/outbox.ucp.g08.bks.cvg/sg63_17_cif.got.tgz:32263.got - 2010.06.11 16:32:19.
