data_PCOD9476087
_publ_section_title
;
Structure prediction by ZEFSAII (Michael W. Deem and Ramdas Pophale) SiO2 
 PCOD9476087
Probable space group: C M C M
;
_chemical_formula_sum "Si O2"
_cell_formula_units_Z 48
_cell_length_a 24.000000
_cell_length_b 24.000000
_cell_length_c 9.000000
_cell_angle_alpha 90.000000
_cell_angle_beta 90.000000
_cell_angle_gamma 90.000000
_cell_volume 5184.000000
_symmetry_space_group_name_H-M "C M C M"
_symmetry_group_IT_number 63
_symmetry_cell_setting 'orthorhombic'
loop_
_space_group_symop_operation_xyz
x,y,z
-x,-y,1/2+z
x,-y,-z
-x,y,1/2-z
-x,-y,-z
x,y,1/2-z
-x,y,z
x,-y,1/2+z
1/2+x,1/2+y,z
1/2-x,1/2-y,1/2+z
1/2+x,1/2-y,-z
1/2-x,1/2+y,1/2-z
1/2-x,1/2-y,-z
1/2+x,1/2+y,1/2-z
1/2-x,1/2+y,z
1/2+x,1/2-y,1/2+z
loop_
_atom_site_type_symbol
_atom_site_label
_atom_site_fract_x
_atom_site_fract_y
_atom_site_fract_z
Si Si1 0.340022 0.238542 0.073430
Si Si2 0.939064 0.061822 0.571806
Si Si3 0.567866 0.056697 0.079443
Si Si4 0.232865 0.831970 0.926569
Si Si5 0.434708 0.173004 0.926997
Si Si6 0.827363 0.060187 0.426887
O O1 0.347480 0.241321 0.250000
O O2 0.294029 0.190792 0.037927
O O3 0.311657 0.294520 0.013537
O O4 0.396796 0.221109 0.995178
O O5 0.932237 0.058044 0.750000
O O6 0.884115 0.086162 0.496135
O O7 0.000000 0.087950 0.542373
O O8 0.941247 0.000000 0.500000
O O9 0.586600 0.058686 0.250000
O O10 0.500000 0.054914 0.079645
O O11 0.583067 0.113366 0.995257
O O12 0.586937 0.000000 0.000000
O O13 0.224179 0.823072 0.750000
O O14 0.221909 0.896533 0.957378
O O15 0.428987 0.171146 0.750000
O O16 0.500000 0.180979 0.963135
O O17 0.834382 0.053778 0.250000
O O18 0.818536 0.000000 0.500000
#
# Coordination Sequence:
#
# PCOD9476087 Si02
#       6
#    16  16  16  16  16  16
#     4  10  20  36  59  81 102 133 176 222 262 308
#     4   9  16  26  42  66  97 132 169 205 243 293
#     4   9  16  27  45  70 101 137 176 214 255 308
#     4   9  20  38  57  78 104 136 174 215 260 311
#     4  10  20  34  53  78 109 142 175 215 265 318
#     4  10  19  32  52  77 106 136 168 209 256 307
#
# _framework density 9.2592590000000001
#
# number of rings (size 3 to 8) (size 9 to 14) (size 15 to 20)
#    0.000    2.500    0.000    3.500    0.000    6.000 
#    0.000    1.667    0.000    3.000    0.000    0.000 
#    0.000    0.000    0.000    0.000    0.000    0.000 
#
# Total GULP energy -267600.481627 kJ/mol
# GULP energy per Si atom -5575.010034 kJ/mol
# Density = 0.923818 g / cm^3
# Si number density = 9.259259 Si / 1000 Ang^3
#
#
#
# Elastic Constant Matrix: (Units=GPa)
#
#
# Indices 1 2 3 4 5 6 
#
# 1 47.6082 38.1010 39.4089 0.0000 0.0000 0.0000
# 2 38.1010 54.1210 37.0985 0.0000 0.0000 0.0000
# 3 39.4089 37.0985 76.8297 0.0000 0.0000 0.0000
# 4 0.0000 0.0000 0.0000 27.2367 0.0000 0.0000
# 5 0.0000 0.0000 0.0000 0.0000 19.8631 0.0000
# 6 0.0000 0.0000 0.0000 0.0000 0.0000 20.7867
#
#
#
# Elastic Compliance Matrix: (Units=1/GPa)
#
#
# Indices 1 2 3 4 5 6 
#
# 1 0.057644 -0.030363 -0.014906 0.000000 0.000000 0.000000
# 2 -0.030363 0.043612 -0.005484 0.000000 0.000000 0.000000
# 3 -0.014906 -0.005484 0.023310 0.000000 0.000000 0.000000
# 4 0.000000 0.000000 0.000000 0.036715 0.000000 0.000000
# 5 0.000000 0.000000 0.000000 0.000000 0.050345 0.000000
# 6 0.000000 0.000000 0.000000 0.000000 0.000000 0.048108
#
#
# Mechanical properties :
#
#
# Convention : Reuss Voigt Hill
#
# Bulk Modulus (GPa) = 43.36865 45.30840 44.33853
# Shear Modulus (GPa) = 13.55282 17.84067 15.69674
#
# Velocity S-wave (km/s) = 2.70821 3.10723 2.91456
# Velocity P-wave (km/s) = 5.76621 6.11497 5.94314
#
# Compressibility (1/GPa) = 0.02305813
#
# Stress axis : x y z
#
# Youngs Moduli (GPa) = 17.34797 22.92941 42.89993
#
# Poissons Ratio (x) = 0.69621 0.63948
# Poissons Ratio (y) = 0.52674 0.23528
# Poissons Ratio (z) = 0.25859 0.12575
#
# Static dielectric constant tensor:
#      x y z
#    x 1.671080 0.000000 0.000000 
#    y 0.000000 1.638540 0.000000 
#    z 0.000000 0.000000 1.618040 
# 
# From -- ./inp_files/10440.got.cif
#   From: 2010.05.17/outbox.ucp.g08.bks.cvg/sg63_6_cif.got.tgz:10440.got - 2010.06.11 16:32:19.
