data_PCOD9476255
_publ_section_title
;
Structure prediction by ZEFSAII (Michael W. Deem and Ramdas Pophale) SiO2 
 PCOD9476255
Probable space group: C M C M
;
_chemical_formula_sum "Si O2"
_cell_formula_units_Z 48
_cell_length_a 18.000000
_cell_length_b 12.000000
_cell_length_c 24.000000
_cell_angle_alpha 90.000000
_cell_angle_beta 90.000000
_cell_angle_gamma 90.000000
_cell_volume 5184.000000
_symmetry_space_group_name_H-M "C M C M"
_symmetry_group_IT_number 63
_symmetry_cell_setting 'orthorhombic'
loop_
_space_group_symop_operation_xyz
x,y,z
-x,-y,1/2+z
x,-y,-z
-x,y,1/2-z
-x,-y,-z
x,y,1/2-z
-x,y,z
x,-y,1/2+z
1/2+x,1/2+y,z
1/2-x,1/2-y,1/2+z
1/2+x,1/2-y,-z
1/2-x,1/2+y,1/2-z
1/2-x,1/2-y,-z
1/2+x,1/2+y,1/2-z
1/2-x,1/2+y,z
1/2+x,1/2-y,1/2+z
loop_
_atom_site_type_symbol
_atom_site_label
_atom_site_fract_x
_atom_site_fract_y
_atom_site_fract_z
Si Si1 0.841264 0.022235 0.432257
Si Si2 0.084665 0.358466 0.948872
Si Si3 0.591399 0.770818 0.425882
Si Si4 0.179036 0.526789 0.622220
Si Si5 0.208497 0.465170 0.750000
Si Si6 0.188116 0.804954 0.250000
Si Si7 0.915398 0.161257 0.858856
O O1 0.870051 0.148991 0.424271
O O2 0.838485 0.000000 0.500000
O O3 0.763247 0.988279 0.401674
O O4 0.897878 0.946442 0.396669
O O5 0.134487 0.452682 0.922232
O O6 0.090505 0.258970 0.904441
O O7 0.000000 0.399012 0.950236
O O8 0.102736 0.316526 0.010876
O O9 0.500000 0.768028 0.416194
O O10 0.638995 0.852437 0.385154
O O11 0.173834 0.484795 0.687086
O O12 0.221972 0.325680 0.750000
O O13 0.263017 0.578111 0.750000
O O14 0.139141 0.816796 0.306645
O O15 0.000000 0.156755 0.837784
#
# Coordination Sequence:
#
# PCOD9476255 Si02
#       7
#    16  16  16  16   8   8  16
#     4  12  25  40  69 104 139 174 225 282 345 418
#     4  10  21  41  68  97 134 177 219 271 338 411
#     4  11  25  44  68 100 144 183 218 277 356 421
#     4  12  26  43  66  99 135 177 233 281 345 408
#     4  12  28  44  74  96 138 177 237 296 350 398
#     4  12  25  50  66 100 131 187 233 290 343 412
#     4  11  23  41  68  98 132 176 228 276 331 411
#
# _framework density 9.2592590000000001
#
# number of rings (size 3 to 8) (size 9 to 14) (size 15 to 20)
#    0.000    0.667    5.000    2.750    4.667    3.333 
#    0.000    1.667    0.000    0.000    0.000    0.000 
#    0.000    0.000    0.000    0.000    0.000    0.000 
#
# Total GULP energy -267335.772766 kJ/mol
# GULP energy per Si atom -5569.495266 kJ/mol
# Density = 0.923818 g / cm^3
# Si number density = 9.259259 Si / 1000 Ang^3
#
#
#
# Elastic Constant Matrix: (Units=GPa)
#
#
# Indices 1 2 3 4 5 6 
#
# 1 64.6837 58.3189 23.2490 0.0000 0.0000 0.0000
# 2 58.3189 144.1478 19.5613 0.0000 0.0000 0.0000
# 3 23.2490 19.5613 105.8731 0.0000 0.0000 0.0000
# 4 0.0000 0.0000 0.0000 38.2626 0.0000 0.0000
# 5 0.0000 0.0000 0.0000 0.0000 -26.2000 0.0000
# 6 0.0000 0.0000 0.0000 0.0000 0.0000 34.6728
#
#
#
# Elastic Compliance Matrix: (Units=1/GPa)
#
#
# Indices 1 2 3 4 5 6 
#
# 1 0.025766 -0.009905 -0.003828 0.000000 0.000000 0.000000
# 2 -0.009905 0.010923 0.000157 0.000000 0.000000 0.000000
# 3 -0.003828 0.000157 0.010257 0.000000 0.000000 0.000000
# 4 0.000000 0.000000 0.000000 0.026135 0.000000 0.000000
# 5 0.000000 0.000000 0.000000 0.000000 -0.038168 0.000000
# 6 0.000000 0.000000 0.000000 0.000000 0.000000 0.028841
#
#
# Mechanical properties :
#
#
# Convention : Reuss Voigt Hill
#
# Bulk Modulus (GPa) = 50.51997 57.44031 53.98014
# Shear Modulus (GPa) = 51.27976 23.58546 37.43261
#
# Velocity S-wave (km/s) = 5.26794 3.57265 4.50083
# Velocity P-wave (km/s) = 8.02132 6.93567 7.49817
#
# Compressibility (1/GPa) = 0.01979415
#
# Stress axis : x y z
#
# Youngs Moduli (GPa) = 38.81098 91.54740 97.49541
#
# Poissons Ratio (x) = 0.90676 0.37321
# Poissons Ratio (y) = 0.38442 -0.01529
# Poissons Ratio (z) = 0.14857 -0.01436
#
# Static dielectric constant tensor:
#      x y z
#    x 1.676990 0.000000 0.000000 
#    y 0.000000 1.721530 0.000000 
#    z 0.000000 0.000000 1.605470 
# 
# From -- ./inp_files/63762.got.cif
#   From: 2010.05.17/outbox.ucp.g08.bks.cvg/sg63_32_cif.got.tgz:63762.got - 2010.06.11 16:32:19.
