data_PCOD9476429
_publ_section_title
;
Structure prediction by ZEFSAII (Michael W. Deem and Ramdas Pophale) SiO2 
 PCOD9476429
Probable space group: C M C A
;
_chemical_formula_sum "Si O2"
_cell_formula_units_Z 80
_cell_length_a 8.463093
_cell_length_b 18.677966
_cell_length_c 27.470289
_cell_angle_alpha 90.000000
_cell_angle_beta 90.000000
_cell_angle_gamma 90.000000
_cell_volume 4342.320973
_symmetry_space_group_name_H-M "C M C A"
_symmetry_group_IT_number 64
_symmetry_cell_setting 'orthorhombic'
loop_
_space_group_symop_operation_xyz
x,y,z
-x,1/2-y,1/2+z
x,-y,-z
-x,1/2+y,1/2-z
-x,-y,-z
x,1/2+y,1/2-z
-x,y,z
x,1/2-y,1/2+z
1/2+x,1/2+y,z
1/2-x,-y,1/2+z
1/2+x,1/2-y,-z
1/2-x,y,1/2-z
1/2-x,1/2-y,-z
1/2+x,y,1/2-z
1/2-x,1/2+y,z
1/2+x,-y,1/2+z
loop_
_atom_site_type_symbol
_atom_site_label
_atom_site_fract_x
_atom_site_fract_y
_atom_site_fract_z
Si Si1 0.312310 0.421343 0.300000
Si Si2 0.811840 0.914952 0.800630
Si Si3 0.309026 0.084519 0.597391
Si Si4 0.807475 0.417597 0.593341
Si Si5 0.191238 0.830660 0.001095
O O1 0.500000 0.427204 0.297691
O O2 0.250000 0.386615 0.250000
O O3 0.237935 0.501328 0.300902
O O4 0.259892 0.388354 0.351353
O O5 0.750000 0.882939 0.750000
O O6 0.756758 0.887783 0.853647
O O7 0.000000 0.911392 0.799266
O O8 0.500000 0.085844 0.600758
O O9 0.258718 0.129799 0.550660
O O10 0.261441 0.001233 0.590104
O O11 0.752769 0.373310 0.546821
O O12 0.000000 0.416648 0.592929
O O13 0.000000 0.831653 0.000505
O O14 0.250000 0.750000 0.000000
#
# Coordination Sequence:
#
# PCOD9476429 Si02
#       5
#    16  16  16  16  16
#     4  10  17  26  43  69 100 127 153 190 236 284
#     4   9  15  25  43  68  97 125 155 191 233 280
#     4   9  17  31  51  72  94 124 163 201 235 278
#     4   8  15  29  50  72  93 124 163 197 231 276
#     4  10  20  34  51  70  95 126 161 201 244 289
#
# _framework density 18.423327
#
# number of rings (size 3 to 8) (size 9 to 14) (size 15 to 20)
#    0.000    2.800    0.000    5.400    0.000    3.200 
#    0.000    5.000    0.000    7.200    0.000    5.600 
#    0.000    0.000    0.000    0.000    0.000    0.000 
#
# Total GULP energy -222807.994647 kJ/mol
# GULP energy per Si atom -5570.199866 kJ/mol
# Density = 1.838139 g / cm^3
# Si number density = 18.423327 Si / 1000 Ang^3
#
#
#
# Elastic Constant Matrix: (Units=GPa)
#
#
# Indices 1 2 3 4 5 6 
#
# 1 26.1331 8.1556 35.2051 0.0000 0.0000 0.0000
# 2 8.1556 52.2435 68.4368 0.0000 0.0000 0.0000
# 3 35.2051 68.4368 245.5897 0.0000 0.0000 0.0000
# 4 0.0000 0.0000 0.0000 -3.2819 0.0000 0.0000
# 5 0.0000 0.0000 0.0000 0.0000 28.0241 0.0000
# 6 0.0000 0.0000 0.0000 0.0000 0.0000 15.4599
#
#
#
# Elastic Compliance Matrix: (Units=1/GPa)
#
#
# Indices 1 2 3 4 5 6 
#
# 1 0.047610 0.002375 -0.007487 0.000000 0.000000 0.000000
# 2 0.002375 0.030264 -0.008774 0.000000 0.000000 0.000000
# 3 -0.007487 -0.008774 0.007590 0.000000 0.000000 0.000000
# 4 0.000000 0.000000 0.000000 -0.304702 0.000000 0.000000
# 5 0.000000 0.000000 0.000000 0.000000 0.035684 0.000000
# 6 0.000000 0.000000 0.000000 0.000000 0.000000 0.064684
#
#
# Mechanical properties :
#
#
# Convention : Reuss Voigt Hill
#
# Bulk Modulus (GPa) = 17.33319 60.84013 39.08666
# Shear Modulus (GPa) = -69.57147 22.18500 -23.69324
#
# Velocity S-wave (km/s) = -6.15180 3.47389 -3.59004
# Velocity P-wave (km/s) = 6.40553 7.01325 2.01926
#
# Compressibility (1/GPa) = 0.05769279
#
# Stress axis : x y z
#
# Youngs Moduli (GPa) = 21.00391 33.04285 131.75246
#
# Poissons Ratio (x) = -0.07848 0.98639
# Poissons Ratio (y) = -0.04988 1.15597
# Poissons Ratio (z) = 0.15725 0.28991
#
# Static dielectric constant tensor:
#      x y z
#    x 1.633570 0.000000 0.000000 
#    y 0.000000 1.588450 0.000000 
#    z 0.000000 0.000000 1.709430 
# 
# From -- ./inp_files/47804.got.cif
#   From: 2010.05.17/outbox.cif.g08.bks.cpg/sg64_24_cif.got.tgz:47804.got - 2010.06.03 16:29:19.
