data_PCOD9476466
_publ_section_title
;
Structure prediction by ZEFSAII (Michael W. Deem and Ramdas Pophale) SiO2 
 PCOD9476466
Probable space group: C M C A
;
_chemical_formula_sum "Si O2"
_cell_formula_units_Z 104
_cell_length_a 18.949705
_cell_length_b 21.260275
_cell_length_c 14.068872
_cell_angle_alpha 90.000000
_cell_angle_beta 90.000000
_cell_angle_gamma 90.000000
_cell_volume 5668.010024
_symmetry_space_group_name_H-M "C M C A"
_symmetry_group_IT_number 64
_symmetry_cell_setting 'orthorhombic'
loop_
_space_group_symop_operation_xyz
x,y,z
-x,1/2-y,1/2+z
x,-y,-z
-x,1/2+y,1/2-z
-x,-y,-z
x,1/2+y,1/2-z
-x,y,z
x,1/2-y,1/2+z
1/2+x,1/2+y,z
1/2-x,-y,1/2+z
1/2+x,1/2-y,-z
1/2-x,y,1/2-z
1/2-x,1/2-y,-z
1/2+x,y,1/2-z
1/2-x,1/2+y,z
1/2+x,-y,1/2+z
loop_
_atom_site_type_symbol
_atom_site_label
_atom_site_fract_x
_atom_site_fract_y
_atom_site_fract_z
Si Si1 0.314976 0.168017 0.677680
Si Si2 0.579776 0.416004 0.711420
Si Si3 0.421908 0.926053 0.012412
Si Si4 0.178020 0.805616 0.690851
Si Si5 0.215567 0.368294 0.008383
Si Si6 0.669013 0.029771 0.708601
Si Si7 0.788683 0.000000 0.000000
O O1 0.250000 0.171215 0.750000
O O2 0.352862 0.235080 0.684233
O O3 0.275185 0.160281 0.576232
O O4 0.353371 0.102992 0.704637
O O5 0.500000 0.417520 0.749486
O O6 0.574860 0.406304 0.597921
O O7 0.626743 0.356233 0.740393
O O8 0.620610 0.480748 0.734784
O O9 0.500000 0.919514 0.055843
O O10 0.359366 0.885483 0.058433
O O11 0.406425 0.000000 0.000000
O O12 0.250000 0.804698 0.750000
O O13 0.199728 0.828058 0.584888
O O14 0.242905 0.437728 0.981686
O O15 0.750000 0.026856 0.750000
O O16 0.670184 0.009929 0.598012
#
# Coordination Sequence:
#
# PCOD9476466 Si02
#       7
#    16  16  16  16  16  16   8
#     4   9  20  31  48  73 102 130 167 207 255 308
#     4  10  20  33  52  75 100 132 172 212 260 309
#     4   9  17  27  44  73 104 132 164 210 264 315
#     4  10  19  34  52  74 100 136 172 213 259 312
#     4  10  17  28  49  72 103 131 170 212 261 307
#     4  10  19  33  52  77 106 133 169 221 261 309
#     4  10  18  28  48  78  98 132 176 218 264 304
#
# _framework density 18.348590999999999
#
# number of rings (size 3 to 8) (size 9 to 14) (size 15 to 20)
#    0.000    2.308    0.769    3.692    4.308    0.000 
#    0.000    1.154    0.000    3.692    0.000   18.308 
#    0.000    0.000    0.000    0.000    0.000    0.000 
#
# Total GULP energy -289495.458469 kJ/mol
# GULP energy per Si atom -5567.220355 kJ/mol
# Density = 1.830683 g / cm^3
# Si number density = 18.348591 Si / 1000 Ang^3
#
#
#
# Elastic Constant Matrix: (Units=GPa)
#
#
# Indices 1 2 3 4 5 6 
#
# 1 70.9827 46.7154 -4.0827 0.0000 0.0000 0.0000
# 2 46.7154 142.2803 9.8410 0.0000 0.0000 0.0000
# 3 -4.0827 9.8410 46.3655 0.0000 0.0000 0.0000
# 4 0.0000 0.0000 0.0000 10.1887 0.0000 0.0000
# 5 0.0000 0.0000 0.0000 0.0000 9.3407 0.0000
# 6 0.0000 0.0000 0.0000 0.0000 0.0000 -40.9582
#
#
#
# Elastic Compliance Matrix: (Units=1/GPa)
#
#
# Indices 1 2 3 4 5 6 
#
# 1 0.018358 -0.006231 0.002939 0.000000 0.000000 0.000000
# 2 -0.006231 0.009248 -0.002511 0.000000 0.000000 0.000000
# 3 0.002939 -0.002511 0.022360 0.000000 0.000000 0.000000
# 4 0.000000 0.000000 0.000000 0.098148 0.000000 0.000000
# 5 0.000000 0.000000 0.000000 0.000000 0.107058 0.000000
# 6 0.000000 0.000000 0.000000 0.000000 0.000000 -0.024415
#
#
# Mechanical properties :
#
#
# Convention : Reuss Voigt Hill
#
# Bulk Modulus (GPa) = 26.06983 40.50842 33.28913
# Shear Modulus (GPa) = 19.59644 9.52457 14.56050
#
# Velocity S-wave (km/s) = 3.27158 2.28083 2.82006
# Velocity P-wave (km/s) = 5.33947 5.39085 5.36522
#
# Compressibility (1/GPa) = 0.03835851
#
# Stress axis : x y z
#
# Youngs Moduli (GPa) = 54.47359 108.13362 44.72355
#
# Poissons Ratio (x) = 0.67374 -0.13144
# Poissons Ratio (y) = 0.33941 0.11232
# Poissons Ratio (z) = -0.16009 0.27157
#
# Static dielectric constant tensor:
#      x y z
#    x 1.680760 0.000000 0.000000 
#    y 0.000000 1.684480 0.000000 
#    z 0.000000 0.000000 2.276950 
# 
# From -- ./inp_files/26693.got.cif
#   From: 2010.05.17/outbox.cif.g08.bks.cpg/sg64_14_cif.got.tgz:26693.got - 2010.06.03 16:29:19.
