data_PCOD9476575
_publ_section_title
;
Structure prediction by ZEFSAII (Michael W. Deem and Ramdas Pophale) SiO2 
 PCOD9476575
Probable space group: C M C A
;
_chemical_formula_sum "Si O2"
_cell_formula_units_Z 64
_cell_length_a 13.652878
_cell_length_b 23.150150
_cell_length_c 8.562918
_cell_angle_alpha 90.000000
_cell_angle_beta 90.000000
_cell_angle_gamma 90.000000
_cell_volume 2706.448727
_symmetry_space_group_name_H-M "C M C A"
_symmetry_group_IT_number 64
_symmetry_cell_setting 'orthorhombic'
loop_
_space_group_symop_operation_xyz
x,y,z
-x,1/2-y,1/2+z
x,-y,-z
-x,1/2+y,1/2-z
-x,-y,-z
x,1/2+y,1/2-z
-x,y,z
x,1/2-y,1/2+z
1/2+x,1/2+y,z
1/2-x,-y,1/2+z
1/2+x,1/2-y,-z
1/2-x,y,1/2-z
1/2-x,1/2-y,-z
1/2+x,y,1/2-z
1/2-x,1/2+y,z
1/2+x,-y,1/2+z
loop_
_atom_site_type_symbol
_atom_site_label
_atom_site_fract_x
_atom_site_fract_y
_atom_site_fract_z
Si Si1 0.500000 0.695138 0.803514
Si Si2 0.108340 0.606667 0.498536
Si Si3 0.885680 0.529462 0.789231
Si Si4 0.180057 0.906608 0.587758
Si Si5 0.000000 0.323183 0.931462
O O1 0.409697 0.661461 0.886897
O O2 0.500000 0.685814 0.618972
O O3 0.500000 0.761804 0.846548
O O4 0.120849 0.551925 0.613352
O O5 0.207076 0.613399 0.400983
O O6 0.000000 0.599782 0.420747
O O7 0.832583 0.572934 0.906559
O O8 0.000000 0.531090 0.831813
O O9 0.846692 0.465702 0.821550
O O10 0.097398 0.858683 0.611071
#
# Coordination Sequence:
#
# PCOD9476575 Si02
#       5
#     8  16  16  16   8
#     4  10  24  41  66  93 134 182 221 267 328 394
#     4   9  20  39  61  93 136 178 205 264 347 400
#     4  10  17  33  63  99 120 168 214 261 333 406
#     4  11  18  34  69  96 125 161 223 272 324 400
#     4  12  22  40  71  97 125 177 233 275 324 382
#
# _framework density 23.647224999999999
#
# number of rings (size 3 to 8) (size 9 to 14) (size 15 to 20)
#    0.750    1.000    5.000    1.500    0.000    1.000 
#    0.000    2.500   24.750    0.000    0.000    0.000 
#    0.000    0.000    0.000    0.000    0.000    0.000 
#
# Total GULP energy -179141.700519 kJ/mol
# GULP energy per Si atom -5598.178141 kJ/mol
# Density = 2.359340 g / cm^3
# Si number density = 23.647225 Si / 1000 Ang^3
#
#
#
# Elastic Constant Matrix: (Units=GPa)
#
#
# Indices 1 2 3 4 5 6 
#
# 1 240.8006 68.0882 64.0198 0.0000 0.0000 0.0000
# 2 68.0882 165.4733 55.1853 0.0000 0.0000 0.0000
# 3 64.0198 55.1853 82.6445 0.0000 0.0000 0.0000
# 4 0.0000 0.0000 0.0000 46.2205 0.0000 0.0000
# 5 0.0000 0.0000 0.0000 0.0000 39.5688 0.0000
# 6 0.0000 0.0000 0.0000 0.0000 0.0000 -0.0456
#
#
#
# Elastic Compliance Matrix: (Units=1/GPa)
#
#
# Indices 1 2 3 4 5 6 
#
# 1 0.005370 -0.001058 -0.003453 0.000000 0.000000 0.000000
# 2 -0.001058 0.007983 -0.004511 0.000000 0.000000 0.000000
# 3 -0.003453 -0.004511 0.017787 0.000000 0.000000 0.000000
# 4 0.000000 0.000000 0.000000 0.021635 0.000000 0.000000
# 5 0.000000 0.000000 0.000000 0.000000 0.025272 0.000000
# 6 0.000000 0.000000 0.000000 0.000000 0.000000-21.953024
#
#
# Mechanical properties :
#
#
# Convention : Reuss Voigt Hill
#
# Bulk Modulus (GPa) = 76.36148 95.94498 86.15323
# Shear Modulus (GPa) = -0.22881 37.25708 18.51414
#
# Velocity S-wave (km/s) = -0.31140 3.97361 2.80113
# Velocity P-wave (km/s) = 5.67739 7.85585 6.85372
#
# Compressibility (1/GPa) = 0.01309561
#
# Stress axis : x y z
#
# Youngs Moduli (GPa) = 186.21627 125.26559 56.21931
#
# Poissons Ratio (x) = 0.13252 0.19415
# Poissons Ratio (y) = 0.19700 0.25361
# Poissons Ratio (z) = 0.64309 0.56509
#
# Static dielectric constant tensor:
#      x y z
#    x 1.919080 0.000000 0.000000 
#    y 0.000000 1.823210 0.000000 
#    z 0.000000 0.000000 2.012610 
# 
# From -- ./inp_files/5755.got.cif
#   From: 2010.05.17/outbox.cif.g08.bks.cpg/sg64_3_cif.got.tgz:5755.got - 2010.06.03 16:29:19.
