data_PCOD9476920
_publ_section_title
;
Structure prediction by ZEFSAII (Michael W. Deem and Ramdas Pophale) SiO2 
 PCOD9476920
Probable space group: C M C A
;
_chemical_formula_sum "Si O2"
_cell_formula_units_Z 96
_cell_length_a 26.092153
_cell_length_b 10.668806
_cell_length_c 18.510061
_cell_angle_alpha 90.000000
_cell_angle_beta 90.000000
_cell_angle_gamma 90.000000
_cell_volume 5152.684894
_symmetry_space_group_name_H-M "C M C A"
_symmetry_group_IT_number 64
_symmetry_cell_setting 'orthorhombic'
loop_
_space_group_symop_operation_xyz
x,y,z
-x,1/2-y,1/2+z
x,-y,-z
-x,1/2+y,1/2-z
-x,-y,-z
x,1/2+y,1/2-z
-x,y,z
x,1/2-y,1/2+z
1/2+x,1/2+y,z
1/2-x,-y,1/2+z
1/2+x,1/2-y,-z
1/2-x,y,1/2-z
1/2-x,1/2-y,-z
1/2+x,y,1/2-z
1/2-x,1/2+y,z
1/2+x,-y,1/2+z
loop_
_atom_site_type_symbol
_atom_site_label
_atom_site_fract_x
_atom_site_fract_y
_atom_site_fract_z
Si Si1 0.943363 0.627254 0.952904
Si Si2 0.219717 0.321158 0.681631
Si Si3 0.558083 0.897783 0.219308
Si Si4 0.881399 0.851556 0.735642
Si Si5 0.815531 0.398297 0.898048
Si Si6 0.167559 0.821944 0.450351
O O1 0.943561 0.597272 0.867760
O O2 0.892490 0.711112 0.962065
O O3 0.000000 0.680913 0.970714
O O4 0.938218 0.500000 0.000000
O O5 0.250000 0.256501 0.750000
O O6 0.168952 0.378805 0.716422
O O7 0.263196 0.408775 0.647203
O O8 0.197790 0.244712 0.613738
O O9 0.500000 0.880171 0.245923
O O10 0.592804 0.779303 0.241860
O O11 0.581078 0.030644 0.243474
O O12 0.859196 0.844323 0.654329
O O13 0.832812 0.534069 0.924144
O O14 0.807658 0.317209 0.970342
#
# Coordination Sequence:
#
# PCOD9476920 Si02
#       6
#    16  16  16  16  16  16
#     4  10  18  32  57  85 108 141 191 247 293 337
#     4  10  22  33  52  80 112 152 188 233 296 351
#     4  11  22  36  59  88 117 154 194 243 301 355
#     4  11  20  39  56  87 120 152 192 246 297 354
#     4  10  21  33  56  80 109 151 197 246 287 337
#     4  11  18  38  54  81 113 147 199 247 284 348
#
# _framework density 18.631063999999999
#
# number of rings (size 3 to 8) (size 9 to 14) (size 15 to 20)
#    0.000    1.500    5.000    1.000    0.000    4.667 
#    0.000    0.833    0.000    0.000    0.000    1.167 
#    0.000    0.000    0.000    0.000    0.000    0.000 
#
# Total GULP energy -267294.991838 kJ/mol
# GULP energy per Si atom -5568.645663 kJ/mol
# Density = 1.858866 g / cm^3
# Si number density = 18.631064 Si / 1000 Ang^3
#
#
#
# Elastic Constant Matrix: (Units=GPa)
#
#
# Indices 1 2 3 4 5 6 
#
# 1 125.7282 23.9880 36.4670 0.0000 0.0000 0.0000
# 2 23.9880 47.5679 23.8131 0.0000 0.0000 0.0000
# 3 36.4670 23.8131 102.3033 0.0000 0.0000 0.0000
# 4 0.0000 0.0000 0.0000 17.1059 0.0000 0.0000
# 5 0.0000 0.0000 0.0000 0.0000 26.8410 0.0000
# 6 0.0000 0.0000 0.0000 0.0000 0.0000 15.2396
#
#
#
# Elastic Compliance Matrix: (Units=1/GPa)
#
#
# Indices 1 2 3 4 5 6 
#
# 1 0.009345 -0.003446 -0.002529 0.000000 0.000000 0.000000
# 2 -0.003446 0.025067 -0.004606 0.000000 0.000000 0.000000
# 3 -0.002529 -0.004606 0.011748 0.000000 0.000000 0.000000
# 4 0.000000 0.000000 0.000000 0.058459 0.000000 0.000000
# 5 0.000000 0.000000 0.000000 0.000000 0.037256 0.000000
# 6 0.000000 0.000000 0.000000 0.000000 0.000000 0.065618
#
#
# Mechanical properties :
#
#
# Convention : Reuss Voigt Hill
#
# Bulk Modulus (GPa) = 40.00518 49.34840 44.67679
# Shear Modulus (GPa) = 21.09802 24.59273 22.84538
#
# Velocity S-wave (km/s) = 3.36878 3.63710 3.50551
# Velocity P-wave (km/s) = 6.05397 6.64700 6.35740
#
# Compressibility (1/GPa) = 0.02499676
#
# Stress axis : x y z
#
# Youngs Moduli (GPa) = 107.01269 39.89382 85.11761
#
# Poissons Ratio (x) = 0.13749 0.21524
# Poissons Ratio (y) = 0.36882 0.39207
# Poissons Ratio (z) = 0.27061 0.18376
#
# Static dielectric constant tensor:
#      x y z
#    x 1.710710 0.000000 0.000000 
#    y 0.000000 1.603020 0.000000 
#    z 0.000000 0.000000 1.670640 
# 
# From -- ./inp_files/34917.got.cif
#   From: 2010.05.17/outbox.cif.g08.bks.cpg/sg64_18_cif.got.tgz:34917.got - 2010.06.03 16:29:19.
