data_PCOD9476291
_publ_section_title
;
Structure prediction by ZEFSAII (Michael W. Deem and Ramdas Pophale) SiO2 
 PCOD9476291
Probable space group: C M C A
;
_chemical_formula_sum "Si O2"
_cell_formula_units_Z 104
_cell_length_a 17.043537
_cell_length_b 16.352562
_cell_length_c 22.474872
_cell_angle_alpha 90.000000
_cell_angle_beta 90.000000
_cell_angle_gamma 90.000000
_cell_volume 6263.870337
_symmetry_space_group_name_H-M "C M C A"
_symmetry_group_IT_number 64
_symmetry_cell_setting 'orthorhombic'
loop_
_space_group_symop_operation_xyz
x,y,z
-x,1/2-y,1/2+z
x,-y,-z
-x,1/2+y,1/2-z
-x,-y,-z
x,1/2+y,1/2-z
-x,y,z
x,1/2-y,1/2+z
1/2+x,1/2+y,z
1/2-x,-y,1/2+z
1/2+x,1/2-y,-z
1/2-x,y,1/2-z
1/2-x,1/2-y,-z
1/2+x,y,1/2-z
1/2-x,1/2+y,z
1/2+x,-y,1/2+z
loop_
_atom_site_type_symbol
_atom_site_label
_atom_site_fract_x
_atom_site_fract_y
_atom_site_fract_z
Si Si1 0.250000 0.748359 0.250000
Si Si2 0.673598 0.013442 0.169305
Si Si3 0.192442 0.123659 0.841352
Si Si4 0.408518 0.987626 0.701064
Si Si5 0.283358 0.290548 0.440874
Si Si6 0.194804 0.644733 0.350223
Si Si7 0.907273 0.938430 0.444753
O O1 0.201616 0.803746 0.205126
O O2 0.193156 0.693122 0.288438
O O3 0.738744 0.941815 0.172870
O O4 0.634080 0.020242 0.234274
O O5 0.615593 0.984912 0.116703
O O6 0.722862 0.094169 0.150326
O O7 0.113723 0.074603 0.828342
O O8 0.214408 0.161159 0.905199
O O9 0.500000 0.977688 0.709710
O O10 0.373223 0.921601 0.655071
O O11 0.250000 0.250000 0.500000
O O12 0.309958 0.213777 0.400206
O O13 0.352491 0.357550 0.449524
O O14 0.000000 0.918475 0.444844
O O15 0.891574 0.000000 0.500000
#
# Coordination Sequence:
#
# PCOD9476291 Si02
#       7
#     8  16  16  16  16  16  16
#     4  10  14  30  52  72  98 134 172 202 270 286
#     4  10  17  34  54  76 102 142 183 212 252 316
#     4   9  18  32  55  73 103 137 177 219 253 305
#     4  11  20  33  51  80 111 140 176 210 263 324
#     4  10  21  36  58  81 100 136 185 222 262 319
#     4  10  19  32  55  75 108 134 170 223 262 304
#     4  10  21  36  55  78 107 140 176 223 271 313
#
# _framework density 16.603154
#
# number of rings (size 3 to 8) (size 9 to 14) (size 15 to 20)
#    0.000    2.000    3.077    2.308    0.000    0.615 
#    0.000    1.538    0.000    0.923    0.000    0.000 
#    0.000    0.000    0.000    0.000    0.000    0.000 
#
# Total GULP energy -289661.138090 kJ/mol
# GULP energy per Si atom -5570.406502 kJ/mol
# Density = 1.656536 g / cm^3
# Si number density = 16.603154 Si / 1000 Ang^3
#
#
#
# Elastic Constant Matrix: (Units=GPa)
#
#
# Indices 1 2 3 4 5 6 
#
# 1 79.1892 42.0010 41.2316 0.0000 0.0000 0.0000
# 2 42.0010 108.5166 47.3361 0.0000 0.0000 0.0000
# 3 41.2316 47.3361 104.3906 0.0000 0.0000 0.0000
# 4 0.0000 0.0000 0.0000 20.1816 0.0000 0.0000
# 5 0.0000 0.0000 0.0000 0.0000 16.8733 0.0000
# 6 0.0000 0.0000 0.0000 0.0000 0.0000 15.1739
#
#
#
# Elastic Compliance Matrix: (Units=1/GPa)
#
#
# Indices 1 2 3 4 5 6 
#
# 1 0.017648 -0.004724 -0.004828 0.000000 0.000000 0.000000
# 2 -0.004724 0.012752 -0.003916 0.000000 0.000000 0.000000
# 3 -0.004828 -0.003916 0.013262 0.000000 0.000000 0.000000
# 4 0.000000 0.000000 0.000000 0.049550 0.000000 0.000000
# 5 0.000000 0.000000 0.000000 0.000000 0.059265 0.000000
# 6 0.000000 0.000000 0.000000 0.000000 0.000000 0.065903
#
#
# Mechanical properties :
#
#
# Convention : Reuss Voigt Hill
#
# Bulk Modulus (GPa) = 59.79362 61.47041 60.63202
# Shear Modulus (GPa) = 19.92886 21.21428 20.57157
#
# Velocity S-wave (km/s) = 3.46830 3.57841 3.52378
# Velocity P-wave (km/s) = 7.22014 7.36051 7.29066
#
# Compressibility (1/GPa) = 0.01672419
#
# Stress axis : x y z
#
# Youngs Moduli (GPa) = 56.66504 78.41825 75.40175
#
# Poissons Ratio (x) = 0.37048 0.36404
# Poissons Ratio (y) = 0.26771 0.29531
# Poissons Ratio (z) = 0.27358 0.30712
#
# Static dielectric constant tensor:
#      x y z
#    x 1.558240 0.000000 0.000000 
#    y 0.000000 1.585350 0.000000 
#    z 0.000000 0.000000 1.573090 
# 
# From -- ./inp_files/45877.got.cif
#   From: 2010.05.17/outbox.cif.g08.bks.cpg/sg64_23_cif.got.tgz:45877.got - 2010.06.03 16:29:19.
