data_PCOD9476921
_publ_section_title
;
Structure prediction by ZEFSAII (Michael W. Deem and Ramdas Pophale) SiO2 
 PCOD9476921
Probable space group: C M C A
;
_chemical_formula_sum "Si O2"
_cell_formula_units_Z 96
_cell_length_a 27.468180
_cell_length_b 17.502199
_cell_length_c 9.223339
_cell_angle_alpha 90.000000
_cell_angle_beta 90.000000
_cell_angle_gamma 90.000000
_cell_volume 4434.152990
_symmetry_space_group_name_H-M "C M C A"
_symmetry_group_IT_number 64
_symmetry_cell_setting 'orthorhombic'
loop_
_space_group_symop_operation_xyz
x,y,z
-x,1/2-y,1/2+z
x,-y,-z
-x,1/2+y,1/2-z
-x,-y,-z
x,1/2+y,1/2-z
-x,y,z
x,1/2-y,1/2+z
1/2+x,1/2+y,z
1/2-x,-y,1/2+z
1/2+x,1/2-y,-z
1/2-x,y,1/2-z
1/2-x,1/2-y,-z
1/2+x,y,1/2-z
1/2-x,1/2+y,z
1/2+x,-y,1/2+z
loop_
_atom_site_type_symbol
_atom_site_label
_atom_site_fract_x
_atom_site_fract_y
_atom_site_fract_z
Si Si1 0.630786 0.241956 0.686113
Si Si2 0.944688 0.860267 0.623677
Si Si3 0.378044 0.591605 0.626994
Si Si4 0.729174 0.128157 0.906476
Si Si5 0.694737 0.196473 0.411913
Si Si6 0.055494 0.992707 0.829082
O O1 0.580976 0.279283 0.636687
O O2 0.621225 0.175859 0.801280
O O3 0.659960 0.207107 0.551339
O O4 0.663167 0.308033 0.765149
O O5 0.913204 0.908225 0.510043
O O6 0.000000 0.854925 0.574779
O O7 0.943093 0.905513 0.774925
O O8 0.322002 0.585073 0.576615
O O9 0.401652 0.536738 0.746082
O O10 0.750000 0.103688 0.750000
O O11 0.719365 0.219917 0.891281
O O12 0.767263 0.130780 0.040435
O O13 0.000000 0.020541 0.791124
O O14 0.061445 0.000000 0.000000
#
# Coordination Sequence:
#
# PCOD9476921 Si02
#       6
#    16  16  16  16  16  16
#     4  11  21  38  61  98 124 164 204 257 313 365
#     4  11  24  42  62  90 125 164 208 253 313 379
#     4  11  22  39  63  93 124 166 204 256 312 371
#     4  10  18  32  57  89 119 159 201 245 295 368
#     4  10  19  34  55  90 126 159 200 249 300 365
#     4  10  24  44  67  89 117 165 215 261 316 378
#
# _framework density 21.650133
#
# number of rings (size 3 to 8) (size 9 to 14) (size 15 to 20)
#    0.000    1.500    6.667    1.000    2.333    2.667 
#    0.000    0.000    0.000    6.000    0.000    0.000 
#    0.000    0.000    0.000    0.000    0.000    0.000 
#
# Total GULP energy -267877.739879 kJ/mol
# GULP energy per Si atom -5580.786247 kJ/mol
# Density = 2.160086 g / cm^3
# Si number density = 21.650133 Si / 1000 Ang^3
#
#
#
# Elastic Constant Matrix: (Units=GPa)
#
#
# Indices 1 2 3 4 5 6 
#
# 1 152.7676 27.6599 31.9569 0.0000 0.0000 0.0000
# 2 27.6599 33.3643 3.7089 0.0000 0.0000 0.0000
# 3 31.9569 3.7089 61.5439 0.0000 0.0000 0.0000
# 4 0.0000 0.0000 0.0000 23.1019 0.0000 0.0000
# 5 0.0000 0.0000 0.0000 0.0000 33.2007 0.0000
# 6 0.0000 0.0000 0.0000 0.0000 0.0000 18.6505
#
#
#
# Elastic Compliance Matrix: (Units=1/GPa)
#
#
# Indices 1 2 3 4 5 6 
#
# 1 0.008607 -0.006683 -0.004066 0.000000 0.000000 0.000000
# 2 -0.006683 0.035364 0.001339 0.000000 0.000000 0.000000
# 3 -0.004066 0.001339 0.018279 0.000000 0.000000 0.000000
# 4 0.000000 0.000000 0.000000 0.043286 0.000000 0.000000
# 5 0.000000 0.000000 0.000000 0.000000 0.030120 0.000000
# 6 0.000000 0.000000 0.000000 0.000000 0.000000 0.053618
#
#
# Mechanical properties :
#
#
# Convention : Reuss Voigt Hill
#
# Bulk Modulus (GPa) = 23.02605 41.59191 32.30898
# Shear Modulus (GPa) = 22.46480 27.28062 24.87271
#
# Velocity S-wave (km/s) = 3.22472 3.55359 3.39314
# Velocity P-wave (km/s) = 4.95214 6.00750 5.50517
#
# Compressibility (1/GPa) = 0.04342908
#
# Stress axis : x y z
#
# Youngs Moduli (GPa) = 116.19110 28.27752 54.70676
#
# Poissons Ratio (x) = 0.18898 0.22245
# Poissons Ratio (y) = 0.77651 -0.07325
# Poissons Ratio (z) = 0.47246 -0.03786
#
# Static dielectric constant tensor:
#      x y z
#    x 1.872750 0.000000 0.000000 
#    y 0.000000 1.771850 0.000000 
#    z 0.000000 0.000000 1.821290 
# 
# From -- ./inp_files/10390.got.cif
#   From: 2010.05.17/outbox.cif.g08.bks.cpg/sg64_6_cif.got.tgz:10390.got - 2010.06.03 16:29:19.
