data_PCOD9476323
_publ_section_title
;
Structure prediction by ZEFSAII (Michael W. Deem and Ramdas Pophale) SiO2 
 PCOD9476323
Probable space group: C M C A
;
_chemical_formula_sum "Si O2"
_cell_formula_units_Z 64
_cell_length_a 5.380430
_cell_length_b 34.199943
_cell_length_c 22.475177
_cell_angle_alpha 90.000000
_cell_angle_beta 90.000000
_cell_angle_gamma 90.000000
_cell_volume 4135.666294
_symmetry_space_group_name_H-M "C M C A"
_symmetry_group_IT_number 64
_symmetry_cell_setting 'orthorhombic'
loop_
_space_group_symop_operation_xyz
x,y,z
-x,1/2-y,1/2+z
x,-y,-z
-x,1/2+y,1/2-z
-x,-y,-z
x,1/2+y,1/2-z
-x,y,z
x,1/2-y,1/2+z
1/2+x,1/2+y,z
1/2-x,-y,1/2+z
1/2+x,1/2-y,-z
1/2-x,y,1/2-z
1/2-x,1/2-y,-z
1/2+x,y,1/2-z
1/2-x,1/2+y,z
1/2+x,-y,1/2+z
loop_
_atom_site_type_symbol
_atom_site_label
_atom_site_fract_x
_atom_site_fract_y
_atom_site_fract_z
Si Si1 0.000000 0.592191 0.411772
Si Si2 0.500000 0.769167 0.575805
Si Si3 0.000000 0.632202 0.284527
Si Si4 0.000000 0.890080 0.515250
Si Si5 0.000000 0.969144 0.443782
Si Si6 0.000000 0.273304 0.714399
Si Si7 0.000000 0.499243 0.572802
Si Si8 0.500000 0.199229 0.018765
O O1 0.750091 0.603653 0.446680
O O2 0.000000 0.545304 0.406995
O O3 0.000000 0.613356 0.349003
O O4 0.500000 0.759949 0.645808
O O5 0.500000 0.730277 0.535090
O O6 0.249063 0.792587 0.557559
O O7 0.250000 0.620687 0.250000
O O8 0.000000 0.679313 0.289223
O O9 0.000000 0.845069 0.495448
O O10 0.000000 0.925097 0.467583
O O11 0.749946 0.978962 0.409062
O O12 0.000000 0.000000 0.500000
O O13 0.250000 0.261715 0.750000
O O14 0.000000 0.500000 0.500000
#
# Coordination Sequence:
#
# PCOD9476323 Si02
#       8
#     8   8   8   8   8   8   8   8
#     4  12  20  29  49  64  93 131 154 185 233 277
#     4  10  20  37  48  68 100 125 165 190 245 282
#     4  10  21  33  42  63  91 115 156 199 222 258
#     4  12  19  28  47  72  90 126 160 178 232 284
#     4  10  16  28  40  62 100 118 141 187 211 263
#     4  10  19  32  51  68  89 122 160 200 233 277
#     4  10  16  29  41  64  91 122 146 181 222 262
#     4  10  21  32  50  69  98 135 152 198 232 303
#
# _framework density 15.475137
#
# number of rings (size 3 to 8) (size 9 to 14) (size 15 to 20)
#    0.000    1.500    5.000    3.750    0.000    2.000 
#    0.000    0.000    0.000    0.000    0.000    0.000 
#    0.000    6.000    0.000    0.000    0.000    0.000 
#
# Total GULP energy -178428.150477 kJ/mol
# GULP energy per Si atom -5575.879702 kJ/mol
# Density = 1.543991 g / cm^3
# Si number density = 15.475137 Si / 1000 Ang^3
#
#
#
# Elastic Constant Matrix: (Units=GPa)
#
#
# Indices 1 2 3 4 5 6 
#
# 1 162.9103 32.4926 29.5737 0.0000 0.0000 0.0000
# 2 32.4926 78.6973 7.3495 0.0000 0.0000 0.0000
# 3 29.5737 7.3495 46.6937 0.0000 0.0000 0.0000
# 4 0.0000 0.0000 0.0000 16.1831 0.0000 0.0000
# 5 0.0000 0.0000 0.0000 0.0000 18.1568 0.0000
# 6 0.0000 0.0000 0.0000 0.0000 0.0000 -100.1399
#
#
#
# Elastic Compliance Matrix: (Units=1/GPa)
#
#
# Indices 1 2 3 4 5 6 
#
# 1 0.007452 -0.002675 -0.004299 0.000000 0.000000 0.000000
# 2 -0.002675 0.013857 -0.000487 0.000000 0.000000 0.000000
# 3 -0.004299 -0.000487 0.024215 0.000000 0.000000 0.000000
# 4 0.000000 0.000000 0.000000 0.061793 0.000000 0.000000
# 5 0.000000 0.000000 0.000000 0.000000 0.055076 0.000000
# 6 0.000000 0.000000 0.000000 0.000000 0.000000 -0.009986
#
#
# Mechanical properties :
#
#
# Convention : Reuss Voigt Hill
#
# Bulk Modulus (GPa) = 32.67646 47.45920 40.06783
# Shear Modulus (GPa) = 28.16419 1.43236 14.79827
#
# Velocity S-wave (km/s) = 4.27073 0.96312 3.09570
# Velocity P-wave (km/s) = 6.74390 5.65433 6.22300
#
# Compressibility (1/GPa) = 0.03060307
#
# Stress axis : x y z
#
# Youngs Moduli (GPa) = 134.18563 72.16567 41.29590
#
# Poissons Ratio (x) = 0.19308 0.17753
# Poissons Ratio (y) = 0.35901 0.02009
# Poissons Ratio (z) = 0.57685 0.03511
#
# Static dielectric constant tensor:
#      x y z
#    x 1.540280 0.000000 0.000000 
#    y 0.000000 1.506900 0.000000 
#    z 0.000000 0.000000 1.477180 
# 
# From -- ./inp_files/28726.got.cif
#   From: 2010.05.17/outbox.cif.g08.bks.cpg/sg64_15_cif.got.tgz:28726.got - 2010.06.03 16:29:19.
