data_PCOD9476425
_publ_section_title
;
Structure prediction by ZEFSAII (Michael W. Deem and Ramdas Pophale) SiO2 
 PCOD9476425
Probable space group: C M C A
;
_chemical_formula_sum "Si O2"
_cell_formula_units_Z 112
_cell_length_a 19.004416
_cell_length_b 21.980694
_cell_length_c 17.400089
_cell_angle_alpha 90.000000
_cell_angle_beta 90.000000
_cell_angle_gamma 90.000000
_cell_volume 7268.543576
_symmetry_space_group_name_H-M "C M C A"
_symmetry_group_IT_number 64
_symmetry_cell_setting 'orthorhombic'
loop_
_space_group_symop_operation_xyz
x,y,z
-x,1/2-y,1/2+z
x,-y,-z
-x,1/2+y,1/2-z
-x,-y,-z
x,1/2+y,1/2-z
-x,y,z
x,1/2-y,1/2+z
1/2+x,1/2+y,z
1/2-x,-y,1/2+z
1/2+x,1/2-y,-z
1/2-x,y,1/2-z
1/2-x,1/2-y,-z
1/2+x,y,1/2-z
1/2-x,1/2+y,z
1/2+x,-y,1/2+z
loop_
_atom_site_type_symbol
_atom_site_label
_atom_site_fract_x
_atom_site_fract_y
_atom_site_fract_z
Si Si1 0.916474 0.561252 0.955891
Si Si2 0.080681 0.799538 0.033555
Si Si3 0.920208 0.159056 0.411493
Si Si4 0.182914 0.668656 0.664151
Si Si5 0.084385 0.765439 0.862670
Si Si6 0.825057 0.308470 0.778255
Si Si7 0.655884 0.636197 0.667135
O O1 0.875483 0.579493 0.878909
O O2 0.000000 0.556792 0.939086
O O3 0.894797 0.500000 0.000000
O O4 0.906190 0.615777 0.016717
O O5 0.081044 0.728999 0.060704
O O6 0.132980 0.834374 0.090316
O O7 0.000000 0.821220 0.040502
O O8 0.101161 0.796751 0.944169
O O9 0.863449 0.153650 0.344323
O O10 0.000000 0.146339 0.383887
O O11 0.188223 0.740054 0.688469
O O12 0.261631 0.645704 0.649082
O O13 0.152089 0.635571 0.739946
O O14 0.122136 0.799603 0.792854
O O15 0.113876 0.696558 0.860084
O O16 0.000000 0.763760 0.854157
O O17 0.750000 0.332269 0.750000
#
# Coordination Sequence:
#
# PCOD9476425 Si02
#       7
#    16  16  16  16  16  16  16
#     4  10  20  33  50  69  86 112 154 196 231 266
#     4   9  17  27  42  68  97 122 151 179 214 267
#     4   9  17  29  44  63  91 120 145 184 227 262
#     4   9  18  29  43  68  93 126 147 178 218 272
#     4  10  17  26  41  63  92 126 153 176 213 265
#     4  10  17  28  41  65  96 121 151 173 211 272
#     4  10  17  30  45  65  92 119 152 183 227 271
#
# _framework density 15.408865
#
# number of rings (size 3 to 8) (size 9 to 14) (size 15 to 20)
#    0.000    2.429    4.286    0.857    0.000    5.714 
#    0.000    0.000    3.143    0.000    0.000    0.000 
#    0.000    0.571    0.000    0.571    0.000    0.000 
#
# Total GULP energy -311963.793190 kJ/mol
# GULP energy per Si atom -5570.782021 kJ/mol
# Density = 1.537379 g / cm^3
# Si number density = 15.408865 Si / 1000 Ang^3
#
#
#
# Elastic Constant Matrix: (Units=GPa)
#
#
# Indices 1 2 3 4 5 6 
#
# 1 71.3965 15.8343 53.8751 0.0000 0.0000 0.0000
# 2 15.8343 26.7853 14.4652 0.0000 0.0000 0.0000
# 3 53.8751 14.4652 67.5518 0.0000 0.0000 0.0000
# 4 0.0000 0.0000 0.0000 15.7167 0.0000 0.0000
# 5 0.0000 0.0000 0.0000 0.0000 23.0220 0.0000
# 6 0.0000 0.0000 0.0000 0.0000 0.0000 11.8613
#
#
#
# Elastic Compliance Matrix: (Units=1/GPa)
#
#
# Indices 1 2 3 4 5 6 
#
# 1 0.036167 -0.006562 -0.027440 0.000000 0.000000 0.000000
# 2 -0.006562 0.043406 -0.004061 0.000000 0.000000 0.000000
# 3 -0.027440 -0.004061 0.037557 0.000000 0.000000 0.000000
# 4 0.000000 0.000000 0.000000 0.063627 0.000000 0.000000
# 5 0.000000 0.000000 0.000000 0.000000 0.043437 0.000000
# 6 0.000000 0.000000 0.000000 0.000000 0.000000 0.084308
#
#
# Mechanical properties :
#
#
# Convention : Reuss Voigt Hill
#
# Bulk Modulus (GPa) = 24.38729 37.12033 30.75381
# Shear Modulus (GPa) = 12.55346 15.55726 14.05536
#
# Velocity S-wave (km/s) = 2.85738 3.18092 3.02348
# Velocity P-wave (km/s) = 5.17178 6.13462 5.67366
#
# Compressibility (1/GPa) = 0.04100497
#
# Stress axis : x y z
#
# Youngs Moduli (GPa) = 27.64931 23.03808 26.62601
#
# Poissons Ratio (x) = 0.15118 0.73061
# Poissons Ratio (y) = 0.18143 0.10814
# Poissons Ratio (z) = 0.75869 0.09357
#
# Static dielectric constant tensor:
#      x y z
#    x 1.518360 0.000000 0.000000 
#    y 0.000000 1.486110 0.000000 
#    z 0.000000 0.000000 1.529040 
# 
# From -- ./inp_files/33722.got.cif
#   From: 2010.05.17/outbox.cif.g08.bks.cpg/sg64_17_cif.got.tgz:33722.got - 2010.06.03 16:29:19.
