data_PCOD9476004
_publ_section_title
;
Structure prediction by ZEFSAII (Michael W. Deem and Ramdas Pophale) SiO2 
 PCOD9476004
Probable space group: C M C M
;
_chemical_formula_sum "Si O2"
_cell_formula_units_Z 64
_cell_length_a 7.412565
_cell_length_b 25.651593
_cell_length_c 15.297878
_cell_angle_alpha 90.000000
_cell_angle_beta 90.000000
_cell_angle_gamma 90.000000
_cell_volume 2908.801251
_symmetry_space_group_name_H-M "C M C M"
_symmetry_group_IT_number 63
_symmetry_cell_setting 'orthorhombic'
loop_
_space_group_symop_operation_xyz
x,y,z
-x,-y,1/2+z
x,-y,-z
-x,y,1/2-z
-x,-y,-z
x,y,1/2-z
-x,y,z
x,-y,1/2+z
1/2+x,1/2+y,z
1/2-x,1/2-y,1/2+z
1/2+x,1/2-y,-z
1/2-x,1/2+y,1/2-z
1/2-x,1/2-y,-z
1/2+x,1/2+y,1/2-z
1/2-x,1/2+y,z
1/2+x,1/2-y,1/2+z
loop_
_atom_site_type_symbol
_atom_site_label
_atom_site_fract_x
_atom_site_fract_y
_atom_site_fract_z
Si Si1 0.291644 0.631418 0.595509
Si Si2 0.221292 0.140201 0.397251
Si Si3 0.780254 0.060410 0.250000
Si Si4 0.722151 0.440678 0.250000
Si Si5 0.213015 0.253649 0.104209
O O1 0.500000 0.616770 0.583945
O O2 0.215214 0.632726 0.497183
O O3 0.215257 0.590855 0.664600
O O4 0.287076 0.690518 0.632419
O O5 0.275905 0.093524 0.334540
O O6 0.278481 0.197438 0.362783
O O7 0.000000 0.142002 0.398586
O O8 0.000000 0.059905 0.250000
O O9 0.721989 0.000692 0.250000
O O10 0.500000 0.439285 0.250000
O O11 0.000000 0.256367 0.119687
O O12 0.250000 0.250000 0.000000
#
# Coordination Sequence:
#
# PCOD9476004 Si02
#       5
#    16  16   8   8  16
#     4   9  17  30  45  67  95 122 151 189 230 277
#     4   8  15  26  42  64  92 116 143 185 232 275
#     4   9  16  27  42  65  91 117 150 195 240 274
#     4   9  18  29  43  63  91 123 158 193 230 272
#     4   9  16  28  47  72  96 120 148 185 231 283
#
# _framework density 22.002189000000001
#
# number of rings (size 3 to 8) (size 9 to 14) (size 15 to 20)
#    0.000    3.250    0.000    2.250    0.000    2.000 
#    0.000    6.875    0.000    0.000    0.000   32.375 
#    0.000    0.000    0.000    0.000    0.000    0.000 
#
# Total GULP energy -178462.669243 kJ/mol
# GULP energy per Si atom -5576.958414 kJ/mol
# Density = 2.195211 g / cm^3
# Si number density = 22.002189 Si / 1000 Ang^3
#
#
#
# Elastic Constant Matrix: (Units=GPa)
#
#
# Indices 1 2 3 4 5 6 
#
# 1 68.8708 -7.1759 2.5852 0.0000 0.0000 0.0000
# 2 -7.1759 232.1157 108.0265 0.0000 0.0000 0.0000
# 3 2.5852 108.0265 122.6496 0.0000 0.0000 0.0000
# 4 0.0000 0.0000 0.0000 40.8522 0.0000 0.0000
# 5 0.0000 0.0000 0.0000 0.0000 -6.5157 0.0000
# 6 0.0000 0.0000 0.0000 0.0000 0.0000 15.4992
#
#
#
# Elastic Compliance Matrix: (Units=1/GPa)
#
#
# Indices 1 2 3 4 5 6 
#
# 1 0.014671 0.001012 -0.001201 0.000000 0.000000 0.000000
# 2 0.001012 0.007371 -0.006513 0.000000 0.000000 0.000000
# 3 -0.001201 -0.006513 0.013915 0.000000 0.000000 0.000000
# 4 0.000000 0.000000 0.000000 0.024478 0.000000 0.000000
# 5 0.000000 0.000000 0.000000 0.000000 -0.153475 0.000000
# 6 0.000000 0.000000 0.000000 0.000000 0.000000 0.064519
#
#
# Mechanical properties :
#
#
# Convention : Reuss Voigt Hill
#
# Bulk Modulus (GPa) = 44.33997 70.05641 57.19819
# Shear Modulus (GPa) = -657.98736 31.31383 -313.33677
#
# Velocity S-wave (km/s) = -17.31198 3.77664 -11.94658
# Velocity P-wave (km/s) = 19.47845 7.13633 12.81567
#
# Compressibility (1/GPa) = 0.02255301
#
# Stress axis : x y z
#
# Youngs Moduli (GPa) = 68.16392 135.67038 71.86275
#
# Poissons Ratio (x) = -0.13736 0.08631
# Poissons Ratio (y) = -0.06901 0.46807
# Poissons Ratio (z) = 0.08186 0.88367
#
# Static dielectric constant tensor:
#      x y z
#    x 1.873410 0.000000 0.000000 
#    y 0.000000 1.780240 0.000000 
#    z 0.000000 0.000000 1.805370 
# 
# From -- ./inp_files/27769.got.cif
#   From: 2010.05.17/outbox.cif.g08.bks.cpg/sg63_14_cif.got.tgz:27769.got - 2010.06.03 15:47:04.
