data_PCOD9476072
_publ_section_title
;
Structure prediction by ZEFSAII (Michael W. Deem and Ramdas Pophale) SiO2 
 PCOD9476072
Probable space group: C M C M
;
_chemical_formula_sum "Si O2"
_cell_formula_units_Z 64
_cell_length_a 21.000000
_cell_length_b 21.000000
_cell_length_c 18.000000
_cell_angle_alpha 90.000000
_cell_angle_beta 90.000000
_cell_angle_gamma 90.000000
_cell_volume 7938.000000
_symmetry_space_group_name_H-M "C M C M"
_symmetry_group_IT_number 63
_symmetry_cell_setting 'orthorhombic'
loop_
_space_group_symop_operation_xyz
x,y,z
-x,-y,1/2+z
x,-y,-z
-x,y,1/2-z
-x,-y,-z
x,y,1/2-z
-x,y,z
x,-y,1/2+z
1/2+x,1/2+y,z
1/2-x,1/2-y,1/2+z
1/2+x,1/2-y,-z
1/2-x,1/2+y,1/2-z
1/2-x,1/2-y,-z
1/2+x,1/2+y,1/2-z
1/2-x,1/2+y,z
1/2+x,1/2-y,1/2+z
loop_
_atom_site_type_symbol
_atom_site_label
_atom_site_fract_x
_atom_site_fract_y
_atom_site_fract_z
Si Si1 0.384625 0.052085 0.165087
Si Si2 0.283968 0.158759 0.332289
Si Si3 0.129609 0.783493 0.332701
Si Si4 0.700373 0.729650 0.435283
Si Si5 0.932700 0.379778 0.971561
Si Si6 0.764863 0.348068 0.163315
Si Si7 0.325118 0.049322 0.561774
Si Si8 0.069502 0.772339 0.016800
O O1 0.405826 0.043871 0.250000
O O2 0.318483 0.091610 0.166137
O O3 0.428693 0.094884 0.112538
O O4 0.369479 0.988471 0.120151
O O5 0.257025 0.170253 0.250000
O O6 0.337839 0.213532 0.342735
O O7 0.232056 0.169886 0.394453
O O8 0.101817 0.785729 0.250000
O O9 0.190453 0.829851 0.336826
O O10 0.082790 0.796427 0.399950
O O11 0.750000 0.750000 0.500000
O O12 0.700332 0.787649 0.375803
O O13 0.631508 0.714152 0.467641
O O14 0.931763 0.304225 0.976216
O O15 0.000000 0.403086 0.004220
O O16 0.871842 0.405915 0.014318
O O17 0.783998 0.356528 0.250000
O O18 0.778308 0.408335 0.111071
O O19 0.298189 0.000000 0.500000
O O20 0.000000 0.793347 0.989320
#
# Coordination Sequence:
#
# PCOD9476072 Si02
#       8
#    16  16  16  16  16  16  16  16
#     4  10  19  31  46  66  92 115 150 204 248 282
#     4   9  17  29  47  70  90 113 151 195 243 288
#     4   9  17  30  48  69  94 123 153 191 241 301
#     4  11  17  29  53  69  92 125 163 193 235 296
#     4  10  20  33  44  58  86 127 168 201 232 276
#     4  10  19  32  50  71  93 122 164 203 242 291
#     4  10  21  31  47  65  91 124 162 203 244 277
#     4  11  20  29  46  72  99 125 159 201 239 277
#
# _framework density 8.0624839999999995
#
# number of rings (size 3 to 8) (size 9 to 14) (size 15 to 20)
#    0.000    2.000    5.000    1.500    1.750    2.750 
#    0.000    1.250    0.000    3.375    0.000    0.000 
#    0.000    4.500    0.000    7.125    0.000    0.250 
#
# Total GULP energy -356394.660579 kJ/mol
# GULP energy per Si atom -5568.666572 kJ/mol
# Density = 0.804413 g / cm^3
# Si number density = 8.062484 Si / 1000 Ang^3
#
#
#
# Elastic Constant Matrix: (Units=GPa)
#
#
# Indices 1 2 3 4 5 6 
#
# 1 72.6529 4.9199 34.8504 0.0000 0.0000 0.0000
# 2 4.9199 17.0244 12.1647 0.0000 0.0000 0.0000
# 3 34.8504 12.1647 94.9462 0.0000 0.0000 0.0000
# 4 0.0000 0.0000 0.0000 22.2764 0.0000 0.0000
# 5 0.0000 0.0000 0.0000 0.0000 3.6774 0.0000
# 6 0.0000 0.0000 0.0000 0.0000 0.0000 4.8346
#
#
#
# Elastic Compliance Matrix: (Units=1/GPa)
#
#
# Indices 1 2 3 4 5 6 
#
# 1 0.016709 -0.000491 -0.006070 0.000000 0.000000 0.000000
# 2 -0.000491 0.064673 -0.008106 0.000000 0.000000 0.000000
# 3 -0.006070 -0.008106 0.013799 0.000000 0.000000 0.000000
# 4 0.000000 0.000000 0.000000 0.044891 0.000000 0.000000
# 5 0.000000 0.000000 0.000000 0.000000 0.271929 0.000000
# 6 0.000000 0.000000 0.000000 0.000000 0.000000 0.206841
#
#
# Mechanical properties :
#
#
# Convention : Reuss Voigt Hill
#
# Bulk Modulus (GPa) = 15.18682 32.05483 23.62083
# Shear Modulus (GPa) = 7.46130 15.00359 11.23244
#
# Velocity S-wave (km/s) = 2.15342 3.05365 2.64216
# Velocity P-wave (km/s) = 3.95242 5.68816 4.89779
#
# Compressibility (1/GPa) = 0.06584656
#
# Stress axis : x y z
#
# Youngs Moduli (GPa) = 59.84754 15.46241 72.46956
#
# Poissons Ratio (x) = 0.00760 0.43991
# Poissons Ratio (y) = 0.02940 0.58742
# Poissons Ratio (z) = 0.36329 0.12533
#
# Static dielectric constant tensor:
#      x y z
#    x 1.582590 0.000000 0.000000 
#    y 0.000000 1.552620 0.000000 
#    z 0.000000 0.000000 1.581930 
# 
# From -- ./inp_files/47562.got.cif
#   From: 2010.05.17/outbox.ucp.g08.bks.cvg/sg63_24_cif.got.tgz:47562.got - 2010.06.11 16:32:19.
