data_PCOD9476177
_publ_section_title
;
Structure prediction by ZEFSAII (Michael W. Deem and Ramdas Pophale) SiO2 
 PCOD9476177
Probable space group: C M C M
;
_chemical_formula_sum "Si O2"
_cell_formula_units_Z 56
_cell_length_a 24.000000
_cell_length_b 12.000000
_cell_length_c 21.000000
_cell_angle_alpha 90.000000
_cell_angle_beta 90.000000
_cell_angle_gamma 90.000000
_cell_volume 6048.000000
_symmetry_space_group_name_H-M "C M C M"
_symmetry_group_IT_number 63
_symmetry_cell_setting 'orthorhombic'
loop_
_space_group_symop_operation_xyz
x,y,z
-x,-y,1/2+z
x,-y,-z
-x,y,1/2-z
-x,-y,-z
x,y,1/2-z
-x,y,z
x,-y,1/2+z
1/2+x,1/2+y,z
1/2-x,1/2-y,1/2+z
1/2+x,1/2-y,-z
1/2-x,1/2+y,1/2-z
1/2-x,1/2-y,-z
1/2+x,1/2+y,1/2-z
1/2-x,1/2+y,z
1/2+x,1/2-y,1/2+z
loop_
_atom_site_type_symbol
_atom_site_label
_atom_site_fract_x
_atom_site_fract_y
_atom_site_fract_z
Si Si1 0.248750 0.133890 0.826032
Si Si2 0.355048 0.789755 0.825392
Si Si3 0.933327 0.831919 0.676087
Si Si4 0.937490 0.915825 0.326569
Si Si5 0.844389 0.605800 0.039336
Si Si6 0.283522 0.542931 0.431469
Si Si7 0.846374 0.732252 0.591309
O O1 0.254748 0.104024 0.750000
O O2 0.208156 0.241962 0.827440
O O3 0.306304 0.156811 0.863819
O O4 0.219944 0.043326 0.872657
O O5 0.364415 0.826634 0.750000
O O6 0.394694 0.683122 0.838245
O O7 0.364760 0.867116 0.888314
O O8 0.914151 0.818247 0.750000
O O9 0.904227 0.746866 0.628253
O O10 0.000000 0.821147 0.676038
O O11 0.921002 0.959228 0.653941
O O12 0.941028 0.923883 0.250000
O O13 0.000000 0.891098 0.350769
O O14 0.779143 0.581898 0.051289
O O15 0.868465 0.500000 0.000000
O O16 0.849208 0.697518 0.983070
O O17 0.306200 0.500000 0.500000
O O18 0.317452 0.648326 0.408915
#
# Coordination Sequence:
#
# PCOD9476177 Si02
#       7
#    16  16  16  16  16  16  16
#     4  11  22  33  52  85 115 142 187 238 281 336
#     4  10  20  35  56  84 114 144 186 241 289 337
#     4   9  19  36  58  87 120 152 190 237 287 339
#     4   8  15  32  58  85 114 147 181 224 285 346
#     4  11  22  39  55  78 112 154 192 231 281 341
#     4  11  21  36  55  78 115 155 188 227 282 346
#     4  12  21  36  58  80 114 154 193 224 286 349
#
# _framework density 9.2592590000000001
#
# number of rings (size 3 to 8) (size 9 to 14) (size 15 to 20)
#    0.000    1.714    4.286    3.429    0.000    2.857 
#    0.000    0.714    0.000    3.857    0.000    2.000 
#    0.000    0.000    0.000    0.000    0.000    0.000 
#
# Total GULP energy -311765.912010 kJ/mol
# GULP energy per Si atom -5567.248429 kJ/mol
# Density = 0.923818 g / cm^3
# Si number density = 9.259259 Si / 1000 Ang^3
#
#
#
# Elastic Constant Matrix: (Units=GPa)
#
#
# Indices 1 2 3 4 5 6 
#
# 1 39.7082 18.5679 21.0787 0.0000 0.0000 0.0000
# 2 18.5679 55.8124 45.1142 0.0000 0.0000 0.0000
# 3 21.0787 45.1142 160.1535 0.0000 0.0000 0.0000
# 4 0.0000 0.0000 0.0000 45.1391 0.0000 0.0000
# 5 0.0000 0.0000 0.0000 0.0000 17.3399 0.0000
# 6 0.0000 0.0000 0.0000 0.0000 0.0000 19.2426
#
#
#
# Elastic Compliance Matrix: (Units=1/GPa)
#
#
# Indices 1 2 3 4 5 6 
#
# 1 0.030091 -0.008817 -0.001477 0.000000 0.000000 0.000000
# 2 -0.008817 0.025783 -0.006103 0.000000 0.000000 0.000000
# 3 -0.001477 -0.006103 0.008157 0.000000 0.000000 0.000000
# 4 0.000000 0.000000 0.000000 0.022154 0.000000 0.000000
# 5 0.000000 0.000000 0.000000 0.000000 0.057671 0.000000
# 6 0.000000 0.000000 0.000000 0.000000 0.000000 0.051968
#
#
# Mechanical properties :
#
#
# Convention : Reuss Voigt Hill
#
# Bulk Modulus (GPa) = 32.01155 47.24395 39.62775
# Shear Modulus (GPa) = 20.91799 27.73854 24.32827
#
# Velocity S-wave (km/s) = 3.36456 3.87445 3.62847
# Velocity P-wave (km/s) = 5.69363 6.75146 6.24498
#
# Compressibility (1/GPa) = 0.03123873
#
# Stress axis : x y z
#
# Youngs Moduli (GPa) = 33.23308 38.78492 122.58810
#
# Poissons Ratio (x) = 0.34197 0.18102
# Poissons Ratio (y) = 0.29302 0.74809
# Poissons Ratio (z) = 0.04907 0.23669
#
# Static dielectric constant tensor:
#      x y z
#    x 1.661540 0.000000 0.000000 
#    y 0.000000 1.711370 0.000000 
#    z 0.000000 0.000000 1.659730 
# 
# From -- ./inp_files/57603.got.cif
#   From: 2010.05.17/outbox.ucp.g08.bks.cvg/sg63_29_cif.got.tgz:57603.got - 2010.06.11 16:32:19.
