data_PCOD9476879
_publ_section_title
;
Structure prediction by ZEFSAII (Michael W. Deem and Ramdas Pophale) SiO2 
 PCOD9476879
Probable space group: C M C A
;
_chemical_formula_sum "Si O2"
_cell_formula_units_Z 88
_cell_length_a 10.322738
_cell_length_b 20.369259
_cell_length_c 23.982817
_cell_angle_alpha 90.000000
_cell_angle_beta 90.000000
_cell_angle_gamma 90.000000
_cell_volume 5042.783564
_symmetry_space_group_name_H-M "C M C A"
_symmetry_group_IT_number 64
_symmetry_cell_setting 'orthorhombic'
loop_
_space_group_symop_operation_xyz
x,y,z
-x,1/2-y,1/2+z
x,-y,-z
-x,1/2+y,1/2-z
-x,-y,-z
x,1/2+y,1/2-z
-x,y,z
x,1/2-y,1/2+z
1/2+x,1/2+y,z
1/2-x,-y,1/2+z
1/2+x,1/2-y,-z
1/2-x,y,1/2-z
1/2-x,1/2-y,-z
1/2+x,y,1/2-z
1/2-x,1/2+y,z
1/2+x,-y,1/2+z
loop_
_atom_site_type_symbol
_atom_site_label
_atom_site_fract_x
_atom_site_fract_y
_atom_site_fract_z
Si Si1 0.348600 0.189246 0.113431
Si Si2 0.647775 0.049812 0.883793
Si Si3 0.645608 0.641589 0.022634
Si Si4 0.850627 0.337251 0.392177
Si Si5 0.247360 0.000000 0.000000
Si Si6 0.650071 0.927713 0.800264
O O1 0.500000 0.184349 0.095715
O O2 0.253716 0.169886 0.063347
O O3 0.325832 0.264540 0.130744
O O4 0.329285 0.137725 0.163110
O O5 0.500000 0.073287 0.878824
O O6 0.750332 0.107540 0.873432
O O7 0.670650 0.022896 0.946534
O O8 0.667116 0.989597 0.841537
O O9 0.500000 0.657174 0.041831
O O10 0.664049 0.562975 0.018170
O O11 0.661076 0.667563 0.959563
O O12 0.000000 0.356200 0.380386
O O13 0.500000 0.927995 0.781103
O O14 0.750000 0.931021 0.750000
#
# Coordination Sequence:
#
# PCOD9476879 Si02
#       6
#    16  16  16  16   8  16
#     4  10  20  37  56  77 110 147 186 227 274 328
#     4  10  20  35  57  83 111 143 185 229 273 332
#     4  10  19  30  49  81 116 148 183 220 268 330
#     4   9  20  35  53  80 116 151 178 218 276 334
#     4  10  18  32  52  82 116 148 180 222 282 330
#     4  10  22  40  59  82 106 142 190 235 277 326
#
# _framework density 17.450679000000001
#
# number of rings (size 3 to 8) (size 9 to 14) (size 15 to 20)
#    0.000    2.182    1.818    1.091    0.000    5.818 
#    0.000    0.909    0.000    4.364    0.000    0.000 
#    0.000    0.000    0.000    0.000    0.000    0.000 
#
# Total GULP energy -245495.293096 kJ/mol
# GULP energy per Si atom -5579.438479 kJ/mol
# Density = 1.741096 g / cm^3
# Si number density = 17.450679 Si / 1000 Ang^3
#
#
#
# Elastic Constant Matrix: (Units=GPa)
#
#
# Indices 1 2 3 4 5 6 
#
# 1 127.8190 87.2145 62.8012 0.0000 0.0000 0.0000
# 2 87.2145 123.0787 46.6544 0.0000 0.0000 0.0000
# 3 62.8012 46.6544 44.1162 0.0000 0.0000 0.0000
# 4 0.0000 0.0000 0.0000 10.3477 0.0000 0.0000
# 5 0.0000 0.0000 0.0000 0.0000 29.9301 0.0000
# 6 0.0000 0.0000 0.0000 0.0000 0.0000 -2.6550
#
#
#
# Elastic Compliance Matrix: (Units=1/GPa)
#
#
# Indices 1 2 3 4 5 6 
#
# 1 0.030720 -0.008665 -0.034568 0.000000 0.000000 0.000000
# 2 -0.008665 0.016005 -0.004591 0.000000 0.000000 0.000000
# 3 -0.034568 -0.004591 0.076730 0.000000 0.000000 0.000000
# 4 0.000000 0.000000 0.000000 0.096640 0.000000 0.000000
# 5 0.000000 0.000000 0.000000 0.000000 0.033411 0.000000
# 6 0.000000 0.000000 0.000000 0.000000 0.000000 -0.376643
#
#
# Mechanical properties :
#
#
# Convention : Reuss Voigt Hill
#
# Bulk Modulus (GPa) = 35.95981 76.48379 56.22180
# Shear Modulus (GPa) = -274.44473 14.08080 -130.18197
#
# Velocity S-wave (km/s) = -12.55429 2.84366 -8.64650
# Velocity P-wave (km/s) = 13.76574 7.39632 8.20945
#
# Compressibility (1/GPa) = 0.02780883
#
# Stress axis : x y z
#
# Youngs Moduli (GPa) = 32.55180 62.47888 13.03263
#
# Poissons Ratio (x) = 0.54140 0.45051
# Poissons Ratio (y) = 0.28207 0.05983
# Poissons Ratio (z) = 1.12524 0.28682
#
# Static dielectric constant tensor:
#      x y z
#    x 1.590200 0.000000 0.000000 
#    y 0.000000 1.599430 0.000000 
#    z 0.000000 0.000000 1.559260 
# 
# From -- ./inp_files/42820.got.cif
#   From: 2010.05.17/outbox.cif.g08.bks.cpg/sg64_22_cif.got.tgz:42820.got - 2010.06.03 16:29:19.
