data_PCOD9476870
_publ_section_title
;
Structure prediction by ZEFSAII (Michael W. Deem and Ramdas Pophale) SiO2 
 PCOD9476870
Probable space group: C M C A
;
_chemical_formula_sum "Si O2"
_cell_formula_units_Z 96
_cell_length_a 15.917922
_cell_length_b 19.088416
_cell_length_c 15.824062
_cell_angle_alpha 90.000000
_cell_angle_beta 90.000000
_cell_angle_gamma 90.000000
_cell_volume 4808.108277
_symmetry_space_group_name_H-M "C M C A"
_symmetry_group_IT_number 64
_symmetry_cell_setting 'orthorhombic'
loop_
_space_group_symop_operation_xyz
x,y,z
-x,1/2-y,1/2+z
x,-y,-z
-x,1/2+y,1/2-z
-x,-y,-z
x,1/2+y,1/2-z
-x,y,z
x,1/2-y,1/2+z
1/2+x,1/2+y,z
1/2-x,-y,1/2+z
1/2+x,1/2-y,-z
1/2-x,y,1/2-z
1/2-x,1/2-y,-z
1/2+x,y,1/2-z
1/2-x,1/2+y,z
1/2+x,-y,1/2+z
loop_
_atom_site_type_symbol
_atom_site_label
_atom_site_fract_x
_atom_site_fract_y
_atom_site_fract_z
Si Si1 0.902419 0.084377 0.743812
Si Si2 0.357761 0.712771 0.847545
Si Si3 0.898597 0.571653 0.255692
Si Si4 0.899563 0.213422 0.177884
Si Si5 0.404420 0.356531 0.577434
Si Si6 0.821938 0.667342 0.909857
O O1 0.899040 0.139191 0.821154
O O2 0.850112 0.115931 0.665836
O O3 0.000000 0.079583 0.716577
O O4 0.869466 0.007462 0.767688
O O5 0.350697 0.750326 0.755701
O O6 0.403343 0.773931 0.898903
O O7 0.271892 0.693201 0.893614
O O8 0.872934 0.632424 0.321385
O O9 0.879342 0.601056 0.161913
O O10 0.000000 0.569257 0.261087
O O11 0.878441 0.262174 0.099366
O O12 0.000000 0.217845 0.195590
O O13 0.500000 0.376714 0.554894
O O14 0.342220 0.366530 0.499516
#
# Coordination Sequence:
#
# PCOD9476870 Si02
#       6
#    16  16  16  16  16  16
#     4  10  18  32  52  74  97 131 169 205 244 292
#     4  10  19  32  48  71 102 131 161 201 245 295
#     4   8  17  31  51  74  97 125 167 209 243 285
#     4   9  16  31  51  72  95 130 173 210 243 291
#     4  10  19  34  53  75  99 130 166 206 250 297
#     4  11  20  30  48  76 103 129 162 207 254 296
#
# _framework density 19.966272
#
# number of rings (size 3 to 8) (size 9 to 14) (size 15 to 20)
#    0.000    2.333    0.000    7.500    0.000    0.667 
#    0.000    9.167    0.000    3.000    0.000    4.667 
#    0.000    0.000    0.000    0.333    0.000    0.000 
#
# Total GULP energy -267482.237712 kJ/mol
# GULP energy per Si atom -5572.546619 kJ/mol
# Density = 1.992083 g / cm^3
# Si number density = 19.966272 Si / 1000 Ang^3
#
#
#
# Elastic Constant Matrix: (Units=GPa)
#
#
# Indices 1 2 3 4 5 6 
#
# 1 47.1961 -4.0588 -13.1978 0.0000 0.0000 0.0000
# 2 -4.0588 133.4843 -3.8328 0.0000 0.0000 0.0000
# 3 -13.1978 -3.8328 19.2616 0.0000 0.0000 0.0000
# 4 0.0000 0.0000 0.0000 11.1939 0.0000 0.0000
# 5 0.0000 0.0000 0.0000 0.0000 -22.6092 0.0000
# 6 0.0000 0.0000 0.0000 0.0000 0.0000 2349.1970
#
#
#
# Elastic Compliance Matrix: (Units=1/GPa)
#
#
# Indices 1 2 3 4 5 6 
#
# 1 0.026443 0.001332 0.018384 0.000000 0.000000 0.000000
# 2 0.001332 0.007602 0.002425 0.000000 0.000000 0.000000
# 3 0.018384 0.002425 0.064995 0.000000 0.000000 0.000000
# 4 0.000000 0.000000 0.000000 0.089335 0.000000 0.000000
# 5 0.000000 0.000000 0.000000 0.000000 -0.044230 0.000000
# 6 0.000000 0.000000 0.000000 0.000000 0.000000 0.000426
#
#
# Mechanical properties :
#
#
# Convention : Reuss Voigt Hill
#
# Bulk Modulus (GPa) = 6.97729 17.52926 12.25327
# Shear Modulus (GPa) = 33.76926 482.29176 258.03051
#
# Velocity S-wave (km/s) = 4.11702 15.55884 11.38041
# Velocity P-wave (km/s) = 5.10901 18.20903 13.37293
#
# Compressibility (1/GPa) = 0.14332218
#
# Stress axis : x y z
#
# Youngs Moduli (GPa) = 37.81651 131.55035 15.38570
#
# Poissons Ratio (x) = -0.17521 -0.28285
# Poissons Ratio (y) = -0.05037 -0.03731
# Poissons Ratio (z) = -0.69521 -0.31904
#
# Static dielectric constant tensor:
#      x y z
#    x 1.735020 0.000000 0.000000 
#    y 0.000000 1.748290 0.000000 
#    z 0.000000 0.000000 1.704860 
# 
# From -- ./inp_files/33281.got.cif
#   From: 2010.05.17/outbox.cif.g08.bks.cpg/sg64_17_cif.got.tgz:33281.got - 2010.06.03 16:29:19.
