data_PCOD9476350
_publ_section_title
;
Structure prediction by ZEFSAII (Michael W. Deem and Ramdas Pophale) SiO2 
 PCOD9476350
Probable space group: C M C A
;
_chemical_formula_sum "Si O2"
_cell_formula_units_Z 80
_cell_length_a 19.435710
_cell_length_b 5.559993
_cell_length_c 35.210025
_cell_angle_alpha 90.000000
_cell_angle_beta 90.000000
_cell_angle_gamma 90.000000
_cell_volume 3804.880212
_symmetry_space_group_name_H-M "C M C A"
_symmetry_group_IT_number 64
_symmetry_cell_setting 'orthorhombic'
loop_
_space_group_symop_operation_xyz
x,y,z
-x,1/2-y,1/2+z
x,-y,-z
-x,1/2+y,1/2-z
-x,-y,-z
x,1/2+y,1/2-z
-x,y,z
x,1/2-y,1/2+z
1/2+x,1/2+y,z
1/2-x,-y,1/2+z
1/2+x,1/2-y,-z
1/2-x,y,1/2-z
1/2-x,1/2-y,-z
1/2+x,y,1/2-z
1/2-x,1/2+y,z
1/2+x,-y,1/2+z
loop_
_atom_site_type_symbol
_atom_site_label
_atom_site_fract_x
_atom_site_fract_y
_atom_site_fract_z
Si Si1 0.290930 0.529438 0.150156
Si Si2 0.830251 0.525315 0.734940
Si Si3 0.000000 0.916641 0.401819
Si Si4 0.000000 0.916121 0.095647
Si Si5 0.850714 0.440620 0.432190
Si Si6 0.369057 0.558655 0.542391
O O1 0.261750 0.802026 0.150310
O O2 0.330425 0.497626 0.189653
O O3 0.331306 0.493322 0.111184
O O4 0.860317 0.281137 0.752485
O O5 0.750000 0.531653 0.750000
O O6 0.000000 0.662667 0.380972
O O7 0.067501 0.918203 0.428365
O O8 0.000000 0.170383 0.380742
O O9 0.933636 0.915751 0.068514
O O10 0.833660 0.679157 0.456087
O O11 0.825734 0.175487 0.444383
O O12 0.392715 0.500000 0.500000
#
# Coordination Sequence:
#
# PCOD9476350 Si02
#       6
#    16  16   8   8  16  16
#     4  12  21  33  53  76 107 129 159 203 249 298
#     4  10  16  30  49  75 102 120 147 196 255 293
#     4   8  15  26  48  74  92 119 157 216 269 285
#     4   8  16  32  47  68 104 125 161 200 241 309
#     4  10  21  33  50  76  98 134 166 203 255 292
#     4  10  18  32  50  70  98 128 171 216 251 288
#
# _framework density 21.025628000000001
#
# number of rings (size 3 to 8) (size 9 to 14) (size 15 to 20)
#    0.000    2.000    4.000    2.100    0.000    0.000 
#    0.000    6.000    0.000   12.000    0.000    1.400 
#    0.000    0.000    0.000    0.000    0.000    0.000 
#
# Total GULP energy -222763.755675 kJ/mol
# GULP energy per Si atom -5569.093892 kJ/mol
# Density = 2.097777 g / cm^3
# Si number density = 21.025628 Si / 1000 Ang^3
#
#
#
# Elastic Constant Matrix: (Units=GPa)
#
#
# Indices 1 2 3 4 5 6 
#
# 1 33.3293 -6.0233 -15.0670 0.0000 0.0000 0.0000
# 2 -6.0233 194.4600 -6.3260 0.0000 0.0000 0.0000
# 3 -15.0670 -6.3260 52.3662 0.0000 0.0000 0.0000
# 4 0.0000 0.0000 0.0000 31.1402 0.0000 0.0000
# 5 0.0000 0.0000 0.0000 0.0000 7.5472 0.0000
# 6 0.0000 0.0000 0.0000 0.0000 0.0000 -5.5514
#
#
#
# Elastic Compliance Matrix: (Units=1/GPa)
#
#
# Indices 1 2 3 4 5 6 
#
# 1 0.034872 0.001412 0.010204 0.000000 0.000000 0.000000
# 2 0.001412 0.005220 0.001037 0.000000 0.000000 0.000000
# 3 0.010204 0.001037 0.022157 0.000000 0.000000 0.000000
# 4 0.000000 0.000000 0.000000 0.032113 0.000000 0.000000
# 5 0.000000 0.000000 0.000000 0.000000 0.132499 0.000000
# 6 0.000000 0.000000 0.000000 0.000000 0.000000 -0.180133
#
#
# Mechanical properties :
#
#
# Convention : Reuss Voigt Hill
#
# Bulk Modulus (GPa) = 11.42138 25.03587 18.22862
# Shear Modulus (GPa) = 98.80099 27.13198 62.96649
#
# Velocity S-wave (km/s) = 6.86242 3.59614 5.47837
# Velocity P-wave (km/s) = 8.26040 5.40150 6.97891
#
# Compressibility (1/GPa) = 0.08755513
#
# Stress axis : x y z
#
# Youngs Moduli (GPa) = 28.67650 191.57400 45.13149
#
# Poissons Ratio (x) = -0.27052 -0.46052
# Poissons Ratio (y) = -0.04049 -0.04680
# Poissons Ratio (z) = -0.29262 -0.19864
#
# Static dielectric constant tensor:
#      x y z
#    x 1.771310 0.000000 0.000000 
#    y 0.000000 1.908270 0.000000 
#    z 0.000000 0.000000 1.697040 
# 
# From -- ./inp_files/47056.got.cif
#   From: 2010.05.17/outbox.cif.g08.bks.cpg/sg64_24_cif.got.tgz:47056.got - 2010.06.03 16:29:19.
