data_PCOD9476164
_publ_section_title
;
Structure prediction by ZEFSAII (Michael W. Deem and Ramdas Pophale) SiO2 
 PCOD9476164
Probable space group: C M C M
;
_chemical_formula_sum "Si O2"
_cell_formula_units_Z 44
_cell_length_a 18.000000
_cell_length_b 30.000000
_cell_length_c 9.000000
_cell_angle_alpha 90.000000
_cell_angle_beta 90.000000
_cell_angle_gamma 90.000000
_cell_volume 4860.000000
_symmetry_space_group_name_H-M "C M C M"
_symmetry_group_IT_number 63
_symmetry_cell_setting 'orthorhombic'
loop_
_space_group_symop_operation_xyz
x,y,z
-x,-y,1/2+z
x,-y,-z
-x,y,1/2-z
-x,-y,-z
x,y,1/2-z
-x,y,z
x,-y,1/2+z
1/2+x,1/2+y,z
1/2-x,1/2-y,1/2+z
1/2+x,1/2-y,-z
1/2-x,1/2+y,1/2-z
1/2-x,1/2-y,-z
1/2+x,1/2+y,1/2-z
1/2-x,1/2+y,z
1/2+x,1/2-y,1/2+z
loop_
_atom_site_type_symbol
_atom_site_label
_atom_site_fract_x
_atom_site_fract_y
_atom_site_fract_z
Si Si1 0.585561 0.772423 0.428827
Si Si2 0.186672 0.810738 0.925876
Si Si3 0.157475 0.644466 0.431508
Si Si4 0.000000 0.048156 0.927517
Si Si5 0.295618 0.050611 0.567602
Si Si6 0.856027 0.089411 0.072288
O O1 0.596082 0.778483 0.250000
O O2 0.500000 0.757452 0.450903
O O3 0.643209 0.733283 0.482082
O O4 0.597036 0.819971 0.510641
O O5 0.195785 0.802641 0.750000
O O6 0.267619 0.827827 0.979261
O O7 0.142429 0.856957 0.944155
O O8 0.157736 0.639666 0.250000
O O9 0.157620 0.594435 0.504881
O O10 0.000000 0.046424 0.750000
O O11 0.927892 0.071703 0.991788
O O12 0.000000 0.000000 0.000000
O O13 0.298475 0.049024 0.750000
O O14 0.214462 0.065628 0.506106
O O15 0.311893 0.000000 0.500000
O O16 0.853004 0.079971 0.250000
#
# Coordination Sequence:
#
# PCOD9476164 Si02
#       6
#    16  16  16   8  16  16
#     4  10  20  34  55  82 112 147 188 229 276 333
#     4   8  17  33  55  80 106 143 187 228 273 326
#     4  10  20  36  56  81 113 147 187 230 276 328
#     4  12  24  36  48  68 100 144 190 234 283 332
#     4  11  21  36  58  83 110 139 178 226 277 331
#     4  10  20  35  54  77 106 142 185 231 279 328
#
# _framework density 9.0534979999999994
#
# number of rings (size 3 to 8) (size 9 to 14) (size 15 to 20)
#    0.000    2.000    0.000    5.727    1.273    0.364 
#    0.000    4.545    0.000    0.545    0.000    0.000 
#    0.000    0.000    0.000    0.000    0.000    0.000 
#
# Total GULP energy -244985.273862 kJ/mol
# GULP energy per Si atom -5567.847133 kJ/mol
# Density = 0.903289 g / cm^3
# Si number density = 9.053498 Si / 1000 Ang^3
#
#
#
# Elastic Constant Matrix: (Units=GPa)
#
#
# Indices 1 2 3 4 5 6 
#
# 1 32.6692 20.7631 11.1281 0.0000 0.0000 0.0000
# 2 20.7631 130.5123 43.9020 0.0000 0.0000 0.0000
# 3 11.1281 43.9020 111.5667 0.0000 0.0000 0.0000
# 4 0.0000 0.0000 0.0000 36.0366 0.0000 0.0000
# 5 0.0000 0.0000 0.0000 0.0000 22.3163 0.0000
# 6 0.0000 0.0000 0.0000 0.0000 0.0000 -0.6773
#
#
#
# Elastic Compliance Matrix: (Units=1/GPa)
#
#
# Indices 1 2 3 4 5 6 
#
# 1 0.034260 -0.004957 -0.001467 0.000000 0.000000 0.000000
# 2 -0.004957 0.009548 -0.003263 0.000000 0.000000 0.000000
# 3 -0.001467 -0.003263 0.010393 0.000000 0.000000 0.000000
# 4 0.000000 0.000000 0.000000 0.027750 0.000000 0.000000
# 5 0.000000 0.000000 0.000000 0.000000 0.044810 0.000000
# 6 0.000000 0.000000 0.000000 0.000000 0.000000 -1.476445
#
#
# Mechanical properties :
#
#
# Convention : Reuss Voigt Hill
#
# Bulk Modulus (GPa) = 28.71197 47.37051 38.04124
# Shear Modulus (GPa) = -3.79161 24.79880 10.50359
#
# Velocity S-wave (km/s) = -1.44864 3.70479 2.41111
# Velocity P-wave (km/s) = 3.61845 6.67224 5.36712
#
# Compressibility (1/GPa) = 0.03482868
#
# Stress axis : x y z
#
# Youngs Moduli (GPa) = 29.18867 104.73081 96.21410
#
# Poissons Ratio (x) = 0.51915 0.14111
# Poissons Ratio (y) = 0.14469 0.31393
# Poissons Ratio (z) = 0.04281 0.34172
#
# Static dielectric constant tensor:
#      x y z
#    x 1.696960 0.000000 0.000000 
#    y 0.000000 1.620780 0.000000 
#    z 0.000000 0.000000 1.613630 
# 
# From -- ./inp_files/6774.got.cif
#   From: 2010.05.17/outbox.ucp.g08.bks.cvg/sg63_4_cif.got.tgz:6774.got - 2010.06.11 16:32:19.
