data_PCOD9476068
_publ_section_title
;
Structure prediction by ZEFSAII (Michael W. Deem and Ramdas Pophale) SiO2 
 PCOD9476068
Probable space group: C M C M
;
_chemical_formula_sum "Si O2"
_cell_formula_units_Z 48
_cell_length_a 27.000000
_cell_length_b 24.000000
_cell_length_c 9.000000
_cell_angle_alpha 90.000000
_cell_angle_beta 90.000000
_cell_angle_gamma 90.000000
_cell_volume 5832.000000
_symmetry_space_group_name_H-M "C M C M"
_symmetry_group_IT_number 63
_symmetry_cell_setting 'orthorhombic'
loop_
_space_group_symop_operation_xyz
x,y,z
-x,-y,1/2+z
x,-y,-z
-x,y,1/2-z
-x,-y,-z
x,y,1/2-z
-x,y,z
x,-y,1/2+z
1/2+x,1/2+y,z
1/2-x,1/2-y,1/2+z
1/2+x,1/2-y,-z
1/2-x,1/2+y,1/2-z
1/2-x,1/2-y,-z
1/2+x,1/2+y,1/2-z
1/2-x,1/2+y,z
1/2+x,1/2-y,1/2+z
loop_
_atom_site_type_symbol
_atom_site_label
_atom_site_fract_x
_atom_site_fract_y
_atom_site_fract_z
Si Si1 0.636135 0.650623 0.581677
Si Si2 0.323094 0.061476 0.070906
Si Si3 0.792150 0.061429 0.071584
Si Si4 0.621869 0.837663 0.427067
Si Si5 0.700059 0.238036 0.081928
Si Si6 0.058474 0.759095 0.071743
O O1 0.626007 0.629799 0.750000
O O2 0.665904 0.603570 0.490741
O O3 0.672765 0.703091 0.592554
O O4 0.587249 0.683997 0.522996
O O5 0.327909 0.059530 0.250000
O O6 0.265379 0.079232 0.037605
O O7 0.364295 0.103069 0.002150
O O8 0.328587 0.000000 0.000000
O O9 0.796103 0.058026 0.250000
O O10 0.798431 0.000000 0.000000
O O11 0.616397 0.843181 0.250000
O O12 0.669319 0.801830 0.475642
O O13 0.578816 0.797452 0.494321
O O14 0.704628 0.214888 0.250000
O O15 0.750000 0.250000 0.000000
O O16 0.068524 0.753805 0.250000
O O17 0.000000 0.764334 0.049085
#
# Coordination Sequence:
#
# PCOD9476068 Si02
#       6
#    16  16  16  16  16  16
#     4   9  18  31  48  71  98 127 162 204 250 301
#     4  10  20  34  51  73 103 139 177 211 247 295
#     4  10  20  32  49  72 101 137 172 206 243 289
#     4  11  21  32  49  74 103 134 168 207 251 302
#     4  10  19  30  45  68  99 133 166 203 249 300
#     4   9  19  37  58  77  99 130 167 211 264 312
#
# _framework density 8.2304530000000007
#
# number of rings (size 3 to 8) (size 9 to 14) (size 15 to 20)
#    0.000    2.167    0.000    5.000    0.000    8.333 
#    0.000    0.000    0.000    1.000    0.000    0.000 
#    0.000    0.000    0.000    0.000    0.000    0.000 
#
# Total GULP energy -267308.740997 kJ/mol
# GULP energy per Si atom -5568.932104 kJ/mol
# Density = 0.821172 g / cm^3
# Si number density = 8.230453 Si / 1000 Ang^3
#
#
#
# Elastic Constant Matrix: (Units=GPa)
#
#
# Indices 1 2 3 4 5 6 
#
# 1 86.4082 27.7513 29.0474 0.0000 0.0000 0.0000
# 2 27.7513 82.9930 33.7667 0.0000 0.0000 0.0000
# 3 29.0474 33.7667 85.4829 0.0000 0.0000 0.0000
# 4 0.0000 0.0000 0.0000 32.1643 0.0000 0.0000
# 5 0.0000 0.0000 0.0000 0.0000 20.4058 0.0000
# 6 0.0000 0.0000 0.0000 0.0000 0.0000 23.5252
#
#
#
# Elastic Compliance Matrix: (Units=1/GPa)
#
#
# Indices 1 2 3 4 5 6 
#
# 1 0.013749 -0.003213 -0.003403 0.000000 0.000000 0.000000
# 2 -0.003213 0.015107 -0.004876 0.000000 0.000000 0.000000
# 3 -0.003403 -0.004876 0.014781 0.000000 0.000000 0.000000
# 4 0.000000 0.000000 0.000000 0.031090 0.000000 0.000000
# 5 0.000000 0.000000 0.000000 0.000000 0.049006 0.000000
# 6 0.000000 0.000000 0.000000 0.000000 0.000000 0.042508
#
#
# Mechanical properties :
#
#
# Convention : Reuss Voigt Hill
#
# Bulk Modulus (GPa) = 48.41748 48.44609 48.43179
# Shear Modulus (GPa) = 25.49621 26.17364 25.83492
#
# Velocity S-wave (km/s) = 3.93987 3.99187 3.96595
# Velocity P-wave (km/s) = 7.08338 7.12331 7.10337
#
# Compressibility (1/GPa) = 0.02065370
#
# Stress axis : x y z
#
# Youngs Moduli (GPa) = 72.73403 66.19313 67.65665
#
# Poissons Ratio (x) = 0.21267 0.23022
# Poissons Ratio (y) = 0.23368 0.32988
# Poissons Ratio (z) = 0.24750 0.32275
#
# Static dielectric constant tensor:
#      x y z
#    x 1.546700 0.000000 0.000000 
#    y 0.000000 1.553440 0.000000 
#    z 0.000000 0.000000 1.570650 
# 
# From -- ./inp_files/12326.got.cif
#   From: 2010.05.17/outbox.ucp.g08.bks.cvg/sg63_7_cif.got.tgz:12326.got - 2010.06.11 16:32:19.
