data_PCOD9476392
_publ_section_title
;
Structure prediction by ZEFSAII (Michael W. Deem and Ramdas Pophale) SiO2 
 PCOD9476392
Probable space group: C M C A
;
_chemical_formula_sum "Si O2"
_cell_formula_units_Z 56
_cell_length_a 24.317559
_cell_length_b 8.362507
_cell_length_c 11.645586
_cell_angle_alpha 90.000000
_cell_angle_beta 90.000000
_cell_angle_gamma 90.000000
_cell_volume 2368.196961
_symmetry_space_group_name_H-M "C M C A"
_symmetry_group_IT_number 64
_symmetry_cell_setting 'orthorhombic'
loop_
_space_group_symop_operation_xyz
x,y,z
-x,1/2-y,1/2+z
x,-y,-z
-x,1/2+y,1/2-z
-x,-y,-z
x,1/2+y,1/2-z
-x,y,z
x,1/2-y,1/2+z
1/2+x,1/2+y,z
1/2-x,-y,1/2+z
1/2+x,1/2-y,-z
1/2-x,y,1/2-z
1/2-x,1/2-y,-z
1/2+x,y,1/2-z
1/2-x,1/2+y,z
1/2+x,-y,1/2+z
loop_
_atom_site_type_symbol
_atom_site_label
_atom_site_fract_x
_atom_site_fract_y
_atom_site_fract_z
Si Si1 0.594708 0.589529 0.380573
Si Si2 0.670287 0.101477 0.320941
Si Si3 0.750000 0.849884 0.250000
Si Si4 0.060393 0.953575 0.151542
O O1 0.597600 0.500000 0.500000
O O2 0.652471 0.609610 0.314123
O O3 0.563562 0.473724 0.289969
O O4 0.569357 0.768283 0.381119
O O5 0.710613 0.953531 0.330607
O O6 0.612261 0.067100 0.382469
O O7 0.708516 0.253440 0.332743
O O8 0.000000 0.010323 0.117515
#
# Coordination Sequence:
#
# PCOD9476392 Si02
#       4
#    16  16   8  16
#     4  10  21  39  60  88 119 155 198 237 295 352
#     4   9  18  33  55  84 109 157 186 239 288 340
#     4  10  16  32  62  76 118 154 192 238 298 328
#     4  10  20  36  59  86 117 151 193 241 292 347
#
# _framework density 23.646682999999999
#
# number of rings (size 3 to 8) (size 9 to 14) (size 15 to 20)
#    1.714    0.571    2.857    0.857    0.000    2.286 
#    0.000    2.857    0.000    3.429    0.000    0.000 
#    0.000    0.000    0.000    0.000    0.000    0.000 
#
# Total GULP energy -155901.071070 kJ/mol
# GULP energy per Si atom -5567.895395 kJ/mol
# Density = 2.359286 g / cm^3
# Si number density = 23.646683 Si / 1000 Ang^3
#
#
#
# Elastic Constant Matrix: (Units=GPa)
#
#
# Indices 1 2 3 4 5 6 
#
# 1 187.9983 47.5393 -2.3686 0.0000 0.0000 0.0000
# 2 47.5393 84.7909 -12.3000 0.0000 0.0000 0.0000
# 3 -2.3686 -12.3000 96.3696 0.0000 0.0000 0.0000
# 4 0.0000 0.0000 0.0000 20.5886 0.0000 0.0000
# 5 0.0000 0.0000 0.0000 0.0000 -14.9239 0.0000
# 6 0.0000 0.0000 0.0000 0.0000 0.0000 -1.1112
#
#
#
# Elastic Compliance Matrix: (Units=1/GPa)
#
#
# Indices 1 2 3 4 5 6 
#
# 1 0.006206 -0.003523 -0.000297 0.000000 0.000000 0.000000
# 2 -0.003523 0.014016 0.001702 0.000000 0.000000 0.000000
# 3 -0.000297 0.001702 0.010587 0.000000 0.000000 0.000000
# 4 0.000000 0.000000 0.000000 0.048571 0.000000 0.000000
# 5 0.000000 0.000000 0.000000 0.000000 -0.067007 0.000000
# 6 0.000000 0.000000 0.000000 0.000000 0.000000 -0.899898
#
#
# Mechanical properties :
#
#
# Convention : Reuss Voigt Hill
#
# Bulk Modulus (GPa) = 37.63129 48.32225 42.97677
# Shear Modulus (GPa) = -5.71799 23.32990 8.80595
#
# Velocity S-wave (km/s) = -1.55671 3.14443 1.93185
# Velocity P-wave (km/s) = 3.56615 5.80196 4.81561
#
# Compressibility (1/GPa) = 0.02657363
#
# Stress axis : x y z
#
# Youngs Moduli (GPa) = 161.12790 71.34845 94.45830
#
# Poissons Ratio (x) = 0.25134 0.02806
# Poissons Ratio (y) = 0.56761 -0.16080
# Poissons Ratio (z) = 0.04787 -0.12146
#
# Static dielectric constant tensor:
#      x y z
#    x 1.941460 0.000000 0.000000 
#    y 0.000000 1.925470 0.000000 
#    z 0.000000 0.000000 1.937740 
# 
# From -- ./inp_files/18813.got.cif
#   From: 2010.05.17/outbox.cif.g08.bks.cpg/sg64_10_cif.got.tgz:18813.got - 2010.06.03 16:29:19.
