data_PCOD9476888
_publ_section_title
;
Structure prediction by ZEFSAII (Michael W. Deem and Ramdas Pophale) SiO2 
 PCOD9476888
Probable space group: C M C A
;
_chemical_formula_sum "Si O2"
_cell_formula_units_Z 96
_cell_length_a 24.231438
_cell_length_b 21.771373
_cell_length_c 7.836916
_cell_angle_alpha 90.000000
_cell_angle_beta 90.000000
_cell_angle_gamma 90.000000
_cell_volume 4134.378163
_symmetry_space_group_name_H-M "C M C A"
_symmetry_group_IT_number 64
_symmetry_cell_setting 'orthorhombic'
loop_
_space_group_symop_operation_xyz
x,y,z
-x,1/2-y,1/2+z
x,-y,-z
-x,1/2+y,1/2-z
-x,-y,-z
x,1/2+y,1/2-z
-x,y,z
x,1/2-y,1/2+z
1/2+x,1/2+y,z
1/2-x,-y,1/2+z
1/2+x,1/2-y,-z
1/2-x,y,1/2-z
1/2-x,1/2-y,-z
1/2+x,y,1/2-z
1/2-x,1/2+y,z
1/2+x,-y,1/2+z
loop_
_atom_site_type_symbol
_atom_site_label
_atom_site_fract_x
_atom_site_fract_y
_atom_site_fract_z
Si Si1 0.000000 0.069179 0.781481
Si Si2 0.500000 0.075375 0.317619
Si Si3 0.674303 0.072621 0.445912
Si Si4 0.932814 0.263963 0.455204
Si Si5 0.212944 0.934435 0.423776
Si Si6 0.389318 0.370901 0.267493
Si Si7 0.398117 0.349473 0.725833
O O1 0.944554 0.091404 0.691671
O O2 0.000000 0.996879 0.802318
O O3 0.000000 0.093183 0.979894
O O4 0.551950 0.103585 0.225950
O O5 0.738117 0.090571 0.459076
O O6 0.635904 0.101751 0.590771
O O7 0.651940 0.105129 0.274641
O O8 0.670649 0.000000 0.500000
O O9 0.912225 0.305263 0.295081
O O10 0.903718 0.197409 0.432389
O O11 0.912526 0.303182 0.616888
O O12 0.000000 0.257277 0.454986
O O13 0.250000 0.945731 0.250000
O O14 0.162379 0.889009 0.387644
O O15 0.194182 0.000000 0.500000
#
# Coordination Sequence:
#
# PCOD9476888 Si02
#       7
#     8   8  16  16  16  16  16
#     4  11  18  29  54  87 113 140 183 237 280 320
#     4  11  18  29  53  85 113 137 190 242 263 320
#     4   9  17  33  57  85 104 137 189 242 275 324
#     4  11  19  35  51  75 109 152 185 224 271 335
#     4   9  19  36  59  81 108 144 187 234 290 345
#     4  10  18  32  53  78 112 148 179 224 282 340
#     4  11  20  33  55  80 111 147 189 229 281 336
#
# _framework density 23.219937000000002
#
# number of rings (size 3 to 8) (size 9 to 14) (size 15 to 20)
#    0.000    1.833    5.833    1.000    0.000    0.000 
#    0.000    7.917    0.000    0.000    0.000    0.000 
#    0.000    0.000    0.000    0.000    0.000    0.000 
#
# Total GULP energy -267793.306792 kJ/mol
# GULP energy per Si atom -5579.027225 kJ/mol
# Density = 2.316709 g / cm^3
# Si number density = 23.219937 Si / 1000 Ang^3
#
#
#
# Elastic Constant Matrix: (Units=GPa)
#
#
# Indices 1 2 3 4 5 6 
#
# 1 153.4617 39.8387 6.9742 0.0000 0.0000 0.0000
# 2 39.8387 104.8174 4.1026 0.0000 0.0000 0.0000
# 3 6.9742 4.1026 69.9472 0.0000 0.0000 0.0000
# 4 0.0000 0.0000 0.0000 40.2061 0.0000 0.0000
# 5 0.0000 0.0000 0.0000 0.0000 7.9838 0.0000
# 6 0.0000 0.0000 0.0000 0.0000 0.0000 38.1093
#
#
#
# Elastic Compliance Matrix: (Units=1/GPa)
#
#
# Indices 1 2 3 4 5 6 
#
# 1 0.007252 -0.002734 -0.000563 0.000000 0.000000 0.000000
# 2 -0.002734 0.010593 -0.000349 0.000000 0.000000 0.000000
# 3 -0.000563 -0.000349 0.014373 0.000000 0.000000 0.000000
# 4 0.000000 0.000000 0.000000 0.024872 0.000000 0.000000
# 5 0.000000 0.000000 0.000000 0.000000 0.125254 0.000000
# 6 0.000000 0.000000 0.000000 0.000000 0.000000 0.026240
#
#
# Mechanical properties :
#
#
# Convention : Reuss Voigt Hill
#
# Bulk Modulus (GPa) = 40.11734 47.78412 43.95073
# Shear Modulus (GPa) = 22.30306 35.74722 29.02514
#
# Velocity S-wave (km/s) = 3.10258 3.92791 3.53938
# Velocity P-wave (km/s) = 5.49083 6.41832 5.97261
#
# Compressibility (1/GPa) = 0.02492688
#
# Stress axis : x y z
#
# Youngs Moduli (GPa) = 137.89982 94.39983 69.57460
#
# Poissons Ratio (x) = 0.25810 0.03915
# Poissons Ratio (y) = 0.37704 0.02426
# Poissons Ratio (z) = 0.07759 0.03292
#
# Static dielectric constant tensor:
#      x y z
#    x 1.848080 0.000000 0.000000 
#    y 0.000000 1.872250 0.000000 
#    z 0.000000 0.000000 2.105730 
# 
# From -- ./inp_files/18494.got.cif
#   From: 2010.05.17/outbox.cif.g08.bks.cpg/sg64_10_cif.got.tgz:18494.got - 2010.06.03 16:29:19.
