data_PCOD9476635
_publ_section_title
;
Structure prediction by ZEFSAII (Michael W. Deem and Ramdas Pophale) SiO2 
 PCOD9476635
Probable space group: C M C A
;
_chemical_formula_sum "Si O2"
_cell_formula_units_Z 104
_cell_length_a 23.195875
_cell_length_b 19.311703
_cell_length_c 12.213163
_cell_angle_alpha 90.000000
_cell_angle_beta 90.000000
_cell_angle_gamma 90.000000
_cell_volume 5470.908946
_symmetry_space_group_name_H-M "C M C A"
_symmetry_group_IT_number 64
_symmetry_cell_setting 'orthorhombic'
loop_
_space_group_symop_operation_xyz
x,y,z
-x,1/2-y,1/2+z
x,-y,-z
-x,1/2+y,1/2-z
-x,-y,-z
x,1/2+y,1/2-z
-x,y,z
x,1/2-y,1/2+z
1/2+x,1/2+y,z
1/2-x,-y,1/2+z
1/2+x,1/2-y,-z
1/2-x,y,1/2-z
1/2-x,1/2-y,-z
1/2+x,y,1/2-z
1/2-x,1/2+y,z
1/2+x,-y,1/2+z
loop_
_atom_site_type_symbol
_atom_site_label
_atom_site_fract_x
_atom_site_fract_y
_atom_site_fract_z
Si Si1 0.128651 0.431472 0.937616
Si Si2 0.500000 0.648486 0.206533
Si Si3 0.195573 0.173571 0.585792
Si Si4 0.500000 0.697555 0.671294
Si Si5 0.500000 0.114375 0.053599
Si Si6 0.181853 0.671559 0.502370
Si Si7 0.121170 0.209164 0.782740
Si Si8 0.872897 0.627558 0.287312
O O1 0.147646 0.420643 0.812036
O O2 0.059047 0.428113 0.937560
O O3 0.148070 0.500000 0.000000
O O4 0.152302 0.367288 0.007133
O O5 0.500000 0.720741 0.143282
O O6 0.500000 0.663215 0.338369
O O7 0.560240 0.611242 0.185771
O O8 0.194771 0.253885 0.551605
O O9 0.259932 0.147274 0.562340
O O10 0.169956 0.173289 0.707307
O O11 0.500000 0.654591 0.560171
O O12 0.558600 0.686449 0.739148
O O13 0.133472 0.687275 0.593313
O O14 0.162367 0.625826 0.399470
O O15 0.126551 0.292624 0.760649
#
# Coordination Sequence:
#
# PCOD9476635 Si02
#       8
#    16   8  16   8   8  16  16  16
#     4  11  21  37  59  81 111 148 197 239 278 339
#     4   8  18  27  49  78 113 145 169 235 290 335
#     4  10  20  34  55  82 108 150 187 234 284 336
#     4  10  18  27  53  79 113 147 170 235 291 342
#     4  10  19  36  52  83 114 140 194 233 286 350
#     4  10  20  33  55  80 118 143 181 236 290 350
#     4  10  18  32  53  84 113 144 182 233 295 347
#     4   9  19  32  51  84 113 144 186 230 289 336
#
# _framework density 19.009637999999999
#
# number of rings (size 3 to 8) (size 9 to 14) (size 15 to 20)
#    0.000    2.154    3.077    0.692    0.000    1.231 
#    0.000    0.000    6.769    0.000    0.000    1.077 
#    0.000    0.000    0.000    0.000    0.000    0.000 
#
# Total GULP energy -289812.354828 kJ/mol
# GULP energy per Si atom -5573.314516 kJ/mol
# Density = 1.896637 g / cm^3
# Si number density = 19.009638 Si / 1000 Ang^3
#
#
#
# Elastic Constant Matrix: (Units=GPa)
#
#
# Indices 1 2 3 4 5 6 
#
# 1 78.2034 12.9723 43.3692 0.0000 0.0000 0.0000
# 2 12.9723 13.2950 19.6924 0.0000 0.0000 0.0000
# 3 43.3692 19.6924 120.8751 0.0000 0.0000 0.0000
# 4 0.0000 0.0000 0.0000 14.3372 0.0000 0.0000
# 5 0.0000 0.0000 0.0000 0.0000 0.6397 0.0000
# 6 0.0000 0.0000 0.0000 0.0000 0.0000 4.3357
#
#
#
# Elastic Compliance Matrix: (Units=1/GPa)
#
#
# Indices 1 2 3 4 5 6 
#
# 1 0.016897 -0.009895 -0.004450 0.000000 0.000000 0.000000
# 2 -0.009895 0.104934 -0.013545 0.000000 0.000000 0.000000
# 3 -0.004450 -0.013545 0.012076 0.000000 0.000000 0.000000
# 4 0.000000 0.000000 0.000000 0.069749 0.000000 0.000000
# 5 0.000000 0.000000 0.000000 0.000000 1.563278 0.000000
# 6 0.000000 0.000000 0.000000 0.000000 0.000000 0.230643
#
#
# Mechanical properties :
#
#
# Convention : Reuss Voigt Hill
#
# Bulk Modulus (GPa) = 12.79974 40.49348 26.64661
# Shear Modulus (GPa) = 2.40454 12.95182 7.67818
#
# Velocity S-wave (km/s) = 1.12590 2.61306 2.01193
# Velocity P-wave (km/s) = 2.90484 5.51832 4.40965
#
# Compressibility (1/GPa) = 0.07812656
#
# Stress axis : x y z
#
# Youngs Moduli (GPa) = 59.18382 9.52980 82.80564
#
# Poissons Ratio (x) = 0.09429 0.36852
# Poissons Ratio (y) = 0.58560 1.12162
# Poissons Ratio (z) = 0.26339 0.12908
#
# Static dielectric constant tensor:
#      x y z
#    x 1.710160 0.000000 0.000000 
#    y 0.000000 1.651340 0.000000 
#    z 0.000000 0.000000 1.663540 
# 
# From -- ./inp_files/19248.got.cif
#   From: 2010.05.17/outbox.cif.g08.bks.cpg/sg64_10_cif.got.tgz:19248.got - 2010.06.03 16:29:19.
