data_PCOD9476486
_publ_section_title
;
Structure prediction by ZEFSAII (Michael W. Deem and Ramdas Pophale) SiO2 
 PCOD9476486
Probable space group: C M C A
;
_chemical_formula_sum "Si O2"
_cell_formula_units_Z 96
_cell_length_a 17.891927
_cell_length_b 23.736967
_cell_length_c 10.993484
_cell_angle_alpha 90.000000
_cell_angle_beta 90.000000
_cell_angle_gamma 90.000000
_cell_volume 4668.933543
_symmetry_space_group_name_H-M "C M C A"
_symmetry_group_IT_number 64
_symmetry_cell_setting 'orthorhombic'
loop_
_space_group_symop_operation_xyz
x,y,z
-x,1/2-y,1/2+z
x,-y,-z
-x,1/2+y,1/2-z
-x,-y,-z
x,1/2+y,1/2-z
-x,y,z
x,1/2-y,1/2+z
1/2+x,1/2+y,z
1/2-x,-y,1/2+z
1/2+x,1/2-y,-z
1/2-x,y,1/2-z
1/2-x,1/2-y,-z
1/2+x,y,1/2-z
1/2-x,1/2+y,z
1/2+x,-y,1/2+z
loop_
_atom_site_type_symbol
_atom_site_label
_atom_site_fract_x
_atom_site_fract_y
_atom_site_fract_z
Si Si1 0.858559 0.859369 0.524212
Si Si2 0.584091 0.265579 0.346780
Si Si3 0.664838 0.065002 0.782780
Si Si4 0.791267 0.803234 0.937069
Si Si5 0.918965 0.533370 0.129776
Si Si6 0.584820 0.350796 0.119536
O O1 0.899514 0.804450 0.466970
O O2 0.845807 0.898694 0.405575
O O3 0.779096 0.843746 0.584085
O O4 0.905214 0.900696 0.610055
O O5 0.500000 0.241826 0.357213
O O6 0.653571 0.222733 0.335765
O O7 0.585387 0.305468 0.229420
O O8 0.750000 0.073147 0.750000
O O9 0.610232 0.091482 0.682707
O O10 0.644966 0.999891 0.800484
O O11 0.750000 0.750000 0.000000
O O12 0.851229 0.832278 0.026366
O O13 0.000000 0.524141 0.187109
O O14 0.921281 0.500000 0.000000
O O15 0.500000 0.353515 0.071925
#
# Coordination Sequence:
#
# PCOD9476486 Si02
#       6
#    16  16  16  16  16  16
#     4   9  17  29  47  71 101 133 166 208 258 303
#     4   9  18  30  49  74 105 140 174 210 253 300
#     4  10  17  29  50  75 102 126 167 215 259 305
#     4  10  19  30  49  75 104 141 175 210 254 308
#     4   9  17  29  48  74 100 125 158 205 261 308
#     4  10  19  32  51  77 106 136 172 216 259 306
#
# _framework density 20.561442
#
# number of rings (size 3 to 8) (size 9 to 14) (size 15 to 20)
#    0.000    2.500    1.667    1.500    0.000    4.000 
#    0.000    0.000    7.333    0.000    0.000    4.667 
#    0.000    0.000    0.000    0.000    0.000    0.000 
#
# Total GULP energy -267515.766642 kJ/mol
# GULP energy per Si atom -5573.245138 kJ/mol
# Density = 2.051464 g / cm^3
# Si number density = 20.561442 Si / 1000 Ang^3
#
#
#
# Elastic Constant Matrix: (Units=GPa)
#
#
# Indices 1 2 3 4 5 6 
#
# 1 114.0143 11.8552 3.3968 0.0000 0.0000 0.0000
# 2 11.8552 43.1158 0.7744 0.0000 0.0000 0.0000
# 3 3.3968 0.7744 6.7042 0.0000 0.0000 0.0000
# 4 0.0000 0.0000 0.0000 9.6319 0.0000 0.0000
# 5 0.0000 0.0000 0.0000 0.0000 10.6832 0.0000
# 6 0.0000 0.0000 0.0000 0.0000 0.0000 28.4125
#
#
#
# Elastic Compliance Matrix: (Units=1/GPa)
#
#
# Indices 1 2 3 4 5 6 
#
# 1 0.009154 -0.002439 -0.004356 0.000000 0.000000 0.000000
# 2 -0.002439 0.023891 -0.001524 0.000000 0.000000 0.000000
# 3 -0.004356 -0.001524 0.151543 0.000000 0.000000 0.000000
# 4 0.000000 0.000000 0.000000 0.103822 0.000000 0.000000
# 5 0.000000 0.000000 0.000000 0.000000 0.093605 0.000000
# 6 0.000000 0.000000 0.000000 0.000000 0.000000 0.035196
#
#
# Mechanical properties :
#
#
# Convention : Reuss Voigt Hill
#
# Bulk Modulus (GPa) = 5.95416 21.76524 13.85970
# Shear Modulus (GPa) = 10.20757 19.59938 14.90348
#
# Velocity S-wave (km/s) = 2.23052 3.09076 2.69518
# Velocity P-wave (km/s) = 3.08799 4.83172 4.05470
#
# Compressibility (1/GPa) = 0.16794981
#
# Stress axis : x y z
#
# Youngs Moduli (GPa) = 109.23939 41.85622 6.59879
#
# Poissons Ratio (x) = 0.10208 0.02875
# Poissons Ratio (y) = 0.26641 0.01006
# Poissons Ratio (z) = 0.47589 0.06379
#
# Static dielectric constant tensor:
#      x y z
#    x 1.682300 0.000000 0.000000 
#    y 0.000000 1.759750 0.000000 
#    z 0.000000 0.000000 1.769310 
# 
# From -- ./inp_files/16169.got.cif
#   From: 2010.05.17/outbox.cif.g08.bks.cpg/sg64_9_cif.got.tgz:16169.got - 2010.06.03 16:29:19.
