data_PCOD9476872
_publ_section_title
;
Structure prediction by ZEFSAII (Michael W. Deem and Ramdas Pophale) SiO2 
 PCOD9476872
Probable space group: C M C A
;
_chemical_formula_sum "Si O2"
_cell_formula_units_Z 112
_cell_length_a 13.658307
_cell_length_b 29.486203
_cell_length_c 14.676384
_cell_angle_alpha 90.000000
_cell_angle_beta 90.000000
_cell_angle_gamma 90.000000
_cell_volume 5910.643799
_symmetry_space_group_name_H-M "C M C A"
_symmetry_group_IT_number 64
_symmetry_cell_setting 'orthorhombic'
loop_
_space_group_symop_operation_xyz
x,y,z
-x,1/2-y,1/2+z
x,-y,-z
-x,1/2+y,1/2-z
-x,-y,-z
x,1/2+y,1/2-z
-x,y,z
x,1/2-y,1/2+z
1/2+x,1/2+y,z
1/2-x,-y,1/2+z
1/2+x,1/2-y,-z
1/2-x,y,1/2-z
1/2-x,1/2-y,-z
1/2+x,y,1/2-z
1/2-x,1/2+y,z
1/2+x,-y,1/2+z
loop_
_atom_site_type_symbol
_atom_site_label
_atom_site_fract_x
_atom_site_fract_y
_atom_site_fract_z
Si Si1 0.118372 0.937816 0.083798
Si Si2 0.884537 0.835947 0.563781
Si Si3 0.118470 0.962958 0.874444
Si Si4 0.780791 0.250643 0.854554
Si Si5 0.382109 0.382236 0.747932
Si Si6 0.888486 0.308630 0.603635
Si Si7 0.203479 0.153973 0.932629
O O1 0.175752 0.893081 0.114082
O O2 0.000000 0.932323 0.091586
O O3 0.148226 0.984554 0.133375
O O4 0.142420 0.945849 0.976418
O O5 0.860284 0.787059 0.610294
O O6 0.858153 0.872144 0.643474
O O7 0.810378 0.844373 0.480499
O O8 0.000000 0.838701 0.542315
O O9 0.152435 0.927712 0.797939
O O10 0.000000 0.963368 0.871626
O O11 0.750000 0.255357 0.750000
O O12 0.682699 0.266115 0.908080
O O13 0.807581 0.199007 0.873071
O O14 0.500000 0.383120 0.751406
O O15 0.354989 0.339420 0.811349
O O16 0.873749 0.339654 0.515448
O O17 0.000000 0.295041 0.616193
#
# Coordination Sequence:
#
# PCOD9476872 Si02
#       7
#    16  16  16  16  16  16  16
#     4   9  16  29  49  77 110 134 163 210 264 323
#     4  10  21  36  52  75 110 144 182 226 265 315
#     4   8  14  26  49  78 104 130 157 202 272 327
#     4  11  23  36  49  71 104 146 185 226 266 314
#     4   9  15  27  51  78 106 135 164 214 276 320
#     4  10  18  32  52  75 105 137 171 217 274 321
#     4  11  22  32  51  77 106 145 182 215 263 324
#
# _framework density 18.948865000000001
#
# number of rings (size 3 to 8) (size 9 to 14) (size 15 to 20)
#    0.000    2.286    2.857    3.000    0.000    2.857 
#    0.000    0.000    0.000    3.429    0.000    2.000 
#    0.000    0.000    0.000    0.000    0.000    0.000 
#
# Total GULP energy -312267.051831 kJ/mol
# GULP energy per Si atom -5576.197354 kJ/mol
# Density = 1.890574 g / cm^3
# Si number density = 18.948865 Si / 1000 Ang^3
#
#
#
# Elastic Constant Matrix: (Units=GPa)
#
#
# Indices 1 2 3 4 5 6 
#
# 1 78.4618 25.8982 4.4023 0.0000 0.0000 0.0000
# 2 25.8982 153.4757 18.0013 0.0000 0.0000 0.0000
# 3 4.4023 18.0013 28.3338 0.0000 0.0000 0.0000
# 4 0.0000 0.0000 0.0000 27.9463 0.0000 0.0000
# 5 0.0000 0.0000 0.0000 0.0000 14.0589 0.0000
# 6 0.0000 0.0000 0.0000 0.0000 0.0000 20.1874
#
#
#
# Elastic Compliance Matrix: (Units=1/GPa)
#
#
# Indices 1 2 3 4 5 6 
#
# 1 0.013510 -0.002197 -0.000703 0.000000 0.000000 0.000000
# 2 -0.002197 0.007398 -0.004359 0.000000 0.000000 0.000000
# 3 -0.000703 -0.004359 0.038172 0.000000 0.000000 0.000000
# 4 0.000000 0.000000 0.000000 0.035783 0.000000 0.000000
# 5 0.000000 0.000000 0.000000 0.000000 0.071130 0.000000
# 6 0.000000 0.000000 0.000000 0.000000 0.000000 0.049536
#
#
# Mechanical properties :
#
#
# Convention : Reuss Voigt Hill
#
# Bulk Modulus (GPa) = 22.44087 39.65277 31.04682
# Shear Modulus (GPa) = 20.41656 26.56982 23.49319
#
# Velocity S-wave (km/s) = 3.28602 3.74864 3.52493
# Velocity P-wave (km/s) = 5.12502 6.30143 5.74342
#
# Compressibility (1/GPa) = 0.04456155
#
# Stress axis : x y z
#
# Youngs Moduli (GPa) = 74.02064 135.17755 26.19727
#
# Poissons Ratio (x) = 0.29702 0.01842
# Poissons Ratio (y) = 0.16264 0.11418
# Poissons Ratio (z) = 0.05204 0.58918
#
# Static dielectric constant tensor:
#      x y z
#    x 1.673630 0.000000 0.000000 
#    y 0.000000 1.695160 0.000000 
#    z 0.000000 0.000000 1.702410 
# 
# From -- ./inp_files/24383.got.cif
#   From: 2010.05.17/outbox.cif.g08.bks.cpg/sg64_13_cif.got.tgz:24383.got - 2010.06.03 16:29:19.
