data_PCOD9476512
_publ_section_title
;
Structure prediction by ZEFSAII (Michael W. Deem and Ramdas Pophale) SiO2 
 PCOD9476512
Probable space group: C M C A
;
_chemical_formula_sum "Si O2"
_cell_formula_units_Z 88
_cell_length_a 16.123924
_cell_length_b 8.894016
_cell_length_c 28.509276
_cell_angle_alpha 90.000000
_cell_angle_beta 90.000000
_cell_angle_gamma 90.000000
_cell_volume 4088.413722
_symmetry_space_group_name_H-M "C M C A"
_symmetry_group_IT_number 64
_symmetry_cell_setting 'orthorhombic'
loop_
_space_group_symop_operation_xyz
x,y,z
-x,1/2-y,1/2+z
x,-y,-z
-x,1/2+y,1/2-z
-x,-y,-z
x,1/2+y,1/2-z
-x,y,z
x,1/2-y,1/2+z
1/2+x,1/2+y,z
1/2-x,-y,1/2+z
1/2+x,1/2-y,-z
1/2-x,y,1/2-z
1/2-x,1/2-y,-z
1/2+x,y,1/2-z
1/2-x,1/2+y,z
1/2+x,-y,1/2+z
loop_
_atom_site_type_symbol
_atom_site_label
_atom_site_fract_x
_atom_site_fract_y
_atom_site_fract_z
Si Si1 0.176373 0.820970 0.858013
Si Si2 0.500000 0.386937 0.817943
Si Si3 0.411690 0.771265 0.923593
Si Si4 0.260135 0.803453 0.053005
Si Si5 0.500000 0.048020 0.774985
Si Si6 0.372817 0.500000 0.500000
Si Si7 0.651855 0.032135 0.162875
O O1 0.087122 0.890019 0.845797
O O2 0.196993 0.816642 0.913287
O O3 0.257277 0.890800 0.832283
O O4 0.170215 0.642933 0.846954
O O5 0.500000 0.519870 0.780163
O O6 0.500000 0.222617 0.791450
O O7 0.500000 0.695248 0.916239
O O8 0.330687 0.668216 0.926578
O O9 0.415977 0.862295 0.973335
O O10 0.394079 0.884253 0.880372
O O11 0.250000 0.750000 0.000000
O O12 0.318631 0.942879 0.043811
O O13 0.583704 0.970938 0.795708
#
# Coordination Sequence:
#
# PCOD9476512 Si02
#       7
#    16   8  16  16   8   8  16
#     4  10  21  39  60  89 120 161 198 249 304 357
#     4  10  24  42  66  88 123 155 202 256 308 366
#     4  10  18  31  51  81 109 150 193 244 283 345
#     4   9  19  33  52  80 118 156 195 240 294 348
#     4  10  22  42  64  92 116 154 197 255 308 366
#     4  10  17  30  53  76 110 148 198 233 288 347
#     4  10  20  37  62  85 120 154 200 246 300 360
#
# _framework density 21.524239999999999
#
# number of rings (size 3 to 8) (size 9 to 14) (size 15 to 20)
#    0.000    2.182    2.727    0.273    0.000    2.182 
#    6.545    4.091    0.000    0.000    0.000    0.000 
#    0.000    0.000    0.000    0.000    0.000    0.000 
#
# Total GULP energy -245129.829038 kJ/mol
# GULP energy per Si atom -5571.132478 kJ/mol
# Density = 2.147525 g / cm^3
# Si number density = 21.524240 Si / 1000 Ang^3
#
#
#
# Elastic Constant Matrix: (Units=GPa)
#
#
# Indices 1 2 3 4 5 6 
#
# 1 164.4137 16.0371 36.5875 0.0000 0.0000 0.0000
# 2 16.0371 29.3298 3.0936 0.0000 0.0000 0.0000
# 3 36.5875 3.0936 56.8974 0.0000 0.0000 0.0000
# 4 0.0000 0.0000 0.0000 25.1422 0.0000 0.0000
# 5 0.0000 0.0000 0.0000 0.0000 35.2785 0.0000
# 6 0.0000 0.0000 0.0000 0.0000 0.0000 9.4438
#
#
#
# Elastic Compliance Matrix: (Units=1/GPa)
#
#
# Indices 1 2 3 4 5 6 
#
# 1 0.007456 -0.003592 -0.004599 0.000000 0.000000 0.000000
# 2 -0.003592 0.036022 0.000351 0.000000 0.000000 0.000000
# 3 -0.004599 0.000351 0.020514 0.000000 0.000000 0.000000
# 4 0.000000 0.000000 0.000000 0.039774 0.000000 0.000000
# 5 0.000000 0.000000 0.000000 0.000000 0.028346 0.000000
# 6 0.000000 0.000000 0.000000 0.000000 0.000000 0.105890
#
#
# Mechanical properties :
#
#
# Convention : Reuss Voigt Hill
#
# Bulk Modulus (GPa) = 20.69879 40.23083 30.46481
# Shear Modulus (GPa) = 18.53326 26.96774 22.75050
#
# Velocity S-wave (km/s) = 2.93753 3.54347 3.25464
# Velocity P-wave (km/s) = 4.59814 5.95593 5.32053
#
# Compressibility (1/GPa) = 0.04831201
#
# Stress axis : x y z
#
# Youngs Moduli (GPa) = 134.11919 27.76090 48.74736
#
# Poissons Ratio (x) = 0.09971 0.22420
# Poissons Ratio (y) = 0.48172 -0.01712
# Poissons Ratio (z) = 0.61685 -0.00975
#
# Static dielectric constant tensor:
#      x y z
#    x 1.852590 0.000000 0.000000 
#    y 0.000000 1.840860 0.000000 
#    z 0.000000 0.000000 1.790890 
# 
# From -- ./inp_files/49973.got.cif
#   From: 2010.05.17/outbox.cif.g08.bks.cpg/sg64_25_cif.got.tgz:49973.got - 2010.06.03 16:29:19.
