data_PCOD9476064
_publ_section_title
;
Structure prediction by ZEFSAII (Michael W. Deem and Ramdas Pophale) SiO2 
 PCOD9476064
Probable space group: C M C M
;
_chemical_formula_sum "Si O2"
_cell_formula_units_Z 52
_cell_length_a 27.000000
_cell_length_b 24.000000
_cell_length_c 9.000000
_cell_angle_alpha 90.000000
_cell_angle_beta 90.000000
_cell_angle_gamma 90.000000
_cell_volume 5832.000000
_symmetry_space_group_name_H-M "C M C M"
_symmetry_group_IT_number 63
_symmetry_cell_setting 'orthorhombic'
loop_
_space_group_symop_operation_xyz
x,y,z
-x,-y,1/2+z
x,-y,-z
-x,y,1/2-z
-x,-y,-z
x,y,1/2-z
-x,y,z
x,-y,1/2+z
1/2+x,1/2+y,z
1/2-x,1/2-y,1/2+z
1/2+x,1/2-y,-z
1/2-x,1/2+y,1/2-z
1/2-x,1/2-y,-z
1/2+x,1/2+y,1/2-z
1/2-x,1/2+y,z
1/2+x,1/2-y,1/2+z
loop_
_atom_site_type_symbol
_atom_site_label
_atom_site_fract_x
_atom_site_fract_y
_atom_site_fract_z
Si Si1 0.943189 0.883549 0.928458
Si Si2 0.000000 0.562630 0.569695
Si Si3 0.654561 0.558479 0.070923
Si Si4 0.558837 0.730616 0.583840
Si Si5 0.188181 0.301379 0.071154
Si Si6 0.294422 0.324261 0.570737
Si Si7 0.083455 0.346480 0.071422
O O1 0.942588 0.877785 0.750000
O O2 0.903010 0.929925 0.969043
O O3 0.000000 0.895328 0.973949
O O4 0.925513 0.824525 0.995339
O O5 0.000000 0.500000 0.500000
O O6 0.951514 0.600911 0.527709
O O7 0.000000 0.557058 0.750000
O O8 0.658697 0.554272 0.250000
O O9 0.682088 0.616250 0.024645
O O10 0.671382 0.500000 0.000000
O O11 0.580573 0.733116 0.750000
O O12 0.500000 0.723251 0.597492
O O13 0.565061 0.788752 0.499296
O O14 0.194199 0.302756 0.250000
O O15 0.179631 0.235529 0.029927
O O16 0.142151 0.342237 0.034074
O O17 0.238970 0.319281 0.993445
O O18 0.293494 0.325000 0.750000
O O19 0.079256 0.342766 0.250000
#
# Coordination Sequence:
#
# PCOD9476064 Si02
#       7
#    16   8  16  16  16  16  16
#     4   9  18  33  52  73 102 140 178 215 259 310
#     4  10  22  38  56  76 104 144 183 218 265 322
#     4  10  21  36  53  74 102 141 183 218 257 308
#     4  10  19  29  46  77 110 136 166 210 258 302
#     4   9  18  33  57  83 105 130 169 218 265 317
#     4   9  18  34  53  77 109 138 168 213 268 318
#     4  10  19  34  55  78 103 138 178 214 260 323
#
# _framework density 8.9163239999999995
#
# number of rings (size 3 to 8) (size 9 to 14) (size 15 to 20)
#    0.000    2.462    0.769    1.385    0.000    5.846 
#    0.000    3.846    0.000    3.692    0.000    0.000 
#    0.000    0.000    0.000    0.000    0.000    0.000 
#
# Total GULP energy -289627.881148 kJ/mol
# GULP energy per Si atom -5569.766945 kJ/mol
# Density = 0.889603 g / cm^3
# Si number density = 8.916324 Si / 1000 Ang^3
#
#
#
# Elastic Constant Matrix: (Units=GPa)
#
#
# Indices 1 2 3 4 5 6 
#
# 1 94.7052 59.6737 17.5894 0.0000 0.0000 0.0000
# 2 59.6737 141.4233 22.8429 0.0000 0.0000 0.0000
# 3 17.5894 22.8429 5.4002 0.0000 0.0000 0.0000
# 4 0.0000 0.0000 0.0000 29.6265 0.0000 0.0000
# 5 0.0000 0.0000 0.0000 0.0000 22.4478 0.0000
# 6 0.0000 0.0000 0.0000 0.0000 0.0000 30.8201
#
#
#
# Elastic Compliance Matrix: (Units=1/GPa)
#
#
# Indices 1 2 3 4 5 6 
#
# 1 0.030703 0.010095 -0.142704 0.000000 0.000000 0.000000
# 2 0.010095 0.025641 -0.141343 0.000000 0.000000 0.000000
# 3 -0.142704 -0.141343 1.247866 0.000000 0.000000 0.000000
# 4 0.000000 0.000000 0.000000 0.033754 0.000000 0.000000
# 5 0.000000 0.000000 0.000000 0.000000 0.044548 0.000000
# 6 0.000000 0.000000 0.000000 0.000000 0.000000 0.032446
#
#
# Mechanical properties :
#
#
# Convention : Reuss Voigt Hill
#
# Bulk Modulus (GPa) = 1.32222 49.08233 25.20227
# Shear Modulus (GPa) = 2.25737 26.00706 14.13221
#
# Velocity S-wave (km/s) = 1.12633 3.82304 2.81818
# Velocity P-wave (km/s) = 1.56031 6.86084 4.97522
#
# Compressibility (1/GPa) = 0.75630552
#
# Stress axis : x y z
#
# Youngs Moduli (GPa) = 32.57060 38.99933 0.80137
#
# Poissons Ratio (x) = -0.39369 0.11436
# Poissons Ratio (y) = -0.32879 0.11327
# Poissons Ratio (z) = 4.64795 5.51230
#
# Static dielectric constant tensor:
#      x y z
#    x 1.663850 0.000000 0.000000 
#    y 0.000000 1.584070 0.000000 
#    z 0.000000 0.000000 1.621540 
# 
# From -- ./inp_files/12905.got.cif
#   From: 2010.05.17/outbox.ucp.g08.bks.cvg/sg63_7_cif.got.tgz:12905.got - 2010.06.11 16:32:19.
