data_PCOD9476628
_publ_section_title
;
Structure prediction by ZEFSAII (Michael W. Deem and Ramdas Pophale) SiO2 
 PCOD9476628
Probable space group: C M C A
;
_chemical_formula_sum "Si O2"
_cell_formula_units_Z 96
_cell_length_a 27.538614
_cell_length_b 9.017716
_cell_length_c 22.152095
_cell_angle_alpha 90.000000
_cell_angle_beta 90.000000
_cell_angle_gamma 90.000000
_cell_volume 5501.149375
_symmetry_space_group_name_H-M "C M C A"
_symmetry_group_IT_number 64
_symmetry_cell_setting 'orthorhombic'
loop_
_space_group_symop_operation_xyz
x,y,z
-x,1/2-y,1/2+z
x,-y,-z
-x,1/2+y,1/2-z
-x,-y,-z
x,1/2+y,1/2-z
-x,y,z
x,1/2-y,1/2+z
1/2+x,1/2+y,z
1/2-x,-y,1/2+z
1/2+x,1/2-y,-z
1/2-x,y,1/2-z
1/2-x,1/2-y,-z
1/2+x,y,1/2-z
1/2-x,1/2+y,z
1/2+x,-y,1/2+z
loop_
_atom_site_type_symbol
_atom_site_label
_atom_site_fract_x
_atom_site_fract_y
_atom_site_fract_z
Si Si1 0.000000 0.764471 0.023123
Si Si2 0.103582 0.850452 0.874686
Si Si3 0.000000 0.453854 0.601915
Si Si4 0.280059 0.654260 0.823909
Si Si5 0.604073 0.835975 0.007971
Si Si6 0.830109 0.408819 0.444370
Si Si7 0.812962 0.174503 0.215959
O O1 0.049899 0.674787 0.019820
O O2 0.000000 0.876392 0.079674
O O3 0.000000 0.863067 0.961615
O O4 0.049207 0.908568 0.864480
O O5 0.135061 0.814989 0.815846
O O6 0.132979 0.979761 0.910060
O O7 0.101706 0.715687 0.922371
O O8 0.293514 0.648394 0.893903
O O9 0.225206 0.710195 0.814222
O O10 0.292360 0.491026 0.796922
O O11 0.311405 0.774102 0.785490
O O12 0.637977 0.720566 0.973137
O O13 0.623209 0.000000 0.000000
O O14 0.807182 0.500000 0.500000
#
# Coordination Sequence:
#
# PCOD9476628 Si02
#       7
#     8  16   8  16  16  16  16
#     4   9  15  26  46  73 101 134 178 209 250 305
#     4   9  18  32  51  74 101 138 177 209 258 317
#     4   9  14  28  54  71  95 142 175 207 247 312
#     4  10  20  35  56  76 101 138 178 228 270 317
#     4  10  18  27  45  76 109 137 168 219 266 304
#     4   9  18  34  51  75 106 141 181 217 263 334
#     4  10  20  35  55  78 100 132 180 223 263 323
#
# _framework density 17.450899
#
# number of rings (size 3 to 8) (size 9 to 14) (size 15 to 20)
#    0.000    2.500    1.667    2.250    0.000    2.667 
#    0.000    8.333    0.000    5.000    0.000    0.000 
#    0.000    0.000    0.000    0.000    0.000    0.000 
#
# Total GULP energy -267464.887091 kJ/mol
# GULP energy per Si atom -5572.185148 kJ/mol
# Density = 1.741118 g / cm^3
# Si number density = 17.450899 Si / 1000 Ang^3
#
#
#
# Elastic Constant Matrix: (Units=GPa)
#
#
# Indices 1 2 3 4 5 6 
#
# 1 70.8740 4.2646 38.6948 0.0000 0.0000 0.0000
# 2 4.2646 63.3778 13.9830 0.0000 0.0000 0.0000
# 3 38.6948 13.9830 84.5279 0.0000 0.0000 0.0000
# 4 0.0000 0.0000 0.0000 15.8756 0.0000 0.0000
# 5 0.0000 0.0000 0.0000 0.0000 31.7511 0.0000
# 6 0.0000 0.0000 0.0000 0.0000 0.0000 13.2594
#
#
#
# Elastic Compliance Matrix: (Units=1/GPa)
#
#
# Indices 1 2 3 4 5 6 
#
# 1 0.018837 0.000659 -0.008732 0.000000 0.000000 0.000000
# 2 0.000659 0.016399 -0.003015 0.000000 0.000000 0.000000
# 3 -0.008732 -0.003015 0.016327 0.000000 0.000000 0.000000
# 4 0.000000 0.000000 0.000000 0.062990 0.000000 0.000000
# 5 0.000000 0.000000 0.000000 0.000000 0.031495 0.000000
# 6 0.000000 0.000000 0.000000 0.000000 0.000000 0.075418
#
#
# Mechanical properties :
#
#
# Convention : Reuss Voigt Hill
#
# Bulk Modulus (GPa) = 34.02803 36.96272 35.49537
# Shear Modulus (GPa) = 19.72869 22.96634 21.34752
#
# Velocity S-wave (km/s) = 3.36598 3.63168 3.50135
# Velocity P-wave (km/s) = 5.88626 6.22996 6.06055
#
# Compressibility (1/GPa) = 0.02938753
#
# Stress axis : x y z
#
# Youngs Moduli (GPa) = 53.08568 60.97874 61.24990
#
# Poissons Ratio (x) = -0.04019 0.53486
# Poissons Ratio (y) = -0.03499 0.18464
# Poissons Ratio (z) = 0.46356 0.18382
#
# Static dielectric constant tensor:
#      x y z
#    x 1.591150 0.000000 0.000000 
#    y 0.000000 1.602530 0.000000 
#    z 0.000000 0.000000 1.601970 
# 
# From -- ./inp_files/46863.got.cif
#   From: 2010.05.17/outbox.cif.g08.bks.cpg/sg64_24_cif.got.tgz:46863.got - 2010.06.03 16:29:19.
