data_PCOD9476700
_publ_section_title
;
Structure prediction by ZEFSAII (Michael W. Deem and Ramdas Pophale) SiO2 
 PCOD9476700
Probable space group: C M C A
;
_chemical_formula_sum "Si O2"
_cell_formula_units_Z 96
_cell_length_a 19.182054
_cell_length_b 15.004492
_cell_length_c 17.850561
_cell_angle_alpha 90.000000
_cell_angle_beta 90.000000
_cell_angle_gamma 90.000000
_cell_volume 5137.694483
_symmetry_space_group_name_H-M "C M C A"
_symmetry_group_IT_number 64
_symmetry_cell_setting 'orthorhombic'
loop_
_space_group_symop_operation_xyz
x,y,z
-x,1/2-y,1/2+z
x,-y,-z
-x,1/2+y,1/2-z
-x,-y,-z
x,1/2+y,1/2-z
-x,y,z
x,1/2-y,1/2+z
1/2+x,1/2+y,z
1/2-x,-y,1/2+z
1/2+x,1/2-y,-z
1/2-x,y,1/2-z
1/2-x,1/2-y,-z
1/2+x,y,1/2-z
1/2-x,1/2+y,z
1/2+x,-y,1/2+z
loop_
_atom_site_type_symbol
_atom_site_label
_atom_site_fract_x
_atom_site_fract_y
_atom_site_fract_z
Si Si1 0.777075 0.333270 0.666174
Si Si2 0.240371 0.020434 0.629519
Si Si3 0.633389 0.552098 0.752712
Si Si4 0.580639 0.213756 0.651725
Si Si5 0.782457 0.191512 0.933821
Si Si6 0.922096 0.139500 0.228031
O O1 0.750000 0.350867 0.750000
O O2 0.745485 0.414372 0.617462
O O3 0.750613 0.238026 0.639875
O O4 0.860534 0.335777 0.670730
O O5 0.303167 0.036505 0.688962
O O6 0.169385 0.049103 0.671375
O O7 0.258287 0.089317 0.564119
O O8 0.596987 0.640691 0.783343
O O9 0.584729 0.465850 0.759062
O O10 0.500000 0.206159 0.628831
O O11 0.635099 0.199636 0.583839
O O12 0.591400 0.307734 0.694306
O O13 0.750000 0.250000 0.000000
O O14 0.000000 0.163089 0.203165
#
# Coordination Sequence:
#
# PCOD9476700 Si02
#       6
#    16  16  16  16  16  16
#     4  11  18  34  56  79 104 135 175 224 262 300
#     4   9  17  30  53  77 104 131 174 215 256 296
#     4   9  15  28  49  79 102 130 161 214 260 302
#     4  10  19  31  50  74 105 137 169 211 262 312
#     4  11  23  35  52  78 106 145 180 211 255 316
#     4  10  18  29  50  81 107 129 165 218 273 309
#
# _framework density 18.685424000000001
#
# number of rings (size 3 to 8) (size 9 to 14) (size 15 to 20)
#    0.000    2.000    5.000    1.500    2.333    0.667 
#    0.000    0.833    0.000    2.000    0.000   10.500 
#    0.000    0.000    0.000    0.000    0.000    0.000 
#
# Total GULP energy -267478.027591 kJ/mol
# GULP energy per Si atom -5572.458908 kJ/mol
# Density = 1.864289 g / cm^3
# Si number density = 18.685424 Si / 1000 Ang^3
#
#
#
# Elastic Constant Matrix: (Units=GPa)
#
#
# Indices 1 2 3 4 5 6 
#
# 1 112.8064 10.8190 10.9096 0.0000 0.0000 0.0000
# 2 10.8190 82.2044 6.6316 0.0000 0.0000 0.0000
# 3 10.9096 6.6316 29.3368 0.0000 0.0000 0.0000
# 4 0.0000 0.0000 0.0000 18.8266 0.0000 0.0000
# 5 0.0000 0.0000 0.0000 0.0000 12.3820 0.0000
# 6 0.0000 0.0000 0.0000 0.0000 0.0000 23.6778
#
#
#
# Elastic Compliance Matrix: (Units=1/GPa)
#
#
# Indices 1 2 3 4 5 6 
#
# 1 0.009269 -0.000959 -0.003230 0.000000 0.000000 0.000000
# 2 -0.000959 0.012490 -0.002467 0.000000 0.000000 0.000000
# 3 -0.003230 -0.002467 0.035846 0.000000 0.000000 0.000000
# 4 0.000000 0.000000 0.000000 0.053116 0.000000 0.000000
# 5 0.000000 0.000000 0.000000 0.000000 0.080762 0.000000
# 6 0.000000 0.000000 0.000000 0.000000 0.000000 0.042234
#
#
# Mechanical properties :
#
#
# Convention : Reuss Voigt Hill
#
# Bulk Modulus (GPa) = 22.57706 31.22976 26.90341
# Shear Modulus (GPa) = 19.09902 24.04311 21.57106
#
# Velocity S-wave (km/s) = 3.20055 3.59099 3.40138
# Velocity P-wave (km/s) = 5.07612 5.82609 5.46399
#
# Compressibility (1/GPa) = 0.04429275
#
# Stress axis : x y z
#
# Youngs Moduli (GPa) = 107.88494 80.06372 27.89737
#
# Poissons Ratio (x) = 0.07681 0.09011
# Poissons Ratio (y) = 0.10350 0.06881
# Poissons Ratio (z) = 0.34848 0.19749
#
# Static dielectric constant tensor:
#      x y z
#    x 1.665330 0.000000 0.000000 
#    y 0.000000 1.692500 0.000000 
#    z 0.000000 0.000000 1.668500 
# 
# From -- ./inp_files/40958.got.cif
#   From: 2010.05.17/outbox.cif.g08.bks.cpg/sg64_21_cif.got.tgz:40958.got - 2010.06.03 16:29:19.
