data_PCOD9476336
_publ_section_title
;
Structure prediction by ZEFSAII (Michael W. Deem and Ramdas Pophale) SiO2 
 PCOD9476336
Probable space group: C M C A
;
_chemical_formula_sum "Si O2"
_cell_formula_units_Z 80
_cell_length_a 14.643976
_cell_length_b 15.112654
_cell_length_c 17.025718
_cell_angle_alpha 90.000000
_cell_angle_beta 90.000000
_cell_angle_gamma 90.000000
_cell_volume 3767.950456
_symmetry_space_group_name_H-M "C M C A"
_symmetry_group_IT_number 64
_symmetry_cell_setting 'orthorhombic'
loop_
_space_group_symop_operation_xyz
x,y,z
-x,1/2-y,1/2+z
x,-y,-z
-x,1/2+y,1/2-z
-x,-y,-z
x,1/2+y,1/2-z
-x,y,z
x,1/2-y,1/2+z
1/2+x,1/2+y,z
1/2-x,-y,1/2+z
1/2+x,1/2-y,-z
1/2-x,y,1/2-z
1/2-x,1/2-y,-z
1/2+x,y,1/2-z
1/2-x,1/2+y,z
1/2+x,-y,1/2+z
loop_
_atom_site_type_symbol
_atom_site_label
_atom_site_fract_x
_atom_site_fract_y
_atom_site_fract_z
Si Si1 0.271077 0.692065 0.377043
Si Si2 0.000000 0.028920 0.364820
Si Si3 0.891555 0.761782 0.768790
Si Si4 0.167629 0.058139 0.693615
Si Si5 0.700333 0.354459 0.462699
Si Si6 0.000000 0.859880 0.483798
O O1 0.174927 0.689949 0.331345
O O2 0.350811 0.705381 0.314147
O O3 0.280535 0.621809 0.447138
O O4 0.268481 0.782792 0.427275
O O5 0.087581 0.013202 0.310665
O O6 0.000000 0.945179 0.425831
O O7 0.000000 0.109583 0.425486
O O8 0.868960 0.655942 0.779380
O O9 0.000000 0.775031 0.776565
O O10 0.250000 0.032824 0.750000
O O11 0.199463 0.071311 0.603764
O O12 0.596263 0.315676 0.464874
#
# Coordination Sequence:
#
# PCOD9476336 Si02
#       6
#    16   8  16  16  16   8
#     4   9  18  29  43  71  98 134 164 195 237 297
#     4   9  18  30  49  72  92 116 164 206 263 281
#     4  10  17  28  46  69  99 136 162 197 245 286
#     4  10  16  29  49  69  98 125 159 215 250 285
#     4   9  17  29  45  68 100 126 163 198 237 303
#     4   9  18  30  49  70  92 127 155 212 252 289
#
# _framework density 21.231701999999999
#
# number of rings (size 3 to 8) (size 9 to 14) (size 15 to 20)
#    0.000    2.600    5.000    0.000    5.600    0.000 
#    0.000    0.000    6.600    0.000    0.000    0.000 
#    3.000    5.400    0.000    0.000    0.000    0.000 
#
# Total GULP energy -223002.252494 kJ/mol
# GULP energy per Si atom -5575.056312 kJ/mol
# Density = 2.118338 g / cm^3
# Si number density = 21.231702 Si / 1000 Ang^3
#
#
#
# Elastic Constant Matrix: (Units=GPa)
#
#
# Indices 1 2 3 4 5 6 
#
# 1 132.8177 26.0497 65.7836 0.0000 0.0000 0.0000
# 2 26.0497 54.8816 33.0050 0.0000 0.0000 0.0000
# 3 65.7836 33.0050 157.3404 0.0000 0.0000 0.0000
# 4 0.0000 0.0000 0.0000 12.0938 0.0000 0.0000
# 5 0.0000 0.0000 0.0000 0.0000 39.2832 0.0000
# 6 0.0000 0.0000 0.0000 0.0000 0.0000 -9.4875
#
#
#
# Elastic Compliance Matrix: (Units=1/GPa)
#
#
# Indices 1 2 3 4 5 6 
#
# 1 0.009786 -0.002500 -0.003567 0.000000 0.000000 0.000000
# 2 -0.002500 0.021490 -0.003463 0.000000 0.000000 0.000000
# 3 -0.003567 -0.003463 0.008573 0.000000 0.000000 0.000000
# 4 0.000000 0.000000 0.000000 0.082687 0.000000 0.000000
# 5 0.000000 0.000000 0.000000 0.000000 0.025456 0.000000
# 6 0.000000 0.000000 0.000000 0.000000 0.000000 -0.105402
#
#
# Mechanical properties :
#
#
# Convention : Reuss Voigt Hill
#
# Bulk Modulus (GPa) = 48.09963 66.07961 57.08962
# Shear Modulus (GPa) = 72.90697 23.05799 47.98248
#
# Velocity S-wave (km/s) = 5.86628 3.29905 4.75905
# Velocity P-wave (km/s) = 8.28180 6.76035 7.55945
#
# Compressibility (1/GPa) = 0.02079018
#
# Stress axis : x y z
#
# Youngs Moduli (GPa) = 102.18450 46.53315 116.63883
#
# Poissons Ratio (x) = 0.11632 0.41608
# Poissons Ratio (y) = 0.25544 0.40389
# Poissons Ratio (z) = 0.36451 0.16113
#
# Static dielectric constant tensor:
#      x y z
#    x 1.800530 0.000000 0.000000 
#    y 0.000000 1.823060 0.000000 
#    z 0.000000 0.000000 1.854250 
# 
# From -- ./inp_files/32272.got.cif
#   From: 2010.05.17/outbox.cif.g08.bks.cpg/sg64_17_cif.got.tgz:32272.got - 2010.06.03 16:29:19.
