data_PCOD9476820
_publ_section_title
;
Structure prediction by ZEFSAII (Michael W. Deem and Ramdas Pophale) SiO2 
 PCOD9476820
Probable space group: C M C A
;
_chemical_formula_sum "Si O2"
_cell_formula_units_Z 48
_cell_length_a 27.488218
_cell_length_b 13.950020
_cell_length_c 5.013901
_cell_angle_alpha 90.000000
_cell_angle_beta 90.000000
_cell_angle_gamma 90.000000
_cell_volume 1922.636448
_symmetry_space_group_name_H-M "C M C A"
_symmetry_group_IT_number 64
_symmetry_cell_setting 'orthorhombic'
loop_
_space_group_symop_operation_xyz
x,y,z
-x,1/2-y,1/2+z
x,-y,-z
-x,1/2+y,1/2-z
-x,-y,-z
x,1/2+y,1/2-z
-x,y,z
x,1/2-y,1/2+z
1/2+x,1/2+y,z
1/2-x,-y,1/2+z
1/2+x,1/2-y,-z
1/2-x,y,1/2-z
1/2-x,1/2-y,-z
1/2+x,y,1/2-z
1/2-x,1/2+y,z
1/2+x,-y,1/2+z
loop_
_atom_site_type_symbol
_atom_site_label
_atom_site_fract_x
_atom_site_fract_y
_atom_site_fract_z
Si Si1 0.704971 0.115157 0.555474
Si Si2 0.553293 0.184261 0.244249
Si Si3 0.846649 0.387968 0.954939
O O1 0.750000 0.138325 0.750000
O O2 0.692914 0.151087 0.258094
O O3 0.707994 0.000000 0.500000
O O4 0.659998 0.147707 0.743710
O O5 0.500000 0.137625 0.204839
O O6 0.555141 0.274403 0.041578
O O7 0.600249 0.123387 0.168196
O O8 0.836538 0.500000 0.000000
#
# Coordination Sequence:
#
# PCOD9476820 Si02
#       3
#    16  16  16
#     4  10  18  31  52  80 112 142 176 219 267 321
#     4  10  21  38  58  78 106 147 185 219 272 335
#     4  10  20  33  55  84 109 138 181 229 269 308
#
# _framework density 24.965717000000001
#
# number of rings (size 3 to 8) (size 9 to 14) (size 15 to 20)
#    0.000    2.000    0.000    6.000    0.000    0.667 
#    0.000    0.000    0.000   32.000    0.000    0.000 
#    0.000    0.000    0.000    0.000    0.000    0.000 
#
# Total GULP energy -133955.940603 kJ/mol
# GULP energy per Si atom -5581.497525 kJ/mol
# Density = 2.490889 g / cm^3
# Si number density = 24.965717 Si / 1000 Ang^3
#
#
#
# Elastic Constant Matrix: (Units=GPa)
#
#
# Indices 1 2 3 4 5 6 
#
# 1 165.1718 5.9528 67.4660 0.0000 0.0000 0.0000
# 2 5.9528 67.2591 5.1501 0.0000 0.0000 0.0000
# 3 67.4660 5.1501 145.2182 0.0000 0.0000 0.0000
# 4 0.0000 0.0000 0.0000 11.9620 0.0000 0.0000
# 5 0.0000 0.0000 0.0000 0.0000 35.6677 0.0000
# 6 0.0000 0.0000 0.0000 0.0000 0.0000 3.3421
#
#
#
# Elastic Compliance Matrix: (Units=1/GPa)
#
#
# Indices 1 2 3 4 5 6 
#
# 1 0.007483 -0.000397 -0.003462 0.000000 0.000000 0.000000
# 2 -0.000397 0.014929 -0.000345 0.000000 0.000000 0.000000
# 3 -0.003462 -0.000345 0.008507 0.000000 0.000000 0.000000
# 4 0.000000 0.000000 0.000000 0.083598 0.000000 0.000000
# 5 0.000000 0.000000 0.000000 0.000000 0.028037 0.000000
# 6 0.000000 0.000000 0.000000 0.000000 0.000000 0.299213
#
#
# Mechanical properties :
#
#
# Convention : Reuss Voigt Hill
#
# Bulk Modulus (GPa) = 44.42393 59.42074 51.92233
# Shear Modulus (GPa) = 10.92469 30.13304 20.52887
#
# Velocity S-wave (km/s) = 2.09413 3.47793 2.87066
# Velocity P-wave (km/s) = 4.86619 6.32302 5.64182
#
# Compressibility (1/GPa) = 0.02251039
#
# Stress axis : x y z
#
# Youngs Moduli (GPa) = 133.63925 66.98170 117.55083
#
# Poissons Ratio (x) = 0.02660 0.40700
# Poissons Ratio (y) = 0.05308 0.04055
# Poissons Ratio (z) = 0.46270 0.02311
#
# Static dielectric constant tensor:
#      x y z
#    x 2.049960 0.000000 0.000000 
#    y 0.000000 1.988560 0.000000 
#    z 0.000000 0.000000 1.956680 
# 
# From -- ./inp_files/1528.got.cif
#   From: 2010.05.17/outbox.cif.g08.bks.cpg/sg64_1_cif.got.tgz:1528.got - 2010.06.03 16:29:19.
