data_PCOD9476096
_publ_section_title
;
Structure prediction by ZEFSAII (Michael W. Deem and Ramdas Pophale) SiO2 
 PCOD9476096
Probable space group: C M C M
;
_chemical_formula_sum "Si O2"
_cell_formula_units_Z 40
_cell_length_a 9.000000
_cell_length_b 27.000000
_cell_length_c 18.000000
_cell_angle_alpha 90.000000
_cell_angle_beta 90.000000
_cell_angle_gamma 90.000000
_cell_volume 4374.000000
_symmetry_space_group_name_H-M "C M C M"
_symmetry_group_IT_number 63
_symmetry_cell_setting 'orthorhombic'
loop_
_space_group_symop_operation_xyz
x,y,z
-x,-y,1/2+z
x,-y,-z
-x,y,1/2-z
-x,-y,-z
x,y,1/2-z
-x,y,z
x,-y,1/2+z
1/2+x,1/2+y,z
1/2-x,1/2-y,1/2+z
1/2+x,1/2-y,-z
1/2-x,1/2+y,1/2-z
1/2-x,1/2-y,-z
1/2+x,1/2+y,1/2-z
1/2-x,1/2+y,z
1/2+x,1/2-y,1/2+z
loop_
_atom_site_type_symbol
_atom_site_label
_atom_site_fract_x
_atom_site_fract_y
_atom_site_fract_z
Si Si1 0.671430 0.710321 0.337900
Si Si2 0.825554 0.901911 0.166585
Si Si3 0.676424 0.850910 0.946562
Si Si4 0.172982 0.200854 0.579334
Si Si5 0.678148 0.949451 0.466435
O O1 0.681680 0.711849 0.250000
O O2 0.500000 0.716363 0.359866
O O3 0.737591 0.660251 0.371474
O O4 0.768294 0.753639 0.373589
O O5 0.769198 0.901446 0.250000
O O6 0.811138 0.847668 0.130768
O O7 0.739396 0.939311 0.114625
O O8 0.000000 0.913874 0.166317
O O9 0.500000 0.848475 0.937049
O O10 0.729984 0.810318 0.006727
O O11 0.719584 0.903259 0.981813
O O12 0.000000 0.206687 0.559459
O O13 0.500000 0.950683 0.463675
O O14 0.735616 0.000000 0.500000
#
# Coordination Sequence:
#
# PCOD9476096 Si02
#       5
#    16  16  16  16  16
#     4  11  23  36  50  72 104 139 174 210 247 292
#     4   9  18  32  51  78 107 132 163 205 252 301
#     4  10  20  35  55  76 100 132 170 210 252 301
#     4  10  19  33  54  77 104 136 169 206 249 299
#     4   9  19  36  56  77 100 129 168 211 254 301
#
# _framework density 9.1449470000000002
#
# number of rings (size 3 to 8) (size 9 to 14) (size 15 to 20)
#    0.000    2.200    0.000    3.000    0.000    4.800 
#    0.000    1.000    0.000    6.000    0.000    0.000 
#    0.000    0.000    0.000    0.000    0.000    0.000 
#
# Total GULP energy -223137.861460 kJ/mol
# GULP energy per Si atom -5578.446536 kJ/mol
# Density = 0.912413 g / cm^3
# Si number density = 9.144947 Si / 1000 Ang^3
#
#
#
# Elastic Constant Matrix: (Units=GPa)
#
#
# Indices 1 2 3 4 5 6 
#
# 1 2.5020 27.6488 23.0800 0.0000 0.0000 0.0000
# 2 27.6488 53.1753 50.3329 0.0000 0.0000 0.0000
# 3 23.0800 50.3329 61.9283 0.0000 0.0000 0.0000
# 4 0.0000 0.0000 0.0000 5.4411 0.0000 0.0000
# 5 0.0000 0.0000 0.0000 0.0000 45.2290 0.0000
# 6 0.0000 0.0000 0.0000 0.0000 0.0000 17.5747
#
#
#
# Elastic Compliance Matrix: (Units=1/GPa)
#
#
# Indices 1 2 3 4 5 6 
#
# 1 -0.079727 0.057782 -0.017250 0.000000 0.000000 0.000000
# 2 0.057782 0.039644 -0.053756 0.000000 0.000000 0.000000
# 3 -0.017250 -0.053756 0.066267 0.000000 0.000000 0.000000
# 4 0.000000 0.000000 0.000000 0.183786 0.000000 0.000000
# 5 0.000000 0.000000 0.000000 0.000000 0.022110 0.000000
# 6 0.000000 0.000000 0.000000 0.000000 0.000000 0.056900
#
#
# Mechanical properties :
#
#
# Convention : Reuss Voigt Hill
#
# Bulk Modulus (GPa) = -3806.94072 35.52545 -1885.70763
# Shear Modulus (GPa) = 15.85588 14.75189 15.30388
#
# Velocity S-wave (km/s) = 2.94754 2.84308 2.89578
# Velocity P-wave (km/s) = 45.54536 5.49938 31.96980
#
# Compressibility (1/GPa) = -0.00026268
#
# Stress axis : x y z
#
# Youngs Moduli (GPa) = -12.54284 25.22427 15.09041
#
# Poissons Ratio (x) = -1.45750 0.26030
# Poissons Ratio (y) = 0.72475 0.81120
# Poissons Ratio (z) = -0.21636 1.35596
#
# Static dielectric constant tensor:
#      x y z
#    x 1.610180 0.000000 0.000000 
#    y 0.000000 1.653690 0.000000 
#    z 0.000000 0.000000 1.634320 
# 
# From -- ./inp_files/40421.got.cif
#   From: 2010.05.17/outbox.ucp.g08.bks.cvg/sg63_21_cif.got.tgz:40421.got - 2010.06.11 16:32:19.
