data_PCOD9476086
_publ_section_title
;
Structure prediction by ZEFSAII (Michael W. Deem and Ramdas Pophale) SiO2 
 PCOD9476086
Probable space group: C M C M
;
_chemical_formula_sum "Si O2"
_cell_formula_units_Z 48
_cell_length_a 24.000000
_cell_length_b 24.000000
_cell_length_c 9.000000
_cell_angle_alpha 90.000000
_cell_angle_beta 90.000000
_cell_angle_gamma 90.000000
_cell_volume 5184.000000
_symmetry_space_group_name_H-M "C M C M"
_symmetry_group_IT_number 63
_symmetry_cell_setting 'orthorhombic'
loop_
_space_group_symop_operation_xyz
x,y,z
-x,-y,1/2+z
x,-y,-z
-x,y,1/2-z
-x,-y,-z
x,y,1/2-z
-x,y,z
x,-y,1/2+z
1/2+x,1/2+y,z
1/2-x,1/2-y,1/2+z
1/2+x,1/2-y,-z
1/2-x,1/2+y,1/2-z
1/2-x,1/2-y,-z
1/2+x,1/2+y,1/2-z
1/2-x,1/2+y,z
1/2+x,1/2-y,1/2+z
loop_
_atom_site_type_symbol
_atom_site_label
_atom_site_fract_x
_atom_site_fract_y
_atom_site_fract_z
Si Si1 0.235071 0.160849 0.923800
Si Si2 0.067954 0.556468 0.079290
Si Si3 0.064265 0.671787 0.928748
Si Si4 0.440134 0.438514 0.571122
Si Si5 0.335731 0.245128 0.925811
Si Si6 0.683207 0.560798 0.072628
O O1 0.227903 0.149803 0.750000
O O2 0.293090 0.193431 0.944931
O O3 0.188551 0.203927 0.982306
O O4 0.228265 0.104004 0.012991
O O5 0.085523 0.557195 0.250000
O O6 0.000000 0.555265 0.075820
O O7 0.087338 0.500000 0.000000
O O8 0.084007 0.613390 0.997768
O O9 0.066784 0.666600 0.750000
O O10 0.104074 0.722553 0.971235
O O11 0.000000 0.680795 0.971666
O O12 0.440770 0.500000 0.500000
O O13 0.440227 0.443180 0.750000
O O14 0.500000 0.411508 0.528764
O O15 0.379020 0.415667 0.531491
O O16 0.335941 0.259742 0.750000
O O17 0.686110 0.555916 0.250000
O O18 0.688768 0.500000 0.000000
#
# Coordination Sequence:
#
# PCOD9476086 Si02
#       6
#    16  16  16  16  16  16
#     4  10  20  35  55  76  99 130 169 208 245 290
#     4   9  16  26  42  66  97 132 167 200 238 290
#     4   9  17  31  52  76 101 128 160 203 254 302
#     4   8  14  25  42  65  93 126 161 195 234 283
#     4   9  19  36  56  76  98 128 167 207 247 294
#     4  10  19  32  52  77 105 134 166 206 251 297
#
# _framework density 9.2592590000000001
#
# number of rings (size 3 to 8) (size 9 to 14) (size 15 to 20)
#    0.000    2.833    0.000    1.500    0.000    4.000 
#    0.000    1.667    0.000    5.000    0.000    0.000 
#    0.000    0.000    0.000    0.000    0.000    0.000 
#
# Total GULP energy -267391.378629 kJ/mol
# GULP energy per Si atom -5570.653721 kJ/mol
# Density = 0.923818 g / cm^3
# Si number density = 9.259259 Si / 1000 Ang^3
#
#
#
# Elastic Constant Matrix: (Units=GPa)
#
#
# Indices 1 2 3 4 5 6 
#
# 1 30.0537 20.9466 25.3650 0.0000 0.0000 0.0000
# 2 20.9466 47.3998 32.8139 0.0000 0.0000 0.0000
# 3 25.3650 32.8139 43.2017 0.0000 0.0000 0.0000
# 4 0.0000 0.0000 0.0000 29.8028 0.0000 0.0000
# 5 0.0000 0.0000 0.0000 0.0000 14.0677 0.0000
# 6 0.0000 0.0000 0.0000 0.0000 0.0000 15.2407
#
#
#
# Elastic Compliance Matrix: (Units=1/GPa)
#
#
# Indices 1 2 3 4 5 6 
#
# 1 0.066509 -0.004973 -0.035272 0.000000 0.000000 0.000000
# 2 -0.004973 0.044864 -0.031156 0.000000 0.000000 0.000000
# 3 -0.035272 -0.031156 0.067521 0.000000 0.000000 0.000000
# 4 0.000000 0.000000 0.000000 0.033554 0.000000 0.000000
# 5 0.000000 0.000000 0.000000 0.000000 0.071085 0.000000
# 6 0.000000 0.000000 0.000000 0.000000 0.000000 0.065614
#
#
# Mechanical properties :
#
#
# Convention : Reuss Voigt Hill
#
# Bulk Modulus (GPa) = 27.70775 30.98957 29.34866
# Shear Modulus (GPa) = 9.92102 14.59087 12.25594
#
# Velocity S-wave (km/s) = 2.31711 2.81001 2.57538
# Velocity P-wave (km/s) = 4.70673 5.22484 4.97254
#
# Compressibility (1/GPa) = 0.03609098
#
# Stress axis : x y z
#
# Youngs Moduli (GPa) = 15.03552 22.28972 14.81015
#
# Poissons Ratio (x) = 0.11085 0.52238
# Poissons Ratio (y) = 0.07478 0.46143
# Poissons Ratio (z) = 0.53033 0.69447
#
# Static dielectric constant tensor:
#      x y z
#    x 1.697390 0.000000 0.000000 
#    y 0.000000 1.614620 0.000000 
#    z 0.000000 0.000000 1.617610 
# 
# From -- ./inp_files/10417.got.cif
#   From: 2010.05.17/outbox.ucp.g08.bks.cvg/sg63_6_cif.got.tgz:10417.got - 2010.06.11 16:32:19.
