data_PCOD9476011
_publ_section_title
;
Structure prediction by ZEFSAII (Michael W. Deem and Ramdas Pophale) SiO2 
 PCOD9476011
Probable space group: C M C M
;
_chemical_formula_sum "Si O2"
_cell_formula_units_Z 64
_cell_length_a 9.787768
_cell_length_b 42.746951
_cell_length_c 9.244028
_cell_angle_alpha 90.000000
_cell_angle_beta 90.000000
_cell_angle_gamma 90.000000
_cell_volume 3867.675793
_symmetry_space_group_name_H-M "C M C M"
_symmetry_group_IT_number 63
_symmetry_cell_setting 'orthorhombic'
loop_
_space_group_symop_operation_xyz
x,y,z
-x,-y,1/2+z
x,-y,-z
-x,y,1/2-z
-x,-y,-z
x,y,1/2-z
-x,y,z
x,-y,1/2+z
1/2+x,1/2+y,z
1/2-x,1/2-y,1/2+z
1/2+x,1/2-y,-z
1/2-x,1/2+y,1/2-z
1/2-x,1/2-y,-z
1/2+x,1/2+y,1/2-z
1/2-x,1/2+y,z
1/2+x,1/2-y,1/2+z
loop_
_atom_site_type_symbol
_atom_site_label
_atom_site_fract_x
_atom_site_fract_y
_atom_site_fract_z
Si Si1 0.166509 0.031165 0.583284
Si Si2 0.342828 0.846801 0.573996
Si Si3 0.661876 0.776335 0.576822
Si Si4 0.338276 0.405366 0.576808
O O1 0.209835 0.030837 0.750000
O O2 0.207130 0.063028 0.502956
O O3 0.000000 0.030739 0.581381
O O4 0.212349 0.000000 0.500000
O O5 0.341798 0.846547 0.750000
O O6 0.500000 0.851983 0.529320
O O7 0.300484 0.811754 0.529546
O O8 0.245466 0.874950 0.528003
O O9 0.680810 0.774387 0.750000
O O10 0.500000 0.772418 0.548212
O O11 0.750000 0.750000 0.500000
O O12 0.320562 0.409257 0.750000
O O13 0.500000 0.400839 0.550502
#
# Coordination Sequence:
#
# PCOD9476011 Si02
#       4
#    16  16  16  16
#     4   9  16  26  41  62  89 118 145 177 219 262
#     4   8  15  29  47  65  88 119 151 182 220 268
#     4   9  18  32  49  70  95 123 157 195 234 278
#     4   9  16  26  43  67  89 110 143 184 221 260
#
# _framework density 16.547405000000001
#
# number of rings (size 3 to 8) (size 9 to 14) (size 15 to 20)
#    0.000    3.250    0.000    2.250    0.000    4.500 
#    0.000    3.750    0.000    6.000    0.000    0.000 
#    0.000    0.000    0.000    0.000    0.000    0.000 
#
# Total GULP energy -178191.064961 kJ/mol
# GULP energy per Si atom -5568.470780 kJ/mol
# Density = 1.650974 g / cm^3
# Si number density = 16.547405 Si / 1000 Ang^3
#
#
#
# Elastic Constant Matrix: (Units=GPa)
#
#
# Indices 1 2 3 4 5 6 
#
# 1 40.7437 81.8193 35.9178 0.0000 0.0000 0.0000
# 2 81.8193 217.6872 71.5975 0.0000 0.0000 0.0000
# 3 35.9178 71.5975 46.1756 0.0000 0.0000 0.0000
# 4 0.0000 0.0000 0.0000 31.0646 0.0000 0.0000
# 5 0.0000 0.0000 0.0000 0.0000 15.1337 0.0000
# 6 0.0000 0.0000 0.0000 0.0000 0.0000 26.1043
#
#
#
# Elastic Compliance Matrix: (Units=1/GPa)
#
#
# Indices 1 2 3 4 5 6 
#
# 1 0.156110 -0.038236 -0.062144 0.000000 0.000000 0.000000
# 2 -0.038236 0.018740 0.000685 0.000000 0.000000 0.000000
# 3 -0.062144 0.000685 0.068933 0.000000 0.000000 0.000000
# 4 0.000000 0.000000 0.000000 0.032191 0.000000 0.000000
# 5 0.000000 0.000000 0.000000 0.000000 0.066078 0.000000
# 6 0.000000 0.000000 0.000000 0.000000 0.000000 0.038308
#
#
# Mechanical properties :
#
#
# Convention : Reuss Voigt Hill
#
# Bulk Modulus (GPa) = 22.52592 75.91952 49.22272
# Shear Modulus (GPa) = 8.40977 22.14532 15.27754
#
# Velocity S-wave (km/s) = 2.25683 3.66224 3.04181
# Velocity P-wave (km/s) = 4.52035 7.99139 6.49214
#
# Compressibility (1/GPa) = 0.04439330
#
# Stress axis : x y z
#
# Youngs Moduli (GPa) = 6.40573 53.36272 14.50690
#
# Poissons Ratio (x) = 2.04038 0.90152
# Poissons Ratio (y) = 0.24493 -0.00994
# Poissons Ratio (z) = 0.39808 -0.03656
#
# Static dielectric constant tensor:
#      x y z
#    x 1.543350 0.000000 0.000000 
#    y 0.000000 1.553600 0.000000 
#    z 0.000000 0.000000 1.553490 
# 
# From -- ./inp_files/3092.got.cif
#   From: 2010.05.17/outbox.cif.g08.bks.cpg/sg63_2_cif.got.tgz:3092.got - 2010.06.03 15:47:04.
