data_PCOD9476669
_publ_section_title
;
Structure prediction by ZEFSAII (Michael W. Deem and Ramdas Pophale) SiO2 
 PCOD9476669
Probable space group: C M C A
;
_chemical_formula_sum "Si O2"
_cell_formula_units_Z 84
_cell_length_a 24.203522
_cell_length_b 9.136104
_cell_length_c 14.579861
_cell_angle_alpha 90.000000
_cell_angle_beta 90.000000
_cell_angle_gamma 90.000000
_cell_volume 3223.984800
_symmetry_space_group_name_H-M "C M C A"
_symmetry_group_IT_number 64
_symmetry_cell_setting 'orthorhombic'
loop_
_space_group_symop_operation_xyz
x,y,z
-x,1/2-y,1/2+z
x,-y,-z
-x,1/2+y,1/2-z
-x,-y,-z
x,1/2+y,1/2-z
-x,y,z
x,1/2-y,1/2+z
1/2+x,1/2+y,z
1/2-x,-y,1/2+z
1/2+x,1/2-y,-z
1/2-x,y,1/2-z
1/2-x,1/2-y,-z
1/2+x,y,1/2-z
1/2-x,1/2+y,z
1/2+x,-y,1/2+z
loop_
_atom_site_type_symbol
_atom_site_label
_atom_site_fract_x
_atom_site_fract_y
_atom_site_fract_z
Si Si1 0.938080 0.901961 0.274162
Si Si2 0.000000 0.500000 0.000000
Si Si3 0.366913 0.178275 0.193942
Si Si4 0.265429 0.151414 0.640906
Si Si5 0.673943 0.144548 0.403743
Si Si6 0.058425 0.278346 0.541428
O O1 0.900169 0.028802 0.315057
O O2 0.943832 0.782729 0.354058
O O3 0.000000 0.956261 0.253177
O O4 0.908190 0.818215 0.191685
O O5 0.952544 0.628217 0.013291
O O6 0.312531 0.222455 0.139310
O O7 0.345232 0.162160 0.298133
O O8 0.250000 0.126103 0.750000
O O9 0.291610 0.005462 0.599090
O O10 0.213347 0.214628 0.586405
O O11 0.618533 0.152336 0.464718
O O12 0.000000 0.359863 0.528638
#
# Coordination Sequence:
#
# PCOD9476669 Si02
#       6
#    16   4  16  16  16  16
#     4  10  18  29  44  74 107 137 174 208 245 299
#     4   8  16  40  60  76  86 132 168 240 276 314
#     4  10  18  29  43  67 112 147 168 198 235 299
#     4  10  19  29  45  70 110 155 167 193 235 295
#     4  10  19  30  47  75 104 135 180 196 235 306
#     4   8  18  33  56  76  93 125 184 218 263 310
#
# _framework density 26.054714000000001
#
# number of rings (size 3 to 8) (size 9 to 14) (size 15 to 20)
#    0.571    1.905    1.905    2.286    5.333    0.762 
#    0.000    0.000    0.000    1.143    0.000    1.333 
#    0.000    0.000    0.000    0.000    0.000    0.000 
#
# Total GULP energy -233964.424554 kJ/mol
# GULP energy per Si atom -5570.581537 kJ/mol
# Density = 2.599541 g / cm^3
# Si number density = 26.054714 Si / 1000 Ang^3
#
#
#
# Elastic Constant Matrix: (Units=GPa)
#
#
# Indices 1 2 3 4 5 6 
#
# 1 191.1680 126.7495 14.9224 0.0000 0.0000 0.0000
# 2 126.7495 155.0396 22.6028 0.0000 0.0000 0.0000
# 3 14.9224 22.6028 53.6087 0.0000 0.0000 0.0000
# 4 0.0000 0.0000 0.0000 2.0156 0.0000 0.0000
# 5 0.0000 0.0000 0.0000 0.0000 -284.5791 0.0000
# 6 0.0000 0.0000 0.0000 0.0000 0.0000 424.4260
#
#
#
# Elastic Compliance Matrix: (Units=1/GPa)
#
#
# Indices 1 2 3 4 5 6 
#
# 1 0.011455 -0.009483 0.000810 0.000000 0.000000 0.000000
# 2 -0.009483 0.014723 -0.003568 0.000000 0.000000 0.000000
# 3 0.000810 -0.003568 0.019933 0.000000 0.000000 0.000000
# 4 0.000000 0.000000 0.000000 0.496131 0.000000 0.000000
# 5 0.000000 0.000000 0.000000 0.000000 -0.003514 0.000000
# 6 0.000000 0.000000 0.000000 0.000000 0.000000 0.002356
#
#
# Mechanical properties :
#
#
# Convention : Reuss Voigt Hill
#
# Bulk Modulus (GPa) = 46.23595 80.92951 63.58273
# Shear Modulus (GPa) = 8.72941 44.07527 26.40234
#
# Velocity S-wave (km/s) = 1.83240 4.11742 3.18676
# Velocity P-wave (km/s) = 4.71817 7.33028 6.16418
#
# Compressibility (1/GPa) = 0.02162819
#
# Stress axis : x y z
#
# Youngs Moduli (GPa) = 87.29520 67.92158 50.16904
#
# Poissons Ratio (x) = 0.64411 -0.04062
# Poissons Ratio (y) = 0.82783 0.17899
# Poissons Ratio (z) = -0.07068 0.24233
#
# Static dielectric constant tensor:
#      x y z
#    x 2.088360 0.000000 0.000000 
#    y 0.000000 2.039210 0.000000 
#    z 0.000000 0.000000 0.737050 
# 
# From -- ./inp_files/46277.got.cif
#   From: 2010.05.17/outbox.cif.g08.bks.cpg/sg64_24_cif.got.tgz:46277.got - 2010.06.03 16:29:19.
