data_PCOD9476912
_publ_section_title
;
Structure prediction by ZEFSAII (Michael W. Deem and Ramdas Pophale) SiO2 
 PCOD9476912
Probable space group: C M C A
;
_chemical_formula_sum "Si O2"
_cell_formula_units_Z 128
_cell_length_a 21.639013
_cell_length_b 11.348758
_cell_length_c 22.826592
_cell_angle_alpha 90.000000
_cell_angle_beta 90.000000
_cell_angle_gamma 90.000000
_cell_volume 5605.661374
_symmetry_space_group_name_H-M "C M C A"
_symmetry_group_IT_number 64
_symmetry_cell_setting 'orthorhombic'
loop_
_space_group_symop_operation_xyz
x,y,z
-x,1/2-y,1/2+z
x,-y,-z
-x,1/2+y,1/2-z
-x,-y,-z
x,1/2+y,1/2-z
-x,y,z
x,1/2-y,1/2+z
1/2+x,1/2+y,z
1/2-x,-y,1/2+z
1/2+x,1/2-y,-z
1/2-x,y,1/2-z
1/2-x,1/2-y,-z
1/2+x,y,1/2-z
1/2-x,1/2+y,z
1/2+x,-y,1/2+z
loop_
_atom_site_type_symbol
_atom_site_label
_atom_site_fract_x
_atom_site_fract_y
_atom_site_fract_z
Si Si1 0.393618 0.624854 0.505841
Si Si2 0.430723 0.461535 0.146939
Si Si3 0.161746 0.358256 0.182210
Si Si4 0.845450 0.768208 0.191628
Si Si5 0.429985 0.207077 0.395420
Si Si6 0.430488 0.057330 0.220261
Si Si7 0.705921 0.185007 0.080726
Si Si8 0.732728 0.072681 0.923936
O O1 0.427857 0.500000 0.500000
O O2 0.426168 0.726143 0.542664
O O3 0.362785 0.664304 0.445056
O O4 0.333226 0.592846 0.544959
O O5 0.500000 0.410640 0.138692
O O6 0.375529 0.369450 0.151195
O O7 0.421096 0.566895 0.101291
O O8 0.430636 0.523372 0.211148
O O9 0.178718 0.317347 0.247125
O O10 0.123822 0.258793 0.146269
O O11 0.112914 0.463807 0.188551
O O12 0.218798 0.405611 0.144577
O O13 0.902125 0.684807 0.210485
O O14 0.799144 0.695677 0.150873
O O15 0.500000 0.225985 0.371163
O O16 0.500000 0.049877 0.198081
O O17 0.728415 0.312284 0.057751
O O18 0.745924 0.066546 0.066355
#
# Coordination Sequence:
#
# PCOD9476912 Si02
#       8
#    16  16  16  16  16  16  16  16
#     4   9  21  41  64  86 118 151 202 264 305 365
#     4   9  19  33  53  85 122 161 199 234 286 358
#     4  10  20  36  56  88 121 160 198 248 293 356
#     4  11  21  35  57  87 127 159 200 246 294 365
#     4  10  19  35  60  89 122 159 199 244 298 360
#     4  10  18  32  56  84 122 162 198 235 285 352
#     4  11  23  42  63  91 116 158 204 260 317 366
#     4  10  22  42  64  85 117 154 207 259 311 365
#
# _framework density 22.834059
#
# number of rings (size 3 to 8) (size 9 to 14) (size 15 to 20)
#    0.000    2.000    2.500    1.125    0.000    3.750 
#    0.000    4.375    0.000    1.500    0.000    0.000 
#    0.000    0.000    0.000    0.000    0.000    0.000 
#
# Total GULP energy -357240.888165 kJ/mol
# GULP energy per Si atom -5581.888878 kJ/mol
# Density = 2.278209 g / cm^3
# Si number density = 22.834059 Si / 1000 Ang^3
#
#
#
# Elastic Constant Matrix: (Units=GPa)
#
#
# Indices 1 2 3 4 5 6 
#
# 1 51.1590 33.9575 -3.7400 0.0000 0.0000 0.0000
# 2 33.9575 115.4519 15.5139 0.0000 0.0000 0.0000
# 3 -3.7400 15.5139 65.3780 0.0000 0.0000 0.0000
# 4 0.0000 0.0000 0.0000 40.0208 0.0000 0.0000
# 5 0.0000 0.0000 0.0000 0.0000 15.4171 0.0000
# 6 0.0000 0.0000 0.0000 0.0000 0.0000 15.6596
#
#
#
# Elastic Compliance Matrix: (Units=1/GPa)
#
#
# Indices 1 2 3 4 5 6 
#
# 1 0.024949 -0.007778 0.003273 0.000000 0.000000 0.000000
# 2 -0.007778 0.011372 -0.003143 0.000000 0.000000 0.000000
# 3 0.003273 -0.003143 0.016229 0.000000 0.000000 0.000000
# 4 0.000000 0.000000 0.000000 0.024987 0.000000 0.000000
# 5 0.000000 0.000000 0.000000 0.000000 0.064863 0.000000
# 6 0.000000 0.000000 0.000000 0.000000 0.000000 0.063859
#
#
# Mechanical properties :
#
#
# Convention : Reuss Voigt Hill
#
# Bulk Modulus (GPa) = 26.84382 35.93907 31.39145
# Shear Modulus (GPa) = 21.37003 26.63668 24.00335
#
# Velocity S-wave (km/s) = 3.06254 3.41916 3.24575
# Velocity P-wave (km/s) = 4.92820 5.60008 5.27485
#
# Compressibility (1/GPa) = 0.03725252
#
# Stress axis : x y z
#
# Youngs Moduli (GPa) = 40.08192 87.93755 61.61888
#
# Poissons Ratio (x) = 0.68397 -0.20167
# Poissons Ratio (y) = 0.31175 0.19369
# Poissons Ratio (z) = -0.13118 0.27642
#
# Static dielectric constant tensor:
#      x y z
#    x 1.862280 0.000000 0.000000 
#    y 0.000000 1.898720 0.000000 
#    z 0.000000 0.000000 1.896770 
# 
# From -- ./inp_files/46748.got.cif
#   From: 2010.05.17/outbox.cif.g08.bks.cpg/sg64_24_cif.got.tgz:46748.got - 2010.06.03 16:29:19.
