data_PCOD9476142
_publ_section_title
;
Structure prediction by ZEFSAII (Michael W. Deem and Ramdas Pophale) SiO2 
 PCOD9476142
Probable space group: C M C M
;
_chemical_formula_sum "Si O2"
_cell_formula_units_Z 40
_cell_length_a 9.000000
_cell_length_b 18.000000
_cell_length_c 27.000000
_cell_angle_alpha 90.000000
_cell_angle_beta 90.000000
_cell_angle_gamma 90.000000
_cell_volume 4374.000000
_symmetry_space_group_name_H-M "C M C M"
_symmetry_group_IT_number 63
_symmetry_cell_setting 'orthorhombic'
loop_
_space_group_symop_operation_xyz
x,y,z
-x,-y,1/2+z
x,-y,-z
-x,y,1/2-z
-x,-y,-z
x,y,1/2-z
-x,y,z
x,-y,1/2+z
1/2+x,1/2+y,z
1/2-x,1/2-y,1/2+z
1/2+x,1/2-y,-z
1/2-x,1/2+y,1/2-z
1/2-x,1/2-y,-z
1/2+x,1/2+y,1/2-z
1/2-x,1/2+y,z
1/2+x,1/2-y,1/2+z
loop_
_atom_site_type_symbol
_atom_site_label
_atom_site_fract_x
_atom_site_fract_y
_atom_site_fract_z
Si Si1 0.818394 0.209535 0.750000
Si Si2 0.179103 0.293492 0.847380
Si Si3 0.323525 0.449876 0.953555
Si Si4 0.323876 0.209527 0.045343
Si Si5 0.177335 0.045411 0.345820
Si Si6 0.181583 0.042051 0.750000
O O1 0.768753 0.249283 0.700219
O O2 0.767934 0.125766 0.750000
O O3 0.000000 0.210555 0.750000
O O4 0.220333 0.259397 0.900560
O O5 0.245653 0.375217 0.844724
O O6 0.000000 0.298101 0.846165
O O7 0.500000 0.431565 0.956044
O O8 0.229867 0.375166 0.955015
O O9 0.297156 0.488032 0.900357
O O10 0.286554 0.500000 0.000000
O O11 0.500000 0.214098 0.041030
O O12 0.250000 0.250000 0.000000
O O13 0.000000 0.055530 0.340730
O O14 0.230977 0.998132 0.299744
O O15 0.000000 0.041978 0.750000
#
# Coordination Sequence:
#
# PCOD9476142 Si02
#       6
#     8  16  16  16  16   8
#     4   9  17  30  49  73  98 123 156 198 240 281
#     4   9  18  32  51  72  94 125 161 196 235 283
#     4   9  18  32  50  72  97 126 161 200 242 288
#     4  10  20  33  50  73 100 130 165 203 243 288
#     4   9  17  30  49  70  93 123 156 192 233 281
#     4   9  17  28  45  71  96 119 152 192 234 279
#
# _framework density 9.1449470000000002
#
# number of rings (size 3 to 8) (size 9 to 14) (size 15 to 20)
#    0.000    2.800    0.000    1.200    0.000    2.800 
#    0.000    6.000    0.000    2.400    0.000    0.000 
#    0.000    0.000    0.000    0.000    0.000    0.000 
#
# Total GULP energy -222721.482199 kJ/mol
# GULP energy per Si atom -5568.037055 kJ/mol
# Density = 0.912413 g / cm^3
# Si number density = 9.144947 Si / 1000 Ang^3
#
#
#
# Elastic Constant Matrix: (Units=GPa)
#
#
# Indices 1 2 3 4 5 6 
#
# 1 0.4755 17.0681 48.1118 0.0000 0.0000 0.0000
# 2 17.0681 59.4217 98.8455 0.0000 0.0000 0.0000
# 3 48.1118 98.8455 232.3240 0.0000 0.0000 0.0000
# 4 0.0000 0.0000 0.0000 27.2631 0.0000 0.0000
# 5 0.0000 0.0000 0.0000 0.0000 14.5116 0.0000
# 6 0.0000 0.0000 0.0000 0.0000 0.0000 17.1384
#
#
#
# Elastic Compliance Matrix: (Units=1/GPa)
#
#
# Indices 1 2 3 4 5 6 
#
# 1 -0.098481 -0.019290 0.028602 0.000000 0.000000 0.000000
# 2 -0.019290 0.053803 -0.018897 0.000000 0.000000 0.000000
# 3 0.028602 -0.018897 0.006421 0.000000 0.000000 0.000000
# 4 0.000000 0.000000 0.000000 0.036680 0.000000 0.000000
# 5 0.000000 0.000000 0.000000 0.000000 0.068910 0.000000
# 6 0.000000 0.000000 0.000000 0.000000 0.000000 0.058349
#
#
# Mechanical properties :
#
#
# Convention : Reuss Voigt Hill
#
# Bulk Modulus (GPa) = -17.41350 68.91911 25.75280
# Shear Modulus (GPa) = 39.77400 20.32901 30.05150
#
# Velocity S-wave (km/s) = 4.66837 3.33752 4.05787
# Velocity P-wave (km/s) = 4.41777 7.25364 6.00550
#
# Compressibility (1/GPa) = -0.05742671
#
# Stress axis : x y z
#
# Youngs Moduli (GPa) = -10.15426 18.58616 155.73661
#
# Poissons Ratio (x) = 0.35853 -4.45431
# Poissons Ratio (y) = -0.19588 2.94290
# Poissons Ratio (z) = 0.29043 0.35122
#
# Static dielectric constant tensor:
#      x y z
#    x 1.610500 0.000000 0.000000 
#    y 0.000000 1.596400 0.000000 
#    z 0.000000 0.000000 1.684610 
# 
# From -- ./inp_files/66699.got.cif
#   From: 2010.05.17/outbox.ucp.g08.bks.cvg/sg63_34_cif.got.tgz:66699.got - 2010.06.11 16:32:19.
