data_PCOD9476102
_publ_section_title
;
Structure prediction by ZEFSAII (Michael W. Deem and Ramdas Pophale) SiO2 
 PCOD9476102
Probable space group: C M C M
;
_chemical_formula_sum "Si O2"
_cell_formula_units_Z 40
_cell_length_a 27.000000
_cell_length_b 18.000000
_cell_length_c 9.000000
_cell_angle_alpha 90.000000
_cell_angle_beta 90.000000
_cell_angle_gamma 90.000000
_cell_volume 4374.000000
_symmetry_space_group_name_H-M "C M C M"
_symmetry_group_IT_number 63
_symmetry_cell_setting 'orthorhombic'
loop_
_space_group_symop_operation_xyz
x,y,z
-x,-y,1/2+z
x,-y,-z
-x,y,1/2-z
-x,-y,-z
x,y,1/2-z
-x,y,z
x,-y,1/2+z
1/2+x,1/2+y,z
1/2-x,1/2-y,1/2+z
1/2+x,1/2-y,-z
1/2-x,1/2+y,1/2-z
1/2-x,1/2-y,-z
1/2+x,1/2+y,1/2-z
1/2-x,1/2+y,z
1/2+x,1/2-y,1/2+z
loop_
_atom_site_type_symbol
_atom_site_label
_atom_site_fract_x
_atom_site_fract_y
_atom_site_fract_z
Si Si1 0.500000 0.580210 0.071176
Si Si2 0.696847 0.081076 0.571207
Si Si3 0.693052 0.418465 0.072095
Si Si4 0.899209 0.163571 0.070439
Si Si5 0.000000 0.580582 0.930186
Si Si6 0.099045 0.665790 0.569503
O O1 0.500000 0.575055 0.250000
O O2 0.449782 0.622247 0.027792
O O3 0.500000 0.500000 0.000000
O O4 0.694072 0.074053 0.750000
O O5 0.751729 0.111789 0.536858
O O6 0.650361 0.129190 0.519051
O O7 0.693195 0.000000 0.500000
O O8 0.688267 0.423943 0.250000
O O9 0.690390 0.500000 0.000000
O O10 0.648765 0.371529 0.004229
O O11 0.894313 0.158997 0.250000
O O12 0.903629 0.248973 0.025955
O O13 0.950073 0.622582 0.977958
O O14 0.000000 0.576788 0.750000
O O15 0.000000 0.500000 0.000000
O O16 0.099309 0.663763 0.750000
#
# Coordination Sequence:
#
# PCOD9476102 Si02
#       6
#     8  16  16  16   8  16
#     4  10  21  35  53  75  97 126 164 204 246 296
#     4   9  18  33  52  74 102 135 170 207 247 294
#     4  10  20  34  52  75 102 133 170 209 249 295
#     4  10  20  35  54  75 101 133 168 206 252 304
#     4  10  19  33  55  79 103 134 173 212 250 298
#     4   9  18  33  53  76 103 135 168 205 252 303
#
# _framework density 9.1449470000000002
#
# number of rings (size 3 to 8) (size 9 to 14) (size 15 to 20)
#    0.000    2.400    0.000    2.400    0.000    6.400 
#    0.000    2.000    0.000    1.200    0.000    0.000 
#    0.000    0.000    0.000    0.000    0.000    0.000 
#
# Total GULP energy -223117.417602 kJ/mol
# GULP energy per Si atom -5577.935440 kJ/mol
# Density = 0.912413 g / cm^3
# Si number density = 9.144947 Si / 1000 Ang^3
#
#
#
# Elastic Constant Matrix: (Units=GPa)
#
#
# Indices 1 2 3 4 5 6 
#
# 1 234.9927 136.3837 47.1223 0.0000 0.0000 0.0000
# 2 136.3837 142.2340 30.1576 0.0000 0.0000 0.0000
# 3 47.1223 30.1576 15.2412 0.0000 0.0000 0.0000
# 4 0.0000 0.0000 0.0000 23.7260 0.0000 0.0000
# 5 0.0000 0.0000 0.0000 0.0000 14.4490 0.0000
# 6 0.0000 0.0000 0.0000 0.0000 0.0000 73.7930
#
#
#
# Elastic Compliance Matrix: (Units=1/GPa)
#
#
# Indices 1 2 3 4 5 6 
#
# 1 0.014980 -0.007828 -0.030825 0.000000 0.000000 0.000000
# 2 -0.007828 0.016203 -0.007858 0.000000 0.000000 0.000000
# 3 -0.030825 -0.007858 0.176466 0.000000 0.000000 0.000000
# 4 0.000000 0.000000 0.000000 0.042148 0.000000 0.000000
# 5 0.000000 0.000000 0.000000 0.000000 0.069209 0.000000
# 6 0.000000 0.000000 0.000000 0.000000 0.000000 0.013551
#
#
# Mechanical properties :
#
#
# Convention : Reuss Voigt Hill
#
# Bulk Modulus (GPa) = 8.72405 91.08836 49.90620
# Shear Modulus (GPa) = 10.78077 34.31388 22.54733
#
# Velocity S-wave (km/s) = 2.43047 4.33611 3.51490
# Velocity P-wave (km/s) = 3.55759 8.65909 6.61953
#
# Compressibility (1/GPa) = 0.11462567
#
# Stress axis : x y z
#
# Youngs Moduli (GPa) = 66.75633 61.71801 5.66681
#
# Poissons Ratio (x) = 0.48312 0.17468
# Poissons Ratio (y) = 0.52256 0.04453
# Poissons Ratio (z) = 2.05779 0.48500
#
# Static dielectric constant tensor:
#      x y z
#    x 1.636070 0.000000 0.000000 
#    y 0.000000 1.598050 0.000000 
#    z 0.000000 0.000000 1.621280 
# 
# From -- ./inp_files/12092.got.cif
#   From: 2010.05.17/outbox.ucp.g08.bks.cvg/sg63_7_cif.got.tgz:12092.got - 2010.06.11 16:32:19.
