data_PCOD9476653
_publ_section_title
;
Structure prediction by ZEFSAII (Michael W. Deem and Ramdas Pophale) SiO2 
 PCOD9476653
Probable space group: C M C A
;
_chemical_formula_sum "Si O2"
_cell_formula_units_Z 80
_cell_length_a 8.081644
_cell_length_b 26.156672
_cell_length_c 21.590689
_cell_angle_alpha 90.000000
_cell_angle_beta 90.000000
_cell_angle_gamma 90.000000
_cell_volume 4564.032243
_symmetry_space_group_name_H-M "C M C A"
_symmetry_group_IT_number 64
_symmetry_cell_setting 'orthorhombic'
loop_
_space_group_symop_operation_xyz
x,y,z
-x,1/2-y,1/2+z
x,-y,-z
-x,1/2+y,1/2-z
-x,-y,-z
x,1/2+y,1/2-z
-x,y,z
x,1/2-y,1/2+z
1/2+x,1/2+y,z
1/2-x,-y,1/2+z
1/2+x,1/2-y,-z
1/2-x,y,1/2-z
1/2-x,1/2-y,-z
1/2+x,y,1/2-z
1/2-x,1/2+y,z
1/2+x,-y,1/2+z
loop_
_atom_site_type_symbol
_atom_site_label
_atom_site_fract_x
_atom_site_fract_y
_atom_site_fract_z
Si Si1 0.199628 0.787365 0.588270
Si Si2 0.800710 0.125797 0.320891
Si Si3 0.700305 0.178207 0.548404
Si Si4 0.693645 0.565991 0.942387
Si Si5 0.694626 0.456866 0.579958
O O1 0.259711 0.822963 0.644061
O O2 0.247703 0.812845 0.522795
O O3 0.258031 0.728563 0.585335
O O4 0.000000 0.786192 0.590761
O O5 0.750000 0.122712 0.250000
O O6 0.747310 0.077575 0.362868
O O7 0.000000 0.126461 0.322633
O O8 0.500000 0.177140 0.549746
O O9 0.758741 0.122878 0.571458
O O10 0.500000 0.563325 0.927019
O O11 0.780612 0.517400 0.911566
O O12 0.714185 0.558437 0.016536
O O13 0.500000 0.446819 0.569491
#
# Coordination Sequence:
#
# PCOD9476653 Si02
#       5
#    16  16  16  16  16
#     4   9  17  31  47  68  96 125 157 192 235 282
#     4  10  21  34  50  69  94 127 163 199 236 278
#     4   9  17  28  47  72  98 124 152 191 238 284
#     4  10  18  28  46  73  99 125 153 193 240 283
#     4  10  19  31  46  68  95 127 160 193 237 285
#
# _framework density 17.528361
#
# number of rings (size 3 to 8) (size 9 to 14) (size 15 to 20)
#    0.000    2.400    2.000    2.400    0.000    3.200 
#    0.000    0.000    0.000    1.200    0.000    5.600 
#    0.000    0.000    0.000    0.000    0.000    0.000 
#
# Total GULP energy -222962.988036 kJ/mol
# GULP energy per Si atom -5574.074701 kJ/mol
# Density = 1.748847 g / cm^3
# Si number density = 17.528361 Si / 1000 Ang^3
#
#
#
# Elastic Constant Matrix: (Units=GPa)
#
#
# Indices 1 2 3 4 5 6 
#
# 1 12.1428 0.9226 0.3289 0.0000 0.0000 0.0000
# 2 0.9226 158.5373 60.4793 0.0000 0.0000 0.0000
# 3 0.3289 60.4793 90.2730 0.0000 0.0000 0.0000
# 4 0.0000 0.0000 0.0000 21.0837 0.0000 0.0000
# 5 0.0000 0.0000 0.0000 0.0000 19.7877 0.0000
# 6 0.0000 0.0000 0.0000 0.0000 0.0000 12.2499
#
#
#
# Elastic Compliance Matrix: (Units=1/GPa)
#
#
# Indices 1 2 3 4 5 6 
#
# 1 0.082390 -0.000490 0.000028 0.000000 0.000000 0.000000
# 2 -0.000490 0.008476 -0.005677 0.000000 0.000000 0.000000
# 3 0.000028 -0.005677 0.014881 0.000000 0.000000 0.000000
# 4 0.000000 0.000000 0.000000 0.047430 0.000000 0.000000
# 5 0.000000 0.000000 0.000000 0.000000 0.050537 0.000000
# 6 0.000000 0.000000 0.000000 0.000000 0.000000 0.081633
#
#
# Mechanical properties :
#
#
# Convention : Reuss Voigt Hill
#
# Bulk Modulus (GPa) = 10.69874 42.71276 26.70575
# Shear Modulus (GPa) = 15.20771 23.90573 19.55672
#
# Velocity S-wave (km/s) = 2.94871 3.69702 3.34386
# Velocity P-wave (km/s) = 4.20834 6.53028 5.49339
#
# Compressibility (1/GPa) = 0.09346891
#
# Stress axis : x y z
#
# Youngs Moduli (GPa) = 12.13742 117.97800 67.20116
#
# Poissons Ratio (x) = 0.05784 -0.00190
# Poissons Ratio (y) = 0.00595 0.38149
# Poissons Ratio (z) = -0.00034 0.66975
#
# Static dielectric constant tensor:
#      x y z
#    x 1.622930 0.000000 0.000000 
#    y 0.000000 1.663020 0.000000 
#    z 0.000000 0.000000 1.548490 
# 
# From -- ./inp_files/29980.got.cif
#   From: 2010.05.17/outbox.cif.g08.bks.cpg/sg64_15_cif.got.tgz:29980.got - 2010.06.03 16:29:19.
