data_PCOD9476014
_publ_section_title
;
Structure prediction by ZEFSAII (Michael W. Deem and Ramdas Pophale) SiO2 
 PCOD9476014
Probable space group: C M C M
;
_chemical_formula_sum "Si O2"
_cell_formula_units_Z 96
_cell_length_a 7.293568
_cell_length_b 32.837994
_cell_length_c 18.710051
_cell_angle_alpha 90.000000
_cell_angle_beta 90.000000
_cell_angle_gamma 90.000000
_cell_volume 4481.172136
_symmetry_space_group_name_H-M "C M C M"
_symmetry_group_IT_number 63
_symmetry_cell_setting 'orthorhombic'
loop_
_space_group_symop_operation_xyz
x,y,z
-x,-y,1/2+z
x,-y,-z
-x,y,1/2-z
-x,-y,-z
x,y,1/2-z
-x,y,z
x,-y,1/2+z
1/2+x,1/2+y,z
1/2-x,1/2-y,1/2+z
1/2+x,1/2-y,-z
1/2-x,1/2+y,1/2-z
1/2-x,1/2-y,-z
1/2+x,1/2+y,1/2-z
1/2-x,1/2+y,z
1/2+x,1/2-y,1/2+z
loop_
_atom_site_type_symbol
_atom_site_label
_atom_site_fract_x
_atom_site_fract_y
_atom_site_fract_z
Si Si1 0.224150 0.909779 0.465840
Si Si2 0.278194 0.743498 0.104558
Si Si3 0.776984 0.053302 0.117322
Si Si4 0.776577 0.797427 0.750000
Si Si5 0.288815 0.318067 0.483591
Si Si6 0.723429 0.536671 0.668098
Si Si7 0.723448 0.609065 0.250000
O O1 0.280006 0.933830 0.537677
O O2 0.286859 0.862970 0.472214
O O3 0.282110 0.931318 0.392397
O O4 0.000000 0.910148 0.464711
O O5 0.500000 0.744040 0.101898
O O6 0.219023 0.726666 0.180155
O O7 0.217765 0.788920 0.085143
O O8 0.210365 0.711128 0.045250
O O9 0.719833 0.085293 0.178382
O O10 0.000000 0.053444 0.116753
O O11 0.720794 0.008316 0.141761
O O12 0.716938 0.844245 0.750000
O O13 0.000000 0.798463 0.750000
O O14 0.500000 0.324802 0.504662
O O15 0.782125 0.544048 0.750000
O O16 0.500000 0.536920 0.669068
O O17 0.500000 0.608802 0.250000
#
# Coordination Sequence:
#
# PCOD9476014 Si02
#       7
#    16  16  16   8  16  16   8
#     4   9  16  24  36  53  76 109 143 169 199 250
#     4   9  17  30  47  63  85 113 144 183 223 260
#     4   9  14  21  33  51  75 104 138 172 206 245
#     4   9  16  26  41  62  81 107 145 183 221 257
#     4   9  17  30  45  64  87 115 147 178 216 259
#     4   9  15  23  32  47  76 111 140 166 201 246
#     4   9  14  20  34  54  75  97 131 179 215 243
#
# _framework density 21.422965999999999
#
# number of rings (size 3 to 8) (size 9 to 14) (size 15 to 20)
#    0.000    3.000    0.833    1.500    0.000    6.000 
#    1.500    0.417    0.000    0.000    0.000    0.000 
#    0.000    2.667    0.000    1.000    0.000    0.000 
#
# Total GULP energy -267993.906086 kJ/mol
# GULP energy per Si atom -5583.206377 kJ/mol
# Density = 2.137421 g / cm^3
# Si number density = 21.422966 Si / 1000 Ang^3
#
#
#
# Elastic Constant Matrix: (Units=GPa)
#
#
# Indices 1 2 3 4 5 6 
#
# 1 87.3129 -5.1676 0.3864 0.0000 0.0000 0.0000
# 2 -5.1676 98.8632 97.5424 0.0000 0.0000 0.0000
# 3 0.3864 97.5424 189.4623 0.0000 0.0000 0.0000
# 4 0.0000 0.0000 0.0000 33.5993 0.0000 0.0000
# 5 0.0000 0.0000 0.0000 0.0000 -10.6193 0.0000
# 6 0.0000 0.0000 0.0000 0.0000 0.0000 -7.1885
#
#
#
# Elastic Compliance Matrix: (Units=1/GPa)
#
#
# Indices 1 2 3 4 5 6 
#
# 1 0.011531 0.001272 -0.000678 0.000000 0.000000 0.000000
# 2 0.001272 0.020698 -0.010658 0.000000 0.000000 0.000000
# 3 -0.000678 -0.010658 0.010767 0.000000 0.000000 0.000000
# 4 0.000000 0.000000 0.000000 0.029762 0.000000 0.000000
# 5 0.000000 0.000000 0.000000 0.000000 -0.094168 0.000000
# 6 0.000000 0.000000 0.000000 0.000000 0.000000 -0.139111
#
#
# Mechanical properties :
#
#
# Convention : Reuss Voigt Hill
#
# Bulk Modulus (GPa) = 43.73273 62.35123 53.04198
# Shear Modulus (GPa) = -37.65952 22.01678 -7.82137
#
# Velocity S-wave (km/s) = -4.19729 3.20928 -1.91281
# Velocity P-wave (km/s) = 1.74107 6.54986 4.46483
#
# Compressibility (1/GPa) = 0.02286617
#
# Stress axis : x y z
#
# Youngs Moduli (GPa) = 86.72011 48.31486 92.87747
#
# Poissons Ratio (x) = -0.06146 0.06301
# Poissons Ratio (y) = -0.11032 0.98993
# Poissons Ratio (z) = 0.05884 0.51496
#
# Static dielectric constant tensor:
#      x y z
#    x 1.967660 0.000000 0.000000 
#    y 0.000000 1.725260 0.000000 
#    z 0.000000 0.000000 1.739260 
# 
# From -- ./inp_files/30355.got.cif
#   From: 2010.05.17/outbox.cif.g08.bks.cpg/sg63_16_cif.got.tgz:30355.got - 2010.06.03 15:47:04.
