data_PCOD9476180
_publ_section_title
;
Structure prediction by ZEFSAII (Michael W. Deem and Ramdas Pophale) SiO2 
 PCOD9476180
Probable space group: C M C M
;
_chemical_formula_sum "Si O2"
_cell_formula_units_Z 48
_cell_length_a 9.000000
_cell_length_b 21.000000
_cell_length_c 27.000000
_cell_angle_alpha 90.000000
_cell_angle_beta 90.000000
_cell_angle_gamma 90.000000
_cell_volume 5103.000000
_symmetry_space_group_name_H-M "C M C M"
_symmetry_group_IT_number 63
_symmetry_cell_setting 'orthorhombic'
loop_
_space_group_symop_operation_xyz
x,y,z
-x,-y,1/2+z
x,-y,-z
-x,y,1/2-z
-x,-y,-z
x,y,1/2-z
-x,y,z
x,-y,1/2+z
1/2+x,1/2+y,z
1/2-x,1/2-y,1/2+z
1/2+x,1/2-y,-z
1/2-x,1/2+y,1/2-z
1/2-x,1/2-y,-z
1/2+x,1/2+y,1/2-z
1/2-x,1/2+y,z
1/2+x,1/2-y,1/2+z
loop_
_atom_site_type_symbol
_atom_site_label
_atom_site_fract_x
_atom_site_fract_y
_atom_site_fract_z
Si Si1 0.825511 0.687701 0.194741
Si Si2 0.676290 0.228789 0.410317
Si Si3 0.674584 0.984153 0.391814
Si Si4 0.675644 0.367113 0.062406
Si Si5 0.330398 0.447307 0.807789
Si Si6 0.674737 0.599913 0.050990
O O1 0.796534 0.712936 0.250000
O O2 0.802058 0.734358 0.148910
O O3 0.726726 0.625054 0.186854
O O4 0.000000 0.668391 0.192825
O O5 0.500000 0.220838 0.420031
O O6 0.727777 0.293954 0.435597
O O7 0.757078 0.164840 0.427245
O O8 0.500000 0.985168 0.398834
O O9 0.722648 0.007611 0.337912
O O10 0.747927 0.037504 0.427310
O O11 0.738918 0.914714 0.402117
O O12 0.500000 0.366699 0.074632
O O13 0.693729 0.395109 0.007716
O O14 0.327440 0.462090 0.750000
O O15 0.500000 0.452968 0.825738
O O16 0.500000 0.597385 0.061864
#
# Coordination Sequence:
#
# PCOD9476180 Si02
#       6
#    16  16  16  16  16  16
#     4   9  17  31  54  84 114 144 180 224 275 332
#     4  10  20  36  58  84 115 150 188 232 283 340
#     4  12  24  38  58  84 114 150 192 238 286 339
#     4  10  23  40  56  80 117 155 192 236 286 341
#     4  10  20  35  58  86 113 144 184 231 281 335
#     4  11  22  37  59  83 111 150 195 242 286 333
#
# _framework density 9.4062319999999993
#
# number of rings (size 3 to 8) (size 9 to 14) (size 15 to 20)
#    0.000    1.667    1.667    3.500    0.000    5.000 
#    0.000    0.833    0.000    3.000    0.000    0.000 
#    0.000    0.000    0.000    0.000    0.000    0.000 
#
# Total GULP energy -267929.938222 kJ/mol
# GULP energy per Si atom -5581.873713 kJ/mol
# Density = 0.938482 g / cm^3
# Si number density = 9.406232 Si / 1000 Ang^3
#
#
#
# Elastic Constant Matrix: (Units=GPa)
#
#
# Indices 1 2 3 4 5 6 
#
# 1 6.8947 -15.7590 10.7965 0.0000 0.0000 0.0000
# 2 -15.7590 12.7325 -2.7974 0.0000 0.0000 0.0000
# 3 10.7965 -2.7974 40.9251 0.0000 0.0000 0.0000
# 4 0.0000 0.0000 0.0000 -11.0004 0.0000 0.0000
# 5 0.0000 0.0000 0.0000 0.0000 17.5243 0.0000
# 6 0.0000 0.0000 0.0000 0.0000 0.0000 21.6467
#
#
#
# Elastic Compliance Matrix: (Units=1/GPa)
#
#
# Indices 1 2 3 4 5 6 
#
# 1 -0.071712 -0.085892 0.013048 0.000000 0.000000 0.000000
# 2 -0.085892 -0.023138 0.021078 0.000000 0.000000 0.000000
# 3 0.013048 0.021078 0.022434 0.000000 0.000000 0.000000
# 4 0.000000 0.000000 0.000000 -0.090906 0.000000 0.000000
# 5 0.000000 0.000000 0.000000 0.000000 0.057064 0.000000
# 6 0.000000 0.000000 0.000000 0.000000 0.000000 0.046196
#
#
# Mechanical properties :
#
#
# Convention : Reuss Voigt Hill
#
# Bulk Modulus (GPa) = -5.68340 5.00361 -0.33990
# Shear Modulus (GPa) = -329.37971 10.18828 -159.59571
#
# Velocity S-wave (km/s) = -13.24636 2.32969 -9.22059
# Velocity P-wave (km/s) = 15.39423 3.14676 10.65552
#
# Compressibility (1/GPa) = -0.17595096
#
# Stress axis : x y z
#
# Youngs Moduli (GPa) = -13.94457 -43.21815 44.57608
#
# Poissons Ratio (x) = -3.71209 -0.58161
# Poissons Ratio (y) = -1.19773 -0.93956
# Poissons Ratio (z) = 0.18194 0.91094
#
# Static dielectric constant tensor:
#      x y z
#    x 1.638530 0.000000 0.000000 
#    y 0.000000 1.605930 0.000000 
#    z 0.000000 0.000000 1.705270 
# 
# From -- ./inp_files/66913.got.cif
#   From: 2010.05.17/outbox.ucp.g08.bks.cvg/sg63_34_cif.got.tgz:66913.got - 2010.06.11 16:32:19.
