data_PCOD9476915
_publ_section_title
;
Structure prediction by ZEFSAII (Michael W. Deem and Ramdas Pophale) SiO2 
 PCOD9476915
Probable space group: C M C A
;
_chemical_formula_sum "Si O2"
_cell_formula_units_Z 112
_cell_length_a 17.970640
_cell_length_b 24.883166
_cell_length_c 12.451610
_cell_angle_alpha 90.000000
_cell_angle_beta 90.000000
_cell_angle_gamma 90.000000
_cell_volume 5567.941845
_symmetry_space_group_name_H-M "C M C A"
_symmetry_group_IT_number 64
_symmetry_cell_setting 'orthorhombic'
loop_
_space_group_symop_operation_xyz
x,y,z
-x,1/2-y,1/2+z
x,-y,-z
-x,1/2+y,1/2-z
-x,-y,-z
x,1/2+y,1/2-z
-x,y,z
x,1/2-y,1/2+z
1/2+x,1/2+y,z
1/2-x,-y,1/2+z
1/2+x,1/2-y,-z
1/2-x,y,1/2-z
1/2-x,1/2-y,-z
1/2+x,y,1/2-z
1/2-x,1/2+y,z
1/2+x,-y,1/2+z
loop_
_atom_site_type_symbol
_atom_site_label
_atom_site_fract_x
_atom_site_fract_y
_atom_site_fract_z
Si Si1 0.340411 0.765909 0.751230
Si Si2 0.322160 0.843460 0.177145
Si Si3 0.674413 0.656101 0.435142
Si Si4 0.413355 0.942639 0.457881
Si Si5 0.659358 0.631595 0.122428
Si Si6 0.414231 0.551908 0.700134
Si Si7 0.410777 0.069242 0.176646
O O1 0.250000 0.761270 0.750000
O O2 0.367210 0.705596 0.731754
O O3 0.356403 0.794643 0.863929
O O4 0.363850 0.808266 0.659040
O O5 0.250000 0.853446 0.250000
O O6 0.365435 0.898601 0.164212
O O7 0.306142 0.825998 0.055008
O O8 0.751445 0.634708 0.383369
O O9 0.616516 0.607584 0.418939
O O10 0.500000 0.938634 0.491899
O O11 0.370537 0.893086 0.511660
O O12 0.410964 0.945475 0.329938
O O13 0.383858 0.000000 0.500000
O O14 0.627663 0.593008 0.215947
O O15 0.500000 0.558455 0.666957
O O16 0.389061 0.492910 0.663188
O O17 0.500000 0.071127 0.189641
#
# Coordination Sequence:
#
# PCOD9476915 Si02
#       7
#    16  16  16  16  16  16  16
#     4   8  19  37  59  82 114 150 191 238 287 351
#     4  11  23  39  59  86 116 152 192 242 299 347
#     4  10  22  38  59  89 116 147 196 243 289 351
#     4  10  18  32  56  86 116 153 195 235 291 348
#     4  10  18  35  59  88 117 150 192 244 289 335
#     4  10  22  38  55  81 119 156 195 241 288 348
#     4  10  20  38  60  82 116 161 198 233 287 356
#
# _framework density 20.115151999999998
#
# number of rings (size 3 to 8) (size 9 to 14) (size 15 to 20)
#    0.000    2.143    1.429    2.571    0.000    8.571 
#    2.571    5.000    0.000    0.000    0.000    0.000 
#    0.000    0.000    0.000    0.000    0.000    0.000 
#
# Total GULP energy -312384.406911 kJ/mol
# GULP energy per Si atom -5578.292981 kJ/mol
# Density = 2.006937 g / cm^3
# Si number density = 20.115152 Si / 1000 Ang^3
#
#
#
# Elastic Constant Matrix: (Units=GPa)
#
#
# Indices 1 2 3 4 5 6 
#
# 1 29.1601 29.7113 12.1303 0.0000 0.0000 0.0000
# 2 29.7113 114.4578 23.7434 0.0000 0.0000 0.0000
# 3 12.1303 23.7434 75.9938 0.0000 0.0000 0.0000
# 4 0.0000 0.0000 0.0000 10.7852 0.0000 0.0000
# 5 0.0000 0.0000 0.0000 0.0000 18.1360 0.0000
# 6 0.0000 0.0000 0.0000 0.0000 0.0000 36.9012
#
#
#
# Elastic Compliance Matrix: (Units=1/GPa)
#
#
# Indices 1 2 3 4 5 6 
#
# 1 0.047741 -0.011561 -0.004008 0.000000 0.000000 0.000000
# 2 -0.011561 0.012142 -0.001948 0.000000 0.000000 0.000000
# 3 -0.004008 -0.001948 0.014407 0.000000 0.000000 0.000000
# 4 0.000000 0.000000 0.000000 0.092719 0.000000 0.000000
# 5 0.000000 0.000000 0.000000 0.000000 0.055139 0.000000
# 6 0.000000 0.000000 0.000000 0.000000 0.000000 0.027099
#
#
# Mechanical properties :
#
#
# Convention : Reuss Voigt Hill
#
# Bulk Modulus (GPa) = 25.47462 38.97572 32.22517
# Shear Modulus (GPa) = 16.81417 23.43293 20.12355
#
# Velocity S-wave (km/s) = 2.89432 3.41682 3.16637
# Velocity P-wave (km/s) = 4.88481 5.91478 5.42430
#
# Compressibility (1/GPa) = 0.03925475
#
# Stress axis : x y z
#
# Youngs Moduli (GPa) = 20.94656 82.35827 69.40833
#
# Poissons Ratio (x) = 0.95216 0.27821
# Poissons Ratio (y) = 0.24217 0.13522
# Poissons Ratio (z) = 0.08396 0.16045
#
# Static dielectric constant tensor:
#      x y z
#    x 1.707400 0.000000 0.000000 
#    y 0.000000 1.732900 0.000000 
#    z 0.000000 0.000000 1.746710 
# 
# From -- ./inp_files/17580.got.cif
#   From: 2010.05.17/outbox.cif.g08.bks.cpg/sg64_9_cif.got.tgz:17580.got - 2010.06.03 16:29:19.
