data_PCOD9476428
_publ_section_title
;
Structure prediction by ZEFSAII (Michael W. Deem and Ramdas Pophale) SiO2 
 PCOD9476428
Probable space group: C M C A
;
_chemical_formula_sum "Si O2"
_cell_formula_units_Z 96
_cell_length_a 8.734921
_cell_length_b 32.216017
_cell_length_c 19.688202
_cell_angle_alpha 90.000000
_cell_angle_beta 90.000000
_cell_angle_gamma 90.000000
_cell_volume 5540.345951
_symmetry_space_group_name_H-M "C M C A"
_symmetry_group_IT_number 64
_symmetry_cell_setting 'orthorhombic'
loop_
_space_group_symop_operation_xyz
x,y,z
-x,1/2-y,1/2+z
x,-y,-z
-x,1/2+y,1/2-z
-x,-y,-z
x,1/2+y,1/2-z
-x,y,z
x,1/2-y,1/2+z
1/2+x,1/2+y,z
1/2-x,-y,1/2+z
1/2+x,1/2-y,-z
1/2-x,y,1/2-z
1/2-x,1/2-y,-z
1/2+x,y,1/2-z
1/2-x,1/2+y,z
1/2+x,-y,1/2+z
loop_
_atom_site_type_symbol
_atom_site_label
_atom_site_fract_x
_atom_site_fract_y
_atom_site_fract_z
Si Si1 0.683872 0.629559 0.325844
Si Si2 0.682944 0.456252 0.826985
Si Si3 0.317245 0.701892 0.923399
Si Si4 0.815820 0.796495 0.572622
Si Si5 0.683442 0.459616 0.326565
Si Si6 0.817141 0.867639 0.325880
O O1 0.500000 0.625720 0.321848
O O2 0.750000 0.634942 0.250000
O O3 0.752802 0.586838 0.355984
O O4 0.724136 0.668856 0.372213
O O5 0.500000 0.455982 0.824679
O O6 0.750000 0.456276 0.750000
O O7 0.743343 0.499218 0.859048
O O8 0.500000 0.698702 0.920116
O O9 0.273449 0.749568 0.905938
O O10 0.244789 0.668567 0.873261
O O11 0.261221 0.694836 0.000293
O O12 0.000000 0.797305 0.563494
O O13 0.500000 0.464542 0.323992
O O14 0.750000 0.458049 0.250000
O O15 0.720674 0.413846 0.354623
O O16 0.750000 0.864054 0.250000
O O17 0.000000 0.865314 0.321154
#
# Coordination Sequence:
#
# PCOD9476428 Si02
#       6
#    16  16  16  16  16  16
#     4  10  19  32  50  73 102 131 164 205 247 291
#     4  10  17  26  43  68  98 129 162 199 242 290
#     4  10  20  35  55  76  99 130 168 207 250 300
#     4   9  20  37  54  73  98 132 170 205 246 299
#     4   9  16  27  44  67  96 130 164 198 240 288
#     4  10  20  33  51  76 105 134 167 207 249 294
#
# _framework density 17.327438000000001
#
# number of rings (size 3 to 8) (size 9 to 14) (size 15 to 20)
#    0.000    2.333    0.000    5.500    0.000    4.667 
#    0.000    1.667    0.000    1.000    0.000    7.000 
#    0.000    0.000    0.000    0.000    0.000    0.000 
#
# Total GULP energy -267555.708732 kJ/mol
# GULP energy per Si atom -5574.077265 kJ/mol
# Density = 1.728800 g / cm^3
# Si number density = 17.327438 Si / 1000 Ang^3
#
#
#
# Elastic Constant Matrix: (Units=GPa)
#
#
# Indices 1 2 3 4 5 6 
#
# 1 80.2436 75.6442 35.0681 0.0000 0.0000 0.0000
# 2 75.6442 200.8872 82.4373 0.0000 0.0000 0.0000
# 3 35.0681 82.4373 49.4265 0.0000 0.0000 0.0000
# 4 0.0000 0.0000 0.0000 -9.8674 0.0000 0.0000
# 5 0.0000 0.0000 0.0000 0.0000 23.6125 0.0000
# 6 0.0000 0.0000 0.0000 0.0000 0.0000 23.7566
#
#
#
# Elastic Compliance Matrix: (Units=1/GPa)
#
#
# Indices 1 2 3 4 5 6 
#
# 1 0.019716 -0.005335 -0.005090 0.000000 0.000000 0.000000
# 2 -0.005335 0.017219 -0.024933 0.000000 0.000000 0.000000
# 3 -0.005090 -0.024933 0.065429 0.000000 0.000000 0.000000
# 4 0.000000 0.000000 0.000000 -0.101344 0.000000 0.000000
# 5 0.000000 0.000000 0.000000 0.000000 0.042350 0.000000
# 6 0.000000 0.000000 0.000000 0.000000 0.000000 0.042094
#
#
# Mechanical properties :
#
#
# Convention : Reuss Voigt Hill
#
# Bulk Modulus (GPa) = 31.59876 79.65072 55.62474
# Shear Modulus (GPa) = 29.98893 16.66088 23.32491
#
# Velocity S-wave (km/s) = 4.16470 3.10422 3.67294
# Velocity P-wave (km/s) = 6.43445 7.67568 7.08231
#
# Compressibility (1/GPa) = 0.03164681
#
# Stress axis : x y z
#
# Youngs Moduli (GPa) = 50.72043 58.07629 15.28386
#
# Poissons Ratio (x) = 0.30986 0.07779
# Poissons Ratio (y) = 0.27062 0.38108
# Poissons Ratio (z) = 0.25814 1.44803
#
# Static dielectric constant tensor:
#      x y z
#    x 1.580320 0.000000 0.000000 
#    y 0.000000 1.649440 0.000000 
#    z 0.000000 0.000000 1.544770 
# 
# From -- ./inp_files/36945.got.cif
#   From: 2010.05.17/outbox.cif.g08.bks.cpg/sg64_19_cif.got.tgz:36945.got - 2010.06.03 16:29:19.
