data_PCOD9476088
_publ_section_title
;
Structure prediction by ZEFSAII (Michael W. Deem and Ramdas Pophale) SiO2 
 PCOD9476088
Probable space group: C M C M
;
_chemical_formula_sum "Si O2"
_cell_formula_units_Z 32
_cell_length_a 21.000000
_cell_length_b 18.000000
_cell_length_c 9.000000
_cell_angle_alpha 90.000000
_cell_angle_beta 90.000000
_cell_angle_gamma 90.000000
_cell_volume 3402.000000
_symmetry_space_group_name_H-M "C M C M"
_symmetry_group_IT_number 63
_symmetry_cell_setting 'orthorhombic'
loop_
_space_group_symop_operation_xyz
x,y,z
-x,-y,1/2+z
x,-y,-z
-x,y,1/2-z
-x,-y,-z
x,y,1/2-z
-x,y,z
x,-y,1/2+z
1/2+x,1/2+y,z
1/2-x,1/2-y,1/2+z
1/2+x,1/2-y,-z
1/2-x,1/2+y,1/2-z
1/2-x,1/2-y,-z
1/2+x,1/2+y,1/2-z
1/2-x,1/2+y,z
1/2+x,1/2-y,1/2+z
loop_
_atom_site_type_symbol
_atom_site_label
_atom_site_fract_x
_atom_site_fract_y
_atom_site_fract_z
Si Si1 0.570747 0.767866 0.080167
Si Si2 0.752052 0.921152 0.573153
Si Si3 0.380785 0.074840 0.577956
Si Si4 0.309480 0.708340 0.924718
O O1 0.590340 0.748204 0.250000
O O2 0.500000 0.739518 0.052736
O O3 0.571395 0.857226 0.075209
O O4 0.622964 0.742237 0.964607
O O5 0.751256 0.920228 0.750000
O O6 0.682458 0.899312 0.509600
O O7 0.805866 0.870109 0.505090
O O8 0.761685 0.000000 0.500000
O O9 0.363621 0.059212 0.750000
O O10 0.403730 0.000000 0.500000
O O11 0.298493 0.704588 0.750000
O O12 0.250000 0.750000 0.000000
#
# Coordination Sequence:
#
# PCOD9476088 Si02
#       4
#    16  16  16  16
#     4  10  22  39  57  80 114 155 195 237 286 340
#     4  11  21  35  57  85 116 148 185 235 286 340
#     4  10  19  32  52  78 113 152 192 233 277 333
#     4  12  23  37  59  86 114 149 193 240 287 339
#
# _framework density 9.4062319999999993
#
# number of rings (size 3 to 8) (size 9 to 14) (size 15 to 20)
#    0.000    1.250    2.500    6.750    0.000    2.000 
#    0.000    0.000    0.000    0.750    0.000    0.000 
#    0.000    0.000    0.000    0.000    0.000    0.000 
#
# Total GULP energy -178400.228781 kJ/mol
# GULP energy per Si atom -5575.007149 kJ/mol
# Density = 0.938482 g / cm^3
# Si number density = 9.406232 Si / 1000 Ang^3
#
#
#
# Elastic Constant Matrix: (Units=GPa)
#
#
# Indices 1 2 3 4 5 6 
#
# 1 38.2859 39.7100 51.3759 0.0000 0.0000 0.0000
# 2 39.7100 45.7058 34.3737 0.0000 0.0000 0.0000
# 3 51.3759 34.3737 187.9057 0.0000 0.0000 0.0000
# 4 0.0000 0.0000 0.0000 5.1606 0.0000 0.0000
# 5 0.0000 0.0000 0.0000 0.0000 15.7791 0.0000
# 6 0.0000 0.0000 0.0000 0.0000 0.0000 8.0841
#
#
#
# Elastic Compliance Matrix: (Units=1/GPa)
#
#
# Indices 1 2 3 4 5 6 
#
# 1 1.075601 -0.827122 -0.142777 0.000000 0.000000 0.000000
# 2 -0.827122 0.661415 0.105153 0.000000 0.000000 0.000000
# 3 -0.142777 0.105153 0.025123 0.000000 0.000000 0.000000
# 4 0.000000 0.000000 0.000000 0.193774 0.000000 0.000000
# 5 0.000000 0.000000 0.000000 0.000000 0.063375 0.000000
# 6 0.000000 0.000000 0.000000 0.000000 0.000000 0.123700
#
#
# Mechanical properties :
#
#
# Convention : Reuss Voigt Hill
#
# Bulk Modulus (GPa) = 30.63178 58.09074 44.36126
# Shear Modulus (GPa) = 1.28754 15.56728 8.42741
#
# Velocity S-wave (km/s) = 0.82819 2.87975 2.11883
# Velocity P-wave (km/s) = 4.15121 6.48098 5.44223
#
# Compressibility (1/GPa) = 0.03264583
#
# Stress axis : x y z
#
# Youngs Moduli (GPa) = 0.92971 1.51191 39.80364
#
# Poissons Ratio (x) = 1.25053 5.68306
# Poissons Ratio (y) = 0.76899 -4.18547
# Poissons Ratio (z) = 0.13274 -0.15898
#
# Static dielectric constant tensor:
#      x y z
#    x 1.798500 0.000000 0.000000 
#    y 0.000000 1.697990 0.000000 
#    z 0.000000 0.000000 1.628410 
# 
# From -- ./inp_files/5732.got.cif
#   From: 2010.05.17/outbox.ucp.g08.bks.cvg/sg63_3_cif.got.tgz:5732.got - 2010.06.11 16:32:19.
