data_PCOD9476803
_publ_section_title
;
Structure prediction by ZEFSAII (Michael W. Deem and Ramdas Pophale) SiO2 
 PCOD9476803
Probable space group: C M C A
;
_chemical_formula_sum "Si O2"
_cell_formula_units_Z 72
_cell_length_a 28.010944
_cell_length_b 24.997252
_cell_length_c 4.868905
_cell_angle_alpha 90.000000
_cell_angle_beta 90.000000
_cell_angle_gamma 90.000000
_cell_volume 3409.190853
_symmetry_space_group_name_H-M "C M C A"
_symmetry_group_IT_number 64
_symmetry_cell_setting 'orthorhombic'
loop_
_space_group_symop_operation_xyz
x,y,z
-x,1/2-y,1/2+z
x,-y,-z
-x,1/2+y,1/2-z
-x,-y,-z
x,1/2+y,1/2-z
-x,y,z
x,1/2-y,1/2+z
1/2+x,1/2+y,z
1/2-x,-y,1/2+z
1/2+x,1/2-y,-z
1/2-x,y,1/2-z
1/2-x,1/2-y,-z
1/2+x,y,1/2-z
1/2-x,1/2+y,z
1/2+x,-y,1/2+z
loop_
_atom_site_type_symbol
_atom_site_label
_atom_site_fract_x
_atom_site_fract_y
_atom_site_fract_z
Si Si1 0.154526 0.062902 0.528734
Si Si2 0.000000 0.116321 0.985031
Si Si3 0.250000 0.537278 0.250000
Si Si4 0.500000 0.808597 0.999749
Si Si5 0.397530 0.721383 0.710637
Si Si6 0.394203 0.109061 0.469820
O O1 0.207880 0.068415 0.405821
O O2 0.142942 0.077196 0.840721
O O3 0.142959 0.000000 0.500000
O O4 0.122067 0.101387 0.341627
O O5 0.051023 0.088700 0.023556
O O6 0.000000 0.136802 0.674593
O O7 0.000000 0.168242 0.190958
O O8 0.230352 0.500000 0.500000
O O9 0.546898 0.778276 0.107347
O O10 0.376476 0.767197 0.910629
O O11 0.394171 0.667723 0.890492
#
# Coordination Sequence:
#
# PCOD9476803 Si02
#       6
#    16   8   8   8  16  16
#     4  11  22  39  61  87 114 145 187 243 301 353
#     4  10  20  35  51  76 116 156 194 230 261 327
#     4  10  20  38  64  92 112 132 178 254 318 354
#     4  10  18  31  50  74 105 146 193 246 292 313
#     4  11  20  32  51  79 110 148 192 238 282 329
#     4  11  22  37  56  83 119 159 194 234 283 342
#
# _framework density 21.119381000000001
#
# number of rings (size 3 to 8) (size 9 to 14) (size 15 to 20)
#    0.000    1.333    0.000   10.667    0.000    0.000 
#    0.000    3.333    0.000    0.000    0.000   15.556 
#    0.000    0.000    0.000    0.000    0.000    0.000 
#
# Total GULP energy -200449.598240 kJ/mol
# GULP energy per Si atom -5568.044396 kJ/mol
# Density = 2.107131 g / cm^3
# Si number density = 21.119381 Si / 1000 Ang^3
#
#
#
# Elastic Constant Matrix: (Units=GPa)
#
#
# Indices 1 2 3 4 5 6 
#
# 1 89.7212 1.3745 4.2692 0.0000 0.0000 0.0000
# 2 1.3745 43.7410 11.5655 0.0000 0.0000 0.0000
# 3 4.2692 11.5655 106.3007 0.0000 0.0000 0.0000
# 4 0.0000 0.0000 0.0000 45.0603 0.0000 0.0000
# 5 0.0000 0.0000 0.0000 0.0000 23.8307 0.0000
# 6 0.0000 0.0000 0.0000 0.0000 0.0000 25.8549
#
#
#
# Elastic Compliance Matrix: (Units=1/GPa)
#
#
# Indices 1 2 3 4 5 6 
#
# 1 0.011169 -0.000239 -0.000423 0.000000 0.000000 0.000000
# 2 -0.000239 0.023544 -0.002552 0.000000 0.000000 0.000000
# 3 -0.000423 -0.002552 0.009702 0.000000 0.000000 0.000000
# 4 0.000000 0.000000 0.000000 0.022192 0.000000 0.000000
# 5 0.000000 0.000000 0.000000 0.000000 0.041963 0.000000
# 6 0.000000 0.000000 0.000000 0.000000 0.000000 0.038677
#
#
# Mechanical properties :
#
#
# Convention : Reuss Voigt Hill
#
# Bulk Modulus (GPa) = 26.32421 30.46459 28.39440
# Shear Modulus (GPa) = 30.05924 33.78610 31.92267
#
# Velocity S-wave (km/s) = 3.77676 4.00405 3.89206
# Velocity P-wave (km/s) = 5.61338 5.98605 5.80271
#
# Compressibility (1/GPa) = 0.03798784
#
# Stress axis : x y z
#
# Youngs Moduli (GPa) = 89.53024 42.47347 103.07259
#
# Poissons Ratio (x) = 0.01016 0.04355
# Poissons Ratio (y) = 0.02142 0.26304
# Poissons Ratio (z) = 0.03783 0.10839
#
# Static dielectric constant tensor:
#      x y z
#    x 1.815450 0.000000 0.000000 
#    y 0.000000 1.824530 0.000000 
#    z 0.000000 0.000000 1.771590 
# 
# From -- ./inp_files/2293.got.cif
#   From: 2010.05.17/outbox.cif.g08.bks.cpg/sg64_2_cif.got.tgz:2293.got - 2010.06.03 16:29:19.
