data_PCOD9476202
_publ_section_title
;
Structure prediction by ZEFSAII (Michael W. Deem and Ramdas Pophale) SiO2 
 PCOD9476202
Probable space group: C M C M
;
_chemical_formula_sum "Si O2"
_cell_formula_units_Z 36
_cell_length_a 15.000000
_cell_length_b 30.000000
_cell_length_c 9.000000
_cell_angle_alpha 90.000000
_cell_angle_beta 90.000000
_cell_angle_gamma 90.000000
_cell_volume 4050.000000
_symmetry_space_group_name_H-M "C M C M"
_symmetry_group_IT_number 63
_symmetry_cell_setting 'orthorhombic'
loop_
_space_group_symop_operation_xyz
x,y,z
-x,-y,1/2+z
x,-y,-z
-x,y,1/2-z
-x,-y,-z
x,y,1/2-z
-x,y,z
x,-y,1/2+z
1/2+x,1/2+y,z
1/2-x,1/2-y,1/2+z
1/2+x,1/2-y,-z
1/2-x,1/2+y,1/2-z
1/2-x,1/2-y,-z
1/2+x,1/2+y,1/2-z
1/2-x,1/2+y,z
1/2+x,1/2-y,1/2+z
loop_
_atom_site_type_symbol
_atom_site_label
_atom_site_fract_x
_atom_site_fract_y
_atom_site_fract_z
Si Si1 0.812006 0.711657 0.572138
Si Si2 0.683105 0.373547 0.428010
Si Si3 0.000000 0.164134 0.431112
Si Si4 0.198821 0.549828 0.430175
Si Si5 0.500000 0.235741 0.069014
Si Si6 0.500000 0.048740 0.072217
O O1 0.823132 0.719287 0.750000
O O2 0.750000 0.750000 0.500000
O O3 0.755804 0.666157 0.552331
O O4 0.908858 0.713120 0.492619
O O5 0.668320 0.378743 0.250000
O O6 0.590228 0.359732 0.507973
O O7 0.727784 0.417521 0.499302
O O8 0.000000 0.165893 0.250000
O O9 0.000000 0.213970 0.501733
O O10 0.205549 0.500000 0.500000
O O11 0.207237 0.547751 0.250000
O O12 0.097835 0.567976 0.466604
O O13 0.500000 0.236780 0.250000
O O14 0.500000 0.044423 0.250000
O O15 0.500000 0.000000 0.000000
#
# Coordination Sequence:
#
# PCOD9476202 Si02
#       6
#    16  16   8  16   8   8
#     4  11  23  39  61  88 121 159 202 250 303 361
#     4  11  24  41  62  89 122 158 202 252 306 364
#     4  12  24  40  64  88 116 157 205 251 305 369
#     4  10  20  37  61  90 124 162 204 249 302 358
#     4  12  24  39  61  89 125 163 204 253 305 362
#     4   8  16  31  54  83 115 152 192 236 287 349
#
# _framework density 8.8888890000000007
#
# number of rings (size 3 to 8) (size 9 to 14) (size 15 to 20)
#    0.000    1.333    2.222    4.000    0.000    4.444 
#    0.000    2.778    0.000    0.000    0.000    0.000 
#    0.000    0.000    0.000    0.000    0.000    0.000 
#
# Total GULP energy -201016.666658 kJ/mol
# GULP energy per Si atom -5583.796296 kJ/mol
# Density = 0.886866 g / cm^3
# Si number density = 8.888889 Si / 1000 Ang^3
#
#
#
# Elastic Constant Matrix: (Units=GPa)
#
#
# Indices 1 2 3 4 5 6 
#
# 1 183.0347 56.9770 79.8944 0.0000 0.0000 0.0000
# 2 56.9770 88.6968 52.2341 0.0000 0.0000 0.0000
# 3 79.8944 52.2341 154.3376 0.0000 0.0000 0.0000
# 4 0.0000 0.0000 0.0000 31.9033 0.0000 0.0000
# 5 0.0000 0.0000 0.0000 0.0000 40.6859 0.0000
# 6 0.0000 0.0000 0.0000 0.0000 0.0000 37.9800
#
#
#
# Elastic Compliance Matrix: (Units=1/GPa)
#
#
# Indices 1 2 3 4 5 6 
#
# 1 0.007749 -0.003266 -0.002906 0.000000 0.000000 0.000000
# 2 -0.003266 0.015458 -0.003541 0.000000 0.000000 0.000000
# 3 -0.002906 -0.003541 0.009182 0.000000 0.000000 0.000000
# 4 0.000000 0.000000 0.000000 0.031345 0.000000 0.000000
# 5 0.000000 0.000000 0.000000 0.000000 0.024579 0.000000
# 6 0.000000 0.000000 0.000000 0.000000 0.000000 0.026330
#
#
# Mechanical properties :
#
#
# Convention : Reuss Voigt Hill
#
# Bulk Modulus (GPa) = 77.14445 89.36445 83.25445
# Shear Modulus (GPa) = 36.13054 37.91143 37.02098
#
# Velocity S-wave (km/s) = 4.51304 4.62293 4.56832
# Velocity P-wave (km/s) = 8.40504 8.88099 8.64629
#
# Compressibility (1/GPa) = 0.01296269
#
# Stress axis : x y z
#
# Youngs Moduli (GPa) = 129.05664 64.69260 108.91184
#
# Poissons Ratio (x) = 0.21131 0.31646
# Poissons Ratio (y) = 0.42154 0.38562
# Poissons Ratio (z) = 0.37499 0.22905
#
# Static dielectric constant tensor:
#      x y z
#    x 1.614950 0.000000 0.000000 
#    y 0.000000 1.596530 0.000000 
#    z 0.000000 0.000000 1.595840 
# 
# From -- ./inp_files/4963.got.cif
#   From: 2010.05.17/outbox.ucp.g08.bks.cvg/sg63_3_cif.got.tgz:4963.got - 2010.06.11 16:32:19.
