data_PCOD9476077
_publ_section_title
;
Structure prediction by ZEFSAII (Michael W. Deem and Ramdas Pophale) SiO2 
 PCOD9476077
Probable space group: C M C M
;
_chemical_formula_sum "Si O2"
_cell_formula_units_Z 48
_cell_length_a 9.000000
_cell_length_b 24.000000
_cell_length_c 27.000000
_cell_angle_alpha 90.000000
_cell_angle_beta 90.000000
_cell_angle_gamma 90.000000
_cell_volume 5832.000000
_symmetry_space_group_name_H-M "C M C M"
_symmetry_group_IT_number 63
_symmetry_cell_setting 'orthorhombic'
loop_
_space_group_symop_operation_xyz
x,y,z
-x,-y,1/2+z
x,-y,-z
-x,y,1/2-z
-x,-y,-z
x,y,1/2-z
-x,y,z
x,-y,1/2+z
1/2+x,1/2+y,z
1/2-x,1/2-y,1/2+z
1/2+x,1/2-y,-z
1/2-x,1/2+y,1/2-z
1/2-x,1/2-y,-z
1/2+x,1/2+y,1/2-z
1/2-x,1/2+y,z
1/2+x,1/2-y,1/2+z
loop_
_atom_site_type_symbol
_atom_site_label
_atom_site_fract_x
_atom_site_fract_y
_atom_site_fract_z
Si Si1 0.823892 0.915964 0.887095
Si Si2 0.174020 0.239052 0.877641
Si Si3 0.172057 0.667294 0.458884
Si Si4 0.320841 0.476954 0.054231
Si Si5 0.674974 0.142236 0.929338
Si Si6 0.320528 0.161574 0.192712
O O1 0.779920 0.877165 0.933638
O O2 0.743667 0.888711 0.840056
O O3 0.000000 0.914330 0.879435
O O4 0.779940 0.977788 0.903967
O O5 0.187663 0.276679 0.927255
O O6 0.260577 0.182449 0.887328
O O7 0.225597 0.280478 0.833899
O O8 0.000000 0.226956 0.870042
O O9 0.199627 0.671150 0.516967
O O10 0.000000 0.648621 0.452036
O O11 0.500000 0.472610 0.052876
O O12 0.252219 0.417461 0.066335
O O13 0.273410 0.500000 0.000000
O O14 0.500000 0.135069 0.922702
O O15 0.276528 0.159213 0.250000
O O16 0.500000 0.159639 0.189663
#
# Coordination Sequence:
#
# PCOD9476077 Si02
#       6
#    16  16  16  16  16  16
#     4  10  19  31  51  77 102 131 171 214 250 291
#     4   9  18  32  49  70  99 132 165 202 249 307
#     4   9  18  31  46  68 100 137 171 203 244 295
#     4  10  20  34  49  69 102 143 177 205 245 298
#     4  11  21  30  46  72 102 137 174 209 245 289
#     4   9  19  37  59  79 100 128 162 206 263 315
#
# _framework density 8.2304530000000007
#
# number of rings (size 3 to 8) (size 9 to 14) (size 15 to 20)
#    0.000    2.333    1.667    2.500    0.000    5.333 
#    0.000    0.000    0.000    1.000    0.000    2.333 
#    0.000    0.000    0.000    0.000    0.000    0.000 
#
# Total GULP energy -267573.363620 kJ/mol
# GULP energy per Si atom -5574.445075 kJ/mol
# Density = 0.821172 g / cm^3
# Si number density = 8.230453 Si / 1000 Ang^3
#
#
#
# Elastic Constant Matrix: (Units=GPa)
#
#
# Indices 1 2 3 4 5 6 
#
# 1 20.9598 41.7000 36.7589 0.0000 0.0000 0.0000
# 2 41.7000 86.5245 58.4500 0.0000 0.0000 0.0000
# 3 36.7589 58.4500 103.2583 0.0000 0.0000 0.0000
# 4 0.0000 0.0000 0.0000 10.2639 0.0000 0.0000
# 5 0.0000 0.0000 0.0000 0.0000 18.9847 0.0000
# 6 0.0000 0.0000 0.0000 0.0000 0.0000 27.1894
#
#
#
# Elastic Compliance Matrix: (Units=1/GPa)
#
#
# Indices 1 2 3 4 5 6 
#
# 1 -3.400010 1.329272 0.457927 0.000000 0.000000 0.000000
# 2 1.329272 -0.500981 -0.189625 0.000000 0.000000 0.000000
# 3 0.457927 -0.189625 -0.045995 0.000000 0.000000 0.000000
# 4 0.000000 0.000000 0.000000 0.097429 0.000000 0.000000
# 5 0.000000 0.000000 0.000000 0.000000 0.052674 0.000000
# 6 0.000000 0.000000 0.000000 0.000000 0.000000 0.036779
#
#
# Mechanical properties :
#
#
# Convention : Reuss Voigt Hill
#
# Bulk Modulus (GPa) = -1.33008 53.84005 26.25499
# Shear Modulus (GPa) = -0.69388 16.20985 7.75799
#
# Velocity S-wave (km/s) = -0.64996 3.14147 2.17329
# Velocity P-wave (km/s) = 1.17177 6.77771 4.72040
#
# Compressibility (1/GPa) = -0.75183579
#
# Stress axis : x y z
#
# Youngs Moduli (GPa) = -0.29412 -1.99608 -21.74146
#
# Poissons Ratio (x) = 2.65334 9.95601
# Poissons Ratio (y) = 0.39096 -4.12271
# Poissons Ratio (z) = 0.13468 -0.37851
#
# Static dielectric constant tensor:
#      x y z
#    x 1.552350 0.000000 0.000000 
#    y 0.000000 1.551020 0.000000 
#    z 0.000000 0.000000 1.545120 
# 
# From -- ./inp_files/66969.got.cif
#   From: 2010.05.17/outbox.ucp.g08.bks.cvg/sg63_34_cif.got.tgz:66969.got - 2010.06.11 16:32:19.
