data_PCOD9476106
_publ_section_title
;
Structure prediction by ZEFSAII (Michael W. Deem and Ramdas Pophale) SiO2 
 PCOD9476106
Probable space group: C M C M
;
_chemical_formula_sum "Si O2"
_cell_formula_units_Z 48
_cell_length_a 21.000000
_cell_length_b 27.000000
_cell_length_c 9.000000
_cell_angle_alpha 90.000000
_cell_angle_beta 90.000000
_cell_angle_gamma 90.000000
_cell_volume 5103.000000
_symmetry_space_group_name_H-M "C M C M"
_symmetry_group_IT_number 63
_symmetry_cell_setting 'orthorhombic'
loop_
_space_group_symop_operation_xyz
x,y,z
-x,-y,1/2+z
x,-y,-z
-x,y,1/2-z
-x,-y,-z
x,y,1/2-z
-x,y,z
x,-y,1/2+z
1/2+x,1/2+y,z
1/2-x,1/2-y,1/2+z
1/2+x,1/2-y,-z
1/2-x,1/2+y,1/2-z
1/2-x,1/2-y,-z
1/2+x,1/2+y,1/2-z
1/2-x,1/2+y,z
1/2+x,1/2-y,1/2+z
loop_
_atom_site_type_symbol
_atom_site_label
_atom_site_fract_x
_atom_site_fract_y
_atom_site_fract_z
Si Si1 0.570499 0.608301 0.422995
Si Si2 0.273277 0.700916 0.921673
Si Si3 0.691294 0.553785 0.569912
Si Si4 0.302172 0.885740 0.927936
Si Si5 0.927033 0.664102 0.572614
Si Si6 0.605411 0.280182 0.578989
O O1 0.579675 0.593113 0.250000
O O2 0.500000 0.590372 0.473463
O O3 0.632176 0.588503 0.513267
O O4 0.567044 0.668433 0.420130
O O5 0.254990 0.694254 0.750000
O O6 0.250000 0.750000 0.000000
O O7 0.244174 0.658890 0.024518
O O8 0.347616 0.707288 0.944446
O O9 0.678394 0.500000 0.500000
O O10 0.692863 0.554205 0.750000
O O11 0.761249 0.570504 0.506721
O O12 0.305251 0.892604 0.750000
O O13 0.371433 0.867440 0.990448
O O14 0.919993 0.655605 0.750000
O O15 0.920101 0.724263 0.552998
O O16 0.000000 0.650959 0.529664
O O17 0.632842 0.277801 0.750000
#
# Coordination Sequence:
#
# PCOD9476106 Si02
#       6
#    16  16  16  16  16  16
#     4  10  21  38  61  90 126 167 208 251 301 356
#     4  12  22  33  53  84 118 159 204 252 299 352
#     4  12  26  45  68  92 118 151 199 257 314 371
#     4  12  24  40  62  88 121 160 202 253 308 366
#     4  10  21  37  59  90 128 169 209 249 297 357
#     4  10  19  33  56  85 123 167 208 247 289 346
#
# _framework density 9.4062319999999993
#
# number of rings (size 3 to 8) (size 9 to 14) (size 15 to 20)
#    0.000    1.000    3.333    5.000    0.000    3.000 
#    0.000    0.000    0.000    3.500    0.000    0.000 
#    0.000    0.000    0.000    0.000    0.000    0.000 
#
# Total GULP energy -267251.661580 kJ/mol
# GULP energy per Si atom -5567.742950 kJ/mol
# Density = 0.938482 g / cm^3
# Si number density = 9.406232 Si / 1000 Ang^3
#
#
#
# Elastic Constant Matrix: (Units=GPa)
#
#
# Indices 1 2 3 4 5 6 
#
# 1 136.8298 37.9011 64.2946 0.0000 0.0000 0.0000
# 2 37.9011 72.0442 29.3016 0.0000 0.0000 0.0000
# 3 64.2946 29.3016 126.2246 0.0000 0.0000 0.0000
# 4 0.0000 0.0000 0.0000 20.6998 0.0000 0.0000
# 5 0.0000 0.0000 0.0000 0.0000 28.1530 0.0000
# 6 0.0000 0.0000 0.0000 0.0000 0.0000 10.3546
#
#
#
# Elastic Compliance Matrix: (Units=1/GPa)
#
#
# Indices 1 2 3 4 5 6 
#
# 1 0.010418 -0.003669 -0.004455 0.000000 0.000000 0.000000
# 2 -0.003669 0.016620 -0.001989 0.000000 0.000000 0.000000
# 3 -0.004455 -0.001989 0.010653 0.000000 0.000000 0.000000
# 4 0.000000 0.000000 0.000000 0.048310 0.000000 0.000000
# 5 0.000000 0.000000 0.000000 0.000000 0.035520 0.000000
# 6 0.000000 0.000000 0.000000 0.000000 0.000000 0.096575
#
#
# Mechanical properties :
#
#
# Convention : Reuss Voigt Hill
#
# Bulk Modulus (GPa) = 57.25772 66.45480 61.85626
# Shear Modulus (GPa) = 20.47977 25.41490 22.94734
#
# Velocity S-wave (km/s) = 3.30302 3.67953 3.49634
# Velocity P-wave (km/s) = 6.71183 7.31119 7.01791
#
# Compressibility (1/GPa) = 0.01746489
#
# Stress axis : x y z
#
# Youngs Moduli (GPa) = 95.98899 60.17022 93.86739
#
# Poissons Ratio (x) = 0.22075 0.41816
# Poissons Ratio (y) = 0.35216 0.18673
# Poissons Ratio (z) = 0.42762 0.11970
#
# Static dielectric constant tensor:
#      x y z
#    x 1.685180 0.000000 0.000000 
#    y 0.000000 1.034180 0.000000 
#    z 0.000000 0.000000 1.619490 
# 
# From -- ./inp_files/8644.got.cif
#   From: 2010.05.17/outbox.ucp.g08.bks.cvg/sg63_5_cif.got.tgz:8644.got - 2010.06.11 16:32:19.
