data_PCOD9476780
_publ_section_title
;
Structure prediction by ZEFSAII (Michael W. Deem and Ramdas Pophale) SiO2 
 PCOD9476780
Probable space group: C M C A
;
_chemical_formula_sum "Si O2"
_cell_formula_units_Z 96
_cell_length_a 17.039384
_cell_length_b 11.557824
_cell_length_c 22.982874
_cell_angle_alpha 90.000000
_cell_angle_beta 90.000000
_cell_angle_gamma 90.000000
_cell_volume 4526.205867
_symmetry_space_group_name_H-M "C M C A"
_symmetry_group_IT_number 64
_symmetry_cell_setting 'orthorhombic'
loop_
_space_group_symop_operation_xyz
x,y,z
-x,1/2-y,1/2+z
x,-y,-z
-x,1/2+y,1/2-z
-x,-y,-z
x,1/2+y,1/2-z
-x,y,z
x,1/2-y,1/2+z
1/2+x,1/2+y,z
1/2-x,-y,1/2+z
1/2+x,1/2-y,-z
1/2-x,y,1/2-z
1/2-x,1/2-y,-z
1/2+x,y,1/2-z
1/2-x,1/2+y,z
1/2+x,-y,1/2+z
loop_
_atom_site_type_symbol
_atom_site_label
_atom_site_fract_x
_atom_site_fract_y
_atom_site_fract_z
Si Si1 0.189859 0.500000 0.000000
Si Si2 0.000000 0.135617 0.287053
Si Si3 0.000000 0.630147 0.797272
Si Si4 0.856481 0.112067 0.612408
Si Si5 0.720137 0.333403 0.933308
Si Si6 0.811143 0.473502 0.343859
Si Si7 0.750000 0.373332 0.750000
Si Si8 0.146391 0.232938 0.347031
O O1 0.139590 0.521482 0.941631
O O2 0.249436 0.390689 0.992592
O O3 0.926138 0.154726 0.329808
O O4 0.000000 0.248788 0.241753
O O5 0.000000 0.999713 0.266828
O O6 0.074967 0.627701 0.840928
O O7 0.840019 0.231121 0.578099
O O8 0.777442 0.076981 0.647595
O O9 0.683037 0.438806 0.896851
O O10 0.802512 0.295261 0.903398
O O11 0.810426 0.545832 0.284710
O O12 0.871056 0.368628 0.345734
O O13 0.793023 0.293590 0.795454
#
# Coordination Sequence:
#
# PCOD9476780 Si02
#       8
#     8   8   8  16  16  16   8  16
#     4  10  18  37  68  89 118 150 204 264 322 361
#     4  12  28  40  58  86 127 173 209 253 304 368
#     4  12  28  43  60  89 133 170 213 252 312 378
#     4  10  22  40  59  92 122 158 208 256 313 377
#     4   9  19  37  64  92 117 153 205 261 308 371
#     4   9  19  33  56  80 113 153 202 247 298 365
#     4  10  18  30  56  74 112 152 206 246 304 350
#     4  10  22  35  55  84 120 162 206 250 303 370
#
# _framework density 21.209817999999999
#
# number of rings (size 3 to 8) (size 9 to 14) (size 15 to 20)
#    0.000    2.000    0.000    4.000   11.667    0.333 
#    0.000    0.833    0.000    0.500    0.000    0.000 
#    0.000    0.000    0.000    0.000    0.000    0.000 
#
# Total GULP energy -267451.832617 kJ/mol
# GULP energy per Si atom -5571.913180 kJ/mol
# Density = 2.116154 g / cm^3
# Si number density = 21.209818 Si / 1000 Ang^3
#
#
#
# Elastic Constant Matrix: (Units=GPa)
#
#
# Indices 1 2 3 4 5 6 
#
# 1 42.4987 8.4003 6.9475 0.0000 0.0000 0.0000
# 2 8.4003 129.7962 26.6775 0.0000 0.0000 0.0000
# 3 6.9475 26.6775 68.3028 0.0000 0.0000 0.0000
# 4 0.0000 0.0000 0.0000 18.4617 0.0000 0.0000
# 5 0.0000 0.0000 0.0000 0.0000 22.8903 0.0000
# 6 0.0000 0.0000 0.0000 0.0000 0.0000 15.0273
#
#
#
# Elastic Compliance Matrix: (Units=1/GPa)
#
#
# Indices 1 2 3 4 5 6 
#
# 1 0.024084 -0.001147 -0.002002 0.000000 0.000000 0.000000
# 2 -0.001147 0.008432 -0.003176 0.000000 0.000000 0.000000
# 3 -0.002002 -0.003176 0.016085 0.000000 0.000000 0.000000
# 4 0.000000 0.000000 0.000000 0.054166 0.000000 0.000000
# 5 0.000000 0.000000 0.000000 0.000000 0.043687 0.000000
# 6 0.000000 0.000000 0.000000 0.000000 0.000000 0.066546
#
#
# Mechanical properties :
#
#
# Convention : Reuss Voigt Hill
#
# Bulk Modulus (GPa) = 27.81658 36.07202 31.94430
# Shear Modulus (GPa) = 21.04085 24.51403 22.77744
#
# Velocity S-wave (km/s) = 3.15307 3.40337 3.28061
# Velocity P-wave (km/s) = 5.13802 5.69983 5.42620
#
# Compressibility (1/GPa) = 0.03594979
#
# Stress axis : x y z
#
# Youngs Moduli (GPa) = 41.52118 118.60280 62.16995
#
# Poissons Ratio (x) = 0.13607 0.12444
# Poissons Ratio (y) = 0.04764 0.19748
# Poissons Ratio (z) = 0.08311 0.37674
#
# Static dielectric constant tensor:
#      x y z
#    x 1.750690 0.000000 0.000000 
#    y 0.000000 1.907900 0.000000 
#    z 0.000000 0.000000 1.789210 
# 
# From -- ./inp_files/45804.got.cif
#   From: 2010.05.17/outbox.cif.g08.bks.cpg/sg64_23_cif.got.tgz:45804.got - 2010.06.03 16:29:19.
