data_PCOD9476184
_publ_section_title
;
Structure prediction by ZEFSAII (Michael W. Deem and Ramdas Pophale) SiO2 
 PCOD9476184
Probable space group: C M C M
;
_chemical_formula_sum "Si O2"
_cell_formula_units_Z 36
_cell_length_a 18.000000
_cell_length_b 24.000000
_cell_length_c 9.000000
_cell_angle_alpha 90.000000
_cell_angle_beta 90.000000
_cell_angle_gamma 90.000000
_cell_volume 3888.000000
_symmetry_space_group_name_H-M "C M C M"
_symmetry_group_IT_number 63
_symmetry_cell_setting 'orthorhombic'
loop_
_space_group_symop_operation_xyz
x,y,z
-x,-y,1/2+z
x,-y,-z
-x,y,1/2-z
-x,-y,-z
x,y,1/2-z
-x,y,z
x,-y,1/2+z
1/2+x,1/2+y,z
1/2-x,1/2-y,1/2+z
1/2+x,1/2-y,-z
1/2-x,1/2+y,1/2-z
1/2-x,1/2-y,-z
1/2+x,1/2+y,1/2-z
1/2-x,1/2+y,z
1/2+x,1/2-y,1/2+z
loop_
_atom_site_type_symbol
_atom_site_label
_atom_site_fract_x
_atom_site_fract_y
_atom_site_fract_z
Si Si1 0.913904 0.143009 0.928653
Si Si2 0.831500 0.247323 0.428709
Si Si3 0.213812 0.939740 0.428915
Si Si4 0.500000 0.939875 0.430038
Si Si5 0.142481 0.370935 0.429912
O O1 0.908168 0.150537 0.750000
O O2 0.863867 0.089603 0.967585
O O3 0.000000 0.136404 0.967800
O O4 0.877924 0.196284 0.007185
O O5 0.826211 0.243478 0.250000
O O6 0.750000 0.250000 0.500000
O O7 0.866809 0.306764 0.470973
O O8 0.217918 0.944763 0.250000
O O9 0.280113 0.898463 0.478781
O O10 0.222321 0.000000 0.500000
O O11 0.500000 0.942933 0.250000
O O12 0.573338 0.907351 0.479097
O O13 0.500000 0.000000 0.500000
O O14 0.144067 0.372033 0.250000
#
# Coordination Sequence:
#
# PCOD9476184 Si02
#       5
#    16  16  16   8  16
#     4  10  22  40  59  83 119 156 189 237 296 344
#     4  11  21  37  61  87 115 150 192 237 287 348
#     4  10  20  37  57  80 110 149 191 235 287 344
#     4  10  20  36  56  80 112 150 185 228 279 332
#     4   9  19  35  56  80 112 149 185 227 285 341
#
# _framework density 9.2592590000000001
#
# number of rings (size 3 to 8) (size 9 to 14) (size 15 to 20)
#    0.000    2.000    2.222    1.333    1.556    1.778 
#    0.000    2.222    0.000    0.000    0.000    0.000 
#    0.000    0.000    0.000    0.000    0.000    0.000 
#
# Total GULP energy -200907.910026 kJ/mol
# GULP energy per Si atom -5580.775278 kJ/mol
# Density = 0.923818 g / cm^3
# Si number density = 9.259259 Si / 1000 Ang^3
#
#
#
# Elastic Constant Matrix: (Units=GPa)
#
#
# Indices 1 2 3 4 5 6 
#
# 1 76.3108 -4.5369 6.5477 0.0000 0.0000 0.0000
# 2 -4.5369 69.5652 2.1058 0.0000 0.0000 0.0000
# 3 6.5477 2.1058 5.6002 0.0000 0.0000 0.0000
# 4 0.0000 0.0000 0.0000 36.2675 0.0000 0.0000
# 5 0.0000 0.0000 0.0000 0.0000 13.7754 0.0000
# 6 0.0000 0.0000 0.0000 0.0000 0.0000 29.5275
#
#
#
# Elastic Compliance Matrix: (Units=1/GPa)
#
#
# Indices 1 2 3 4 5 6 
#
# 1 0.014718 0.001498 -0.017772 0.000000 0.000000 0.000000
# 2 0.001498 0.014693 -0.007276 0.000000 0.000000 0.000000
# 3 -0.017772 -0.007276 0.202081 0.000000 0.000000 0.000000
# 4 0.000000 0.000000 0.000000 0.027573 0.000000 0.000000
# 5 0.000000 0.000000 0.000000 0.000000 0.072593 0.000000
# 6 0.000000 0.000000 0.000000 0.000000 0.000000 0.033867
#
#
# Mechanical properties :
#
#
# Convention : Reuss Voigt Hill
#
# Bulk Modulus (GPa) = 5.42323 17.74550 11.58437
# Shear Modulus (GPa) = 10.54653 25.73804 18.14229
#
# Velocity S-wave (km/s) = 2.38904 3.73212 3.13339
# Velocity P-wave (km/s) = 3.24729 5.30801 4.39999
#
# Compressibility (1/GPa) = 0.18439185
#
# Stress axis : x y z
#
# Youngs Moduli (GPa) = 67.94299 68.05986 4.94851
#
# Poissons Ratio (x) = -0.10194 0.08794
# Poissons Ratio (y) = -0.10177 0.03601
# Poissons Ratio (z) = 1.20747 0.49523
#
# Static dielectric constant tensor:
#      x y z
#    x 1.631920 0.000000 0.000000 
#    y 0.000000 1.626190 0.000000 
#    z 0.000000 0.000000 1.628120 
# 
# From -- ./inp_files/6097.got.cif
#   From: 2010.05.17/outbox.ucp.g08.bks.cvg/sg63_4_cif.got.tgz:6097.got - 2010.06.11 16:32:19.
