data_PCOD9476279
_publ_section_title
;
Structure prediction by ZEFSAII (Michael W. Deem and Ramdas Pophale) SiO2 
 PCOD9476279
Probable space group: C M C M
;
_chemical_formula_sum "Si O2"
_cell_formula_units_Z 40
_cell_length_a 27.000000
_cell_length_b 9.000000
_cell_length_c 18.000000
_cell_angle_alpha 90.000000
_cell_angle_beta 90.000000
_cell_angle_gamma 90.000000
_cell_volume 4374.000000
_symmetry_space_group_name_H-M "C M C M"
_symmetry_group_IT_number 63
_symmetry_cell_setting 'orthorhombic'
loop_
_space_group_symop_operation_xyz
x,y,z
-x,-y,1/2+z
x,-y,-z
-x,y,1/2-z
-x,-y,-z
x,y,1/2-z
-x,y,z
x,-y,1/2+z
1/2+x,1/2+y,z
1/2-x,1/2-y,1/2+z
1/2+x,1/2-y,-z
1/2-x,1/2+y,1/2-z
1/2-x,1/2-y,-z
1/2+x,1/2+y,1/2-z
1/2-x,1/2+y,z
1/2+x,1/2-y,1/2+z
loop_
_atom_site_type_symbol
_atom_site_label
_atom_site_fract_x
_atom_site_fract_y
_atom_site_fract_z
Si Si1 0.360479 0.115486 0.431853
Si Si2 0.559498 0.308982 0.160257
Si Si3 0.714472 0.381416 0.434194
Si Si4 0.186989 0.360802 0.339156
Si Si5 0.364583 0.441080 0.662315
O O1 0.407650 0.199229 0.392870
O O2 0.319447 0.239134 0.457376
O O3 0.371485 0.000000 0.500000
O O4 0.334884 0.016419 0.367673
O O5 0.566429 0.277768 0.250000
O O6 0.500000 0.303688 0.146211
O O7 0.583759 0.473273 0.145914
O O8 0.726270 0.500000 0.500000
O O9 0.763198 0.334311 0.387804
O O10 0.678218 0.469810 0.379214
O O11 0.197142 0.361774 0.250000
O O12 0.146071 0.231791 0.354642
O O13 0.357257 0.456415 0.750000
#
# Coordination Sequence:
#
# PCOD9476279 Si02
#       5
#    16  16  16  16  16
#     4  11  23  37  56  84 118 149 186 235 284 333
#     4   9  19  39  64  84 106 143 189 234 283 340
#     4  11  22  36  55  80 114 155 192 222 267 330
#     4  11  22  36  56  84 116 149 187 233 281 328
#     4   9  19  35  55  80 110 144 184 227 273 332
#
# _framework density 9.1449470000000002
#
# number of rings (size 3 to 8) (size 9 to 14) (size 15 to 20)
#    0.000    1.800    0.000    4.200    0.000    6.800 
#    0.000    1.000    0.000   24.000    0.000    0.000 
#    0.000    0.000    0.000    0.000    0.000    0.000 
#
# Total GULP energy -223187.433480 kJ/mol
# GULP energy per Si atom -5579.685837 kJ/mol
# Density = 0.912413 g / cm^3
# Si number density = 9.144947 Si / 1000 Ang^3
#
#
#
# Elastic Constant Matrix: (Units=GPa)
#
#
# Indices 1 2 3 4 5 6 
#
# 1 133.5679 50.0936 60.6679 0.0000 0.0000 0.0000
# 2 50.0936 117.6293 52.9716 0.0000 0.0000 0.0000
# 3 60.6679 52.9716 86.3472 0.0000 0.0000 0.0000
# 4 0.0000 0.0000 0.0000 40.2017 0.0000 0.0000
# 5 0.0000 0.0000 0.0000 0.0000 29.8880 0.0000
# 6 0.0000 0.0000 0.0000 0.0000 0.0000 28.8588
#
#
#
# Elastic Compliance Matrix: (Units=1/GPa)
#
#
# Indices 1 2 3 4 5 6 
#
# 1 0.011237 -0.001699 -0.006852 0.000000 0.000000 0.000000
# 2 -0.001699 0.012003 -0.006170 0.000000 0.000000 0.000000
# 3 -0.006852 -0.006170 0.020181 0.000000 0.000000 0.000000
# 4 0.000000 0.000000 0.000000 0.024875 0.000000 0.000000
# 5 0.000000 0.000000 0.000000 0.000000 0.033458 0.000000
# 6 0.000000 0.000000 0.000000 0.000000 0.000000 0.034651
#
#
# Mechanical properties :
#
#
# Convention : Reuss Voigt Hill
#
# Bulk Modulus (GPa) = 71.54298 73.89006 72.71652
# Shear Modulus (GPa) = 29.32432 31.37712 30.35072
#
# Velocity S-wave (km/s) = 4.00848 4.14641 4.07802
# Velocity P-wave (km/s) = 7.78620 7.96308 7.87514
#
# Compressibility (1/GPa) = 0.01397761
#
# Stress axis : x y z
#
# Youngs Moduli (GPa) = 88.99499 83.30981 49.55261
#
# Poissons Ratio (x) = 0.14158 0.33955
# Poissons Ratio (y) = 0.15124 0.30573
# Poissons Ratio (z) = 0.60982 0.51400
#
# Static dielectric constant tensor:
#      x y z
#    x 1.607740 0.000000 0.000000 
#    y 0.000000 1.668810 0.000000 
#    z 0.000000 0.000000 1.647190 
# 
# From -- ./inp_files/48768.got.cif
#   From: 2010.05.17/outbox.ucp.g08.bks.cvg/sg63_25_cif.got.tgz:48768.got - 2010.06.11 16:32:19.
