data_PCOD9476131
_publ_section_title
;
Structure prediction by ZEFSAII (Michael W. Deem and Ramdas Pophale) SiO2 
 PCOD9476131
Probable space group: C M C M
;
_chemical_formula_sum "Si O2"
_cell_formula_units_Z 58
_cell_length_a 18.000000
_cell_length_b 18.000000
_cell_length_c 18.000000
_cell_angle_alpha 90.000000
_cell_angle_beta 90.000000
_cell_angle_gamma 90.000000
_cell_volume 5832.000000
_symmetry_space_group_name_H-M "C M C M"
_symmetry_group_IT_number 63
_symmetry_cell_setting 'orthorhombic'
loop_
_space_group_symop_operation_xyz
x,y,z
-x,-y,1/2+z
x,-y,-z
-x,y,1/2-z
-x,-y,-z
x,y,1/2-z
-x,y,z
x,-y,1/2+z
1/2+x,1/2+y,z
1/2-x,1/2-y,1/2+z
1/2+x,1/2-y,-z
1/2-x,1/2+y,1/2-z
1/2-x,1/2-y,-z
1/2+x,1/2+y,1/2-z
1/2-x,1/2+y,z
1/2+x,1/2-y,1/2+z
loop_
_atom_site_type_symbol
_atom_site_label
_atom_site_fract_x
_atom_site_fract_y
_atom_site_fract_z
Si Si1 0.084870 0.559933 0.160974
Si Si2 0.914985 0.712163 0.967790
Si Si3 0.500000 0.676594 0.250000
Si Si4 0.195940 0.684624 0.099451
Si Si5 0.374498 0.350060 0.882245
Si Si6 0.693148 0.350687 0.161912
Si Si7 0.911488 0.013249 0.839958
Si Si8 0.365542 0.107140 0.838289
O O1 0.081764 0.560051 0.250000
O O2 0.144681 0.622279 0.138774
O O3 0.111195 0.476633 0.139864
O O4 0.000000 0.573121 0.133496
O O5 0.903525 0.799157 0.949662
O O6 0.906550 0.666148 0.890795
O O7 0.000000 0.700539 0.996438
O O8 0.844491 0.686439 0.018179
O O9 0.567862 0.672755 0.314937
O O10 0.284077 0.666820 0.115787
O O11 0.184847 0.769308 0.127072
O O12 0.383982 0.439173 0.881792
O O13 0.681718 0.341496 0.250000
O O14 0.634887 0.413957 0.137237
O O15 0.777298 0.380194 0.151633
O O16 0.900191 0.001665 0.750000
O O17 0.000000 0.021932 0.850564
O O18 0.382594 0.118095 0.750000
#
# Coordination Sequence:
#
# PCOD9476131 Si02
#       8
#    16  16   4  16  16  16  16  16
#     4  10  22  42  66  96 132 177 232 286 338 402
#     4  12  26  43  66  97 138 185 227 275 341 418
#     4  12  24  40  76 112 132 166 232 304 352 386
#     4  12  26  42  65  94 141 187 221 270 339 428
#     4  12  23  41  68 102 135 168 222 288 348 401
#     4  10  22  38  64  97 131 172 223 274 339 409
#     4  10  19  37  63  97 132 166 217 284 345 396
#     4  10  22  41  67 101 130 168 227 298 348 392
#
# _framework density 9.9451300000000007
#
# number of rings (size 3 to 8) (size 9 to 14) (size 15 to 20)
#    0.000    1.103    3.448    2.483    2.897    3.586 
#    0.000    3.448    0.000    1.655    0.000    0.000 
#    0.000    0.000    0.000    0.000    0.000    0.000 
#
# Total GULP energy -323065.463218 kJ/mol
# GULP energy per Si atom -5570.094193 kJ/mol
# Density = 0.992249 g / cm^3
# Si number density = 9.945130 Si / 1000 Ang^3
#
#
#
# Elastic Constant Matrix: (Units=GPa)
#
#
# Indices 1 2 3 4 5 6 
#
# 1 163.2412 65.9618 40.1300 0.0000 0.0000 0.0000
# 2 65.9618 152.4244 29.9008 0.0000 0.0000 0.0000
# 3 40.1300 29.9008 45.0555 0.0000 0.0000 0.0000
# 4 0.0000 0.0000 0.0000 10.3435 0.0000 0.0000
# 5 0.0000 0.0000 0.0000 0.0000 32.6337 0.0000
# 6 0.0000 0.0000 0.0000 0.0000 0.0000 37.1162
#
#
#
# Elastic Compliance Matrix: (Units=1/GPa)
#
#
# Indices 1 2 3 4 5 6 
#
# 1 0.008633 -0.002561 -0.005990 0.000000 0.000000 0.000000
# 2 -0.002561 0.008302 -0.003229 0.000000 0.000000 0.000000
# 3 -0.005990 -0.003229 0.029673 0.000000 0.000000 0.000000
# 4 0.000000 0.000000 0.000000 0.096679 0.000000 0.000000
# 5 0.000000 0.000000 0.000000 0.000000 0.030643 0.000000
# 6 0.000000 0.000000 0.000000 0.000000 0.000000 0.026942
#
#
# Mechanical properties :
#
#
# Convention : Reuss Voigt Hill
#
# Bulk Modulus (GPa) = 43.38591 70.30071 56.84331
# Shear Modulus (GPa) = 21.54104 31.00058 26.27081
#
# Velocity S-wave (km/s) = 3.29446 3.95217 3.63821
# Velocity P-wave (km/s) = 6.02754 7.49981 6.80362
#
# Compressibility (1/GPa) = 0.02304896
#
# Stress axis : x y z
#
# Youngs Moduli (GPa) = 115.83122 120.44871 33.70114
#
# Poissons Ratio (x) = 0.30847 0.20186
# Poissons Ratio (y) = 0.29665 0.10881
# Poissons Ratio (z) = 0.69381 0.38889
#
# Static dielectric constant tensor:
#      x y z
#    x 1.700770 0.000000 0.000000 
#    y 0.000000 1.700550 0.000000 
#    z 0.000000 0.000000 1.738010 
# 
# From -- ./inp_files/45894.got.cif
#   From: 2010.05.17/outbox.ucp.g08.bks.cvg/sg63_23_cif.got.tgz:45894.got - 2010.06.11 16:32:19.
