data_PCOD9476528
_publ_section_title
;
Structure prediction by ZEFSAII (Michael W. Deem and Ramdas Pophale) SiO2 
 PCOD9476528
Probable space group: C M C A
;
_chemical_formula_sum "Si O2"
_cell_formula_units_Z 96
_cell_length_a 19.626869
_cell_length_b 20.832525
_cell_length_c 11.512378
_cell_angle_alpha 90.000000
_cell_angle_beta 90.000000
_cell_angle_gamma 90.000000
_cell_volume 4707.149332
_symmetry_space_group_name_H-M "C M C A"
_symmetry_group_IT_number 64
_symmetry_cell_setting 'orthorhombic'
loop_
_space_group_symop_operation_xyz
x,y,z
-x,1/2-y,1/2+z
x,-y,-z
-x,1/2+y,1/2-z
-x,-y,-z
x,1/2+y,1/2-z
-x,y,z
x,1/2-y,1/2+z
1/2+x,1/2+y,z
1/2-x,-y,1/2+z
1/2+x,1/2-y,-z
1/2-x,y,1/2-z
1/2-x,1/2-y,-z
1/2+x,y,1/2-z
1/2-x,1/2+y,z
1/2+x,-y,1/2+z
loop_
_atom_site_type_symbol
_atom_site_label
_atom_site_fract_x
_atom_site_fract_y
_atom_site_fract_z
Si Si1 0.867747 0.087215 0.408459
Si Si2 0.707151 0.417350 0.906686
Si Si3 0.341039 0.231701 0.120116
Si Si4 0.685910 0.560813 0.835469
Si Si5 0.324540 0.281169 0.869777
Si Si6 0.579361 0.953657 0.158250
O O1 0.787611 0.076951 0.383903
O O2 0.877698 0.162460 0.388969
O O3 0.882877 0.071912 0.543404
O O4 0.909016 0.031156 0.343258
O O5 0.679614 0.486172 0.871418
O O6 0.671273 0.357613 0.846472
O O7 0.699322 0.404027 0.044068
O O8 0.352633 0.254484 0.254207
O O9 0.257771 0.227485 0.120216
O O10 0.356029 0.264605 0.995437
O O11 0.750000 0.569071 0.750000
O O12 0.617485 0.576748 0.767614
O O13 0.500000 0.939860 0.152132
#
# Coordination Sequence:
#
# PCOD9476528 Si02
#       6
#    16  16  16  16  16  16
#     4  10  17  31  51  76 105 144 180 237 277 332
#     4  10  19  30  52  79 108 140 186 232 281 342
#     4   9  18  30  49  71 111 148 183 226 286 335
#     4  11  18  32  51  79 108 144 182 223 287 341
#     4   9  18  31  45  78 109 147 181 232 283 335
#     4  11  21  32  50  81 114 145 186 231 280 346
#
# _framework density 20.394508999999999
#
# number of rings (size 3 to 8) (size 9 to 14) (size 15 to 20)
#    0.000    2.000    3.333    3.000    2.333    1.333 
#    3.000    1.667    0.000    0.000    0.000   21.000 
#    0.000    0.000    0.000    0.000    0.000    0.000 
#
# Total GULP energy -267498.474529 kJ/mol
# GULP energy per Si atom -5572.884886 kJ/mol
# Density = 2.034809 g / cm^3
# Si number density = 20.394509 Si / 1000 Ang^3
#
#
#
# Elastic Constant Matrix: (Units=GPa)
#
#
# Indices 1 2 3 4 5 6 
#
# 1 25.6185 12.9265 14.1709 0.0000 0.0000 0.0000
# 2 12.9265 43.4487 23.7020 0.0000 0.0000 0.0000
# 3 14.1709 23.7020 129.6111 0.0000 0.0000 0.0000
# 4 0.0000 0.0000 0.0000 21.0380 0.0000 0.0000
# 5 0.0000 0.0000 0.0000 0.0000 -1.4445 0.0000
# 6 0.0000 0.0000 0.0000 0.0000 0.0000 9.7670
#
#
#
# Elastic Compliance Matrix: (Units=1/GPa)
#
#
# Indices 1 2 3 4 5 6 
#
# 1 0.046864 -0.012383 -0.002859 0.000000 0.000000 0.000000
# 2 -0.012383 0.028838 -0.003920 0.000000 0.000000 0.000000
# 3 -0.002859 -0.003920 0.008745 0.000000 0.000000 0.000000
# 4 0.000000 0.000000 0.000000 0.047533 0.000000 0.000000
# 5 0.000000 0.000000 0.000000 0.000000 -0.692269 0.000000
# 6 0.000000 0.000000 0.000000 0.000000 0.000000 0.102386
#
#
# Mechanical properties :
#
#
# Convention : Reuss Voigt Hill
#
# Bulk Modulus (GPa) = 21.68118 33.36414 27.52266
# Shear Modulus (GPa) = -12.36997 15.73067 1.68035
#
# Velocity S-wave (km/s) = -2.46546 2.78028 0.90869
# Velocity P-wave (km/s) = 1.59665 5.16735 3.82431
#
# Compressibility (1/GPa) = 0.04612296
#
# Stress axis : x y z
#
# Youngs Moduli (GPa) = 21.33832 34.67651 114.35336
#
# Poissons Ratio (x) = 0.42939 0.32698
# Poissons Ratio (y) = 0.26423 0.44824
# Poissons Ratio (z) = 0.06101 0.13592
#
# Static dielectric constant tensor:
#      x y z
#    x 1.650810 0.000000 0.000000 
#    y 0.000000 1.787500 0.000000 
#    z 0.000000 0.000000 1.869050 
# 
# From -- ./inp_files/17470.got.cif
#   From: 2010.05.17/outbox.cif.g08.bks.cpg/sg64_9_cif.got.tgz:17470.got - 2010.06.03 16:29:19.
