data_PCOD9476786
_publ_section_title
;
Structure prediction by ZEFSAII (Michael W. Deem and Ramdas Pophale) SiO2 
 PCOD9476786
Probable space group: C M C A
;
_chemical_formula_sum "Si O2"
_cell_formula_units_Z 64
_cell_length_a 18.696709
_cell_length_b 15.717047
_cell_length_c 9.512286
_cell_angle_alpha 90.000000
_cell_angle_beta 90.000000
_cell_angle_gamma 90.000000
_cell_volume 2795.252342
_symmetry_space_group_name_H-M "C M C A"
_symmetry_group_IT_number 64
_symmetry_cell_setting 'orthorhombic'
loop_
_space_group_symop_operation_xyz
x,y,z
-x,1/2-y,1/2+z
x,-y,-z
-x,1/2+y,1/2-z
-x,-y,-z
x,1/2+y,1/2-z
-x,y,z
x,1/2-y,1/2+z
1/2+x,1/2+y,z
1/2-x,-y,1/2+z
1/2+x,1/2-y,-z
1/2-x,y,1/2-z
1/2-x,1/2-y,-z
1/2+x,y,1/2-z
1/2-x,1/2+y,z
1/2+x,-y,1/2+z
loop_
_atom_site_type_symbol
_atom_site_label
_atom_site_fract_x
_atom_site_fract_y
_atom_site_fract_z
Si Si1 0.878409 0.587470 0.454611
Si Si2 0.250000 0.765309 0.250000
Si Si3 0.000000 0.142322 0.825604
Si Si4 0.500000 0.313560 0.552985
Si Si5 0.000000 0.467612 0.763872
Si Si6 0.158080 0.228119 0.517898
O O1 0.840386 0.500000 0.500000
O O2 0.931035 0.561346 0.327927
O O3 0.834276 0.672821 0.431541
O O4 0.931527 0.617417 0.579651
O O5 0.200976 0.818831 0.358677
O O6 0.306143 0.722720 0.363421
O O7 0.000000 0.244185 0.816489
O O8 0.000000 0.068517 0.710615
O O9 0.500000 0.408662 0.603649
O O10 0.575000 0.294445 0.478828
#
# Coordination Sequence:
#
# PCOD9476786 Si02
#       6
#    16   8   8   8   8  16
#     4   8  14  27  48  75 103 135 178 227 276 330
#     4  10  22  36  50  74 116 144 172 232 296 330
#     4   7  14  25  41  76 113 134 175 239 282 312
#     4  10  18  30  57  85 106 151 207 234 270 346
#     4   9  14  25  48  81 111 135 176 241 287 320
#     4  10  20  35  53  79 107 143 185 229 277 338
#
# _framework density 22.895962999999998
#
# number of rings (size 3 to 8) (size 9 to 14) (size 15 to 20)
#    0.000    3.000    0.000    3.750    0.000    1.000 
#    0.000    1.250    0.000    3.000    0.000   75.250 
#    0.000    0.000    0.000    1.125    0.000    3.625 
#
# Total GULP energy -178140.450575 kJ/mol
# GULP energy per Si atom -5566.889080 kJ/mol
# Density = 2.284385 g / cm^3
# Si number density = 22.895963 Si / 1000 Ang^3
#
#
#
# Elastic Constant Matrix: (Units=GPa)
#
#
# Indices 1 2 3 4 5 6 
#
# 1 134.3038 3.0750 47.8764 0.0000 0.0000 0.0000
# 2 3.0750 77.8331 6.1259 0.0000 0.0000 0.0000
# 3 47.8764 6.1259 139.9404 0.0000 0.0000 0.0000
# 4 0.0000 0.0000 0.0000 19.4273 0.0000 0.0000
# 5 0.0000 0.0000 0.0000 0.0000 28.1022 0.0000
# 6 0.0000 0.0000 0.0000 0.0000 0.0000 31.0579
#
#
#
# Elastic Compliance Matrix: (Units=1/GPa)
#
#
# Indices 1 2 3 4 5 6 
#
# 1 0.008481 -0.000107 -0.002897 0.000000 0.000000 0.000000
# 2 -0.000107 0.012894 -0.000528 0.000000 0.000000 0.000000
# 3 -0.002897 -0.000528 0.008160 0.000000 0.000000 0.000000
# 4 0.000000 0.000000 0.000000 0.051474 0.000000 0.000000
# 5 0.000000 0.000000 0.000000 0.000000 0.035584 0.000000
# 6 0.000000 0.000000 0.000000 0.000000 0.000000 0.032198
#
#
# Mechanical properties :
#
#
# Convention : Reuss Voigt Hill
#
# Bulk Modulus (GPa) = 44.50098 51.80355 48.15227
# Shear Modulus (GPa) = 30.61007 35.38414 32.99711
#
# Velocity S-wave (km/s) = 3.66036 3.93546 3.80040
# Velocity P-wave (km/s) = 6.11086 6.58219 6.35090
#
# Compressibility (1/GPa) = 0.02247141
#
# Stress axis : x y z
#
# Youngs Moduli (GPa) = 117.91200 77.55676 122.54821
#
# Poissons Ratio (x) = 0.00830 0.35500
# Poissons Ratio (y) = 0.01262 0.06468
# Poissons Ratio (z) = 0.34157 0.04093
#
# Static dielectric constant tensor:
#      x y z
#    x 1.860280 0.000000 0.000000 
#    y 0.000000 1.879450 0.000000 
#    z 0.000000 0.000000 2.010870 
# 
# From -- ./inp_files/7846.got.cif
#   From: 2010.05.17/outbox.cif.g08.bks.cpg/sg64_4_cif.got.tgz:7846.got - 2010.06.03 16:29:19.
