data_PCOD9476471
_publ_section_title
;
Structure prediction by ZEFSAII (Michael W. Deem and Ramdas Pophale) SiO2 
 PCOD9476471
Probable space group: C M C A
;
_chemical_formula_sum "Si O2"
_cell_formula_units_Z 80
_cell_length_a 17.411127
_cell_length_b 27.198866
_cell_length_c 9.409171
_cell_angle_alpha 90.000000
_cell_angle_beta 90.000000
_cell_angle_gamma 90.000000
_cell_volume 4455.834401
_symmetry_space_group_name_H-M "C M C A"
_symmetry_group_IT_number 64
_symmetry_cell_setting 'orthorhombic'
loop_
_space_group_symop_operation_xyz
x,y,z
-x,1/2-y,1/2+z
x,-y,-z
-x,1/2+y,1/2-z
-x,-y,-z
x,1/2+y,1/2-z
-x,y,z
x,1/2-y,1/2+z
1/2+x,1/2+y,z
1/2-x,-y,1/2+z
1/2+x,1/2-y,-z
1/2-x,y,1/2-z
1/2-x,1/2-y,-z
1/2+x,y,1/2-z
1/2-x,1/2+y,z
1/2+x,-y,1/2+z
loop_
_atom_site_type_symbol
_atom_site_label
_atom_site_fract_x
_atom_site_fract_y
_atom_site_fract_z
Si Si1 0.362464 0.299926 0.530893
Si Si2 0.701925 0.543692 0.390460
Si Si3 0.086175 0.118563 0.266681
Si Si4 0.792972 0.139535 0.021877
Si Si5 0.162336 0.206573 0.787620
O O1 0.412034 0.340286 0.611455
O O2 0.274273 0.320138 0.547440
O O3 0.370071 0.247725 0.607416
O O4 0.378713 0.296893 0.363555
O O5 0.689038 0.500000 0.500000
O O6 0.750000 0.528419 0.250000
O O7 0.625303 0.569936 0.332000
O O8 0.750446 0.587205 0.467884
O O9 0.143171 0.138328 0.144133
O O10 0.000000 0.110256 0.215433
O O11 0.830449 0.155407 0.873049
O O12 0.250000 0.221307 0.750000
#
# Coordination Sequence:
#
# PCOD9476471 Si02
#       5
#    16  16  16  16  16
#     4  10  18  30  50  75 100 133 173 213 251 295
#     4   9  19  34  56  80 100 125 163 209 256 303
#     4  10  20  35  51  71 104 139 170 203 245 297
#     4   9  18  33  52  75  99 130 169 210 253 296
#     4  10  17  28  51  77 101 129 171 217 256 294
#
# _framework density 17.953987999999999
#
# number of rings (size 3 to 8) (size 9 to 14) (size 15 to 20)
#    0.000    2.400    0.000    6.600    0.000    4.400 
#    0.000    5.000    0.000    9.600    0.000    0.000 
#    0.000    0.000    0.000    0.000    0.000    0.000 
#
# Total GULP energy -223046.919107 kJ/mol
# GULP energy per Si atom -5576.172978 kJ/mol
# Density = 1.791312 g / cm^3
# Si number density = 17.953988 Si / 1000 Ang^3
#
#
#
# Elastic Constant Matrix: (Units=GPa)
#
#
# Indices 1 2 3 4 5 6 
#
# 1 68.0242 18.1026 27.2047 0.0000 0.0000 0.0000
# 2 18.1026 56.3539 51.0743 0.0000 0.0000 0.0000
# 3 27.2047 51.0743 122.2212 0.0000 0.0000 0.0000
# 4 0.0000 0.0000 0.0000 44.9357 0.0000 0.0000
# 5 0.0000 0.0000 0.0000 0.0000 6.3964 0.0000
# 6 0.0000 0.0000 0.0000 0.0000 0.0000 -0.4420
#
#
#
# Elastic Compliance Matrix: (Units=1/GPa)
#
#
# Indices 1 2 3 4 5 6 
#
# 1 0.016482 -0.003170 -0.002344 0.000000 0.000000 0.000000
# 2 -0.003170 0.029172 -0.011485 0.000000 0.000000 0.000000
# 3 -0.002344 -0.011485 0.013503 0.000000 0.000000 0.000000
# 4 0.000000 0.000000 0.000000 0.022254 0.000000 0.000000
# 5 0.000000 0.000000 0.000000 0.000000 0.156339 0.000000
# 6 0.000000 0.000000 0.000000 0.000000 0.000000 -2.262476
#
#
# Mechanical properties :
#
#
# Convention : Reuss Voigt Hill
#
# Bulk Modulus (GPa) = 39.74725 48.81804 44.28265
# Shear Modulus (GPa) = -2.52227 20.19254 8.83514
#
# Velocity S-wave (km/s) = -1.18655 3.35727 2.22074
# Velocity P-wave (km/s) = 4.50658 6.50215 5.59407
#
# Compressibility (1/GPa) = 0.02515897
#
# Stress axis : x y z
#
# Youngs Moduli (GPa) = 60.67358 34.27901 74.05760
#
# Poissons Ratio (x) = 0.10867 0.17358
# Poissons Ratio (y) = 0.19235 0.85055
# Poissons Ratio (z) = 0.14221 0.39370
#
# Static dielectric constant tensor:
#      x y z
#    x 1.618880 0.000000 0.000000 
#    y 0.000000 1.603800 0.000000 
#    z 0.000000 0.000000 1.638880 
# 
# From -- ./inp_files/7038.got.cif
#   From: 2010.05.17/outbox.cif.g08.bks.cpg/sg64_4_cif.got.tgz:7038.got - 2010.06.03 16:29:19.
