data_PCOD9476246
_publ_section_title
;
Structure prediction by ZEFSAII (Michael W. Deem and Ramdas Pophale) SiO2 
 PCOD9476246
Probable space group: C M C M
;
_chemical_formula_sum "Si O2"
_cell_formula_units_Z 36
_cell_length_a 18.000000
_cell_length_b 24.000000
_cell_length_c 9.000000
_cell_angle_alpha 90.000000
_cell_angle_beta 90.000000
_cell_angle_gamma 90.000000
_cell_volume 3888.000000
_symmetry_space_group_name_H-M "C M C M"
_symmetry_group_IT_number 63
_symmetry_cell_setting 'orthorhombic'
loop_
_space_group_symop_operation_xyz
x,y,z
-x,-y,1/2+z
x,-y,-z
-x,y,1/2-z
-x,-y,-z
x,y,1/2-z
-x,y,z
x,-y,1/2+z
1/2+x,1/2+y,z
1/2-x,1/2-y,1/2+z
1/2+x,1/2-y,-z
1/2-x,1/2+y,1/2-z
1/2-x,1/2-y,-z
1/2+x,1/2+y,1/2-z
1/2-x,1/2+y,z
1/2+x,1/2-y,1/2+z
loop_
_atom_site_type_symbol
_atom_site_label
_atom_site_fract_x
_atom_site_fract_y
_atom_site_fract_z
Si Si1 0.710490 0.939532 0.571816
Si Si2 0.364317 0.621980 0.426056
Si Si3 0.500000 0.439861 0.074516
Si Si4 0.914061 0.352737 0.570818
Si Si5 0.668957 0.749572 0.073618
O O1 0.708488 0.945566 0.750000
O O2 0.783960 0.903713 0.535639
O O3 0.638381 0.904168 0.525640
O O4 0.713719 0.000000 0.500000
O O5 0.376928 0.611820 0.250000
O O6 0.427659 0.592739 0.519527
O O7 0.363824 0.688039 0.450240
O O8 0.500000 0.445639 0.250000
O O9 0.500000 0.500000 0.000000
O O10 0.908457 0.347348 0.750000
O O11 0.881448 0.297188 0.497726
O O12 0.000000 0.361164 0.531830
O O13 0.676054 0.758436 0.250000
O O14 0.750000 0.750000 0.000000
#
# Coordination Sequence:
#
# PCOD9476246 Si02
#       5
#    16  16   8  16  16
#     4  10  21  39  61  87 117 157 202 248 300 358
#     4  10  22  41  62  87 123 161 201 250 307 362
#     4  12  26  42  62  90 124 162 207 252 305 366
#     4  10  22  41  62  88 125 164 202 249 306 361
#     4  11  22  39  64  91 122 157 199 249 302 362
#
# _framework density 9.2592590000000001
#
# number of rings (size 3 to 8) (size 9 to 14) (size 15 to 20)
#    0.000    1.556    2.222    2.333    1.556    6.222 
#    0.000    0.000    0.000    0.000    0.000    0.000 
#    0.000    0.000    0.000    0.000    0.000    0.000 
#
# Total GULP energy -201196.494026 kJ/mol
# GULP energy per Si atom -5588.791501 kJ/mol
# Density = 0.923818 g / cm^3
# Si number density = 9.259259 Si / 1000 Ang^3
#
#
#
# Elastic Constant Matrix: (Units=GPa)
#
#
# Indices 1 2 3 4 5 6 
#
# 1 86.2699 20.7961 24.2309 0.0000 0.0000 0.0000
# 2 20.7961 88.6593 27.7131 0.0000 0.0000 0.0000
# 3 24.2309 27.7131 22.0539 0.0000 0.0000 0.0000
# 4 0.0000 0.0000 0.0000 37.4863 0.0000 0.0000
# 5 0.0000 0.0000 0.0000 0.0000 18.8893 0.0000
# 6 0.0000 0.0000 0.0000 0.0000 0.0000 2.9967
#
#
#
# Elastic Compliance Matrix: (Units=1/GPa)
#
#
# Indices 1 2 3 4 5 6 
#
# 1 0.017266 0.003096 -0.022861 0.000000 0.000000 0.000000
# 2 0.003096 0.019130 -0.027441 0.000000 0.000000 0.000000
# 3 -0.022861 -0.027441 0.104943 0.000000 0.000000 0.000000
# 4 0.000000 0.000000 0.000000 0.026676 0.000000 0.000000
# 5 0.000000 0.000000 0.000000 0.000000 0.052940 0.000000
# 6 0.000000 0.000000 0.000000 0.000000 0.000000 0.333706
#
#
# Mechanical properties :
#
#
# Convention : Reuss Voigt Hill
#
# Bulk Modulus (GPa) = 21.30919 38.05149 29.68034
# Shear Modulus (GPa) = 7.52200 20.15731 13.83966
#
# Velocity S-wave (km/s) = 2.01760 3.30281 2.73672
# Velocity P-wave (km/s) = 4.11820 5.92766 5.10376
#
# Compressibility (1/GPa) = 0.04692811
#
# Stress axis : x y z
#
# Youngs Moduli (GPa) = 57.91646 52.27280 9.52897
#
# Poissons Ratio (x) = -0.16183 0.21784
# Poissons Ratio (y) = -0.17930 0.26148
# Poissons Ratio (z) = 1.32402 1.43441
#
# Static dielectric constant tensor:
#      x y z
#    x 1.618780 0.000000 0.000000 
#    y 0.000000 1.594400 0.000000 
#    z 0.000000 0.000000 1.620080 
# 
# From -- ./inp_files/6095.got.cif
#   From: 2010.05.17/outbox.ucp.g08.bks.cvg/sg63_4_cif.got.tgz:6095.got - 2010.06.11 16:32:19.
