data_PCOD9476876
_publ_section_title
;
Structure prediction by ZEFSAII (Michael W. Deem and Ramdas Pophale) SiO2 
 PCOD9476876
Probable space group: C M C A
;
_chemical_formula_sum "Si O2"
_cell_formula_units_Z 104
_cell_length_a 9.676299
_cell_length_b 27.418732
_cell_length_c 20.571953
_cell_angle_alpha 90.000000
_cell_angle_beta 90.000000
_cell_angle_gamma 90.000000
_cell_volume 5457.982889
_symmetry_space_group_name_H-M "C M C A"
_symmetry_group_IT_number 64
_symmetry_cell_setting 'orthorhombic'
loop_
_space_group_symop_operation_xyz
x,y,z
-x,1/2-y,1/2+z
x,-y,-z
-x,1/2+y,1/2-z
-x,-y,-z
x,1/2+y,1/2-z
-x,y,z
x,1/2-y,1/2+z
1/2+x,1/2+y,z
1/2-x,-y,1/2+z
1/2+x,1/2-y,-z
1/2-x,y,1/2-z
1/2-x,1/2-y,-z
1/2+x,y,1/2-z
1/2-x,1/2+y,z
1/2+x,-y,1/2+z
loop_
_atom_site_type_symbol
_atom_site_label
_atom_site_fract_x
_atom_site_fract_y
_atom_site_fract_z
Si Si1 0.250000 0.655816 0.750000
Si Si2 0.343726 0.194798 0.955302
Si Si3 0.648083 0.596629 0.630418
Si Si4 0.337530 0.643004 0.057608
Si Si5 0.837326 0.847772 0.686667
Si Si6 0.660147 0.547914 0.965047
Si Si7 0.151597 0.764375 0.151056
O O1 0.328604 0.620625 0.700366
O O2 0.164094 0.692776 0.704394
O O3 0.500000 0.209393 0.973683
O O4 0.354349 0.142886 0.918214
O O5 0.271773 0.228289 0.901306
O O6 0.240882 0.184137 0.014756
O O7 0.500000 0.571597 0.628049
O O8 0.764216 0.562089 0.601345
O O9 0.500000 0.654400 0.069878
O O10 0.247631 0.636388 0.122697
O O11 0.333247 0.593585 0.014635
O O12 0.750000 0.862807 0.750000
O O13 0.838407 0.788544 0.683155
O O14 0.000000 0.862750 0.686986
O O15 0.500000 0.538668 0.950405
O O16 0.718873 0.500000 0.000000
O O17 0.000000 0.768885 0.119585
#
# Coordination Sequence:
#
# PCOD9476876 Si02
#       7
#     8  16  16  16  16  16  16
#     4  10  18  32  52  78 112 148 184 224 266 320
#     4   9  18  32  51  77 108 141 180 226 272 319
#     4   9  18  30  50  81 112 142 177 219 269 322
#     4  10  20  36  58  81 107 139 178 225 277 326
#     4  11  23  38  55  77 107 146 191 229 268 316
#     4   9  19  37  61  85 108 137 174 219 275 336
#     4  10  20  33  51  75 106 147 189 227 266 314
#
# _framework density 19.054658
#
# number of rings (size 3 to 8) (size 9 to 14) (size 15 to 20)
#    0.000    2.308    0.769    1.846    0.000    7.692 
#    0.000    0.000    1.692    0.000    0.000    0.000 
#    0.000    0.000    0.000    0.000    0.000    0.000 
#
# Total GULP energy -289959.627715 kJ/mol
# GULP energy per Si atom -5576.146687 kJ/mol
# Density = 1.901129 g / cm^3
# Si number density = 19.054658 Si / 1000 Ang^3
#
#
#
# Elastic Constant Matrix: (Units=GPa)
#
#
# Indices 1 2 3 4 5 6 
#
# 1 148.0614 16.1104 54.5754 0.0000 0.0000 0.0000
# 2 16.1104 35.0636 6.6995 0.0000 0.0000 0.0000
# 3 54.5754 6.6995 96.6992 0.0000 0.0000 0.0000
# 4 0.0000 0.0000 0.0000 19.9143 0.0000 0.0000
# 5 0.0000 0.0000 0.0000 0.0000 16.0436 0.0000
# 6 0.0000 0.0000 0.0000 0.0000 0.0000 7.8891
#
#
#
# Elastic Compliance Matrix: (Units=1/GPa)
#
#
# Indices 1 2 3 4 5 6 
#
# 1 0.008860 -0.003157 -0.004782 0.000000 0.000000 0.000000
# 2 -0.003157 0.030027 -0.000298 0.000000 0.000000 0.000000
# 3 -0.004782 -0.000298 0.013061 0.000000 0.000000 0.000000
# 4 0.000000 0.000000 0.000000 0.050215 0.000000 0.000000
# 5 0.000000 0.000000 0.000000 0.000000 0.062330 0.000000
# 6 0.000000 0.000000 0.000000 0.000000 0.000000 0.126756
#
#
# Mechanical properties :
#
#
# Convention : Reuss Voigt Hill
#
# Bulk Modulus (GPa) = 28.19030 48.28832 38.23931
# Shear Modulus (GPa) = 15.64705 22.26533 18.95619
#
# Velocity S-wave (km/s) = 2.86871 3.42204 3.15752
# Velocity P-wave (km/s) = 5.07929 6.40397 5.77971
#
# Compressibility (1/GPa) = 0.03547320
#
# Stress axis : x y z
#
# Youngs Moduli (GPa) = 112.86647 33.30312 76.56532
#
# Poissons Ratio (x) = 0.10514 0.36611
# Poissons Ratio (y) = 0.35634 0.02285
# Poissons Ratio (z) = 0.53970 0.00994
#
# Static dielectric constant tensor:
#      x y z
#    x 1.682670 0.000000 0.000000 
#    y 0.000000 1.645680 0.000000 
#    z 0.000000 0.000000 1.662780 
# 
# From -- ./inp_files/37409.got.cif
#   From: 2010.05.17/outbox.cif.g08.bks.cpg/sg64_19_cif.got.tgz:37409.got - 2010.06.03 16:29:19.
