data_PCOD9476137
_publ_section_title
;
Structure prediction by ZEFSAII (Michael W. Deem and Ramdas Pophale) SiO2 
 PCOD9476137
Probable space group: C M C M
;
_chemical_formula_sum "Si O2"
_cell_formula_units_Z 48
_cell_length_a 27.000000
_cell_length_b 21.000000
_cell_length_c 9.000000
_cell_angle_alpha 90.000000
_cell_angle_beta 90.000000
_cell_angle_gamma 90.000000
_cell_volume 5103.000000
_symmetry_space_group_name_H-M "C M C M"
_symmetry_group_IT_number 63
_symmetry_cell_setting 'orthorhombic'
loop_
_space_group_symop_operation_xyz
x,y,z
-x,-y,1/2+z
x,-y,-z
-x,y,1/2-z
-x,-y,-z
x,y,1/2-z
-x,y,z
x,-y,1/2+z
1/2+x,1/2+y,z
1/2-x,1/2-y,1/2+z
1/2+x,1/2-y,-z
1/2-x,1/2+y,1/2-z
1/2-x,1/2-y,-z
1/2+x,1/2+y,1/2-z
1/2-x,1/2+y,z
1/2+x,1/2-y,1/2+z
loop_
_atom_site_type_symbol
_atom_site_label
_atom_site_fract_x
_atom_site_fract_y
_atom_site_fract_z
Si Si1 0.940606 0.300735 0.082221
Si Si2 0.400740 0.562728 0.081593
Si Si3 0.942473 0.561114 0.572839
Si Si4 0.720261 0.435918 0.578771
Si Si5 0.280029 0.306376 0.073023
Si Si6 0.104900 0.187797 0.577447
O O1 0.923769 0.283630 0.250000
O O2 0.920188 0.370173 0.041088
O O3 0.000000 0.305517 0.088999
O O4 0.925131 0.249546 0.964231
O O5 0.416160 0.560869 0.250000
O O6 0.340244 0.563015 0.074888
O O7 0.418232 0.500000 0.000000
O O8 0.416843 0.627657 0.007094
O O9 0.918206 0.500000 0.500000
O O10 0.943532 0.554143 0.750000
O O11 0.000000 0.563394 0.520080
O O12 0.737420 0.500000 0.500000
O O13 0.735032 0.433200 0.750000
O O14 0.737003 0.374027 0.490465
O O15 0.275611 0.304875 0.250000
O O16 0.338080 0.300741 0.032501
O O17 0.250000 0.250000 0.000000
O O18 0.105060 0.172999 0.750000
#
# Coordination Sequence:
#
# PCOD9476137 Si02
#       6
#    16  16  16  16  16  16
#     4   9  18  32  49  70  97 128 160 194 235 284
#     4   9  16  27  45  68  94 123 156 195 236 278
#     4   8  14  25  42  65  91 118 151 191 231 271
#     4   9  16  27  45  69  95 123 156 195 237 280
#     4  10  20  33  49  71  98 127 160 199 242 287
#     4  10  20  32  48  72  99 126 159 198 238 283
#
# _framework density 9.4062319999999993
#
# number of rings (size 3 to 8) (size 9 to 14) (size 15 to 20)
#    0.000    2.833    0.000    3.000    0.000    7.000 
#    0.000    1.667    0.000    1.500    0.000    2.333 
#    0.000    0.000    0.000    0.000    0.000    0.000 
#
# Total GULP energy -267306.480888 kJ/mol
# GULP energy per Si atom -5568.885019 kJ/mol
# Density = 0.938482 g / cm^3
# Si number density = 9.406232 Si / 1000 Ang^3
#
#
#
# Elastic Constant Matrix: (Units=GPa)
#
#
# Indices 1 2 3 4 5 6 
#
# 1 -4.2240 13.3963 11.4203 0.0000 0.0000 0.0000
# 2 13.3963 110.3904 31.9533 0.0000 0.0000 0.0000
# 3 11.4203 31.9533 4.1044 0.0000 0.0000 0.0000
# 4 0.0000 0.0000 0.0000 35.0638 0.0000 0.0000
# 5 0.0000 0.0000 0.0000 0.0000 14.0255 0.0000
# 6 0.0000 0.0000 0.0000 0.0000 0.0000 -1.2467
#
#
#
# Elastic Compliance Matrix: (Units=1/GPa)
#
#
# Indices 1 2 3 4 5 6 
#
# 1 0.191999 -0.104778 0.281485 0.000000 0.000000 0.000000
# 2 -0.104778 0.049953 -0.097350 0.000000 0.000000 0.000000
# 3 0.281485 -0.097350 0.218307 0.000000 0.000000 0.000000
# 4 0.000000 0.000000 0.000000 0.028519 0.000000 0.000000
# 5 0.000000 0.000000 0.000000 0.000000 0.071299 0.000000
# 6 0.000000 0.000000 0.000000 0.000000 0.000000 -0.802116
#
#
# Mechanical properties :
#
#
# Convention : Reuss Voigt Hill
#
# Bulk Modulus (GPa) = 1.61558 24.86785 13.24171
# Shear Modulus (GPa) = -25.71624 13.13525 -6.29050
#
# Velocity S-wave (km/s) = -3.70128 2.64525 -1.83059
# Velocity P-wave (km/s) = 4.17197 4.75156 1.60811
#
# Compressibility (1/GPa) = 0.61897399
#
# Stress axis : x y z
#
# Youngs Moduli (GPa) = 5.20835 20.01897 4.58071
#
# Poissons Ratio (x) = 2.09755 -1.28940
# Poissons Ratio (y) = 0.54572 0.44593
# Poissons Ratio (z) = -1.46607 1.94884
#
# Static dielectric constant tensor:
#      x y z
#    x 1.666190 0.000000 0.000000 
#    y 0.000000 1.670740 0.000000 
#    z 0.000000 0.000000 1.631280 
# 
# From -- ./inp_files/12392.got.cif
#   From: 2010.05.17/outbox.ucp.g08.bks.cvg/sg63_7_cif.got.tgz:12392.got - 2010.06.11 16:32:19.
