data_PCOD9476615
_publ_section_title
;
Structure prediction by ZEFSAII (Michael W. Deem and Ramdas Pophale) SiO2 
 PCOD9476615
Probable space group: C M C A
;
_chemical_formula_sum "Si O2"
_cell_formula_units_Z 64
_cell_length_a 17.535620
_cell_length_b 13.973335
_cell_length_c 14.110919
_cell_angle_alpha 90.000000
_cell_angle_beta 90.000000
_cell_angle_gamma 90.000000
_cell_volume 3457.613901
_symmetry_space_group_name_H-M "C M C A"
_symmetry_group_IT_number 64
_symmetry_cell_setting 'orthorhombic'
loop_
_space_group_symop_operation_xyz
x,y,z
-x,1/2-y,1/2+z
x,-y,-z
-x,1/2+y,1/2-z
-x,-y,-z
x,1/2+y,1/2-z
-x,y,z
x,1/2-y,1/2+z
1/2+x,1/2+y,z
1/2-x,-y,1/2+z
1/2+x,1/2-y,-z
1/2-x,y,1/2-z
1/2-x,1/2-y,-z
1/2+x,y,1/2-z
1/2-x,1/2+y,z
1/2+x,-y,1/2+z
loop_
_atom_site_type_symbol
_atom_site_label
_atom_site_fract_x
_atom_site_fract_y
_atom_site_fract_z
Si Si1 0.500000 0.929937 0.378293
Si Si2 0.000000 0.730127 0.473167
Si Si3 0.250000 0.631789 0.750000
Si Si4 0.166068 0.987983 0.888240
Si Si5 0.368834 0.212950 0.322211
Si Si6 0.500000 0.779621 0.818952
O O1 0.500000 0.876851 0.481049
O O2 0.500000 0.836967 0.309909
O O3 0.422798 0.988006 0.367462
O O4 0.925825 0.740421 0.408155
O O5 0.000000 0.794789 0.567957
O O6 0.215496 0.563905 0.669284
O O7 0.315197 0.700582 0.708233
O O8 0.178615 0.879569 0.854620
O O9 0.178545 0.000000 0.000000
O O10 0.424686 0.185984 0.234714
#
# Coordination Sequence:
#
# PCOD9476615 Si02
#       6
#     8   8   8  16  16   8
#     4  10  17  40  67  86 118 152 212 258 279 360
#     4   9  18  38  65  92 115 160 206 256 305 351
#     4  12  26  42  56  94 134 158 200 254 314 368
#     4  12  23  42  66  91 119 167 212 249 297 370
#     4  11  22  39  65  90 122 164 204 252 307 360
#     4   9  18  39  62  92 121 152 205 262 297 352
#
# _framework density 18.509875999999998
#
# number of rings (size 3 to 8) (size 9 to 14) (size 15 to 20)
#    0.750    0.500    5.000    2.625    0.000    1.000 
#    4.500    0.000    0.000    1.500    0.000    0.000 
#    0.000    0.000    0.000    0.000    0.000    0.000 
#
# Total GULP energy -178617.338061 kJ/mol
# GULP energy per Si atom -5581.791814 kJ/mol
# Density = 1.846775 g / cm^3
# Si number density = 18.509876 Si / 1000 Ang^3
#
#
#
# Elastic Constant Matrix: (Units=GPa)
#
#
# Indices 1 2 3 4 5 6 
#
# 1 88.9547 40.9701 44.9655 0.0000 0.0000 0.0000
# 2 40.9701 103.1399 62.3352 0.0000 0.0000 0.0000
# 3 44.9655 62.3352 111.6333 0.0000 0.0000 0.0000
# 4 0.0000 0.0000 0.0000 35.3780 0.0000 0.0000
# 5 0.0000 0.0000 0.0000 0.0000 14.4617 0.0000
# 6 0.0000 0.0000 0.0000 0.0000 0.0000 0.4345
#
#
#
# Elastic Compliance Matrix: (Units=1/GPa)
#
#
# Indices 1 2 3 4 5 6 
#
# 1 0.014890 -0.003456 -0.004068 0.000000 0.000000 0.000000
# 2 -0.003456 0.015437 -0.007228 0.000000 0.000000 0.000000
# 3 -0.004068 -0.007228 0.014632 0.000000 0.000000 0.000000
# 4 0.000000 0.000000 0.000000 0.028266 0.000000 0.000000
# 5 0.000000 0.000000 0.000000 0.000000 0.069148 0.000000
# 6 0.000000 0.000000 0.000000 0.000000 0.000000 2.301342
#
#
# Mechanical properties :
#
#
# Convention : Reuss Voigt Hill
#
# Bulk Modulus (GPa) = 64.70110 66.69662 65.69886
# Shear Modulus (GPa) = 2.01746 20.41866 11.21806
#
# Velocity S-wave (km/s) = 1.04513 3.32493 2.46449
# Velocity P-wave (km/s) = 6.04046 7.13102 6.60828
#
# Compressibility (1/GPa) = 0.01545569
#
# Stress axis : x y z
#
# Youngs Moduli (GPa) = 67.16085 64.78097 68.34289
#
# Poissons Ratio (x) = 0.22390 0.27799
# Poissons Ratio (y) = 0.23212 0.49395
# Poissons Ratio (z) = 0.27318 0.46821
#
# Static dielectric constant tensor:
#      x y z
#    x 1.621770 0.000000 0.000000 
#    y 0.000000 1.648660 0.000000 
#    z 0.000000 0.000000 1.634730 
# 
# From -- ./inp_files/24955.got.cif
#   From: 2010.05.17/outbox.cif.g08.bks.cpg/sg64_13_cif.got.tgz:24955.got - 2010.06.03 16:29:19.
