data_PCOD9476533
_publ_section_title
;
Structure prediction by ZEFSAII (Michael W. Deem and Ramdas Pophale) SiO2 
 PCOD9476533
Probable space group: C M C A
;
_chemical_formula_sum "Si O2"
_cell_formula_units_Z 112
_cell_length_a 15.203207
_cell_length_b 20.226726
_cell_length_c 19.306390
_cell_angle_alpha 90.000000
_cell_angle_beta 90.000000
_cell_angle_gamma 90.000000
_cell_volume 5936.929271
_symmetry_space_group_name_H-M "C M C A"
_symmetry_group_IT_number 64
_symmetry_cell_setting 'orthorhombic'
loop_
_space_group_symop_operation_xyz
x,y,z
-x,1/2-y,1/2+z
x,-y,-z
-x,1/2+y,1/2-z
-x,-y,-z
x,1/2+y,1/2-z
-x,y,z
x,1/2-y,1/2+z
1/2+x,1/2+y,z
1/2-x,-y,1/2+z
1/2+x,1/2-y,-z
1/2-x,y,1/2-z
1/2-x,1/2-y,-z
1/2+x,y,1/2-z
1/2-x,1/2+y,z
1/2+x,-y,1/2+z
loop_
_atom_site_type_symbol
_atom_site_label
_atom_site_fract_x
_atom_site_fract_y
_atom_site_fract_z
Si Si1 0.599116 0.305822 0.013149
Si Si2 0.857533 0.869919 0.756108
Si Si3 0.848402 0.983960 0.218733
Si Si4 0.106258 0.949804 0.063355
Si Si5 0.870404 0.737214 0.151726
Si Si6 0.643355 0.344592 0.263178
Si Si7 0.161135 0.262561 0.632632
O O1 0.500000 0.320620 0.989763
O O2 0.647113 0.275600 0.947498
O O3 0.635382 0.375702 0.041770
O O4 0.596913 0.254468 0.076098
O O5 0.750000 0.871325 0.750000
O O6 0.893231 0.831253 0.689111
O O7 0.877291 0.822963 0.821791
O O8 0.888865 0.944431 0.766095
O O9 0.750000 0.987275 0.250000
O O10 0.850646 0.971197 0.136028
O O11 0.889463 0.918905 0.254048
O O12 0.000000 0.949030 0.074179
O O13 0.124652 0.000000 0.000000
O O14 0.894204 0.797045 0.203406
O O15 0.764885 0.737627 0.146780
O O16 0.750000 0.346604 0.250000
O O17 0.627035 0.306220 0.334877
#
# Coordination Sequence:
#
# PCOD9476533 Si02
#       7
#    16  16  16  16  16  16  16
#     4  11  21  32  47  72 102 131 166 208 250 299
#     4   8  16  29  51  75  99 121 161 208 247 290
#     4  10  17  31  54  78 105 132 171 216 252 299
#     4  10  21  35  51  76 112 142 166 208 273 330
#     4   9  16  32  49  71  95 130 163 202 250 297
#     4   8  15  28  50  72  97 122 164 205 247 293
#     4   9  17  31  50  72  96 132 164 202 251 304
#
# _framework density 18.864971000000001
#
# number of rings (size 3 to 8) (size 9 to 14) (size 15 to 20)
#    0.000    2.714    1.429    3.000    0.000    0.000 
#    0.000    4.286    0.000    0.000    0.000    1.000 
#    0.000    0.000    0.000    0.000    0.000    0.000 
#
# Total GULP energy -312144.022901 kJ/mol
# GULP energy per Si atom -5574.000409 kJ/mol
# Density = 1.882203 g / cm^3
# Si number density = 18.864971 Si / 1000 Ang^3
#
#
#
# Elastic Constant Matrix: (Units=GPa)
#
#
# Indices 1 2 3 4 5 6 
#
# 1 36.5953 12.5289 18.5591 0.0000 0.0000 0.0000
# 2 12.5289 179.0335 81.4112 0.0000 0.0000 0.0000
# 3 18.5591 81.4112 148.5353 0.0000 0.0000 0.0000
# 4 0.0000 0.0000 0.0000 26.3825 0.0000 0.0000
# 5 0.0000 0.0000 0.0000 0.0000 -269.1700 0.0000
# 6 0.0000 0.0000 0.0000 0.0000 0.0000 -2.0239
#
#
#
# Elastic Compliance Matrix: (Units=1/GPa)
#
#
# Indices 1 2 3 4 5 6 
#
# 1 0.029210 -0.000512 -0.003369 0.000000 0.000000 0.000000
# 2 -0.000512 0.007449 -0.004019 0.000000 0.000000 0.000000
# 3 -0.003369 -0.004019 0.009356 0.000000 0.000000 0.000000
# 4 0.000000 0.000000 0.000000 0.037904 0.000000 0.000000
# 5 0.000000 0.000000 0.000000 0.000000 -0.003715 0.000000
# 6 0.000000 0.000000 0.000000 0.000000 0.000000 -0.494095
#
#
# Mechanical properties :
#
#
# Convention : Reuss Voigt Hill
#
# Bulk Modulus (GPa) = 33.09620 65.46251 49.27936
# Shear Modulus (GPa) = -12.88591 -32.18462 -22.53527
#
# Velocity S-wave (km/s) = -2.61638 -4.13492 -3.45998
# Velocity P-wave (km/s) = 2.90768 3.46109 3.19638
#
# Compressibility (1/GPa) = 0.03021495
#
# Stress axis : x y z
#
# Youngs Moduli (GPa) = 34.23511 134.25052 106.88413
#
# Poissons Ratio (x) = 0.06876 0.36009
# Poissons Ratio (y) = 0.01753 0.42953
# Poissons Ratio (z) = 0.11534 0.53950
#
# Static dielectric constant tensor:
#      x y z
#    x 1.691580 0.000000 0.000000 
#    y 0.000000 1.682950 0.000000 
#    z 0.000000 0.000000 1.630980 
# 
# From -- ./inp_files/33596.got.cif
#   From: 2010.05.17/outbox.cif.g08.bks.cpg/sg64_17_cif.got.tgz:33596.got - 2010.06.03 16:29:19.
