data_PCOD9476307
_publ_section_title
;
Structure prediction by ZEFSAII (Michael W. Deem and Ramdas Pophale) SiO2 
 PCOD9476307
Probable space group: C M C A
;
_chemical_formula_sum "Si O2"
_cell_formula_units_Z 56
_cell_length_a 14.415961
_cell_length_b 30.262737
_cell_length_c 5.095226
_cell_angle_alpha 90.000000
_cell_angle_beta 90.000000
_cell_angle_gamma 90.000000
_cell_volume 2222.876089
_symmetry_space_group_name_H-M "C M C A"
_symmetry_group_IT_number 64
_symmetry_cell_setting 'orthorhombic'
loop_
_space_group_symop_operation_xyz
x,y,z
-x,1/2-y,1/2+z
x,-y,-z
-x,1/2+y,1/2-z
-x,-y,-z
x,1/2+y,1/2-z
-x,y,z
x,1/2-y,1/2+z
1/2+x,1/2+y,z
1/2-x,-y,1/2+z
1/2+x,1/2-y,-z
1/2-x,y,1/2-z
1/2-x,1/2-y,-z
1/2+x,y,1/2-z
1/2-x,1/2+y,z
1/2+x,-y,1/2+z
loop_
_atom_site_type_symbol
_atom_site_label
_atom_site_fract_x
_atom_site_fract_y
_atom_site_fract_z
Si Si1 0.362186 0.910370 0.723056
Si Si2 0.639196 0.136699 0.777650
Si Si3 0.390352 0.729339 0.437029
Si Si4 0.683925 0.000000 0.500000
O O1 0.250000 0.907350 0.750000
O O2 0.395519 0.874151 0.513103
O O3 0.375302 0.958643 0.601469
O O4 0.395045 0.899803 0.014135
O O5 0.750000 0.134002 0.750000
O O6 0.618899 0.183216 0.913432
O O7 0.500000 0.737024 0.396643
O O8 0.350996 0.734736 0.144295
O O9 0.750000 0.012815 0.750000
#
# Coordination Sequence:
#
# PCOD9476307 Si02
#       4
#    16  16  16   8
#     4   9  17  28  44  70 100 128 156 192 235 280
#     4  10  19  31  48  72  99 124 156 198 241 282
#     4  10  21  36  52  70  93 124 163 201 238 287
#     4  10  16  26  44  68 101 134 159 188 234 282
#
# _framework density 25.192588000000001
#
# number of rings (size 3 to 8) (size 9 to 14) (size 15 to 20)
#    0.000    2.286    0.000    6.000    0.000    1.143 
#    0.000    0.000    0.000    0.000    0.000    6.000 
#    0.000    0.000    0.000   17.571    0.000    0.000 
#
# Total GULP energy -156460.052084 kJ/mol
# GULP energy per Si atom -5587.859003 kJ/mol
# Density = 2.513525 g / cm^3
# Si number density = 25.192588 Si / 1000 Ang^3
#
#
#
# Elastic Constant Matrix: (Units=GPa)
#
#
# Indices 1 2 3 4 5 6 
#
# 1 84.4010 -26.9489 -4.1677 0.0000 0.0000 0.0000
# 2 -26.9489 93.9776 18.1505 0.0000 0.0000 0.0000
# 3 -4.1677 18.1505 144.5987 0.0000 0.0000 0.0000
# 4 0.0000 0.0000 0.0000 46.0723 0.0000 0.0000
# 5 0.0000 0.0000 0.0000 0.0000 -15.4903 0.0000
# 6 0.0000 0.0000 0.0000 0.0000 0.0000 -15.4572
#
#
#
# Elastic Compliance Matrix: (Units=1/GPa)
#
#
# Indices 1 2 3 4 5 6 
#
# 1 0.013044 0.003759 -0.000096 0.000000 0.000000 0.000000
# 2 0.003759 0.011988 -0.001396 0.000000 0.000000 0.000000
# 3 -0.000096 -0.001396 0.007088 0.000000 0.000000 0.000000
# 4 0.000000 0.000000 0.000000 0.021705 0.000000 0.000000
# 5 0.000000 0.000000 0.000000 0.000000 -0.064557 0.000000
# 6 0.000000 0.000000 0.000000 0.000000 0.000000 -0.064695
#
#
# Mechanical properties :
#
#
# Convention : Reuss Voigt Hill
#
# Bulk Modulus (GPa) = 27.28258 33.00500 30.14379
# Shear Modulus (GPa) = -73.81021 25.42118 -24.19451
#
# Velocity S-wave (km/s) = -5.41867 3.18004 -3.10237
# Velocity P-wave (km/s) = 5.31942 5.15878 0.91738
#
# Compressibility (1/GPa) = 0.03665343
#
# Stress axis : x y z
#
# Youngs Moduli (GPa) = 76.66551 83.41362 141.07912
#
# Poissons Ratio (x) = -0.31354 0.01353
# Poissons Ratio (y) = -0.28818 0.19702
# Poissons Ratio (z) = 0.00735 0.11649
#
# Static dielectric constant tensor:
#      x y z
#    x 2.032010 0.000000 0.000000 
#    y 0.000000 2.036380 0.000000 
#    z 0.000000 0.000000 1.998170 
# 
# From -- ./inp_files/1220.got.cif
#   From: 2010.05.17/outbox.cif.g08.bks.cpg/sg64_1_cif.got.tgz:1220.got - 2010.06.03 16:29:19.
