data_PCOD9476017
_publ_section_title
;
Structure prediction by ZEFSAII (Michael W. Deem and Ramdas Pophale) SiO2 
 PCOD9476017
Probable space group: C M C M
;
_chemical_formula_sum "Si O2"
_cell_formula_units_Z 96
_cell_length_a 7.411108
_cell_length_b 28.989985
_cell_length_c 22.917339
_cell_angle_alpha 90.000000
_cell_angle_beta 90.000000
_cell_angle_gamma 90.000000
_cell_volume 4923.742381
_symmetry_space_group_name_H-M "C M C M"
_symmetry_group_IT_number 63
_symmetry_cell_setting 'orthorhombic'
loop_
_space_group_symop_operation_xyz
x,y,z
-x,-y,1/2+z
x,-y,-z
-x,y,1/2-z
-x,-y,-z
x,y,1/2-z
-x,y,z
x,-y,1/2+z
1/2+x,1/2+y,z
1/2-x,1/2-y,1/2+z
1/2+x,1/2-y,-z
1/2-x,1/2+y,1/2-z
1/2-x,1/2-y,-z
1/2+x,1/2+y,1/2-z
1/2-x,1/2+y,z
1/2+x,1/2-y,1/2+z
loop_
_atom_site_type_symbol
_atom_site_label
_atom_site_fract_x
_atom_site_fract_y
_atom_site_fract_z
Si Si1 0.279050 0.377282 0.750000
Si Si2 0.293561 0.139067 0.560960
Si Si3 0.720039 0.269582 0.750000
Si Si4 0.217307 0.806909 0.554358
Si Si5 0.778740 0.721883 0.870591
Si Si6 0.716449 0.397343 0.624034
Si Si7 0.288357 0.051097 0.493502
O O1 0.500000 0.377058 0.750000
O O2 0.224513 0.323292 0.750000
O O3 0.219767 0.401637 0.809709
O O4 0.500000 0.128751 0.577362
O O5 0.295044 0.173756 0.505521
O O6 0.215400 0.170609 0.612495
O O7 0.211716 0.091819 0.535090
O O8 0.500000 0.270388 0.750000
O O9 0.776074 0.242664 0.691582
O O10 0.278212 0.758135 0.579312
O O11 0.261711 0.845795 0.602384
O O12 0.000000 0.805935 0.547977
O O13 0.000000 0.721470 0.871125
O O14 0.500000 0.400624 0.624345
O O15 0.778248 0.431443 0.573172
O O16 0.500000 0.048184 0.508432
O O17 0.210409 0.000000 0.500000
#
# Coordination Sequence:
#
# PCOD9476017 Si02
#       7
#     8  16   8  16  16  16  16
#     4   9  14  24  41  64  93 117 133 161 207 256
#     4   9  17  27  40  60  82 106 139 176 209 245
#     4   9  14  22  38  60  87 117 139 161 203 252
#     4   9  15  24  39  61  86 110 133 160 201 250
#     4   9  15  23  37  59  85 110 136 166 201 244
#     4   9  16  26  44  68  89 109 138 172 208 255
#     4   9  18  32  46  59  82 116 147 180 227 265
#
# _framework density 19.497364999999999
#
# number of rings (size 3 to 8) (size 9 to 14) (size 15 to 20)
#    0.000    3.000    1.667    0.500    0.000    0.333 
#    0.000    0.417    0.000    1.000    0.000    5.833 
#    0.000    0.000    0.000    0.000    0.000    0.000 
#
# Total GULP energy -267550.442016 kJ/mol
# GULP energy per Si atom -5573.967542 kJ/mol
# Density = 1.945299 g / cm^3
# Si number density = 19.497365 Si / 1000 Ang^3
#
#
#
# Elastic Constant Matrix: (Units=GPa)
#
#
# Indices 1 2 3 4 5 6 
#
# 1 59.0388 6.2744 -1.7042 0.0000 0.0000 0.0000
# 2 6.2744 153.5133 52.1958 0.0000 0.0000 0.0000
# 3 -1.7042 52.1958 44.0490 0.0000 0.0000 0.0000
# 4 0.0000 0.0000 0.0000 13.2347 0.0000 0.0000
# 5 0.0000 0.0000 0.0000 0.0000 26.4914 0.0000
# 6 0.0000 0.0000 0.0000 0.0000 0.0000 -163.8483
#
#
#
# Elastic Compliance Matrix: (Units=1/GPa)
#
#
# Indices 1 2 3 4 5 6 
#
# 1 0.017176 -0.001554 0.002506 0.000000 0.000000 0.000000
# 2 -0.001554 0.011050 -0.013154 0.000000 0.000000 0.000000
# 3 0.002506 -0.013154 0.038386 0.000000 0.000000 0.000000
# 4 0.000000 0.000000 0.000000 0.075559 0.000000 0.000000
# 5 0.000000 0.000000 0.000000 0.000000 0.037748 0.000000
# 6 0.000000 0.000000 0.000000 0.000000 0.000000 -0.006103
#
#
# Mechanical properties :
#
#
# Convention : Reuss Voigt Hill
#
# Bulk Modulus (GPa) = 23.69257 41.12589 32.40923
# Shear Modulus (GPa) = 23.55288 -11.50210 6.02539
#
# Velocity S-wave (km/s) = 3.47940 -2.43148 1.75985
# Velocity P-wave (km/s) = 5.32163 3.64088 4.55937
#
# Compressibility (1/GPa) = 0.04220733
#
# Stress axis : x y z
#
# Youngs Moduli (GPa) = 58.22241 90.49739 26.05140
#
# Poissons Ratio (x) = 0.14064 -0.06528
# Poissons Ratio (y) = 0.09048 0.34268
# Poissons Ratio (z) = -0.14590 1.19039
#
# Static dielectric constant tensor:
#      x y z
#    x 1.763480 0.000000 0.000000 
#    y 0.000000 1.688910 0.000000 
#    z 0.000000 0.000000 1.693030 
# 
# From -- ./inp_files/60334.got.cif
#   From: 2010.05.17/outbox.cif.g08.bks.cpg/sg63_31_cif.got.tgz:60334.got - 2010.06.03 15:47:04.
