data_PCOD9476584
_publ_section_title
;
Structure prediction by ZEFSAII (Michael W. Deem and Ramdas Pophale) SiO2 
 PCOD9476584
Probable space group: C M C A
;
_chemical_formula_sum "Si O2"
_cell_formula_units_Z 112
_cell_length_a 13.734617
_cell_length_b 29.601121
_cell_length_c 10.688758
_cell_angle_alpha 90.000000
_cell_angle_beta 90.000000
_cell_angle_gamma 90.000000
_cell_volume 4345.622091
_symmetry_space_group_name_H-M "C M C A"
_symmetry_group_IT_number 64
_symmetry_cell_setting 'orthorhombic'
loop_
_space_group_symop_operation_xyz
x,y,z
-x,1/2-y,1/2+z
x,-y,-z
-x,1/2+y,1/2-z
-x,-y,-z
x,1/2+y,1/2-z
-x,y,z
x,1/2-y,1/2+z
1/2+x,1/2+y,z
1/2-x,-y,1/2+z
1/2+x,1/2-y,-z
1/2-x,y,1/2-z
1/2-x,1/2-y,-z
1/2+x,y,1/2-z
1/2-x,1/2+y,z
1/2+x,-y,1/2+z
loop_
_atom_site_type_symbol
_atom_site_label
_atom_site_fract_x
_atom_site_fract_y
_atom_site_fract_z
Si Si1 0.618384 0.198113 0.159004
Si Si2 0.250157 0.134351 0.479062
Si Si3 0.647608 0.579912 0.688740
Si Si4 0.825842 0.042297 0.083424
Si Si5 0.607967 0.668011 0.829929
Si Si6 0.383727 0.739163 0.612221
Si Si7 0.896499 0.478520 0.849965
O O1 0.500000 0.190700 0.156502
O O2 0.684352 0.154519 0.130649
O O3 0.643002 0.228777 0.033454
O O4 0.644477 0.219656 0.294248
O O5 0.172458 0.110298 0.570127
O O6 0.327443 0.094726 0.451459
O O7 0.313515 0.169831 0.559959
O O8 0.750000 0.565318 0.750000
O O9 0.603875 0.615818 0.785056
O O10 0.599956 0.532947 0.655570
O O11 0.884724 0.037814 0.209427
O O12 0.708796 0.034438 0.096110
O O13 0.859603 0.000000 0.000000
O O14 0.500000 0.682972 0.869631
O O15 0.635809 0.697079 0.707457
O O16 0.500000 0.742363 0.605405
O O17 0.000000 0.461543 0.901127
#
# Coordination Sequence:
#
# PCOD9476584 Si02
#       7
#    16  16  16  16  16  16  16
#     4  10  21  39  63  96 133 172 218 275 339 405
#     4  11  22  36  63  91 125 168 213 270 332 389
#     4  10  17  34  58  88 124 157 203 268 319 375
#     4  11  22  42  59  88 132 164 212 279 325 385
#     4  10  20  35  58  92 125 159 211 265 318 385
#     4   9  19  37  62  93 132 169 212 272 330 396
#     4  11  23  39  62  89 124 171 215 262 331 402
#
# _framework density 25.773063
#
# number of rings (size 3 to 8) (size 9 to 14) (size 15 to 20)
#    0.000    1.714    4.286    1.286    0.000    2.857 
#    0.000    2.857    0.000    1.714    0.000    0.000 
#    0.000    0.000    0.000    0.000    0.000    0.000 
#
# Total GULP energy -312807.664997 kJ/mol
# GULP energy per Si atom -5585.851161 kJ/mol
# Density = 2.571440 g / cm^3
# Si number density = 25.773063 Si / 1000 Ang^3
#
#
#
# Elastic Constant Matrix: (Units=GPa)
#
#
# Indices 1 2 3 4 5 6 
#
# 1 103.2785 6.5674 17.9900 0.0000 0.0000 0.0000
# 2 6.5674 73.8431 26.4944 0.0000 0.0000 0.0000
# 3 17.9900 26.4944 132.5052 0.0000 0.0000 0.0000
# 4 0.0000 0.0000 0.0000 36.1620 0.0000 0.0000
# 5 0.0000 0.0000 0.0000 0.0000 19.4219 0.0000
# 6 0.0000 0.0000 0.0000 0.0000 0.0000 -20.2591
#
#
#
# Elastic Compliance Matrix: (Units=1/GPa)
#
#
# Indices 1 2 3 4 5 6 
#
# 1 0.009930 -0.000430 -0.001262 0.000000 0.000000 0.000000
# 2 -0.000430 0.014607 -0.002862 0.000000 0.000000 0.000000
# 3 -0.001262 -0.002862 0.008291 0.000000 0.000000 0.000000
# 4 0.000000 0.000000 0.000000 0.027653 0.000000 0.000000
# 5 0.000000 0.000000 0.000000 0.000000 0.051488 0.000000
# 6 0.000000 0.000000 0.000000 0.000000 0.000000 -0.049360
#
#
# Mechanical properties :
#
#
# Convention : Reuss Voigt Hill
#
# Bulk Modulus (GPa) = 42.16153 45.74784 43.95468
# Shear Modulus (GPa) = 62.79471 24.30328 43.54899
#
# Velocity S-wave (km/s) = 4.94139 3.07412 4.11507
# Velocity P-wave (km/s) = 6.99648 5.51263 6.29840
#
# Compressibility (1/GPa) = 0.02371831
#
# Stress axis : x y z
#
# Youngs Moduli (GPa) = 100.70731 68.45809 120.61921
#
# Poissons Ratio (x) = 0.02946 0.15224
# Poissons Ratio (y) = 0.04333 0.34525
# Poissons Ratio (z) = 0.12710 0.19595
#
# Static dielectric constant tensor:
#      x y z
#    x 2.033880 0.000000 0.000000 
#    y 0.000000 2.149780 0.000000 
#    z 0.000000 0.000000 2.045240 
# 
# From -- ./inp_files/14994.got.cif
#   From: 2010.05.17/outbox.cif.g08.bks.cpg/sg64_8_cif.got.tgz:14994.got - 2010.06.03 16:29:19.
