data_PCOD9476219
_publ_section_title
;
Structure prediction by ZEFSAII (Michael W. Deem and Ramdas Pophale) SiO2 
 PCOD9476219
Probable space group: C M C M
;
_chemical_formula_sum "Si O2"
_cell_formula_units_Z 36
_cell_length_a 15.000000
_cell_length_b 27.000000
_cell_length_c 9.000000
_cell_angle_alpha 90.000000
_cell_angle_beta 90.000000
_cell_angle_gamma 90.000000
_cell_volume 3645.000000
_symmetry_space_group_name_H-M "C M C M"
_symmetry_group_IT_number 63
_symmetry_cell_setting 'orthorhombic'
loop_
_space_group_symop_operation_xyz
x,y,z
-x,-y,1/2+z
x,-y,-z
-x,y,1/2-z
-x,-y,-z
x,y,1/2-z
-x,y,z
x,-y,1/2+z
1/2+x,1/2+y,z
1/2-x,1/2-y,1/2+z
1/2+x,1/2-y,-z
1/2-x,1/2+y,1/2-z
1/2-x,1/2-y,-z
1/2+x,1/2+y,1/2-z
1/2-x,1/2+y,z
1/2+x,1/2-y,1/2+z
loop_
_atom_site_type_symbol
_atom_site_label
_atom_site_fract_x
_atom_site_fract_y
_atom_site_fract_z
Si Si1 0.500000 0.255640 0.429230
Si Si2 0.000000 0.554746 0.428854
Si Si3 0.142982 0.051466 0.926493
Si Si4 0.687706 0.208149 0.429664
Si Si5 0.826112 0.602514 0.927980
Si Si6 0.500000 0.368582 0.431228
O O1 0.500000 0.259272 0.250000
O O2 0.587768 0.225525 0.468910
O O3 0.500000 0.312204 0.486522
O O4 0.000000 0.500000 0.500000
O O5 0.086377 0.583629 0.488594
O O6 0.000000 0.552073 0.250000
O O7 0.129652 0.046935 0.750000
O O8 0.246016 0.063968 0.953876
O O9 0.084760 0.098542 0.976681
O O10 0.116380 0.000000 0.000000
O O11 0.696971 0.205811 0.250000
O O12 0.750000 0.250000 0.500000
O O13 0.703108 0.155192 0.504918
O O14 0.840407 0.606496 0.750000
O O15 0.500000 0.365973 0.250000
#
# Coordination Sequence:
#
# PCOD9476219 Si02
#       6
#     8   8  16  16  16   8
#     4   9  19  36  58  81 111 152 195 234 287 354
#     4  12  25  42  63  89 120 158 201 250 307 366
#     4  10  21  36  58  84 113 149 189 234 288 345
#     4  11  22  38  61  89 120 158 200 247 300 358
#     4  11  23  40  61  87 118 157 201 247 298 356
#     4   9  17  34  57  82 112 148 187 230 279 340
#
# _framework density 9.8765429999999999
#
# number of rings (size 3 to 8) (size 9 to 14) (size 15 to 20)
#    0.000    1.556    0.000    5.333    0.000    8.000 
#    0.000    1.667    0.000    2.667    0.000    0.000 
#    0.000    0.000    0.000    0.000    0.000    0.000 
#
# Total GULP energy -201187.480471 kJ/mol
# GULP energy per Si atom -5588.541124 kJ/mol
# Density = 0.985406 g / cm^3
# Si number density = 9.876543 Si / 1000 Ang^3
#
#
#
# Elastic Constant Matrix: (Units=GPa)
#
#
# Indices 1 2 3 4 5 6 
#
# 1 74.4266 -4.2485 29.5961 0.0000 0.0000 0.0000
# 2 -4.2485 98.8159 22.7845 0.0000 0.0000 0.0000
# 3 29.5961 22.7845 71.4481 0.0000 0.0000 0.0000
# 4 0.0000 0.0000 0.0000 39.1615 0.0000 0.0000
# 5 0.0000 0.0000 0.0000 0.0000 12.8580 0.0000
# 6 0.0000 0.0000 0.0000 0.0000 0.0000 35.3946
#
#
#
# Elastic Compliance Matrix: (Units=1/GPa)
#
#
# Indices 1 2 3 4 5 6 
#
# 1 0.016633 0.002487 -0.007683 0.000000 0.000000 0.000000
# 2 0.002487 0.011295 -0.004632 0.000000 0.000000 0.000000
# 3 -0.007683 -0.004632 0.018656 0.000000 0.000000 0.000000
# 4 0.000000 0.000000 0.000000 0.025535 0.000000 0.000000
# 5 0.000000 0.000000 0.000000 0.000000 0.077772 0.000000
# 6 0.000000 0.000000 0.000000 0.000000 0.000000 0.028253
#
#
# Mechanical properties :
#
#
# Convention : Reuss Voigt Hill
#
# Bulk Modulus (GPa) = 37.13709 37.88385 37.51047
# Shear Modulus (GPa) = 24.18068 30.58671 27.38370
#
# Velocity S-wave (km/s) = 3.50258 3.93931 3.72734
# Velocity P-wave (km/s) = 5.93286 6.31753 6.12822
#
# Compressibility (1/GPa) = 0.02692726
#
# Stress axis : x y z
#
# Youngs Moduli (GPa) = 60.12075 88.53682 53.60258
#
# Poissons Ratio (x) = -0.22016 0.41183
# Poissons Ratio (y) = -0.14950 0.24828
# Poissons Ratio (z) = 0.46191 0.41009
#
# Static dielectric constant tensor:
#      x y z
#    x 1.712350 0.000000 0.000000 
#    y 0.000000 1.661160 0.000000 
#    z 0.000000 0.000000 1.655050 
# 
# From -- ./inp_files/4696.got.cif
#   From: 2010.05.17/outbox.ucp.g08.bks.cvg/sg63_3_cif.got.tgz:4696.got - 2010.06.11 16:32:19.
