data_PCOD9476968
_publ_section_title
;
Structure prediction by ZEFSAII (Michael W. Deem and Ramdas Pophale) SiO2 
 PCOD9476968
Probable space group: C M C A
;
_chemical_formula_sum "Si O2"
_cell_formula_units_Z 96
_cell_length_a 31.183608
_cell_length_b 16.542334
_cell_length_c 7.551282
_cell_angle_alpha 90.000000
_cell_angle_beta 90.000000
_cell_angle_gamma 90.000000
_cell_volume 3895.326244
_symmetry_space_group_name_H-M "C M C A"
_symmetry_group_IT_number 64
_symmetry_cell_setting 'orthorhombic'
loop_
_space_group_symop_operation_xyz
x,y,z
-x,1/2-y,1/2+z
x,-y,-z
-x,1/2+y,1/2-z
-x,-y,-z
x,1/2+y,1/2-z
-x,y,z
x,1/2-y,1/2+z
1/2+x,1/2+y,z
1/2-x,-y,1/2+z
1/2+x,1/2-y,-z
1/2-x,y,1/2-z
1/2-x,1/2-y,-z
1/2+x,y,1/2-z
1/2-x,1/2+y,z
1/2+x,-y,1/2+z
loop_
_atom_site_type_symbol
_atom_site_label
_atom_site_fract_x
_atom_site_fract_y
_atom_site_fract_z
Si Si1 0.404764 0.669464 0.112201
Si Si2 0.270605 0.662283 0.486652
Si Si3 0.000000 0.336238 0.587287
Si Si4 0.315662 0.601278 0.134072
Si Si5 0.326925 0.944817 0.164598
Si Si6 0.500000 0.644616 0.507919
Si Si7 0.408898 0.359348 0.467122
O O1 0.450850 0.640541 0.028587
O O2 0.358304 0.638888 0.045417
O O3 0.404597 0.644094 0.319470
O O4 0.404682 0.766777 0.097936
O O5 0.250000 0.750000 0.500000
O O6 0.302503 0.651221 0.316462
O O7 0.229348 0.605873 0.464245
O O8 0.297629 0.634306 0.655835
O O9 0.000000 0.239431 0.559980
O O10 0.000000 0.356140 0.795484
O O11 0.325710 0.509510 0.183339
O O12 0.374009 0.915332 0.119588
O O13 0.311063 0.000000 0.000000
O O14 0.456170 0.608918 0.576887
#
# Coordination Sequence:
#
# PCOD9476968 Si02
#       7
#    16  16   8  16  16   8  16
#     4  10  18  33  56  82 114 144 195 230 287 333
#     4  10  20  37  58  79 104 146 196 237 282 339
#     4   8  16  28  49  80 111 146 177 239 276 334
#     4  10  21  35  57  81 111 147 184 234 292 346
#     4  10  19  37  56  75 117 146 177 233 296 335
#     4   8  16  28  48  81 112 139 193 225 284 326
#     4  10  18  33  56  82 111 153 184 241 277 338
#
# _framework density 24.644919000000002
#
# number of rings (size 3 to 8) (size 9 to 14) (size 15 to 20)
#    0.000    2.333    3.333    1.000    0.000    0.000 
#    0.000   19.583    0.000    0.000    0.000    0.000 
#    0.000   13.333    0.000    0.000    0.000    0.000 
#
# Total GULP energy -268209.747289 kJ/mol
# GULP energy per Si atom -5587.703069 kJ/mol
# Density = 2.458883 g / cm^3
# Si number density = 24.644919 Si / 1000 Ang^3
#
#
#
# Elastic Constant Matrix: (Units=GPa)
#
#
# Indices 1 2 3 4 5 6 
#
# 1 236.8950 45.3293 -8.1401 0.0000 0.0000 0.0000
# 2 45.3293 73.6358 -4.5131 0.0000 0.0000 0.0000
# 3 -8.1401 -4.5131 59.4791 0.0000 0.0000 0.0000
# 4 0.0000 0.0000 0.0000 18.2277 0.0000 0.0000
# 5 0.0000 0.0000 0.0000 0.0000 12.2677 0.0000
# 6 0.0000 0.0000 0.0000 0.0000 0.0000 24.6773
#
#
#
# Elastic Compliance Matrix: (Units=1/GPa)
#
#
# Indices 1 2 3 4 5 6 
#
# 1 0.004796 -0.002926 0.000434 0.000000 0.000000 0.000000
# 2 -0.002926 0.015429 0.000770 0.000000 0.000000 0.000000
# 3 0.000434 0.000770 0.016931 0.000000 0.000000 0.000000
# 4 0.000000 0.000000 0.000000 0.054861 0.000000 0.000000
# 5 0.000000 0.000000 0.000000 0.000000 0.081515 0.000000
# 6 0.000000 0.000000 0.000000 0.000000 0.000000 0.040523
#
#
# Mechanical properties :
#
#
# Convention : Reuss Voigt Hill
#
# Bulk Modulus (GPa) = 29.66222 48.37358 39.01790
# Shear Modulus (GPa) = 21.85943 33.52348 27.69145
#
# Velocity S-wave (km/s) = 2.98144 3.69217 3.35568
# Velocity P-wave (km/s) = 4.89019 6.15199 5.55702
#
# Compressibility (1/GPa) = 0.03371291
#
# Stress axis : x y z
#
# Youngs Moduli (GPa) = 208.50527 64.81462 59.06496
#
# Poissons Ratio (x) = 0.18963 -0.02566
# Poissons Ratio (y) = 0.61004 -0.04550
# Poissons Ratio (z) = -0.09057 -0.04992
#
# Static dielectric constant tensor:
#      x y z
#    x 1.974410 0.000000 0.000000 
#    y 0.000000 1.915160 0.000000 
#    z 0.000000 0.000000 2.128520 
# 
# From -- ./inp_files/19180.got.cif
#   From: 2010.05.17/outbox.cif.g08.bks.cpg/sg64_10_cif.got.tgz:19180.got - 2010.06.03 16:29:19.
