data_PCOD9476055
_publ_section_title
;
Structure prediction by ZEFSAII (Michael W. Deem and Ramdas Pophale) SiO2 
 PCOD9476055
Probable space group: C M C M
;
_chemical_formula_sum "Si O2"
_cell_formula_units_Z 36
_cell_length_a 15.000000
_cell_length_b 30.000000
_cell_length_c 9.000000
_cell_angle_alpha 90.000000
_cell_angle_beta 90.000000
_cell_angle_gamma 90.000000
_cell_volume 4050.000000
_symmetry_space_group_name_H-M "C M C M"
_symmetry_group_IT_number 63
_symmetry_cell_setting 'orthorhombic'
loop_
_space_group_symop_operation_xyz
x,y,z
-x,-y,1/2+z
x,-y,-z
-x,y,1/2-z
-x,-y,-z
x,y,1/2-z
-x,y,z
x,-y,1/2+z
1/2+x,1/2+y,z
1/2-x,1/2-y,1/2+z
1/2+x,1/2-y,-z
1/2-x,1/2+y,1/2-z
1/2-x,1/2-y,-z
1/2+x,1/2+y,1/2-z
1/2-x,1/2+y,z
1/2+x,1/2-y,1/2+z
loop_
_atom_site_type_symbol
_atom_site_label
_atom_site_fract_x
_atom_site_fract_y
_atom_site_fract_z
Si Si1 0.318512 0.217027 0.574304
Si Si2 0.816389 0.388220 0.426823
Si Si3 0.500000 0.549493 0.572109
Si Si4 0.500000 0.110571 0.420096
Si Si5 0.823773 0.048750 0.426808
Si Si6 0.500000 0.781934 0.916735
O O1 0.318206 0.222152 0.750000
O O2 0.250000 0.250000 0.500000
O O3 0.301977 0.164502 0.543688
O O4 0.413156 0.230049 0.506973
O O5 0.805064 0.395901 0.250000
O O6 0.753557 0.418370 0.526527
O O7 0.914418 0.400670 0.482918
O O8 0.500000 0.500000 0.500000
O O9 0.500000 0.547670 0.750000
O O10 0.411069 0.569516 0.504752
O O11 0.500000 0.093076 0.250000
O O12 0.500000 0.164294 0.407128
O O13 0.834924 0.043942 0.250000
O O14 0.808891 0.000000 0.500000
O O15 0.500000 0.763768 0.750000
#
# Coordination Sequence:
#
# PCOD9476055 Si02
#       6
#    16  16   8   8  16   8
#     4  10  20  34  54  78 106 137 173 214 258 306
#     4  10  20  35  54  78 106 138 173 213 258 306
#     4  10  18  32  53  76 103 136 173 211 252 306
#     4   9  17  31  52  77 102 135 174 211 252 306
#     4  11  21  35  55  79 106 137 173 214 257 306
#     4   9  17  31  52  75 102 135 174 212 252 306
#
# _framework density 8.8888890000000007
#
# number of rings (size 3 to 8) (size 9 to 14) (size 15 to 20)
#    0.000    2.000    0.000    6.333    0.000    5.333 
#    0.000    1.667    0.000    6.667    0.000    0.000 
#    0.000    0.000    0.000    0.000    0.000    0.000 
#
# Total GULP energy -200596.602966 kJ/mol
# GULP energy per Si atom -5572.127860 kJ/mol
# Density = 0.886866 g / cm^3
# Si number density = 8.888889 Si / 1000 Ang^3
#
#
#
# Elastic Constant Matrix: (Units=GPa)
#
#
# Indices 1 2 3 4 5 6 
#
# 1 144.2812 54.7515 64.5330 0.0000 0.0000 0.0000
# 2 54.7515 38.8782 54.5952 0.0000 0.0000 0.0000
# 3 64.5330 54.5952 152.9242 0.0000 0.0000 0.0000
# 4 0.0000 0.0000 0.0000 25.6669 0.0000 0.0000
# 5 0.0000 0.0000 0.0000 0.0000 28.6296 0.0000
# 6 0.0000 0.0000 0.0000 0.0000 0.0000 1.3266
#
#
#
# Elastic Compliance Matrix: (Units=1/GPa)
#
#
# Indices 1 2 3 4 5 6 
#
# 1 0.015343 -0.025098 0.002485 0.000000 0.000000 0.000000
# 2 -0.025098 0.092634 -0.022480 0.000000 0.000000 0.000000
# 3 0.002485 -0.022480 0.013516 0.000000 0.000000 0.000000
# 4 0.000000 0.000000 0.000000 0.038961 0.000000 0.000000
# 5 0.000000 0.000000 0.000000 0.000000 0.034929 0.000000
# 6 0.000000 0.000000 0.000000 0.000000 0.000000 0.753835
#
#
# Mechanical properties :
#
#
# Convention : Reuss Voigt Hill
#
# Bulk Modulus (GPa) = 31.94034 75.98256 53.96145
# Shear Modulus (GPa) = 4.76263 21.93819 13.35041
#
# Velocity S-wave (km/s) = 1.63854 3.51668 2.74334
# Velocity P-wave (km/s) = 4.64598 7.70210 6.36033
#
# Compressibility (1/GPa) = 0.03130837
#
# Stress axis : x y z
#
# Youngs Moduli (GPa) = 65.17457 10.79514 73.98682
#
# Poissons Ratio (x) = 0.27094 -0.18388
# Poissons Ratio (y) = 1.63575 1.66322
# Poissons Ratio (z) = -0.16198 0.24267
#
# Static dielectric constant tensor:
#      x y z
#    x 1.960810 0.000000 0.000000 
#    y 0.000000 1.617710 0.000000 
#    z 0.000000 0.000000 1.587060 
# 
# From -- ./inp_files/4991.got.cif
#   From: 2010.05.17/outbox.ucp.g08.bks.cvg/sg63_3_cif.got.tgz:4991.got - 2010.06.11 16:32:19.
