data_PCOD9476522
_publ_section_title
;
Structure prediction by ZEFSAII (Michael W. Deem and Ramdas Pophale) SiO2 
 PCOD9476522
Probable space group: C M C A
;
_chemical_formula_sum "Si O2"
_cell_formula_units_Z 88
_cell_length_a 15.569438
_cell_length_b 17.927547
_cell_length_c 17.187106
_cell_angle_alpha 90.000000
_cell_angle_beta 90.000000
_cell_angle_gamma 90.000000
_cell_volume 4797.296505
_symmetry_space_group_name_H-M "C M C A"
_symmetry_group_IT_number 64
_symmetry_cell_setting 'orthorhombic'
loop_
_space_group_symop_operation_xyz
x,y,z
-x,1/2-y,1/2+z
x,-y,-z
-x,1/2+y,1/2-z
-x,-y,-z
x,1/2+y,1/2-z
-x,y,z
x,1/2-y,1/2+z
1/2+x,1/2+y,z
1/2-x,-y,1/2+z
1/2+x,1/2-y,-z
1/2-x,y,1/2-z
1/2-x,1/2-y,-z
1/2+x,y,1/2-z
1/2-x,1/2+y,z
1/2+x,-y,1/2+z
loop_
_atom_site_type_symbol
_atom_site_label
_atom_site_fract_x
_atom_site_fract_y
_atom_site_fract_z
Si Si1 0.500000 0.375888 0.154634
Si Si2 0.500000 0.836304 0.526395
Si Si3 0.103493 0.423695 0.952845
Si Si4 0.097592 0.301467 0.071972
Si Si5 0.650989 0.865179 0.228337
Si Si6 0.000000 0.054550 0.170644
Si Si7 0.345784 0.039938 0.216450
O O1 0.416058 0.348629 0.202379
O O2 0.500000 0.465844 0.156400
O O3 0.500000 0.354388 0.064397
O O4 0.418538 0.782587 0.544751
O O5 0.500000 0.902540 0.588744
O O6 0.145208 0.424410 0.868193
O O7 0.000000 0.419137 0.941429
O O8 0.121239 0.500000 0.000000
O O9 0.134164 0.354406 0.005162
O O10 0.139957 0.311940 0.154680
O O11 0.000000 0.331489 0.085007
O O12 0.750000 0.862156 0.250000
O O13 0.632971 0.951621 0.205223
O O14 0.084117 0.071187 0.222852
O O15 0.250000 0.046244 0.250000
#
# Coordination Sequence:
#
# PCOD9476522 Si02
#       7
#     8   8  16  16  16   8  16
#     4  10  20  39  63  80 110 151 200 239 287 352
#     4  10  22  40  56  84 112 161 198 233 291 351
#     4  10  17  30  60  86 112 145 188 238 288 328
#     4   9  19  36  58  82 117 147 185 242 287 336
#     4  10  19  36  61  88 114 151 188 235 292 346
#     4  10  21  39  61  75 117 159 191 247 287 342
#     4  10  20  35  58  93 118 144 193 240 290 344
#
# _framework density 18.343665000000001
#
# number of rings (size 3 to 8) (size 9 to 14) (size 15 to 20)
#    0.545    1.636    3.636    0.273    0.000    0.000 
#    9.818    1.818    0.000    0.000    0.000    0.000 
#    0.000    0.000    0.000    0.000    0.000    0.000 
#
# Total GULP energy -245188.481814 kJ/mol
# GULP energy per Si atom -5572.465496 kJ/mol
# Density = 1.830191 g / cm^3
# Si number density = 18.343665 Si / 1000 Ang^3
#
#
#
# Elastic Constant Matrix: (Units=GPa)
#
#
# Indices 1 2 3 4 5 6 
#
# 1 63.4681 22.1660 45.4375 0.0000 0.0000 0.0000
# 2 22.1660 43.6184 53.1696 0.0000 0.0000 0.0000
# 3 45.4375 53.1696 176.4977 0.0000 0.0000 0.0000
# 4 0.0000 0.0000 0.0000 25.4411 0.0000 0.0000
# 5 0.0000 0.0000 0.0000 0.0000 18.1570 0.0000
# 6 0.0000 0.0000 0.0000 0.0000 0.0000 6.1086
#
#
#
# Elastic Compliance Matrix: (Units=1/GPa)
#
#
# Indices 1 2 3 4 5 6 
#
# 1 0.020339 -0.006247 -0.003354 0.000000 0.000000 0.000000
# 2 -0.006247 0.038149 -0.009884 0.000000 0.000000 0.000000
# 3 -0.003354 -0.009884 0.009507 0.000000 0.000000 0.000000
# 4 0.000000 0.000000 0.000000 0.039307 0.000000 0.000000
# 5 0.000000 0.000000 0.000000 0.000000 0.055075 0.000000
# 6 0.000000 0.000000 0.000000 0.000000 0.000000 0.163703
#
#
# Mechanical properties :
#
#
# Convention : Reuss Voigt Hill
#
# Bulk Modulus (GPa) = 34.45415 58.34783 46.40099
# Shear Modulus (GPa) = 13.34310 20.79542 17.06926
#
# Velocity S-wave (km/s) = 2.69995 3.37063 3.05376
# Velocity P-wave (km/s) = 5.34257 6.85751 6.14689
#
# Compressibility (1/GPa) = 0.02902408
#
# Stress axis : x y z
#
# Youngs Moduli (GPa) = 49.16654 26.21282 105.18763
#
# Poissons Ratio (x) = 0.16376 0.35281
# Poissons Ratio (y) = 0.30716 1.03968
# Poissons Ratio (z) = 0.16491 0.25909
#
# Static dielectric constant tensor:
#      x y z
#    x 1.650180 0.000000 0.000000 
#    y 0.000000 1.643650 0.000000 
#    z 0.000000 0.000000 1.616550 
# 
# From -- ./inp_files/23796.got.cif
#   From: 2010.05.17/outbox.cif.g08.bks.cpg/sg64_12_cif.got.tgz:23796.got - 2010.06.03 16:29:19.
