data_PCOD9476837
_publ_section_title
;
Structure prediction by ZEFSAII (Michael W. Deem and Ramdas Pophale) SiO2 
 PCOD9476837
Probable space group: C M C A
;
_chemical_formula_sum "Si O2"
_cell_formula_units_Z 112
_cell_length_a 15.921763
_cell_length_b 20.898644
_cell_length_c 17.915558
_cell_angle_alpha 90.000000
_cell_angle_beta 90.000000
_cell_angle_gamma 90.000000
_cell_volume 5961.281116
_symmetry_space_group_name_H-M "C M C A"
_symmetry_group_IT_number 64
_symmetry_cell_setting 'orthorhombic'
loop_
_space_group_symop_operation_xyz
x,y,z
-x,1/2-y,1/2+z
x,-y,-z
-x,1/2+y,1/2-z
-x,-y,-z
x,1/2+y,1/2-z
-x,y,z
x,1/2-y,1/2+z
1/2+x,1/2+y,z
1/2-x,-y,1/2+z
1/2+x,1/2-y,-z
1/2-x,y,1/2-z
1/2-x,1/2-y,-z
1/2+x,y,1/2-z
1/2-x,1/2+y,z
1/2+x,-y,1/2+z
loop_
_atom_site_type_symbol
_atom_site_label
_atom_site_fract_x
_atom_site_fract_y
_atom_site_fract_z
Si Si1 0.406940 0.002478 0.910874
Si Si2 0.845400 0.799614 0.280514
Si Si3 0.407528 0.675126 0.293314
Si Si4 0.295276 0.373350 0.416041
Si Si5 0.667763 0.920177 0.303260
Si Si6 0.790491 0.380006 0.907553
Si Si7 0.834582 0.065123 0.198807
O O1 0.500000 0.001547 0.877047
O O2 0.351244 0.941156 0.892869
O O3 0.355396 0.066519 0.896383
O O4 0.415697 0.000000 0.000000
O O5 0.750000 0.791155 0.250000
O O6 0.895430 0.737246 0.257810
O O7 0.833293 0.815345 0.367768
O O8 0.881045 0.862820 0.237839
O O9 0.500000 0.674439 0.328405
O O10 0.333832 0.673318 0.355531
O O11 0.395871 0.613278 0.240794
O O12 0.205387 0.393370 0.380916
O O13 0.291587 0.364724 0.504755
O O14 0.750000 0.926803 0.250000
O O15 0.634002 0.992249 0.310007
O O16 0.700195 0.402544 0.877102
O O17 0.750000 0.063926 0.250000
#
# Coordination Sequence:
#
# PCOD9476837 Si02
#       7
#    16  16  16  16  16  16  16
#     4   9  16  25  41  75 116 138 155 200 271 334
#     4   9  19  36  54  73 105 143 185 224 260 321
#     4  11  23  37  50  72 108 150 186 225 272 324
#     4   9  17  30  54  81 105 133 175 221 274 325
#     4   8  15  30  52  78 102 134 172 216 259 321
#     4  10  18  31  54  81 105 133 174 225 278 318
#     4   9  17  31  54  76 104 136 175 222 266 324
#
# _framework density 18.787908000000002
#
# number of rings (size 3 to 8) (size 9 to 14) (size 15 to 20)
#    0.000    3.000    1.429    1.714    2.000    1.143 
#    0.000    7.143    0.000    0.000    0.000    2.000 
#    0.000    0.000    0.000    0.000    0.000    0.000 
#
# Total GULP energy -311846.734716 kJ/mol
# GULP energy per Si atom -5568.691691 kJ/mol
# Density = 1.874515 g / cm^3
# Si number density = 18.787908 Si / 1000 Ang^3
#
#
#
# Elastic Constant Matrix: (Units=GPa)
#
#
# Indices 1 2 3 4 5 6 
#
# 1 18.1831 6.4218 10.8886 0.0000 0.0000 0.0000
# 2 6.4218 94.3418 43.2440 0.0000 0.0000 0.0000
# 3 10.8886 43.2440 120.1642 0.0000 0.0000 0.0000
# 4 0.0000 0.0000 0.0000 24.2052 0.0000 0.0000
# 5 0.0000 0.0000 0.0000 0.0000 10.8557 0.0000
# 6 0.0000 0.0000 0.0000 0.0000 0.0000 -65.7654
#
#
#
# Elastic Compliance Matrix: (Units=1/GPa)
#
#
# Indices 1 2 3 4 5 6 
#
# 1 0.058422 -0.001856 -0.004626 0.000000 0.000000 0.000000
# 2 -0.001856 0.012753 -0.004421 0.000000 0.000000 0.000000
# 3 -0.004626 -0.004421 0.010332 0.000000 0.000000 0.000000
# 4 0.000000 0.000000 0.000000 0.041313 0.000000 0.000000
# 5 0.000000 0.000000 0.000000 0.000000 0.092117 0.000000
# 6 0.000000 0.000000 0.000000 0.000000 0.000000 -0.015206
#
#
# Mechanical properties :
#
#
# Convention : Reuss Voigt Hill
#
# Bulk Modulus (GPa) = 16.75043 39.31089 28.03066
# Shear Modulus (GPa) = 20.70922 5.33475 13.02199
#
# Velocity S-wave (km/s) = 3.32364 1.68690 2.63554
# Velocity P-wave (km/s) = 4.86453 4.97625 4.92071
#
# Compressibility (1/GPa) = 0.05969995
#
# Stress axis : x y z
#
# Youngs Moduli (GPa) = 17.11692 78.41501 96.78521
#
# Poissons Ratio (x) = 0.14557 0.44771
# Poissons Ratio (y) = 0.03178 0.42790
# Poissons Ratio (z) = 0.07918 0.34668
#
# Static dielectric constant tensor:
#      x y z
#    x 1.675320 0.000000 0.000000 
#    y 0.000000 1.717230 0.000000 
#    z 0.000000 0.000000 1.675200 
# 
# From -- ./inp_files/33568.got.cif
#   From: 2010.05.17/outbox.cif.g08.bks.cpg/sg64_17_cif.got.tgz:33568.got - 2010.06.03 16:29:19.
