data_PCOD9476157
_publ_section_title
;
Structure prediction by ZEFSAII (Michael W. Deem and Ramdas Pophale) SiO2 
 PCOD9476157
Probable space group: C M C M
;
_chemical_formula_sum "Si O2"
_cell_formula_units_Z 48
_cell_length_a 9.000000
_cell_length_b 21.000000
_cell_length_c 27.000000
_cell_angle_alpha 90.000000
_cell_angle_beta 90.000000
_cell_angle_gamma 90.000000
_cell_volume 5103.000000
_symmetry_space_group_name_H-M "C M C M"
_symmetry_group_IT_number 63
_symmetry_cell_setting 'orthorhombic'
loop_
_space_group_symop_operation_xyz
x,y,z
-x,-y,1/2+z
x,-y,-z
-x,y,1/2-z
-x,-y,-z
x,y,1/2-z
-x,y,z
x,-y,1/2+z
1/2+x,1/2+y,z
1/2-x,1/2-y,1/2+z
1/2+x,1/2-y,-z
1/2-x,1/2+y,1/2-z
1/2-x,1/2-y,-z
1/2+x,1/2+y,1/2-z
1/2-x,1/2+y,z
1/2+x,1/2-y,1/2+z
loop_
_atom_site_type_symbol
_atom_site_label
_atom_site_fract_x
_atom_site_fract_y
_atom_site_fract_z
Si Si1 0.823779 0.191922 0.527835
Si Si2 0.665824 0.447195 0.690550
Si Si3 0.177034 0.191740 0.855247
Si Si4 0.825025 0.436049 0.354701
Si Si5 0.671577 0.177551 0.190478
Si Si6 0.321618 0.062283 0.970135
O O1 0.750000 0.250000 0.500000
O O2 0.789729 0.196751 0.586421
O O3 0.756251 0.125349 0.510084
O O4 0.000000 0.192790 0.521774
O O5 0.661174 0.443966 0.750000
O O6 0.500000 0.459503 0.671983
O O7 0.773005 0.503216 0.674944
O O8 0.729759 0.380448 0.672099
O O9 0.249003 0.127745 0.835402
O O10 0.228710 0.255188 0.828456
O O11 0.000000 0.187253 0.849198
O O12 0.781663 0.444825 0.412333
O O13 0.000000 0.428493 0.352719
O O14 0.671386 0.177513 0.250000
O O15 0.500000 0.169294 0.174120
O O16 0.500000 0.069723 0.973461
O O17 0.277848 0.000000 0.000000
#
# Coordination Sequence:
#
# PCOD9476157 Si02
#       6
#    16  16  16  16  16  16
#     4  10  20  34  52  74 103 136 171 211 252 300
#     4  10  21  36  53  74 103 137 170 207 252 301
#     4   9  19  35  53  75 104 136 168 206 255 307
#     4  10  20  34  54  78 103 133 170 212 254 299
#     4   9  18  34  55  76  99 129 166 206 248 298
#     4   9  19  36  55  75 102 135 170 209 255 306
#
# _framework density 9.4062319999999993
#
# number of rings (size 3 to 8) (size 9 to 14) (size 15 to 20)
#    0.000    2.500    0.000    1.500    0.000    5.333 
#    0.000    8.333    0.000    0.000    0.000    0.000 
#    0.000    0.000    0.000    0.000    0.000    0.000 
#
# Total GULP energy -267686.763701 kJ/mol
# GULP energy per Si atom -5576.807577 kJ/mol
# Density = 0.938482 g / cm^3
# Si number density = 9.406232 Si / 1000 Ang^3
#
#
#
# Elastic Constant Matrix: (Units=GPa)
#
#
# Indices 1 2 3 4 5 6 
#
# 1 -26.4970 9.8217 18.9490 0.0000 0.0000 0.0000
# 2 9.8217 114.7203 25.1448 0.0000 0.0000 0.0000
# 3 18.9490 25.1448 -2.7505 0.0000 0.0000 0.0000
# 4 0.0000 0.0000 0.0000 29.8650 0.0000 0.0000
# 5 0.0000 0.0000 0.0000 0.0000 18.5427 0.0000
# 6 0.0000 0.0000 0.0000 0.0000 0.0000 34.7422
#
#
#
# Elastic Compliance Matrix: (Units=1/GPa)
#
#
# Indices 1 2 3 4 5 6 
#
# 1 0.146866 -0.078017 0.298578 0.000000 0.000000 0.000000
# 2 -0.078017 0.044346 -0.132079 0.000000 0.000000 0.000000
# 3 0.298578 -0.132079 0.485970 0.000000 0.000000 0.000000
# 4 0.000000 0.000000 0.000000 0.033484 0.000000 0.000000
# 5 0.000000 0.000000 0.000000 0.000000 0.053930 0.000000
# 6 0.000000 0.000000 0.000000 0.000000 0.000000 0.028783
#
#
# Mechanical properties :
#
#
# Convention : Reuss Voigt Hill
#
# Bulk Modulus (GPa) = 1.17076 21.47821 11.32449
# Shear Modulus (GPa) = 5.54859 18.73379 12.14119
#
# Velocity S-wave (km/s) = 1.71925 3.15908 2.54319
# Velocity P-wave (km/s) = 2.13653 4.97476 3.82838
#
# Compressibility (1/GPa) = 0.85414603
#
# Stress axis : x y z
#
# Youngs Moduli (GPa) = 6.80892 22.55007 2.05774
#
# Poissons Ratio (x) = 1.75929 -0.61440
# Poissons Ratio (y) = 0.53121 0.27178
# Poissons Ratio (z) = -2.03300 2.97839
#
# Static dielectric constant tensor:
#      x y z
#    x 1.636410 0.000000 0.000000 
#    y 0.000000 1.651520 0.000000 
#    z 0.000000 0.000000 1.645580 
# 
# From -- ./inp_files/66998.got.cif
#   From: 2010.05.17/outbox.ucp.g08.bks.cvg/sg63_34_cif.got.tgz:66998.got - 2010.06.11 16:32:19.
