data_PCOD9476971
_publ_section_title
;
Structure prediction by ZEFSAII (Michael W. Deem and Ramdas Pophale) SiO2 
 PCOD9476971
Probable space group: C M C A
;
_chemical_formula_sum "Si O2"
_cell_formula_units_Z 96
_cell_length_a 22.871538
_cell_length_b 28.943327
_cell_length_c 7.654771
_cell_angle_alpha 90.000000
_cell_angle_beta 90.000000
_cell_angle_gamma 90.000000
_cell_volume 5067.293084
_symmetry_space_group_name_H-M "C M C A"
_symmetry_group_IT_number 64
_symmetry_cell_setting 'orthorhombic'
loop_
_space_group_symop_operation_xyz
x,y,z
-x,1/2-y,1/2+z
x,-y,-z
-x,1/2+y,1/2-z
-x,-y,-z
x,1/2+y,1/2-z
-x,y,z
x,1/2-y,1/2+z
1/2+x,1/2+y,z
1/2-x,-y,1/2+z
1/2+x,1/2-y,-z
1/2-x,y,1/2-z
1/2-x,1/2-y,-z
1/2+x,y,1/2-z
1/2-x,1/2+y,z
1/2+x,-y,1/2+z
loop_
_atom_site_type_symbol
_atom_site_label
_atom_site_fract_x
_atom_site_fract_y
_atom_site_fract_z
Si Si1 0.879374 0.394894 0.168097
Si Si2 0.432324 0.600197 0.325166
Si Si3 0.568941 0.801602 0.294460
Si Si4 0.772528 0.949713 0.446908
Si Si5 0.432038 0.800519 0.710325
Si Si6 0.643957 0.945825 0.531719
O O1 0.893558 0.341605 0.205587
O O2 0.819469 0.409114 0.069569
O O3 0.877162 0.419469 0.356651
O O4 0.926836 0.412417 0.028343
O O5 0.500000 0.598561 0.268878
O O6 0.410020 0.653243 0.302542
O O7 0.392831 0.569976 0.197647
O O8 0.500000 0.805375 0.239260
O O9 0.591847 0.750151 0.253324
O O10 0.570528 0.808067 0.502950
O O11 0.750000 0.956941 0.250000
O O12 0.713830 0.938085 0.553995
O O13 0.797447 0.000000 0.500000
O O14 0.500000 0.796917 0.765111
O O15 0.636863 0.000000 0.500000
#
# Coordination Sequence:
#
# PCOD9476971 Si02
#       6
#    16  16  16  16  16  16
#     4  11  22  35  60  89 117 149 194 252 294 342
#     4  11  23  37  58  89 122 158 195 232 295 361
#     4  10  18  33  56  83 119 155 194 244 293 346
#     4   9  21  38  62  87 107 147 203 252 288 341
#     4   9  18  33  55  83 116 158 202 239 281 345
#     4  10  23  42  61  84 116 156 198 247 295 345
#
# _framework density 18.945025999999999
#
# number of rings (size 3 to 8) (size 9 to 14) (size 15 to 20)
#    0.000    2.000    1.667    1.500    7.000    3.667 
#    0.000    0.833    0.000    1.000    4.333    0.000 
#    0.000    0.000    0.000    0.000    0.000    0.000 
#
# Total GULP energy -267672.946462 kJ/mol
# GULP energy per Si atom -5576.519718 kJ/mol
# Density = 1.890191 g / cm^3
# Si number density = 18.945026 Si / 1000 Ang^3
#
#
#
# Elastic Constant Matrix: (Units=GPa)
#
#
# Indices 1 2 3 4 5 6 
#
# 1 36.7570 26.0137 9.0794 0.0000 0.0000 0.0000
# 2 26.0137 77.3035 4.6352 0.0000 0.0000 0.0000
# 3 9.0794 4.6352 55.2975 0.0000 0.0000 0.0000
# 4 0.0000 0.0000 0.0000 28.8156 0.0000 0.0000
# 5 0.0000 0.0000 0.0000 0.0000 25.3694 0.0000
# 6 0.0000 0.0000 0.0000 0.0000 0.0000 46.6276
#
#
#
# Elastic Compliance Matrix: (Units=1/GPa)
#
#
# Indices 1 2 3 4 5 6 
#
# 1 0.037071 -0.012171 -0.005067 0.000000 0.000000 0.000000
# 2 -0.012171 0.016997 0.000574 0.000000 0.000000 0.000000
# 3 -0.005067 0.000574 0.018868 0.000000 0.000000 0.000000
# 4 0.000000 0.000000 0.000000 0.034703 0.000000 0.000000
# 5 0.000000 0.000000 0.000000 0.000000 0.039418 0.000000
# 6 0.000000 0.000000 0.000000 0.000000 0.000000 0.021447
#
#
# Mechanical properties :
#
#
# Convention : Reuss Voigt Hill
#
# Bulk Modulus (GPa) = 25.24737 27.64607 26.44672
# Shear Modulus (GPa) = 23.25211 28.80450 26.02831
#
# Velocity S-wave (km/s) = 3.50715 3.90349 3.71062
# Velocity P-wave (km/s) = 5.45488 5.91108 5.68755
#
# Compressibility (1/GPa) = 0.03960809
#
# Stress axis : x y z
#
# Youngs Moduli (GPa) = 26.97534 58.83265 53.00038
#
# Poissons Ratio (x) = 0.71606 0.26853
# Poissons Ratio (y) = 0.32832 -0.03040
# Poissons Ratio (z) = 0.13667 -0.03375
#
# Static dielectric constant tensor:
#      x y z
#    x 1.678560 0.000000 0.000000 
#    y 0.000000 1.661760 0.000000 
#    z 0.000000 0.000000 1.697880 
# 
# From -- ./inp_files/8423.got.cif
#   From: 2010.05.17/outbox.cif.g08.bks.cpg/sg64_5_cif.got.tgz:8423.got - 2010.06.03 16:29:19.
