data_PCOD9476849
_publ_section_title
;
Structure prediction by ZEFSAII (Michael W. Deem and Ramdas Pophale) SiO2 
 PCOD9476849
Probable space group: C M C A
;
_chemical_formula_sum "Si O2"
_cell_formula_units_Z 64
_cell_length_a 12.191856
_cell_length_b 11.989034
_cell_length_c 18.415192
_cell_angle_alpha 90.000000
_cell_angle_beta 90.000000
_cell_angle_gamma 90.000000
_cell_volume 2691.722393
_symmetry_space_group_name_H-M "C M C A"
_symmetry_group_IT_number 64
_symmetry_cell_setting 'orthorhombic'
loop_
_space_group_symop_operation_xyz
x,y,z
-x,1/2-y,1/2+z
x,-y,-z
-x,1/2+y,1/2-z
-x,-y,-z
x,1/2+y,1/2-z
-x,y,z
x,1/2-y,1/2+z
1/2+x,1/2+y,z
1/2-x,-y,1/2+z
1/2+x,1/2-y,-z
1/2-x,y,1/2-z
1/2-x,1/2-y,-z
1/2+x,y,1/2-z
1/2-x,1/2+y,z
1/2+x,-y,1/2+z
loop_
_atom_site_type_symbol
_atom_site_label
_atom_site_fract_x
_atom_site_fract_y
_atom_site_fract_z
Si Si1 0.875565 0.273497 0.782634
Si Si2 0.617901 0.081887 0.600015
Si Si3 0.292592 0.109364 0.089327
Si Si4 0.382572 0.741197 0.533076
O O1 0.750000 0.280213 0.750000
O O2 0.878142 0.158555 0.828856
O O3 0.871301 0.371803 0.843170
O O4 0.000000 0.281077 0.747252
O O5 0.500000 0.020421 0.599608
O O6 0.615467 0.162369 0.529421
O O7 0.718433 0.998565 0.595717
O O8 0.353580 0.131924 0.013393
O O9 0.206412 0.214175 0.088554
O O10 0.500000 0.728344 0.567252
#
# Coordination Sequence:
#
# PCOD9476849 Si02
#       4
#    16  16  16  16
#     4  10  23  42  59  79 111 148 191 240 285 333
#     4   9  18  34  56  82 113 150 189 230 280 338
#     4  10  18  31  57  83 109 144 185 226 275 329
#     4   9  18  32  52  82 117 148 182 224 272 335
#
# _framework density 23.776598
#
# number of rings (size 3 to 8) (size 9 to 14) (size 15 to 20)
#    0.000    2.500    0.000    3.750    0.000    5.000 
#    0.000    5.000    0.000   42.000    0.000    0.000 
#    0.000    0.000    0.000    0.000    0.000    0.000 
#
# Total GULP energy -178302.192340 kJ/mol
# GULP energy per Si atom -5571.943511 kJ/mol
# Density = 2.372248 g / cm^3
# Si number density = 23.776598 Si / 1000 Ang^3
#
#
#
# Elastic Constant Matrix: (Units=GPa)
#
#
# Indices 1 2 3 4 5 6 
#
# 1 194.5655 25.7646 39.2124 0.0000 0.0000 0.0000
# 2 25.7646 83.8580 4.4374 0.0000 0.0000 0.0000
# 3 39.2124 4.4374 56.6228 0.0000 0.0000 0.0000
# 4 0.0000 0.0000 0.0000 12.3581 0.0000 0.0000
# 5 0.0000 0.0000 0.0000 0.0000 27.2278 0.0000
# 6 0.0000 0.0000 0.0000 0.0000 0.0000 35.7311
#
#
#
# Elastic Compliance Matrix: (Units=1/GPa)
#
#
# Indices 1 2 3 4 5 6 
#
# 1 0.006202 -0.001685 -0.004163 0.000000 0.000000 0.000000
# 2 -0.001685 0.012432 0.000193 0.000000 0.000000 0.000000
# 3 -0.004163 0.000193 0.020528 0.000000 0.000000 0.000000
# 4 0.000000 0.000000 0.000000 0.080919 0.000000 0.000000
# 5 0.000000 0.000000 0.000000 0.000000 0.036727 0.000000
# 6 0.000000 0.000000 0.000000 0.000000 0.000000 0.027987
#
#
# Mechanical properties :
#
#
# Convention : Reuss Voigt Hill
#
# Bulk Modulus (GPa) = 35.90380 52.65280 44.27830
# Shear Modulus (GPa) = 24.34392 32.77219 28.55805
#
# Velocity S-wave (km/s) = 3.20325 3.71663 3.46945
# Velocity P-wave (km/s) = 5.36790 6.37265 5.89173
#
# Compressibility (1/GPa) = 0.02785221
#
# Stress axis : x y z
#
# Youngs Moduli (GPa) = 161.24426 80.43451 48.71289
#
# Poissons Ratio (x) = 0.13555 0.20278
# Poissons Ratio (y) = 0.27172 -0.00939
# Poissons Ratio (z) = 0.67123 -0.01550
#
# Static dielectric constant tensor:
#      x y z
#    x 2.028330 0.000000 0.000000 
#    y 0.000000 1.912710 0.000000 
#    z 0.000000 0.000000 1.913320 
# 
# From -- ./inp_files/37809.got.cif
#   From: 2010.05.17/outbox.cif.g08.bks.cpg/sg64_19_cif.got.tgz:37809.got - 2010.06.03 16:29:19.
