data_PCOD9476296
_publ_section_title
;
Structure prediction by ZEFSAII (Michael W. Deem and Ramdas Pophale) SiO2 
 PCOD9476296
Probable space group: C M C A
;
_chemical_formula_sum "Si O2"
_cell_formula_units_Z 88
_cell_length_a 16.823614
_cell_length_b 30.870874
_cell_length_c 8.276087
_cell_angle_alpha 90.000000
_cell_angle_beta 90.000000
_cell_angle_gamma 90.000000
_cell_volume 4298.265797
_symmetry_space_group_name_H-M "C M C A"
_symmetry_group_IT_number 64
_symmetry_cell_setting 'orthorhombic'
loop_
_space_group_symop_operation_xyz
x,y,z
-x,1/2-y,1/2+z
x,-y,-z
-x,1/2+y,1/2-z
-x,-y,-z
x,1/2+y,1/2-z
-x,y,z
x,1/2-y,1/2+z
1/2+x,1/2+y,z
1/2-x,-y,1/2+z
1/2+x,1/2-y,-z
1/2-x,y,1/2-z
1/2-x,1/2-y,-z
1/2+x,y,1/2-z
1/2-x,1/2+y,z
1/2+x,-y,1/2+z
loop_
_atom_site_type_symbol
_atom_site_label
_atom_site_fract_x
_atom_site_fract_y
_atom_site_fract_z
Si Si1 0.156554 0.159745 0.093535
Si Si2 0.357661 0.441765 0.918870
Si Si3 0.661021 0.300260 0.224974
Si Si4 0.213726 0.500000 0.000000
Si Si5 0.834691 0.297566 0.908657
Si Si6 0.086718 0.521357 0.756167
O O1 0.153272 0.108404 0.110231
O O2 0.121278 0.179411 0.258866
O O3 0.246740 0.179922 0.085375
O O4 0.119888 0.173408 0.920106
O O5 0.272656 0.465579 0.920779
O O6 0.408354 0.470593 0.794801
O O7 0.395625 0.451593 0.094517
O O8 0.750000 0.318874 0.250000
O O9 0.629639 0.298980 0.409682
O O10 0.671777 0.252130 0.150078
O O11 0.157543 0.526434 0.880636
O O12 0.000000 0.531713 0.820967
#
# Coordination Sequence:
#
# PCOD9476296 Si02
#       6
#    16  16  16   8  16  16
#     4  10  19  26  45  70 105 145 181 223 275 330
#     4  10  20  36  53  82 111 147 181 232 288 337
#     4  10  15  27  39  62 101 154 179 211 264 346
#     4  10  21  34  59  82 112 134 184 238 289 328
#     4  10  17  25  42  64 103 149 183 210 274 334
#     4  10  21  39  59  75 109 150 186 224 283 352
#
# _framework density 20.473372000000001
#
# number of rings (size 3 to 8) (size 9 to 14) (size 15 to 20)
#    0.000    2.182    3.636    4.636    5.091    4.364 
#    0.000    0.000    0.000    0.000    0.000    0.000 
#    0.000    5.818    0.000    0.000    0.000    2.000 
#
# Total GULP energy -245025.612154 kJ/mol
# GULP energy per Si atom -5568.763913 kJ/mol
# Density = 2.042677 g / cm^3
# Si number density = 20.473372 Si / 1000 Ang^3
#
#
#
# Elastic Constant Matrix: (Units=GPa)
#
#
# Indices 1 2 3 4 5 6 
#
# 1 59.3175 -0.4915 6.3807 0.0000 0.0000 0.0000
# 2 -0.4915 92.3926 16.7428 0.0000 0.0000 0.0000
# 3 6.3807 16.7428 156.3227 0.0000 0.0000 0.0000
# 4 0.0000 0.0000 0.0000 7.3443 0.0000 0.0000
# 5 0.0000 0.0000 0.0000 0.0000 8.1254 0.0000
# 6 0.0000 0.0000 0.0000 0.0000 0.0000 3.4724
#
#
#
# Elastic Compliance Matrix: (Units=1/GPa)
#
#
# Indices 1 2 3 4 5 6 
#
# 1 0.016937 0.000220 -0.000715 0.000000 0.000000 0.000000
# 2 0.000220 0.011040 -0.001191 0.000000 0.000000 0.000000
# 3 -0.000715 -0.001191 0.006554 0.000000 0.000000 0.000000
# 4 0.000000 0.000000 0.000000 0.136160 0.000000 0.000000
# 5 0.000000 0.000000 0.000000 0.000000 0.123071 0.000000
# 6 0.000000 0.000000 0.000000 0.000000 0.000000 0.287988
#
#
# Mechanical properties :
#
#
# Convention : Reuss Voigt Hill
#
# Bulk Modulus (GPa) = 32.09440 39.25521 35.67481
# Shear Modulus (GPa) = 8.39617 22.81513 15.60565
#
# Velocity S-wave (km/s) = 2.02729 3.34186 2.76387
# Velocity P-wave (km/s) = 4.60327 5.84004 5.25814
#
# Compressibility (1/GPa) = 0.03115808
#
# Stress axis : x y z
#
# Youngs Moduli (GPa) = 59.04184 90.57601 152.58297
#
# Poissons Ratio (x) = -0.01989 0.10908
# Poissons Ratio (y) = -0.01297 0.18179
# Poissons Ratio (z) = 0.04221 0.10792
#
# Static dielectric constant tensor:
#      x y z
#    x 1.754230 0.000000 0.000000 
#    y 0.000000 1.709490 0.000000 
#    z 0.000000 0.000000 1.854690 
# 
# From -- ./inp_files/7303.got.cif
#   From: 2010.05.17/outbox.cif.g08.bks.cpg/sg64_4_cif.got.tgz:7303.got - 2010.06.03 16:29:19.
