data_PCOD9476899
_publ_section_title
;
Structure prediction by ZEFSAII (Michael W. Deem and Ramdas Pophale) SiO2 
 PCOD9476899
Probable space group: C M C A
;
_chemical_formula_sum "Si O2"
_cell_formula_units_Z 88
_cell_length_a 31.202357
_cell_length_b 5.489020
_cell_length_c 23.116848
_cell_angle_alpha 90.000000
_cell_angle_beta 90.000000
_cell_angle_gamma 90.000000
_cell_volume 3959.230916
_symmetry_space_group_name_H-M "C M C A"
_symmetry_group_IT_number 64
_symmetry_cell_setting 'orthorhombic'
loop_
_space_group_symop_operation_xyz
x,y,z
-x,1/2-y,1/2+z
x,-y,-z
-x,1/2+y,1/2-z
-x,-y,-z
x,1/2+y,1/2-z
-x,y,z
x,1/2-y,1/2+z
1/2+x,1/2+y,z
1/2-x,-y,1/2+z
1/2+x,1/2-y,-z
1/2-x,y,1/2-z
1/2-x,1/2-y,-z
1/2+x,y,1/2-z
1/2-x,1/2+y,z
1/2+x,-y,1/2+z
loop_
_atom_site_type_symbol
_atom_site_label
_atom_site_fract_x
_atom_site_fract_y
_atom_site_fract_z
Si Si1 0.777558 0.495353 0.128025
Si Si2 0.500000 0.093654 0.650797
Si Si3 0.722083 0.000000 0.000000
Si Si4 0.000000 0.405552 0.144623
Si Si5 0.856461 0.989693 0.714077
Si Si6 0.579489 0.435724 0.062940
Si Si7 0.907016 0.066104 0.599843
O O1 0.749317 0.743061 0.132288
O O2 0.799005 0.498289 0.063689
O O3 0.812058 0.500101 0.178757
O O4 0.500000 0.350176 0.681330
O O5 0.458025 0.091135 0.610002
O O6 0.500000 0.837546 0.681838
O O7 0.750000 0.250000 0.000000
O O8 0.958573 0.405435 0.103285
O O9 0.859749 0.729829 0.746018
O O10 0.892143 0.011118 0.664575
O O11 0.608647 0.667101 0.080497
O O12 0.602316 0.173483 0.062413
O O13 0.561871 0.500000 0.000000
#
# Coordination Sequence:
#
# PCOD9476899 Si02
#       7
#    16   8   8   8  16  16  16
#     4  10  21  40  67  95 124 155 197 240 299 367
#     4   8  15  26  48  79 111 148 187 239 304 365
#     4   8  16  34  60  90 122 153 182 229 290 352
#     4   8  16  32  55  77 107 158 199 254 294 358
#     4  12  26  43  63  87 124 165 206 258 305 343
#     4  10  18  32  54  83 117 152 194 245 306 369
#     4  10  21  38  56  82 121 155 208 251 306 356
#
# _framework density 22.226537
#
# number of rings (size 3 to 8) (size 9 to 14) (size 15 to 20)
#    0.000    2.182    0.000    3.000    0.000    2.182 
#    3.273    6.364    4.000    0.000    0.000    0.000 
#    0.000    0.000    0.000    0.000    0.000    0.000 
#
# Total GULP energy -245228.410524 kJ/mol
# GULP energy per Si atom -5573.372966 kJ/mol
# Density = 2.217595 g / cm^3
# Si number density = 22.226537 Si / 1000 Ang^3
#
#
#
# Elastic Constant Matrix: (Units=GPa)
#
#
# Indices 1 2 3 4 5 6 
#
# 1 50.2448 11.2916 2.4163 0.0000 0.0000 0.0000
# 2 11.2916 223.4984 12.1097 0.0000 0.0000 0.0000
# 3 2.4163 12.1097 58.8307 0.0000 0.0000 0.0000
# 4 0.0000 0.0000 0.0000 35.3222 0.0000 0.0000
# 5 0.0000 0.0000 0.0000 0.0000 -10.1757 0.0000
# 6 0.0000 0.0000 0.0000 0.0000 0.0000 14.8336
#
#
#
# Elastic Compliance Matrix: (Units=1/GPa)
#
#
# Indices 1 2 3 4 5 6 
#
# 1 0.020154 -0.000984 -0.000625 0.000000 0.000000 0.000000
# 2 -0.000984 0.004573 -0.000901 0.000000 0.000000 0.000000
# 3 -0.000625 -0.000901 0.017209 0.000000 0.000000 0.000000
# 4 0.000000 0.000000 0.000000 0.028311 0.000000 0.000000
# 5 0.000000 0.000000 0.000000 0.000000 -0.098274 0.000000
# 6 0.000000 0.000000 0.000000 0.000000 0.000000 0.067415
#
#
# Mechanical properties :
#
#
# Convention : Reuss Voigt Hill
#
# Bulk Modulus (GPa) = 27.08921 42.68989 34.88955
# Shear Modulus (GPa) = 88.16289 28.44644 58.30467
#
# Velocity S-wave (km/s) = 6.30490 3.58137 5.12728
# Velocity P-wave (km/s) = 8.07567 6.02910 7.12624
#
# Compressibility (1/GPa) = 0.03691507
#
# Stress axis : x y z
#
# Youngs Moduli (GPa) = 49.61831 218.68221 58.10902
#
# Poissons Ratio (x) = 0.21526 0.03633
# Poissons Ratio (y) = 0.04884 0.05235
# Poissons Ratio (z) = 0.03102 0.19700
#
# Static dielectric constant tensor:
#      x y z
#    x 1.835970 0.000000 0.000000 
#    y 0.000000 1.931970 0.000000 
#    z 0.000000 0.000000 1.781060 
# 
# From -- ./inp_files/47109.got.cif
#   From: 2010.05.17/outbox.cif.g08.bks.cpg/sg64_24_cif.got.tgz:47109.got - 2010.06.03 16:29:19.
