data_PCOD9476975
_publ_section_title
;
Structure prediction by ZEFSAII (Michael W. Deem and Ramdas Pophale) SiO2 
 PCOD9476975
Probable space group: C M C A
;
_chemical_formula_sum "Si O2"
_cell_formula_units_Z 128
_cell_length_a 23.112087
_cell_length_b 16.497549
_cell_length_c 18.286222
_cell_angle_alpha 90.000000
_cell_angle_beta 90.000000
_cell_angle_gamma 90.000000
_cell_volume 6972.404564
_symmetry_space_group_name_H-M "C M C A"
_symmetry_group_IT_number 64
_symmetry_cell_setting 'orthorhombic'
loop_
_space_group_symop_operation_xyz
x,y,z
-x,1/2-y,1/2+z
x,-y,-z
-x,1/2+y,1/2-z
-x,-y,-z
x,1/2+y,1/2-z
-x,y,z
x,1/2-y,1/2+z
1/2+x,1/2+y,z
1/2-x,-y,1/2+z
1/2+x,1/2-y,-z
1/2-x,y,1/2-z
1/2-x,1/2-y,-z
1/2+x,y,1/2-z
1/2-x,1/2+y,z
1/2+x,-y,1/2+z
loop_
_atom_site_type_symbol
_atom_site_label
_atom_site_fract_x
_atom_site_fract_y
_atom_site_fract_z
Si Si1 0.846796 0.746487 0.989976
Si Si2 0.935661 0.179667 0.253466
Si Si3 0.747646 0.470767 0.875777
Si Si4 0.565325 0.860591 0.918483
Si Si5 0.568302 0.465745 0.349705
Si Si6 0.258201 0.870941 0.475101
Si Si7 0.155662 0.040626 0.250375
Si Si8 0.933481 0.285087 0.122404
O O1 0.886455 0.686006 0.036896
O O2 0.819175 0.823457 0.030649
O O3 0.792212 0.694348 0.962943
O O4 0.888704 0.768247 0.923023
O O5 0.936445 0.184649 0.340472
O O6 0.883028 0.119955 0.237262
O O7 0.928879 0.260987 0.207333
O O8 0.000000 0.146123 0.233373
O O9 0.751369 0.556011 0.918680
O O10 0.800139 0.452543 0.819455
O O11 0.692260 0.475049 0.822266
O O12 0.745020 0.405309 0.941494
O O13 0.500000 0.858375 0.950002
O O14 0.578714 0.955004 0.900363
O O15 0.500000 0.467674 0.331265
O O16 0.608874 0.475516 0.279198
O O17 0.579931 0.380045 0.387403
O O18 0.000000 0.270421 0.100861
#
# Coordination Sequence:
#
# PCOD9476975 Si02
#       8
#    16  16  16  16  16  16  16  16
#     4  11  21  34  53  74 102 139 177 214 256 309
#     4   9  18  33  53  77 106 135 164 205 258 311
#     4  10  21  36  54  74 101 136 175 217 260 309
#     4   9  18  33  53  78 106 136 170 211 262 314
#     4   9  18  32  52  80 109 134 167 213 264 312
#     4  10  22  37  50  72 104 138 174 216 263 304
#     4  10  18  33  57  79  98 131 174 213 257 311
#     4  10  20  33  52  80 110 139 172 212 257 310
#
# _framework density 18.358086
#
# number of rings (size 3 to 8) (size 9 to 14) (size 15 to 20)
#    0.000    2.250    0.000    4.500    0.000    2.500 
#    0.000    1.875    0.000    8.250    0.000    9.625 
#    0.000    0.000    0.000    0.000    0.000    0.000 
#
# Total GULP energy -356555.592643 kJ/mol
# GULP energy per Si atom -5571.181135 kJ/mol
# Density = 1.831630 g / cm^3
# Si number density = 18.358086 Si / 1000 Ang^3
#
#
#
# Elastic Constant Matrix: (Units=GPa)
#
#
# Indices 1 2 3 4 5 6 
#
# 1 78.0385 28.1275 24.0678 0.0000 0.0000 0.0000
# 2 28.1275 56.9269 22.5921 0.0000 0.0000 0.0000
# 3 24.0678 22.5921 71.8391 0.0000 0.0000 0.0000
# 4 0.0000 0.0000 0.0000 14.3016 0.0000 0.0000
# 5 0.0000 0.0000 0.0000 0.0000 29.9328 0.0000
# 6 0.0000 0.0000 0.0000 0.0000 0.0000 22.9288
#
#
#
# Elastic Compliance Matrix: (Units=1/GPa)
#
#
# Indices 1 2 3 4 5 6 
#
# 1 0.016262 -0.006710 -0.003338 0.000000 0.000000 0.000000
# 2 -0.006710 0.022840 -0.004935 0.000000 0.000000 0.000000
# 3 -0.003338 -0.004935 0.016590 0.000000 0.000000 0.000000
# 4 0.000000 0.000000 0.000000 0.069922 0.000000 0.000000
# 5 0.000000 0.000000 0.000000 0.000000 0.033408 0.000000
# 6 0.000000 0.000000 0.000000 0.000000 0.000000 0.043613
#
#
# Mechanical properties :
#
#
# Convention : Reuss Voigt Hill
#
# Bulk Modulus (GPa) = 38.87026 39.59770 39.23398
# Shear Modulus (GPa) = 20.73155 22.23378 21.48267
#
# Velocity S-wave (km/s) = 3.36413 3.48389 3.42453
# Velocity P-wave (km/s) = 6.02571 6.14815 6.08724
#
# Compressibility (1/GPa) = 0.02572661
#
# Stress axis : x y z
#
# Youngs Moduli (GPa) = 61.49185 43.78201 60.27666
#
# Poissons Ratio (x) = 0.29380 0.20120
# Poissons Ratio (y) = 0.41264 0.29745
# Poissons Ratio (z) = 0.20526 0.21605
#
# Static dielectric constant tensor:
#      x y z
#    x 1.665340 0.000000 0.000000 
#    y 0.000000 1.628960 0.000000 
#    z 0.000000 0.000000 1.653180 
# 
# From -- ./inp_files/35170.got.cif
#   From: 2010.05.17/outbox.cif.g08.bks.cpg/sg64_18_cif.got.tgz:35170.got - 2010.06.03 16:29:19.
