data_PCOD9476836
_publ_section_title
;
Structure prediction by ZEFSAII (Michael W. Deem and Ramdas Pophale) SiO2 
 PCOD9476836
Probable space group: C M C A
;
_chemical_formula_sum "Si O2"
_cell_formula_units_Z 96
_cell_length_a 7.664712
_cell_length_b 30.022906
_cell_length_c 21.112060
_cell_angle_alpha 90.000000
_cell_angle_beta 90.000000
_cell_angle_gamma 90.000000
_cell_volume 4858.242389
_symmetry_space_group_name_H-M "C M C A"
_symmetry_group_IT_number 64
_symmetry_cell_setting 'orthorhombic'
loop_
_space_group_symop_operation_xyz
x,y,z
-x,1/2-y,1/2+z
x,-y,-z
-x,1/2+y,1/2-z
-x,-y,-z
x,1/2+y,1/2-z
-x,y,z
x,1/2-y,1/2+z
1/2+x,1/2+y,z
1/2-x,-y,1/2+z
1/2+x,1/2-y,-z
1/2-x,y,1/2-z
1/2-x,1/2-y,-z
1/2+x,y,1/2-z
1/2-x,1/2+y,z
1/2+x,-y,1/2+z
loop_
_atom_site_type_symbol
_atom_site_label
_atom_site_fract_x
_atom_site_fract_y
_atom_site_fract_z
Si Si1 0.286880 0.529756 0.939564
Si Si2 0.207700 0.122634 0.126784
Si Si3 0.706893 0.781442 0.821456
Si Si4 0.709597 0.028506 0.322087
Si Si5 0.209889 0.277814 0.436767
Si Si6 0.213863 0.626875 0.518646
O O1 0.500000 0.529875 0.939437
O O2 0.227400 0.506201 0.875090
O O3 0.231179 0.580607 0.949584
O O4 0.234303 0.500000 0.000000
O O5 0.237150 0.167960 0.164655
O O6 0.276529 0.078104 0.160464
O O7 0.000000 0.116800 0.121416
O O8 0.272892 0.127398 0.054691
O O9 0.500000 0.781117 0.827824
O O10 0.750000 0.768256 0.750000
O O11 0.779179 0.748644 0.875676
O O12 0.500000 0.029498 0.327456
O O13 0.750000 0.016924 0.250000
O O14 0.250000 0.250000 0.500000
O O15 0.273335 0.328236 0.446719
O O16 0.000000 0.280206 0.431256
O O17 0.000000 0.627381 0.518231
#
# Coordination Sequence:
#
# PCOD9476836 Si02
#       6
#    16  16  16  16  16  16
#     4   9  15  28  51  77 100 128 171 211 242 292
#     4  10  18  31  54  80 105 133 165 210 264 309
#     4  11  23  36  51  75 106 140 175 210 256 308
#     4  10  20  32  50  77 106 136 169 207 254 305
#     4  10  20  34  54  78 103 134 171 213 259 306
#     4   9  16  29  52  79 103 127 166 214 255 297
#
# _framework density 19.760231999999998
#
# number of rings (size 3 to 8) (size 9 to 14) (size 15 to 20)
#    0.000    2.167    3.333    1.000    0.000    2.667 
#    0.000    0.833    0.000    2.500    0.000    0.000 
#    0.000    0.000    0.000    0.000    0.000    0.000 
#
# Total GULP energy -268003.980795 kJ/mol
# GULP energy per Si atom -5583.416267 kJ/mol
# Density = 1.971526 g / cm^3
# Si number density = 19.760232 Si / 1000 Ang^3
#
#
#
# Elastic Constant Matrix: (Units=GPa)
#
#
# Indices 1 2 3 4 5 6 
#
# 1 31.2370 -0.3288 -3.4283 0.0000 0.0000 0.0000
# 2 -0.3288 175.2746 98.5613 0.0000 0.0000 0.0000
# 3 -3.4283 98.5613 183.3752 0.0000 0.0000 0.0000
# 4 0.0000 0.0000 0.0000 29.3513 0.0000 0.0000
# 5 0.0000 0.0000 0.0000 0.0000 -11.4653 0.0000
# 6 0.0000 0.0000 0.0000 0.0000 0.0000 8.6055
#
#
#
# Elastic Compliance Matrix: (Units=1/GPa)
#
#
# Indices 1 2 3 4 5 6 
#
# 1 0.032098 -0.000397 0.000814 0.000000 0.000000 0.000000
# 2 -0.000397 0.008182 -0.004405 0.000000 0.000000 0.000000
# 3 0.000814 -0.004405 0.007836 0.000000 0.000000 0.000000
# 4 0.000000 0.000000 0.000000 0.034070 0.000000 0.000000
# 5 0.000000 0.000000 0.000000 0.000000 -0.087220 0.000000
# 6 0.000000 0.000000 0.000000 0.000000 0.000000 0.116205
#
#
# Mechanical properties :
#
#
# Convention : Reuss Voigt Hill
#
# Bulk Modulus (GPa) = 24.91348 64.38835 44.65091
# Shear Modulus (GPa) = 37.72785 24.97048 31.34916
#
# Velocity S-wave (km/s) = 4.37427 3.55868 3.98738
# Velocity P-wave (km/s) = 6.17638 7.03854 6.62151
#
# Compressibility (1/GPa) = 0.04013892
#
# Stress axis : x y z
#
# Youngs Moduli (GPa) = 31.15421 122.22598 127.61495
#
# Poissons Ratio (x) = 0.04856 -0.10383
# Poissons Ratio (y) = 0.01238 0.56213
# Poissons Ratio (z) = -0.02535 0.53839
#
# Static dielectric constant tensor:
#      x y z
#    x 1.755250 0.000000 0.000000 
#    y 0.000000 1.688020 0.000000 
#    z 0.000000 0.000000 1.677230 
# 
# From -- ./inp_files/37131.got.cif
#   From: 2010.05.17/outbox.cif.g08.bks.cpg/sg64_19_cif.got.tgz:37131.got - 2010.06.03 16:29:19.
