data_PCOD9476682
_publ_section_title
;
Structure prediction by ZEFSAII (Michael W. Deem and Ramdas Pophale) SiO2 
 PCOD9476682
Probable space group: C M C A
;
_chemical_formula_sum "Si O2"
_cell_formula_units_Z 112
_cell_length_a 23.722689
_cell_length_b 14.073277
_cell_length_c 18.727135
_cell_angle_alpha 90.000000
_cell_angle_beta 90.000000
_cell_angle_gamma 90.000000
_cell_volume 6252.165886
_symmetry_space_group_name_H-M "C M C A"
_symmetry_group_IT_number 64
_symmetry_cell_setting 'orthorhombic'
loop_
_space_group_symop_operation_xyz
x,y,z
-x,1/2-y,1/2+z
x,-y,-z
-x,1/2+y,1/2-z
-x,-y,-z
x,1/2+y,1/2-z
-x,y,z
x,1/2-y,1/2+z
1/2+x,1/2+y,z
1/2-x,-y,1/2+z
1/2+x,1/2-y,-z
1/2-x,y,1/2-z
1/2-x,1/2-y,-z
1/2+x,y,1/2-z
1/2-x,1/2+y,z
1/2+x,-y,1/2+z
loop_
_atom_site_type_symbol
_atom_site_label
_atom_site_fract_x
_atom_site_fract_y
_atom_site_fract_z
Si Si1 0.654484 0.641941 0.478834
Si Si2 0.065062 0.354825 0.857556
Si Si3 0.375286 0.309671 0.211146
Si Si4 0.142827 0.511700 0.241693
Si Si5 0.699218 0.184199 0.307496
Si Si6 0.778479 0.793481 0.091121
Si Si7 0.801791 0.961039 0.400236
O O1 0.597226 0.647103 0.433666
O O2 0.688932 0.739748 0.472202
O O3 0.649841 0.599833 0.558115
O O4 0.692547 0.564414 0.435471
O O5 0.074185 0.252554 0.820262
O O6 0.100261 0.426405 0.806740
O O7 0.000000 0.379780 0.863647
O O8 0.386160 0.419191 0.226200
O O9 0.348496 0.257167 0.279936
O O10 0.325661 0.301832 0.152558
O O11 0.171463 0.580044 0.300481
O O12 0.188790 0.473696 0.183856
O O13 0.750000 0.182361 0.250000
O O14 0.729016 0.226188 0.377094
O O15 0.752519 0.897883 0.081591
#
# Coordination Sequence:
#
# PCOD9476682 Si02
#       7
#    16  16  16  16  16  16  16
#     4   9  20  33  45  73  95 128 171 195 231 285
#     4   9  19  36  51  65  94 126 160 212 248 272
#     4   9  18  29  44  74  96 121 164 189 237 300
#     4  10  19  29  47  73  97 125 159 195 237 294
#     4   9  17  26  41  69 101 128 153 186 230 288
#     4  10  18  29  47  70 100 136 156 187 241 283
#     4  10  18  31  48  66 104 131 154 197 231 285
#
# _framework density 17.913792000000001
#
# number of rings (size 3 to 8) (size 9 to 14) (size 15 to 20)
#    0.000    2.571    1.429    3.000    4.000    0.571 
#    0.000    5.714    0.000    0.000    0.000    0.000 
#    0.000    1.143    0.000    0.000    0.000    0.000 
#
# Total GULP energy -311933.710797 kJ/mol
# GULP energy per Si atom -5570.244836 kJ/mol
# Density = 1.787302 g / cm^3
# Si number density = 17.913792 Si / 1000 Ang^3
#
#
#
# Elastic Constant Matrix: (Units=GPa)
#
#
# Indices 1 2 3 4 5 6 
#
# 1 66.8381 14.6343 4.2427 0.0000 0.0000 0.0000
# 2 14.6343 85.2343 7.5748 0.0000 0.0000 0.0000
# 3 4.2427 7.5748 46.9782 0.0000 0.0000 0.0000
# 4 0.0000 0.0000 0.0000 21.2222 0.0000 0.0000
# 5 0.0000 0.0000 0.0000 0.0000 9.6632 0.0000
# 6 0.0000 0.0000 0.0000 0.0000 0.0000 13.3355
#
#
#
# Elastic Compliance Matrix: (Units=1/GPa)
#
#
# Indices 1 2 3 4 5 6 
#
# 1 0.015591 -0.002589 -0.000991 0.000000 0.000000 0.000000
# 2 -0.002589 0.012333 -0.001755 0.000000 0.000000 0.000000
# 3 -0.000991 -0.001755 0.021659 0.000000 0.000000 0.000000
# 4 0.000000 0.000000 0.000000 0.047121 0.000000 0.000000
# 5 0.000000 0.000000 0.000000 0.000000 0.103485 0.000000
# 6 0.000000 0.000000 0.000000 0.000000 0.000000 0.074988
#
#
# Mechanical properties :
#
#
# Convention : Reuss Voigt Hill
#
# Bulk Modulus (GPa) = 25.69747 27.99493 26.84620
# Shear Modulus (GPa) = 16.73268 20.35076 18.54172
#
# Velocity S-wave (km/s) = 3.05957 3.37417 3.22071
# Velocity P-wave (km/s) = 5.18242 5.55352 5.37118
#
# Compressibility (1/GPa) = 0.03891433
#
# Stress axis : x y z
#
# Youngs Moduli (GPa) = 64.13856 81.08452 46.17047
#
# Poissons Ratio (x) = 0.20992 0.04574
# Poissons Ratio (y) = 0.16605 0.08102
# Poissons Ratio (z) = 0.06354 0.14228
#
# Static dielectric constant tensor:
#      x y z
#    x 1.588370 0.000000 0.000000 
#    y 0.000000 1.662220 0.000000 
#    z 0.000000 0.000000 1.670010 
# 
# From -- ./inp_files/46685.got.cif
#   From: 2010.05.17/outbox.cif.g08.bks.cpg/sg64_24_cif.got.tgz:46685.got - 2010.06.03 16:29:19.
