data_PCOD9476035
_publ_section_title
;
Structure prediction by ZEFSAII (Michael W. Deem and Ramdas Pophale) SiO2 
 PCOD9476035
Probable space group: C M C M
;
_chemical_formula_sum "Si O2"
_cell_formula_units_Z 80
_cell_length_a 7.463079
_cell_length_b 14.993338
_cell_length_c 34.793952
_cell_angle_alpha 90.000000
_cell_angle_beta 90.000000
_cell_angle_gamma 90.000000
_cell_volume 3893.320266
_symmetry_space_group_name_H-M "C M C M"
_symmetry_group_IT_number 63
_symmetry_cell_setting 'orthorhombic'
loop_
_space_group_symop_operation_xyz
x,y,z
-x,-y,1/2+z
x,-y,-z
-x,y,1/2-z
-x,-y,-z
x,y,1/2-z
-x,y,z
x,-y,1/2+z
1/2+x,1/2+y,z
1/2-x,1/2-y,1/2+z
1/2+x,1/2-y,-z
1/2-x,1/2+y,1/2-z
1/2-x,1/2-y,-z
1/2+x,1/2+y,1/2-z
1/2-x,1/2+y,z
1/2+x,1/2-y,1/2+z
loop_
_atom_site_type_symbol
_atom_site_label
_atom_site_fract_x
_atom_site_fract_y
_atom_site_fract_z
Si Si1 0.285831 0.891206 0.292710
Si Si2 0.719518 0.745221 0.147611
Si Si3 0.214112 0.900634 0.707282
Si Si4 0.716746 0.746538 0.059814
Si Si5 0.211757 0.600663 0.502656
O O1 0.216649 0.867030 0.250000
O O2 0.500000 0.878976 0.291294
O O3 0.221098 0.830184 0.327376
O O4 0.249804 0.995269 0.298892
O O5 0.500000 0.745129 0.146332
O O6 0.779167 0.660237 0.172582
O O7 0.779594 0.745570 0.103662
O O8 0.283389 0.876530 0.750000
O O9 0.000000 0.888182 0.708715
O O10 0.500000 0.750087 0.059838
O O11 0.766398 0.657573 0.036334
O O12 0.783006 0.832916 0.035880
O O13 0.285218 0.500000 0.500000
O O14 0.000000 0.591533 0.510377
#
# Coordination Sequence:
#
# PCOD9476035 Si02
#       5
#    16  16  16  16  16
#     4   9  17  30  48  69  93 123 158 191 224 267
#     4   9  17  30  48  68  92 123 155 186 224 271
#     4   9  17  30  47  66  90 121 155 189 225 265
#     4   9  18  32  49  70  93 118 153 190 222 269
#     4   9  18  33  51  69  92 121 149 183 232 280
#
# _framework density 20.548013999999998
#
# number of rings (size 3 to 8) (size 9 to 14) (size 15 to 20)
#    0.000    3.000    0.000    0.600    0.000    4.400 
#    0.000    5.000    0.000    4.800    0.000    0.000 
#    0.000    0.000    0.000    0.000    0.000    0.000 
#
# Total GULP energy -223136.364096 kJ/mol
# GULP energy per Si atom -5578.409102 kJ/mol
# Density = 2.050125 g / cm^3
# Si number density = 20.548014 Si / 1000 Ang^3
#
#
#
# Elastic Constant Matrix: (Units=GPa)
#
#
# Indices 1 2 3 4 5 6 
#
# 1 55.6477 -4.1998 -6.2030 0.0000 0.0000 0.0000
# 2 -4.1998 168.2302 123.3017 0.0000 0.0000 0.0000
# 3 -6.2030 123.3017 213.3867 0.0000 0.0000 0.0000
# 4 0.0000 0.0000 0.0000 12.2277 0.0000 0.0000
# 5 0.0000 0.0000 0.0000 0.0000 9.9261 0.0000
# 6 0.0000 0.0000 0.0000 0.0000 0.0000 9.5425
#
#
#
# Elastic Compliance Matrix: (Units=1/GPa)
#
#
# Indices 1 2 3 4 5 6 
#
# 1 0.018030 0.000114 0.000458 0.000000 0.000000 0.000000
# 2 0.000114 0.010312 -0.005955 0.000000 0.000000 0.000000
# 3 0.000458 -0.005955 0.008141 0.000000 0.000000 0.000000
# 4 0.000000 0.000000 0.000000 0.081781 0.000000 0.000000
# 5 0.000000 0.000000 0.000000 0.000000 0.100744 0.000000
# 6 0.000000 0.000000 0.000000 0.000000 0.000000 0.104794
#
#
# Mechanical properties :
#
#
# Convention : Reuss Voigt Hill
#
# Bulk Modulus (GPa) = 38.88490 73.67361 56.27926
# Shear Modulus (GPa) = 14.57130 27.96365 21.26748
#
# Velocity S-wave (km/s) = 2.66585 3.69303 3.22065
# Velocity P-wave (km/s) = 5.33298 7.35642 6.42485
#
# Compressibility (1/GPa) = 0.02571692
#
# Stress axis : x y z
#
# Youngs Moduli (GPa) = 55.46351 96.97576 122.83894
#
# Poissons Ratio (x) = -0.01110 -0.05626
# Poissons Ratio (y) = -0.00635 0.73153
# Poissons Ratio (z) = -0.02540 0.57751
#
# Static dielectric constant tensor:
#      x y z
#    x 1.775640 0.000000 0.000000 
#    y 0.000000 1.711690 0.000000 
#    z 0.000000 0.000000 1.712910 
# 
# From -- ./inp_files/72483.got.cif
#   From: 2010.05.17/outbox.cif.g08.bks.cpg/sg63_37_cif.got.tgz:72483.got - 2010.06.03 15:47:04.
