data_PCOD9476130
_publ_section_title
;
Structure prediction by ZEFSAII (Michael W. Deem and Ramdas Pophale) SiO2 
 PCOD9476130
Probable space group: C M C M
;
_chemical_formula_sum "Si O2"
_cell_formula_units_Z 32
_cell_length_a 9.000000
_cell_length_b 24.000000
_cell_length_c 15.000000
_cell_angle_alpha 90.000000
_cell_angle_beta 90.000000
_cell_angle_gamma 90.000000
_cell_volume 3240.000000
_symmetry_space_group_name_H-M "C M C M"
_symmetry_group_IT_number 63
_symmetry_cell_setting 'orthorhombic'
loop_
_space_group_symop_operation_xyz
x,y,z
-x,-y,1/2+z
x,-y,-z
-x,y,1/2-z
-x,-y,-z
x,y,1/2-z
-x,y,z
x,-y,1/2+z
1/2+x,1/2+y,z
1/2-x,1/2-y,1/2+z
1/2+x,1/2-y,-z
1/2-x,1/2+y,1/2-z
1/2-x,1/2-y,-z
1/2+x,1/2+y,1/2-z
1/2-x,1/2+y,z
1/2+x,1/2-y,1/2+z
loop_
_atom_site_type_symbol
_atom_site_label
_atom_site_fract_x
_atom_site_fract_y
_atom_site_fract_z
Si Si1 0.673901 0.788691 0.750000
Si Si2 0.672659 0.998965 0.355071
Si Si3 0.175234 0.329248 0.250000
Si Si4 0.325797 0.125981 0.090038
Si Si5 0.173593 0.107787 0.912600
O O1 0.500000 0.771614 0.750000
O O2 0.774002 0.734560 0.750000
O O3 0.698628 0.827859 0.664756
O O4 0.692839 0.987834 0.250000
O O5 0.500000 0.988003 0.377782
O O6 0.772957 0.956341 0.409209
O O7 0.700902 0.063951 0.371808
O O8 0.240857 0.359923 0.335669
O O9 0.000000 0.334419 0.250000
O O10 0.500000 0.128063 0.063375
O O11 0.221156 0.133505 0.006154
O O12 0.000000 0.111160 0.897076
#
# Coordination Sequence:
#
# PCOD9476130 Si02
#       5
#     8  16   8  16  16
#     4  10  22  43  68  93 121 156 206 260 305 356
#     4  10  19  36  64  94 125 165 205 243 298 368
#     4  12  26  45  66  87 117 162 210 258 311 366
#     4  10  21  40  66  95 126 164 204 246 302 369
#     4  12  25  40  61  93 128 164 204 254 308 359
#
# _framework density 9.8765429999999999
#
# number of rings (size 3 to 8) (size 9 to 14) (size 15 to 20)
#    0.000    1.250    2.500    4.125    0.000    6.000 
#    0.000    0.000    0.000    0.000    0.000    0.000 
#    0.000    0.000    0.000    0.000    0.000    0.000 
#
# Total GULP energy -178960.799414 kJ/mol
# GULP energy per Si atom -5592.524982 kJ/mol
# Density = 0.985406 g / cm^3
# Si number density = 9.876543 Si / 1000 Ang^3
#
#
#
# Elastic Constant Matrix: (Units=GPa)
#
#
# Indices 1 2 3 4 5 6 
#
# 1 116.5679 65.4075 69.0758 0.0000 0.0000 0.0000
# 2 65.4075 76.0346 17.6445 0.0000 0.0000 0.0000
# 3 69.0758 17.6445 76.1650 0.0000 0.0000 0.0000
# 4 0.0000 0.0000 0.0000 -11.1202 0.0000 0.0000
# 5 0.0000 0.0000 0.0000 0.0000 289.4475 0.0000
# 6 0.0000 0.0000 0.0000 0.0000 0.0000 25.8553
#
#
#
# Elastic Compliance Matrix: (Units=1/GPa)
#
#
# Indices 1 2 3 4 5 6 
#
# 1 0.050011 -0.034342 -0.037401 0.000000 0.000000 0.000000
# 2 -0.034342 0.037482 0.022463 0.000000 0.000000 0.000000
# 3 -0.037401 0.022463 0.041845 0.000000 0.000000 0.000000
# 4 0.000000 0.000000 0.000000 -0.089927 0.000000 0.000000
# 5 0.000000 0.000000 0.000000 0.000000 0.003455 0.000000
# 6 0.000000 0.000000 0.000000 0.000000 0.000000 0.038677
#
#
# Mechanical properties :
#
#
# Convention : Reuss Voigt Hill
#
# Bulk Modulus (GPa) = 32.49105 63.66923 48.08014
# Shear Modulus (GPa) = 26.26562 68.61251 47.43906
#
# Velocity S-wave (km/s) = 3.65046 5.90004 4.90593
# Velocity P-wave (km/s) = 5.85253 8.87223 7.51560
#
# Compressibility (1/GPa) = 0.03077770
#
# Stress axis : x y z
#
# Youngs Moduli (GPa) = 19.99541 26.67973 23.89763
#
# Poissons Ratio (x) = 0.91624 0.89379
# Poissons Ratio (y) = 0.68669 -0.53681
# Poissons Ratio (z) = 0.74784 -0.59930
#
# Static dielectric constant tensor:
#      x y z
#    x 1.659660 0.000000 0.000000 
#    y 0.000000 1.671130 0.000000 
#    z 0.000000 0.000000 1.702650 
# 
# From -- ./inp_files/27597.got.cif
#   From: 2010.05.17/outbox.ucp.g08.bks.cvg/sg63_14_cif.got.tgz:27597.got - 2010.06.11 16:32:19.
