data_PCOD9476223
_publ_section_title
;
Structure prediction by ZEFSAII (Michael W. Deem and Ramdas Pophale) SiO2 
 PCOD9476223
Probable space group: C M C M
;
_chemical_formula_sum "Si O2"
_cell_formula_units_Z 48
_cell_length_a 27.000000
_cell_length_b 21.000000
_cell_length_c 9.000000
_cell_angle_alpha 90.000000
_cell_angle_beta 90.000000
_cell_angle_gamma 90.000000
_cell_volume 5103.000000
_symmetry_space_group_name_H-M "C M C M"
_symmetry_group_IT_number 63
_symmetry_cell_setting 'orthorhombic'
loop_
_space_group_symop_operation_xyz
x,y,z
-x,-y,1/2+z
x,-y,-z
-x,y,1/2-z
-x,-y,-z
x,y,1/2-z
-x,y,z
x,-y,1/2+z
1/2+x,1/2+y,z
1/2-x,1/2-y,1/2+z
1/2+x,1/2-y,-z
1/2-x,1/2+y,1/2-z
1/2-x,1/2-y,-z
1/2+x,1/2+y,1/2-z
1/2-x,1/2+y,z
1/2+x,1/2-y,1/2+z
loop_
_atom_site_type_symbol
_atom_site_label
_atom_site_fract_x
_atom_site_fract_y
_atom_site_fract_z
Si Si1 0.787012 0.800346 0.928588
Si Si2 0.873308 0.566569 0.428681
Si Si3 0.099053 0.805084 0.927690
Si Si4 0.242608 0.565890 0.428115
Si Si5 0.443469 0.818206 0.573047
Si Si6 0.059647 0.933303 0.425084
O O1 0.781789 0.797146 0.750000
O O2 0.844089 0.788625 0.966514
O O3 0.772417 0.871853 0.975470
O O4 0.750000 0.750000 0.000000
O O5 0.889769 0.500000 0.500000
O O6 0.876841 0.561779 0.250000
O O7 0.815394 0.575622 0.467280
O O8 0.905857 0.626692 0.476836
O O9 0.094714 0.809383 0.750000
O O10 0.066203 0.747913 0.990786
O O11 0.084088 0.872330 0.998407
O O12 0.259646 0.500000 0.500000
O O13 0.245831 0.560263 0.250000
O O14 0.436098 0.808041 0.750000
O O15 0.500000 0.839079 0.550412
O O16 0.070749 0.934468 0.250000
O O17 0.000000 0.927656 0.442393
O O18 0.074849 0.000000 0.500000
#
# Coordination Sequence:
#
# PCOD9476223 Si02
#       6
#    16  16  16  16  16  16
#     4  10  22  38  56  80 109 142 182 225 269 321
#     4   9  18  33  54  78 105 138 175 217 264 315
#     4  11  23  37  55  82 113 143 181 229 277 327
#     4   9  18  34  54  76 104 137 173 213 259 312
#     4  10  21  37  56  78 106 143 185 224 267 324
#     4  10  21  38  60  84 111 146 186 227 274 328
#
# _framework density 9.4062319999999993
#
# number of rings (size 3 to 8) (size 9 to 14) (size 15 to 20)
#    0.000    2.167    0.000    2.500    0.000    8.333 
#    0.000    5.000    0.000    0.000    0.000    0.000 
#    0.000    0.000    0.000    0.000    0.000    0.000 
#
# Total GULP energy -268071.675327 kJ/mol
# GULP energy per Si atom -5584.826569 kJ/mol
# Density = 0.938482 g / cm^3
# Si number density = 9.406232 Si / 1000 Ang^3
#
#
#
# Elastic Constant Matrix: (Units=GPa)
#
#
# Indices 1 2 3 4 5 6 
#
# 1 25.6880 1.8180 16.6614 0.0000 0.0000 0.0000
# 2 1.8180 59.9325 6.9977 0.0000 0.0000 0.0000
# 3 16.6614 6.9977 20.9041 0.0000 0.0000 0.0000
# 4 0.0000 0.0000 0.0000 40.0123 0.0000 0.0000
# 5 0.0000 0.0000 0.0000 0.0000 -3.6789 0.0000
# 6 0.0000 0.0000 0.0000 0.0000 0.0000 33.8553
#
#
#
# Elastic Compliance Matrix: (Units=1/GPa)
#
#
# Indices 1 2 3 4 5 6 
#
# 1 0.082218 0.005367 -0.067328 0.000000 0.000000 0.000000
# 2 0.005367 0.017714 -0.010208 0.000000 0.000000 0.000000
# 3 -0.067328 -0.010208 0.104918 0.000000 0.000000 0.000000
# 4 0.000000 0.000000 0.000000 0.024992 0.000000 0.000000
# 5 0.000000 0.000000 0.000000 0.000000 -0.271821 0.000000
# 6 0.000000 0.000000 0.000000 0.000000 0.000000 0.029537
#
#
# Mechanical properties :
#
#
# Convention : Reuss Voigt Hill
#
# Bulk Modulus (GPa) = 16.52533 17.49766 17.01149
# Shear Modulus (GPa) = 32.88027 19.44091 26.16059
#
# Velocity S-wave (km/s) = 4.18520 3.21815 3.73312
# Velocity P-wave (km/s) = 5.67078 4.80936 5.25774
#
# Compressibility (1/GPa) = 0.06051318
#
# Stress axis : x y z
#
# Youngs Moduli (GPa) = 12.16276 56.45101 9.53129
#
# Poissons Ratio (x) = -0.30298 0.64172
# Poissons Ratio (y) = -0.06528 0.09729
# Poissons Ratio (z) = 0.81889 0.57624
#
# Static dielectric constant tensor:
#      x y z
#    x 1.650910 0.000000 0.000000 
#    y 0.000000 1.615040 0.000000 
#    z 0.000000 0.000000 1.633760 
# 
# From -- ./inp_files/12369.got.cif
#   From: 2010.05.17/outbox.ucp.g08.bks.cvg/sg63_7_cif.got.tgz:12369.got - 2010.06.11 16:32:19.
