data_PCOD9476324
_publ_section_title
;
Structure prediction by ZEFSAII (Michael W. Deem and Ramdas Pophale) SiO2 
 PCOD9476324
Probable space group: C M C A
;
_chemical_formula_sum "Si O2"
_cell_formula_units_Z 112
_cell_length_a 24.284505
_cell_length_b 28.030034
_cell_length_c 10.371137
_cell_angle_alpha 90.000000
_cell_angle_beta 90.000000
_cell_angle_gamma 90.000000
_cell_volume 7059.586294
_symmetry_space_group_name_H-M "C M C A"
_symmetry_group_IT_number 64
_symmetry_cell_setting 'orthorhombic'
loop_
_space_group_symop_operation_xyz
x,y,z
-x,1/2-y,1/2+z
x,-y,-z
-x,1/2+y,1/2-z
-x,-y,-z
x,1/2+y,1/2-z
-x,y,z
x,1/2-y,1/2+z
1/2+x,1/2+y,z
1/2-x,-y,1/2+z
1/2+x,1/2-y,-z
1/2-x,y,1/2-z
1/2-x,1/2-y,-z
1/2+x,y,1/2-z
1/2-x,1/2+y,z
1/2+x,-y,1/2+z
loop_
_atom_site_type_symbol
_atom_site_label
_atom_site_fract_x
_atom_site_fract_y
_atom_site_fract_z
Si Si1 0.160476 0.356297 0.020843
Si Si2 0.435910 0.924279 0.055286
Si Si3 0.278742 0.949358 0.946244
Si Si4 0.435289 0.481585 0.713979
Si Si5 0.834962 0.563542 0.334402
Si Si6 0.787619 0.262251 0.124556
Si Si7 0.683307 0.165423 0.269883
O O1 0.201993 0.401989 0.021568
O O2 0.158553 0.337754 0.873062
O O3 0.103318 0.379163 0.064308
O O4 0.180541 0.311055 0.100085
O O5 0.500000 0.912603 0.068854
O O6 0.422825 0.965556 0.159407
O O7 0.428537 0.947618 0.912599
O O8 0.212754 0.951094 0.932871
O O9 0.306388 0.943814 0.805976
O O10 0.298416 0.000000 0.000000
O O11 0.500000 0.479709 0.750576
O O12 0.392411 0.464051 0.821868
O O13 0.840625 0.620533 0.346665
O O14 0.750000 0.268471 0.250000
O O15 0.823521 0.215419 0.158077
O O16 0.750000 0.250000 0.000000
O O17 0.750000 0.158810 0.250000
#
# Coordination Sequence:
#
# PCOD9476324 Si02
#       7
#    16  16  16  16  16  16  16
#     4  11  18  31  50  70 102 132 161 207 258 302
#     4   9  17  28  47  72  97 126 165 205 250 295
#     4  10  18  28  43  67  99 128 151 189 246 310
#     4   9  16  27  46  71  94 121 162 207 240 287
#     4  10  16  28  46  65  94 129 155 193 248 296
#     4  11  20  33  50  73 101 131 173 209 246 305
#     4  10  16  30  48  67  93 132 162 196 248 297
#
# _framework density 15.864952000000001
#
# number of rings (size 3 to 8) (size 9 to 14) (size 15 to 20)
#    0.000    2.000    8.571    1.714    0.000    0.000 
#    5.143    0.000    0.000    2.143    0.000    0.000 
#    0.000    0.000    0.000    0.000    0.000    0.000 
#
# Total GULP energy -311861.714843 kJ/mol
# GULP energy per Si atom -5568.959194 kJ/mol
# Density = 1.582884 g / cm^3
# Si number density = 15.864952 Si / 1000 Ang^3
#
#
#
# Elastic Constant Matrix: (Units=GPa)
#
#
# Indices 1 2 3 4 5 6 
#
# 1 92.7866 53.2271 17.2394 0.0000 0.0000 0.0000
# 2 53.2271 148.6061 39.0954 0.0000 0.0000 0.0000
# 3 17.2394 39.0954 29.5911 0.0000 0.0000 0.0000
# 4 0.0000 0.0000 0.0000 21.0401 0.0000 0.0000
# 5 0.0000 0.0000 0.0000 0.0000 10.9256 0.0000
# 6 0.0000 0.0000 0.0000 0.0000 0.0000 28.0401
#
#
#
# Elastic Compliance Matrix: (Units=1/GPa)
#
#
# Indices 1 2 3 4 5 6 
#
# 1 0.013665 -0.004292 -0.002291 0.000000 0.000000 0.000000
# 2 -0.004292 0.011662 -0.012908 0.000000 0.000000 0.000000
# 3 -0.002291 -0.012908 0.052182 0.000000 0.000000 0.000000
# 4 0.000000 0.000000 0.000000 0.047528 0.000000 0.000000
# 5 0.000000 0.000000 0.000000 0.000000 0.091528 0.000000
# 6 0.000000 0.000000 0.000000 0.000000 0.000000 0.035663
#
#
# Mechanical properties :
#
#
# Convention : Reuss Voigt Hill
#
# Bulk Modulus (GPa) = 25.95464 54.45640 40.20552
# Shear Modulus (GPa) = 16.44457 22.76262 19.60359
#
# Velocity S-wave (km/s) = 3.22302 3.79195 3.51900
# Velocity P-wave (km/s) = 5.49961 7.31924 6.47368
#
# Compressibility (1/GPa) = 0.03852876
#
# Stress axis : x y z
#
# Youngs Moduli (GPa) = 73.17945 85.74749 19.16375
#
# Poissons Ratio (x) = 0.36801 0.04390
# Poissons Ratio (y) = 0.31407 0.24736
# Poissons Ratio (z) = 0.16764 1.10679
#
# Static dielectric constant tensor:
#      x y z
#    x 1.572060 0.000000 0.000000 
#    y 0.000000 1.559390 0.000000 
#    z 0.000000 0.000000 1.538270 
# 
# From -- ./inp_files/18731.got.cif
#   From: 2010.05.17/outbox.cif.g08.bks.cpg/sg64_10_cif.got.tgz:18731.got - 2010.06.03 16:29:19.
