data_PCOD9476198
_publ_section_title
;
Structure prediction by ZEFSAII (Michael W. Deem and Ramdas Pophale) SiO2 
 PCOD9476198
Probable space group: C M C M
;
_chemical_formula_sum "Si O2"
_cell_formula_units_Z 52
_cell_length_a 21.000000
_cell_length_b 27.000000
_cell_length_c 9.000000
_cell_angle_alpha 90.000000
_cell_angle_beta 90.000000
_cell_angle_gamma 90.000000
_cell_volume 5103.000000
_symmetry_space_group_name_H-M "C M C M"
_symmetry_group_IT_number 63
_symmetry_cell_setting 'orthorhombic'
loop_
_space_group_symop_operation_xyz
x,y,z
-x,-y,1/2+z
x,-y,-z
-x,y,1/2-z
-x,-y,-z
x,y,1/2-z
-x,y,z
x,-y,1/2+z
1/2+x,1/2+y,z
1/2-x,1/2-y,1/2+z
1/2+x,1/2-y,-z
1/2-x,1/2+y,1/2-z
1/2-x,1/2-y,-z
1/2+x,1/2+y,1/2-z
1/2-x,1/2+y,z
1/2+x,1/2-y,1/2+z
loop_
_atom_site_type_symbol
_atom_site_label
_atom_site_fract_x
_atom_site_fract_y
_atom_site_fract_z
Si Si1 0.000000 0.947252 0.423307
Si Si2 0.428273 0.267779 0.569781
Si Si3 0.898426 0.880315 0.577511
Si Si4 0.820786 0.603867 0.926313
Si Si5 0.575620 0.948033 0.920026
Si Si6 0.785794 0.047157 0.078856
Si Si7 0.197928 0.714444 0.570686
O O1 0.940675 0.914961 0.475840
O O2 0.000000 0.954867 0.250000
O O3 0.000000 0.000000 0.500000
O O4 0.430535 0.265405 0.750000
O O5 0.500000 0.258790 0.514849
O O6 0.406162 0.323533 0.532194
O O7 0.372677 0.231123 0.521731
O O8 0.920010 0.883984 0.750000
O O9 0.829063 0.904026 0.571226
O O10 0.821838 0.600825 0.750000
O O11 0.793531 0.657275 0.969674
O O12 0.890321 0.595597 0.992110
O O13 0.778120 0.560597 0.993870
O O14 0.597886 0.949551 0.750000
O O15 0.500000 0.941728 0.921312
O O16 0.589535 0.000000 0.000000
O O17 0.774622 0.035143 0.250000
O O18 0.817430 0.000000 0.000000
O O19 0.201331 0.718832 0.750000
O O20 0.250000 0.750000 0.500000
#
# Coordination Sequence:
#
# PCOD9476198 Si02
#       7
#     8  16  16  16  16  16  16
#     4  12  24  36  54  80 114 150 188 234 283 338
#     4   9  17  34  62  88 113 148 194 240 284 345
#     4  10  20  37  60  84 111 148 192 237 286 339
#     4  11  23  38  58  86 121 156 194 243 296 354
#     4  10  21  38  61  88 119 156 196 240 293 354
#     4  11  23  38  59  85 116 155 198 243 293 350
#     4  10  22  39  61  89 117 154 197 245 301 352
#
# _framework density 10.190084000000001
#
# number of rings (size 3 to 8) (size 9 to 14) (size 15 to 20)
#    0.000    1.692    0.769    3.923    0.000    6.462 
#    0.000    2.308    0.000    0.000    0.000    0.000 
#    0.000    0.000    0.000    0.000    0.000    0.000 
#
# Total GULP energy -290305.142318 kJ/mol
# GULP energy per Si atom -5582.791198 kJ/mol
# Density = 1.016689 g / cm^3
# Si number density = 10.190084 Si / 1000 Ang^3
#
#
#
# Elastic Constant Matrix: (Units=GPa)
#
#
# Indices 1 2 3 4 5 6 
#
# 1 77.9298 35.1746 32.1840 0.0000 0.0000 0.0000
# 2 35.1746 71.0434 43.8596 0.0000 0.0000 0.0000
# 3 32.1840 43.8596 72.5253 0.0000 0.0000 0.0000
# 4 0.0000 0.0000 0.0000 22.7622 0.0000 0.0000
# 5 0.0000 0.0000 0.0000 0.0000 -32.0511 0.0000
# 6 0.0000 0.0000 0.0000 0.0000 0.0000 39.7450
#
#
#
# Elastic Compliance Matrix: (Units=1/GPa)
#
#
# Indices 1 2 3 4 5 6 
#
# 1 0.017211 -0.006074 -0.003964 0.000000 0.000000 0.000000
# 2 -0.006074 0.024606 -0.012185 0.000000 0.000000 0.000000
# 3 -0.003964 -0.012185 0.022916 0.000000 0.000000 0.000000
# 4 0.000000 0.000000 0.000000 0.043932 0.000000 0.000000
# 5 0.000000 0.000000 0.000000 0.000000 -0.031200 0.000000
# 6 0.000000 0.000000 0.000000 0.000000 0.000000 0.025160
#
#
# Mechanical properties :
#
#
# Convention : Reuss Voigt Hill
#
# Bulk Modulus (GPa) = 49.29367 49.32609 49.30988
# Shear Modulus (GPa) = 32.50260 13.44325 22.97292
#
# Velocity S-wave (km/s) = 3.99785 2.57110 3.36105
# Velocity P-wave (km/s) = 6.74907 5.75062 6.26975
#
# Compressibility (1/GPa) = 0.02028658
#
# Stress axis : x y z
#
# Youngs Moduli (GPa) = 58.10310 40.64103 43.63700
#
# Poissons Ratio (x) = 0.24685 0.17299
# Poissons Ratio (y) = 0.35291 0.53171
# Poissons Ratio (z) = 0.23034 0.49521
#
# Static dielectric constant tensor:
#      x y z
#    x 1.776750 0.000000 0.000000 
#    y 0.000000 1.858650 0.000000 
#    z 0.000000 0.000000 1.718620 
# 
# From -- ./inp_files/8800.got.cif
#   From: 2010.05.17/outbox.ucp.g08.bks.cvg/sg63_5_cif.got.tgz:8800.got - 2010.06.11 16:32:19.
