data_PCOD9476349
_publ_section_title
;
Structure prediction by ZEFSAII (Michael W. Deem and Ramdas Pophale) SiO2 
 PCOD9476349
Probable space group: C M C A
;
_chemical_formula_sum "Si O2"
_cell_formula_units_Z 72
_cell_length_a 34.242665
_cell_length_b 5.295221
_cell_length_c 23.910775
_cell_angle_alpha 90.000000
_cell_angle_beta 90.000000
_cell_angle_gamma 90.000000
_cell_volume 4335.560993
_symmetry_space_group_name_H-M "C M C A"
_symmetry_group_IT_number 64
_symmetry_cell_setting 'orthorhombic'
loop_
_space_group_symop_operation_xyz
x,y,z
-x,1/2-y,1/2+z
x,-y,-z
-x,1/2+y,1/2-z
-x,-y,-z
x,1/2+y,1/2-z
-x,y,z
x,1/2-y,1/2+z
1/2+x,1/2+y,z
1/2-x,-y,1/2+z
1/2+x,1/2-y,-z
1/2-x,y,1/2-z
1/2-x,1/2-y,-z
1/2+x,y,1/2-z
1/2-x,1/2+y,z
1/2+x,-y,1/2+z
loop_
_atom_site_type_symbol
_atom_site_label
_atom_site_fract_x
_atom_site_fract_y
_atom_site_fract_z
Si Si1 0.266887 0.921058 0.313521
Si Si2 0.046634 0.464165 0.066238
Si Si3 0.000000 0.949349 0.785938
Si Si4 0.142530 0.024960 0.787597
Si Si5 0.071406 0.028926 0.870506
O O1 0.250000 0.898233 0.250000
O O2 0.255431 0.655897 0.340456
O O3 0.312748 0.967577 0.308527
O O4 0.066478 0.208040 0.087996
O O5 0.000000 0.445759 0.077508
O O6 0.063093 0.708195 0.098280
O O7 0.051674 0.500000 0.000000
O O8 0.961937 0.991203 0.823638
O O9 0.000000 0.667641 0.761003
O O10 0.136575 0.271427 0.748748
O O11 0.112424 0.030220 0.838547
#
# Coordination Sequence:
#
# PCOD9476349 Si02
#       5
#    16  16   8  16  16
#     4  10  16  30  49  70 103 146 179 215 245 293
#     4  11  22  41  62  77  97 135 185 248 288 306
#     4  12  22  36  49  70 113 154 174 202 242 312
#     4  12  21  33  51  78 114 154 175 211 256 312
#     4  12  23  37  54  81 108 138 191 218 263 336
#
# _framework density 16.606846999999998
#
# number of rings (size 3 to 8) (size 9 to 14) (size 15 to 20)
#    0.000    0.667    6.667    4.667    0.000    1.778 
#    0.000    0.000    0.000    0.000    0.000    0.000 
#    0.000   17.778    0.000    0.000    0.000    0.000 
#
# Total GULP energy -201092.613210 kJ/mol
# GULP energy per Si atom -5585.905923 kJ/mol
# Density = 1.656905 g / cm^3
# Si number density = 16.606847 Si / 1000 Ang^3
#
#
#
# Elastic Constant Matrix: (Units=GPa)
#
#
# Indices 1 2 3 4 5 6 
#
# 1 93.2088 -15.6592 25.2015 0.0000 0.0000 0.0000
# 2 -15.6592 81.7733 -3.9961 0.0000 0.0000 0.0000
# 3 25.2015 -3.9961 35.3701 0.0000 0.0000 0.0000
# 4 0.0000 0.0000 0.0000 8.9474 0.0000 0.0000
# 5 0.0000 0.0000 0.0000 0.0000 -1.7088 0.0000
# 6 0.0000 0.0000 0.0000 0.0000 0.0000 16.5096
#
#
#
# Elastic Compliance Matrix: (Units=1/GPa)
#
#
# Indices 1 2 3 4 5 6 
#
# 1 0.013655 0.002151 -0.009486 0.000000 0.000000 0.000000
# 2 0.002151 0.012636 -0.000105 0.000000 0.000000 0.000000
# 3 -0.009486 -0.000105 0.035020 0.000000 0.000000 0.000000
# 4 0.000000 0.000000 0.000000 0.111764 0.000000 0.000000
# 5 0.000000 0.000000 0.000000 0.000000 -0.585199 0.000000
# 6 0.000000 0.000000 0.000000 0.000000 0.000000 0.060571
#
#
# Mechanical properties :
#
#
# Convention : Reuss Voigt Hill
#
# Bulk Modulus (GPa) = 21.53781 24.60493 23.07137
# Shear Modulus (GPa) = -15.56674 18.40337 1.41832
#
# Velocity S-wave (km/s) = -3.06497 3.33255 0.92515
# Velocity P-wave (km/s) = 0.68702 5.44574 3.88124
#
# Compressibility (1/GPa) = 0.04642998
#
# Stress axis : x y z
#
# Youngs Moduli (GPa) = 73.23402 79.14054 28.55549
#
# Poissons Ratio (x) = -0.17025 0.27088
# Poissons Ratio (y) = -0.15755 0.00300
# Poissons Ratio (z) = 0.69471 0.00833
#
# Static dielectric constant tensor:
#      x y z
#    x 1.542390 0.000000 0.000000 
#    y 0.000000 1.621060 0.000000 
#    z 0.000000 0.000000 3.004500 
# 
# From -- ./inp_files/47013.got.cif
#   From: 2010.05.17/outbox.cif.g08.bks.cpg/sg64_24_cif.got.tgz:47013.got - 2010.06.03 16:29:19.
