data_PCOD9476712
_publ_section_title
;
Structure prediction by ZEFSAII (Michael W. Deem and Ramdas Pophale) SiO2 
 PCOD9476712
Probable space group: C M C A
;
_chemical_formula_sum "Si O2"
_cell_formula_units_Z 56
_cell_length_a 5.652513
_cell_length_b 17.276532
_cell_length_c 21.648413
_cell_angle_alpha 90.000000
_cell_angle_beta 90.000000
_cell_angle_gamma 90.000000
_cell_volume 2114.093561
_symmetry_space_group_name_H-M "C M C A"
_symmetry_group_IT_number 64
_symmetry_cell_setting 'orthorhombic'
loop_
_space_group_symop_operation_xyz
x,y,z
-x,1/2-y,1/2+z
x,-y,-z
-x,1/2+y,1/2-z
-x,-y,-z
x,1/2+y,1/2-z
-x,y,z
x,1/2-y,1/2+z
1/2+x,1/2+y,z
1/2-x,-y,1/2+z
1/2+x,1/2-y,-z
1/2-x,y,1/2-z
1/2-x,1/2-y,-z
1/2+x,y,1/2-z
1/2-x,1/2+y,z
1/2+x,-y,1/2+z
loop_
_atom_site_type_symbol
_atom_site_label
_atom_site_fract_x
_atom_site_fract_y
_atom_site_fract_z
Si Si1 0.500000 0.648557 0.109913
Si Si2 0.500000 0.693692 0.535539
Si Si3 0.249183 0.996539 0.574067
Si Si4 0.000000 0.598483 0.252512
Si Si5 0.000000 0.185764 0.927229
Si Si6 0.500000 0.765995 0.285349
O O1 0.500000 0.733594 0.083172
O O2 0.716763 0.595083 0.087732
O O3 0.500000 0.643915 0.182718
O O4 0.747283 0.651262 0.549976
O O5 0.500000 0.734824 0.468936
O O6 0.500000 0.029187 0.598641
O O7 0.000000 0.020932 0.601894
O O8 0.244681 0.000000 0.500000
O O9 0.250000 0.554764 0.250000
O O10 0.000000 0.672060 0.207128
O O11 0.000000 0.200021 0.854505
O O12 0.250000 0.785749 0.250000
#
# Coordination Sequence:
#
# PCOD9476712 Si02
#       6
#     8   8  16   8   8   8
#     4  10  19  28  48  64  90 116 157 183 222 264
#     4  10  20  29  48  62  89 120 151 196 229 265
#     4   8  16  28  43  64  88 111 135 170 217 265
#     4  10  20  27  38  60  87 117 148 178 210 258
#     4  10  20  34  41  63  90 121 156 187 231 265
#     4  10  18  30  45  57  80 118 153 182 213 270
#
# _framework density 26.488893000000001
#
# number of rings (size 3 to 8) (size 9 to 14) (size 15 to 20)
#    0.857    1.714    0.000    4.286    4.000    0.000 
#    0.000    0.000    0.000    0.000    0.000    0.000 
#    0.000    9.143    0.000    0.000    0.000    0.000 
#
# Total GULP energy -156386.078522 kJ/mol
# GULP energy per Si atom -5585.217090 kJ/mol
# Density = 2.642860 g / cm^3
# Si number density = 26.488893 Si / 1000 Ang^3
#
#
#
# Elastic Constant Matrix: (Units=GPa)
#
#
# Indices 1 2 3 4 5 6 
#
# 1 342.3764 36.4433 45.6178 0.0000 0.0000 0.0000
# 2 36.4433 47.6727 11.1241 0.0000 0.0000 0.0000
# 3 45.6178 11.1241 122.0374 0.0000 0.0000 0.0000
# 4 0.0000 0.0000 0.0000 16.7567 0.0000 0.0000
# 5 0.0000 0.0000 0.0000 0.0000 21.6368 0.0000
# 6 0.0000 0.0000 0.0000 0.0000 0.0000 15.3404
#
#
#
# Elastic Compliance Matrix: (Units=1/GPa)
#
#
# Indices 1 2 3 4 5 6 
#
# 1 0.003300 -0.002284 -0.001026 0.000000 0.000000 0.000000
# 2 -0.002284 0.023012 -0.001244 0.000000 0.000000 0.000000
# 3 -0.001026 -0.001244 0.008691 0.000000 0.000000 0.000000
# 4 0.000000 0.000000 0.000000 0.059677 0.000000 0.000000
# 5 0.000000 0.000000 0.000000 0.000000 0.046218 0.000000
# 6 0.000000 0.000000 0.000000 0.000000 0.000000 0.065187
#
#
# Mechanical properties :
#
#
# Convention : Reuss Voigt Hill
#
# Bulk Modulus (GPa) = 38.61402 77.60630 58.11016
# Shear Modulus (GPa) = 22.33884 38.67354 30.50619
#
# Velocity S-wave (km/s) = 2.90716 3.82513 3.39729
# Velocity P-wave (km/s) = 5.08703 6.99071 6.11343
#
# Compressibility (1/GPa) = 0.02589733
#
# Stress axis : x y z
#
# Youngs Moduli (GPa) = 302.98502 43.45472 115.06212
#
# Poissons Ratio (x) = 0.09924 0.11800
# Poissons Ratio (y) = 0.69194 0.14314
# Poissons Ratio (z) = 0.31073 0.05406
#
# Static dielectric constant tensor:
#      x y z
#    x 2.288670 0.000000 0.000000 
#    y 0.000000 2.104500 0.000000 
#    z 0.000000 0.000000 2.056100 
# 
# From -- ./inp_files/35929.got.cif
#   From: 2010.05.17/outbox.cif.g08.bks.cpg/sg64_18_cif.got.tgz:35929.got - 2010.06.03 16:29:19.
