data_PCOD9476674
_publ_section_title
;
Structure prediction by ZEFSAII (Michael W. Deem and Ramdas Pophale) SiO2 
 PCOD9476674
Probable space group: C M C A
;
_chemical_formula_sum "Si O2"
_cell_formula_units_Z 80
_cell_length_a 7.734895
_cell_length_b 26.908472
_cell_length_c 20.278830
_cell_angle_alpha 90.000000
_cell_angle_beta 90.000000
_cell_angle_gamma 90.000000
_cell_volume 4220.718171
_symmetry_space_group_name_H-M "C M C A"
_symmetry_group_IT_number 64
_symmetry_cell_setting 'orthorhombic'
loop_
_space_group_symop_operation_xyz
x,y,z
-x,1/2-y,1/2+z
x,-y,-z
-x,1/2+y,1/2-z
-x,-y,-z
x,1/2+y,1/2-z
-x,y,z
x,1/2-y,1/2+z
1/2+x,1/2+y,z
1/2-x,-y,1/2+z
1/2+x,1/2-y,-z
1/2-x,y,1/2-z
1/2-x,1/2-y,-z
1/2+x,y,1/2-z
1/2-x,1/2+y,z
1/2+x,-y,1/2+z
loop_
_atom_site_type_symbol
_atom_site_label
_atom_site_fract_x
_atom_site_fract_y
_atom_site_fract_z
Si Si1 0.211978 0.022143 0.571006
Si Si2 0.703933 0.845743 0.590258
Si Si3 0.702444 0.632416 0.558956
Si Si4 0.205671 0.060164 0.326118
Si Si5 0.707467 0.739242 0.576527
O O1 0.275472 0.078754 0.577897
O O2 0.000000 0.023333 0.571260
O O3 0.262843 0.000000 0.500000
O O4 0.270783 0.984970 0.628225
O O5 0.500000 0.841554 0.576447
O O6 0.786662 0.862282 0.520713
O O7 0.730422 0.887736 0.644381
O O8 0.767292 0.790426 0.610581
O O9 0.500000 0.631195 0.576564
O O10 0.777234 0.683671 0.589141
O O11 0.250000 0.053975 0.250000
O O12 0.000000 0.060830 0.332987
O O13 0.500000 0.736135 0.584443
O O14 0.750000 0.750000 0.500000
#
# Coordination Sequence:
#
# PCOD9476674 Si02
#       5
#    16  16  16  16  16
#     4   9  16  29  51  75  96 125 167 206 243 294
#     4  10  18  29  45  71 102 129 160 200 244 290
#     4   9  15  28  49  72  97 129 164 200 243 288
#     4  11  22  36  52  71  97 130 166 205 249 301
#     4   8  15  25  42  68  97 125 155 192 234 281
#
# _framework density 18.954121000000001
#
# number of rings (size 3 to 8) (size 9 to 14) (size 15 to 20)
#    0.000    2.600    2.000    1.200    0.000    0.800 
#    0.000    3.000    0.000    1.200    0.000    2.800 
#    0.000    0.000    0.000    0.000    0.000    0.000 
#
# Total GULP energy -222807.577168 kJ/mol
# GULP energy per Si atom -5570.189429 kJ/mol
# Density = 1.891098 g / cm^3
# Si number density = 18.954121 Si / 1000 Ang^3
#
#
#
# Elastic Constant Matrix: (Units=GPa)
#
#
# Indices 1 2 3 4 5 6 
#
# 1 31.4478 5.6464 -8.8726 0.0000 0.0000 0.0000
# 2 5.6464 247.6651 73.6472 0.0000 0.0000 0.0000
# 3 -8.8726 73.6472 71.8454 0.0000 0.0000 0.0000
# 4 0.0000 0.0000 0.0000 17.9490 0.0000 0.0000
# 5 0.0000 0.0000 0.0000 0.0000 12.3213 0.0000
# 6 0.0000 0.0000 0.0000 0.0000 0.0000 7.5182
#
#
#
# Elastic Compliance Matrix: (Units=1/GPa)
#
#
# Indices 1 2 3 4 5 6 
#
# 1 0.034376 -0.002943 0.007262 0.000000 0.000000 0.000000
# 2 -0.002943 0.006060 -0.006576 0.000000 0.000000 0.000000
# 3 0.007262 -0.006576 0.021556 0.000000 0.000000 0.000000
# 4 0.000000 0.000000 0.000000 0.055713 0.000000 0.000000
# 5 0.000000 0.000000 0.000000 0.000000 0.081160 0.000000
# 6 0.000000 0.000000 0.000000 0.000000 0.000000 0.133011
#
#
# Mechanical properties :
#
#
# Convention : Reuss Voigt Hill
#
# Bulk Modulus (GPa) = 17.39750 54.64449 36.02100
# Shear Modulus (GPa) = 14.06272 26.26019 20.16146
#
# Velocity S-wave (km/s) = 2.72680 3.72622 3.26498
# Velocity P-wave (km/s) = 4.37180 6.88516 5.76706
#
# Compressibility (1/GPa) = 0.05747953
#
# Stress axis : x y z
#
# Youngs Moduli (GPa) = 29.08988 165.01123 46.39029
#
# Poissons Ratio (x) = 0.48568 -0.33691
# Poissons Ratio (y) = 0.08562 0.30505
# Poissons Ratio (z) = -0.21126 1.08506
#
# Static dielectric constant tensor:
#      x y z
#    x 1.713560 0.000000 0.000000 
#    y 0.000000 1.745440 0.000000 
#    z 0.000000 0.000000 1.573080 
# 
# From -- ./inp_files/29746.got.cif
#   From: 2010.05.17/outbox.cif.g08.bks.cpg/sg64_15_cif.got.tgz:29746.got - 2010.06.03 16:29:19.
