data_PCOD9476346
_publ_section_title
;
Structure prediction by ZEFSAII (Michael W. Deem and Ramdas Pophale) SiO2 
 PCOD9476346
Probable space group: C M C A
;
_chemical_formula_sum "Si O2"
_cell_formula_units_Z 80
_cell_length_a 18.000848
_cell_length_b 27.086485
_cell_length_c 8.312241
_cell_angle_alpha 90.000000
_cell_angle_beta 90.000000
_cell_angle_gamma 90.000000
_cell_volume 4052.879968
_symmetry_space_group_name_H-M "C M C A"
_symmetry_group_IT_number 64
_symmetry_cell_setting 'orthorhombic'
loop_
_space_group_symop_operation_xyz
x,y,z
-x,1/2-y,1/2+z
x,-y,-z
-x,1/2+y,1/2-z
-x,-y,-z
x,1/2+y,1/2-z
-x,y,z
x,1/2-y,1/2+z
1/2+x,1/2+y,z
1/2-x,-y,1/2+z
1/2+x,1/2-y,-z
1/2-x,y,1/2-z
1/2-x,1/2-y,-z
1/2+x,y,1/2-z
1/2-x,1/2+y,z
1/2+x,-y,1/2+z
loop_
_atom_site_type_symbol
_atom_site_label
_atom_site_fract_x
_atom_site_fract_y
_atom_site_fract_z
Si Si1 0.415360 0.698942 0.013306
Si Si2 0.171713 0.215082 0.333608
Si Si3 0.250000 0.450699 0.750000
Si Si4 0.367984 0.600269 0.854556
Si Si5 0.857926 0.000000 0.000000
Si Si6 0.801420 0.116716 0.521599
O O1 0.500000 0.716540 0.023754
O O2 0.380492 0.694717 0.190905
O O3 0.365972 0.737991 0.915168
O O4 0.411758 0.647055 0.921044
O O5 0.250000 0.227675 0.250000
O O6 0.185344 0.172690 0.466032
O O7 0.196586 0.483621 0.643016
O O8 0.301564 0.416732 0.637503
O O9 0.396692 0.549163 0.931877
O O10 0.283083 0.609157 0.916802
O O11 0.357815 0.600738 0.661868
#
# Coordination Sequence:
#
# PCOD9476346 Si02
#       6
#    16  16   8  16   8  16
#     4  12  26  41  59  89 128 164 202 254 316 373
#     4  12  22  40  63  91 121 164 211 252 306 376
#     4  10  16  30  48  88 124 146 194 252 320 346
#     4  10  21  36  58  87 121 159 203 253 309 358
#     4  10  18  32  55  84 120 162 201 252 304 368
#     4  10  19  34  60  91 120 155 200 259 302 366
#
# _framework density 19.739049999999999
#
# number of rings (size 3 to 8) (size 9 to 14) (size 15 to 20)
#    0.000    1.200    3.000    6.000    2.800    0.000 
#    0.000    1.500    0.000    0.000    0.000    2.800 
#    0.000    0.000    0.000    0.000    0.000    0.000 
#
# Total GULP energy -223508.766080 kJ/mol
# GULP energy per Si atom -5587.719152 kJ/mol
# Density = 1.969412 g / cm^3
# Si number density = 19.739050 Si / 1000 Ang^3
#
#
#
# Elastic Constant Matrix: (Units=GPa)
#
#
# Indices 1 2 3 4 5 6 
#
# 1 58.3681 20.1277 14.7969 0.0000 0.0000 0.0000
# 2 20.1277 136.0377 45.8919 0.0000 0.0000 0.0000
# 3 14.7969 45.8919 111.9287 0.0000 0.0000 0.0000
# 4 0.0000 0.0000 0.0000 39.0172 0.0000 0.0000
# 5 0.0000 0.0000 0.0000 0.0000 3.2427 0.0000
# 6 0.0000 0.0000 0.0000 0.0000 0.0000 -22.2304
#
#
#
# Elastic Compliance Matrix: (Units=1/GPa)
#
#
# Indices 1 2 3 4 5 6 
#
# 1 0.018273 -0.002192 -0.001517 0.000000 0.000000 0.000000
# 2 -0.002192 0.008794 -0.003316 0.000000 0.000000 0.000000
# 3 -0.001517 -0.003316 0.010494 0.000000 0.000000 0.000000
# 4 0.000000 0.000000 0.000000 0.025630 0.000000 0.000000
# 5 0.000000 0.000000 0.000000 0.000000 0.308380 0.000000
# 6 0.000000 0.000000 0.000000 0.000000 0.000000 -0.044983
#
#
# Mechanical properties :
#
#
# Convention : Reuss Voigt Hill
#
# Bulk Modulus (GPa) = 42.53170 51.99638 47.26404
# Shear Modulus (GPa) = 14.34825 19.04043 16.69434
#
# Velocity S-wave (km/s) = 2.69903 3.10918 2.91134
# Velocity P-wave (km/s) = 5.59524 6.26805 5.94118
#
# Compressibility (1/GPa) = 0.02351187
#
# Stress axis : x y z
#
# Youngs Moduli (GPa) = 54.72532 113.71693 95.28976
#
# Poissons Ratio (x) = 0.24925 0.14455
# Poissons Ratio (y) = 0.11995 0.31596
# Poissons Ratio (z) = 0.08302 0.37706
#
# Static dielectric constant tensor:
#      x y z
#    x 1.654540 0.000000 0.000000 
#    y 0.000000 1.720940 0.000000 
#    z 0.000000 0.000000 1.695770 
# 
# From -- ./inp_files/7150.got.cif
#   From: 2010.05.17/outbox.cif.g08.bks.cpg/sg64_4_cif.got.tgz:7150.got - 2010.06.03 16:29:19.
