data_PCOD9476881
_publ_section_title
;
Structure prediction by ZEFSAII (Michael W. Deem and Ramdas Pophale) SiO2 
 PCOD9476881
Probable space group: C M C A
;
_chemical_formula_sum "Si O2"
_cell_formula_units_Z 88
_cell_length_a 24.445850
_cell_length_b 21.632905
_cell_length_c 9.076117
_cell_angle_alpha 90.000000
_cell_angle_beta 90.000000
_cell_angle_gamma 90.000000
_cell_volume 4799.766071
_symmetry_space_group_name_H-M "C M C A"
_symmetry_group_IT_number 64
_symmetry_cell_setting 'orthorhombic'
loop_
_space_group_symop_operation_xyz
x,y,z
-x,1/2-y,1/2+z
x,-y,-z
-x,1/2+y,1/2-z
-x,-y,-z
x,1/2+y,1/2-z
-x,y,z
x,1/2-y,1/2+z
1/2+x,1/2+y,z
1/2-x,-y,1/2+z
1/2+x,1/2-y,-z
1/2-x,y,1/2-z
1/2-x,1/2-y,-z
1/2+x,y,1/2-z
1/2-x,1/2+y,z
1/2+x,-y,1/2+z
loop_
_atom_site_type_symbol
_atom_site_label
_atom_site_fract_x
_atom_site_fract_y
_atom_site_fract_z
Si Si1 0.179601 0.652429 0.831066
Si Si2 0.063292 0.335963 0.808171
Si Si3 0.390819 0.254278 0.939491
Si Si4 0.356396 0.059398 0.083096
Si Si5 0.289379 0.338929 0.025779
Si Si6 0.750000 0.079756 0.250000
O O1 0.232809 0.685929 0.903587
O O2 0.190083 0.624024 0.670682
O O3 0.131912 0.702649 0.826503
O O4 0.164936 0.601628 0.949713
O O5 0.073344 0.303088 0.651032
O O6 0.080634 0.285219 0.931960
O O7 0.101748 0.396269 0.829203
O O8 0.000000 0.352051 0.827070
O O9 0.337127 0.290726 0.994284
O O10 0.302227 0.044511 0.180705
O O11 0.380499 0.000000 0.000000
O O12 0.274595 0.377181 0.880467
#
# Coordination Sequence:
#
# PCOD9476881 Si02
#       6
#    16  16  16  16  16   8
#     4   9  20  32  52  83 118 150 180 227 293 344
#     4  11  23  38  59  85 115 154 199 242 288 334
#     4  11  19  35  55  83 115 147 190 237 288 342
#     4  10  22  39  58  84 116 153 196 237 285 340
#     4  10  18  32  52  84 116 149 175 229 290 350
#     4  10  20  34  58  84 114 146 192 234 284 350
#
# _framework density 18.334226999999998
#
# number of rings (size 3 to 8) (size 9 to 14) (size 15 to 20)
#    0.000    1.818    3.636    1.091    0.000    4.727 
#    0.000    0.000    0.000    0.000    0.000    1.273 
#    0.000    0.000    0.000    0.000    0.000    0.000 
#
# Total GULP energy -244945.143897 kJ/mol
# GULP energy per Si atom -5566.935089 kJ/mol
# Density = 1.829250 g / cm^3
# Si number density = 18.334227 Si / 1000 Ang^3
#
#
#
# Elastic Constant Matrix: (Units=GPa)
#
#
# Indices 1 2 3 4 5 6 
#
# 1 77.3976 29.8148 4.9222 0.0000 0.0000 0.0000
# 2 29.8148 49.4460 8.1943 0.0000 0.0000 0.0000
# 3 4.9222 8.1943 65.1009 0.0000 0.0000 0.0000
# 4 0.0000 0.0000 0.0000 10.8978 0.0000 0.0000
# 5 0.0000 0.0000 0.0000 0.0000 14.8077 0.0000
# 6 0.0000 0.0000 0.0000 0.0000 0.0000 8.8852
#
#
#
# Elastic Compliance Matrix: (Units=1/GPa)
#
#
# Indices 1 2 3 4 5 6 
#
# 1 0.016829 -0.010149 0.000005 0.000000 0.000000 0.000000
# 2 -0.010149 0.026775 -0.002603 0.000000 0.000000 0.000000
# 3 0.000005 -0.002603 0.015688 0.000000 0.000000 0.000000
# 4 0.000000 0.000000 0.000000 0.091761 0.000000 0.000000
# 5 0.000000 0.000000 0.000000 0.000000 0.067533 0.000000
# 6 0.000000 0.000000 0.000000 0.000000 0.000000 0.112547
#
#
# Mechanical properties :
#
#
# Convention : Reuss Voigt Hill
#
# Bulk Modulus (GPa) = 29.58641 30.86745 30.22693
# Shear Modulus (GPa) = 13.59094 16.85235 15.22164
#
# Velocity S-wave (km/s) = 2.72561 3.03508 2.88450
# Velocity P-wave (km/s) = 5.10662 5.39952 5.25511
#
# Compressibility (1/GPa) = 0.03379930
#
# Stress axis : x y z
#
# Youngs Moduli (GPa) = 59.42003 37.34868 63.74292
#
# Poissons Ratio (x) = 0.37903 -0.00031
# Poissons Ratio (y) = 0.60302 0.16591
# Poissons Ratio (z) = -0.00029 0.09721
#
# Static dielectric constant tensor:
#      x y z
#    x 1.663060 0.000000 0.000000 
#    y 0.000000 1.635390 0.000000 
#    z 0.000000 0.000000 1.658070 
# 
# From -- ./inp_files/9352.got.cif
#   From: 2010.05.17/outbox.cif.g08.bks.cpg/sg64_5_cif.got.tgz:9352.got - 2010.06.03 16:29:19.
