data_PCOD9476743
_publ_section_title
;
Structure prediction by ZEFSAII (Michael W. Deem and Ramdas Pophale) SiO2 
 PCOD9476743
Probable space group: C M C A
;
_chemical_formula_sum "Si O2"
_cell_formula_units_Z 96
_cell_length_a 7.958973
_cell_length_b 21.266506
_cell_length_c 29.433296
_cell_angle_alpha 90.000000
_cell_angle_beta 90.000000
_cell_angle_gamma 90.000000
_cell_volume 4981.866349
_symmetry_space_group_name_H-M "C M C A"
_symmetry_group_IT_number 64
_symmetry_cell_setting 'orthorhombic'
loop_
_space_group_symop_operation_xyz
x,y,z
-x,1/2-y,1/2+z
x,-y,-z
-x,1/2+y,1/2-z
-x,-y,-z
x,1/2+y,1/2-z
-x,y,z
x,1/2-y,1/2+z
1/2+x,1/2+y,z
1/2-x,-y,1/2+z
1/2+x,1/2-y,-z
1/2-x,y,1/2-z
1/2-x,1/2-y,-z
1/2+x,y,1/2-z
1/2-x,1/2+y,z
1/2+x,-y,1/2+z
loop_
_atom_site_type_symbol
_atom_site_label
_atom_site_fract_x
_atom_site_fract_y
_atom_site_fract_z
Si Si1 0.205831 0.496086 0.895962
Si Si2 0.298274 0.249958 0.393700
Si Si3 0.700052 0.196121 0.300151
Si Si4 0.703236 0.372193 0.548774
Si Si5 0.294039 0.624679 0.555977
Si Si6 0.699391 0.950252 0.800140
O O1 0.258459 0.434804 0.924575
O O2 0.259686 0.560450 0.919660
O O3 0.264696 0.487424 0.844034
O O4 0.000000 0.496427 0.895933
O O5 0.500000 0.256068 0.390484
O O6 0.232252 0.234874 0.343111
O O7 0.260649 0.189997 0.425118
O O8 0.235551 0.313795 0.416832
O O9 0.500000 0.197317 0.302220
O O10 0.750000 0.218498 0.250000
O O11 0.752335 0.123150 0.304617
O O12 0.500000 0.372342 0.548931
O O13 0.759669 0.372942 0.496512
O O14 0.500000 0.624939 0.555746
O O15 0.500000 0.953022 0.801935
O O16 0.750000 0.972406 0.750000
#
# Coordination Sequence:
#
# PCOD9476743 Si02
#       6
#    16  16  16  16  16  16
#     4   9  17  30  50  76 100 127 166 208 243 282
#     4  10  20  33  50  74 103 133 161 200 253 298
#     4  10  19  31  49  72  97 126 162 202 243 291
#     4  10  18  31  54  77  97 128 172 211 238 282
#     4   9  18  32  50  73 102 133 166 203 244 291
#     4  10  18  30  50  75  99 124 160 205 248 290
#
# _framework density 19.269886
#
# number of rings (size 3 to 8) (size 9 to 14) (size 15 to 20)
#    0.000    2.333    1.667    3.000    0.000    2.667 
#    0.000    0.833    0.000    7.000    0.000    0.000 
#    0.000    0.000    0.000    0.000    0.000    0.000 
#
# Total GULP energy -267871.150975 kJ/mol
# GULP energy per Si atom -5580.648979 kJ/mol
# Density = 1.922603 g / cm^3
# Si number density = 19.269886 Si / 1000 Ang^3
#
#
#
# Elastic Constant Matrix: (Units=GPa)
#
#
# Indices 1 2 3 4 5 6 
#
# 1 16.0690 -3.1025 5.8731 0.0000 0.0000 0.0000
# 2 -3.1025 132.3993 85.7916 0.0000 0.0000 0.0000
# 3 5.8731 85.7916 203.6246 0.0000 0.0000 0.0000
# 4 0.0000 0.0000 0.0000 2.5090 0.0000 0.0000
# 5 0.0000 0.0000 0.0000 0.0000 -13.3187 0.0000
# 6 0.0000 0.0000 0.0000 0.0000 0.0000 6.0988
#
#
#
# Elastic Compliance Matrix: (Units=1/GPa)
#
#
# Indices 1 2 3 4 5 6 
#
# 1 0.064199 0.003720 -0.003419 0.000000 0.000000 0.000000
# 2 0.003720 0.010605 -0.004575 0.000000 0.000000 0.000000
# 3 -0.003419 -0.004575 0.006937 0.000000 0.000000 0.000000
# 4 0.000000 0.000000 0.000000 0.398565 0.000000 0.000000
# 5 0.000000 0.000000 0.000000 0.000000 -0.075083 0.000000
# 6 0.000000 0.000000 0.000000 0.000000 0.000000 0.163968
#
#
# Mechanical properties :
#
#
# Convention : Reuss Voigt Hill
#
# Bulk Modulus (GPa) = 13.66264 58.80194 36.23229
# Shear Modulus (GPa) = 8.30375 16.62654 12.46514
#
# Velocity S-wave (km/s) = 2.07811 2.94057 2.54613
# Velocity P-wave (km/s) = 3.58659 6.48926 5.24281
#
# Compressibility (1/GPa) = 0.07319229
#
# Stress axis : x y z
#
# Youngs Moduli (GPa) = 15.57652 94.29725 144.14857
#
# Poissons Ratio (x) = -0.35076 0.49283
# Poissons Ratio (y) = -0.05794 0.65952
# Poissons Ratio (z) = 0.05325 0.43144
#
# Static dielectric constant tensor:
#      x y z
#    x 1.693690 0.000000 0.000000 
#    y 0.000000 1.633310 0.000000 
#    z 0.000000 0.000000 1.699680 
# 
# From -- ./inp_files/48096.got.cif
#   From: 2010.05.17/outbox.cif.g08.bks.cpg/sg64_25_cif.got.tgz:48096.got - 2010.06.03 16:29:19.
