data_PCOD9476606
_publ_section_title
;
Structure prediction by ZEFSAII (Michael W. Deem and Ramdas Pophale) SiO2 
 PCOD9476606
Probable space group: C M C A
;
_chemical_formula_sum "Si O2"
_cell_formula_units_Z 96
_cell_length_a 14.629382
_cell_length_b 11.782720
_cell_length_c 26.737985
_cell_angle_alpha 90.000000
_cell_angle_beta 90.000000
_cell_angle_gamma 90.000000
_cell_volume 4608.931070
_symmetry_space_group_name_H-M "C M C A"
_symmetry_group_IT_number 64
_symmetry_cell_setting 'orthorhombic'
loop_
_space_group_symop_operation_xyz
x,y,z
-x,1/2-y,1/2+z
x,-y,-z
-x,1/2+y,1/2-z
-x,-y,-z
x,1/2+y,1/2-z
-x,y,z
x,1/2-y,1/2+z
1/2+x,1/2+y,z
1/2-x,-y,1/2+z
1/2+x,1/2-y,-z
1/2-x,y,1/2-z
1/2-x,1/2-y,-z
1/2+x,y,1/2-z
1/2-x,1/2+y,z
1/2+x,-y,1/2+z
loop_
_atom_site_type_symbol
_atom_site_label
_atom_site_fract_x
_atom_site_fract_y
_atom_site_fract_z
Si Si1 0.895098 0.722454 0.625832
Si Si2 0.644949 0.661388 0.766802
Si Si3 0.401087 0.902400 0.165302
Si Si4 0.600510 0.651043 0.199362
Si Si5 0.105360 0.490702 0.440964
Si Si6 0.247439 0.572961 0.134521
O O1 0.877632 0.647488 0.675783
O O2 0.885326 0.638136 0.579081
O O3 0.820259 0.821073 0.627597
O O4 0.000000 0.763955 0.627131
O O5 0.750000 0.663115 0.750000
O O6 0.601591 0.577601 0.725717
O O7 0.608007 0.787837 0.752971
O O8 0.500000 0.937566 0.145817
O O9 0.317744 0.964178 0.139611
O O10 0.394292 0.765381 0.164208
O O11 0.500000 0.599533 0.192574
O O12 0.690683 0.584428 0.184444
O O13 0.119695 0.500000 0.500000
O O14 0.179637 0.560866 0.409851
O O15 0.000000 0.525595 0.430000
#
# Coordination Sequence:
#
# PCOD9476606 Si02
#       6
#    16  16  16  16  16  16
#     4  11  22  39  60  86 122 159 197 248 300 352
#     4  10  17  37  56  80 123 165 193 231 286 347
#     4   9  20  37  55  83 127 164 192 235 289 351
#     4   9  19  35  53  80 120 157 191 235 283 342
#     4  10  24  45  64  86 117 153 201 259 312 360
#     4  12  20  36  64  92 110 155 203 245 291 361
#
# _framework density 20.829124
#
# number of rings (size 3 to 8) (size 9 to 14) (size 15 to 20)
#    1.000    0.833    1.667    4.000    0.000    0.667 
#    9.000    0.000    0.000    2.000    0.000    0.000 
#    0.000    0.000    0.000    0.000    0.000    0.000 
#
# Total GULP energy -267907.658976 kJ/mol
# GULP energy per Si atom -5581.409562 kJ/mol
# Density = 2.078172 g / cm^3
# Si number density = 20.829124 Si / 1000 Ang^3
#
#
#
# Elastic Constant Matrix: (Units=GPa)
#
#
# Indices 1 2 3 4 5 6 
#
# 1 165.6750 35.8247 20.8821 0.0000 0.0000 0.0000
# 2 35.8247 57.3905 4.3726 0.0000 0.0000 0.0000
# 3 20.8821 4.3726 69.0852 0.0000 0.0000 0.0000
# 4 0.0000 0.0000 0.0000 19.9124 0.0000 0.0000
# 5 0.0000 0.0000 0.0000 0.0000 27.5210 0.0000
# 6 0.0000 0.0000 0.0000 0.0000 0.0000 30.8346
#
#
#
# Elastic Compliance Matrix: (Units=1/GPa)
#
#
# Indices 1 2 3 4 5 6 
#
# 1 0.007219 -0.004361 -0.001906 0.000000 0.000000 0.000000
# 2 -0.004361 0.020144 0.000043 0.000000 0.000000 0.000000
# 3 -0.001906 0.000043 0.015048 0.000000 0.000000 0.000000
# 4 0.000000 0.000000 0.000000 0.050220 0.000000 0.000000
# 5 0.000000 0.000000 0.000000 0.000000 0.036336 0.000000
# 6 0.000000 0.000000 0.000000 0.000000 0.000000 0.032431
#
#
# Mechanical properties :
#
#
# Convention : Reuss Voigt Hill
#
# Bulk Modulus (GPa) = 33.37440 46.03437 39.70439
# Shear Modulus (GPa) = 27.19851 31.05837 29.12844
#
# Velocity S-wave (km/s) = 3.61750 3.86567 3.74364
# Velocity P-wave (km/s) = 5.78845 6.48641 6.14734
#
# Compressibility (1/GPa) = 0.02996308
#
# Stress axis : x y z
#
# Youngs Moduli (GPa) = 138.51945 49.64367 66.45274
#
# Poissons Ratio (x) = 0.21651 0.12666
# Poissons Ratio (y) = 0.60411 -0.00288
# Poissons Ratio (z) = 0.26403 -0.00215
#
# Static dielectric constant tensor:
#      x y z
#    x 1.783520 0.000000 0.000000 
#    y 0.000000 1.855930 0.000000 
#    z 0.000000 0.000000 1.735290 
# 
# From -- ./inp_files/39223.got.cif
#   From: 2010.05.17/outbox.cif.g08.bks.cpg/sg64_20_cif.got.tgz:39223.got - 2010.06.03 16:29:19.
