data_PCOD9476519
_publ_section_title
;
Structure prediction by ZEFSAII (Michael W. Deem and Ramdas Pophale) SiO2 
 PCOD9476519
Probable space group: C M C A
;
_chemical_formula_sum "Si O2"
_cell_formula_units_Z 88
_cell_length_a 13.430248
_cell_length_b 25.601236
_cell_length_c 11.365804
_cell_angle_alpha 90.000000
_cell_angle_beta 90.000000
_cell_angle_gamma 90.000000
_cell_volume 3907.915171
_symmetry_space_group_name_H-M "C M C A"
_symmetry_group_IT_number 64
_symmetry_cell_setting 'orthorhombic'
loop_
_space_group_symop_operation_xyz
x,y,z
-x,1/2-y,1/2+z
x,-y,-z
-x,1/2+y,1/2-z
-x,-y,-z
x,1/2+y,1/2-z
-x,y,z
x,1/2-y,1/2+z
1/2+x,1/2+y,z
1/2-x,-y,1/2+z
1/2+x,1/2-y,-z
1/2-x,y,1/2-z
1/2-x,1/2-y,-z
1/2+x,y,1/2-z
1/2-x,1/2+y,z
1/2+x,-y,1/2+z
loop_
_atom_site_type_symbol
_atom_site_label
_atom_site_fract_x
_atom_site_fract_y
_atom_site_fract_z
Si Si1 0.115639 0.155640 0.287683
Si Si2 0.333954 0.603256 0.902517
Si Si3 0.385666 0.966151 0.738010
Si Si4 0.148223 0.000000 0.000000
Si Si5 0.387911 0.427648 0.360029
Si Si6 0.716513 0.304547 0.944413
O O1 0.133307 0.093864 0.265970
O O2 0.180309 0.170855 0.399273
O O3 0.151090 0.189925 0.175040
O O4 0.000000 0.163525 0.306971
O O5 0.392071 0.557721 0.969975
O O6 0.370888 0.599081 0.768678
O O7 0.216611 0.587217 0.919942
O O8 0.339442 0.659788 0.959765
O O9 0.500000 0.969399 0.691884
O O10 0.315014 0.985869 0.632673
O O11 0.387217 0.009840 0.839235
O O12 0.500000 0.414050 0.404934
O O13 0.750000 0.250000 0.000000
#
# Coordination Sequence:
#
# PCOD9476519 Si02
#       6
#    16  16  16   8  16  16
#     4  10  23  42  64  88 118 157 200 249 301 356
#     4  10  21  35  58  85 117 157 195 238 300 354
#     4   9  17  32  56  88 123 155 192 238 294 359
#     4  10  17  30  57  88 118 152 192 238 296 364
#     4   9  20  35  55  89 127 156 189 238 294 358
#     4  11  25  43  62  87 119 156 207 255 296 349
#
# _framework density 22.5184
#
# number of rings (size 3 to 8) (size 9 to 14) (size 15 to 20)
#    0.000    2.182    1.818    0.273    2.545    7.273 
#    0.000    2.273    0.000    0.000    0.000    0.000 
#    0.000    0.000    0.000    0.000    0.000    0.000 
#
# Total GULP energy -244985.254908 kJ/mol
# GULP energy per Si atom -5567.846702 kJ/mol
# Density = 2.246715 g / cm^3
# Si number density = 22.518400 Si / 1000 Ang^3
#
#
#
# Elastic Constant Matrix: (Units=GPa)
#
#
# Indices 1 2 3 4 5 6 
#
# 1 150.1415 -4.8833 10.0707 0.0000 0.0000 0.0000
# 2 -4.8833 118.8630 44.9213 0.0000 0.0000 0.0000
# 3 10.0707 44.9213 36.4362 0.0000 0.0000 0.0000
# 4 0.0000 0.0000 0.0000 20.2185 0.0000 0.0000
# 5 0.0000 0.0000 0.0000 0.0000 16.2871 0.0000
# 6 0.0000 0.0000 0.0000 0.0000 0.0000 16.3820
#
#
#
# Elastic Compliance Matrix: (Units=1/GPa)
#
#
# Indices 1 2 3 4 5 6 
#
# 1 0.007010 0.001910 -0.004293 0.000000 0.000000 0.000000
# 2 0.001910 0.016273 -0.020591 0.000000 0.000000 0.000000
# 3 -0.004293 -0.020591 0.054018 0.000000 0.000000 0.000000
# 4 0.000000 0.000000 0.000000 0.049460 0.000000 0.000000
# 5 0.000000 0.000000 0.000000 0.000000 0.061398 0.000000
# 6 0.000000 0.000000 0.000000 0.000000 0.000000 0.061043
#
#
# Mechanical properties :
#
#
# Convention : Reuss Voigt Hill
#
# Bulk Modulus (GPa) = 31.89321 45.07311 38.48316
# Shear Modulus (GPa) = 16.36118 27.59965 21.98042
#
# Velocity S-wave (km/s) = 2.69842 3.50473 3.12766
# Velocity P-wave (km/s) = 4.88902 6.03631 5.49270
#
# Compressibility (1/GPa) = 0.03135464
#
# Stress axis : x y z
#
# Youngs Moduli (GPa) = 142.64376 61.44987 18.51232
#
# Poissons Ratio (x) = -0.11740 0.07947
# Poissons Ratio (y) = -0.27251 0.38119
# Poissons Ratio (z) = 0.61237 1.26532
#
# Static dielectric constant tensor:
#      x y z
#    x 1.947180 0.000000 0.000000 
#    y 0.000000 1.836580 0.000000 
#    z 0.000000 0.000000 1.860810 
# 
# From -- ./inp_files/14604.got.cif
#   From: 2010.05.17/outbox.cif.g08.bks.cpg/sg64_8_cif.got.tgz:14604.got - 2010.06.03 16:29:19.
