data_PCOD9476663
_publ_section_title
;
Structure prediction by ZEFSAII (Michael W. Deem and Ramdas Pophale) SiO2 
 PCOD9476663
Probable space group: C M C A
;
_chemical_formula_sum "Si O2"
_cell_formula_units_Z 128
_cell_length_a 18.743973
_cell_length_b 22.893853
_cell_length_c 19.209856
_cell_angle_alpha 90.000000
_cell_angle_beta 90.000000
_cell_angle_gamma 90.000000
_cell_volume 8243.367264
_symmetry_space_group_name_H-M "C M C A"
_symmetry_group_IT_number 64
_symmetry_cell_setting 'orthorhombic'
loop_
_space_group_symop_operation_xyz
x,y,z
-x,1/2-y,1/2+z
x,-y,-z
-x,1/2+y,1/2-z
-x,-y,-z
x,1/2+y,1/2-z
-x,y,z
x,1/2-y,1/2+z
1/2+x,1/2+y,z
1/2-x,-y,1/2+z
1/2+x,1/2-y,-z
1/2-x,y,1/2-z
1/2-x,1/2-y,-z
1/2+x,y,1/2-z
1/2-x,1/2+y,z
1/2+x,-y,1/2+z
loop_
_atom_site_type_symbol
_atom_site_label
_atom_site_fract_x
_atom_site_fract_y
_atom_site_fract_z
Si Si1 0.691322 0.620714 0.192664
Si Si2 0.294513 0.914996 0.059212
Si Si3 0.082908 0.323798 0.041357
Si Si4 0.796366 0.546885 0.101229
Si Si5 0.329847 0.278479 0.917630
Si Si6 0.916702 0.273674 0.886994
Si Si7 0.915432 0.891856 0.690828
Si Si8 0.303026 0.189596 0.574200
O O1 0.750000 0.639867 0.250000
O O2 0.731952 0.571316 0.148185
O O3 0.672741 0.673923 0.142134
O O4 0.622482 0.599044 0.235030
O O5 0.366377 0.876480 0.064104
O O6 0.230768 0.873687 0.086668
O O7 0.298222 0.977057 0.096709
O O8 0.286391 0.928379 0.976774
O O9 0.103660 0.265756 0.084152
O O10 0.000000 0.338208 0.045562
O O11 0.100192 0.305405 0.961195
O O12 0.869521 0.571464 0.134863
O O13 0.260528 0.236622 0.916046
O O14 0.326734 0.308707 0.993329
O O15 0.905017 0.323570 0.829727
O O16 0.867813 0.216622 0.881986
O O17 0.000000 0.258367 0.888497
O O18 0.000000 0.904008 0.688744
#
# Coordination Sequence:
#
# PCOD9476663 Si02
#       8
#    16  16  16  16  16  16  16  16
#     4  10  19  31  49  68  96 129 164 200 232 272
#     4  10  18  28  49  71  98 128 154 197 249 283
#     4   9  17  28  45  72 104 126 145 189 245 295
#     4  10  19  31  46  72  97 125 164 202 235 279
#     4   9  16  26  45  70  94 125 156 191 237 285
#     4   9  16  28  47  73 101 125 152 189 240 293
#     4  10  20  33  50  71  99 129 160 196 235 282
#     4   9  15  27  47  70  99 122 151 193 244 286
#
# _framework density 15.527635999999999
#
# number of rings (size 3 to 8) (size 9 to 14) (size 15 to 20)
#    0.000    2.500    2.500    2.250    0.000    1.000 
#    0.000    1.250    0.000   18.750    0.000    5.250 
#    0.000    0.000    0.000    0.000    0.000    0.000 
#
# Total GULP energy -356459.517980 kJ/mol
# GULP energy per Si atom -5569.679968 kJ/mol
# Density = 1.549229 g / cm^3
# Si number density = 15.527636 Si / 1000 Ang^3
#
#
#
# Elastic Constant Matrix: (Units=GPa)
#
#
# Indices 1 2 3 4 5 6 
#
# 1 85.5197 58.1683 27.5582 0.0000 0.0000 0.0000
# 2 58.1683 103.6275 27.1675 0.0000 0.0000 0.0000
# 3 27.5582 27.1675 49.2666 0.0000 0.0000 0.0000
# 4 0.0000 0.0000 0.0000 17.8548 0.0000 0.0000
# 5 0.0000 0.0000 0.0000 0.0000 10.7847 0.0000
# 6 0.0000 0.0000 0.0000 0.0000 0.0000 17.6119
#
#
#
# Elastic Compliance Matrix: (Units=1/GPa)
#
#
# Indices 1 2 3 4 5 6 
#
# 1 0.020295 -0.009838 -0.005927 0.000000 0.000000 0.000000
# 2 -0.009838 0.016050 -0.003347 0.000000 0.000000 0.000000
# 3 -0.005927 -0.003347 0.025459 0.000000 0.000000 0.000000
# 4 0.000000 0.000000 0.000000 0.056007 0.000000 0.000000
# 5 0.000000 0.000000 0.000000 0.000000 0.092724 0.000000
# 6 0.000000 0.000000 0.000000 0.000000 0.000000 0.056780
#
#
# Mechanical properties :
#
#
# Convention : Reuss Voigt Hill
#
# Bulk Modulus (GPa) = 42.41159 51.57800 46.99479
# Shear Modulus (GPa) = 15.95410 17.61829 16.78620
#
# Velocity S-wave (km/s) = 3.20889 3.37210 3.29150
# Velocity P-wave (km/s) = 6.41110 6.96063 6.69151
#
# Compressibility (1/GPa) = 0.02357846
#
# Stress axis : x y z
#
# Youngs Moduli (GPa) = 49.27380 62.30614 39.27861
#
# Poissons Ratio (x) = 0.61297 0.23281
# Poissons Ratio (y) = 0.48475 0.13148
# Poissons Ratio (z) = 0.29206 0.20856
#
# Static dielectric constant tensor:
#      x y z
#    x 1.529980 0.000000 0.000000 
#    y 0.000000 1.502270 0.000000 
#    z 0.000000 0.000000 1.525880 
# 
# From -- ./inp_files/33784.got.cif
#   From: 2010.05.17/outbox.cif.g08.bks.cpg/sg64_17_cif.got.tgz:33784.got - 2010.06.03 16:29:19.
