data_PCOD9476734
_publ_section_title
;
Structure prediction by ZEFSAII (Michael W. Deem and Ramdas Pophale) SiO2 
 PCOD9476734
Probable space group: C M C A
;
_chemical_formula_sum "Si O2"
_cell_formula_units_Z 96
_cell_length_a 9.142154
_cell_length_b 30.969814
_cell_length_c 20.118057
_cell_angle_alpha 90.000000
_cell_angle_beta 90.000000
_cell_angle_gamma 90.000000
_cell_volume 5696.041753
_symmetry_space_group_name_H-M "C M C A"
_symmetry_group_IT_number 64
_symmetry_cell_setting 'orthorhombic'
loop_
_space_group_symop_operation_xyz
x,y,z
-x,1/2-y,1/2+z
x,-y,-z
-x,1/2+y,1/2-z
-x,-y,-z
x,1/2+y,1/2-z
-x,y,z
x,1/2-y,1/2+z
1/2+x,1/2+y,z
1/2-x,-y,1/2+z
1/2+x,1/2-y,-z
1/2-x,y,1/2-z
1/2-x,1/2-y,-z
1/2+x,y,1/2-z
1/2-x,1/2+y,z
1/2+x,-y,1/2+z
loop_
_atom_site_type_symbol
_atom_site_label
_atom_site_fract_x
_atom_site_fract_y
_atom_site_fract_z
Si Si1 0.327724 0.630085 0.110142
Si Si2 0.175796 0.540530 0.320543
Si Si3 0.331365 0.698378 0.568492
Si Si4 0.173278 0.978613 0.427288
Si Si5 0.326560 0.111263 0.546512
Si Si6 0.667946 0.216259 0.091143
O O1 0.500000 0.639759 0.117043
O O2 0.289990 0.589400 0.155713
O O3 0.237019 0.673407 0.122694
O O4 0.304624 0.615780 0.033331
O O5 0.250000 0.532387 0.250000
O O6 0.242658 0.508028 0.374421
O O7 0.000000 0.536204 0.317821
O O8 0.500000 0.692605 0.587884
O O9 0.238742 0.654918 0.577930
O O10 0.329218 0.707699 0.488789
O O11 0.260003 0.740325 0.602056
O O12 0.241940 0.930973 0.429391
O O13 0.000000 0.977073 0.412924
O O14 0.192090 0.000000 0.500000
O O15 0.500000 0.107699 0.558421
O O16 0.500000 0.222173 0.110765
#
# Coordination Sequence:
#
# PCOD9476734 Si02
#       6
#    16  16  16  16  16  16
#     4   9  18  31  48  70  99 135 171 210 260 314
#     4  11  23  39  56  77 106 141 180 223 272 323
#     4   9  16  26  40  64  99 133 166 206 254 304
#     4  11  22  35  54  79 106 138 179 224 271 324
#     4  10  18  30  49  73 102 135 174 216 264 316
#     4   9  16  25  41  65  95 131 168 205 249 301
#
# _framework density 16.853808999999998
#
# number of rings (size 3 to 8) (size 9 to 14) (size 15 to 20)
#    0.000    2.167    1.667    2.500    0.000    6.667 
#    0.000    0.000    0.000    0.000    0.000    1.167 
#    0.000    2.667    0.000    0.000    0.000    0.000 
#
# Total GULP energy -267795.974811 kJ/mol
# GULP energy per Si atom -5579.082809 kJ/mol
# Density = 1.681545 g / cm^3
# Si number density = 16.853809 Si / 1000 Ang^3
#
#
#
# Elastic Constant Matrix: (Units=GPa)
#
#
# Indices 1 2 3 4 5 6 
#
# 1 111.6815 81.9507 44.2943 0.0000 0.0000 0.0000
# 2 81.9507 140.4349 37.5419 0.0000 0.0000 0.0000
# 3 44.2943 37.5419 48.4998 0.0000 0.0000 0.0000
# 4 0.0000 0.0000 0.0000 10.6285 0.0000 0.0000
# 5 0.0000 0.0000 0.0000 0.0000 15.9847 0.0000
# 6 0.0000 0.0000 0.0000 0.0000 0.0000 37.3938
#
#
#
# Elastic Compliance Matrix: (Units=1/GPa)
#
#
# Indices 1 2 3 4 5 6 
#
# 1 0.019674 -0.008419 -0.011450 0.000000 0.000000 0.000000
# 2 -0.008419 0.012582 -0.002050 0.000000 0.000000 0.000000
# 3 -0.011450 -0.002050 0.032663 0.000000 0.000000 0.000000
# 4 0.000000 0.000000 0.000000 0.094087 0.000000 0.000000
# 5 0.000000 0.000000 0.000000 0.000000 0.062560 0.000000
# 6 0.000000 0.000000 0.000000 0.000000 0.000000 0.026742
#
#
# Mechanical properties :
#
#
# Convention : Reuss Voigt Hill
#
# Bulk Modulus (GPa) = 47.44074 69.79890 58.61982
# Shear Modulus (GPa) = 16.71275 21.92335 19.31805
#
# Velocity S-wave (km/s) = 3.15243 3.61057 3.38925
# Velocity P-wave (km/s) = 6.43894 7.67371 7.08328
#
# Compressibility (1/GPa) = 0.02107893
#
# Stress axis : x y z
#
# Youngs Moduli (GPa) = 50.82967 79.47937 30.61590
#
# Poissons Ratio (x) = 0.66918 0.35056
# Poissons Ratio (y) = 0.42796 0.06275
# Poissons Ratio (z) = 0.58202 0.16291
#
# Static dielectric constant tensor:
#      x y z
#    x 1.558890 0.000000 0.000000 
#    y 0.000000 1.556720 0.000000 
#    z 0.000000 0.000000 1.549810 
# 
# From -- ./inp_files/37016.got.cif
#   From: 2010.05.17/outbox.cif.g08.bks.cpg/sg64_19_cif.got.tgz:37016.got - 2010.06.03 16:29:19.
