data_PCOD9476757
_publ_section_title
;
Structure prediction by ZEFSAII (Michael W. Deem and Ramdas Pophale) SiO2 
 PCOD9476757
Probable space group: C M C A
;
_chemical_formula_sum "Si O2"
_cell_formula_units_Z 80
_cell_length_a 8.548481
_cell_length_b 19.943234
_cell_length_c 26.390309
_cell_angle_alpha 90.000000
_cell_angle_beta 90.000000
_cell_angle_gamma 90.000000
_cell_volume 4499.134859
_symmetry_space_group_name_H-M "C M C A"
_symmetry_group_IT_number 64
_symmetry_cell_setting 'orthorhombic'
loop_
_space_group_symop_operation_xyz
x,y,z
-x,1/2-y,1/2+z
x,-y,-z
-x,1/2+y,1/2-z
-x,-y,-z
x,1/2+y,1/2-z
-x,y,z
x,1/2-y,1/2+z
1/2+x,1/2+y,z
1/2-x,-y,1/2+z
1/2+x,1/2-y,-z
1/2-x,y,1/2-z
1/2-x,1/2-y,-z
1/2+x,y,1/2-z
1/2-x,1/2+y,z
1/2+x,-y,1/2+z
loop_
_atom_site_type_symbol
_atom_site_label
_atom_site_fract_x
_atom_site_fract_y
_atom_site_fract_z
Si Si1 0.689251 0.522074 0.612285
Si Si2 0.687544 0.765932 0.117197
Si Si3 0.689385 0.372981 0.584846
Si Si4 0.810175 0.632077 0.968779
Si Si5 0.813900 0.624638 0.693280
O O1 0.500000 0.524521 0.615302
O O2 0.737721 0.445157 0.606539
O O3 0.734510 0.565444 0.562535
O O4 0.756771 0.561080 0.660348
O O5 0.500000 0.767030 0.118509
O O6 0.748335 0.690579 0.115276
O O7 0.739531 0.804991 0.065748
O O8 0.750351 0.810211 0.163482
O O9 0.500000 0.371292 0.584776
O O10 0.744888 0.367129 0.526407
O O11 0.000000 0.632744 0.970442
O O12 0.750000 0.621982 0.750000
O O13 0.000000 0.626456 0.693842
#
# Coordination Sequence:
#
# PCOD9476757 Si02
#       5
#    16  16  16  16  16
#     4   9  18  33  53  79 109 140 176 215 256 305
#     4  10  20  34  52  77 109 141 177 217 258 306
#     4  10  18  30  51  79 112 146 178 213 255 301
#     4   8  15  29  50  75 106 147 184 212 248 299
#     4  11  22  39  61  79  98 128 170 217 266 319
#
# _framework density 17.781196999999999
#
# number of rings (size 3 to 8) (size 9 to 14) (size 15 to 20)
#    0.000    2.400    0.000    4.800    0.000    3.200 
#    0.000    5.000    0.000   10.800    0.000    0.000 
#    0.000    0.000    0.000    0.000    0.000    0.000 
#
# Total GULP energy -223231.956207 kJ/mol
# GULP energy per Si atom -5580.798905 kJ/mol
# Density = 1.774073 g / cm^3
# Si number density = 17.781197 Si / 1000 Ang^3
#
#
#
# Elastic Constant Matrix: (Units=GPa)
#
#
# Indices 1 2 3 4 5 6 
#
# 1 40.2027 32.4446 23.6245 0.0000 0.0000 0.0000
# 2 32.4446 152.0367 53.1836 0.0000 0.0000 0.0000
# 3 23.6245 53.1836 113.5070 0.0000 0.0000 0.0000
# 4 0.0000 0.0000 0.0000 5.6533 0.0000 0.0000
# 5 0.0000 0.0000 0.0000 0.0000 18.4095 0.0000
# 6 0.0000 0.0000 0.0000 0.0000 0.0000 26.9387
#
#
#
# Elastic Compliance Matrix: (Units=1/GPa)
#
#
# Indices 1 2 3 4 5 6 
#
# 1 0.031554 -0.005306 -0.004081 0.000000 0.000000 0.000000
# 2 -0.005306 0.008759 -0.003000 0.000000 0.000000 0.000000
# 3 -0.004081 -0.003000 0.011065 0.000000 0.000000 0.000000
# 4 0.000000 0.000000 0.000000 0.176888 0.000000 0.000000
# 5 0.000000 0.000000 0.000000 0.000000 0.054320 0.000000
# 6 0.000000 0.000000 0.000000 0.000000 0.000000 0.037121
#
#
# Mechanical properties :
#
#
# Convention : Reuss Voigt Hill
#
# Bulk Modulus (GPa) = 37.58797 58.25023 47.91910
# Shear Modulus (GPa) = 14.15029 23.29987 18.72508
#
# Velocity S-wave (km/s) = 2.82405 3.62382 3.24865
# Velocity P-wave (km/s) = 5.64081 7.09507 6.40932
#
# Compressibility (1/GPa) = 0.02660425
#
# Stress axis : x y z
#
# Youngs Moduli (GPa) = 31.69133 114.16879 90.37525
#
# Poissons Ratio (x) = 0.60578 0.36885
# Poissons Ratio (y) = 0.16815 0.27109
# Poissons Ratio (z) = 0.12934 0.34247
#
# Static dielectric constant tensor:
#      x y z
#    x 1.607160 0.000000 0.000000 
#    y 0.000000 1.599660 0.000000 
#    z 0.000000 0.000000 1.584100 
# 
# From -- ./inp_files/47773.got.cif
#   From: 2010.05.17/outbox.cif.g08.bks.cpg/sg64_24_cif.got.tgz:47773.got - 2010.06.03 16:29:19.
