data_PCOD9476147
_publ_section_title
;
Structure prediction by ZEFSAII (Michael W. Deem and Ramdas Pophale) SiO2 
 PCOD9476147
Probable space group: C M C M
;
_chemical_formula_sum "Si O2"
_cell_formula_units_Z 52
_cell_length_a 21.000000
_cell_length_b 27.000000
_cell_length_c 9.000000
_cell_angle_alpha 90.000000
_cell_angle_beta 90.000000
_cell_angle_gamma 90.000000
_cell_volume 5103.000000
_symmetry_space_group_name_H-M "C M C M"
_symmetry_group_IT_number 63
_symmetry_cell_setting 'orthorhombic'
loop_
_space_group_symop_operation_xyz
x,y,z
-x,-y,1/2+z
x,-y,-z
-x,y,1/2-z
-x,-y,-z
x,y,1/2-z
-x,y,z
x,-y,1/2+z
1/2+x,1/2+y,z
1/2-x,1/2-y,1/2+z
1/2+x,1/2-y,-z
1/2-x,1/2+y,1/2-z
1/2-x,1/2-y,-z
1/2+x,1/2+y,1/2-z
1/2-x,1/2+y,z
1/2+x,1/2-y,1/2+z
loop_
_atom_site_type_symbol
_atom_site_label
_atom_site_fract_x
_atom_site_fract_y
_atom_site_fract_z
Si Si1 0.000000 0.552146 0.925226
Si Si2 0.927225 0.320962 0.580282
Si Si3 0.574997 0.452000 0.414759
Si Si4 0.355250 0.628549 0.425169
Si Si5 0.571157 0.703473 0.919120
Si Si6 0.134078 0.400341 0.075373
Si Si7 0.749513 0.551857 0.426467
O O1 0.935813 0.580036 0.962048
O O2 0.000000 0.545435 0.750000
O O3 0.000000 0.500000 0.000000
O O4 0.921061 0.339835 0.750000
O O5 0.922440 0.262111 0.585395
O O6 0.872781 0.344132 0.478528
O O7 0.000000 0.330058 0.528489
O O8 0.599593 0.500000 0.500000
O O9 0.603132 0.447149 0.250000
O O10 0.500000 0.458372 0.398804
O O11 0.587200 0.404962 0.515676
O O12 0.353466 0.631179 0.250000
O O13 0.370203 0.681017 0.493401
O O14 0.295082 0.597060 0.477812
O O15 0.572390 0.684088 0.750000
O O16 0.500000 0.692449 0.980208
O O17 0.147404 0.404927 0.250000
O O18 0.181450 0.432351 0.979356
O O19 0.733806 0.500000 0.500000
O O20 0.744519 0.547366 0.250000
#
# Coordination Sequence:
#
# PCOD9476147 Si02
#       7
#     8  16  16  16  16  16  16
#     4  10  22  36  54  86 120 146 180 228 279 338
#     4   9  18  35  60  89 120 155 190 231 288 346
#     4  10  20  33  51  76 106 140 181 232 288 346
#     4  11  23  37  55  80 111 149 194 241 288 341
#     4   9  19  36  59  88 120 153 194 241 290 345
#     4  11  22  38  60  88 119 151 190 235 286 344
#     4  11  25  43  60  82 113 152 198 241 286 345
#
# _framework density 10.190084000000001
#
# number of rings (size 3 to 8) (size 9 to 14) (size 15 to 20)
#    0.000    1.846    0.769    4.154    0.000    9.846 
#    0.000    2.308    0.000    0.000    0.000    0.000 
#    0.000    0.000    0.000    0.000    0.000    0.000 
#
# Total GULP energy -289723.004773 kJ/mol
# GULP energy per Si atom -5571.596246 kJ/mol
# Density = 1.016689 g / cm^3
# Si number density = 10.190084 Si / 1000 Ang^3
#
#
#
# Elastic Constant Matrix: (Units=GPa)
#
#
# Indices 1 2 3 4 5 6 
#
# 1 76.3610 35.8753 47.2997 0.0000 0.0000 0.0000
# 2 35.8753 44.3432 10.6750 0.0000 0.0000 0.0000
# 3 47.2997 10.6750 -18.1761 0.0000 0.0000 0.0000
# 4 0.0000 0.0000 0.0000 27.3920 0.0000 0.0000
# 5 0.0000 0.0000 0.0000 0.0000 32.9665 0.0000
# 6 0.0000 0.0000 0.0000 0.0000 0.0000 -22.0768
#
#
#
# Elastic Compliance Matrix: (Units=1/GPa)
#
#
# Indices 1 2 3 4 5 6 
#
# 1 0.008376 -0.010534 0.015610 0.000000 0.000000 0.000000
# 2 -0.010534 0.033006 -0.008028 0.000000 0.000000 0.000000
# 3 0.015610 -0.008028 -0.019111 0.000000 0.000000 0.000000
# 4 0.000000 0.000000 0.000000 0.036507 0.000000 0.000000
# 5 0.000000 0.000000 0.000000 0.000000 0.030334 0.000000
# 6 0.000000 0.000000 0.000000 0.000000 0.000000 -0.045296
#
#
# Mechanical properties :
#
#
# Convention : Reuss Voigt Hill
#
# Bulk Modulus (GPa) = 61.10228 32.24757 46.67492
# Shear Modulus (GPa) = 90.61952 8.23488 49.42720
#
# Velocity S-wave (km/s) = 6.67541 2.01231 4.93003
# Velocity P-wave (km/s) = 9.45839 4.61048 7.44035
#
# Compressibility (1/GPa) = 0.01636600
#
# Stress axis : x y z
#
# Youngs Moduli (GPa) = 119.39092 30.29706 -52.32500
#
# Poissons Ratio (x) = 0.31915 0.81677
# Poissons Ratio (y) = 1.25768 -0.42006
# Poissons Ratio (z) = -1.86364 0.24322
#
# Static dielectric constant tensor:
#      x y z
#    x 1.744120 0.000000 0.000000 
#    y 0.000000 1.823410 0.000000 
#    z 0.000000 0.000000 0.115210 
# 
# From -- ./inp_files/8752.got.cif
#   From: 2010.05.17/outbox.ucp.g08.bks.cvg/sg63_5_cif.got.tgz:8752.got - 2010.06.11 16:32:19.
