data_PCOD9476788
_publ_section_title
;
Structure prediction by ZEFSAII (Michael W. Deem and Ramdas Pophale) SiO2 
 PCOD9476788
Probable space group: C M C A
;
_chemical_formula_sum "Si O2"
_cell_formula_units_Z 112
_cell_length_a 24.588741
_cell_length_b 12.925864
_cell_length_c 21.515679
_cell_angle_alpha 90.000000
_cell_angle_beta 90.000000
_cell_angle_gamma 90.000000
_cell_volume 6838.343793
_symmetry_space_group_name_H-M "C M C A"
_symmetry_group_IT_number 64
_symmetry_cell_setting 'orthorhombic'
loop_
_space_group_symop_operation_xyz
x,y,z
-x,1/2-y,1/2+z
x,-y,-z
-x,1/2+y,1/2-z
-x,-y,-z
x,1/2+y,1/2-z
-x,y,z
x,1/2-y,1/2+z
1/2+x,1/2+y,z
1/2-x,-y,1/2+z
1/2+x,1/2-y,-z
1/2-x,y,1/2-z
1/2-x,1/2-y,-z
1/2+x,y,1/2-z
1/2-x,1/2+y,z
1/2+x,-y,1/2+z
loop_
_atom_site_type_symbol
_atom_site_label
_atom_site_fract_x
_atom_site_fract_y
_atom_site_fract_z
Si Si1 0.342296 0.129223 0.161804
Si Si2 0.436879 0.580203 0.419370
Si Si3 0.189590 0.231472 0.107172
Si Si4 0.225871 0.406656 0.958658
Si Si5 0.276646 0.339184 0.181947
Si Si6 0.884501 0.864965 0.463101
Si Si7 0.192718 0.438696 0.713807
O O1 0.401779 0.135082 0.132955
O O2 0.301292 0.077659 0.110259
O O3 0.316948 0.242830 0.172610
O O4 0.346044 0.068390 0.226570
O O5 0.500000 0.563630 0.407225
O O6 0.405721 0.470216 0.430794
O O7 0.428339 0.646845 0.482298
O O8 0.225949 0.174019 0.054876
O O9 0.227933 0.323848 0.132853
O O10 0.132154 0.275530 0.084181
O O11 0.183651 0.150989 0.163941
O O12 0.249017 0.500000 0.000000
O O13 0.172967 0.376334 0.999678
O O14 0.250000 0.331606 0.250000
O O15 0.304745 0.450716 0.180392
O O16 0.250000 0.422360 0.750000
#
# Coordination Sequence:
#
# PCOD9476788 Si02
#       7
#    16  16  16  16  16  16  16
#     4  10  18  36  50  76 109 139 183 225 272 313
#     4  10  21  37  59  77  98 135 190 242 283 304
#     4  11  21  31  47  80 115 151 179 208 267 325
#     4  10  18  31  45  74 112 151 170 205 255 323
#     4  10  20  29  50  77 114 152 173 200 258 336
#     4  10  19  32  52  76 107 135 175 230 269 313
#     4  11  20  32  50  78 114 153 179 206 253 341
#
# _framework density 16.378235
#
# number of rings (size 3 to 8) (size 9 to 14) (size 15 to 20)
#    0.000    1.714    7.143    1.286    6.000    0.000 
#    0.000    0.000    0.000    4.286    0.000    1.000 
#    0.000    0.000    0.000    0.000    0.000    0.000 
#
# Total GULP energy -311779.331415 kJ/mol
# GULP energy per Si atom -5567.488061 kJ/mol
# Density = 1.634096 g / cm^3
# Si number density = 16.378235 Si / 1000 Ang^3
#
#
#
# Elastic Constant Matrix: (Units=GPa)
#
#
# Indices 1 2 3 4 5 6 
#
# 1 77.8371 31.3074 23.9179 0.0000 0.0000 0.0000
# 2 31.3074 90.8066 49.3558 0.0000 0.0000 0.0000
# 3 23.9179 49.3558 72.9338 0.0000 0.0000 0.0000
# 4 0.0000 0.0000 0.0000 25.0035 0.0000 0.0000
# 5 0.0000 0.0000 0.0000 0.0000 11.3308 0.0000
# 6 0.0000 0.0000 0.0000 0.0000 0.0000 14.6129
#
#
#
# Elastic Compliance Matrix: (Units=1/GPa)
#
#
# Indices 1 2 3 4 5 6 
#
# 1 0.015149 -0.003991 -0.002268 0.000000 0.000000 0.000000
# 2 -0.003991 0.018471 -0.011191 0.000000 0.000000 0.000000
# 3 -0.002268 -0.011191 0.022028 0.000000 0.000000 0.000000
# 4 0.000000 0.000000 0.000000 0.039994 0.000000 0.000000
# 5 0.000000 0.000000 0.000000 0.000000 0.088255 0.000000
# 6 0.000000 0.000000 0.000000 0.000000 0.000000 0.068433
#
#
# Mechanical properties :
#
#
# Convention : Reuss Voigt Hill
#
# Bulk Modulus (GPa) = 48.19321 50.08219 49.13770
# Shear Modulus (GPa) = 16.99845 19.32253 18.16049
#
# Velocity S-wave (km/s) = 3.22509 3.43850 3.33350
# Velocity P-wave (km/s) = 6.58463 6.81244 6.69950
#
# Compressibility (1/GPa) = 0.02074981
#
# Stress axis : x y z
#
# Youngs Moduli (GPa) = 66.01017 54.13962 45.39723
#
# Poissons Ratio (x) = 0.21605 0.10294
# Poissons Ratio (y) = 0.26341 0.50804
# Poissons Ratio (z) = 0.14968 0.60587
#
# Static dielectric constant tensor:
#      x y z
#    x 1.542920 0.000000 0.000000 
#    y 0.000000 1.606500 0.000000 
#    z 0.000000 0.000000 1.631200 
# 
# From -- ./inp_files/46968.got.cif
#   From: 2010.05.17/outbox.cif.g08.bks.cpg/sg64_24_cif.got.tgz:46968.got - 2010.06.03 16:29:19.
