data_PCOD9476546
_publ_section_title
;
Structure prediction by ZEFSAII (Michael W. Deem and Ramdas Pophale) SiO2 
 PCOD9476546
Probable space group: C M C A
;
_chemical_formula_sum "Si O2"
_cell_formula_units_Z 88
_cell_length_a 13.516452
_cell_length_b 18.007886
_cell_length_c 16.321437
_cell_angle_alpha 90.000000
_cell_angle_beta 90.000000
_cell_angle_gamma 90.000000
_cell_volume 3972.682270
_symmetry_space_group_name_H-M "C M C A"
_symmetry_group_IT_number 64
_symmetry_cell_setting 'orthorhombic'
loop_
_space_group_symop_operation_xyz
x,y,z
-x,1/2-y,1/2+z
x,-y,-z
-x,1/2+y,1/2-z
-x,-y,-z
x,1/2+y,1/2-z
-x,y,z
x,1/2-y,1/2+z
1/2+x,1/2+y,z
1/2-x,-y,1/2+z
1/2+x,1/2-y,-z
1/2-x,y,1/2-z
1/2-x,1/2-y,-z
1/2+x,y,1/2-z
1/2-x,1/2+y,z
1/2+x,-y,1/2+z
loop_
_atom_site_type_symbol
_atom_site_label
_atom_site_fract_x
_atom_site_fract_y
_atom_site_fract_z
Si Si1 0.000000 0.714345 0.046188
Si Si2 0.612232 0.626027 0.175752
Si Si3 0.329106 0.044870 0.675879
Si Si4 0.667101 0.133726 0.141581
Si Si5 0.651107 0.030225 0.912421
Si Si6 0.000000 0.336391 0.313081
Si Si7 0.500000 0.158667 0.870776
O O1 0.098301 0.669941 0.073714
O O2 0.000000 0.784136 0.107499
O O3 0.000000 0.714330 0.947804
O O4 0.500000 0.642805 0.148669
O O5 0.621604 0.536140 0.177873
O O6 0.630619 0.656713 0.268005
O O7 0.715415 0.648484 0.130568
O O8 0.250000 0.051000 0.750000
O O9 0.265944 0.051560 0.592437
O O10 0.405818 0.110254 0.682459
O O11 0.646260 0.045301 0.140178
O O12 0.590142 0.100153 0.881347
O O13 0.618664 0.000000 0.000000
O O14 0.000000 0.305789 0.219410
#
# Coordination Sequence:
#
# PCOD9476546 Si02
#       7
#     8  16  16  16  16   8   8
#     4  12  25  42  66  98 135 176 242 290 331 395
#     4  10  17  31  60  94 136 166 211 269 353 415
#     4  11  20  37  65  96 128 174 224 267 339 415
#     4  10  19  33  58 100 135 166 209 289 349 397
#     4  11  20  35  68 107 132 156 212 294 358 405
#     4  12  26  45  67  92 136 192 238 272 322 426
#     4  12  22  40  73 101 126 182 241 295 337 391
#
# _framework density 22.15128
#
# number of rings (size 3 to 8) (size 9 to 14) (size 15 to 20)
#    0.000    1.091    9.091    0.818    0.000    0.000 
#    3.273    1.364   12.000    0.000    0.000    0.000 
#    0.000    0.000    0.000    0.000    0.000    0.000 
#
# Total GULP energy -245479.658220 kJ/mol
# GULP energy per Si atom -5579.083141 kJ/mol
# Density = 2.210086 g / cm^3
# Si number density = 22.151280 Si / 1000 Ang^3
#
#
#
# Elastic Constant Matrix: (Units=GPa)
#
#
# Indices 1 2 3 4 5 6 
#
# 1 168.4023 48.4613 39.3485 0.0000 0.0000 0.0000
# 2 48.4613 76.1585 33.8977 0.0000 0.0000 0.0000
# 3 39.3485 33.8977 65.8584 0.0000 0.0000 0.0000
# 4 0.0000 0.0000 0.0000 32.8584 0.0000 0.0000
# 5 0.0000 0.0000 0.0000 0.0000 33.5390 0.0000
# 6 0.0000 0.0000 0.0000 0.0000 0.0000 -4.7286
#
#
#
# Elastic Compliance Matrix: (Units=1/GPa)
#
#
# Indices 1 2 3 4 5 6 
#
# 1 0.007614 -0.003658 -0.002666 0.000000 0.000000 0.000000
# 2 -0.003658 0.018790 -0.007486 0.000000 0.000000 0.000000
# 3 -0.002666 -0.007486 0.020630 0.000000 0.000000 0.000000
# 4 0.000000 0.000000 0.000000 0.030434 0.000000 0.000000
# 5 0.000000 0.000000 0.000000 0.000000 0.029816 0.000000
# 6 0.000000 0.000000 0.000000 0.000000 0.000000 -0.211478
#
#
# Mechanical properties :
#
#
# Convention : Reuss Voigt Hill
#
# Bulk Modulus (GPa) = 51.50965 61.53712 56.52339
# Shear Modulus (GPa) = -71.32317 24.91455 -23.20431
#
# Velocity S-wave (km/s) = -5.68050 3.35736 -3.24008
# Velocity P-wave (km/s) = 4.44073 6.54751 3.40219
#
# Compressibility (1/GPa) = 0.01941384
#
# Stress axis : x y z
#
# Youngs Moduli (GPa) = 131.33962 53.21948 48.47308
#
# Poissons Ratio (x) = 0.19469 0.12924
# Poissons Ratio (y) = 0.48046 0.36286
# Poissons Ratio (z) = 0.35018 0.39839
#
# Static dielectric constant tensor:
#      x y z
#    x 1.880490 0.000000 0.000000 
#    y 0.000000 1.810610 0.000000 
#    z 0.000000 0.000000 1.895660 
# 
# From -- ./inp_files/30973.got.cif
#   From: 2010.05.17/outbox.cif.g08.bks.cpg/sg64_16_cif.got.tgz:30973.got - 2010.06.03 16:29:19.
