data_PCOD9476599
_publ_section_title
;
Structure prediction by ZEFSAII (Michael W. Deem and Ramdas Pophale) SiO2 
 PCOD9476599
Probable space group: C M C A
;
_chemical_formula_sum "Si O2"
_cell_formula_units_Z 112
_cell_length_a 16.449939
_cell_length_b 22.186947
_cell_length_c 13.878505
_cell_angle_alpha 90.000000
_cell_angle_beta 90.000000
_cell_angle_gamma 90.000000
_cell_volume 5065.292439
_symmetry_space_group_name_H-M "C M C A"
_symmetry_group_IT_number 64
_symmetry_cell_setting 'orthorhombic'
loop_
_space_group_symop_operation_xyz
x,y,z
-x,1/2-y,1/2+z
x,-y,-z
-x,1/2+y,1/2-z
-x,-y,-z
x,1/2+y,1/2-z
-x,y,z
x,1/2-y,1/2+z
1/2+x,1/2+y,z
1/2-x,-y,1/2+z
1/2+x,1/2-y,-z
1/2-x,y,1/2-z
1/2-x,1/2-y,-z
1/2+x,y,1/2-z
1/2-x,1/2+y,z
1/2+x,-y,1/2+z
loop_
_atom_site_type_symbol
_atom_site_label
_atom_site_fract_x
_atom_site_fract_y
_atom_site_fract_z
Si Si1 0.194474 0.790478 0.073082
Si Si2 0.652900 0.643152 0.093437
Si Si3 0.591394 0.480279 0.326439
Si Si4 0.735427 0.913893 0.137672
Si Si5 0.904761 0.708546 0.219829
Si Si6 0.812226 0.399548 0.842635
Si Si7 0.620534 0.503898 0.105599
O O1 0.149521 0.753885 0.157225
O O2 0.243954 0.844836 0.120148
O O3 0.250000 0.750000 0.000000
O O4 0.128781 0.825955 0.006185
O O5 0.749236 0.627551 0.081253
O O6 0.632657 0.692261 0.175294
O O7 0.500000 0.486997 0.360528
O O8 0.639791 0.425573 0.375089
O O9 0.650380 0.535533 0.353451
O O10 0.589151 0.479088 0.208491
O O11 0.750000 0.927079 0.250000
O O12 0.797265 0.962885 0.090480
O O13 0.887739 0.644622 0.168604
O O14 0.000000 0.723417 0.225249
O O15 0.750000 0.399826 0.750000
O O16 0.620389 0.423141 0.880103
O O17 0.581863 0.500000 0.000000
#
# Coordination Sequence:
#
# PCOD9476599 Si02
#       7
#    16  16  16  16  16  16  16
#     4  12  26  42  70  98 131 192 250 282 334 425
#     4  11  22  41  73 101 128 184 242 286 342 421
#     4  11  21  37  64 102 143 182 218 281 371 424
#     4  10  23  41  66  94 137 183 231 287 342 426
#     4  11  25  43  67 101 141 177 229 301 356 403
#     4  10  17  35  67  97 127 175 234 273 331 420
#     4  11  20  38  66 100 131 173 230 290 341 415
#
# _framework density 22.111259
#
# number of rings (size 3 to 8) (size 9 to 14) (size 15 to 20)
#    0.000    1.143    7.143    0.857    2.000    0.857 
#    0.000    3.571    0.000    1.286    0.000    0.000 
#    0.000    0.000    0.000    0.000    0.000    0.000 
#
# Total GULP energy -311811.619214 kJ/mol
# GULP energy per Si atom -5568.064629 kJ/mol
# Density = 2.206093 g / cm^3
# Si number density = 22.111259 Si / 1000 Ang^3
#
#
#
# Elastic Constant Matrix: (Units=GPa)
#
#
# Indices 1 2 3 4 5 6 
#
# 1 132.6611 58.9361 32.3942 0.0000 0.0000 0.0000
# 2 58.9361 130.8412 49.2789 0.0000 0.0000 0.0000
# 3 32.3942 49.2789 75.1716 0.0000 0.0000 0.0000
# 4 0.0000 0.0000 0.0000 42.9676 0.0000 0.0000
# 5 0.0000 0.0000 0.0000 0.0000 0.9090 0.0000
# 6 0.0000 0.0000 0.0000 0.0000 0.0000 1.6822
#
#
#
# Elastic Compliance Matrix: (Units=1/GPa)
#
#
# Indices 1 2 3 4 5 6 
#
# 1 0.009590 -0.003669 -0.001727 0.000000 0.000000 0.000000
# 2 -0.003669 0.011552 -0.005992 0.000000 0.000000 0.000000
# 3 -0.001727 -0.005992 0.017975 0.000000 0.000000 0.000000
# 4 0.000000 0.000000 0.000000 0.023273 0.000000 0.000000
# 5 0.000000 0.000000 0.000000 0.000000 1.100167 0.000000
# 6 0.000000 0.000000 0.000000 0.000000 0.000000 0.594455
#
#
# Mechanical properties :
#
#
# Convention : Reuss Voigt Hill
#
# Bulk Modulus (GPa) = 61.19706 68.87692 65.03699
# Shear Modulus (GPa) = 2.80075 22.31608 12.55841
#
# Velocity S-wave (km/s) = 1.12668 3.18034 2.38579
# Velocity P-wave (km/s) = 5.42490 6.68609 6.08824
#
# Compressibility (1/GPa) = 0.01634065
#
# Stress axis : x y z
#
# Youngs Moduli (GPa) = 104.27716 86.56266 55.63179
#
# Poissons Ratio (x) = 0.31760 0.09609
# Poissons Ratio (y) = 0.38260 0.33335
# Poissons Ratio (z) = 0.18012 0.51868
#
# Static dielectric constant tensor:
#      x y z
#    x 1.873610 0.000000 0.000000 
#    y 0.000000 1.827390 0.000000 
#    z 0.000000 0.000000 1.938690 
# 
# From -- ./inp_files/24190.got.cif
#   From: 2010.05.17/outbox.cif.g08.bks.cpg/sg64_13_cif.got.tgz:24190.got - 2010.06.03 16:29:19.
