data_PCOD9476132
_publ_section_title
;
Structure prediction by ZEFSAII (Michael W. Deem and Ramdas Pophale) SiO2 
 PCOD9476132
Probable space group: C M C M
;
_chemical_formula_sum "Si O2"
_cell_formula_units_Z 40
_cell_length_a 27.000000
_cell_length_b 9.000000
_cell_length_c 18.000000
_cell_angle_alpha 90.000000
_cell_angle_beta 90.000000
_cell_angle_gamma 90.000000
_cell_volume 4374.000000
_symmetry_space_group_name_H-M "C M C M"
_symmetry_group_IT_number 63
_symmetry_cell_setting 'orthorhombic'
loop_
_space_group_symop_operation_xyz
x,y,z
-x,-y,1/2+z
x,-y,-z
-x,y,1/2-z
-x,-y,-z
x,y,1/2-z
-x,y,z
x,-y,1/2+z
1/2+x,1/2+y,z
1/2-x,1/2-y,1/2+z
1/2+x,1/2-y,-z
1/2-x,1/2+y,1/2-z
1/2-x,1/2-y,-z
1/2+x,1/2+y,1/2-z
1/2-x,1/2+y,z
1/2+x,1/2-y,1/2+z
loop_
_atom_site_type_symbol
_atom_site_label
_atom_site_fract_x
_atom_site_fract_y
_atom_site_fract_z
Si Si1 0.557444 0.614254 0.930663
Si Si2 0.638772 0.498805 0.332849
Si Si3 0.793868 0.299382 0.835127
Si Si4 0.204914 0.856615 0.551872
Si Si5 0.859515 0.642289 0.454935
O O1 0.500000 0.651954 0.919707
O O2 0.583878 0.549155 0.857053
O O3 0.593775 0.750698 0.948291
O O4 0.560370 0.500000 0.000000
O O5 0.640217 0.560219 0.250000
O O6 0.678184 0.360728 0.335272
O O7 0.657796 0.601073 0.398553
O O8 0.782729 0.339186 0.750000
O O9 0.745585 0.309969 0.887002
O O10 0.835415 0.399234 0.875563
O O11 0.185040 0.728049 0.498070
O O12 0.218423 0.000000 0.500000
O O13 0.873655 0.500000 0.500000
#
# Coordination Sequence:
#
# PCOD9476132 Si02
#       5
#    16  16  16  16  16
#     4  10  19  38  63  83 107 141 187 236 279 330
#     4  10  20  36  56  84 115 143 185 235 278 328
#     4  10  22  35  52  82 115 149 189 228 277 331
#     4  12  20  37  55  80 111 155 191 229 270 330
#     4  11  22  37  56  82 114 148 187 233 281 331
#
# _framework density 9.1449470000000002
#
# number of rings (size 3 to 8) (size 9 to 14) (size 15 to 20)
#    0.000    1.400    6.000    1.800    2.800    0.800 
#    0.000    1.000    0.000    0.000    0.000    0.000 
#    0.000    0.000    0.000    0.000    0.000    0.000 
#
# Total GULP energy -222919.027220 kJ/mol
# GULP energy per Si atom -5572.975680 kJ/mol
# Density = 0.912413 g / cm^3
# Si number density = 9.144947 Si / 1000 Ang^3
#
#
#
# Elastic Constant Matrix: (Units=GPa)
#
#
# Indices 1 2 3 4 5 6 
#
# 1 135.9151 17.5698 51.9756 0.0000 0.0000 0.0000
# 2 17.5698 21.1321 19.1180 0.0000 0.0000 0.0000
# 3 51.9756 19.1180 129.6778 0.0000 0.0000 0.0000
# 4 0.0000 0.0000 0.0000 12.7490 0.0000 0.0000
# 5 0.0000 0.0000 0.0000 0.0000 22.2076 0.0000
# 6 0.0000 0.0000 0.0000 0.0000 0.0000 15.3322
#
#
#
# Elastic Compliance Matrix: (Units=1/GPa)
#
#
# Indices 1 2 3 4 5 6 
#
# 1 0.009114 -0.004930 -0.002926 0.000000 0.000000 0.000000
# 2 -0.004930 0.057272 -0.006467 0.000000 0.000000 0.000000
# 3 -0.002926 -0.006467 0.009838 0.000000 0.000000 0.000000
# 4 0.000000 0.000000 0.000000 0.078438 0.000000 0.000000
# 5 0.000000 0.000000 0.000000 0.000000 0.045030 0.000000
# 6 0.000000 0.000000 0.000000 0.000000 0.000000 0.065222
#
#
# Mechanical properties :
#
#
# Convention : Reuss Voigt Hill
#
# Bulk Modulus (GPa) = 21.01909 51.56130 36.29020
# Shear Modulus (GPa) = 16.15936 23.26187 19.71062
#
# Velocity S-wave (km/s) = 2.97562 3.57016 3.28636
# Velocity P-wave (km/s) = 4.82938 6.72659 5.85534
#
# Compressibility (1/GPa) = 0.04757580
#
# Stress axis : x y z
#
# Youngs Moduli (GPa) = 109.72343 17.46067 101.65058
#
# Poissons Ratio (x) = 0.08609 0.29743
# Poissons Ratio (y) = 0.54098 0.65740
# Poissons Ratio (z) = 0.32105 0.11292
#
# Static dielectric constant tensor:
#      x y z
#    x 1.620510 0.000000 0.000000 
#    y 0.000000 1.680900 0.000000 
#    z 0.000000 0.000000 1.670880 
# 
# From -- ./inp_files/48756.got.cif
#   From: 2010.05.17/outbox.ucp.g08.bks.cvg/sg63_25_cif.got.tgz:48756.got - 2010.06.11 16:32:19.
