data_PCOD9476730
_publ_section_title
;
Structure prediction by ZEFSAII (Michael W. Deem and Ramdas Pophale) SiO2 
 PCOD9476730
Probable space group: C M C A
;
_chemical_formula_sum "Si O2"
_cell_formula_units_Z 64
_cell_length_a 5.568842
_cell_length_b 21.494894
_cell_length_c 20.875006
_cell_angle_alpha 90.000000
_cell_angle_beta 90.000000
_cell_angle_gamma 90.000000
_cell_volume 2498.773048
_symmetry_space_group_name_H-M "C M C A"
_symmetry_group_IT_number 64
_symmetry_cell_setting 'orthorhombic'
loop_
_space_group_symop_operation_xyz
x,y,z
-x,1/2-y,1/2+z
x,-y,-z
-x,1/2+y,1/2-z
-x,-y,-z
x,1/2+y,1/2-z
-x,y,z
x,1/2-y,1/2+z
1/2+x,1/2+y,z
1/2-x,-y,1/2+z
1/2+x,1/2-y,-z
1/2-x,y,1/2-z
1/2-x,1/2-y,-z
1/2+x,y,1/2-z
1/2-x,1/2+y,z
1/2+x,-y,1/2+z
loop_
_atom_site_type_symbol
_atom_site_label
_atom_site_fract_x
_atom_site_fract_y
_atom_site_fract_z
Si Si1 0.500000 0.814933 0.268872
Si Si2 0.500000 0.058771 0.817302
Si Si3 0.000000 0.214051 0.076592
Si Si4 0.000000 0.271932 0.935665
Si Si5 0.000000 0.908291 0.120983
Si Si6 0.500000 0.416842 0.568637
Si Si7 0.000000 0.921011 0.720109
Si Si8 0.000000 0.080115 0.029713
O O1 0.250000 0.782636 0.250000
O O2 0.500000 0.878710 0.225183
O O3 0.500000 0.843354 0.340213
O O4 0.748231 0.060199 0.857455
O O5 0.500000 0.996550 0.775149
O O6 0.252525 0.237583 0.101493
O O7 0.000000 0.140081 0.076457
O O8 0.000000 0.233026 0.001108
O O9 0.000000 0.345262 0.957958
O O10 0.000000 0.902275 0.044687
O O11 0.500000 0.409321 0.644574
O O12 0.744982 0.449342 0.546739
O O13 0.250000 0.897840 0.750000
#
# Coordination Sequence:
#
# PCOD9476730 Si02
#       8
#     8   8   8   8   8   8   8   8
#     4   8  14  25  42  62  81 108 151 199 230 252
#     4  10  19  33  50  69  90 122 171 218 241 273
#     4   8  14  25  46  70  95 128 160 185 217 277
#     4   8  14  27  46  69  95 124 156 190 230 274
#     4  10  18  30  49  71  97 129 158 193 247 295
#     4  10  21  35  50  73 104 130 159 209 256 298
#     4  12  23  38  57  74  91 122 174 222 258 292
#     4  10  19  33  49  74 109 135 159 194 248 309
#
# _framework density 25.612572
#
# number of rings (size 3 to 8) (size 9 to 14) (size 15 to 20)
#    0.000    2.500    0.000    4.500    0.000    0.000 
#    0.000    3.750    0.000    0.000    0.000    5.250 
#    0.000    0.000    0.000    0.000    0.000    0.000 
#
# Total GULP energy -178864.566677 kJ/mol
# GULP energy per Si atom -5589.517709 kJ/mol
# Density = 2.555428 g / cm^3
# Si number density = 25.612572 Si / 1000 Ang^3
#
#
#
# Elastic Constant Matrix: (Units=GPa)
#
#
# Indices 1 2 3 4 5 6 
#
# 1 339.1015 3.7919 66.3000 0.0000 0.0000 0.0000
# 2 3.7919 64.5620 2.8114 0.0000 0.0000 0.0000
# 3 66.3000 2.8114 133.3694 0.0000 0.0000 0.0000
# 4 0.0000 0.0000 0.0000 27.7839 0.0000 0.0000
# 5 0.0000 0.0000 0.0000 0.0000 33.8472 0.0000
# 6 0.0000 0.0000 0.0000 0.0000 0.0000 48.1586
#
#
#
# Elastic Compliance Matrix: (Units=1/GPa)
#
#
# Indices 1 2 3 4 5 6 
#
# 1 0.003267 -0.000121 -0.001622 0.000000 0.000000 0.000000
# 2 -0.000121 0.015508 -0.000267 0.000000 0.000000 0.000000
# 3 -0.001622 -0.000267 0.008310 0.000000 0.000000 0.000000
# 4 0.000000 0.000000 0.000000 0.035992 0.000000 0.000000
# 5 0.000000 0.000000 0.000000 0.000000 0.029545 0.000000
# 6 0.000000 0.000000 0.000000 0.000000 0.000000 0.020765
#
#
# Mechanical properties :
#
#
# Convention : Reuss Voigt Hill
#
# Bulk Modulus (GPa) = 43.35448 75.87105 59.61276
# Shear Modulus (GPa) = 39.96994 52.89991 46.43493
#
# Velocity S-wave (km/s) = 3.95468 4.54958 4.26252
# Velocity P-wave (km/s) = 6.14950 7.56870 6.89571
#
# Compressibility (1/GPa) = 0.02306567
#
# Stress axis : x y z
#
# Youngs Moduli (GPa) = 306.05382 64.48406 120.34024
#
# Poissons Ratio (x) = 0.00782 0.19516
# Poissons Ratio (y) = 0.03712 0.03208
# Poissons Ratio (z) = 0.49633 0.01719
#
# Static dielectric constant tensor:
#      x y z
#    x 2.185160 0.000000 0.000000 
#    y 0.000000 1.637330 0.000000 
#    z 0.000000 0.000000 1.923170 
# 
# From -- ./inp_files/28731.got.cif
#   From: 2010.05.17/outbox.cif.g08.bks.cpg/sg64_15_cif.got.tgz:28731.got - 2010.06.03 16:29:19.
