data_PCOD9476801
_publ_section_title
;
Structure prediction by ZEFSAII (Michael W. Deem and Ramdas Pophale) SiO2 
 PCOD9476801
Probable space group: C M C A
;
_chemical_formula_sum "Si O2"
_cell_formula_units_Z 80
_cell_length_a 24.545274
_cell_length_b 8.791205
_cell_length_c 13.650548
_cell_angle_alpha 90.000000
_cell_angle_beta 90.000000
_cell_angle_gamma 90.000000
_cell_volume 2945.549859
_symmetry_space_group_name_H-M "C M C A"
_symmetry_group_IT_number 64
_symmetry_cell_setting 'orthorhombic'
loop_
_space_group_symop_operation_xyz
x,y,z
-x,1/2-y,1/2+z
x,-y,-z
-x,1/2+y,1/2-z
-x,-y,-z
x,1/2+y,1/2-z
-x,y,z
x,1/2-y,1/2+z
1/2+x,1/2+y,z
1/2-x,-y,1/2+z
1/2+x,1/2-y,-z
1/2-x,y,1/2-z
1/2-x,1/2-y,-z
1/2+x,y,1/2-z
1/2-x,1/2+y,z
1/2+x,-y,1/2+z
loop_
_atom_site_type_symbol
_atom_site_label
_atom_site_fract_x
_atom_site_fract_y
_atom_site_fract_z
Si Si1 0.829070 0.762947 0.909552
Si Si2 0.263244 0.557509 0.867076
Si Si3 0.941687 0.827820 0.460456
Si Si4 0.134160 0.778817 0.184370
Si Si5 0.438828 0.495519 0.730548
O O1 0.791047 0.615400 0.919042
O O2 0.791625 0.910474 0.911909
O O3 0.884644 0.758230 0.972654
O O4 0.845439 0.749571 0.795262
O O5 0.250000 0.530652 0.750000
O O6 0.309302 0.690659 0.870815
O O7 0.944438 0.863465 0.344424
O O8 0.000000 0.759465 0.492940
O O9 0.939934 0.000000 0.500000
O O10 0.098417 0.934043 0.184098
O O11 0.093562 0.636846 0.173196
O O12 0.500000 0.449405 0.758523
#
# Coordination Sequence:
#
# PCOD9476801 Si02
#       5
#    16  16  16  16  16
#     4  10  20  32  54  80 106 143 179 215 262 322
#     4  10  19  31  51  80 116 145 171 211 270 336
#     4   9  20  39  59  76 103 147 192 228 270 326
#     4  10  18  31  49  79 115 141 171 217 273 329
#     4  10  19  31  52  81 110 141 178 225 272 321
#
# _framework density 27.159614999999999
#
# number of rings (size 3 to 8) (size 9 to 14) (size 15 to 20)
#    0.000    2.200    2.000    2.400    5.600    0.800 
#    0.000    1.000    0.000    0.000    0.000    4.200 
#    0.000    0.000    0.000    0.000    0.000    0.000 
#
# Total GULP energy -223715.758175 kJ/mol
# GULP energy per Si atom -5592.893954 kJ/mol
# Density = 2.709780 g / cm^3
# Si number density = 27.159615 Si / 1000 Ang^3
#
#
#
# Elastic Constant Matrix: (Units=GPa)
#
#
# Indices 1 2 3 4 5 6 
#
# 1 215.4765 83.6517 41.0094 0.0000 0.0000 0.0000
# 2 83.6517 107.1233 13.7685 0.0000 0.0000 0.0000
# 3 41.0094 13.7685 53.1715 0.0000 0.0000 0.0000
# 4 0.0000 0.0000 0.0000 38.3979 0.0000 0.0000
# 5 0.0000 0.0000 0.0000 0.0000 29.0361 0.0000
# 6 0.0000 0.0000 0.0000 0.0000 0.0000 58.6277
#
#
#
# Elastic Compliance Matrix: (Units=1/GPa)
#
#
# Indices 1 2 3 4 5 6 
#
# 1 0.007556 -0.005329 -0.004448 0.000000 0.000000 0.000000
# 2 -0.005329 0.013414 0.000636 0.000000 0.000000 0.000000
# 3 -0.004448 0.000636 0.022073 0.000000 0.000000 0.000000
# 4 0.000000 0.000000 0.000000 0.026043 0.000000 0.000000
# 5 0.000000 0.000000 0.000000 0.000000 0.034440 0.000000
# 6 0.000000 0.000000 0.000000 0.000000 0.000000 0.017057
#
#
# Mechanical properties :
#
#
# Convention : Reuss Voigt Hill
#
# Bulk Modulus (GPa) = 40.38348 72.51449 56.44898
# Shear Modulus (GPa) = 33.98625 41.03512 37.51068
#
# Velocity S-wave (km/s) = 3.54128 3.89123 3.72037
# Velocity P-wave (km/s) = 5.62336 6.85173 6.26771
#
# Compressibility (1/GPa) = 0.02476260
#
# Stress axis : x y z
#
# Youngs Moduli (GPa) = 132.34250 74.54621 45.30457
#
# Poissons Ratio (x) = 0.39725 0.20151
# Poissons Ratio (y) = 0.70523 -0.02883
# Poissons Ratio (z) = 0.58865 -0.04744
#
# Static dielectric constant tensor:
#      x y z
#    x 2.178400 0.000000 0.000000 
#    y 0.000000 2.098030 0.000000 
#    z 0.000000 0.000000 2.254310 
# 
# From -- ./inp_files/35670.got.cif
#   From: 2010.05.17/outbox.cif.g08.bks.cpg/sg64_18_cif.got.tgz:35670.got - 2010.06.03 16:29:19.
