data_PCOD9476508
_publ_section_title
;
Structure prediction by ZEFSAII (Michael W. Deem and Ramdas Pophale) SiO2 
 PCOD9476508
Probable space group: C M C A
;
_chemical_formula_sum "Si O2"
_cell_formula_units_Z 128
_cell_length_a 20.420764
_cell_length_b 19.861551
_cell_length_c 19.011730
_cell_angle_alpha 90.000000
_cell_angle_beta 90.000000
_cell_angle_gamma 90.000000
_cell_volume 7710.930415
_symmetry_space_group_name_H-M "C M C A"
_symmetry_group_IT_number 64
_symmetry_cell_setting 'orthorhombic'
loop_
_space_group_symop_operation_xyz
x,y,z
-x,1/2-y,1/2+z
x,-y,-z
-x,1/2+y,1/2-z
-x,-y,-z
x,1/2+y,1/2-z
-x,y,z
x,1/2-y,1/2+z
1/2+x,1/2+y,z
1/2-x,-y,1/2+z
1/2+x,1/2-y,-z
1/2-x,y,1/2-z
1/2-x,1/2-y,-z
1/2+x,y,1/2-z
1/2-x,1/2+y,z
1/2+x,-y,1/2+z
loop_
_atom_site_type_symbol
_atom_site_label
_atom_site_fract_x
_atom_site_fract_y
_atom_site_fract_z
Si Si1 0.708416 0.107664 0.819697
Si Si2 0.072053 0.908256 0.261845
Si Si3 0.695742 0.269668 0.808002
Si Si4 0.425423 0.749779 0.782059
Si Si5 0.304516 0.300103 0.968760
Si Si6 0.427560 0.057452 0.602545
Si Si7 0.425493 0.783706 0.438299
Si Si8 0.787959 0.941843 0.046197
O O1 0.750000 0.091558 0.750000
O O2 0.634866 0.080413 0.809937
O O3 0.704526 0.189220 0.822383
O O4 0.746413 0.078643 0.885919
O O5 0.073948 0.829198 0.239852
O O6 0.077509 0.945805 0.187050
O O7 0.000000 0.922028 0.292327
O O8 0.750000 0.288697 0.750000
O O9 0.626489 0.282450 0.769904
O O10 0.699284 0.302144 0.884629
O O11 0.500000 0.774501 0.776201
O O12 0.405221 0.751212 0.864395
O O13 0.250000 0.250000 0.000000
O O14 0.374231 0.274061 0.999307
O O15 0.295575 0.374086 0.001017
O O16 0.500000 0.030360 0.582313
O O17 0.427434 0.136644 0.580903
O O18 0.359974 0.031571 0.570274
O O19 0.500000 0.763508 0.455293
O O20 0.756113 0.000000 0.000000
#
# Coordination Sequence:
#
# PCOD9476508 Si02
#       8
#    16  16  16  16  16  16  16  16
#     4  10  17  30  51  74  97 129 167 207 249 297
#     4   8  13  23  45  73  96 118 160 212 246 281
#     4  10  19  29  49  73  96 129 171 207 243 294
#     4   8  14  25  42  69 100 126 156 201 248 291
#     4  11  20  33  50  73 103 133 167 208 256 303
#     4   8  14  27  47  72  98 127 159 197 246 300
#     4   8  15  27  46  72 103 131 158 199 253 302
#     4  11  22  34  49  74 106 135 166 208 257 303
#
# _framework density 16.599813000000001
#
# number of rings (size 3 to 8) (size 9 to 14) (size 15 to 20)
#    0.000    2.750    2.500    2.250    3.500    0.750 
#    0.000    0.625    0.000    0.375    0.000    0.000 
#    0.000    0.000    0.000    0.000    0.000    0.000 
#
# Total GULP energy -356287.654699 kJ/mol
# GULP energy per Si atom -5566.994605 kJ/mol
# Density = 1.656203 g / cm^3
# Si number density = 16.599813 Si / 1000 Ang^3
#
#
#
# Elastic Constant Matrix: (Units=GPa)
#
#
# Indices 1 2 3 4 5 6 
#
# 1 110.7746 14.9296 75.1705 0.0000 0.0000 0.0000
# 2 14.9296 19.3647 22.4836 0.0000 0.0000 0.0000
# 3 75.1705 22.4836 136.5586 0.0000 0.0000 0.0000
# 4 0.0000 0.0000 0.0000 17.7866 0.0000 0.0000
# 5 0.0000 0.0000 0.0000 0.0000 27.4361 0.0000
# 6 0.0000 0.0000 0.0000 0.0000 0.0000 1.0254
#
#
#
# Elastic Compliance Matrix: (Units=1/GPa)
#
#
# Indices 1 2 3 4 5 6 
#
# 1 0.014497 -0.002363 -0.007591 0.000000 0.000000 0.000000
# 2 -0.002363 0.064230 -0.009274 0.000000 0.000000 0.000000
# 3 -0.007591 -0.009274 0.013028 0.000000 0.000000 0.000000
# 4 0.000000 0.000000 0.000000 0.056222 0.000000 0.000000
# 5 0.000000 0.000000 0.000000 0.000000 0.036448 0.000000
# 6 0.000000 0.000000 0.000000 0.000000 0.000000 0.975194
#
#
# Mechanical properties :
#
#
# Convention : Reuss Voigt Hill
#
# Bulk Modulus (GPa) = 18.76214 54.65167 36.70691
# Shear Modulus (GPa) = 4.11237 19.52391 11.81814
#
# Velocity S-wave (km/s) = 1.57567 3.43323 2.67112
# Velocity P-wave (km/s) = 3.82590 6.97930 5.62797
#
# Compressibility (1/GPa) = 0.05329883
#
# Stress axis : x y z
#
# Youngs Moduli (GPa) = 68.97982 15.56896 76.75544
#
# Poissons Ratio (x) = 0.03679 0.58265
# Poissons Ratio (y) = 0.16301 0.71186
# Poissons Ratio (z) = 0.52363 0.14439
#
# Static dielectric constant tensor:
#      x y z
#    x 1.603730 0.000000 0.000000 
#    y 0.000000 1.535070 0.000000 
#    z 0.000000 0.000000 1.550960 
# 
# From -- ./inp_files/34693.got.cif
#   From: 2010.05.17/outbox.cif.g08.bks.cpg/sg64_18_cif.got.tgz:34693.got - 2010.06.03 16:29:19.
