data_PCOD9476200
_publ_section_title
;
Structure prediction by ZEFSAII (Michael W. Deem and Ramdas Pophale) SiO2 
 PCOD9476200
Probable space group: C M C M
;
_chemical_formula_sum "Si O2"
_cell_formula_units_Z 36
_cell_length_a 18.000000
_cell_length_b 12.000000
_cell_length_c 18.000000
_cell_angle_alpha 90.000000
_cell_angle_beta 90.000000
_cell_angle_gamma 90.000000
_cell_volume 3888.000000
_symmetry_space_group_name_H-M "C M C M"
_symmetry_group_IT_number 63
_symmetry_cell_setting 'orthorhombic'
loop_
_space_group_symop_operation_xyz
x,y,z
-x,-y,1/2+z
x,-y,-z
-x,y,1/2-z
-x,-y,-z
x,y,1/2-z
-x,y,z
x,-y,1/2+z
1/2+x,1/2+y,z
1/2-x,1/2-y,1/2+z
1/2+x,1/2-y,-z
1/2-x,1/2+y,1/2-z
1/2-x,1/2-y,-z
1/2+x,1/2+y,1/2-z
1/2-x,1/2+y,z
1/2+x,1/2-y,1/2+z
loop_
_atom_site_type_symbol
_atom_site_label
_atom_site_fract_x
_atom_site_fract_y
_atom_site_fract_z
Si Si1 0.840258 0.075276 0.410182
Si Si2 0.912966 0.700552 0.973539
Si Si3 0.220770 0.930638 0.750000
Si Si4 0.801488 0.185653 0.750000
Si Si5 0.302368 0.000000 0.500000
Si Si6 0.585399 0.652716 0.615421
O O1 0.879613 0.190252 0.432852
O O2 0.828643 0.077978 0.322667
O O3 0.757247 0.059136 0.444683
O O4 0.887225 0.961782 0.424143
O O5 0.000000 0.678197 0.953253
O O6 0.857220 0.595122 0.966585
O O7 0.912981 0.744108 0.058522
O O8 0.267597 0.812450 0.750000
O O9 0.246191 0.065751 0.750000
O O10 0.855102 0.176256 0.821027
O O11 0.500000 0.638104 0.640799
#
# Coordination Sequence:
#
# PCOD9476200 Si02
#       6
#    16  16   8   8   8  16
#     4  11  22  38  62  89 117 158 203 255 299 361
#     4  11  23  39  59  88 125 158 199 249 304 363
#     4  10  24  36  60  88 122 151 207 257 305 359
#     4  10  21  38  56  90 117 161 197 257 306 363
#     4  12  23  36  63  90 122 160 202 246 305 364
#     4  10  20  37  60  87 118 155 202 251 302 356
#
# _framework density 9.2592590000000001
#
# number of rings (size 3 to 8) (size 9 to 14) (size 15 to 20)
#    0.000    1.333    2.222    3.333    6.222    1.778 
#    0.000    1.667    0.000    0.000    0.000    0.000 
#    0.000    0.000    0.000    0.000    0.000    0.000 
#
# Total GULP energy -200471.920676 kJ/mol
# GULP energy per Si atom -5568.664463 kJ/mol
# Density = 0.923818 g / cm^3
# Si number density = 9.259259 Si / 1000 Ang^3
#
#
#
# Elastic Constant Matrix: (Units=GPa)
#
#
# Indices 1 2 3 4 5 6 
#
# 1 112.4243 47.3198 9.5762 0.0000 0.0000 0.0000
# 2 47.3198 98.2308 -5.2296 0.0000 0.0000 0.0000
# 3 9.5762 -5.2296 65.9342 0.0000 0.0000 0.0000
# 4 0.0000 0.0000 0.0000 21.6987 0.0000 0.0000
# 5 0.0000 0.0000 0.0000 0.0000 10.8272 0.0000
# 6 0.0000 0.0000 0.0000 0.0000 0.0000 42.1199
#
#
#
# Elastic Compliance Matrix: (Units=1/GPa)
#
#
# Indices 1 2 3 4 5 6 
#
# 1 0.011442 -0.005624 -0.002108 0.000000 0.000000 0.000000
# 2 -0.005624 0.012988 0.001847 0.000000 0.000000 0.000000
# 3 -0.002108 0.001847 0.015619 0.000000 0.000000 0.000000
# 4 0.000000 0.000000 0.000000 0.046086 0.000000 0.000000
# 5 0.000000 0.000000 0.000000 0.000000 0.092360 0.000000
# 6 0.000000 0.000000 0.000000 0.000000 0.000000 0.023742
#
#
# Mechanical properties :
#
#
# Convention : Reuss Voigt Hill
#
# Bulk Modulus (GPa) = 35.36207 42.21355 38.78781
# Shear Modulus (GPa) = 22.37820 29.92401 26.15110
#
# Velocity S-wave (km/s) = 3.48001 4.02418 3.76195
# Velocity P-wave (km/s) = 5.94005 6.66610 6.31352
#
# Compressibility (1/GPa) = 0.02827889
#
# Stress axis : x y z
#
# Youngs Moduli (GPa) = 87.40110 76.99681 64.02351
#
# Poissons Ratio (x) = 0.43302 0.13495
# Poissons Ratio (y) = 0.49153 -0.11825
# Poissons Ratio (z) = 0.18422 -0.14221
#
# Static dielectric constant tensor:
#      x y z
#    x 1.631020 0.000000 0.000000 
#    y 0.000000 1.664860 0.000000 
#    z 0.000000 0.000000 1.686540 
# 
# From -- ./inp_files/45287.got.cif
#   From: 2010.05.17/outbox.ucp.g08.bks.cvg/sg63_23_cif.got.tgz:45287.got - 2010.06.11 16:32:19.
