data_PCOD9476908
_publ_section_title
;
Structure prediction by ZEFSAII (Michael W. Deem and Ramdas Pophale) SiO2 
 PCOD9476908
Probable space group: C M C A
;
_chemical_formula_sum "Si O2"
_cell_formula_units_Z 48
_cell_length_a 13.051325
_cell_length_b 21.090271
_cell_length_c 7.664527
_cell_angle_alpha 90.000000
_cell_angle_beta 90.000000
_cell_angle_gamma 90.000000
_cell_volume 2109.706900
_symmetry_space_group_name_H-M "C M C A"
_symmetry_group_IT_number 64
_symmetry_cell_setting 'orthorhombic'
loop_
_space_group_symop_operation_xyz
x,y,z
-x,1/2-y,1/2+z
x,-y,-z
-x,1/2+y,1/2-z
-x,-y,-z
x,1/2+y,1/2-z
-x,y,z
x,1/2-y,1/2+z
1/2+x,1/2+y,z
1/2-x,-y,1/2+z
1/2+x,1/2-y,-z
1/2-x,y,1/2-z
1/2-x,1/2-y,-z
1/2+x,y,1/2-z
1/2-x,1/2+y,z
1/2+x,-y,1/2+z
loop_
_atom_site_type_symbol
_atom_site_label
_atom_site_fract_x
_atom_site_fract_y
_atom_site_fract_z
Si Si1 0.000000 0.772844 0.713444
Si Si2 0.612599 0.375398 0.883104
Si Si3 0.000000 0.144943 0.642301
Si Si4 0.183164 0.074628 0.490528
O O1 0.903900 0.802698 0.820087
O O2 0.000000 0.808577 0.528838
O O3 0.000000 0.697709 0.707363
O O4 0.500000 0.397489 0.944300
O O5 0.709303 0.388581 0.002471
O O6 0.637157 0.411516 0.701843
O O7 0.900473 0.101303 0.624410
O O8 0.200719 0.000000 0.500000
#
# Coordination Sequence:
#
# PCOD9476908 Si02
#       4
#     8  16   8  16
#     4   8  18  36  53  78 103 144 176 216 268 308
#     4   8  18  35  51  75 106 139 169 220 276 306
#     4  10  19  34  56  80 109 140 182 220 264 322
#     4  10  18  32  56  79 102 142 176 215 269 323
#
# _framework density 22.751975999999999
#
# number of rings (size 3 to 8) (size 9 to 14) (size 15 to 20)
#    1.000    2.000    1.667    0.500    0.000    2.000 
#    0.000    6.667    0.000    0.000    0.000    0.000 
#    0.000    0.000    0.000    0.000    0.000    0.000 
#
# Total GULP energy -133892.385453 kJ/mol
# GULP energy per Si atom -5578.849394 kJ/mol
# Density = 2.270019 g / cm^3
# Si number density = 22.751976 Si / 1000 Ang^3
#
#
#
# Elastic Constant Matrix: (Units=GPa)
#
#
# Indices 1 2 3 4 5 6 
#
# 1 167.4352 26.6264 21.4362 0.0000 0.0000 0.0000
# 2 26.6264 87.8584 7.3985 0.0000 0.0000 0.0000
# 3 21.4362 7.3985 56.6202 0.0000 0.0000 0.0000
# 4 0.0000 0.0000 0.0000 65.2140 0.0000 0.0000
# 5 0.0000 0.0000 0.0000 0.0000 187.8582 0.0000
# 6 0.0000 0.0000 0.0000 0.0000 0.0000 12.2024
#
#
#
# Elastic Compliance Matrix: (Units=1/GPa)
#
#
# Indices 1 2 3 4 5 6 
#
# 1 0.006545 -0.001795 -0.002243 0.000000 0.000000 0.000000
# 2 -0.001795 0.012001 -0.000889 0.000000 0.000000 0.000000
# 3 -0.002243 -0.000889 0.018627 0.000000 0.000000 0.000000
# 4 0.000000 0.000000 0.000000 0.015334 0.000000 0.000000
# 5 0.000000 0.000000 0.000000 0.000000 0.005323 0.000000
# 6 0.000000 0.000000 0.000000 0.000000 0.000000 0.081951
#
#
# Mechanical properties :
#
#
# Convention : Reuss Voigt Hill
#
# Bulk Modulus (GPa) = 36.60417 46.98175 41.79296
# Shear Modulus (GPa) = 31.49784 70.15176 50.82480
#
# Velocity S-wave (km/s) = 3.72479 5.55879 4.73150
# Velocity P-wave (km/s) = 5.88405 7.86731 6.94682
#
# Compressibility (1/GPa) = 0.02731929
#
# Stress axis : x y z
#
# Youngs Moduli (GPa) = 152.78674 83.32867 53.68546
#
# Poissons Ratio (x) = 0.14954 0.12044
# Poissons Ratio (y) = 0.27420 0.04771
# Poissons Ratio (z) = 0.34277 0.07405
#
# Static dielectric constant tensor:
#      x y z
#    x 1.864930 0.000000 0.000000 
#    y 0.000000 1.781080 0.000000 
#    z 0.000000 0.000000 1.978040 
# 
# From -- ./inp_files/5208.got.cif
#   From: 2010.05.17/outbox.cif.g08.bks.cpg/sg64_3_cif.got.tgz:5208.got - 2010.06.03 16:29:19.
