data_PCOD9476226
_publ_section_title
;
Structure prediction by ZEFSAII (Michael W. Deem and Ramdas Pophale) SiO2 
 PCOD9476226
Probable space group: C M C M
;
_chemical_formula_sum "Si O2"
_cell_formula_units_Z 40
_cell_length_a 9.000000
_cell_length_b 27.000000
_cell_length_c 18.000000
_cell_angle_alpha 90.000000
_cell_angle_beta 90.000000
_cell_angle_gamma 90.000000
_cell_volume 4374.000000
_symmetry_space_group_name_H-M "C M C M"
_symmetry_group_IT_number 63
_symmetry_cell_setting 'orthorhombic'
loop_
_space_group_symop_operation_xyz
x,y,z
-x,-y,1/2+z
x,-y,-z
-x,y,1/2-z
-x,-y,-z
x,y,1/2-z
-x,y,z
x,-y,1/2+z
1/2+x,1/2+y,z
1/2-x,1/2-y,1/2+z
1/2+x,1/2-y,-z
1/2-x,1/2+y,1/2-z
1/2-x,1/2-y,-z
1/2+x,1/2+y,1/2-z
1/2-x,1/2+y,z
1/2+x,1/2-y,1/2+z
loop_
_atom_site_type_symbol
_atom_site_label
_atom_site_fract_x
_atom_site_fract_y
_atom_site_fract_z
Si Si1 0.675365 0.803935 0.660338
Si Si2 0.180807 0.806656 0.163900
Si Si3 0.323128 0.401831 0.595221
Si Si4 0.177072 0.499925 0.337558
Si Si5 0.821686 0.906451 0.080484
O O1 0.688087 0.806106 0.750000
O O2 0.500000 0.808618 0.642369
O O3 0.727511 0.748427 0.637972
O O4 0.762164 0.849582 0.625092
O O5 0.225936 0.813082 0.250000
O O6 0.227948 0.854164 0.116512
O O7 0.000000 0.805527 0.162966
O O8 0.500000 0.404311 0.606903
O O9 0.246660 0.448378 0.635202
O O10 0.293283 0.405850 0.507293
O O11 0.207162 0.493690 0.250000
O O12 0.245403 0.453507 0.381480
O O13 0.000000 0.501454 0.348693
O O14 0.000000 0.910531 0.091706
#
# Coordination Sequence:
#
# PCOD9476226 Si02
#       5
#    16  16  16  16  16
#     4   9  18  34  56  80 106 141 185 224 260 312
#     4   8  15  31  56  81 105 139 181 220 261 313
#     4  11  23  36  53  81 113 143 178 220 267 319
#     4  11  24  40  58  80 105 137 180 225 269 321
#     4  10  21  37  57  82 111 142 178 219 265 321
#
# _framework density 9.1449470000000002
#
# number of rings (size 3 to 8) (size 9 to 14) (size 15 to 20)
#    0.000    2.200    0.000    4.200    0.000   10.000 
#    0.000    1.000    0.000    1.200    0.000    0.000 
#    0.000    0.000    0.000    0.000    0.000    0.000 
#
# Total GULP energy -223326.177009 kJ/mol
# GULP energy per Si atom -5583.154425 kJ/mol
# Density = 0.912413 g / cm^3
# Si number density = 9.144947 Si / 1000 Ang^3
#
#
#
# Elastic Constant Matrix: (Units=GPa)
#
#
# Indices 1 2 3 4 5 6 
#
# 1 30.1631 21.8553 32.9672 0.0000 0.0000 0.0000
# 2 21.8553 104.6453 21.9362 0.0000 0.0000 0.0000
# 3 32.9672 21.9362 43.8775 0.0000 0.0000 0.0000
# 4 0.0000 0.0000 0.0000 -10.4289 0.0000 0.0000
# 5 0.0000 0.0000 0.0000 0.0000 23.1364 0.0000
# 6 0.0000 0.0000 0.0000 0.0000 0.0000 33.7053
#
#
#
# Elastic Compliance Matrix: (Units=1/GPa)
#
#
# Indices 1 2 3 4 5 6 
#
# 1 0.196658 -0.011281 -0.142119 0.000000 0.000000 0.000000
# 2 -0.011281 0.011322 0.002816 0.000000 0.000000 0.000000
# 3 -0.142119 0.002816 0.128164 0.000000 0.000000 0.000000
# 4 0.000000 0.000000 0.000000 -0.095888 0.000000 0.000000
# 5 0.000000 0.000000 0.000000 0.000000 0.043222 0.000000
# 6 0.000000 0.000000 0.000000 0.000000 0.000000 0.029669
#
#
# Mechanical properties :
#
#
# Convention : Reuss Voigt Hill
#
# Bulk Modulus (GPa) = 28.59141 36.91149 32.75145
# Shear Modulus (GPa) = 7.98754 16.07769 12.03262
#
# Velocity S-wave (km/s) = 2.09205 2.96809 2.56771
# Velocity P-wave (km/s) = 4.63701 5.65431 5.17074
#
# Compressibility (1/GPa) = 0.03497554
#
# Stress axis : x y z
#
# Youngs Moduli (GPa) = 5.08496 88.32435 7.80251
#
# Poissons Ratio (x) = 0.99637 1.10889
# Poissons Ratio (y) = 0.05736 -0.02197
# Poissons Ratio (z) = 0.72267 -0.24868
#
# Static dielectric constant tensor:
#      x y z
#    x 1.617060 0.000000 0.000000 
#    y 0.000000 1.608840 0.000000 
#    z 0.000000 0.000000 1.614440 
# 
# From -- ./inp_files/40510.got.cif
#   From: 2010.05.17/outbox.ucp.g08.bks.cvg/sg63_21_cif.got.tgz:40510.got - 2010.06.11 16:32:19.
