data_PCOD9476283
_publ_section_title
;
Structure prediction by ZEFSAII (Michael W. Deem and Ramdas Pophale) SiO2 
 PCOD9476283
Probable space group: C M C M
;
_chemical_formula_sum "Si O2"
_cell_formula_units_Z 24
_cell_length_a 9.000000
_cell_length_b 24.000000
_cell_length_c 12.000000
_cell_angle_alpha 90.000000
_cell_angle_beta 90.000000
_cell_angle_gamma 90.000000
_cell_volume 2592.000000
_symmetry_space_group_name_H-M "C M C M"
_symmetry_group_IT_number 63
_symmetry_cell_setting 'orthorhombic'
loop_
_space_group_symop_operation_xyz
x,y,z
-x,-y,1/2+z
x,-y,-z
-x,y,1/2-z
-x,-y,-z
x,y,1/2-z
-x,y,z
x,-y,1/2+z
1/2+x,1/2+y,z
1/2-x,1/2-y,1/2+z
1/2+x,1/2-y,-z
1/2-x,1/2+y,1/2-z
1/2-x,1/2-y,-z
1/2+x,1/2+y,1/2-z
1/2-x,1/2+y,z
1/2+x,1/2-y,1/2+z
loop_
_atom_site_type_symbol
_atom_site_label
_atom_site_fract_x
_atom_site_fract_y
_atom_site_fract_z
Si Si1 0.321244 0.689854 0.030967
Si Si2 0.820007 0.504431 0.250000
Si Si3 0.819524 0.635194 0.250000
Si Si4 0.830162 0.599498 0.622174
O O1 0.500000 0.694825 0.038043
O O2 0.248554 0.666825 0.144317
O O3 0.250000 0.750000 0.000000
O O4 0.273632 0.641415 0.943901
O O5 0.775265 0.568937 0.250000
O O6 0.778779 0.464937 0.356396
O O7 0.000000 0.503824 0.250000
O O8 0.000000 0.637606 0.250000
O O9 0.838854 0.620367 0.750000
O O10 0.000000 0.599327 0.575825
#
# Coordination Sequence:
#
# PCOD9476283 Si02
#       4
#    16   8   8  16
#     4  12  26  42  61  88 124 164 204 252 306 362
#     4   7  16  36  65  94 121 156 200 245 294 361
#     4  11  23  42  65  92 121 158 206 251 300 359
#     4   8  17  38  65  91 119 157 201 244 294 355
#
# _framework density 9.2592590000000001
#
# number of rings (size 3 to 8) (size 9 to 14) (size 15 to 20)
#    1.000    1.333    0.000    3.500    2.333    2.000 
#    0.000   10.000    0.000    0.000    0.000    0.000 
#    0.000    0.000    0.000    0.000    0.000    0.000 
#
# Total GULP energy -133617.756571 kJ/mol
# GULP energy per Si atom -5567.406524 kJ/mol
# Density = 0.923818 g / cm^3
# Si number density = 9.259259 Si / 1000 Ang^3
#
#
#
# Elastic Constant Matrix: (Units=GPa)
#
#
# Indices 1 2 3 4 5 6 
#
# 1 131.1064 74.5227 45.2164 0.0000 0.0000 0.0000
# 2 74.5227 205.1881 74.3007 0.0000 0.0000 0.0000
# 3 45.2164 74.3007 97.2584 0.0000 0.0000 0.0000
# 4 0.0000 0.0000 0.0000 29.0224 0.0000 0.0000
# 5 0.0000 0.0000 0.0000 0.0000 31.7803 0.0000
# 6 0.0000 0.0000 0.0000 0.0000 0.0000 34.8067
#
#
#
# Elastic Compliance Matrix: (Units=1/GPa)
#
#
# Indices 1 2 3 4 5 6 
#
# 1 0.010069 -0.002712 -0.002609 0.000000 0.000000 0.000000
# 2 -0.002712 0.007468 -0.004444 0.000000 0.000000 0.000000
# 3 -0.002609 -0.004444 0.014890 0.000000 0.000000 0.000000
# 4 0.000000 0.000000 0.000000 0.034456 0.000000 0.000000
# 5 0.000000 0.000000 0.000000 0.000000 0.031466 0.000000
# 6 0.000000 0.000000 0.000000 0.000000 0.000000 0.028730
#
#
# Mechanical properties :
#
#
# Convention : Reuss Voigt Hill
#
# Bulk Modulus (GPa) = 77.54464 91.29252 84.41858
# Shear Modulus (GPa) = 33.13260 35.08942 34.11101
#
# Velocity S-wave (km/s) = 4.23444 4.35769 4.29650
# Velocity P-wave (km/s) = 8.11617 8.64432 8.38440
#
# Compressibility (1/GPa) = 0.01289580
#
# Stress axis : x y z
#
# Youngs Moduli (GPa) = 99.31604 133.90660 67.15875
#
# Poissons Ratio (x) = 0.36317 0.17523
# Poissons Ratio (y) = 0.26936 0.29847
# Poissons Ratio (z) = 0.25913 0.59511
#
# Static dielectric constant tensor:
#      x y z
#    x 1.624010 0.000000 0.000000 
#    y 0.000000 1.641330 0.000000 
#    z 0.000000 0.000000 1.729180 
# 
# From -- ./inp_files/15681.got.cif
#   From: 2010.05.17/outbox.ucp.g08.bks.cvg/sg63_8_cif.got.tgz:15681.got - 2010.06.11 16:32:19.
