data_PCOD9476717
_publ_section_title
;
Structure prediction by ZEFSAII (Michael W. Deem and Ramdas Pophale) SiO2 
 PCOD9476717
Probable space group: C M C A
;
_chemical_formula_sum "Si O2"
_cell_formula_units_Z 80
_cell_length_a 8.818346
_cell_length_b 24.013130
_cell_length_c 22.068313
_cell_angle_alpha 90.000000
_cell_angle_beta 90.000000
_cell_angle_gamma 90.000000
_cell_volume 4673.099649
_symmetry_space_group_name_H-M "C M C A"
_symmetry_group_IT_number 64
_symmetry_cell_setting 'orthorhombic'
loop_
_space_group_symop_operation_xyz
x,y,z
-x,1/2-y,1/2+z
x,-y,-z
-x,1/2+y,1/2-z
-x,-y,-z
x,1/2+y,1/2-z
-x,y,z
x,1/2-y,1/2+z
1/2+x,1/2+y,z
1/2-x,-y,1/2+z
1/2+x,1/2-y,-z
1/2-x,y,1/2-z
1/2-x,1/2-y,-z
1/2+x,y,1/2-z
1/2-x,1/2+y,z
1/2+x,-y,1/2+z
loop_
_atom_site_type_symbol
_atom_site_label
_atom_site_fract_x
_atom_site_fract_y
_atom_site_fract_z
Si Si1 0.177274 0.810101 0.811971
Si Si2 0.172737 0.660460 0.992509
Si Si3 0.817514 0.432099 0.815640
Si Si4 0.669424 0.259498 0.091082
Si Si5 0.684482 0.043947 0.051029
O O1 0.250000 0.789348 0.750000
O O2 0.263618 0.868166 0.825273
O O3 0.210306 0.764013 0.861860
O O4 0.000000 0.821999 0.805700
O O5 0.278664 0.683162 0.939362
O O6 0.000000 0.650235 0.970901
O O7 0.165165 0.711336 0.039924
O O8 0.227253 0.605256 0.026700
O O9 0.750000 0.449780 0.750000
O O10 0.769360 0.462953 0.878271
O O11 0.000000 0.433562 0.811480
O O12 0.500000 0.263201 0.117168
O O13 0.500000 0.042199 0.052130
O O14 0.735833 0.000000 0.000000
#
# Coordination Sequence:
#
# PCOD9476717 Si02
#       5
#    16  16  16  16  16
#     4  11  20  30  47  71 100 132 164 201 250 301
#     4   9  17  30  47  70  97 127 164 201 245 295
#     4  10  18  31  49  73 101 130 165 207 255 304
#     4  10  18  30  47  70  99 129 160 200 243 295
#     4   9  17  31  52  75 100 131 172 216 254 298
#
# _framework density 17.119257999999999
#
# number of rings (size 3 to 8) (size 9 to 14) (size 15 to 20)
#    0.000    2.200    2.000    4.200    0.000    0.800 
#    0.000    0.000    0.000    6.600    0.000    2.800 
#    0.000    0.000    0.000    0.000    0.000    0.000 
#
# Total GULP energy -222724.651803 kJ/mol
# GULP energy per Si atom -5568.116295 kJ/mol
# Density = 1.708029 g / cm^3
# Si number density = 17.119258 Si / 1000 Ang^3
#
#
#
# Elastic Constant Matrix: (Units=GPa)
#
#
# Indices 1 2 3 4 5 6 
#
# 1 60.1949 12.0026 25.8315 0.0000 0.0000 0.0000
# 2 12.0026 48.6553 40.5943 0.0000 0.0000 0.0000
# 3 25.8315 40.5943 114.0186 0.0000 0.0000 0.0000
# 4 0.0000 0.0000 0.0000 18.2381 0.0000 0.0000
# 5 0.0000 0.0000 0.0000 0.0000 24.6040 0.0000
# 6 0.0000 0.0000 0.0000 0.0000 0.0000 9.3768
#
#
#
# Elastic Compliance Matrix: (Units=1/GPa)
#
#
# Indices 1 2 3 4 5 6 
#
# 1 0.018480 -0.001516 -0.003647 0.000000 0.000000 0.000000
# 2 -0.001516 0.029362 -0.010110 0.000000 0.000000 0.000000
# 3 -0.003647 -0.010110 0.013196 0.000000 0.000000 0.000000
# 4 0.000000 0.000000 0.000000 0.054830 0.000000 0.000000
# 5 0.000000 0.000000 0.000000 0.000000 0.040644 0.000000
# 6 0.000000 0.000000 0.000000 0.000000 0.000000 0.106646
#
#
# Mechanical properties :
#
#
# Convention : Reuss Voigt Hill
#
# Bulk Modulus (GPa) = 32.79580 42.19173 37.49377
# Shear Modulus (GPa) = 16.45445 20.07315 18.26380
#
# Velocity S-wave (km/s) = 3.10363 3.42796 3.26982
# Velocity P-wave (km/s) = 5.66058 6.35352 6.01703
#
# Compressibility (1/GPa) = 0.03049171
#
# Stress axis : x y z
#
# Youngs Moduli (GPa) = 54.11250 34.05753 75.77841
#
# Poissons Ratio (x) = 0.05163 0.27636
# Poissons Ratio (y) = 0.08203 0.76615
# Poissons Ratio (z) = 0.19735 0.34433
#
# Static dielectric constant tensor:
#      x y z
#    x 1.593100 0.000000 0.000000 
#    y 0.000000 1.553170 0.000000 
#    z 0.000000 0.000000 1.683670 
# 
# From -- ./inp_files/29718.got.cif
#   From: 2010.05.17/outbox.cif.g08.bks.cpg/sg64_15_cif.got.tgz:29718.got - 2010.06.03 16:29:19.
