data_PCOD9476979
_publ_section_title
;
Structure prediction by ZEFSAII (Michael W. Deem and Ramdas Pophale) SiO2 
 PCOD9476979
Probable space group: C M C A
;
_chemical_formula_sum "Si O2"
_cell_formula_units_Z 92
_cell_length_a 7.787992
_cell_length_b 22.910910
_cell_length_c 29.792331
_cell_angle_alpha 90.000000
_cell_angle_beta 90.000000
_cell_angle_gamma 90.000000
_cell_volume 5315.845137
_symmetry_space_group_name_H-M "C M C A"
_symmetry_group_IT_number 64
_symmetry_cell_setting 'orthorhombic'
loop_
_space_group_symop_operation_xyz
x,y,z
-x,1/2-y,1/2+z
x,-y,-z
-x,1/2+y,1/2-z
-x,-y,-z
x,1/2+y,1/2-z
-x,y,z
x,1/2-y,1/2+z
1/2+x,1/2+y,z
1/2-x,-y,1/2+z
1/2+x,1/2-y,-z
1/2-x,y,1/2-z
1/2-x,1/2-y,-z
1/2+x,y,1/2-z
1/2-x,1/2+y,z
1/2+x,-y,1/2+z
loop_
_atom_site_type_symbol
_atom_site_label
_atom_site_fract_x
_atom_site_fract_y
_atom_site_fract_z
Si Si1 0.000000 0.000000 0.000000
Si Si2 0.202358 0.225746 0.630231
Si Si3 0.500000 0.995228 0.391446
Si Si4 0.296548 0.329443 0.801888
Si Si5 0.500000 0.860970 0.384879
Si Si6 0.809279 0.920074 0.626976
Si Si7 0.200634 0.683534 0.053954
Si Si8 0.000000 0.641801 0.507864
O O1 0.000000 0.926870 0.995253
O O2 0.000000 0.006509 0.945414
O O3 0.244139 0.270528 0.670697
O O4 0.329894 0.171526 0.632417
O O5 0.242717 0.262125 0.584752
O O6 0.000000 0.211522 0.631452
O O7 0.665991 0.031064 0.375939
O O8 0.500000 0.929205 0.374303
O O9 0.500000 0.338741 0.806948
O O10 0.250000 0.325438 0.750000
O O11 0.206350 0.382532 0.827648
O O12 0.500000 0.853404 0.438780
O O13 0.783978 0.872859 0.586947
O O14 0.000000 0.944787 0.622313
O O15 0.331830 0.672173 0.013669
O O16 0.000000 0.689311 0.041057
#
# Coordination Sequence:
#
# PCOD9476979 Si02
#       8
#     4  16   8  16   8  16  16   8
#     4  10  20  36  58  74 118 142 204 254 278 352
#     4  10  21  39  56  82 120 148 188 233 292 352
#     4  11  21  40  57  79 115 160 200 238 298 334
#     4  10  20  34  63 101 121 140 181 245 300 348
#     4  11  26  37  55  78 114 165 193 239 278 339
#     4  10  19  34  60  88 116 150 185 237 302 352
#     4  10  18  33  58  81 109 145 185 241 299 343
#     4  11  21  36  54  80 108 152 196 253 285 336
#
# _framework density 17.306750000000001
#
# number of rings (size 3 to 8) (size 9 to 14) (size 15 to 20)
#    0.000    1.739    4.348    0.522    2.435    2.087 
#    0.000    3.478    0.000    1.043    0.000    0.000 
#    0.000    0.000    0.000    0.000    0.000    0.000 
#
# Total GULP energy -256335.846675 kJ/mol
# GULP energy per Si atom -5572.518406 kJ/mol
# Density = 1.726736 g / cm^3
# Si number density = 17.306750 Si / 1000 Ang^3
#
#
#
# Elastic Constant Matrix: (Units=GPa)
#
#
# Indices 1 2 3 4 5 6 
#
# 1 127.8284 73.0959 27.2935 0.0000 0.0000 0.0000
# 2 73.0959 109.8764 15.5705 0.0000 0.0000 0.0000
# 3 27.2935 15.5705 62.8511 0.0000 0.0000 0.0000
# 4 0.0000 0.0000 0.0000 12.9339 0.0000 0.0000
# 5 0.0000 0.0000 0.0000 0.0000 23.6662 0.0000
# 6 0.0000 0.0000 0.0000 0.0000 0.0000 25.1970
#
#
#
# Elastic Compliance Matrix: (Units=1/GPa)
#
#
# Indices 1 2 3 4 5 6 
#
# 1 0.013428 -0.008402 -0.003750 0.000000 0.000000 0.000000
# 2 -0.008402 0.014689 0.000009 0.000000 0.000000 0.000000
# 3 -0.003750 0.000009 0.017537 0.000000 0.000000 0.000000
# 4 0.000000 0.000000 0.000000 0.077316 0.000000 0.000000
# 5 0.000000 0.000000 0.000000 0.000000 0.042254 0.000000
# 6 0.000000 0.000000 0.000000 0.000000 0.000000 0.039687
#
#
# Mechanical properties :
#
#
# Convention : Reuss Voigt Hill
#
# Bulk Modulus (GPa) = 46.79523 59.16395 52.97959
# Shear Modulus (GPa) = 21.15788 24.66581 22.91184
#
# Velocity S-wave (km/s) = 3.50025 3.77930 3.64245
# Velocity P-wave (km/s) = 6.59038 7.30094 6.95474
#
# Compressibility (1/GPa) = 0.02136970
#
# Stress axis : x y z
#
# Youngs Moduli (GPa) = 74.47181 68.07809 57.02349
#
# Poissons Ratio (x) = 0.57197 0.21382
# Poissons Ratio (y) = 0.62568 -0.00054
# Poissons Ratio (z) = 0.27925 -0.00064
#
# Static dielectric constant tensor:
#      x y z
#    x 1.595250 0.000000 0.000000 
#    y 0.000000 1.578510 0.000000 
#    z 0.000000 0.000000 1.571380 
# 
# From -- ./inp_files/48219.got.cif
#   From: 2010.05.17/outbox.cif.g08.bks.cpg/sg64_25_cif.got.tgz:48219.got - 2010.06.03 16:29:19.
