data_PCOD9476826
_publ_section_title
;
Structure prediction by ZEFSAII (Michael W. Deem and Ramdas Pophale) SiO2 
 PCOD9476826
Probable space group: C M C A
;
_chemical_formula_sum "Si O2"
_cell_formula_units_Z 72
_cell_length_a 14.779335
_cell_length_b 8.662248
_cell_length_c 26.585231
_cell_angle_alpha 90.000000
_cell_angle_beta 90.000000
_cell_angle_gamma 90.000000
_cell_volume 3403.501489
_symmetry_space_group_name_H-M "C M C A"
_symmetry_group_IT_number 64
_symmetry_cell_setting 'orthorhombic'
loop_
_space_group_symop_operation_xyz
x,y,z
-x,1/2-y,1/2+z
x,-y,-z
-x,1/2+y,1/2-z
-x,-y,-z
x,1/2+y,1/2-z
-x,y,z
x,1/2-y,1/2+z
1/2+x,1/2+y,z
1/2-x,-y,1/2+z
1/2+x,1/2-y,-z
1/2-x,y,1/2-z
1/2-x,1/2-y,-z
1/2+x,y,1/2-z
1/2-x,1/2+y,z
1/2+x,-y,1/2+z
loop_
_atom_site_type_symbol
_atom_site_label
_atom_site_fract_x
_atom_site_fract_y
_atom_site_fract_z
Si Si1 0.703017 0.516675 0.636514
Si Si2 0.208358 0.250665 0.929011
Si Si3 0.148780 0.196772 0.733138
Si Si4 0.904182 0.504273 0.324022
Si Si5 0.804555 0.000000 0.000000
O O1 0.707289 0.657997 0.596649
O O2 0.664651 0.356802 0.614543
O O3 0.660895 0.569149 0.689097
O O4 0.811050 0.495083 0.645320
O O5 0.152623 0.121607 0.960244
O O6 0.244996 0.382064 0.966717
O O7 0.250000 0.245311 0.750000
O O8 0.099832 0.338833 0.707905
O O9 0.103398 0.129056 0.782402
O O10 0.000000 0.494288 0.351676
#
# Coordination Sequence:
#
# PCOD9476826 Si02
#       5
#    16  16  16  16   8
#     4  10  18  31  53  76 101 139 171 208 242 307
#     4   9  16  29  50  80 107 121 164 207 265 294
#     4  10  20  34  51  71 100 142 176 209 247 293
#     4  11  22  34  48  73 106 140 174 212 247 285
#     4   8  16  28  48  82 108 120 146 224 266 296
#
# _framework density 21.154685000000001
#
# number of rings (size 3 to 8) (size 9 to 14) (size 15 to 20)
#    0.000    2.222    2.222    2.667    3.111    0.000 
#    0.000    0.000    0.000    0.000    0.000   29.556 
#    0.000    0.000    0.000    0.000    0.000    0.000 
#
# Total GULP energy -200478.298399 kJ/mol
# GULP energy per Si atom -5568.841622 kJ/mol
# Density = 2.110654 g / cm^3
# Si number density = 21.154685 Si / 1000 Ang^3
#
#
#
# Elastic Constant Matrix: (Units=GPa)
#
#
# Indices 1 2 3 4 5 6 
#
# 1 61.4693 4.9397 2.3938 0.0000 0.0000 0.0000
# 2 4.9397 106.7550 27.5541 0.0000 0.0000 0.0000
# 3 2.3938 27.5541 75.2362 0.0000 0.0000 0.0000
# 4 0.0000 0.0000 0.0000 52.8647 0.0000 0.0000
# 5 0.0000 0.0000 0.0000 0.0000 -2.8701 0.0000
# 6 0.0000 0.0000 0.0000 0.0000 0.0000 -26.8169
#
#
#
# Elastic Compliance Matrix: (Units=1/GPa)
#
#
# Indices 1 2 3 4 5 6 
#
# 1 0.016334 -0.000687 -0.000268 0.000000 0.000000 0.000000
# 2 -0.000687 0.010374 -0.003777 0.000000 0.000000 0.000000
# 3 -0.000268 -0.003777 0.014683 0.000000 0.000000 0.000000
# 4 0.000000 0.000000 0.000000 0.018916 0.000000 0.000000
# 5 0.000000 0.000000 0.000000 0.000000 -0.348414 0.000000
# 6 0.000000 0.000000 0.000000 0.000000 0.000000 -0.037290
#
#
# Mechanical properties :
#
#
# Convention : Reuss Voigt Hill
#
# Bulk Modulus (GPa) = 31.32166 34.80397 33.06281
# Shear Modulus (GPa) = -16.37789 18.54039 1.08125
#
# Velocity S-wave (km/s) = -2.78546 2.96365 0.71570
# Velocity P-wave (km/s) = 2.11970 5.31026 4.04302
#
# Compressibility (1/GPa) = 0.03192679
#
# Stress axis : x y z
#
# Youngs Moduli (GPa) = 61.22233 96.39482 68.10383
#
# Poissons Ratio (x) = 0.06618 0.01827
# Poissons Ratio (y) = 0.04203 0.25726
# Poissons Ratio (z) = 0.01642 0.36413
#
# Static dielectric constant tensor:
#      x y z
#    x 1.829950 0.000000 0.000000 
#    y 0.000000 1.833280 0.000000 
#    z 0.000000 0.000000 1.872870 
# 
# From -- ./inp_files/50248.got.cif
#   From: 2010.05.17/outbox.cif.g08.bks.cpg/sg64_26_cif.got.tgz:50248.got - 2010.06.03 16:29:19.
