data_PCOD9476117
_publ_section_title
;
Structure prediction by ZEFSAII (Michael W. Deem and Ramdas Pophale) SiO2 
 PCOD9476117
Probable space group: C M C M
;
_chemical_formula_sum "Si O2"
_cell_formula_units_Z 60
_cell_length_a 21.000000
_cell_length_b 21.000000
_cell_length_c 15.000000
_cell_angle_alpha 90.000000
_cell_angle_beta 90.000000
_cell_angle_gamma 90.000000
_cell_volume 6615.000000
_symmetry_space_group_name_H-M "C M C M"
_symmetry_group_IT_number 63
_symmetry_cell_setting 'orthorhombic'
loop_
_space_group_symop_operation_xyz
x,y,z
-x,-y,1/2+z
x,-y,-z
-x,y,1/2-z
-x,-y,-z
x,y,1/2-z
-x,y,z
x,-y,1/2+z
1/2+x,1/2+y,z
1/2-x,1/2-y,1/2+z
1/2+x,1/2-y,-z
1/2-x,1/2+y,1/2-z
1/2-x,1/2-y,-z
1/2+x,1/2+y,1/2-z
1/2-x,1/2+y,z
1/2+x,1/2-y,1/2+z
loop_
_atom_site_type_symbol
_atom_site_label
_atom_site_fract_x
_atom_site_fract_y
_atom_site_fract_z
Si Si1 0.070757 0.633918 0.966645
Si Si2 0.070054 0.846886 0.356726
Si Si3 0.766822 0.464728 0.858305
Si Si4 0.105845 0.699201 0.147319
Si Si5 0.126454 0.500000 0.000000
Si Si6 0.243504 0.175857 0.144702
Si Si7 0.685999 0.806007 0.141105
Si Si8 0.200899 0.902892 0.358006
O O1 0.123344 0.668608 0.906643
O O2 0.000000 0.647589 0.934210
O O3 0.077037 0.657180 0.068972
O O4 0.085648 0.559189 0.966574
O O5 0.067890 0.859027 0.250000
O O6 0.083380 0.771654 0.365511
O O7 0.131453 0.883898 0.393080
O O8 0.000000 0.862483 0.393481
O O9 0.779379 0.462747 0.750000
O O10 0.829157 0.476254 0.918134
O O11 0.737655 0.396718 0.887200
O O12 0.722300 0.525322 0.877123
O O13 0.090599 0.680434 0.250000
O O14 0.182256 0.694892 0.137373
O O15 0.228794 0.173418 0.250000
O O16 0.202402 0.234484 0.109155
O O17 0.681121 0.807545 0.250000
O O18 0.744287 0.852906 0.114680
O O19 0.198550 0.897174 0.250000
#
# Coordination Sequence:
#
# PCOD9476117 Si02
#       8
#    16  16  16  16   8  16  16  16
#     4  12  26  39  54  80 115 154 195 236 283 338
#     4   9  16  28  50  81 113 140 169 215 279 344
#     4  10  20  36  57  82 113 146 187 237 286 337
#     4  10  19  35  57  80 110 144 181 228 288 344
#     4  12  23  38  56  80 109 152 194 238 287 338
#     4   9  17  33  59  85 109 140 184 240 289 333
#     4  10  20  38  61  83 109 145 194 242 281 328
#     4   9  16  30  54  80 109 142 177 225 279 333
#
# _framework density 9.0702949999999998
#
# number of rings (size 3 to 8) (size 9 to 14) (size 15 to 20)
#    0.000    2.000    4.000    0.600    0.000    1.600 
#    2.400    0.000    0.000    3.200    0.000    4.200 
#    0.000    0.000    0.000    0.000    0.000    0.000 
#
# Total GULP energy -334790.412299 kJ/mol
# GULP energy per Si atom -5579.840205 kJ/mol
# Density = 0.904965 g / cm^3
# Si number density = 9.070295 Si / 1000 Ang^3
#
#
#
# Elastic Constant Matrix: (Units=GPa)
#
#
# Indices 1 2 3 4 5 6 
#
# 1 130.1654 70.5392 19.0372 0.0000 0.0000 0.0000
# 2 70.5392 107.1806 24.2085 0.0000 0.0000 0.0000
# 3 19.0372 24.2085 32.3116 0.0000 0.0000 0.0000
# 4 0.0000 0.0000 0.0000 17.9923 0.0000 0.0000
# 5 0.0000 0.0000 0.0000 0.0000 10.5200 0.0000
# 6 0.0000 0.0000 0.0000 0.0000 0.0000 -8.6446
#
#
#
# Elastic Compliance Matrix: (Units=1/GPa)
#
#
# Indices 1 2 3 4 5 6 
#
# 1 0.011993 -0.007580 -0.001387 0.000000 0.000000 0.000000
# 2 -0.007580 0.016021 -0.007537 0.000000 0.000000 0.000000
# 3 -0.001387 -0.007537 0.037413 0.000000 0.000000 0.000000
# 4 0.000000 0.000000 0.000000 0.055579 0.000000 0.000000
# 5 0.000000 0.000000 0.000000 0.000000 0.095057 0.000000
# 6 0.000000 0.000000 0.000000 0.000000 0.000000 -0.115679
#
#
# Mechanical properties :
#
#
# Convention : Reuss Voigt Hill
#
# Bulk Modulus (GPa) = 30.84653 55.24748 43.04701
# Shear Modulus (GPa) = 34.67415 14.36504 24.51960
#
# Velocity S-wave (km/s) = 4.37671 2.81708 3.68046
# Velocity P-wave (km/s) = 6.52548 6.41112 6.46856
#
# Compressibility (1/GPa) = 0.03241855
#
# Stress axis : x y z
#
# Youngs Moduli (GPa) = 83.38202 62.41816 26.72855
#
# Poissons Ratio (x) = 0.47311 0.03708
# Poissons Ratio (y) = 0.63201 0.20147
# Poissons Ratio (z) = 0.11566 0.47048
#
# Static dielectric constant tensor:
#      x y z
#    x 1.625240 0.000000 0.000000 
#    y 0.000000 1.630880 0.000000 
#    z 0.000000 0.000000 1.628290 
# 
# From -- ./inp_files/35868.got.cif
#   From: 2010.05.17/outbox.ucp.g08.bks.cvg/sg63_18_cif.got.tgz:35868.got - 2010.06.11 16:32:19.
