data_PCOD9476537
_publ_section_title
;
Structure prediction by ZEFSAII (Michael W. Deem and Ramdas Pophale) SiO2 
 PCOD9476537
Probable space group: C M C A
;
_chemical_formula_sum "Si O2"
_cell_formula_units_Z 88
_cell_length_a 20.160211
_cell_length_b 12.127243
_cell_length_c 18.138577
_cell_angle_alpha 90.000000
_cell_angle_beta 90.000000
_cell_angle_gamma 90.000000
_cell_volume 4434.660382
_symmetry_space_group_name_H-M "C M C A"
_symmetry_group_IT_number 64
_symmetry_cell_setting 'orthorhombic'
loop_
_space_group_symop_operation_xyz
x,y,z
-x,1/2-y,1/2+z
x,-y,-z
-x,1/2+y,1/2-z
-x,-y,-z
x,1/2+y,1/2-z
-x,y,z
x,1/2-y,1/2+z
1/2+x,1/2+y,z
1/2-x,-y,1/2+z
1/2+x,1/2-y,-z
1/2-x,y,1/2-z
1/2-x,1/2-y,-z
1/2+x,y,1/2-z
1/2-x,1/2+y,z
1/2+x,-y,1/2+z
loop_
_atom_site_type_symbol
_atom_site_label
_atom_site_fract_x
_atom_site_fract_y
_atom_site_fract_z
Si Si1 0.157635 0.130380 0.416984
Si Si2 0.697638 0.063217 0.687618
Si Si3 0.627114 0.000000 0.500000
Si Si4 0.924252 0.663540 0.624304
Si Si5 0.193069 0.345974 0.622354
Si Si6 0.818021 0.391079 0.091134
O O1 0.099965 0.216765 0.402632
O O2 0.227521 0.168578 0.382296
O O3 0.172799 0.124758 0.504164
O O4 0.145604 0.005328 0.389185
O O5 0.750000 0.091785 0.750000
O O6 0.629817 0.128559 0.685202
O O7 0.741283 0.085566 0.613480
O O8 0.680873 0.933284 0.687198
O O9 0.586342 0.926520 0.441192
O O10 0.667167 0.909631 0.548966
O O11 0.000000 0.663515 0.647898
O O12 0.162399 0.224785 0.627459
#
# Coordination Sequence:
#
# PCOD9476537 Si02
#       6
#    16  16   8  16  16  16
#     4  10  18  31  54  89 116 148 188 243 314 359
#     4  10  22  36  55  87 112 153 210 254 287 346
#     4  10  19  32  58  90 117 146 196 244 303 362
#     4  11  21  36  58  86 124 160 192 242 307 367
#     4  10  17  31  55  84 114 142 187 262 300 333
#     4  10  18  32  57  84 117 143 191 259 303 340
#
# _framework density 19.843685000000001
#
# number of rings (size 3 to 8) (size 9 to 14) (size 15 to 20)
#    0.000    1.818    3.636    4.091    0.000    0.727 
#    0.000    1.818    0.000    5.455    0.000    0.000 
#    0.000    0.000    0.000    0.000    0.000    0.000 
#
# Total GULP energy -245308.424067 kJ/mol
# GULP energy per Si atom -5575.191456 kJ/mol
# Density = 1.979852 g / cm^3
# Si number density = 19.843685 Si / 1000 Ang^3
#
#
#
# Elastic Constant Matrix: (Units=GPa)
#
#
# Indices 1 2 3 4 5 6 
#
# 1 120.4523 51.7787 36.5684 0.0000 0.0000 0.0000
# 2 51.7787 172.9399 22.6753 0.0000 0.0000 0.0000
# 3 36.5684 22.6753 44.2931 0.0000 0.0000 0.0000
# 4 0.0000 0.0000 0.0000 9.3491 0.0000 0.0000
# 5 0.0000 0.0000 0.0000 0.0000 17.0526 0.0000
# 6 0.0000 0.0000 0.0000 0.0000 0.0000 13.2051
#
#
#
# Elastic Compliance Matrix: (Units=1/GPa)
#
#
# Indices 1 2 3 4 5 6 
#
# 1 0.011978 -0.002454 -0.008632 0.000000 0.000000 0.000000
# 2 -0.002454 0.006701 -0.001404 0.000000 0.000000 0.000000
# 3 -0.008632 -0.001404 0.030423 0.000000 0.000000 0.000000
# 4 0.000000 0.000000 0.000000 0.106962 0.000000 0.000000
# 5 0.000000 0.000000 0.000000 0.000000 0.058642 0.000000
# 6 0.000000 0.000000 0.000000 0.000000 0.000000 0.075728
#
#
# Mechanical properties :
#
#
# Convention : Reuss Voigt Hill
#
# Bulk Modulus (GPa) = 41.45995 62.19223 51.82609
# Shear Modulus (GPa) = 15.45803 23.03223 19.24513
#
# Velocity S-wave (km/s) = 2.79407 3.41058 3.11760
# Velocity P-wave (km/s) = 5.59890 6.84971 6.25565
#
# Compressibility (1/GPa) = 0.02411966
#
# Stress axis : x y z
#
# Youngs Moduli (GPa) = 83.48764 149.22422 32.87015
#
# Poissons Ratio (x) = 0.36625 0.28375
# Poissons Ratio (y) = 0.20491 0.04616
# Poissons Ratio (z) = 0.72070 0.20956
#
# Static dielectric constant tensor:
#      x y z
#    x 1.650860 0.000000 0.000000 
#    y 0.000000 1.787610 0.000000 
#    z 0.000000 0.000000 1.781220 
# 
# From -- ./inp_files/40061.got.cif
#   From: 2010.05.17/outbox.cif.g08.bks.cpg/sg64_21_cif.got.tgz:40061.got - 2010.06.03 16:29:19.
