data_PCOD9476910
_publ_section_title
;
Structure prediction by ZEFSAII (Michael W. Deem and Ramdas Pophale) SiO2 
 PCOD9476910
Probable space group: C M C A
;
_chemical_formula_sum "Si O2"
_cell_formula_units_Z 88
_cell_length_a 10.154521
_cell_length_b 22.554539
_cell_length_c 20.363751
_cell_angle_alpha 90.000000
_cell_angle_beta 90.000000
_cell_angle_gamma 90.000000
_cell_volume 4663.920886
_symmetry_space_group_name_H-M "C M C A"
_symmetry_group_IT_number 64
_symmetry_cell_setting 'orthorhombic'
loop_
_space_group_symop_operation_xyz
x,y,z
-x,1/2-y,1/2+z
x,-y,-z
-x,1/2+y,1/2-z
-x,-y,-z
x,1/2+y,1/2-z
-x,y,z
x,1/2-y,1/2+z
1/2+x,1/2+y,z
1/2-x,-y,1/2+z
1/2+x,1/2-y,-z
1/2-x,y,1/2-z
1/2-x,1/2-y,-z
1/2+x,y,1/2-z
1/2-x,1/2+y,z
1/2+x,-y,1/2+z
loop_
_atom_site_type_symbol
_atom_site_label
_atom_site_fract_x
_atom_site_fract_y
_atom_site_fract_z
Si Si1 0.149275 0.269000 0.944047
Si Si2 0.651119 0.547801 0.189737
Si Si3 0.649160 0.426052 0.109461
Si Si4 0.641061 0.098773 0.098593
Si Si5 0.707902 0.500000 0.500000
Si Si6 0.659748 0.807400 0.315028
O O1 0.149168 0.339959 0.939886
O O2 0.178982 0.242427 0.871502
O O3 0.000000 0.248926 0.959965
O O4 0.250000 0.250000 0.000000
O O5 0.500000 0.564482 0.203166
O O6 0.750000 0.545548 0.250000
O O7 0.649188 0.482427 0.157824
O O8 0.726327 0.591217 0.139933
O O9 0.500000 0.409992 0.092038
O O10 0.701513 0.368992 0.148613
O O11 0.714290 0.451676 0.043806
O O12 0.500000 0.100349 0.136042
O O13 0.636282 0.041415 0.052150
O O14 0.500000 0.809904 0.299993
O O15 0.750000 0.798887 0.250000
#
# Coordination Sequence:
#
# PCOD9476910 Si02
#       6
#    16  16  16  16   8  16
#     4  10  22  39  59  83 113 147 189 238 288 344
#     4  10  20  34  53  77 104 137 174 216 266 321
#     4   9  18  32  53  81 111 142 181 227 278 334
#     4  10  21  36  53  78 109 140 176 221 272 329
#     4  10  18  32  56  82 111 146 183 226 281 342
#     4  10  21  38  58  83 114 151 194 242 292 348
#
# _framework density 18.868244000000001
#
# number of rings (size 3 to 8) (size 9 to 14) (size 15 to 20)
#    0.000    2.182    0.000    2.727    0.000    2.909 
#    0.000    6.364    0.000    0.000    0.000    0.000 
#    0.000    0.000    0.000    0.000    0.000    0.000 
#
# Total GULP energy -244970.030382 kJ/mol
# GULP energy per Si atom -5567.500690 kJ/mol
# Density = 1.882530 g / cm^3
# Si number density = 18.868244 Si / 1000 Ang^3
#
#
#
# Elastic Constant Matrix: (Units=GPa)
#
#
# Indices 1 2 3 4 5 6 
#
# 1 112.6852 7.1334 44.2084 0.0000 0.0000 0.0000
# 2 7.1334 49.2058 -6.0367 0.0000 0.0000 0.0000
# 3 44.2084 -6.0367 67.8650 0.0000 0.0000 0.0000
# 4 0.0000 0.0000 0.0000 24.4917 0.0000 0.0000
# 5 0.0000 0.0000 0.0000 0.0000 63.7107 0.0000
# 6 0.0000 0.0000 0.0000 0.0000 0.0000 23.6644
#
#
#
# Elastic Compliance Matrix: (Units=1/GPa)
#
#
# Indices 1 2 3 4 5 6 
#
# 1 0.012289 -0.002794 -0.008254 0.000000 0.000000 0.000000
# 2 -0.002794 0.021182 0.003704 0.000000 0.000000 0.000000
# 3 -0.008254 0.003704 0.020441 0.000000 0.000000 0.000000
# 4 0.000000 0.000000 0.000000 0.040830 0.000000 0.000000
# 5 0.000000 0.000000 0.000000 0.000000 0.015696 0.000000
# 6 0.000000 0.000000 0.000000 0.000000 0.000000 0.042258
#
#
# Mechanical properties :
#
#
# Convention : Reuss Voigt Hill
#
# Bulk Modulus (GPa) = 25.49362 35.59623 30.54493
# Shear Modulus (GPa) = 27.70700 34.67009 31.18854
#
# Velocity S-wave (km/s) = 3.83619 4.29124 4.07008
# Velocity P-wave (km/s) = 5.75869 6.59239 6.18959
#
# Compressibility (1/GPa) = 0.03922551
#
# Stress axis : x y z
#
# Youngs Moduli (GPa) = 81.37110 47.20904 48.92014
#
# Poissons Ratio (x) = 0.13191 0.40379
# Poissons Ratio (y) = 0.22737 -0.18122
# Poissons Ratio (z) = 0.67164 -0.17488
#
# Static dielectric constant tensor:
#      x y z
#    x 1.665650 0.000000 0.000000 
#    y 0.000000 1.651450 0.000000 
#    z 0.000000 0.000000 1.688240 
# 
# From -- ./inp_files/36817.got.cif
#   From: 2010.05.17/outbox.cif.g08.bks.cpg/sg64_19_cif.got.tgz:36817.got - 2010.06.03 16:29:19.
