data_PCOD9476779
_publ_section_title
;
Structure prediction by ZEFSAII (Michael W. Deem and Ramdas Pophale) SiO2 
 PCOD9476779
Probable space group: C M C A
;
_chemical_formula_sum "Si O2"
_cell_formula_units_Z 88
_cell_length_a 27.851096
_cell_length_b 9.152114
_cell_length_c 12.906536
_cell_angle_alpha 90.000000
_cell_angle_beta 90.000000
_cell_angle_gamma 90.000000
_cell_volume 3289.829635
_symmetry_space_group_name_H-M "C M C A"
_symmetry_group_IT_number 64
_symmetry_cell_setting 'orthorhombic'
loop_
_space_group_symop_operation_xyz
x,y,z
-x,1/2-y,1/2+z
x,-y,-z
-x,1/2+y,1/2-z
-x,-y,-z
x,1/2+y,1/2-z
-x,y,z
x,1/2-y,1/2+z
1/2+x,1/2+y,z
1/2-x,-y,1/2+z
1/2+x,1/2-y,-z
1/2-x,y,1/2-z
1/2-x,1/2-y,-z
1/2+x,y,1/2-z
1/2-x,1/2+y,z
1/2+x,-y,1/2+z
loop_
_atom_site_type_symbol
_atom_site_label
_atom_site_fract_x
_atom_site_fract_y
_atom_site_fract_z
Si Si1 0.500000 0.628238 0.596953
Si Si2 0.183083 0.782442 0.912733
Si Si3 0.850135 0.263995 0.320010
Si Si4 0.915374 0.476621 0.771268
Si Si5 0.924887 0.347410 0.555168
Si Si6 0.759341 0.565327 0.625745
O O1 0.542278 0.550114 0.666089
O O2 0.458670 0.714220 0.527436
O O3 0.170258 0.785044 0.790714
O O4 0.131034 0.810836 0.962739
O O5 0.211112 0.631110 0.922403
O O6 0.220512 0.914698 0.917781
O O7 0.883593 0.403171 0.291459
O O8 0.803469 0.317631 0.382354
O O9 0.882239 0.123060 0.345816
O O10 0.934503 0.373649 0.678073
O O11 0.936491 0.500000 0.500000
O O12 0.750000 0.547643 0.750000
#
# Coordination Sequence:
#
# PCOD9476779 Si02
#       6
#     8  16  16  16  16  16
#     4  12  23  40  65  95 117 159 221 272 307 385
#     4  10  20  33  55  91 122 171 208 262 310 384
#     4  10  18  33  56  90 127 157 211 272 318 357
#     4  11  21  37  63  97 118 163 220 273 313 379
#     4  11  24  44  65  95 135 175 211 258 338 402
#     4  10  18  30  55  91 129 159 213 269 317 356
#
# _framework density 26.749106999999999
#
# number of rings (size 3 to 8) (size 9 to 14) (size 15 to 20)
#    0.000    1.455    7.273    2.455    2.545    0.000 
#    0.000    0.909    0.000    2.182    0.000    0.000 
#    0.000    0.000    0.000    0.000    0.000    0.000 
#
# Total GULP energy -245518.640086 kJ/mol
# GULP energy per Si atom -5579.969093 kJ/mol
# Density = 2.668822 g / cm^3
# Si number density = 26.749107 Si / 1000 Ang^3
#
#
#
# Elastic Constant Matrix: (Units=GPa)
#
#
# Indices 1 2 3 4 5 6 
#
# 1 195.6785 76.1877 31.8408 0.0000 0.0000 0.0000
# 2 76.1877 78.3631 17.1869 0.0000 0.0000 0.0000
# 3 31.8408 17.1869 53.6334 0.0000 0.0000 0.0000
# 4 0.0000 0.0000 0.0000 62.8061 0.0000 0.0000
# 5 0.0000 0.0000 0.0000 0.0000 4.1309 0.0000
# 6 0.0000 0.0000 0.0000 0.0000 0.0000 -10.6323
#
#
#
# Elastic Compliance Matrix: (Units=1/GPa)
#
#
# Indices 1 2 3 4 5 6 
#
# 1 0.008546 -0.007740 -0.002593 0.000000 0.000000 0.000000
# 2 -0.007740 0.020736 -0.002050 0.000000 0.000000 0.000000
# 3 -0.002593 -0.002050 0.020842 0.000000 0.000000 0.000000
# 4 0.000000 0.000000 0.000000 0.015922 0.000000 0.000000
# 5 0.000000 0.000000 0.000000 0.000000 0.242077 0.000000
# 6 0.000000 0.000000 0.000000 0.000000 0.000000 -0.094053
#
#
# Mechanical properties :
#
#
# Convention : Reuss Voigt Hill
#
# Bulk Modulus (GPa) = 39.43645 64.23399 51.83522
# Shear Modulus (GPa) = 20.21938 24.75825 22.48882
#
# Velocity S-wave (km/s) = 2.75233 3.04562 2.90268
# Velocity P-wave (km/s) = 4.98754 6.03601 5.53665
#
# Compressibility (1/GPa) = 0.02535725
#
# Stress axis : x y z
#
# Youngs Moduli (GPa) = 117.01426 48.22578 47.98114
#
# Poissons Ratio (x) = 0.37327 0.12443
# Poissons Ratio (y) = 0.90569 0.09835
# Poissons Ratio (z) = 0.30345 0.09885
#
# Static dielectric constant tensor:
#      x y z
#    x 2.068640 0.000000 0.000000 
#    y 0.000000 2.128260 0.000000 
#    z 0.000000 0.000000 2.275410 
# 
# From -- ./inp_files/35716.got.cif
#   From: 2010.05.17/outbox.cif.g08.bks.cpg/sg64_18_cif.got.tgz:35716.got - 2010.06.03 16:29:19.
