data_PCOD9476543
_publ_section_title
;
Structure prediction by ZEFSAII (Michael W. Deem and Ramdas Pophale) SiO2 
 PCOD9476543
Probable space group: C M C A
;
_chemical_formula_sum "Si O2"
_cell_formula_units_Z 64
_cell_length_a 14.987982
_cell_length_b 14.553597
_cell_length_c 10.677310
_cell_angle_alpha 90.000000
_cell_angle_beta 90.000000
_cell_angle_gamma 90.000000
_cell_volume 2329.031485
_symmetry_space_group_name_H-M "C M C A"
_symmetry_group_IT_number 64
_symmetry_cell_setting 'orthorhombic'
loop_
_space_group_symop_operation_xyz
x,y,z
-x,1/2-y,1/2+z
x,-y,-z
-x,1/2+y,1/2-z
-x,-y,-z
x,1/2+y,1/2-z
-x,y,z
x,1/2-y,1/2+z
1/2+x,1/2+y,z
1/2-x,-y,1/2+z
1/2+x,1/2-y,-z
1/2-x,y,1/2-z
1/2-x,1/2-y,-z
1/2+x,y,1/2-z
1/2-x,1/2+y,z
1/2+x,-y,1/2+z
loop_
_atom_site_type_symbol
_atom_site_label
_atom_site_fract_x
_atom_site_fract_y
_atom_site_fract_z
Si Si1 0.601747 0.682752 0.968088
Si Si2 0.390584 0.366147 0.434402
Si Si3 0.893170 0.973855 0.189356
Si Si4 0.652160 0.660594 0.294965
O O1 0.500000 0.666764 0.004600
O O2 0.637343 0.757810 0.066624
O O3 0.644319 0.587793 0.924232
O O4 0.602149 0.747088 0.840688
O O5 0.500000 0.370855 0.442122
O O6 0.360955 0.424136 0.316329
O O7 0.353240 0.393499 0.570244
O O8 0.000000 0.960190 0.184637
O O9 0.880692 0.082606 0.199071
O O10 0.750000 0.682366 0.250000
#
# Coordination Sequence:
#
# PCOD9476543 Si02
#       4
#    16  16  16  16
#     4   8  17  31  50  76 100 125 163 211 249 286
#     4   8  16  32  54  77  96 123 173 216 240 281
#     4  10  17  31  59  78  92 128 172 213 248 282
#     4  10  19  30  47  72 108 131 157 203 248 299
#
# _framework density 27.479234999999999
#
# number of rings (size 3 to 8) (size 9 to 14) (size 15 to 20)
#    1.500    1.500    0.000    2.250    0.000    3.000 
#    0.000    1.250    5.500    0.000    0.000    8.750 
#    0.000    0.000    0.000    0.000    0.000    0.000 
#
# Total GULP energy -178593.565727 kJ/mol
# GULP energy per Si atom -5581.048929 kJ/mol
# Density = 2.741669 g / cm^3
# Si number density = 27.479235 Si / 1000 Ang^3
#
#
#
# Elastic Constant Matrix: (Units=GPa)
#
#
# Indices 1 2 3 4 5 6 
#
# 1 75.3319 13.1929 47.4637 0.0000 0.0000 0.0000
# 2 13.1929 183.2757 32.5653 0.0000 0.0000 0.0000
# 3 47.4637 32.5653 109.5446 0.0000 0.0000 0.0000
# 4 0.0000 0.0000 0.0000 42.5787 0.0000 0.0000
# 5 0.0000 0.0000 0.0000 0.0000 17.4032 0.0000
# 6 0.0000 0.0000 0.0000 0.0000 0.0000 11.2124
#
#
#
# Elastic Compliance Matrix: (Units=1/GPa)
#
#
# Indices 1 2 3 4 5 6 
#
# 1 0.018261 0.000096 -0.007941 0.000000 0.000000 0.000000
# 2 0.000096 0.005761 -0.001754 0.000000 0.000000 0.000000
# 3 -0.007941 -0.001754 0.013091 0.000000 0.000000 0.000000
# 4 0.000000 0.000000 0.000000 0.023486 0.000000 0.000000
# 5 0.000000 0.000000 0.000000 0.000000 0.057461 0.000000
# 6 0.000000 0.000000 0.000000 0.000000 0.000000 0.089187
#
#
# Mechanical properties :
#
#
# Convention : Reuss Voigt Hill
#
# Bulk Modulus (GPa) = 55.81828 61.62178 58.72003
# Shear Modulus (GPa) = 21.51316 32.56754 27.04035
#
# Velocity S-wave (km/s) = 2.80105 3.44636 3.14033
# Velocity P-wave (km/s) = 5.55141 6.18951 5.87913
#
# Compressibility (1/GPa) = 0.01791528
#
# Stress axis : x y z
#
# Youngs Moduli (GPa) = 54.76186 173.57942 76.38920
#
# Poissons Ratio (x) = -0.01674 0.60659
# Poissons Ratio (y) = -0.00528 0.13402
# Poissons Ratio (z) = 0.43485 0.30453
#
# Static dielectric constant tensor:
#      x y z
#    x 2.041190 0.000000 0.000000 
#    y 0.000000 2.243110 0.000000 
#    z 0.000000 0.000000 2.303480 
# 
# From -- ./inp_files/15479.got.cif
#   From: 2010.05.17/outbox.cif.g08.bks.cpg/sg64_8_cif.got.tgz:15479.got - 2010.06.03 16:29:19.
