data_PCOD9476821
_publ_section_title
;
Structure prediction by ZEFSAII (Michael W. Deem and Ramdas Pophale) SiO2 
 PCOD9476821
Probable space group: C M C A
;
_chemical_formula_sum "Si O2"
_cell_formula_units_Z 116
_cell_length_a 8.370758
_cell_length_b 32.168636
_cell_length_c 23.015854
_cell_angle_alpha 90.000000
_cell_angle_beta 90.000000
_cell_angle_gamma 90.000000
_cell_volume 6197.614044
_symmetry_space_group_name_H-M "C M C A"
_symmetry_group_IT_number 64
_symmetry_cell_setting 'orthorhombic'
loop_
_space_group_symop_operation_xyz
x,y,z
-x,1/2-y,1/2+z
x,-y,-z
-x,1/2+y,1/2-z
-x,-y,-z
x,1/2+y,1/2-z
-x,y,z
x,1/2-y,1/2+z
1/2+x,1/2+y,z
1/2-x,-y,1/2+z
1/2+x,1/2-y,-z
1/2-x,y,1/2-z
1/2-x,1/2-y,-z
1/2+x,y,1/2-z
1/2-x,1/2+y,z
1/2+x,-y,1/2+z
loop_
_atom_site_type_symbol
_atom_site_label
_atom_site_fract_x
_atom_site_fract_y
_atom_site_fract_z
Si Si1 0.312032 0.945690 0.018251
Si Si2 0.000000 0.500000 0.500000
Si Si3 0.687989 0.228016 0.316487
Si Si4 0.814830 0.314280 0.315104
Si Si5 0.690557 0.859185 0.816339
Si Si6 0.186871 0.557847 0.120428
Si Si7 0.811971 0.022607 0.815144
Si Si8 0.184001 0.393853 0.125875
O O1 0.500000 0.961000 0.031232
O O2 0.304052 0.939372 0.949135
O O3 0.298890 0.905117 0.058093
O O4 0.148748 0.972049 0.030096
O O5 0.500000 0.223727 0.315394
O O6 0.750000 0.229645 0.250000
O O7 0.734343 0.272865 0.341358
O O8 0.757952 0.185391 0.341819
O O9 0.750000 0.322061 0.250000
O O10 0.786275 0.355376 0.352310
O O11 0.000000 0.304728 0.309491
O O12 0.500000 0.860174 0.815777
O O13 0.750000 0.861918 0.750000
O O14 0.748635 0.899449 0.851389
O O15 0.275326 0.517948 0.146154
O O16 0.000000 0.552849 0.135914
O O17 0.750000 0.014865 0.750000
O O18 0.727500 0.063359 0.841228
O O19 0.000000 0.030195 0.813571
O O20 0.000000 0.383568 0.138599
#
# Coordination Sequence:
#
# PCOD9476821 Si02
#       8
#    16   4  16  16  16  16  16  16
#     4  10  24  41  60  87 116 150 196 250 292 340
#     4  12  22  36  64  82 108 144 198 240 284 344
#     4  10  18  31  52  81 114 146 187 230 281 342
#     4  11  21  35  57  84 116 149 189 233 287 347
#     4  10  19  33  55  82 115 150 188 232 288 343
#     4  10  22  40  58  81 114 151 189 238 290 338
#     4  12  25  38  55  80 112 148 188 230 280 344
#     4  11  23  40  59  80 114 150 188 238 289 339
#
# _framework density 18.716878999999999
#
# number of rings (size 3 to 8) (size 9 to 14) (size 15 to 20)
#    0.000    1.379    0.000    8.069    4.828    4.414 
#    0.000    0.000    0.000    0.828    0.000    0.000 
#    0.000    0.000    0.000    0.000    0.000    0.000 
#
# Total GULP energy -323141.080798 kJ/mol
# GULP energy per Si atom -5571.397945 kJ/mol
# Density = 1.867428 g / cm^3
# Si number density = 18.716879 Si / 1000 Ang^3
#
#
#
# Elastic Constant Matrix: (Units=GPa)
#
#
# Indices 1 2 3 4 5 6 
#
# 1 95.4576 11.8958 10.1835 0.0000 0.0000 0.0000
# 2 11.8958 118.7093 26.7011 0.0000 0.0000 0.0000
# 3 10.1835 26.7011 59.9246 0.0000 0.0000 0.0000
# 4 0.0000 0.0000 0.0000 11.4701 0.0000 0.0000
# 5 0.0000 0.0000 0.0000 0.0000 14.9706 0.0000
# 6 0.0000 0.0000 0.0000 0.0000 0.0000 15.3979
#
#
#
# Elastic Compliance Matrix: (Units=1/GPa)
#
#
# Indices 1 2 3 4 5 6 
#
# 1 0.010727 -0.000739 -0.001494 0.000000 0.000000 0.000000
# 2 -0.000739 0.009413 -0.004069 0.000000 0.000000 0.000000
# 3 -0.001494 -0.004069 0.018754 0.000000 0.000000 0.000000
# 4 0.000000 0.000000 0.000000 0.087183 0.000000 0.000000
# 5 0.000000 0.000000 0.000000 0.000000 0.066797 0.000000
# 6 0.000000 0.000000 0.000000 0.000000 0.000000 0.064944
#
#
# Mechanical properties :
#
#
# Convention : Reuss Voigt Hill
#
# Bulk Modulus (GPa) = 38.03437 41.29473 39.66455
# Shear Modulus (GPa) = 17.90921 23.38847 20.64884
#
# Velocity S-wave (km/s) = 3.09665 3.53879 3.32508
# Velocity P-wave (km/s) = 5.75766 6.22962 5.99828
#
# Compressibility (1/GPa) = 0.02629201
#
# Stress axis : x y z
#
# Youngs Moduli (GPa) = 93.22014 106.23413 53.32083
#
# Poissons Ratio (x) = 0.07851 0.07965
# Poissons Ratio (y) = 0.06889 0.21695
# Poissons Ratio (z) = 0.13924 0.43224
#
# Static dielectric constant tensor:
#      x y z
#    x 1.659350 0.000000 0.000000 
#    y 0.000000 1.671120 0.000000 
#    z 0.000000 0.000000 1.648400 
# 
# From -- ./inp_files/43556.got.cif
#   From: 2010.05.17/outbox.cif.g08.bks.cpg/sg64_22_cif.got.tgz:43556.got - 2010.06.03 16:29:19.
