data_PCOD9476691
_publ_section_title
;
Structure prediction by ZEFSAII (Michael W. Deem and Ramdas Pophale) SiO2 
 PCOD9476691
Probable space group: C M C A
;
_chemical_formula_sum "Si O2"
_cell_formula_units_Z 64
_cell_length_a 8.340975
_cell_length_b 21.847414
_cell_length_c 18.864948
_cell_angle_alpha 90.000000
_cell_angle_beta 90.000000
_cell_angle_gamma 90.000000
_cell_volume 3437.735591
_symmetry_space_group_name_H-M "C M C A"
_symmetry_group_IT_number 64
_symmetry_cell_setting 'orthorhombic'
loop_
_space_group_symop_operation_xyz
x,y,z
-x,1/2-y,1/2+z
x,-y,-z
-x,1/2+y,1/2-z
-x,-y,-z
x,1/2+y,1/2-z
-x,y,z
x,1/2-y,1/2+z
1/2+x,1/2+y,z
1/2-x,-y,1/2+z
1/2+x,1/2-y,-z
1/2-x,y,1/2-z
1/2-x,1/2-y,-z
1/2+x,y,1/2-z
1/2-x,1/2+y,z
1/2+x,-y,1/2+z
loop_
_atom_site_type_symbol
_atom_site_label
_atom_site_fract_x
_atom_site_fract_y
_atom_site_fract_z
Si Si1 0.191340 0.382759 0.831175
Si Si2 0.303754 0.001053 0.918450
Si Si3 0.691779 0.746579 0.168411
Si Si4 0.806169 0.619323 0.831236
O O1 0.250000 0.387804 0.750000
O O2 0.249434 0.440475 0.876556
O O3 0.243250 0.316915 0.862197
O O4 0.000000 0.383954 0.829611
O O5 0.500000 0.001103 0.917686
O O6 0.250380 0.062407 0.878104
O O7 0.252967 0.000000 0.000000
O O8 0.500000 0.743775 0.167122
O O9 0.750000 0.746649 0.250000
O O10 0.743887 0.813325 0.140546
O O11 0.750000 0.612718 0.750000
O O12 0.000000 0.618778 0.830699
#
# Coordination Sequence:
#
# PCOD9476691 Si02
#       4
#    16  16  16  16
#     4  10  18  29  49  72  93 119 151 189 229 270
#     4   9  18  32  48  67  92 123 158 190 223 269
#     4   9  16  27  45  69  95 118 146 186 229 272
#     4   9  17  30  50  72  92 119 153 190 229 268
#
# _framework density 18.616904999999999
#
# number of rings (size 3 to 8) (size 9 to 14) (size 15 to 20)
#    0.000    2.750    0.000    3.750    0.000    1.000 
#    0.000    2.500    0.000    6.750    0.000    0.000 
#    0.000    0.000    0.000    0.000    0.000    0.000 
#
# Total GULP energy -178306.111427 kJ/mol
# GULP energy per Si atom -5572.065982 kJ/mol
# Density = 1.857453 g / cm^3
# Si number density = 18.616905 Si / 1000 Ang^3
#
#
#
# Elastic Constant Matrix: (Units=GPa)
#
#
# Indices 1 2 3 4 5 6 
#
# 1 22.4849 27.4242 9.3573 0.0000 0.0000 0.0000
# 2 27.4242 245.2782 91.0270 0.0000 0.0000 0.0000
# 3 9.3573 91.0270 80.7311 0.0000 0.0000 0.0000
# 4 0.0000 0.0000 0.0000 -2.4884 0.0000 0.0000
# 5 0.0000 0.0000 0.0000 0.0000 11.0158 0.0000
# 6 0.0000 0.0000 0.0000 0.0000 0.0000 42.8343
#
#
#
# Elastic Compliance Matrix: (Units=1/GPa)
#
#
# Indices 1 2 3 4 5 6 
#
# 1 0.051535 -0.006096 0.000900 0.000000 0.000000 0.000000
# 2 -0.006096 0.007732 -0.008011 0.000000 0.000000 0.000000
# 3 0.000900 -0.008011 0.021315 0.000000 0.000000 0.000000
# 4 0.000000 0.000000 0.000000 -0.401862 0.000000 0.000000
# 5 0.000000 0.000000 0.000000 0.000000 0.090778 0.000000
# 6 0.000000 0.000000 0.000000 0.000000 0.000000 0.023346
#
#
# Mechanical properties :
#
#
# Convention : Reuss Voigt Hill
#
# Bulk Modulus (GPa) = 18.46112 67.12349 42.79230
# Shear Modulus (GPa) = -30.73402 24.98472 -2.87465
#
# Velocity S-wave (km/s) = -4.06749 3.66737 -1.24397
# Velocity P-wave (km/s) = 3.48159 7.35297 4.57956
#
# Compressibility (1/GPa) = 0.05416791
#
# Stress axis : x y z
#
# Youngs Moduli (GPa) = 19.40435 129.33799 46.91474
#
# Poissons Ratio (x) = 0.78847 -0.04224
# Poissons Ratio (y) = 0.11829 0.37584
# Poissons Ratio (z) = -0.01747 1.03614
#
# Static dielectric constant tensor:
#      x y z
#    x 1.645610 0.000000 0.000000 
#    y 0.000000 1.702290 0.000000 
#    z 0.000000 0.000000 1.593370 
# 
# From -- ./inp_files/20868.got.cif
#   From: 2010.05.17/outbox.cif.g08.bks.cpg/sg64_11_cif.got.tgz:20868.got - 2010.06.03 16:29:19.
