data_PCOD9476723
_publ_section_title
;
Structure prediction by ZEFSAII (Michael W. Deem and Ramdas Pophale) SiO2 
 PCOD9476723
Probable space group: C M C A
;
_chemical_formula_sum "Si O2"
_cell_formula_units_Z 104
_cell_length_a 9.989677
_cell_length_b 21.958016
_cell_length_c 27.427164
_cell_angle_alpha 90.000000
_cell_angle_beta 90.000000
_cell_angle_gamma 90.000000
_cell_volume 6016.244073
_symmetry_space_group_name_H-M "C M C A"
_symmetry_group_IT_number 64
_symmetry_cell_setting 'orthorhombic'
loop_
_space_group_symop_operation_xyz
x,y,z
-x,1/2-y,1/2+z
x,-y,-z
-x,1/2+y,1/2-z
-x,-y,-z
x,1/2+y,1/2-z
-x,y,z
x,1/2-y,1/2+z
1/2+x,1/2+y,z
1/2-x,-y,1/2+z
1/2+x,1/2-y,-z
1/2-x,y,1/2-z
1/2-x,1/2-y,-z
1/2+x,y,1/2-z
1/2-x,1/2+y,z
1/2+x,-y,1/2+z
loop_
_atom_site_type_symbol
_atom_site_label
_atom_site_fract_x
_atom_site_fract_y
_atom_site_fract_z
Si Si1 0.340536 0.041156 0.397825
Si Si2 0.852633 0.136159 0.517774
Si Si3 0.343345 0.828621 0.564877
Si Si4 0.656643 0.662113 0.795683
Si Si5 0.155119 0.800512 0.382401
Si Si6 0.156938 0.484866 0.295754
Si Si7 0.223036 0.000000 0.500000
O O1 0.500000 0.037301 0.394795
O O2 0.302867 0.112241 0.403360
O O3 0.291389 0.011831 0.347297
O O4 0.300777 0.009472 0.448837
O O5 0.743756 0.167800 0.483774
O O6 0.827851 0.150774 0.574146
O O7 0.850812 0.064118 0.507382
O O8 0.000000 0.161167 0.506176
O O9 0.500000 0.836031 0.552413
O O10 0.328885 0.765857 0.593458
O O11 0.500000 0.680058 0.791376
O O12 0.750000 0.679401 0.750000
O O13 0.733032 0.688613 0.842256
O O14 0.659588 0.588507 0.799294
O O15 0.000000 0.805665 0.364311
O O16 0.250000 0.502760 0.250000
O O17 0.000000 0.502417 0.288240
#
# Coordination Sequence:
#
# PCOD9476723 Si02
#       7
#    16  16  16  16  16  16   8
#     4   9  17  31  51  74 100 129 163 205 249 297
#     4  10  20  32  48  72 103 134 165 204 249 296
#     4   9  19  34  51  71  98 132 168 205 244 289
#     4  10  20  34  53  76  99 125 159 202 248 294
#     4  10  20  34  51  72  99 133 169 205 246 291
#     4   9  18  33  52  75 100 126 160 201 246 295
#     4  10  18  30  48  74 103 132 165 204 257 308
#
# _framework density 17.286532999999999
#
# number of rings (size 3 to 8) (size 9 to 14) (size 15 to 20)
#    0.000    2.462    0.000    2.308    0.000    2.462 
#    0.000    4.615    0.000    1.846    0.000    0.000 
#    0.000    0.000    0.000    0.000    0.000    0.000 
#
# Total GULP energy -289678.603696 kJ/mol
# GULP energy per Si atom -5570.742379 kJ/mol
# Density = 1.724719 g / cm^3
# Si number density = 17.286533 Si / 1000 Ang^3
#
#
#
# Elastic Constant Matrix: (Units=GPa)
#
#
# Indices 1 2 3 4 5 6 
#
# 1 99.8016 33.1800 72.6675 0.0000 0.0000 0.0000
# 2 33.1800 41.0547 35.1904 0.0000 0.0000 0.0000
# 3 72.6675 35.1904 121.7453 0.0000 0.0000 0.0000
# 4 0.0000 0.0000 0.0000 22.8229 0.0000 0.0000
# 5 0.0000 0.0000 0.0000 0.0000 34.5876 0.0000
# 6 0.0000 0.0000 0.0000 0.0000 0.0000 11.2442
#
#
#
# Elastic Compliance Matrix: (Units=1/GPa)
#
#
# Indices 1 2 3 4 5 6 
#
# 1 0.019370 -0.007636 -0.009354 0.000000 0.000000 0.000000
# 2 -0.007636 0.035391 -0.005672 0.000000 0.000000 0.000000
# 3 -0.009354 -0.005672 0.015437 0.000000 0.000000 0.000000
# 4 0.000000 0.000000 0.000000 0.043816 0.000000 0.000000
# 5 0.000000 0.000000 0.000000 0.000000 0.028912 0.000000
# 6 0.000000 0.000000 0.000000 0.000000 0.000000 0.088935
#
#
# Mechanical properties :
#
#
# Convention : Reuss Voigt Hill
#
# Bulk Modulus (GPa) = 40.20466 60.51973 50.36219
# Shear Modulus (GPa) = 17.51469 21.83518 19.67493
#
# Velocity S-wave (km/s) = 3.18653 3.55791 3.37733
# Velocity P-wave (km/s) = 6.07017 7.20861 6.66375
#
# Compressibility (1/GPa) = 0.02487274
#
# Stress axis : x y z
#
# Youngs Moduli (GPa) = 51.62751 28.25583 64.78149
#
# Poissons Ratio (x) = 0.21577 0.60597
# Poissons Ratio (y) = 0.39425 0.36742
# Poissons Ratio (z) = 0.48292 0.16026
#
# Static dielectric constant tensor:
#      x y z
#    x 1.588480 0.000000 0.000000 
#    y 0.000000 1.589670 0.000000 
#    z 0.000000 0.000000 1.582600 
# 
# From -- ./inp_files/48232.got.cif
#   From: 2010.05.17/outbox.cif.g08.bks.cpg/sg64_25_cif.got.tgz:48232.got - 2010.06.03 16:29:19.
