data_PCOD9476629
_publ_section_title
;
Structure prediction by ZEFSAII (Michael W. Deem and Ramdas Pophale) SiO2 
 PCOD9476629
Probable space group: C M C A
;
_chemical_formula_sum "Si O2"
_cell_formula_units_Z 80
_cell_length_a 7.686439
_cell_length_b 26.709552
_cell_length_c 20.570549
_cell_angle_alpha 90.000000
_cell_angle_beta 90.000000
_cell_angle_gamma 90.000000
_cell_volume 4223.161319
_symmetry_space_group_name_H-M "C M C A"
_symmetry_group_IT_number 64
_symmetry_cell_setting 'orthorhombic'
loop_
_space_group_symop_operation_xyz
x,y,z
-x,1/2-y,1/2+z
x,-y,-z
-x,1/2+y,1/2-z
-x,-y,-z
x,1/2+y,1/2-z
-x,y,z
x,1/2-y,1/2+z
1/2+x,1/2+y,z
1/2-x,-y,1/2+z
1/2+x,1/2-y,-z
1/2-x,y,1/2-z
1/2-x,1/2-y,-z
1/2+x,y,1/2-z
1/2-x,1/2+y,z
1/2+x,-y,1/2+z
loop_
_atom_site_type_symbol
_atom_site_label
_atom_site_fract_x
_atom_site_fract_y
_atom_site_fract_z
Si Si1 0.708760 0.739667 0.575671
Si Si2 0.204447 0.654526 0.393184
Si Si3 0.790355 0.522508 0.568682
Si Si4 0.707003 0.634549 0.542137
Si Si5 0.209506 0.556020 0.324843
O O1 0.500000 0.739967 0.584477
O O2 0.750000 0.750000 0.500000
O O3 0.778807 0.789032 0.612131
O O4 0.770358 0.682504 0.584092
O O5 0.217751 0.638071 0.468983
O O6 0.278732 0.609765 0.349883
O O7 0.000000 0.658185 0.377486
O O8 0.726882 0.500000 0.500000
O O9 0.744354 0.580753 0.572247
O O10 0.726628 0.487915 0.627539
O O11 0.000000 0.519618 0.567659
O O12 0.500000 0.639879 0.534456
O O13 0.250000 0.547367 0.250000
O O14 0.000000 0.557387 0.331869
#
# Coordination Sequence:
#
# PCOD9476629 Si02
#       5
#    16  16  16  16  16
#     4   8  15  26  43  68  97 125 155 190 236 287
#     4   9  16  31  50  67  95 134 164 192 240 302
#     4  10  19  34  52  70  96 133 172 201 241 305
#     4  10  18  27  45  77 104 124 157 208 252 279
#     4  10  21  35  52  72  96 129 167 206 249 297
#
# _framework density 18.943155000000001
#
# number of rings (size 3 to 8) (size 9 to 14) (size 15 to 20)
#    0.000    2.600    2.000    0.600    0.000    2.800 
#    0.000    0.000    0.000    1.200    0.000    5.600 
#    0.000    0.000    0.000    0.000    0.000    0.000 
#
# Total GULP energy -222825.759651 kJ/mol
# GULP energy per Si atom -5570.643991 kJ/mol
# Density = 1.890004 g / cm^3
# Si number density = 18.943155 Si / 1000 Ang^3
#
#
#
# Elastic Constant Matrix: (Units=GPa)
#
#
# Indices 1 2 3 4 5 6 
#
# 1 31.5478 0.9331 -4.5796 0.0000 0.0000 0.0000
# 2 0.9331 222.8128 77.0701 0.0000 0.0000 0.0000
# 3 -4.5796 77.0701 82.0155 0.0000 0.0000 0.0000
# 4 0.0000 0.0000 0.0000 21.5118 0.0000 0.0000
# 5 0.0000 0.0000 0.0000 0.0000 16.7753 0.0000
# 6 0.0000 0.0000 0.0000 0.0000 0.0000 14.2858
#
#
#
# Elastic Compliance Matrix: (Units=1/GPa)
#
#
# Indices 1 2 3 4 5 6 
#
# 1 0.032144 -0.001119 0.002847 0.000000 0.000000 0.000000
# 2 -0.001119 0.006688 -0.006348 0.000000 0.000000 0.000000
# 3 0.002847 -0.006348 0.018317 0.000000 0.000000 0.000000
# 4 0.000000 0.000000 0.000000 0.046486 0.000000 0.000000
# 5 0.000000 0.000000 0.000000 0.000000 0.059612 0.000000
# 6 0.000000 0.000000 0.000000 0.000000 0.000000 0.070000
#
#
# Mechanical properties :
#
#
# Convention : Reuss Voigt Hill
#
# Bulk Modulus (GPa) = 20.87298 53.69148 37.28223
# Shear Modulus (GPa) = 19.34563 28.04475 23.69519
#
# Velocity S-wave (km/s) = 3.19916 3.85186 3.54058
# Velocity P-wave (km/s) = 4.96879 6.94172 6.03640
#
# Compressibility (1/GPa) = 0.04790884
#
# Stress axis : x y z
#
# Youngs Moduli (GPa) = 31.10977 149.51354 54.59537
#
# Poissons Ratio (x) = 0.16734 -0.15541
# Poissons Ratio (y) = 0.03482 0.34655
# Poissons Ratio (z) = -0.08856 0.94905
#
# Static dielectric constant tensor:
#      x y z
#    x 1.734010 0.000000 0.000000 
#    y 0.000000 1.731840 0.000000 
#    z 0.000000 0.000000 1.606600 
# 
# From -- ./inp_files/29741.got.cif
#   From: 2010.05.17/outbox.cif.g08.bks.cpg/sg64_15_cif.got.tgz:29741.got - 2010.06.03 16:29:19.
