data_PCOD9476260
_publ_section_title
;
Structure prediction by ZEFSAII (Michael W. Deem and Ramdas Pophale) SiO2 
 PCOD9476260
Probable space group: C M C M
;
_chemical_formula_sum "Si O2"
_cell_formula_units_Z 32
_cell_length_a 15.000000
_cell_length_b 9.000000
_cell_length_c 24.000000
_cell_angle_alpha 90.000000
_cell_angle_beta 90.000000
_cell_angle_gamma 90.000000
_cell_volume 3240.000000
_symmetry_space_group_name_H-M "C M C M"
_symmetry_group_IT_number 63
_symmetry_cell_setting 'orthorhombic'
loop_
_space_group_symop_operation_xyz
x,y,z
-x,-y,1/2+z
x,-y,-z
-x,y,1/2-z
-x,-y,-z
x,y,1/2-z
-x,y,z
x,-y,1/2+z
1/2+x,1/2+y,z
1/2-x,1/2-y,1/2+z
1/2+x,1/2-y,-z
1/2-x,1/2+y,1/2-z
1/2-x,1/2-y,-z
1/2+x,1/2+y,1/2-z
1/2-x,1/2+y,z
1/2+x,1/2-y,1/2+z
loop_
_atom_site_type_symbol
_atom_site_label
_atom_site_fract_x
_atom_site_fract_y
_atom_site_fract_z
Si Si1 0.000000 0.265429 0.515668
Si Si2 0.237791 0.923654 0.869395
Si Si3 0.000000 0.552394 0.903447
Si Si4 0.312015 0.312558 0.449678
Si Si5 0.645551 0.849826 0.315010
O O1 0.000000 0.327165 0.452973
O O2 0.000000 0.401413 0.560651
O O3 0.089585 0.178220 0.526708
O O4 0.304572 0.807558 0.899555
O O5 0.167970 0.812758 0.839776
O O6 0.212308 0.031989 0.920808
O O7 0.272285 0.036064 0.822028
O O8 0.919297 0.577805 0.861005
O O9 0.250000 0.250000 0.500000
O O10 0.617742 0.843916 0.250000
#
# Coordination Sequence:
#
# PCOD9476260 Si02
#       5
#     8  16   8  16  16
#     4  11  22  39  62  91 131 163 201 260 326 379
#     4  10  22  38  60  92 121 159 214 249 317 377
#     4  11  23  37  60  93 120 162 208 250 321 387
#     4  11  22  38  62  93 132 166 201 259 318 388
#     4  11  22  41  62  86 121 163 211 263 306 368
#
# _framework density 9.8765429999999999
#
# number of rings (size 3 to 8) (size 9 to 14) (size 15 to 20)
#    0.000    1.250    2.500    4.875    3.500    1.000 
#    0.000    3.750    0.000    0.000    0.000    0.000 
#    0.000    0.000    0.000    0.000    0.000    0.000 
#
# Total GULP energy -178295.915941 kJ/mol
# GULP energy per Si atom -5571.747373 kJ/mol
# Density = 0.985406 g / cm^3
# Si number density = 9.876543 Si / 1000 Ang^3
#
#
#
# Elastic Constant Matrix: (Units=GPa)
#
#
# Indices 1 2 3 4 5 6 
#
# 1 71.8042 21.7159 28.4127 0.0000 0.0000 0.0000
# 2 21.7159 111.8834 31.0872 0.0000 0.0000 0.0000
# 3 28.4127 31.0872 153.5706 0.0000 0.0000 0.0000
# 4 0.0000 0.0000 0.0000 31.8896 0.0000 0.0000
# 5 0.0000 0.0000 0.0000 0.0000 28.0694 0.0000
# 6 0.0000 0.0000 0.0000 0.0000 0.0000 15.9896
#
#
#
# Elastic Compliance Matrix: (Units=1/GPa)
#
#
# Indices 1 2 3 4 5 6 
#
# 1 0.015592 -0.002357 -0.002408 0.000000 0.000000 0.000000
# 2 -0.002357 0.009827 -0.001553 0.000000 0.000000 0.000000
# 3 -0.002408 -0.001553 0.007271 0.000000 0.000000 0.000000
# 4 0.000000 0.000000 0.000000 0.031358 0.000000 0.000000
# 5 0.000000 0.000000 0.000000 0.000000 0.035626 0.000000
# 6 0.000000 0.000000 0.000000 0.000000 0.000000 0.062541
#
#
# Mechanical properties :
#
#
# Convention : Reuss Voigt Hill
#
# Bulk Modulus (GPa) = 49.86387 55.52109 52.69248
# Shear Modulus (GPa) = 27.54259 32.25920 29.90089
#
# Velocity S-wave (km/s) = 3.73814 4.04557 3.89489
# Velocity P-wave (km/s) = 6.62797 7.07042 6.85277
#
# Compressibility (1/GPa) = 0.02005460
#
# Stress axis : x y z
#
# Youngs Moduli (GPa) = 64.13380 101.76071 137.52326
#
# Poissons Ratio (x) = 0.23989 0.33110
# Poissons Ratio (y) = 0.15119 0.21359
# Poissons Ratio (z) = 0.15441 0.15805
#
# Static dielectric constant tensor:
#      x y z
#    x 1.866910 0.000000 0.000000 
#    y 0.000000 1.716430 0.000000 
#    z 0.000000 0.000000 1.653470 
# 
# From -- ./inp_files/55051.got.cif
#   From: 2010.05.17/outbox.ucp.g08.bks.cvg/sg63_28_cif.got.tgz:55051.got - 2010.06.11 16:32:19.
