data_PCOD9476073
_publ_section_title
;
Structure prediction by ZEFSAII (Michael W. Deem and Ramdas Pophale) SiO2 
 PCOD9476073
Probable space group: C M C M
;
_chemical_formula_sum "Si O2"
_cell_formula_units_Z 48
_cell_length_a 9.000000
_cell_length_b 27.000000
_cell_length_c 24.000000
_cell_angle_alpha 90.000000
_cell_angle_beta 90.000000
_cell_angle_gamma 90.000000
_cell_volume 5832.000000
_symmetry_space_group_name_H-M "C M C M"
_symmetry_group_IT_number 63
_symmetry_cell_setting 'orthorhombic'
loop_
_space_group_symop_operation_xyz
x,y,z
-x,-y,1/2+z
x,-y,-z
-x,y,1/2-z
-x,-y,-z
x,y,1/2-z
-x,y,z
x,-y,1/2+z
1/2+x,1/2+y,z
1/2-x,1/2-y,1/2+z
1/2+x,1/2-y,-z
1/2-x,1/2+y,1/2-z
1/2-x,1/2-y,-z
1/2+x,1/2+y,1/2-z
1/2-x,1/2+y,z
1/2+x,1/2-y,1/2+z
loop_
_atom_site_type_symbol
_atom_site_label
_atom_site_fract_x
_atom_site_fract_y
_atom_site_fract_z
Si Si1 0.178198 0.672580 0.812394
Si Si2 0.174805 0.572709 0.012884
Si Si3 0.171852 0.827958 0.520416
Si Si4 0.674472 0.227086 0.579838
Si Si5 0.177159 0.930868 0.186801
Si Si6 0.676858 0.486466 0.080079
O O1 0.232644 0.683133 0.750000
O O2 0.216498 0.713313 0.857756
O O3 0.242821 0.619714 0.829969
O O4 0.000000 0.668797 0.810708
O O5 0.232688 0.532703 0.057028
O O6 0.000000 0.567841 0.003137
O O7 0.221230 0.626672 0.032067
O O8 0.266361 0.559501 0.957045
O O9 0.223772 0.803186 0.462678
O O10 0.186718 0.784575 0.565527
O O11 0.000000 0.843785 0.517561
O O12 0.500000 0.213268 0.570571
O O13 0.220621 0.942487 0.250000
O O14 0.209531 0.974008 0.143640
O O15 0.000000 0.922319 0.185065
O O16 0.500000 0.493350 0.072160
#
# Coordination Sequence:
#
# PCOD9476073 Si02
#       6
#    16  16  16  16  16  16
#     4   9  17  29  46  68  93 120 149 182 222 268
#     4  11  21  32  47  68  95 123 153 190 230 273
#     4  10  19  31  47  67  92 122 154 188 228 272
#     4   9  18  31  47  68  93 120 151 188 227 268
#     4   9  18  31  47  69  95 121 149 183 224 270
#     4  10  19  32  50  70  93 121 153 188 227 273
#
# _framework density 8.2304530000000007
#
# number of rings (size 3 to 8) (size 9 to 14) (size 15 to 20)
#    0.000    2.333    0.000    4.500    0.000    5.333 
#    0.000    0.000    0.000    1.000    0.000    4.667 
#    0.000    0.000    0.000    0.000    0.000    0.000 
#
# Total GULP energy -267492.880101 kJ/mol
# GULP energy per Si atom -5572.768335 kJ/mol
# Density = 0.821172 g / cm^3
# Si number density = 8.230453 Si / 1000 Ang^3
#
#
#
# Elastic Constant Matrix: (Units=GPa)
#
#
# Indices 1 2 3 4 5 6 
#
# 1 23.2294 19.7167 -8.0778 0.0000 0.0000 0.0000
# 2 19.7167 24.3019 59.6079 0.0000 0.0000 0.0000
# 3 -8.0778 59.6079 -7.6461 0.0000 0.0000 0.0000
# 4 0.0000 0.0000 0.0000 7.8020 0.0000 0.0000
# 5 0.0000 0.0000 0.0000 0.0000 1.8377 0.0000
# 6 0.0000 0.0000 0.0000 0.0000 0.0000 24.8998
#
#
#
# Elastic Compliance Matrix: (Units=1/GPa)
#
#
# Indices 1 2 3 4 5 6 
#
# 1 0.035795 0.003166 -0.013131 0.000000 0.000000 0.000000
# 2 0.003166 0.002325 0.014781 0.000000 0.000000 0.000000
# 3 -0.013131 0.014781 -0.001683 0.000000 0.000000 0.000000
# 4 0.000000 0.000000 0.000000 0.128172 0.000000 0.000000
# 5 0.000000 0.000000 0.000000 0.000000 0.544158 0.000000
# 6 0.000000 0.000000 0.000000 0.000000 0.000000 0.040161
#
#
# Mechanical properties :
#
#
# Convention : Reuss Voigt Hill
#
# Bulk Modulus (GPa) = 21.70595 20.26430 20.98512
# Shear Modulus (GPa) = 6.62557 4.81713 5.72135
#
# Velocity S-wave (km/s) = 2.00842 1.71253 1.86635
# Velocity P-wave (km/s) = 4.31200 4.03084 4.17379
#
# Compressibility (1/GPa) = 0.04607033
#
# Stress axis : x y z
#
# Youngs Moduli (GPa) = 27.93679 430.08843 -594.25173
#
# Poissons Ratio (x) = -1.36186 -7.80311
# Poissons Ratio (y) = -0.08846 8.78362
# Poissons Ratio (z) = 0.36684 -6.35713
#
# Static dielectric constant tensor:
#      x y z
#    x 2.076620 0.000000 0.000000 
#    y 0.000000 1.548750 0.000000 
#    z 0.000000 0.000000 1.572510 
# 
# From -- ./inp_files/60251.got.cif
#   From: 2010.05.17/outbox.ucp.g08.bks.cvg/sg63_31_cif.got.tgz:60251.got - 2010.06.11 16:32:19.
