data_PCOD9476688
_publ_section_title
;
Structure prediction by ZEFSAII (Michael W. Deem and Ramdas Pophale) SiO2 
 PCOD9476688
Probable space group: C M C A
;
_chemical_formula_sum "Si O2"
_cell_formula_units_Z 128
_cell_length_a 17.243900
_cell_length_b 16.049014
_cell_length_c 19.130777
_cell_angle_alpha 90.000000
_cell_angle_beta 90.000000
_cell_angle_gamma 90.000000
_cell_volume 5294.396478
_symmetry_space_group_name_H-M "C M C A"
_symmetry_group_IT_number 64
_symmetry_cell_setting 'orthorhombic'
loop_
_space_group_symop_operation_xyz
x,y,z
-x,1/2-y,1/2+z
x,-y,-z
-x,1/2+y,1/2-z
-x,-y,-z
x,1/2+y,1/2-z
-x,y,z
x,1/2-y,1/2+z
1/2+x,1/2+y,z
1/2-x,-y,1/2+z
1/2+x,1/2-y,-z
1/2-x,y,1/2-z
1/2-x,1/2-y,-z
1/2+x,y,1/2-z
1/2-x,1/2+y,z
1/2+x,-y,1/2+z
loop_
_atom_site_type_symbol
_atom_site_label
_atom_site_fract_x
_atom_site_fract_y
_atom_site_fract_z
Si Si1 0.588226 0.240019 0.838603
Si Si2 0.323289 0.194871 0.969593
Si Si3 0.165894 0.502096 0.216062
Si Si4 0.590211 0.666075 0.959553
Si Si5 0.695317 0.411215 0.590650
Si Si6 0.909166 0.170806 0.300780
Si Si7 0.122861 0.583548 0.401997
Si Si8 0.589129 0.409401 0.173297
O O1 0.500000 0.204726 0.844553
O O2 0.606986 0.259156 0.757174
O O3 0.584301 0.334505 0.869536
O O4 0.653887 0.197444 0.887929
O O5 0.393161 0.246852 0.004137
O O6 0.316086 0.107039 0.009279
O O7 0.250000 0.250000 0.000000
O O8 0.250000 0.518244 0.250000
O O9 0.168775 0.506066 0.132109
O O10 0.109374 0.580047 0.233503
O O11 0.132985 0.422559 0.254449
O O12 0.500000 0.657265 0.947361
O O13 0.626444 0.652862 0.883188
O O14 0.612962 0.595227 0.014859
O O15 0.648182 0.339645 0.633402
O O16 0.785397 0.406123 0.608532
O O17 0.000000 0.176264 0.320434
O O18 0.094429 0.497580 0.369136
O O19 0.500000 0.390590 0.188887
#
# Coordination Sequence:
#
# PCOD9476688 Si02
#       8
#    16  16  16  16  16  16  16  16
#     4  10  18  29  48  72 105 146 182 226 288 343
#     4  11  20  34  50  74 114 152 191 228 279 343
#     4  10  18  31  51  76 104 140 184 238 286 334
#     4  10  22  33  49  79 115 155 183 218 288 358
#     4  10  20  30  53  79 105 151 190 237 277 338
#     4   9  18  30  47  75 105 138 185 235 287 333
#     4  11  16  30  47  78 109 144 174 222 283 346
#     4  11  19  31  52  80 112 142 179 229 289 354
#
# _framework density 24.176504000000001
#
# number of rings (size 3 to 8) (size 9 to 14) (size 15 to 20)
#    0.750    1.000    5.000    3.000    0.000    2.000 
#    0.000    0.000    0.000    2.250    0.000    0.000 
#    0.000   18.000    0.000    0.000    0.000    0.000 
#
# Total GULP energy -356860.968724 kJ/mol
# GULP energy per Si atom -5575.952636 kJ/mol
# Density = 2.412148 g / cm^3
# Si number density = 24.176504 Si / 1000 Ang^3
#
#
#
# Elastic Constant Matrix: (Units=GPa)
#
#
# Indices 1 2 3 4 5 6 
#
# 1 99.5233 -0.3981 27.6404 0.0000 0.0000 0.0000
# 2 -0.3981 66.6420 0.0578 0.0000 0.0000 0.0000
# 3 27.6404 0.0578 103.9264 0.0000 0.0000 0.0000
# 4 0.0000 0.0000 0.0000 42.4622 0.0000 0.0000
# 5 0.0000 0.0000 0.0000 0.0000 104.5055 0.0000
# 6 0.0000 0.0000 0.0000 0.0000 0.0000 -7.2039
#
#
#
# Elastic Compliance Matrix: (Units=1/GPa)
#
#
# Indices 1 2 3 4 5 6 
#
# 1 0.010850 0.000067 -0.002886 0.000000 0.000000 0.000000
# 2 0.000067 0.015006 -0.000026 0.000000 0.000000 0.000000
# 3 -0.002886 -0.000026 0.010390 0.000000 0.000000 0.000000
# 4 0.000000 0.000000 0.000000 0.023550 0.000000 0.000000
# 5 0.000000 0.000000 0.000000 0.000000 0.009569 0.000000
# 6 0.000000 0.000000 0.000000 0.000000 0.000000 -0.138814
#
#
# Mechanical properties :
#
#
# Convention : Reuss Voigt Hill
#
# Bulk Modulus (GPa) = 32.72664 36.07688 34.40176
# Shear Modulus (GPa) = -93.32711 44.13886 -24.59412
#
# Velocity S-wave (km/s) = -6.21982 4.27745 -3.19293
# Velocity P-wave (km/s) = 6.16568 6.27297 0.81683
#
# Compressibility (1/GPa) = 0.03055615
#
# Stress axis : x y z
#
# Youngs Moduli (GPa) = 92.16950 66.64012 96.24943
#
# Poissons Ratio (x) = -0.00449 0.27774
# Poissons Ratio (y) = -0.00620 0.00253
# Poissons Ratio (z) = 0.26596 0.00175
#
# Static dielectric constant tensor:
#      x y z
#    x 1.890760 0.000000 0.000000 
#    y 0.000000 1.982710 0.000000 
#    z 0.000000 0.000000 2.027480 
# 
# From -- ./inp_files/40569.got.cif
#   From: 2010.05.17/outbox.cif.g08.bks.cpg/sg64_21_cif.got.tgz:40569.got - 2010.06.03 16:29:19.
