data_PCOD9476161
_publ_section_title
;
Structure prediction by ZEFSAII (Michael W. Deem and Ramdas Pophale) SiO2 
 PCOD9476161
Probable space group: C M C M
;
_chemical_formula_sum "Si O2"
_cell_formula_units_Z 56
_cell_length_a 15.000000
_cell_length_b 24.000000
_cell_length_c 15.000000
_cell_angle_alpha 90.000000
_cell_angle_beta 90.000000
_cell_angle_gamma 90.000000
_cell_volume 5400.000000
_symmetry_space_group_name_H-M "C M C M"
_symmetry_group_IT_number 63
_symmetry_cell_setting 'orthorhombic'
loop_
_space_group_symop_operation_xyz
x,y,z
-x,-y,1/2+z
x,-y,-z
-x,y,1/2-z
-x,-y,-z
x,y,1/2-z
-x,y,z
x,-y,1/2+z
1/2+x,1/2+y,z
1/2-x,1/2-y,1/2+z
1/2+x,1/2-y,-z
1/2-x,1/2+y,1/2-z
1/2-x,1/2-y,-z
1/2+x,1/2+y,1/2-z
1/2-x,1/2+y,z
1/2+x,1/2-y,1/2+z
loop_
_atom_site_type_symbol
_atom_site_label
_atom_site_fract_x
_atom_site_fract_y
_atom_site_fract_z
Si Si1 0.285890 0.529325 0.096344
Si Si2 0.795475 0.820869 0.350886
Si Si3 0.401726 0.571302 0.647001
Si Si4 0.398797 0.149292 0.602149
Si Si5 0.102152 0.761073 0.498751
Si Si6 0.606073 0.640964 0.357154
Si Si7 0.601751 0.023672 0.644260
O O1 0.351109 0.487073 0.147841
O O2 0.328400 0.590879 0.108823
O O3 0.182767 0.518906 0.125160
O O4 0.291336 0.500000 0.000000
O O5 0.824965 0.807636 0.250000
O O6 0.841131 0.878117 0.387285
O O7 0.690109 0.832152 0.347052
O O8 0.827901 0.775351 0.421511
O O9 0.412816 0.586036 0.750000
O O10 0.500000 0.568183 0.604191
O O11 0.500000 0.155107 0.640596
O O12 0.396455 0.195516 0.523650
O O13 0.387487 0.082273 0.590449
O O14 0.119054 0.802318 0.584180
O O15 0.000000 0.774179 0.469399
O O16 0.620762 0.649418 0.250000
O O17 0.500000 0.625702 0.367581
O O18 0.607268 0.038286 0.750000
O O19 0.500000 0.003182 0.627373
#
# Coordination Sequence:
#
# PCOD9476161 Si02
#       7
#    16  16  16  16  16  16  16
#     4  12  23  35  56  85 121 155 194 243 305 359
#     4  11  21  35  58  90 124 158 196 241 298 362
#     4  10  20  34  54  81 115 154 196 240 286 343
#     4  10  21  38  62  88 116 154 200 253 303 345
#     4  10  22  40  61  90 127 161 197 244 297 360
#     4  10  22  39  59  85 122 166 205 241 291 361
#     4  10  21  39  63  88 112 145 198 258 304 344
#
# _framework density 10.370369999999999
#
# number of rings (size 3 to 8) (size 9 to 14) (size 15 to 20)
#    0.000    1.571    1.429    3.857    0.000    6.571 
#    0.000    4.286    0.000    0.000    0.000    0.000 
#    0.000    0.000    0.000    0.000    0.000    0.000 
#
# Total GULP energy -312268.763750 kJ/mol
# GULP energy per Si atom -5576.227924 kJ/mol
# Density = 1.034677 g / cm^3
# Si number density = 10.370370 Si / 1000 Ang^3
#
#
#
# Elastic Constant Matrix: (Units=GPa)
#
#
# Indices 1 2 3 4 5 6 
#
# 1 139.5866 21.2119 27.1131 0.0000 0.0000 0.0000
# 2 21.2119 53.0774 3.4072 0.0000 0.0000 0.0000
# 3 27.1131 3.4072 77.3195 0.0000 0.0000 0.0000
# 4 0.0000 0.0000 0.0000 19.5363 0.0000 0.0000
# 5 0.0000 0.0000 0.0000 0.0000 17.3441 0.0000
# 6 0.0000 0.0000 0.0000 0.0000 0.0000 25.3129
#
#
#
# Elastic Compliance Matrix: (Units=1/GPa)
#
#
# Indices 1 2 3 4 5 6 
#
# 1 0.008163 -0.003087 -0.002726 0.000000 0.000000 0.000000
# 2 -0.003087 0.020061 0.000199 0.000000 0.000000 0.000000
# 3 -0.002726 0.000199 0.013881 0.000000 0.000000 0.000000
# 4 0.000000 0.000000 0.000000 0.051187 0.000000 0.000000
# 5 0.000000 0.000000 0.000000 0.000000 0.057657 0.000000
# 6 0.000000 0.000000 0.000000 0.000000 0.000000 0.039506
#
#
# Mechanical properties :
#
#
# Convention : Reuss Voigt Hill
#
# Bulk Modulus (GPa) = 32.38883 41.49420 36.94151
# Shear Modulus (GPa) = 23.58766 26.98873 25.28820
#
# Velocity S-wave (km/s) = 3.37599 3.61119 3.49557
# Velocity P-wave (km/s) = 5.55395 6.11859 5.84309
#
# Compressibility (1/GPa) = 0.03087484
#
# Stress axis : x y z
#
# Youngs Moduli (GPa) = 122.50861 49.84695 72.04290
#
# Poissons Ratio (x) = 0.15388 0.19641
# Poissons Ratio (y) = 0.37820 -0.01430
# Poissons Ratio (z) = 0.33400 -0.00989
#
# Static dielectric constant tensor:
#      x y z
#    x 1.792570 0.000000 0.000000 
#    y 0.000000 1.726860 0.000000 
#    z 0.000000 0.000000 1.918280 
# 
# From -- ./inp_files/32340.got.cif
#   From: 2010.05.17/outbox.ucp.g08.bks.cvg/sg63_17_cif.got.tgz:32340.got - 2010.06.11 16:32:19.
