data_PCOD9476517
_publ_section_title
;
Structure prediction by ZEFSAII (Michael W. Deem and Ramdas Pophale) SiO2 
 PCOD9476517
Probable space group: C M C A
;
_chemical_formula_sum "Si O2"
_cell_formula_units_Z 88
_cell_length_a 15.933054
_cell_length_b 17.670141
_cell_length_c 17.322857
_cell_angle_alpha 90.000000
_cell_angle_beta 90.000000
_cell_angle_gamma 90.000000
_cell_volume 4877.065220
_symmetry_space_group_name_H-M "C M C A"
_symmetry_group_IT_number 64
_symmetry_cell_setting 'orthorhombic'
loop_
_space_group_symop_operation_xyz
x,y,z
-x,1/2-y,1/2+z
x,-y,-z
-x,1/2+y,1/2-z
-x,-y,-z
x,1/2+y,1/2-z
-x,y,z
x,1/2-y,1/2+z
1/2+x,1/2+y,z
1/2-x,-y,1/2+z
1/2+x,1/2-y,-z
1/2-x,y,1/2-z
1/2-x,1/2-y,-z
1/2+x,y,1/2-z
1/2-x,1/2+y,z
1/2+x,-y,1/2+z
loop_
_atom_site_type_symbol
_atom_site_label
_atom_site_fract_x
_atom_site_fract_y
_atom_site_fract_z
Si Si1 0.597093 0.970090 0.086723
Si Si2 0.906275 0.119879 0.123435
Si Si3 0.849783 0.500000 0.500000
Si Si4 0.733592 0.134923 0.940968
Si Si5 0.903661 0.112399 0.303247
Si Si6 0.729805 0.203350 0.105944
O O1 0.500000 0.949223 0.088027
O O2 0.655274 0.899285 0.103827
O O3 0.611487 0.037652 0.146257
O O4 0.616421 0.000000 0.000000
O O5 0.899651 0.095161 0.212596
O O6 0.826805 0.175657 0.112164
O O7 0.000000 0.153388 0.112254
O O8 0.897338 0.049414 0.064623
O O9 0.794175 0.563924 0.542814
O O10 0.774566 0.206418 0.899464
O O11 0.702654 0.167596 0.023611
O O12 0.831720 0.170540 0.329268
O O13 0.000000 0.138286 0.320045
#
# Coordination Sequence:
#
# PCOD9476517 Si02
#       6
#    16  16   8  16  16  16
#     4  10  17  30  55  83 110 143 184 232 279 323
#     4  10  21  37  57  79 110 150 188 228 276 337
#     4  10  19  38  59  78 108 146 189 230 276 334
#     4  10  19  33  54  80 110 142 182 226 272 332
#     4  10  20  36  57  81 109 145 189 233 280 331
#     4  10  20  34  53  80 110 144 182 224 276 336
#
# _framework density 18.043638000000001
#
# number of rings (size 3 to 8) (size 9 to 14) (size 15 to 20)
#    0.000    2.000    2.727    1.909    0.000    0.727 
#    0.000   11.818    0.000    4.364    0.000    0.000 
#    0.000    0.000    0.000    0.000    0.000    0.000 
#
# Total GULP energy -245238.601847 kJ/mol
# GULP energy per Si atom -5573.604587 kJ/mol
# Density = 1.800257 g / cm^3
# Si number density = 18.043638 Si / 1000 Ang^3
#
#
#
# Elastic Constant Matrix: (Units=GPa)
#
#
# Indices 1 2 3 4 5 6 
#
# 1 100.7880 71.7092 34.3695 0.0000 0.0000 0.0000
# 2 71.7092 88.1582 23.1164 0.0000 0.0000 0.0000
# 3 34.3695 23.1164 69.9161 0.0000 0.0000 0.0000
# 4 0.0000 0.0000 0.0000 15.4788 0.0000 0.0000
# 5 0.0000 0.0000 0.0000 0.0000 24.0181 0.0000
# 6 0.0000 0.0000 0.0000 0.0000 0.0000 11.6094
#
#
#
# Elastic Compliance Matrix: (Units=1/GPa)
#
#
# Indices 1 2 3 4 5 6 
#
# 1 0.025864 -0.019385 -0.006305 0.000000 0.000000 0.000000
# 2 -0.019385 0.026949 0.000619 0.000000 0.000000 0.000000
# 3 -0.006305 0.000619 0.017198 0.000000 0.000000 0.000000
# 4 0.000000 0.000000 0.000000 0.064605 0.000000 0.000000
# 5 0.000000 0.000000 0.000000 0.000000 0.041635 0.000000
# 6 0.000000 0.000000 0.000000 0.000000 0.000000 0.086137
#
#
# Mechanical properties :
#
#
# Convention : Reuss Voigt Hill
#
# Bulk Modulus (GPa) = 50.32995 57.47250 53.90122
# Shear Modulus (GPa) = 15.66653 18.86573 17.26613
#
# Velocity S-wave (km/s) = 2.94982 3.23702 3.09675
# Velocity P-wave (km/s) = 6.28935 6.77438 6.53636
#
# Compressibility (1/GPa) = 0.01986889
#
# Stress axis : x y z
#
# Youngs Moduli (GPa) = 38.66394 37.10742 58.14764
#
# Poissons Ratio (x) = 0.71932 0.36662
# Poissons Ratio (y) = 0.74949 -0.03600
# Poissons Ratio (z) = 0.24378 -0.02297
#
# Static dielectric constant tensor:
#      x y z
#    x 1.660770 0.000000 0.000000 
#    y 0.000000 1.599180 0.000000 
#    z 0.000000 0.000000 1.616700 
# 
# From -- ./inp_files/32162.got.cif
#   From: 2010.05.17/outbox.cif.g08.bks.cpg/sg64_17_cif.got.tgz:32162.got - 2010.06.03 16:29:19.
