data_PCOD9476110
_publ_section_title
;
Structure prediction by ZEFSAII (Michael W. Deem and Ramdas Pophale) SiO2 
 PCOD9476110
Probable space group: C M C M
;
_chemical_formula_sum "Si O2"
_cell_formula_units_Z 40
_cell_length_a 12.000000
_cell_length_b 21.000000
_cell_length_c 18.000000
_cell_angle_alpha 90.000000
_cell_angle_beta 90.000000
_cell_angle_gamma 90.000000
_cell_volume 4536.000000
_symmetry_space_group_name_H-M "C M C M"
_symmetry_group_IT_number 63
_symmetry_cell_setting 'orthorhombic'
loop_
_space_group_symop_operation_xyz
x,y,z
-x,-y,1/2+z
x,-y,-z
-x,y,1/2-z
-x,-y,-z
x,y,1/2-z
-x,y,z
x,-y,1/2+z
1/2+x,1/2+y,z
1/2-x,1/2-y,1/2+z
1/2+x,1/2-y,-z
1/2-x,1/2+y,1/2-z
1/2-x,1/2-y,-z
1/2+x,1/2+y,1/2-z
1/2-x,1/2+y,z
1/2+x,1/2-y,1/2+z
loop_
_atom_site_type_symbol
_atom_site_label
_atom_site_fract_x
_atom_site_fract_y
_atom_site_fract_z
Si Si1 0.721938 0.257245 0.088631
Si Si2 0.500000 0.472320 0.162589
Si Si3 0.500000 0.681252 0.659764
Si Si4 0.372527 0.127996 0.590361
Si Si5 0.265267 0.502154 0.910097
Si Si6 0.870262 0.375981 0.909103
O O1 0.607384 0.291576 0.115092
O O2 0.818305 0.305287 0.115778
O O3 0.702457 0.184962 0.115868
O O4 0.750000 0.250000 0.000000
O O5 0.500000 0.486828 0.250000
O O6 0.500000 0.395365 0.154236
O O7 0.387786 0.498558 0.124844
O O8 0.500000 0.696798 0.750000
O O9 0.500000 0.121096 0.614979
O O10 0.296922 0.067683 0.612084
O O11 0.373193 0.126986 0.499676
O O12 0.189302 0.441793 0.888134
O O13 0.274814 0.500000 0.000000
O O14 0.000000 0.372123 0.884663
#
# Coordination Sequence:
#
# PCOD9476110 Si02
#       6
#    16   8   8  16  16  16
#     4  10  19  34  57  87 115 149 198 243 287 349
#     4  11  23  39  57  79 115 153 195 241 292 357
#     4  11  22  39  63  87 117 157 199 245 301 367
#     4   9  17  30  51  82 116 143 180 239 287 335
#     4  10  19  34  55  83 108 146 191 237 288 347
#     4   9  17  30  52  82 113 141 179 235 291 332
#
# _framework density 8.8183419999999995
#
# number of rings (size 3 to 8) (size 9 to 14) (size 15 to 20)
#    0.000    2.200    3.000    0.900    1.400    2.400 
#    1.800    1.000    0.000    3.600    0.000    0.000 
#    0.000    0.000    0.000    0.000    0.000    0.000 
#
# Total GULP energy -222820.044878 kJ/mol
# GULP energy per Si atom -5570.501122 kJ/mol
# Density = 0.879827 g / cm^3
# Si number density = 8.818342 Si / 1000 Ang^3
#
#
#
# Elastic Constant Matrix: (Units=GPa)
#
#
# Indices 1 2 3 4 5 6 
#
# 1 152.4283 64.5608 25.3848 0.0000 0.0000 0.0000
# 2 64.5608 138.7175 11.7905 0.0000 0.0000 0.0000
# 3 25.3848 11.7905 30.8327 0.0000 0.0000 0.0000
# 4 0.0000 0.0000 0.0000 13.9735 0.0000 0.0000
# 5 0.0000 0.0000 0.0000 0.0000 11.1897 0.0000
# 6 0.0000 0.0000 0.0000 0.0000 0.0000 41.2621
#
#
#
# Elastic Compliance Matrix: (Units=1/GPa)
#
#
# Indices 1 2 3 4 5 6 
#
# 1 0.009165 -0.003746 -0.006113 0.000000 0.000000 0.000000
# 2 -0.003746 0.008982 -0.000351 0.000000 0.000000 0.000000
# 3 -0.006113 -0.000351 0.037600 0.000000 0.000000 0.000000
# 4 0.000000 0.000000 0.000000 0.071564 0.000000 0.000000
# 5 0.000000 0.000000 0.000000 0.000000 0.089368 0.000000
# 6 0.000000 0.000000 0.000000 0.000000 0.000000 0.024235
#
#
# Mechanical properties :
#
#
# Convention : Reuss Voigt Hill
#
# Bulk Modulus (GPa) = 28.30641 58.38343 43.34492
# Shear Modulus (GPa) = 18.30759 27.96787 23.13773
#
# Velocity S-wave (km/s) = 3.22536 3.98650 3.62596
# Velocity P-wave (km/s) = 5.47313 7.37325 6.49308
#
# Compressibility (1/GPa) = 0.03532768
#
# Stress axis : x y z
#
# Youngs Moduli (GPa) = 109.10912 111.33222 26.59553
#
# Poissons Ratio (x) = 0.41705 0.16259
# Poissons Ratio (y) = 0.40872 0.00933
# Poissons Ratio (z) = 0.66701 0.03905
#
# Static dielectric constant tensor:
#      x y z
#    x 1.584880 0.000000 0.000000 
#    y 0.000000 1.618050 0.000000 
#    z 0.000000 0.000000 1.595870 
# 
# From -- ./inp_files/42157.got.cif
#   From: 2010.05.17/outbox.ucp.g08.bks.cvg/sg63_22_cif.got.tgz:42157.got - 2010.06.11 16:32:19.
