data_PCOD9476080
_publ_section_title
;
Structure prediction by ZEFSAII (Michael W. Deem and Ramdas Pophale) SiO2 
 PCOD9476080
Probable space group: C M C M
;
_chemical_formula_sum "Si O2"
_cell_formula_units_Z 44
_cell_length_a 18.000000
_cell_length_b 21.000000
_cell_length_c 12.000000
_cell_angle_alpha 90.000000
_cell_angle_beta 90.000000
_cell_angle_gamma 90.000000
_cell_volume 4536.000000
_symmetry_space_group_name_H-M "C M C M"
_symmetry_group_IT_number 63
_symmetry_cell_setting 'orthorhombic'
loop_
_space_group_symop_operation_xyz
x,y,z
-x,-y,1/2+z
x,-y,-z
-x,y,1/2-z
-x,-y,-z
x,y,1/2-z
-x,y,z
x,-y,1/2+z
1/2+x,1/2+y,z
1/2-x,1/2-y,1/2+z
1/2+x,1/2-y,-z
1/2-x,1/2+y,1/2-z
1/2-x,1/2-y,-z
1/2+x,1/2+y,1/2-z
1/2-x,1/2+y,z
1/2+x,1/2-y,1/2+z
loop_
_atom_site_type_symbol
_atom_site_label
_atom_site_fract_x
_atom_site_fract_y
_atom_site_fract_z
Si Si1 0.245774 0.574248 0.478759
Si Si2 0.698156 0.104519 0.250000
Si Si3 0.586886 0.243354 0.873740
Si Si4 0.420160 0.007303 0.750000
Si Si5 0.081523 0.599875 0.961360
Si Si6 0.814911 0.798935 0.043492
Si Si7 0.595945 0.233168 0.250000
O O1 0.267642 0.500000 0.500000
O O2 0.253858 0.601168 0.354570
O O3 0.155883 0.577511 0.481392
O O4 0.280599 0.629887 0.557699
O O5 0.637770 0.163265 0.250000
O O6 0.648464 0.040116 0.250000
O O7 0.618448 0.236573 0.750000
O O8 0.500000 0.257079 0.867928
O O9 0.592155 0.173968 0.931442
O O10 0.627859 0.296997 0.941848
O O11 0.500000 0.972982 0.750000
O O12 0.419783 0.055305 0.646445
O O13 0.000000 0.593343 0.016309
O O14 0.865031 0.769753 0.144596
O O15 0.750000 0.750000 0.000000
O O16 0.500000 0.231705 0.250000
#
# Coordination Sequence:
#
# PCOD9476080 Si02
#       7
#    16   8  16   8  16  16   8
#     4  12  26  41  61  95 134 180 224 276 335 408
#     4  12  23  39  62  95 135 176 217 273 322 393
#     4  10  20  36  63  92 125 165 218 276 331 400
#     4  10  19  31  53  84 126 175 213 246 300 386
#     4  10  19  34  55  87 128 176 219 256 313 398
#     4  12  25  41  67  97 133 174 221 282 343 394
#     4  12  27  48  73 101 135 179 236 289 342 409
#
# _framework density 9.7001760000000008
#
# number of rings (size 3 to 8) (size 9 to 14) (size 15 to 20)
#    0.000    0.909    6.364    0.818    2.545    4.727 
#    0.000    0.000    0.000    2.182    0.000    0.000 
#    0.000    0.000    0.000    0.000    0.000    0.000 
#
# Total GULP energy -245075.111409 kJ/mol
# GULP energy per Si atom -5569.888896 kJ/mol
# Density = 0.967810 g / cm^3
# Si number density = 9.700176 Si / 1000 Ang^3
#
#
#
# Elastic Constant Matrix: (Units=GPa)
#
#
# Indices 1 2 3 4 5 6 
#
# 1 62.8332 39.5215 27.4685 0.0000 0.0000 0.0000
# 2 39.5215 125.3790 19.9250 0.0000 0.0000 0.0000
# 3 27.4685 19.9250 80.9760 0.0000 0.0000 0.0000
# 4 0.0000 0.0000 0.0000 21.8901 0.0000 0.0000
# 5 0.0000 0.0000 0.0000 0.0000 28.6446 0.0000
# 6 0.0000 0.0000 0.0000 0.0000 0.0000 32.3656
#
#
#
# Elastic Compliance Matrix: (Units=1/GPa)
#
#
# Indices 1 2 3 4 5 6 
#
# 1 0.022419 -0.006097 -0.006105 0.000000 0.000000 0.000000
# 2 -0.006097 0.009958 -0.000382 0.000000 0.000000 0.000000
# 3 -0.006105 -0.000382 0.014514 0.000000 0.000000 0.000000
# 4 0.000000 0.000000 0.000000 0.045683 0.000000 0.000000
# 5 0.000000 0.000000 0.000000 0.000000 0.034911 0.000000
# 6 0.000000 0.000000 0.000000 0.000000 0.000000 0.030897
#
#
# Mechanical properties :
#
#
# Convention : Reuss Voigt Hill
#
# Bulk Modulus (GPa) = 46.03185 49.22425 47.62805
# Shear Modulus (GPa) = 26.20683 28.73159 27.46921
#
# Velocity S-wave (km/s) = 3.67937 3.85253 3.76694
# Velocity P-wave (km/s) = 6.46755 6.72438 6.59721
#
# Compressibility (1/GPa) = 0.02172409
#
# Stress axis : x y z
#
# Youngs Moduli (GPa) = 44.60586 100.41870 68.89802
#
# Poissons Ratio (x) = 0.61221 0.42060
# Poissons Ratio (y) = 0.27194 0.02634
# Poissons Ratio (z) = 0.27230 0.03839
#
# Static dielectric constant tensor:
#      x y z
#    x 1.741190 0.000000 0.000000 
#    y 0.000000 1.658990 0.000000 
#    z 0.000000 0.000000 1.960380 
# 
# From -- ./inp_files/21170.got.cif
#   From: 2010.05.17/outbox.ucp.g08.bks.cvg/sg63_11_cif.got.tgz:21170.got - 2010.06.11 16:32:19.
