data_PCOD9476114
_publ_section_title
;
Structure prediction by ZEFSAII (Michael W. Deem and Ramdas Pophale) SiO2 
 PCOD9476114
Probable space group: C M C M
;
_chemical_formula_sum "Si O2"
_cell_formula_units_Z 44
_cell_length_a 12.000000
_cell_length_b 27.000000
_cell_length_c 15.000000
_cell_angle_alpha 90.000000
_cell_angle_beta 90.000000
_cell_angle_gamma 90.000000
_cell_volume 4860.000000
_symmetry_space_group_name_H-M "C M C M"
_symmetry_group_IT_number 63
_symmetry_cell_setting 'orthorhombic'
loop_
_space_group_symop_operation_xyz
x,y,z
-x,-y,1/2+z
x,-y,-z
-x,y,1/2-z
-x,-y,-z
x,y,1/2-z
-x,y,z
x,-y,1/2+z
1/2+x,1/2+y,z
1/2-x,1/2-y,1/2+z
1/2+x,1/2-y,-z
1/2-x,1/2+y,1/2-z
1/2-x,1/2-y,-z
1/2+x,1/2+y,1/2-z
1/2-x,1/2+y,z
1/2+x,1/2-y,1/2+z
loop_
_atom_site_type_symbol
_atom_site_label
_atom_site_fract_x
_atom_site_fract_y
_atom_site_fract_z
Si Si1 0.233460 0.034829 0.250000
Si Si2 0.866583 0.309762 0.570874
Si Si3 0.235787 0.378165 0.075734
Si Si4 0.373230 0.448932 0.555045
Si Si5 0.366002 0.865602 0.750000
Si Si6 0.867001 0.790602 0.350244
Si Si7 0.633746 0.931356 0.250000
O O1 0.164973 0.041207 0.157263
O O2 0.322957 0.078842 0.250000
O O3 0.297579 0.982661 0.250000
O O4 0.834078 0.339080 0.482647
O O5 0.826778 0.338615 0.659840
O O6 0.828610 0.253171 0.584273
O O7 0.000000 0.309457 0.574424
O O8 0.330842 0.344686 0.120272
O O9 0.170005 0.403521 0.157937
O O10 0.289636 0.414995 0.002856
O O11 0.375303 0.500000 0.500000
O O12 0.500000 0.428597 0.555865
O O13 0.500000 0.864152 0.750000
O O14 0.825100 0.780482 0.250000
O O15 0.000000 0.788485 0.347484
O O16 0.500000 0.938305 0.250000
#
# Coordination Sequence:
#
# PCOD9476114 Si02
#       7
#     8  16  16  16   8  16   8
#     4  12  22  44  62  90 122 159 198 251 309 354
#     4  10  20  36  61  89 118 155 198 248 295 356
#     4  12  22  41  60  88 123 164 199 246 313 361
#     4  11  24  41  63  91 119 155 206 253 301 365
#     4  10  19  34  60  89 117 148 197 245 292 354
#     4  10  20  36  60  90 119 153 202 248 292 355
#     4  12  27  42  60  91 125 159 205 254 305 366
#
# _framework density 9.0534979999999994
#
# number of rings (size 3 to 8) (size 9 to 14) (size 15 to 20)
#    0.000    1.091    5.455    2.182    0.000    0.000 
#    0.000    0.909    0.000    0.000    0.000    0.000 
#    0.000    0.000    0.000    0.000    0.000    0.000 
#
# Total GULP energy -245292.865161 kJ/mol
# GULP energy per Si atom -5574.837845 kJ/mol
# Density = 0.903289 g / cm^3
# Si number density = 9.053498 Si / 1000 Ang^3
#
#
#
# Elastic Constant Matrix: (Units=GPa)
#
#
# Indices 1 2 3 4 5 6 
#
# 1 56.2202 25.3726 45.3917 0.0000 0.0000 0.0000
# 2 25.3726 72.7338 30.7531 0.0000 0.0000 0.0000
# 3 45.3917 30.7531 139.2402 0.0000 0.0000 0.0000
# 4 0.0000 0.0000 0.0000 33.7852 0.0000 0.0000
# 5 0.0000 0.0000 0.0000 0.0000 29.1991 0.0000
# 6 0.0000 0.0000 0.0000 0.0000 0.0000 26.4937
#
#
#
# Elastic Compliance Matrix: (Units=1/GPa)
#
#
# Indices 1 2 3 4 5 6 
#
# 1 0.026420 -0.006149 -0.007255 0.000000 0.000000 0.000000
# 2 -0.006149 0.016596 -0.001661 0.000000 0.000000 0.000000
# 3 -0.007255 -0.001661 0.009914 0.000000 0.000000 0.000000
# 4 0.000000 0.000000 0.000000 0.029599 0.000000 0.000000
# 5 0.000000 0.000000 0.000000 0.000000 0.034248 0.000000
# 6 0.000000 0.000000 0.000000 0.000000 0.000000 0.037745
#
#
# Mechanical properties :
#
#
# Convention : Reuss Voigt Hill
#
# Bulk Modulus (GPa) = 43.85891 52.35876 48.10884
# Shear Modulus (GPa) = 26.00789 29.00739 27.50764
#
# Velocity S-wave (km/s) = 3.79403 4.00684 3.90188
# Velocity P-wave (km/s) = 6.59299 7.09827 6.85029
#
# Compressibility (1/GPa) = 0.02280038
#
# Stress axis : x y z
#
# Youngs Moduli (GPa) = 37.85078 60.25538 100.87111
#
# Poissons Ratio (x) = 0.37050 0.73178
# Poissons Ratio (y) = 0.23274 0.16754
# Poissons Ratio (z) = 0.27459 0.10008
#
# Static dielectric constant tensor:
#      x y z
#    x 1.613310 0.000000 0.000000 
#    y 0.000000 1.631540 0.000000 
#    z 0.000000 0.000000 1.621870 
# 
# From -- ./inp_files/30169.got.cif
#   From: 2010.05.17/outbox.ucp.g08.bks.cvg/sg63_16_cif.got.tgz:30169.got - 2010.06.11 16:32:19.
