data_PCOD9476514
_publ_section_title
;
Structure prediction by ZEFSAII (Michael W. Deem and Ramdas Pophale) SiO2 
 PCOD9476514
Probable space group: C M C A
;
_chemical_formula_sum "Si O2"
_cell_formula_units_Z 80
_cell_length_a 15.905844
_cell_length_b 19.435489
_cell_length_c 10.693484
_cell_angle_alpha 90.000000
_cell_angle_beta 90.000000
_cell_angle_gamma 90.000000
_cell_volume 3305.760718
_symmetry_space_group_name_H-M "C M C A"
_symmetry_group_IT_number 64
_symmetry_cell_setting 'orthorhombic'
loop_
_space_group_symop_operation_xyz
x,y,z
-x,1/2-y,1/2+z
x,-y,-z
-x,1/2+y,1/2-z
-x,-y,-z
x,1/2+y,1/2-z
-x,y,z
x,1/2-y,1/2+z
1/2+x,1/2+y,z
1/2-x,-y,1/2+z
1/2+x,1/2-y,-z
1/2-x,y,1/2-z
1/2-x,1/2-y,-z
1/2+x,y,1/2-z
1/2-x,1/2+y,z
1/2+x,-y,1/2+z
loop_
_atom_site_type_symbol
_atom_site_label
_atom_site_fract_x
_atom_site_fract_y
_atom_site_fract_z
Si Si1 0.500000 0.134006 0.084229
Si Si2 0.500000 0.025475 0.306209
Si Si3 0.500000 0.250343 0.785603
Si Si4 0.815532 0.969046 0.862150
Si Si5 0.000000 0.362119 0.489292
Si Si6 0.823980 0.162741 0.978936
Si Si7 0.645331 0.184298 0.919097
O O1 0.500000 0.073725 0.184009
O O2 0.500000 0.205767 0.160782
O O3 0.584457 0.136300 0.002128
O O4 0.595805 0.998970 0.313485
O O5 0.500000 0.068223 0.434720
O O6 0.500000 0.303767 0.902822
O O7 0.585090 0.208052 0.807436
O O8 0.750000 0.978150 0.750000
O O9 0.820761 0.886520 0.896674
O O10 0.795576 0.000000 0.000000
O O11 0.087309 0.357760 0.419705
O O12 0.835234 0.243148 0.011208
O O13 0.737771 0.152907 0.903523
#
# Coordination Sequence:
#
# PCOD9476514 Si02
#       7
#     8   8   8  16   8  16  16
#     4  10  17  30  53  84 118 150 192 243 295 371
#     4   9  18  35  62  88 114 159 210 253 318 393
#     4   8  15  27  41  69 109 141 172 217 277 345
#     4  11  23  41  65  91 122 167 225 280 325 381
#     4   7  13  26  47  73 101 134 184 233 272 349
#     4   9  17  32  53  79 112 150 191 243 311 378
#     4   9  17  29  51  82 113 145 187 240 304 379
#
# _framework density 24.200178999999999
#
# number of rings (size 3 to 8) (size 9 to 14) (size 15 to 20)
#    0.000    2.800    0.000    3.300    0.000    0.000 
#    0.000    9.500    0.000    0.000    0.000    0.000 
#    0.000    0.000    0.000    0.000    0.000    0.000 
#
# Total GULP energy -222984.835638 kJ/mol
# GULP energy per Si atom -5574.620891 kJ/mol
# Density = 2.414510 g / cm^3
# Si number density = 24.200179 Si / 1000 Ang^3
#
#
#
# Elastic Constant Matrix: (Units=GPa)
#
#
# Indices 1 2 3 4 5 6 
#
# 1 260.3388 11.8510 44.6678 0.0000 0.0000 0.0000
# 2 11.8510 53.2076 30.3096 0.0000 0.0000 0.0000
# 3 44.6678 30.3096 89.9159 0.0000 0.0000 0.0000
# 4 0.0000 0.0000 0.0000 29.3894 0.0000 0.0000
# 5 0.0000 0.0000 0.0000 0.0000 -40.1417 0.0000
# 6 0.0000 0.0000 0.0000 0.0000 0.0000 -7.1709
#
#
#
# Elastic Compliance Matrix: (Units=1/GPa)
#
#
# Indices 1 2 3 4 5 6 
#
# 1 0.004203 0.000313 -0.002194 0.000000 0.000000 0.000000
# 2 0.000313 0.023284 -0.008005 0.000000 0.000000 0.000000
# 3 -0.002194 -0.008005 0.014910 0.000000 0.000000 0.000000
# 4 0.000000 0.000000 0.000000 0.034026 0.000000 0.000000
# 5 0.000000 0.000000 0.000000 0.000000 -0.024912 0.000000
# 6 0.000000 0.000000 0.000000 0.000000 0.000000 -0.139453
#
#
# Mechanical properties :
#
#
# Convention : Reuss Voigt Hill
#
# Bulk Modulus (GPa) = 44.19422 64.12435 54.15928
# Shear Modulus (GPa) = -82.46804 17.52429 -32.47188
#
# Velocity S-wave (km/s) = -5.84392 2.69390 -3.66704
# Velocity P-wave (km/s) = 5.21859 6.01923 2.12102
#
# Compressibility (1/GPa) = 0.02262739
#
# Stress axis : x y z
#
# Youngs Moduli (GPa) = 237.90994 42.94743 67.07115
#
# Poissons Ratio (x) = -0.01346 0.14714
# Poissons Ratio (y) = -0.07457 0.53688
# Poissons Ratio (z) = 0.52191 0.34378
#
# Static dielectric constant tensor:
#      x y z
#    x 2.001360 0.000000 0.000000 
#    y 0.000000 1.994610 0.000000 
#    z 0.000000 0.000000 1.889800 
# 
# From -- ./inp_files/14547.got.cif
#   From: 2010.05.17/outbox.cif.g08.bks.cpg/sg64_8_cif.got.tgz:14547.got - 2010.06.03 16:29:19.
