data_PCOD9476673
_publ_section_title
;
Structure prediction by ZEFSAII (Michael W. Deem and Ramdas Pophale) SiO2 
 PCOD9476673
Probable space group: C M C A
;
_chemical_formula_sum "Si O2"
_cell_formula_units_Z 96
_cell_length_a 9.072236
_cell_length_b 20.892633
_cell_length_c 30.700317
_cell_angle_alpha 90.000000
_cell_angle_beta 90.000000
_cell_angle_gamma 90.000000
_cell_volume 5819.027030
_symmetry_space_group_name_H-M "C M C A"
_symmetry_group_IT_number 64
_symmetry_cell_setting 'orthorhombic'
loop_
_space_group_symop_operation_xyz
x,y,z
-x,1/2-y,1/2+z
x,-y,-z
-x,1/2+y,1/2-z
-x,-y,-z
x,1/2+y,1/2-z
-x,y,z
x,1/2-y,1/2+z
1/2+x,1/2+y,z
1/2-x,-y,1/2+z
1/2+x,1/2-y,-z
1/2-x,y,1/2-z
1/2-x,1/2-y,-z
1/2+x,y,1/2-z
1/2-x,1/2+y,z
1/2+x,-y,1/2+z
loop_
_atom_site_type_symbol
_atom_site_label
_atom_site_fract_x
_atom_site_fract_y
_atom_site_fract_z
Si Si1 0.830798 0.108181 0.794054
Si Si2 0.179199 0.435234 0.022822
Si Si3 0.170521 0.235937 0.294201
Si Si4 0.824572 0.264273 0.615762
Si Si5 0.175891 0.111099 0.616352
Si Si6 0.677375 0.693909 0.471542
O O1 0.750000 0.086645 0.750000
O O2 0.828025 0.186135 0.793437
O O3 0.752535 0.089641 0.839081
O O4 0.000000 0.087789 0.793727
O O5 0.228318 0.424122 0.072579
O O6 0.000000 0.437717 0.024563
O O7 0.231824 0.500000 0.000000
O O8 0.216172 0.373329 0.994068
O O9 0.250000 0.214279 0.250000
O O10 0.258706 0.216975 0.337446
O O11 0.000000 0.215938 0.295843
O O12 0.799197 0.187526 0.610311
O O13 0.741672 0.299628 0.576791
O O14 0.000000 0.274634 0.613948
O O15 0.000000 0.102674 0.620867
O O16 0.500000 0.700560 0.471487
O O17 0.750000 0.750000 0.500000
#
# Coordination Sequence:
#
# PCOD9476673 Si02
#       6
#    16  16  16  16  16  16
#     4   9  16  25  39  62  91 123 155 192 236 284
#     4   9  18  33  51  71  96 129 168 205 244 292
#     4   9  16  26  40  63  94 129 160 196 242 293
#     4  10  18  29  45  69  96 127 163 203 245 290
#     4   9  16  28  45  66  92 124 159 196 238 283
#     4  11  20  32  50  73  97 127 164 204 246 292
#
# _framework density 16.497603999999999
#
# number of rings (size 3 to 8) (size 9 to 14) (size 15 to 20)
#    0.000    2.500    1.667    2.000    0.000    4.667 
#    0.000    0.000    0.000    4.500    0.000    1.167 
#    0.000    5.333    0.000    0.000    0.000    0.000 
#
# Total GULP energy -267557.640530 kJ/mol
# GULP energy per Si atom -5574.117511 kJ/mol
# Density = 1.646005 g / cm^3
# Si number density = 16.497604 Si / 1000 Ang^3
#
#
#
# Elastic Constant Matrix: (Units=GPa)
#
#
# Indices 1 2 3 4 5 6 
#
# 1 78.4471 34.4524 75.5816 0.0000 0.0000 0.0000
# 2 34.4524 59.1585 56.7748 0.0000 0.0000 0.0000
# 3 75.5816 56.7748 202.6765 0.0000 0.0000 0.0000
# 4 0.0000 0.0000 0.0000 12.8781 0.0000 0.0000
# 5 0.0000 0.0000 0.0000 0.0000 35.5264 0.0000
# 6 0.0000 0.0000 0.0000 0.0000 0.0000 8.6778
#
#
#
# Elastic Compliance Matrix: (Units=1/GPa)
#
#
# Indices 1 2 3 4 5 6 
#
# 1 0.021652 -0.006648 -0.006212 0.000000 0.000000 0.000000
# 2 -0.006648 0.025160 -0.004569 0.000000 0.000000 0.000000
# 3 -0.006212 -0.004569 0.008531 0.000000 0.000000 0.000000
# 4 0.000000 0.000000 0.000000 0.077651 0.000000 0.000000
# 5 0.000000 0.000000 0.000000 0.000000 0.028148 0.000000
# 6 0.000000 0.000000 0.000000 0.000000 0.000000 0.115237
#
#
# Mechanical properties :
#
#
# Convention : Reuss Voigt Hill
#
# Bulk Modulus (GPa) = 48.81635 74.87774 61.84704
# Shear Modulus (GPa) = 15.72004 22.98134 19.35069
#
# Velocity S-wave (km/s) = 3.09020 3.73636 3.42854
# Velocity P-wave (km/s) = 6.51051 8.00621 7.29678
#
# Compressibility (1/GPa) = 0.02048494
#
# Stress axis : x y z
#
# Youngs Moduli (GPa) = 46.18417 39.74553 117.22601
#
# Poissons Ratio (x) = 0.26422 0.72825
# Poissons Ratio (y) = 0.30702 0.53559
# Poissons Ratio (z) = 0.28691 0.18159
#
# Static dielectric constant tensor:
#      x y z
#    x 1.552840 0.000000 0.000000 
#    y 0.000000 1.531080 0.000000 
#    z 0.000000 0.000000 1.559910 
# 
# From -- ./inp_files/48390.got.cif
#   From: 2010.05.17/outbox.cif.g08.bks.cpg/sg64_25_cif.got.tgz:48390.got - 2010.06.03 16:29:19.
