data_PCOD9476661
_publ_section_title
;
Structure prediction by ZEFSAII (Michael W. Deem and Ramdas Pophale) SiO2 
 PCOD9476661
Probable space group: C M C A
;
_chemical_formula_sum "Si O2"
_cell_formula_units_Z 80
_cell_length_a 17.536457
_cell_length_b 27.011577
_cell_length_c 8.717213
_cell_angle_alpha 90.000000
_cell_angle_beta 90.000000
_cell_angle_gamma 90.000000
_cell_volume 4129.233600
_symmetry_space_group_name_H-M "C M C A"
_symmetry_group_IT_number 64
_symmetry_cell_setting 'orthorhombic'
loop_
_space_group_symop_operation_xyz
x,y,z
-x,1/2-y,1/2+z
x,-y,-z
-x,1/2+y,1/2-z
-x,-y,-z
x,1/2+y,1/2-z
-x,y,z
x,1/2-y,1/2+z
1/2+x,1/2+y,z
1/2-x,-y,1/2+z
1/2+x,1/2-y,-z
1/2-x,y,1/2-z
1/2-x,1/2-y,-z
1/2+x,y,1/2-z
1/2-x,1/2+y,z
1/2+x,-y,1/2+z
loop_
_atom_site_type_symbol
_atom_site_label
_atom_site_fract_x
_atom_site_fract_y
_atom_site_fract_z
Si Si1 0.867361 0.402463 0.349255
Si Si2 0.584666 0.206374 0.663143
Si Si3 0.695272 0.890952 0.019872
Si Si4 0.250000 0.044769 0.250000
Si Si5 0.671852 0.778199 0.036365
Si Si6 0.139791 0.000000 0.000000
O O1 0.909465 0.351068 0.382938
O O2 0.781598 0.394583 0.414940
O O3 0.857917 0.407436 0.163667
O O4 0.900230 0.450283 0.437770
O O5 0.500000 0.215083 0.725156
O O6 0.651702 0.215029 0.785954
O O7 0.604376 0.245006 0.531414
O O8 0.676651 0.834365 0.976882
O O9 0.697971 0.923337 0.866332
O O10 0.305087 0.013329 0.357804
O O11 0.750000 0.750000 0.000000
#
# Coordination Sequence:
#
# PCOD9476661 Si02
#       6
#    16  16  16   8  16   8
#     4   9  18  34  49  74 107 146 185 231 281 326
#     4  11  23  37  54  81 118 152 186 234 287 339
#     4   9  18  30  51  80 109 139 180 232 281 330
#     4  10  18  28  48  80 112 132 176 232 296 324
#     4  11  21  36  59  83 110 150 193 231 277 340
#     4  10  18  30  51  74 108 146 183 230 282 334
#
# _framework density 19.374054999999998
#
# number of rings (size 3 to 8) (size 9 to 14) (size 15 to 20)
#    0.000    2.000    2.000    3.600    2.800    0.000 
#    0.000    0.500    0.000    0.000    0.000   12.600 
#    0.000    0.000    0.000    0.000    0.000    0.000 
#
# Total GULP energy -222965.701796 kJ/mol
# GULP energy per Si atom -5574.142545 kJ/mol
# Density = 1.932996 g / cm^3
# Si number density = 19.374055 Si / 1000 Ang^3
#
#
#
# Elastic Constant Matrix: (Units=GPa)
#
#
# Indices 1 2 3 4 5 6 
#
# 1 54.6664 22.9728 10.0957 0.0000 0.0000 0.0000
# 2 22.9728 137.6345 56.6443 0.0000 0.0000 0.0000
# 3 10.0957 56.6443 78.9012 0.0000 0.0000 0.0000
# 4 0.0000 0.0000 0.0000 39.7731 0.0000 0.0000
# 5 0.0000 0.0000 0.0000 0.0000 13.3300 0.0000
# 6 0.0000 0.0000 0.0000 0.0000 0.0000 2.7879
#
#
#
# Elastic Compliance Matrix: (Units=1/GPa)
#
#
# Indices 1 2 3 4 5 6 
#
# 1 0.019676 -0.003191 -0.000227 0.000000 0.000000 0.000000
# 2 -0.003191 0.010830 -0.007367 0.000000 0.000000 0.000000
# 3 -0.000227 -0.007367 0.017992 0.000000 0.000000 0.000000
# 4 0.000000 0.000000 0.000000 0.025143 0.000000 0.000000
# 5 0.000000 0.000000 0.000000 0.000000 0.075019 0.000000
# 6 0.000000 0.000000 0.000000 0.000000 0.000000 0.358690
#
#
# Mechanical properties :
#
#
# Convention : Reuss Voigt Hill
#
# Bulk Modulus (GPa) = 37.13517 50.06973 43.60245
# Shear Modulus (GPa) = 9.29551 23.27748 16.28649
#
# Velocity S-wave (km/s) = 2.19279 3.46999 2.90251
# Velocity P-wave (km/s) = 5.06164 6.47721 5.81268
#
# Compressibility (1/GPa) = 0.02692865
#
# Stress axis : x y z
#
# Youngs Moduli (GPa) = 50.82454 92.33592 55.58081
#
# Poissons Ratio (x) = 0.29462 0.01261
# Poissons Ratio (y) = 0.16217 0.40945
# Poissons Ratio (z) = 0.01153 0.68022
#
# Static dielectric constant tensor:
#      x y z
#    x 1.645230 0.000000 0.000000 
#    y 0.000000 1.747970 0.000000 
#    z 0.000000 0.000000 1.552300 
# 
# From -- ./inp_files/7179.got.cif
#   From: 2010.05.17/outbox.cif.g08.bks.cpg/sg64_4_cif.got.tgz:7179.got - 2010.06.03 16:29:19.
