data_PCOD9476342
_publ_section_title
;
Structure prediction by ZEFSAII (Michael W. Deem and Ramdas Pophale) SiO2 
 PCOD9476342
Probable space group: C M C A
;
_chemical_formula_sum "Si O2"
_cell_formula_units_Z 88
_cell_length_a 40.001180
_cell_length_b 5.579784
_cell_length_c 19.170611
_cell_angle_alpha 90.000000
_cell_angle_beta 90.000000
_cell_angle_gamma 90.000000
_cell_volume 4278.840963
_symmetry_space_group_name_H-M "C M C A"
_symmetry_group_IT_number 64
_symmetry_cell_setting 'orthorhombic'
loop_
_space_group_symop_operation_xyz
x,y,z
-x,1/2-y,1/2+z
x,-y,-z
-x,1/2+y,1/2-z
-x,-y,-z
x,1/2+y,1/2-z
-x,y,z
x,1/2-y,1/2+z
1/2+x,1/2+y,z
1/2-x,-y,1/2+z
1/2+x,1/2-y,-z
1/2-x,y,1/2-z
1/2-x,1/2-y,-z
1/2+x,y,1/2-z
1/2-x,1/2+y,z
1/2+x,-y,1/2+z
loop_
_atom_site_type_symbol
_atom_site_label
_atom_site_fract_x
_atom_site_fract_y
_atom_site_fract_z
Si Si1 0.881451 0.750001 0.744510
Si Si2 0.736750 0.250000 0.918667
Si Si3 0.932515 0.750001 0.618392
Si Si4 0.661341 0.250000 0.957136
Si Si5 0.000000 0.750022 0.207011
Si Si6 0.410903 0.249999 0.391755
O O1 0.862387 0.500001 0.750000
O O2 0.901065 0.750002 0.671954
O O3 0.909547 0.750002 0.806428
O O4 0.750000 0.500000 0.888177
O O5 0.696774 0.250001 0.918622
O O6 0.750000 0.250000 0.000000
O O7 0.966885 0.749995 0.660088
O O8 0.928093 0.493197 0.582210
O O9 0.928094 0.006807 0.582211
O O10 0.627904 0.249999 0.911896
O O11 0.660622 0.500000 0.000000
O O12 0.660622 0.000000 0.000000
O O13 0.000000 0.500034 0.250006
#
# Coordination Sequence:
#
# PCOD9476342 Si02
#       6
#    16  16  16  16   8  16
#     4   8  14  27  44  61  92 124 145 187 239 283
#     4  10  16  30  48  69  97 130 148 200 269 302
#     4  10  19  33  49  74 105 129 158 208 253 306
#     4  12  21  32  50  74 101 137 171 203 249 310
#     4  12  20  30  54  84 106 136 164 198 272 332
#     4  10  20  32  46  70 103 134 166 202 247 306
#
# _framework density 20.566317999999999
#
# number of rings (size 3 to 8) (size 9 to 14) (size 15 to 20)
#    0.000    1.818    3.636    5.455    0.000    0.000 
#    0.000    0.000    0.000    0.000    0.000   12.727 
#    0.000   39.273    0.000    0.000    0.000    0.000 
#
# Total GULP energy -245204.628676 kJ/mol
# GULP energy per Si atom -5572.832470 kJ/mol
# Density = 2.051951 g / cm^3
# Si number density = 20.566318 Si / 1000 Ang^3
#
#
#
# Elastic Constant Matrix: (Units=GPa)
#
#
# Indices 1 2 3 4 5 6 
#
# 1 128.9228 59.6647 10.1361 0.0000 0.0000 0.0000
# 2 59.6647 274.7867 24.9438 0.0000 0.0000 0.0000
# 3 10.1361 24.9438 34.4971 0.0000 0.0000 0.0000
# 4 0.0000 0.0000 0.0000 -6.0099 0.0000 0.0000
# 5 0.0000 0.0000 0.0000 0.0000 29.6447 0.0000
# 6 0.0000 0.0000 0.0000 0.0000 0.0000 30.7615
#
#
#
# Elastic Compliance Matrix: (Units=1/GPa)
#
#
# Indices 1 2 3 4 5 6 
#
# 1 0.008675 -0.001768 -0.001270 0.000000 0.000000 0.000000
# 2 -0.001768 0.004255 -0.002557 0.000000 0.000000 0.000000
# 3 -0.001270 -0.002557 0.031210 0.000000 0.000000 0.000000
# 4 0.000000 0.000000 0.000000 -0.166391 0.000000 0.000000
# 5 0.000000 0.000000 0.000000 0.000000 0.033733 0.000000
# 6 0.000000 0.000000 0.000000 0.000000 0.000000 0.032508
#
#
# Mechanical properties :
#
#
# Convention : Reuss Voigt Hill
#
# Bulk Modulus (GPa) = 30.35024 69.74397 50.04711
# Shear Modulus (GPa) = -147.77466 33.77672 -56.99897
#
# Velocity S-wave (km/s) = -8.48580 4.05697 -5.27019
# Velocity P-wave (km/s) = 9.01235 7.47868 3.55610
#
# Compressibility (1/GPa) = 0.03294867
#
# Stress axis : x y z
#
# Youngs Moduli (GPa) = 115.27658 235.00285 32.04069
#
# Poissons Ratio (x) = 0.41554 0.04070
# Poissons Ratio (y) = 0.20384 0.08194
# Poissons Ratio (z) = 0.14644 0.60097
#
# Static dielectric constant tensor:
#      x y z
#    x 1.674680 0.000000 0.000000 
#    y 0.000000 2.907860 0.000000 
#    z 0.000000 0.000000 1.762540 
# 
# From -- ./inp_files/47077.got.cif
#   From: 2010.05.17/outbox.cif.g08.bks.cpg/sg64_24_cif.got.tgz:47077.got - 2010.06.03 16:29:19.
