data_PCOD9476984
_publ_section_title
;
Structure prediction by ZEFSAII (Michael W. Deem and Ramdas Pophale) SiO2 
 PCOD9476984
Probable space group: C M C A
;
_chemical_formula_sum "Si O2"
_cell_formula_units_Z 112
_cell_length_a 25.642429
_cell_length_b 14.334607
_cell_length_c 15.649236
_cell_angle_alpha 90.000000
_cell_angle_beta 90.000000
_cell_angle_gamma 90.000000
_cell_volume 5752.254499
_symmetry_space_group_name_H-M "C M C A"
_symmetry_group_IT_number 64
_symmetry_cell_setting 'orthorhombic'
loop_
_space_group_symop_operation_xyz
x,y,z
-x,1/2-y,1/2+z
x,-y,-z
-x,1/2+y,1/2-z
-x,-y,-z
x,1/2+y,1/2-z
-x,y,z
x,1/2-y,1/2+z
1/2+x,1/2+y,z
1/2-x,-y,1/2+z
1/2+x,1/2-y,-z
1/2-x,y,1/2-z
1/2-x,1/2-y,-z
1/2+x,y,1/2-z
1/2-x,1/2+y,z
1/2+x,-y,1/2+z
loop_
_atom_site_type_symbol
_atom_site_label
_atom_site_fract_x
_atom_site_fract_y
_atom_site_fract_z
Si Si1 0.133203 0.067751 0.079319
Si Si2 0.364813 0.167737 0.155927
Si Si3 0.188022 0.006568 0.751766
Si Si4 0.437964 0.803527 0.681220
Si Si5 0.312274 0.751140 0.000139
Si Si6 0.443549 0.037787 0.093898
Si Si7 0.872425 0.868421 0.364747
O O1 0.165500 0.016232 0.154315
O O2 0.081361 0.108843 0.124836
O O3 0.165285 0.157421 0.044092
O O4 0.122806 0.000000 0.000000
O O5 0.329187 0.083001 0.192624
O O6 0.400795 0.198127 0.235098
O O7 0.409484 0.129678 0.092380
O O8 0.331857 0.237257 0.097591
O O9 0.250000 0.011159 0.750000
O O10 0.165114 0.103918 0.714334
O O11 0.500000 0.802700 0.695539
O O12 0.416460 0.711060 0.636103
O O13 0.334624 0.837953 0.057209
O O14 0.250000 0.750000 0.000000
O O15 0.500000 0.050303 0.135335
O O16 0.407498 0.960958 0.136039
O O17 0.449988 0.000000 0.000000
#
# Coordination Sequence:
#
# PCOD9476984 Si02
#       7
#    16  16  16  16  16  16  16
#     4  10  24  42  63  93 129 164 217 263 311 392
#     4  10  21  38  60  88 125 155 210 250 308 377
#     4  10  22  39  62  93 127 166 205 258 316 373
#     4  10  22  42  63  87 125 166 208 264 318 369
#     4  11  23  39  62  94 128 168 208 260 312 372
#     4  10  18  33  58  86 116 144 187 249 305 353
#     4  10  22  37  60  90 123 157 207 252 306 379
#
# _framework density 19.470628000000001
#
# number of rings (size 3 to 8) (size 9 to 14) (size 15 to 20)
#    0.000    1.857    1.429    1.714    4.000    0.286 
#    0.000    2.857    0.000    0.000    0.000    0.000 
#    0.000    0.000    0.000    0.000    0.000    0.000 
#
# Total GULP energy -311737.619315 kJ/mol
# GULP energy per Si atom -5566.743202 kJ/mol
# Density = 1.942631 g / cm^3
# Si number density = 19.470628 Si / 1000 Ang^3
#
#
#
# Elastic Constant Matrix: (Units=GPa)
#
#
# Indices 1 2 3 4 5 6 
#
# 1 169.2409 31.1068 38.3120 0.0000 0.0000 0.0000
# 2 31.1068 33.5058 20.0895 0.0000 0.0000 0.0000
# 3 38.3120 20.0895 98.6451 0.0000 0.0000 0.0000
# 4 0.0000 0.0000 0.0000 37.3074 0.0000 0.0000
# 5 0.0000 0.0000 0.0000 0.0000 17.9851 0.0000
# 6 0.0000 0.0000 0.0000 0.0000 0.0000 20.1526
#
#
#
# Elastic Compliance Matrix: (Units=1/GPa)
#
#
# Indices 1 2 3 4 5 6 
#
# 1 0.007358 -0.005830 -0.001671 0.000000 0.000000 0.000000
# 2 -0.005830 0.038616 -0.005600 0.000000 0.000000 0.000000
# 3 -0.001671 -0.005600 0.011927 0.000000 0.000000 0.000000
# 4 0.000000 0.000000 0.000000 0.026804 0.000000 0.000000
# 5 0.000000 0.000000 0.000000 0.000000 0.055602 0.000000
# 6 0.000000 0.000000 0.000000 0.000000 0.000000 0.049621
#
#
# Mechanical properties :
#
#
# Convention : Reuss Voigt Hill
#
# Bulk Modulus (GPa) = 31.54602 53.37872 42.46237
# Shear Modulus (GPa) = 22.05598 29.21457 25.63528
#
# Velocity S-wave (km/s) = 3.36933 3.87776 3.63245
# Velocity P-wave (km/s) = 5.60121 6.89375 6.28082
#
# Compressibility (1/GPa) = 0.03169972
#
# Stress axis : x y z
#
# Youngs Moduli (GPa) = 135.89768 25.89618 83.84573
#
# Poissons Ratio (x) = 0.15097 0.14007
# Poissons Ratio (y) = 0.79227 0.46954
# Poissons Ratio (z) = 0.22703 0.14502
#
# Static dielectric constant tensor:
#      x y z
#    x 1.746410 0.000000 0.000000 
#    y 0.000000 1.706640 0.000000 
#    z 0.000000 0.000000 1.777830 
# 
# From -- ./inp_files/27440.got.cif
#   From: 2010.05.17/outbox.cif.g08.bks.cpg/sg64_14_cif.got.tgz:27440.got - 2010.06.03 16:29:19.
