data_PCOD9476239
_publ_section_title
;
Structure prediction by ZEFSAII (Michael W. Deem and Ramdas Pophale) SiO2 
 PCOD9476239
Probable space group: C M C M
;
_chemical_formula_sum "Si O2"
_cell_formula_units_Z 48
_cell_length_a 27.000000
_cell_length_b 21.000000
_cell_length_c 9.000000
_cell_angle_alpha 90.000000
_cell_angle_beta 90.000000
_cell_angle_gamma 90.000000
_cell_volume 5103.000000
_symmetry_space_group_name_H-M "C M C M"
_symmetry_group_IT_number 63
_symmetry_cell_setting 'orthorhombic'
loop_
_space_group_symop_operation_xyz
x,y,z
-x,-y,1/2+z
x,-y,-z
-x,y,1/2-z
-x,-y,-z
x,y,1/2-z
-x,y,z
x,-y,1/2+z
1/2+x,1/2+y,z
1/2-x,1/2-y,1/2+z
1/2+x,1/2-y,-z
1/2-x,1/2+y,1/2-z
1/2-x,1/2-y,-z
1/2+x,1/2+y,1/2-z
1/2-x,1/2+y,z
1/2+x,1/2-y,1/2+z
loop_
_atom_site_type_symbol
_atom_site_label
_atom_site_fract_x
_atom_site_fract_y
_atom_site_fract_z
Si Si1 0.279269 0.307818 0.071916
Si Si2 0.440544 0.566546 0.922980
Si Si3 0.775282 0.436986 0.072873
Si Si4 0.055620 0.309491 0.069127
Si Si5 0.609522 0.063769 0.928753
Si Si6 0.385918 0.316719 0.928157
O O1 0.279733 0.301879 0.250000
O O2 0.252293 0.373269 0.030971
O O3 0.250000 0.250000 0.000000
O O4 0.333418 0.311408 0.005350
O O5 0.425842 0.567019 0.750000
O O6 0.500000 0.573962 0.930168
O O7 0.427815 0.500000 0.000000
O O8 0.414795 0.622524 0.012207
O O9 0.773545 0.443730 0.250000
O O10 0.832788 0.431403 0.028832
O O11 0.753600 0.500000 0.000000
O O12 0.054945 0.311405 0.250000
O O13 0.082295 0.373259 0.019110
O O14 0.084157 0.246230 0.028350
O O15 0.000000 0.307202 0.014588
O O16 0.606739 0.059833 0.750000
O O17 0.588488 0.000000 0.000000
O O18 0.381122 0.318855 0.750000
#
# Coordination Sequence:
#
# PCOD9476239 Si02
#       6
#    16  16  16  16  16  16
#     4  11  23  39  58  82 112 146 188 235 284 339
#     4  10  21  38  60  86 116 150 189 234 284 339
#     4   9  19  35  55  78 106 140 178 221 269 327
#     4   9  18  33  54  78 106 143 183 220 263 322
#     4   9  17  32  53  77 105 137 175 217 263 315
#     4  11  22  37  58  83 112 147 188 233 283 338
#
# _framework density 9.4062319999999993
#
# number of rings (size 3 to 8) (size 9 to 14) (size 15 to 20)
#    0.000    2.167    0.000    3.000    0.000    6.667 
#    0.000    6.667    0.000    2.000    0.000    0.000 
#    0.000    0.000    0.000    0.000    0.000    0.000 
#
# Total GULP energy -267874.487921 kJ/mol
# GULP energy per Si atom -5580.718498 kJ/mol
# Density = 0.938482 g / cm^3
# Si number density = 9.406232 Si / 1000 Ang^3
#
#
#
# Elastic Constant Matrix: (Units=GPa)
#
#
# Indices 1 2 3 4 5 6 
#
# 1 75.0951 107.2100 37.4608 0.0000 0.0000 0.0000
# 2 107.2100 223.0257 64.4328 0.0000 0.0000 0.0000
# 3 37.4608 64.4328 32.8797 0.0000 0.0000 0.0000
# 4 0.0000 0.0000 0.0000 29.7210 0.0000 0.0000
# 5 0.0000 0.0000 0.0000 0.0000 25.6654 0.0000
# 6 0.0000 0.0000 0.0000 0.0000 0.0000 -48.3328
#
#
#
# Elastic Compliance Matrix: (Units=1/GPa)
#
#
# Indices 1 2 3 4 5 6 
#
# 1 0.048525 -0.016951 -0.022069 0.000000 0.000000 0.000000
# 2 -0.016951 0.016256 -0.012544 0.000000 0.000000 0.000000
# 3 -0.022069 -0.012544 0.080139 0.000000 0.000000 0.000000
# 4 0.000000 0.000000 0.000000 0.033646 0.000000 0.000000
# 5 0.000000 0.000000 0.000000 0.000000 0.038963 0.000000
# 6 0.000000 0.000000 0.000000 0.000000 0.000000 -0.020690
#
#
# Mechanical properties :
#
#
# Convention : Reuss Voigt Hill
#
# Bulk Modulus (GPa) = 23.92708 83.24532 53.58620
# Shear Modulus (GPa) = 15.92885 9.53717 12.73301
#
# Velocity S-wave (km/s) = 2.91300 2.25402 2.60444
# Velocity P-wave (km/s) = 4.90514 7.14985 6.13110
#
# Compressibility (1/GPa) = 0.04179365
#
# Stress axis : x y z
#
# Youngs Moduli (GPa) = 20.60799 61.51582 12.47837
#
# Poissons Ratio (x) = 1.04273 0.27538
# Poissons Ratio (y) = 0.34932 0.15653
# Poissons Ratio (z) = 0.45479 0.77164
#
# Static dielectric constant tensor:
#      x y z
#    x 1.669620 0.000000 0.000000 
#    y 0.000000 1.624420 0.000000 
#    z 0.000000 0.000000 1.633430 
# 
# From -- ./inp_files/12315.got.cif
#   From: 2010.05.17/outbox.ucp.g08.bks.cvg/sg63_7_cif.got.tgz:12315.got - 2010.06.11 16:32:19.
