data_PCOD9476719
_publ_section_title
;
Structure prediction by ZEFSAII (Michael W. Deem and Ramdas Pophale) SiO2 
 PCOD9476719
Probable space group: C M C A
;
_chemical_formula_sum "Si O2"
_cell_formula_units_Z 112
_cell_length_a 7.541319
_cell_length_b 26.107441
_cell_length_c 29.933683
_cell_angle_alpha 90.000000
_cell_angle_beta 90.000000
_cell_angle_gamma 90.000000
_cell_volume 5893.479434
_symmetry_space_group_name_H-M "C M C A"
_symmetry_group_IT_number 64
_symmetry_cell_setting 'orthorhombic'
loop_
_space_group_symop_operation_xyz
x,y,z
-x,1/2-y,1/2+z
x,-y,-z
-x,1/2+y,1/2-z
-x,-y,-z
x,1/2+y,1/2-z
-x,y,z
x,1/2-y,1/2+z
1/2+x,1/2+y,z
1/2-x,-y,1/2+z
1/2+x,1/2-y,-z
1/2-x,y,1/2-z
1/2-x,1/2-y,-z
1/2+x,y,1/2-z
1/2-x,1/2+y,z
1/2+x,-y,1/2+z
loop_
_atom_site_type_symbol
_atom_site_label
_atom_site_fract_x
_atom_site_fract_y
_atom_site_fract_z
Si Si1 0.712306 0.895633 0.299661
Si Si2 0.787860 0.278282 0.299587
Si Si3 0.208156 0.357213 0.949541
Si Si4 0.214408 0.662086 0.551440
Si Si5 0.708804 0.028882 0.043554
Si Si6 0.782541 0.262339 0.893051
Si Si7 0.785421 0.562099 0.607212
O O1 0.500000 0.892759 0.303887
O O2 0.750000 0.915649 0.250000
O O3 0.780810 0.836965 0.302230
O O4 0.776034 0.927644 0.342181
O O5 0.750000 0.258236 0.250000
O O6 0.724739 0.246144 0.341997
O O7 0.000000 0.281437 0.303720
O O8 0.224256 0.338186 0.000484
O O9 0.284928 0.414639 0.948174
O O10 0.281922 0.314093 0.916499
O O11 0.000000 0.361283 0.938271
O O12 0.271218 0.712444 0.578388
O O13 0.272771 0.610306 0.576710
O O14 0.000000 0.661673 0.551352
O O15 0.500000 0.036746 0.034032
O O16 0.726255 0.990510 0.084860
O O17 0.785223 0.000000 0.000000
O O18 0.000000 0.262849 0.893805
O O19 0.000000 0.562013 0.606842
#
# Coordination Sequence:
#
# PCOD9476719 Si02
#       7
#    16  16  16  16  16  16  16
#     4   9  17  30  48  72  98 122 151 190 237 288
#     4   9  16  29  48  70  95 121 150 188 233 284
#     4  10  20  33  48  67  94 131 167 195 230 278
#     4  10  18  30  48  71  97 125 155 192 236 281
#     4  10  20  33  47  67  96 127 163 204 235 270
#     4   9  17  31  50  69  95 128 157 188 235 291
#     4  10  19  31  50  72  96 126 158 192 237 286
#
# _framework density 19.004052999999999
#
# number of rings (size 3 to 8) (size 9 to 14) (size 15 to 20)
#    0.000    2.429    2.857    0.429    0.000    1.429 
#    0.000    1.429    0.000    0.857    0.000    4.000 
#    0.000    0.000    0.000    0.000    0.000    0.000 
#
# Total GULP energy -312482.810737 kJ/mol
# GULP energy per Si atom -5580.050192 kJ/mol
# Density = 1.896080 g / cm^3
# Si number density = 19.004053 Si / 1000 Ang^3
#
#
#
# Elastic Constant Matrix: (Units=GPa)
#
#
# Indices 1 2 3 4 5 6 
#
# 1 41.3813 1.9931 -13.2250 0.0000 0.0000 0.0000
# 2 1.9931 139.4513 88.7633 0.0000 0.0000 0.0000
# 3 -13.2250 88.7633 166.8299 0.0000 0.0000 0.0000
# 4 0.0000 0.0000 0.0000 24.5073 0.0000 0.0000
# 5 0.0000 0.0000 0.0000 0.0000 21.1691 0.0000
# 6 0.0000 0.0000 0.0000 0.0000 0.0000 0.0978
#
#
#
# Elastic Compliance Matrix: (Units=1/GPa)
#
#
# Indices 1 2 3 4 5 6 
#
# 1 0.025349 -0.002482 0.003330 0.000000 0.000000 0.000000
# 2 -0.002482 0.011086 -0.006095 0.000000 0.000000 0.000000
# 3 0.003330 -0.006095 0.009501 0.000000 0.000000 0.000000
# 4 0.000000 0.000000 0.000000 0.040804 0.000000 0.000000
# 5 0.000000 0.000000 0.000000 0.000000 0.047239 0.000000
# 6 0.000000 0.000000 0.000000 0.000000 0.000000 10.220310
#
#
# Mechanical properties :
#
#
# Convention : Reuss Voigt Hill
#
# Bulk Modulus (GPa) = 28.21490 55.85837 42.03664
# Shear Modulus (GPa) = 0.48185 27.16359 13.82272
#
# Velocity S-wave (km/s) = 0.50409 3.78479 2.69988
# Velocity P-wave (km/s) = 3.90100 6.96823 5.64686
#
# Compressibility (1/GPa) = 0.03544226
#
# Stress axis : x y z
#
# Youngs Moduli (GPa) = 39.44890 90.20251 105.25061
#
# Poissons Ratio (x) = 0.22388 -0.35049
# Poissons Ratio (y) = 0.09791 0.64153
# Poissons Ratio (z) = -0.13137 0.54981
#
# Static dielectric constant tensor:
#      x y z
#    x 1.697230 0.000000 0.000000 
#    y 0.000000 1.649190 0.000000 
#    z 0.000000 0.000000 1.655780 
# 
# From -- ./inp_files/38488.got.cif
#   From: 2010.05.17/outbox.cif.g08.bks.cpg/sg64_20_cif.got.tgz:38488.got - 2010.06.03 16:29:19.
