data_PCOD9476790
_publ_section_title
;
Structure prediction by ZEFSAII (Michael W. Deem and Ramdas Pophale) SiO2 
 PCOD9476790
Probable space group: C M C A
;
_chemical_formula_sum "Si O2"
_cell_formula_units_Z 128
_cell_length_a 19.750114
_cell_length_b 20.347141
_cell_length_c 20.086249
_cell_angle_alpha 90.000000
_cell_angle_beta 90.000000
_cell_angle_gamma 90.000000
_cell_volume 8071.826968
_symmetry_space_group_name_H-M "C M C A"
_symmetry_group_IT_number 64
_symmetry_cell_setting 'orthorhombic'
loop_
_space_group_symop_operation_xyz
x,y,z
-x,1/2-y,1/2+z
x,-y,-z
-x,1/2+y,1/2-z
-x,-y,-z
x,1/2+y,1/2-z
-x,y,z
x,1/2-y,1/2+z
1/2+x,1/2+y,z
1/2-x,-y,1/2+z
1/2+x,1/2-y,-z
1/2-x,y,1/2-z
1/2-x,1/2-y,-z
1/2+x,y,1/2-z
1/2-x,1/2+y,z
1/2+x,-y,1/2+z
loop_
_atom_site_type_symbol
_atom_site_label
_atom_site_fract_x
_atom_site_fract_y
_atom_site_fract_z
Si Si1 0.078145 0.034481 0.686724
Si Si2 0.361610 0.915341 0.747150
Si Si3 0.421562 0.213237 0.193709
Si Si4 0.244604 0.913952 0.859964
Si Si5 0.313015 0.529199 0.572084
Si Si6 0.189208 0.814664 0.428707
Si Si7 0.579326 0.812180 0.186326
Si Si8 0.308771 0.786165 0.920466
O O1 0.123505 0.021231 0.621730
O O2 0.086409 0.110881 0.704435
O O3 0.000000 0.022051 0.671642
O O4 0.102857 0.985284 0.743745
O O5 0.409980 0.856609 0.769911
O O6 0.300518 0.914348 0.801001
O O7 0.327379 0.905884 0.675611
O O8 0.500000 0.220136 0.173780
O O9 0.405209 0.267645 0.249733
O O10 0.370411 0.217327 0.131590
O O11 0.265571 0.852198 0.904878
O O12 0.254114 0.982701 0.898187
O O13 0.329521 0.500000 0.500000
O O14 0.298120 0.606771 0.570047
O O15 0.131031 0.800086 0.374325
O O16 0.257505 0.774748 0.412177
O O17 0.168266 0.791948 0.502938
O O18 0.500000 0.801145 0.167940
#
# Coordination Sequence:
#
# PCOD9476790 Si02
#       8
#    16  16  16  16  16  16  16  16
#     4   9  18  31  47  70  99 129 163 202 245 299
#     4   9  17  29  47  71  96 126 163 202 247 293
#     4  10  20  34  52  74 100 130 169 214 258 305
#     4   9  17  30  47  68  98 129 160 203 245 291
#     4  10  18  31  48  70 100 131 162 200 247 299
#     4  10  20  33  50  73 102 133 169 207 253 308
#     4   9  19  34  50  70 100 135 169 208 253 302
#     4  10  20  33  50  74 101 131 169 211 255 302
#
# _framework density 15.857625000000001
#
# number of rings (size 3 to 8) (size 9 to 14) (size 15 to 20)
#    0.000    2.500    1.250    1.125    0.000    3.250 
#    0.000    2.500    0.000    0.000    0.000    0.000 
#    0.000    1.500    0.000    0.000    0.000    0.000 
#
# Total GULP energy -356508.945537 kJ/mol
# GULP energy per Si atom -5570.452274 kJ/mol
# Density = 1.582153 g / cm^3
# Si number density = 15.857625 Si / 1000 Ang^3
#
#
#
# Elastic Constant Matrix: (Units=GPa)
#
#
# Indices 1 2 3 4 5 6 
#
# 1 78.0371 49.7581 57.1137 0.0000 0.0000 0.0000
# 2 49.7581 77.3173 41.6973 0.0000 0.0000 0.0000
# 3 57.1137 41.6973 85.7984 0.0000 0.0000 0.0000
# 4 0.0000 0.0000 0.0000 22.1345 0.0000 0.0000
# 5 0.0000 0.0000 0.0000 0.0000 21.3692 0.0000
# 6 0.0000 0.0000 0.0000 0.0000 0.0000 23.4316
#
#
#
# Elastic Compliance Matrix: (Units=1/GPa)
#
#
# Indices 1 2 3 4 5 6 
#
# 1 0.031712 -0.012229 -0.015167 0.000000 0.000000 0.000000
# 2 -0.012229 0.022244 -0.002670 0.000000 0.000000 0.000000
# 3 -0.015167 -0.002670 0.023049 0.000000 0.000000 0.000000
# 4 0.000000 0.000000 0.000000 0.045178 0.000000 0.000000
# 5 0.000000 0.000000 0.000000 0.000000 0.046796 0.000000
# 6 0.000000 0.000000 0.000000 0.000000 0.000000 0.042677
#
#
# Mechanical properties :
#
#
# Convention : Reuss Voigt Hill
#
# Bulk Modulus (GPa) = 59.26416 59.81010 59.53713
# Shear Modulus (GPa) = 18.02376 19.55932 18.79154
#
# Velocity S-wave (km/s) = 3.37501 3.51584 3.44614
# Velocity P-wave (km/s) = 7.25544 7.36752 7.31169
#
# Compressibility (1/GPa) = 0.01687360
#
# Stress axis : x y z
#
# Youngs Moduli (GPa) = 31.53368 44.95672 43.38659
#
# Poissons Ratio (x) = 0.54979 0.65803
# Poissons Ratio (y) = 0.38563 0.11582
# Poissons Ratio (z) = 0.47826 0.12001
#
# Static dielectric constant tensor:
#      x y z
#    x 1.517150 0.000000 0.000000 
#    y 0.000000 1.540310 0.000000 
#    z 0.000000 0.000000 1.518220 
# 
# From -- ./inp_files/34642.got.cif
#   From: 2010.05.17/outbox.cif.g08.bks.cpg/sg64_18_cif.got.tgz:34642.got - 2010.06.03 16:29:19.
