data_PCOD9476174
_publ_section_title
;
Structure prediction by ZEFSAII (Michael W. Deem and Ramdas Pophale) SiO2 
 PCOD9476174
Probable space group: C M C M
;
_chemical_formula_sum "Si O2"
_cell_formula_units_Z 48
_cell_length_a 9.000000
_cell_length_b 27.000000
_cell_length_c 21.000000
_cell_angle_alpha 90.000000
_cell_angle_beta 90.000000
_cell_angle_gamma 90.000000
_cell_volume 5103.000000
_symmetry_space_group_name_H-M "C M C M"
_symmetry_group_IT_number 63
_symmetry_cell_setting 'orthorhombic'
loop_
_space_group_symop_operation_xyz
x,y,z
-x,-y,1/2+z
x,-y,-z
-x,y,1/2-z
-x,-y,-z
x,y,1/2-z
-x,y,z
x,-y,1/2+z
1/2+x,1/2+y,z
1/2-x,1/2-y,1/2+z
1/2+x,1/2-y,-z
1/2-x,1/2+y,1/2-z
1/2-x,1/2-y,-z
1/2+x,1/2+y,1/2-z
1/2-x,1/2+y,z
1/2+x,1/2-y,1/2+z
loop_
_atom_site_type_symbol
_atom_site_label
_atom_site_fract_x
_atom_site_fract_y
_atom_site_fract_z
Si Si1 0.174300 0.225424 0.938359
Si Si2 0.669293 0.138561 0.990019
Si Si3 0.827652 0.879822 0.623191
Si Si4 0.671132 0.274203 0.821955
Si Si5 0.671429 0.028145 0.558324
Si Si6 0.820666 0.476577 0.679264
O O1 0.245276 0.171547 0.939547
O O2 0.220660 0.252307 0.874228
O O3 0.000000 0.224258 0.947233
O O4 0.250000 0.250000 0.000000
O O5 0.500000 0.155951 0.000858
O O6 0.665219 0.084125 0.961837
O O7 0.757044 0.137219 0.056397
O O8 0.822733 0.833339 0.670403
O O9 0.733846 0.924677 0.651095
O O10 0.000000 0.893773 0.613847
O O11 0.705639 0.259559 0.750000
O O12 0.500000 0.259636 0.836751
O O13 0.500000 0.009029 0.561410
O O14 0.748671 0.000000 0.500000
O O15 0.731798 0.016778 0.627743
O O16 0.761385 0.484252 0.750000
O O17 0.000000 0.476659 0.683451
#
# Coordination Sequence:
#
# PCOD9476174 Si02
#       6
#    16  16  16  16  16  16
#     4  12  24  39  60  86 118 154 195 239 287 343
#     4  11  21  36  60  86 114 149 193 242 288 336
#     4  11  21  34  56  86 120 151 183 233 293 347
#     4  10  22  40  60  84 117 155 193 236 290 349
#     4   9  17  33  56  81 111 145 186 234 280 329
#     4  10  20  35  56  82 112 149 192 234 279 337
#
# _framework density 9.4062319999999993
#
# number of rings (size 3 to 8) (size 9 to 14) (size 15 to 20)
#    0.000    1.500    3.333    3.000    0.000    2.000 
#    0.000    3.333    0.000    3.000    0.000    0.000 
#    0.000    0.000    0.000    0.000    0.000    0.000 
#
# Total GULP energy -267587.544517 kJ/mol
# GULP energy per Si atom -5574.740511 kJ/mol
# Density = 0.938482 g / cm^3
# Si number density = 9.406232 Si / 1000 Ang^3
#
#
#
# Elastic Constant Matrix: (Units=GPa)
#
#
# Indices 1 2 3 4 5 6 
#
# 1 51.5269 11.4969 13.1806 0.0000 0.0000 0.0000
# 2 11.4969 40.4473 18.6511 0.0000 0.0000 0.0000
# 3 13.1806 18.6511 44.5295 0.0000 0.0000 0.0000
# 4 0.0000 0.0000 0.0000 -3.2304 0.0000 0.0000
# 5 0.0000 0.0000 0.0000 0.0000 16.6304 0.0000
# 6 0.0000 0.0000 0.0000 0.0000 0.0000 -18.0492
#
#
#
# Elastic Compliance Matrix: (Units=1/GPa)
#
#
# Indices 1 2 3 4 5 6 
#
# 1 0.021491 -0.003935 -0.004713 0.000000 0.000000 0.000000
# 2 -0.003935 0.031362 -0.011971 0.000000 0.000000 0.000000
# 3 -0.004713 -0.011971 0.028866 0.000000 0.000000 0.000000
# 4 0.000000 0.000000 0.000000 -0.309556 0.000000 0.000000
# 5 0.000000 0.000000 0.000000 0.000000 0.060131 0.000000
# 6 0.000000 0.000000 0.000000 0.000000 0.000000 -0.055404
#
#
# Mechanical properties :
#
#
# Convention : Reuss Voigt Hill
#
# Bulk Modulus (GPa) = 24.70331 24.79563 24.74947
# Shear Modulus (GPa) = -29.69522 5.28184 -12.20669
#
# Velocity S-wave (km/s) = -3.97733 1.67741 -2.55004
# Velocity P-wave (km/s) = 2.81644 4.11833 2.12466
#
# Compressibility (1/GPa) = 0.04048041
#
# Stress axis : x y z
#
# Youngs Moduli (GPa) = 46.53111 31.88539 34.64269
#
# Poissons Ratio (x) = 0.12548 0.16327
# Poissons Ratio (y) = 0.18312 0.41471
# Poissons Ratio (z) = 0.21930 0.38171
#
# Static dielectric constant tensor:
#      x y z
#    x 1.662020 0.000000 0.000000 
#    y 0.000000 1.748590 0.000000 
#    z 0.000000 0.000000 1.630370 
# 
# From -- ./inp_files/51275.got.cif
#   From: 2010.05.17/outbox.ucp.g08.bks.cvg/sg63_26_cif.got.tgz:51275.got - 2010.06.11 16:32:19.
