data_PCOD9476000
_publ_section_title
;
Structure prediction by ZEFSAII (Michael W. Deem and Ramdas Pophale) SiO2 
 PCOD9476000
Probable space group: C M C M
;
_chemical_formula_sum "Si O2"
_cell_formula_units_Z 80
_cell_length_a 7.568544
_cell_length_b 27.183770
_cell_length_c 19.855430
_cell_angle_alpha 90.000000
_cell_angle_beta 90.000000
_cell_angle_gamma 90.000000
_cell_volume 4085.087129
_symmetry_space_group_name_H-M "C M C M"
_symmetry_group_IT_number 63
_symmetry_cell_setting 'orthorhombic'
loop_
_space_group_symop_operation_xyz
x,y,z
-x,-y,1/2+z
x,-y,-z
-x,y,1/2-z
-x,-y,-z
x,y,1/2-z
-x,y,z
x,-y,1/2+z
1/2+x,1/2+y,z
1/2-x,1/2-y,1/2+z
1/2+x,1/2-y,-z
1/2-x,1/2+y,1/2-z
1/2-x,1/2-y,-z
1/2+x,1/2+y,1/2-z
1/2-x,1/2+y,z
1/2+x,1/2-y,1/2+z
loop_
_atom_site_type_symbol
_atom_site_label
_atom_site_fract_x
_atom_site_fract_y
_atom_site_fract_z
Si Si1 0.210719 0.194937 0.079746
Si Si2 0.784021 0.893919 0.828649
Si Si3 0.786488 0.694620 0.923448
Si Si4 0.789876 0.608799 0.673223
Si Si5 0.212255 0.001354 0.827968
O O1 0.280477 0.151465 0.126847
O O2 0.278836 0.250217 0.093259
O O3 0.000000 0.196712 0.090630
O O4 0.241439 0.184316 0.001089
O O5 0.734181 0.889193 0.750000
O O6 0.000000 0.893523 0.830089
O O7 0.728171 0.948170 0.854638
O O8 0.719834 0.652295 0.873717
O O9 0.000000 0.695579 0.919204
O O10 0.718047 0.610070 0.750000
O O11 0.763539 0.554170 0.642976
O O12 0.000000 0.615871 0.678200
O O13 0.273427 0.002652 0.750000
O O14 0.000000 0.000406 0.827723
#
# Coordination Sequence:
#
# PCOD9476000 Si02
#       5
#    16  16  16  16  16
#     4   9  17  30  48  66  85 114 147 176 213 260
#     4   8  14  26  46  70  90 108 139 183 220 250
#     4   9  18  31  45  63  89 117 143 176 217 256
#     4   9  17  29  45  65  88 114 145 178 211 252
#     4   8  14  26  44  65  88 112 138 173 217 257
#
# _framework density 19.583425999999999
#
# number of rings (size 3 to 8) (size 9 to 14) (size 15 to 20)
#    0.000    3.400    0.000    1.200    0.000    1.600 
#    0.000    6.000    0.000    7.800    0.000    5.600 
#    0.000    0.000    0.000    0.000    0.000    0.000 
#
# Total GULP energy -222748.068298 kJ/mol
# GULP energy per Si atom -5568.701707 kJ/mol
# Density = 1.953885 g / cm^3
# Si number density = 19.583426 Si / 1000 Ang^3
#
#
#
# Elastic Constant Matrix: (Units=GPa)
#
#
# Indices 1 2 3 4 5 6 
#
# 1 41.0885 4.8296 -1.1955 0.0000 0.0000 0.0000
# 2 4.8296 230.1254 110.5742 0.0000 0.0000 0.0000
# 3 -1.1955 110.5742 70.8133 0.0000 0.0000 0.0000
# 4 0.0000 0.0000 0.0000 -116.1227 0.0000 0.0000
# 5 0.0000 0.0000 0.0000 0.0000 14.7877 0.0000
# 6 0.0000 0.0000 0.0000 0.0000 0.0000 15.9695
#
#
#
# Elastic Compliance Matrix: (Units=1/GPa)
#
#
# Indices 1 2 3 4 5 6 
#
# 1 0.024821 -0.002892 0.004936 0.000000 0.000000 0.000000
# 2 -0.002892 0.017739 -0.027748 0.000000 0.000000 0.000000
# 3 0.004936 -0.027748 0.057533 0.000000 0.000000 0.000000
# 4 0.000000 0.000000 0.000000 -0.008612 0.000000 0.000000
# 5 0.000000 0.000000 0.000000 0.000000 0.067624 0.000000
# 6 0.000000 0.000000 0.000000 0.000000 0.000000 0.062619
#
#
# Mechanical properties :
#
#
# Convention : Reuss Voigt Hill
#
# Bulk Modulus (GPa) = 20.54077 63.38265 41.96171
# Shear Modulus (GPa) = 17.27935 -1.88518 7.69709
#
# Velocity S-wave (km/s) = 2.97365 -0.98221 1.98468
# Velocity P-wave (km/s) = 4.72248 5.58117 5.16968
#
# Compressibility (1/GPa) = 0.04868367
#
# Stress axis : x y z
#
# Youngs Moduli (GPa) = 40.28799 56.37303 17.38125
#
# Poissons Ratio (x) = 0.16306 -0.08579
# Poissons Ratio (y) = 0.11653 0.48230
# Poissons Ratio (z) = -0.19884 1.56424
#
# Static dielectric constant tensor:
#      x y z
#    x 1.755970 0.000000 0.000000 
#    y 0.000000 1.731160 0.000000 
#    z 0.000000 0.000000 1.645940 
# 
# From -- ./inp_files/40704.got.cif
#   From: 2010.05.17/outbox.cif.g08.bks.cpg/sg63_21_cif.got.tgz:40704.got - 2010.06.03 15:47:04.
