data_PCOD9476292
_publ_section_title
;
Structure prediction by ZEFSAII (Michael W. Deem and Ramdas Pophale) SiO2 
 PCOD9476292
Probable space group: C M C A
;
_chemical_formula_sum "Si O2"
_cell_formula_units_Z 68
_cell_length_a 19.052245
_cell_length_b 13.665381
_cell_length_c 9.291045
_cell_angle_alpha 90.000000
_cell_angle_beta 90.000000
_cell_angle_gamma 90.000000
_cell_volume 2418.981048
_symmetry_space_group_name_H-M "C M C A"
_symmetry_group_IT_number 64
_symmetry_cell_setting 'orthorhombic'
loop_
_space_group_symop_operation_xyz
x,y,z
-x,1/2-y,1/2+z
x,-y,-z
-x,1/2+y,1/2-z
-x,-y,-z
x,1/2+y,1/2-z
-x,y,z
x,1/2-y,1/2+z
1/2+x,1/2+y,z
1/2-x,-y,1/2+z
1/2+x,1/2-y,-z
1/2-x,y,1/2-z
1/2-x,1/2-y,-z
1/2+x,y,1/2-z
1/2-x,1/2+y,z
1/2+x,-y,1/2+z
loop_
_atom_site_type_symbol
_atom_site_label
_atom_site_fract_x
_atom_site_fract_y
_atom_site_fract_z
Si Si1 0.000000 0.500000 0.000000
Si Si2 0.613850 0.108829 0.786573
Si Si3 0.000000 0.135241 0.153965
Si Si4 0.653808 0.915326 0.664293
Si Si5 0.205358 0.616284 0.029687
Si Si6 0.000000 0.767298 0.117107
O O1 0.938802 0.547041 0.889682
O O2 0.566979 0.176952 0.683897
O O3 0.660841 0.031134 0.697422
O O4 0.665902 0.164373 0.895828
O O5 0.073286 0.088581 0.116581
O O6 0.000000 0.156973 0.323905
O O7 0.000000 0.231384 0.053966
O O8 0.712636 0.870963 0.561868
O O9 0.665831 0.865027 0.819740
O O10 0.200284 0.500000 0.000000
#
# Coordination Sequence:
#
# PCOD9476292 Si02
#       6
#     4  16   8  16  16   8
#     4  10  14  30  56  92 118 162 210 244 324 364
#     4  10  20  38  66  98 130 169 215 272 326 396
#     4  12  28  45  65  92 130 181 218 283 313 394
#     4  10  21  38  68  99 131 161 219 268 332 382
#     4   9  19  36  65 100 130 166 202 268 330 397
#     4  11  29  43  64  92 134 177 231 264 327 382
#
# _framework density 28.11101
#
# number of rings (size 3 to 8) (size 9 to 14) (size 15 to 20)
#    0.000    1.882    3.529    1.412    6.588    0.941 
#    0.000    1.176    0.000    0.000    0.000    0.000 
#    0.000    0.000    0.000    0.000    0.000    0.000 
#
# Total GULP energy -190026.738564 kJ/mol
# GULP energy per Si atom -5589.021722 kJ/mol
# Density = 2.804703 g / cm^3
# Si number density = 28.111010 Si / 1000 Ang^3
#
#
#
# Elastic Constant Matrix: (Units=GPa)
#
#
# Indices 1 2 3 4 5 6 
#
# 1 233.2685 23.5223 47.8068 0.0000 0.0000 0.0000
# 2 23.5223 64.9407 4.8759 0.0000 0.0000 0.0000
# 3 47.8068 4.8759 107.2267 0.0000 0.0000 0.0000
# 4 0.0000 0.0000 0.0000 30.4150 0.0000 0.0000
# 5 0.0000 0.0000 0.0000 0.0000 23.1221 0.0000
# 6 0.0000 0.0000 0.0000 0.0000 0.0000 8.7495
#
#
#
# Elastic Compliance Matrix: (Units=1/GPa)
#
#
# Indices 1 2 3 4 5 6 
#
# 1 0.004880 -0.001610 -0.002103 0.000000 0.000000 0.000000
# 2 -0.001610 0.015982 -0.000009 0.000000 0.000000 0.000000
# 3 -0.002103 -0.000009 0.010264 0.000000 0.000000 0.000000
# 4 0.000000 0.000000 0.000000 0.032879 0.000000 0.000000
# 5 0.000000 0.000000 0.000000 0.000000 0.043249 0.000000
# 6 0.000000 0.000000 0.000000 0.000000 0.000000 0.114293
#
#
# Mechanical properties :
#
#
# Convention : Reuss Voigt Hill
#
# Bulk Modulus (GPa) = 42.22331 61.98288 52.10310
# Shear Modulus (GPa) = 21.10742 34.40605 27.75673
#
# Velocity S-wave (km/s) = 2.74315 3.50227 3.14570
# Velocity P-wave (km/s) = 5.00859 6.20095 5.63639
#
# Compressibility (1/GPa) = 0.02368360
#
# Stress axis : x y z
#
# Youngs Moduli (GPa) = 204.91187 62.56875 97.42895
#
# Poissons Ratio (x) = 0.10072 0.20485
# Poissons Ratio (y) = 0.32986 0.00088
# Poissons Ratio (z) = 0.43085 0.00057
#
# Static dielectric constant tensor:
#      x y z
#    x 2.205910 0.000000 0.000000 
#    y 0.000000 2.414220 0.000000 
#    z 0.000000 0.000000 2.229850 
# 
# From -- ./inp_files/6761.got.cif
#   From: 2010.05.17/outbox.cif.g08.bks.cpg/sg64_4_cif.got.tgz:6761.got - 2010.06.03 16:29:19.
