data_PCOD9476758
_publ_section_title
;
Structure prediction by ZEFSAII (Michael W. Deem and Ramdas Pophale) SiO2 
 PCOD9476758
Probable space group: C M C A
;
_chemical_formula_sum "Si O2"
_cell_formula_units_Z 96
_cell_length_a 26.829398
_cell_length_b 11.413509
_cell_length_c 13.629028
_cell_angle_alpha 90.000000
_cell_angle_beta 90.000000
_cell_angle_gamma 90.000000
_cell_volume 4173.447911
_symmetry_space_group_name_H-M "C M C A"
_symmetry_group_IT_number 64
_symmetry_cell_setting 'orthorhombic'
loop_
_space_group_symop_operation_xyz
x,y,z
-x,1/2-y,1/2+z
x,-y,-z
-x,1/2+y,1/2-z
-x,-y,-z
x,1/2+y,1/2-z
-x,y,z
x,1/2-y,1/2+z
1/2+x,1/2+y,z
1/2-x,-y,1/2+z
1/2+x,1/2-y,-z
1/2-x,y,1/2-z
1/2-x,1/2-y,-z
1/2+x,y,1/2-z
1/2-x,1/2+y,z
1/2+x,-y,1/2+z
loop_
_atom_site_type_symbol
_atom_site_label
_atom_site_fract_x
_atom_site_fract_y
_atom_site_fract_z
Si Si1 0.443453 0.557065 0.376122
Si Si2 0.804799 0.552888 0.709503
Si Si3 0.881300 0.226582 0.841683
Si Si4 0.944161 0.993822 0.855554
Si Si5 0.643785 0.664127 0.129172
Si Si6 0.143953 0.586174 0.917696
O O1 0.500000 0.575016 0.410442
O O2 0.404965 0.662975 0.397311
O O3 0.446305 0.546155 0.258179
O O4 0.415580 0.439364 0.411444
O O5 0.750000 0.574994 0.750000
O O6 0.829142 0.656498 0.644114
O O7 0.813591 0.430800 0.652770
O O8 0.836910 0.545973 0.810166
O O9 0.872925 0.276659 0.731938
O O10 0.922185 0.124335 0.850928
O O11 0.903945 0.909373 0.907561
O O12 0.000000 0.987461 0.893830
O O13 0.657469 0.778293 0.067495
O O14 0.165510 0.500000 0.000000
#
# Coordination Sequence:
#
# PCOD9476758 Si02
#       6
#    16  16  16  16  16  16
#     4  10  18  30  51  80 117 158 186 227 292 354
#     4  10  20  37  63  83 108 153 200 246 302 352
#     4   9  15  31  50  81 109 137 196 239 277 330
#     4   9  15  25  49  79 106 141 195 242 269 319
#     4   9  17  33  51  79 111 147 191 233 283 350
#     4  11  22  38  56  87 126 149 190 252 301 350
#
# _framework density 23.002565000000001
#
# number of rings (size 3 to 8) (size 9 to 14) (size 15 to 20)
#    0.000    2.333    6.667    0.500    0.000    4.333 
#    0.000    0.833    0.000    3.000    0.000    5.833 
#    0.000    0.000    0.000    0.000    0.000    0.000 
#
# Total GULP energy -267691.292758 kJ/mol
# GULP energy per Si atom -5576.901932 kJ/mol
# Density = 2.295021 g / cm^3
# Si number density = 23.002565 Si / 1000 Ang^3
#
#
#
# Elastic Constant Matrix: (Units=GPa)
#
#
# Indices 1 2 3 4 5 6 
#
# 1 124.9553 48.3634 2.4127 0.0000 0.0000 0.0000
# 2 48.3634 171.1860 28.1910 0.0000 0.0000 0.0000
# 3 2.4127 28.1910 69.2269 0.0000 0.0000 0.0000
# 4 0.0000 0.0000 0.0000 37.3977 0.0000 0.0000
# 5 0.0000 0.0000 0.0000 0.0000 3.9923 0.0000
# 6 0.0000 0.0000 0.0000 0.0000 0.0000 8.2214
#
#
#
# Elastic Compliance Matrix: (Units=1/GPa)
#
#
# Indices 1 2 3 4 5 6 
#
# 1 0.009024 -0.002677 0.000776 0.000000 0.000000 0.000000
# 2 -0.002677 0.007056 -0.002780 0.000000 0.000000 0.000000
# 3 0.000776 -0.002780 0.015550 0.000000 0.000000 0.000000
# 4 0.000000 0.000000 0.000000 0.026740 0.000000 0.000000
# 5 0.000000 0.000000 0.000000 0.000000 0.250483 0.000000
# 6 0.000000 0.000000 0.000000 0.000000 0.000000 0.121634
#
#
# Mechanical properties :
#
#
# Convention : Reuss Voigt Hill
#
# Bulk Modulus (GPa) = 44.90913 58.14471 51.52692
# Shear Modulus (GPa) = 11.17888 29.01568 20.09728
#
# Velocity S-wave (km/s) = 2.20690 3.55549 2.95904
# Velocity P-wave (km/s) = 5.10488 6.49521 5.84155
#
# Compressibility (1/GPa) = 0.02226718
#
# Stress axis : x y z
#
# Youngs Moduli (GPa) = 110.81452 141.72784 64.30746
#
# Poissons Ratio (x) = 0.37944 -0.04988
# Poissons Ratio (y) = 0.29668 0.17877
# Poissons Ratio (z) = -0.08596 0.39400
#
# Static dielectric constant tensor:
#      x y z
#    x 1.863750 0.000000 0.000000 
#    y 0.000000 1.883380 0.000000 
#    z 0.000000 0.000000 1.990770 
# 
# From -- ./inp_files/35448.got.cif
#   From: 2010.05.17/outbox.cif.g08.bks.cpg/sg64_18_cif.got.tgz:35448.got - 2010.06.03 16:29:19.
