data_PCOD9476990
_publ_section_title
;
Structure prediction by ZEFSAII (Michael W. Deem and Ramdas Pophale) SiO2 
 PCOD9476990
Probable space group: C M C A
;
_chemical_formula_sum "Si O2"
_cell_formula_units_Z 116
_cell_length_a 28.227580
_cell_length_b 13.358546
_cell_length_c 14.043595
_cell_angle_alpha 90.000000
_cell_angle_beta 90.000000
_cell_angle_gamma 90.000000
_cell_volume 5295.550740
_symmetry_space_group_name_H-M "C M C A"
_symmetry_group_IT_number 64
_symmetry_cell_setting 'orthorhombic'
loop_
_space_group_symop_operation_xyz
x,y,z
-x,1/2-y,1/2+z
x,-y,-z
-x,1/2+y,1/2-z
-x,-y,-z
x,1/2+y,1/2-z
-x,y,z
x,1/2-y,1/2+z
1/2+x,1/2+y,z
1/2-x,-y,1/2+z
1/2+x,1/2-y,-z
1/2-x,y,1/2-z
1/2-x,1/2-y,-z
1/2+x,y,1/2-z
1/2-x,1/2+y,z
1/2+x,-y,1/2+z
loop_
_atom_site_type_symbol
_atom_site_label
_atom_site_fract_x
_atom_site_fract_y
_atom_site_fract_z
Si Si1 0.000000 0.000000 0.000000
Si Si2 0.726870 0.921168 0.084944
Si Si3 0.418693 0.376818 0.084579
Si Si4 0.860677 0.349525 0.173160
Si Si5 0.322564 0.299507 0.112374
Si Si6 0.553895 0.236404 0.261419
Si Si7 0.795841 0.609313 0.204558
Si Si8 0.890770 0.957885 0.765530
O O1 0.041493 0.913131 0.013239
O O2 0.681583 0.848801 0.097920
O O3 0.775535 0.859940 0.086136
O O4 0.720466 0.000076 0.171334
O O5 0.725813 0.000000 0.000000
O O6 0.368666 0.330526 0.051965
O O7 0.439574 0.300714 0.164406
O O8 0.404855 0.476582 0.144325
O O9 0.837373 0.326968 0.277586
O O10 0.906441 0.279214 0.166441
O O11 0.881769 0.462082 0.181390
O O12 0.312910 0.181393 0.119902
O O13 0.500000 0.244554 0.293873
O O14 0.569305 0.122604 0.243329
O O15 0.750000 0.660460 0.250000
O O16 0.839984 0.596199 0.275306
#
# Coordination Sequence:
#
# PCOD9476990 Si02
#       8
#     4  16  16  16  16  16  16  16
#     4  12  24  40  56  80 132 162 174 240 298 364
#     4  11  23  36  53  83 124 158 186 228 299 362
#     4  10  22  37  56  85 118 152 188 235 299 347
#     4   9  19  36  57  81 111 150 190 244 284 340
#     4  10  20  38  59  85 111 146 201 249 278 337
#     4  10  18  33  59  85 107 134 200 251 286 328
#     4  11  19  35  64  84 110 151 198 244 291 340
#     4   9  18  33  57  82 107 141 192 243 282 329
#
# _framework density 21.905180999999999
#
# number of rings (size 3 to 8) (size 9 to 14) (size 15 to 20)
#    0.000    2.207    3.448    3.724    1.931    1.103 
#    0.000    1.379    0.000    0.414    0.000    0.000 
#    0.000    0.000    0.000    0.000    0.000    0.000 
#
# Total GULP energy -323090.166010 kJ/mol
# GULP energy per Si atom -5570.520104 kJ/mol
# Density = 2.185532 g / cm^3
# Si number density = 21.905181 Si / 1000 Ang^3
#
#
#
# Elastic Constant Matrix: (Units=GPa)
#
#
# Indices 1 2 3 4 5 6 
#
# 1 182.6021 37.0068 19.0474 0.0000 0.0000 0.0000
# 2 37.0068 84.7268 -4.7365 0.0000 0.0000 0.0000
# 3 19.0474 -4.7365 23.4853 0.0000 0.0000 0.0000
# 4 0.0000 0.0000 0.0000 13.7819 0.0000 0.0000
# 5 0.0000 0.0000 0.0000 0.0000 11.5677 0.0000
# 6 0.0000 0.0000 0.0000 0.0000 0.0000 3.9143
#
#
#
# Elastic Compliance Matrix: (Units=1/GPa)
#
#
# Indices 1 2 3 4 5 6 
#
# 1 0.006792 -0.003312 -0.006176 0.000000 0.000000 0.000000
# 2 -0.003312 0.013552 0.005419 0.000000 0.000000 0.000000
# 3 -0.006176 0.005419 0.048682 0.000000 0.000000 0.000000
# 4 0.000000 0.000000 0.000000 0.072559 0.000000 0.000000
# 5 0.000000 0.000000 0.000000 0.000000 0.086448 0.000000
# 6 0.000000 0.000000 0.000000 0.000000 0.000000 0.255472
#
#
# Mechanical properties :
#
#
# Convention : Reuss Voigt Hill
#
# Bulk Modulus (GPa) = 16.42355 43.71662 30.07009
# Shear Modulus (GPa) = 9.76679 21.81921 15.79300
#
# Velocity S-wave (km/s) = 2.11385 3.15949 2.68800
# Velocity P-wave (km/s) = 3.67037 5.77151 4.83642
#
# Compressibility (1/GPa) = 0.06088818
#
# Stress axis : x y z
#
# Youngs Moduli (GPa) = 147.23564 73.78922 20.54141
#
# Poissons Ratio (x) = 0.24438 0.12687
# Poissons Ratio (y) = 0.48762 -0.11132
# Poissons Ratio (z) = 0.90938 -0.39988
#
# Static dielectric constant tensor:
#      x y z
#    x 1.824950 0.000000 0.000000 
#    y 0.000000 1.849170 0.000000 
#    z 0.000000 0.000000 1.842000 
# 
# From -- ./inp_files/35555.got.cif
#   From: 2010.05.17/outbox.cif.g08.bks.cpg/sg64_18_cif.got.tgz:35555.got - 2010.06.03 16:29:19.
