data_PCOD9476434
_publ_section_title
;
Structure prediction by ZEFSAII (Michael W. Deem and Ramdas Pophale) SiO2 
 PCOD9476434
Probable space group: C M C A
;
_chemical_formula_sum "Si O2"
_cell_formula_units_Z 80
_cell_length_a 8.693561
_cell_length_b 27.172890
_cell_length_c 18.633557
_cell_angle_alpha 90.000000
_cell_angle_beta 90.000000
_cell_angle_gamma 90.000000
_cell_volume 4401.789830
_symmetry_space_group_name_H-M "C M C A"
_symmetry_group_IT_number 64
_symmetry_cell_setting 'orthorhombic'
loop_
_space_group_symop_operation_xyz
x,y,z
-x,1/2-y,1/2+z
x,-y,-z
-x,1/2+y,1/2-z
-x,-y,-z
x,1/2+y,1/2-z
-x,y,z
x,1/2-y,1/2+z
1/2+x,1/2+y,z
1/2-x,-y,1/2+z
1/2+x,1/2-y,-z
1/2-x,y,1/2-z
1/2-x,1/2-y,-z
1/2+x,y,1/2-z
1/2-x,1/2+y,z
1/2+x,-y,1/2+z
loop_
_atom_site_type_symbol
_atom_site_label
_atom_site_fract_x
_atom_site_fract_y
_atom_site_fract_z
Si Si1 0.815689 0.703289 0.168840
Si Si2 0.816124 0.405531 0.830578
Si Si3 0.184801 0.094896 0.830558
Si Si4 0.316423 0.696635 0.668458
Si Si5 0.814530 0.003037 0.082513
O O1 0.750000 0.701572 0.250000
O O2 0.776985 0.649096 0.139237
O O3 0.743425 0.752322 0.134705
O O4 0.000000 0.708736 0.171286
O O5 0.750000 0.409844 0.750000
O O6 0.753172 0.449509 0.878370
O O7 0.000000 0.408323 0.825860
O O8 0.250000 0.089167 0.750000
O O9 0.252833 0.145535 0.862596
O O10 0.227894 0.046942 0.875928
O O11 0.000000 0.098957 0.827087
O O12 0.500000 0.696285 0.670879
O O13 0.250000 0.696583 0.750000
O O14 0.000000 0.006714 0.084477
O O15 0.765152 0.000000 0.000000
#
# Coordination Sequence:
#
# PCOD9476434 Si02
#       5
#    16  16  16  16  16
#     4   9  16  27  44  70 102 131 161 198 245 295
#     4  10  20  33  53  79 105 135 169 209 252 298
#     4  10  19  32  51  74 101 131 165 205 248 296
#     4  10  17  26  44  71 101 130 161 199 245 293
#     4  10  22  38  54  73 100 135 172 212 259 306
#
# _framework density 18.174424999999999
#
# number of rings (size 3 to 8) (size 9 to 14) (size 15 to 20)
#    0.000    2.200    0.000    6.600    0.000    6.000 
#    0.000    0.000    0.000    1.200    0.000    0.000 
#    0.000    0.000    0.000    0.000    0.000    0.000 
#
# Total GULP energy -223046.051569 kJ/mol
# GULP energy per Si atom -5576.151289 kJ/mol
# Density = 1.813306 g / cm^3
# Si number density = 18.174425 Si / 1000 Ang^3
#
#
#
# Elastic Constant Matrix: (Units=GPa)
#
#
# Indices 1 2 3 4 5 6 
#
# 1 78.7062 75.1319 24.1656 0.0000 0.0000 0.0000
# 2 75.1319 236.4292 68.4302 0.0000 0.0000 0.0000
# 3 24.1656 68.4302 55.6996 0.0000 0.0000 0.0000
# 4 0.0000 0.0000 0.0000 -5.3294 0.0000 0.0000
# 5 0.0000 0.0000 0.0000 0.0000 12.8360 0.0000
# 6 0.0000 0.0000 0.0000 0.0000 0.0000 37.0479
#
#
#
# Elastic Compliance Matrix: (Units=1/GPa)
#
#
# Indices 1 2 3 4 5 6 
#
# 1 0.018292 -0.005456 -0.001233 0.000000 0.000000 0.000000
# 2 -0.005456 0.008191 -0.007696 0.000000 0.000000 0.000000
# 3 -0.001233 -0.007696 0.027943 0.000000 0.000000 0.000000
# 4 0.000000 0.000000 0.000000 -0.187639 0.000000 0.000000
# 5 0.000000 0.000000 0.000000 0.000000 0.077906 0.000000
# 6 0.000000 0.000000 0.000000 0.000000 0.000000 0.026992
#
#
# Mechanical properties :
#
#
# Convention : Reuss Voigt Hill
#
# Bulk Modulus (GPa) = 38.97670 78.47671 58.72670
# Shear Modulus (GPa) = 555.08241 22.45137 288.76689
#
# Velocity S-wave (km/s) = 17.49522 3.51854 12.61869
# Velocity P-wave (km/s) = 20.72686 7.73177 15.64262
#
# Compressibility (1/GPa) = 0.02565636
#
# Stress axis : x y z
#
# Youngs Moduli (GPa) = 54.66778 122.08856 35.78684
#
# Poissons Ratio (x) = 0.66611 0.04414
# Poissons Ratio (y) = 0.29826 0.27541
# Poissons Ratio (z) = 0.06742 0.93956
#
# Static dielectric constant tensor:
#      x y z
#    x 1.609460 0.000000 0.000000 
#    y 0.000000 1.689170 0.000000 
#    z 0.000000 0.000000 1.581540 
# 
# From -- ./inp_files/29823.got.cif
#   From: 2010.05.17/outbox.cif.g08.bks.cpg/sg64_15_cif.got.tgz:29823.got - 2010.06.03 16:29:19.
