data_PCOD9476265
_publ_section_title
;
Structure prediction by ZEFSAII (Michael W. Deem and Ramdas Pophale) SiO2 
 PCOD9476265
Probable space group: C M C M
;
_chemical_formula_sum "Si O2"
_cell_formula_units_Z 32
_cell_length_a 12.000000
_cell_length_b 18.000000
_cell_length_c 15.000000
_cell_angle_alpha 90.000000
_cell_angle_beta 90.000000
_cell_angle_gamma 90.000000
_cell_volume 3240.000000
_symmetry_space_group_name_H-M "C M C M"
_symmetry_group_IT_number 63
_symmetry_cell_setting 'orthorhombic'
loop_
_space_group_symop_operation_xyz
x,y,z
-x,-y,1/2+z
x,-y,-z
-x,y,1/2-z
-x,-y,-z
x,y,1/2-z
-x,y,z
x,-y,1/2+z
1/2+x,1/2+y,z
1/2-x,1/2-y,1/2+z
1/2+x,1/2-y,-z
1/2-x,1/2+y,1/2-z
1/2-x,1/2-y,-z
1/2+x,1/2+y,1/2-z
1/2-x,1/2+y,z
1/2+x,1/2-y,1/2+z
loop_
_atom_site_type_symbol
_atom_site_label
_atom_site_fract_x
_atom_site_fract_y
_atom_site_fract_z
Si Si1 0.200980 0.672136 0.967675
Si Si2 0.367544 0.913129 0.850408
Si Si3 0.698859 0.458899 0.145281
Si Si4 0.500000 0.753344 0.358445
Si Si5 0.500000 0.573863 0.142216
O O1 0.282763 0.614256 0.915305
O O2 0.103990 0.700743 0.900273
O O3 0.250000 0.750000 0.000000
O O4 0.164358 0.632494 0.060703
O O5 0.330301 0.884892 0.750000
O O6 0.500000 0.917184 0.848424
O O7 0.313109 0.994290 0.858982
O O8 0.676550 0.439635 0.250000
O O9 0.606112 0.521273 0.117204
O O10 0.500000 0.755623 0.250000
O O11 0.500000 0.662797 0.384714
O O12 0.500000 0.577508 0.250000
#
# Coordination Sequence:
#
# PCOD9476265 Si02
#       5
#    16  16  16   8   8
#     4  12  25  40  64 100 135 171 217 271 336 399
#     4  10  22  42  66  92 125 170 221 272 324 385
#     4  10  22  41  69  98 128 174 224 271 322 390
#     4  11  24  43  67  99 140 176 216 276 342 399
#     4   9  20  43  69  95 134 182 224 262 321 401
#
# _framework density 9.8765429999999999
#
# number of rings (size 3 to 8) (size 9 to 14) (size 15 to 20)
#    0.000    1.500    1.250    3.000    1.750    6.000 
#    0.000    3.750    0.000    0.000    0.000    0.000 
#    0.000    0.000    0.000    0.000    0.000    0.000 
#
# Total GULP energy -178455.102559 kJ/mol
# GULP energy per Si atom -5576.721955 kJ/mol
# Density = 0.985406 g / cm^3
# Si number density = 9.876543 Si / 1000 Ang^3
#
#
#
# Elastic Constant Matrix: (Units=GPa)
#
#
# Indices 1 2 3 4 5 6 
#
# 1 37.1798 22.6886 26.1664 0.0000 0.0000 0.0000
# 2 22.6886 130.9137 53.6005 0.0000 0.0000 0.0000
# 3 26.1664 53.6005 128.9176 0.0000 0.0000 0.0000
# 4 0.0000 0.0000 0.0000 53.0958 0.0000 0.0000
# 5 0.0000 0.0000 0.0000 0.0000 25.0194 0.0000
# 6 0.0000 0.0000 0.0000 0.0000 0.0000 34.0407
#
#
#
# Elastic Compliance Matrix: (Units=1/GPa)
#
#
# Indices 1 2 3 4 5 6 
#
# 1 0.032696 -0.003554 -0.005158 0.000000 0.000000 0.000000
# 2 -0.003554 0.009592 -0.003267 0.000000 0.000000 0.000000
# 3 -0.005158 -0.003267 0.010162 0.000000 0.000000 0.000000
# 4 0.000000 0.000000 0.000000 0.018834 0.000000 0.000000
# 5 0.000000 0.000000 0.000000 0.000000 0.039969 0.000000
# 6 0.000000 0.000000 0.000000 0.000000 0.000000 0.029377
#
#
# Mechanical properties :
#
#
# Convention : Reuss Voigt Hill
#
# Bulk Modulus (GPa) = 35.09898 55.76911 45.43404
# Shear Modulus (GPa) = 28.72151 35.40155 32.06153
#
# Velocity S-wave (km/s) = 3.81731 4.23804 4.03316
# Velocity P-wave (km/s) = 6.10217 7.22789 6.68875
#
# Compressibility (1/GPa) = 0.02849086
#
# Stress axis : x y z
#
# Youngs Moduli (GPa) = 30.58500 104.25201 98.40480
#
# Poissons Ratio (x) = 0.37056 0.50761
# Poissons Ratio (y) = 0.10871 0.32146
# Poissons Ratio (z) = 0.15777 0.34056
#
# Static dielectric constant tensor:
#      x y z
#    x 1.759570 0.000000 0.000000 
#    y 0.000000 1.670290 0.000000 
#    z 0.000000 0.000000 1.738340 
# 
# From -- ./inp_files/29162.got.cif
#   From: 2010.05.17/outbox.ucp.g08.bks.cvg/sg63_15_cif.got.tgz:29162.got - 2010.06.11 16:32:19.
