data_PCOD9476271
_publ_section_title
;
Structure prediction by ZEFSAII (Michael W. Deem and Ramdas Pophale) SiO2 
 PCOD9476271
Probable space group: C M C M
;
_chemical_formula_sum "Si O2"
_cell_formula_units_Z 44
_cell_length_a 24.000000
_cell_length_b 9.000000
_cell_length_c 21.000000
_cell_angle_alpha 90.000000
_cell_angle_beta 90.000000
_cell_angle_gamma 90.000000
_cell_volume 4536.000000
_symmetry_space_group_name_H-M "C M C M"
_symmetry_group_IT_number 63
_symmetry_cell_setting 'orthorhombic'
loop_
_space_group_symop_operation_xyz
x,y,z
-x,-y,1/2+z
x,-y,-z
-x,y,1/2-z
-x,-y,-z
x,y,1/2-z
-x,y,z
x,-y,1/2+z
1/2+x,1/2+y,z
1/2-x,1/2-y,1/2+z
1/2+x,1/2-y,-z
1/2-x,1/2+y,1/2-z
1/2-x,1/2-y,-z
1/2+x,1/2+y,1/2-z
1/2-x,1/2+y,z
1/2+x,1/2-y,1/2+z
loop_
_atom_site_type_symbol
_atom_site_label
_atom_site_fract_x
_atom_site_fract_y
_atom_site_fract_z
Si Si1 0.906193 0.937047 0.750000
Si Si2 0.705692 0.236827 0.324303
Si Si3 0.627829 0.064499 0.090662
Si Si4 0.816714 0.061197 0.363409
Si Si5 0.815618 0.275027 0.024032
Si Si6 0.500000 0.812848 0.250000
Si Si7 0.000000 0.807140 0.250000
Si Si8 0.000000 0.557020 0.139492
O O1 0.867168 0.931020 0.687240
O O2 0.946554 0.794641 0.750000
O O3 0.945778 0.083886 0.750000
O O4 0.701709 0.274434 0.250000
O O5 0.655905 0.127243 0.345143
O O6 0.764050 0.156274 0.338243
O O7 0.701644 0.389667 0.363531
O O8 0.560192 0.051015 0.100719
O O9 0.663918 0.917351 0.068706
O O10 0.645973 0.186526 0.037184
O O11 0.829266 0.131896 0.432473
O O12 0.750000 0.250000 0.000000
O O13 0.500000 0.917109 0.187685
O O14 0.000000 0.701728 0.313201
#
# Coordination Sequence:
#
# PCOD9476271 Si02
#       8
#     8  16  16  16  16   4   4   8
#     4  11  22  44  66 102 138 189 226 306 352 433
#     4  12  24  41  65 107 138 185 224 292 357 429
#     4  11  26  45  74 100 142 190 242 289 352 419
#     4  12  24  40  67  99 145 181 235 286 362 429
#     4  11  25  45  67 102 141 189 232 290 353 425
#     4  10  24  38  70  96 140 178 242 282 364 416
#     4  10  24  46  72  98 144 184 240 288 370 416
#     4  11  24  47  71 105 132 188 245 298 334 426
#
# _framework density 9.7001760000000008
#
# number of rings (size 3 to 8) (size 9 to 14) (size 15 to 20)
#    0.000    0.727    3.636    3.273    5.091    2.182 
#    1.636    1.818    0.000    2.182    0.000    0.000 
#    0.000    0.000    0.000    0.000    0.000    0.000 
#
# Total GULP energy -245681.363936 kJ/mol
# GULP energy per Si atom -5583.667362 kJ/mol
# Density = 0.967810 g / cm^3
# Si number density = 9.700176 Si / 1000 Ang^3
#
#
#
# Elastic Constant Matrix: (Units=GPa)
#
#
# Indices 1 2 3 4 5 6 
#
# 1 182.1177 60.2211 40.4915 0.0000 0.0000 0.0000
# 2 60.2211 134.1500 42.9895 0.0000 0.0000 0.0000
# 3 40.4915 42.9895 84.3639 0.0000 0.0000 0.0000
# 4 0.0000 0.0000 0.0000 44.4898 0.0000 0.0000
# 5 0.0000 0.0000 0.0000 0.0000 45.2548 0.0000
# 6 0.0000 0.0000 0.0000 0.0000 0.0000 34.6387
#
#
#
# Elastic Compliance Matrix: (Units=1/GPa)
#
#
# Indices 1 2 3 4 5 6 
#
# 1 0.006724 -0.002372 -0.002019 0.000000 0.000000 0.000000
# 2 -0.002372 0.009746 -0.003828 0.000000 0.000000 0.000000
# 3 -0.002019 -0.003828 0.014773 0.000000 0.000000 0.000000
# 4 0.000000 0.000000 0.000000 0.022477 0.000000 0.000000
# 5 0.000000 0.000000 0.000000 0.000000 0.022097 0.000000
# 6 0.000000 0.000000 0.000000 0.000000 0.000000 0.028869
#
#
# Mechanical properties :
#
#
# Convention : Reuss Voigt Hill
#
# Bulk Modulus (GPa) = 67.53932 76.44840 71.99386
# Shear Modulus (GPa) = 39.66431 42.00529 40.83480
#
# Velocity S-wave (km/s) = 4.52654 4.65820 4.59284
# Velocity P-wave (km/s) = 7.88723 8.27182 8.08181
#
# Compressibility (1/GPa) = 0.01480619
#
# Stress axis : x y z
#
# Youngs Moduli (GPa) = 148.72089 102.61035 67.69138
#
# Poissons Ratio (x) = 0.24334 0.13666
# Poissons Ratio (y) = 0.35269 0.25911
# Poissons Ratio (z) = 0.30024 0.39278
#
# Static dielectric constant tensor:
#      x y z
#    x 1.665620 0.000000 0.000000 
#    y 0.000000 1.703050 0.000000 
#    z 0.000000 0.000000 1.718420 
# 
# From -- ./inp_files/57423.got.cif
#   From: 2010.05.17/outbox.ucp.g08.bks.cvg/sg63_29_cif.got.tgz:57423.got - 2010.06.11 16:32:19.
