data_PCOD9476240
_publ_section_title
;
Structure prediction by ZEFSAII (Michael W. Deem and Ramdas Pophale) SiO2 
 PCOD9476240
Probable space group: C M C M
;
_chemical_formula_sum "Si O2"
_cell_formula_units_Z 48
_cell_length_a 24.000000
_cell_length_b 24.000000
_cell_length_c 9.000000
_cell_angle_alpha 90.000000
_cell_angle_beta 90.000000
_cell_angle_gamma 90.000000
_cell_volume 5184.000000
_symmetry_space_group_name_H-M "C M C M"
_symmetry_group_IT_number 63
_symmetry_cell_setting 'orthorhombic'
loop_
_space_group_symop_operation_xyz
x,y,z
-x,-y,1/2+z
x,-y,-z
-x,y,1/2-z
-x,-y,-z
x,y,1/2-z
-x,y,z
x,-y,1/2+z
1/2+x,1/2+y,z
1/2-x,1/2-y,1/2+z
1/2+x,1/2-y,-z
1/2-x,1/2+y,1/2-z
1/2-x,1/2-y,-z
1/2+x,1/2+y,1/2-z
1/2-x,1/2+y,z
1/2+x,1/2-y,1/2+z
loop_
_atom_site_type_symbol
_atom_site_label
_atom_site_fract_x
_atom_site_fract_y
_atom_site_fract_z
Si Si1 0.606203 0.135335 0.573580
Si Si2 0.181574 0.943258 0.920750
Si Si3 0.184855 0.556190 0.080699
Si Si4 0.000000 0.060624 0.072703
Si Si5 0.934559 0.255098 0.926062
Si Si6 0.400653 0.370543 0.426145
Si Si7 0.500000 0.060637 0.571002
O O1 0.609327 0.134244 0.750000
O O2 0.660723 0.108813 0.503206
O O3 0.595025 0.196845 0.516363
O O4 0.554265 0.096180 0.526913
O O5 0.162505 0.941766 0.750000
O O6 0.248340 0.943362 0.921156
O O7 0.157877 0.892312 0.014048
O O8 0.162159 0.000000 0.000000
O O9 0.165441 0.555604 0.250000
O O10 0.165502 0.500000 0.000000
O O11 0.000000 0.056858 0.250000
O O12 0.946669 0.094171 0.013532
O O13 0.000000 0.000000 0.000000
O O14 0.929644 0.266390 0.750000
O O15 0.910183 0.194289 0.955093
O O16 0.000000 0.254472 0.963607
O O17 0.406810 0.380146 0.250000
O O18 0.500000 0.055600 0.750000
O O19 0.500000 0.000000 0.500000
#
# Coordination Sequence:
#
# PCOD9476240 Si02
#       7
#    16  16  16   8  16  16   8
#     4  11  22  37  57  84 116 149 193 237 284 341
#     4  10  21  38  60  87 117 152 192 236 289 345
#     4  10  21  38  60  86 117 152 193 237 287 344
#     4  12  24  37  56  83 117 152 188 234 289 344
#     4  10  21  39  60  82 112 153 193 233 286 341
#     4  11  22  39  60  85 116 149 193 239 287 344
#     4  10  22  35  50  79 113 144 178 226 279 334
#
# _framework density 9.2592590000000001
#
# number of rings (size 3 to 8) (size 9 to 14) (size 15 to 20)
#    0.000    1.500    1.667    3.750    0.000    6.000 
#    0.000    0.833    0.000    0.000    0.000    0.000 
#    0.000    0.000    0.000    0.000    0.000    0.000 
#
# Total GULP energy -268176.012751 kJ/mol
# GULP energy per Si atom -5587.000266 kJ/mol
# Density = 0.923818 g / cm^3
# Si number density = 9.259259 Si / 1000 Ang^3
#
#
#
# Elastic Constant Matrix: (Units=GPa)
#
#
# Indices 1 2 3 4 5 6 
#
# 1 23.2770 32.1342 38.3947 0.0000 0.0000 0.0000
# 2 32.1342 102.2342 109.9696 0.0000 0.0000 0.0000
# 3 38.3947 109.9696 95.1071 0.0000 0.0000 0.0000
# 4 0.0000 0.0000 0.0000 34.7918 0.0000 0.0000
# 5 0.0000 0.0000 0.0000 0.0000 5.3029 0.0000
# 6 0.0000 0.0000 0.0000 0.0000 0.0000 -45.5419
#
#
#
# Elastic Compliance Matrix: (Units=1/GPa)
#
#
# Indices 1 2 3 4 5 6 
#
# 1 0.072416 -0.035628 0.011961 0.000000 0.000000 0.000000
# 2 -0.035628 -0.022600 0.040514 0.000000 0.000000 0.000000
# 3 0.011961 0.040514 -0.041159 0.000000 0.000000 0.000000
# 4 0.000000 0.000000 0.000000 0.028742 0.000000 0.000000
# 5 0.000000 0.000000 0.000000 0.000000 0.188575 0.000000
# 6 0.000000 0.000000 0.000000 0.000000 0.000000 -0.021958
#
#
# Mechanical properties :
#
#
# Convention : Reuss Voigt Hill
#
# Bulk Modulus (GPa) = 23.61173 64.62391 44.11782
# Shear Modulus (GPa) = 27.10907 1.58522 14.34715
#
# Velocity S-wave (km/s) = 3.83023 0.92622 2.78645
# Velocity P-wave (km/s) = 5.68673 6.00970 5.85045
#
# Compressibility (1/GPa) = 0.04235183
#
# Stress axis : x y z
#
# Youngs Moduli (GPa) = 13.80906 -44.24862 -24.29583
#
# Poissons Ratio (x) = -1.57647 0.29060
# Poissons Ratio (y) = 0.49198 0.98432
# Poissons Ratio (z) = -0.16517 1.79269
#
# Static dielectric constant tensor:
#      x y z
#    x 1.679520 0.000000 0.000000 
#    y 0.000000 1.592710 0.000000 
#    z 0.000000 0.000000 1.618950 
# 
# From -- ./inp_files/10510.got.cif
#   From: 2010.05.17/outbox.ucp.g08.bks.cvg/sg63_6_cif.got.tgz:10510.got - 2010.06.11 16:32:19.
