data_PCOD9476061
_publ_section_title
;
Structure prediction by ZEFSAII (Michael W. Deem and Ramdas Pophale) SiO2 
 PCOD9476061
Probable space group: C M C M
;
_chemical_formula_sum "Si O2"
_cell_formula_units_Z 44
_cell_length_a 12.000000
_cell_length_b 21.000000
_cell_length_c 18.000000
_cell_angle_alpha 90.000000
_cell_angle_beta 90.000000
_cell_angle_gamma 90.000000
_cell_volume 4536.000000
_symmetry_space_group_name_H-M "C M C M"
_symmetry_group_IT_number 63
_symmetry_cell_setting 'orthorhombic'
loop_
_space_group_symop_operation_xyz
x,y,z
-x,-y,1/2+z
x,-y,-z
-x,y,1/2-z
-x,-y,-z
x,y,1/2-z
-x,y,z
x,-y,1/2+z
1/2+x,1/2+y,z
1/2-x,1/2-y,1/2+z
1/2+x,1/2-y,-z
1/2-x,1/2+y,1/2-z
1/2-x,1/2-y,-z
1/2+x,1/2+y,1/2-z
1/2-x,1/2+y,z
1/2+x,1/2-y,1/2+z
loop_
_atom_site_type_symbol
_atom_site_label
_atom_site_fract_x
_atom_site_fract_y
_atom_site_fract_z
Si Si1 0.257512 0.434870 0.402943
Si Si2 0.500000 0.269081 0.663757
Si Si3 0.000000 0.087149 0.377491
Si Si4 0.752192 0.923251 0.576267
Si Si5 0.500000 0.446247 0.165163
Si Si6 0.130918 0.308806 0.839052
Si Si7 0.214580 0.302056 0.339006
O O1 0.227370 0.426186 0.489208
O O2 0.225226 0.508221 0.386028
O O3 0.388507 0.429353 0.380321
O O4 0.204760 0.374897 0.362142
O O5 0.500000 0.250481 0.750000
O O6 0.500000 0.344849 0.661457
O O7 0.610700 0.238614 0.630813
O O8 0.885770 0.083785 0.422215
O O9 0.000000 0.023124 0.329432
O O10 0.695174 0.864990 0.618432
O O11 0.500000 0.420001 0.250000
O O12 0.150404 0.316192 0.750000
O O13 0.177758 0.239352 0.862039
O O14 0.000000 0.313178 0.852866
O O15 0.215972 0.301148 0.250000
#
# Coordination Sequence:
#
# PCOD9476061 Si02
#       7
#    16   8   8  16   8  16  16
#     4  10  22  38  56  87 121 155 196 241 293 351
#     4  10  19  35  57  83 113 144 183 243 298 347
#     4  10  18  34  59  87 114 144 193 242 287 352
#     4  10  21  40  60  84 118 159 196 244 294 347
#     4  10  20  33  60  91 119 156 194 240 297 352
#     4  10  22  40  61  86 115 152 200 250 296 353
#     4  10  21  38  59  84 117 150 190 243 299 353
#
# _framework density 9.7001760000000008
#
# number of rings (size 3 to 8) (size 9 to 14) (size 15 to 20)
#    0.000    2.000    1.818    1.364    1.273    6.545 
#    3.273    0.909    0.000    0.000    0.000    0.000 
#    0.000    0.000    0.000    0.000    0.000    0.000 
#
# Total GULP energy -245094.522301 kJ/mol
# GULP energy per Si atom -5570.330052 kJ/mol
# Density = 0.967810 g / cm^3
# Si number density = 9.700176 Si / 1000 Ang^3
#
#
#
# Elastic Constant Matrix: (Units=GPa)
#
#
# Indices 1 2 3 4 5 6 
#
# 1 45.1957 35.9966 17.6846 0.0000 0.0000 0.0000
# 2 35.9966 116.6098 19.6569 0.0000 0.0000 0.0000
# 3 17.6846 19.6569 24.4123 0.0000 0.0000 0.0000
# 4 0.0000 0.0000 0.0000 21.2542 0.0000 0.0000
# 5 0.0000 0.0000 0.0000 0.0000 -25.2985 0.0000
# 6 0.0000 0.0000 0.0000 0.0000 0.0000 -12.6799
#
#
#
# Elastic Compliance Matrix: (Units=1/GPa)
#
#
# Indices 1 2 3 4 5 6 
#
# 1 0.036117 -0.007797 -0.019886 0.000000 0.000000 0.000000
# 2 -0.007797 0.011606 -0.003697 0.000000 0.000000 0.000000
# 3 -0.019886 -0.003697 0.058345 0.000000 0.000000 0.000000
# 4 0.000000 0.000000 0.000000 0.047049 0.000000 0.000000
# 5 0.000000 0.000000 0.000000 0.000000 -0.039528 0.000000
# 6 0.000000 0.000000 0.000000 0.000000 0.000000 -0.078865
#
#
# Mechanical properties :
#
#
# Convention : Reuss Voigt Hill
#
# Bulk Modulus (GPa) = 23.08976 36.98823 30.03900
# Shear Modulus (GPa) = 44.67516 4.18047 24.42781
#
# Velocity S-wave (km/s) = 4.80396 1.46953 3.55229
# Velocity P-wave (km/s) = 6.53439 4.68898 5.68704
#
# Compressibility (1/GPa) = 0.04330923
#
# Stress axis : x y z
#
# Youngs Moduli (GPa) = 27.68776 86.16508 17.13942
#
# Poissons Ratio (x) = 0.67183 0.34083
# Poissons Ratio (y) = 0.21588 0.06336
# Poissons Ratio (z) = 0.55059 0.31852
#
# Static dielectric constant tensor:
#      x y z
#    x 1.702570 0.000000 0.000000 
#    y 0.000000 1.677110 0.000000 
#    z 0.000000 0.000000 1.670320 
# 
# From -- ./inp_files/42331.got.cif
#   From: 2010.05.17/outbox.ucp.g08.bks.cvg/sg63_22_cif.got.tgz:42331.got - 2010.06.11 16:32:19.
