data_PCOD9476107
_publ_section_title
;
Structure prediction by ZEFSAII (Michael W. Deem and Ramdas Pophale) SiO2 
 PCOD9476107
Probable space group: C M C M
;
_chemical_formula_sum "Si O2"
_cell_formula_units_Z 56
_cell_length_a 30.000000
_cell_length_b 12.000000
_cell_length_c 15.000000
_cell_angle_alpha 90.000000
_cell_angle_beta 90.000000
_cell_angle_gamma 90.000000
_cell_volume 5400.000000
_symmetry_space_group_name_H-M "C M C M"
_symmetry_group_IT_number 63
_symmetry_cell_setting 'orthorhombic'
loop_
_space_group_symop_operation_xyz
x,y,z
-x,-y,1/2+z
x,-y,-z
-x,y,1/2-z
-x,-y,-z
x,y,1/2-z
-x,y,z
x,-y,1/2+z
1/2+x,1/2+y,z
1/2-x,1/2-y,1/2+z
1/2+x,1/2-y,-z
1/2-x,1/2+y,1/2-z
1/2-x,1/2-y,-z
1/2+x,1/2+y,1/2-z
1/2-x,1/2+y,z
1/2+x,1/2-y,1/2+z
loop_
_atom_site_type_symbol
_atom_site_label
_atom_site_fract_x
_atom_site_fract_y
_atom_site_fract_z
Si Si1 0.857160 0.837577 0.147794
Si Si2 0.695218 0.550465 0.099006
Si Si3 0.553359 0.329689 0.470440
Si Si4 0.633503 0.048476 0.852082
Si Si5 0.109771 0.202100 0.358796
Si Si6 0.548386 0.073455 0.410583
Si Si7 0.796173 0.375479 0.858193
O O1 0.871826 0.812834 0.250000
O O2 0.902203 0.867061 0.089211
O O3 0.826181 0.733092 0.113890
O O4 0.822859 0.941549 0.151346
O O5 0.655673 0.638641 0.117616
O O6 0.743950 0.605263 0.117617
O O7 0.696056 0.500000 0.000000
O O8 0.500000 0.369105 0.461292
O O9 0.570611 0.339626 0.573524
O O10 0.551010 0.201060 0.440000
O O11 0.645728 0.070699 0.750000
O O12 0.618266 0.168730 0.886054
O O13 0.591237 0.966082 0.856634
O O14 0.675537 0.982775 0.891381
O O15 0.101072 0.193624 0.250000
O O16 0.500000 0.054102 0.366503
O O17 0.549394 0.000000 0.500000
O O18 0.797112 0.371622 0.750000
#
# Coordination Sequence:
#
# PCOD9476107 Si02
#       7
#    16  16  16  16  16  16  16
#     4  11  24  45  69  97 140 178 221 280 336 401
#     4  12  26  44  69  96 129 177 228 282 339 400
#     4  11  23  41  68 100 133 174 229 281 336 404
#     4  10  21  37  60  91 132 176 218 270 328 400
#     4  11  24  43  65  94 137 178 223 279 341 407
#     4  10  19  33  56  89 130 170 210 265 329 391
#     4  10  23  41  63  96 134 176 219 268 332 400
#
# _framework density 10.370369999999999
#
# number of rings (size 3 to 8) (size 9 to 14) (size 15 to 20)
#    0.000    1.286    4.286    1.286    2.000    3.143 
#    0.000    4.286    0.000    1.714    0.000    0.000 
#    0.000    0.000    0.000    0.000    0.000    0.000 
#
# Total GULP energy -312076.732945 kJ/mol
# GULP energy per Si atom -5572.798803 kJ/mol
# Density = 1.034677 g / cm^3
# Si number density = 10.370370 Si / 1000 Ang^3
#
#
#
# Elastic Constant Matrix: (Units=GPa)
#
#
# Indices 1 2 3 4 5 6 
#
# 1 163.5775 26.4671 33.2091 0.0000 0.0000 0.0000
# 2 26.4671 61.1791 7.5177 0.0000 0.0000 0.0000
# 3 33.2091 7.5177 91.8764 0.0000 0.0000 0.0000
# 4 0.0000 0.0000 0.0000 23.1569 0.0000 0.0000
# 5 0.0000 0.0000 0.0000 0.0000 34.4214 0.0000
# 6 0.0000 0.0000 0.0000 0.0000 0.0000 29.9157
#
#
#
# Elastic Compliance Matrix: (Units=1/GPa)
#
#
# Indices 1 2 3 4 5 6 
#
# 1 0.007029 -0.002757 -0.002315 0.000000 0.000000 0.000000
# 2 -0.002757 0.017592 -0.000443 0.000000 0.000000 0.000000
# 3 -0.002315 -0.000443 0.011757 0.000000 0.000000 0.000000
# 4 0.000000 0.000000 0.000000 0.043184 0.000000 0.000000
# 5 0.000000 0.000000 0.000000 0.000000 0.029052 0.000000
# 6 0.000000 0.000000 0.000000 0.000000 0.000000 0.033427
#
#
# Mechanical properties :
#
#
# Convention : Reuss Voigt Hill
#
# Bulk Modulus (GPa) = 39.44882 50.11342 44.78112
# Shear Modulus (GPa) = 30.95568 34.12808 32.54188
#
# Velocity S-wave (km/s) = 3.86749 4.06083 3.96534
# Velocity P-wave (km/s) = 6.24536 6.79716 6.52709
#
# Compressibility (1/GPa) = 0.02534930
#
# Stress axis : x y z
#
# Youngs Moduli (GPa) = 142.26056 56.84266 85.05359
#
# Poissons Ratio (x) = 0.15669 0.19692
# Poissons Ratio (y) = 0.39214 0.03769
# Poissons Ratio (z) = 0.32937 0.02519
#
# Static dielectric constant tensor:
#      x y z
#    x 1.749420 0.000000 0.000000 
#    y 0.000000 1.787990 0.000000 
#    z 0.000000 0.000000 1.805760 
# 
# From -- ./inp_files/38562.got.cif
#   From: 2010.05.17/outbox.ucp.g08.bks.cvg/sg63_20_cif.got.tgz:38562.got - 2010.06.11 16:32:19.
