data_PCOD9476692
_publ_section_title
;
Structure prediction by ZEFSAII (Michael W. Deem and Ramdas Pophale) SiO2 
 PCOD9476692
Probable space group: C M C A
;
_chemical_formula_sum "Si O2"
_cell_formula_units_Z 128
_cell_length_a 17.104924
_cell_length_b 19.640114
_cell_length_c 23.869547
_cell_angle_alpha 90.000000
_cell_angle_beta 90.000000
_cell_angle_gamma 90.000000
_cell_volume 8018.799048
_symmetry_space_group_name_H-M "C M C A"
_symmetry_group_IT_number 64
_symmetry_cell_setting 'orthorhombic'
loop_
_space_group_symop_operation_xyz
x,y,z
-x,1/2-y,1/2+z
x,-y,-z
-x,1/2+y,1/2-z
-x,-y,-z
x,1/2+y,1/2-z
-x,y,z
x,1/2-y,1/2+z
1/2+x,1/2+y,z
1/2-x,-y,1/2+z
1/2+x,1/2-y,-z
1/2-x,y,1/2-z
1/2-x,1/2-y,-z
1/2+x,y,1/2-z
1/2-x,1/2+y,z
1/2+x,-y,1/2+z
loop_
_atom_site_type_symbol
_atom_site_label
_atom_site_fract_x
_atom_site_fract_y
_atom_site_fract_z
Si Si1 0.593649 0.491552 0.256211
Si Si2 0.170575 0.776354 0.667615
Si Si3 0.342566 0.152454 0.738543
Si Si4 0.094394 0.640643 0.068369
Si Si5 0.854611 0.246293 0.658349
Si Si6 0.405635 0.348756 0.438857
Si Si7 0.090799 0.141378 0.233035
Si Si8 0.094842 0.492789 0.113811
O O1 0.500000 0.485190 0.256033
O O2 0.628180 0.423362 0.230662
O O3 0.613688 0.562698 0.226887
O O4 0.619287 0.495351 0.321304
O O5 0.139896 0.702186 0.686757
O O6 0.134102 0.808399 0.612172
O O7 0.263649 0.767081 0.662977
O O8 0.144967 0.824674 0.719373
O O9 0.250000 0.151108 0.750000
O O10 0.375715 0.189145 0.794462
O O11 0.117838 0.562812 0.083393
O O12 0.000000 0.644720 0.074483
O O13 0.114703 0.656297 0.004171
O O14 0.872832 0.211695 0.599428
O O15 0.900750 0.313463 0.677490
O O16 0.500000 0.347204 0.434511
O O17 0.379145 0.422524 0.414990
O O18 0.000000 0.143325 0.252423
O O19 0.000000 0.491778 0.112739
#
# Coordination Sequence:
#
# PCOD9476692 Si02
#       8
#    16  16  16  16  16  16  16  16
#     4  10  18  29  49  73  94 123 157 189 237 289
#     4  10  20  33  47  69  99 129 161 196 234 284
#     4   9  19  32  46  67  96 127 156 192 231 281
#     4  10  19  32  50  73  97 126 162 196 238 285
#     4  10  20  33  47  70  99 128 163 194 235 283
#     4  10  19  31  51  73  96 128 161 196 239 284
#     4  10  19  32  50  71  98 126 158 199 236 282
#     4   9  16  29  47  73 100 120 152 196 238 287
#
# _framework density 15.962489
#
# number of rings (size 3 to 8) (size 9 to 14) (size 15 to 20)
#    0.000    2.250    2.500    2.250    0.000    5.500 
#    0.000    0.000    0.000    0.000    0.000    0.875 
#    0.000    4.000    0.000    0.000    0.000    0.250 
#
# Total GULP energy -356700.722055 kJ/mol
# GULP energy per Si atom -5573.448782 kJ/mol
# Density = 1.592616 g / cm^3
# Si number density = 15.962489 Si / 1000 Ang^3
#
#
#
# Elastic Constant Matrix: (Units=GPa)
#
#
# Indices 1 2 3 4 5 6 
#
# 1 23.2812 31.8405 18.9969 0.0000 0.0000 0.0000
# 2 31.8405 153.5008 67.4979 0.0000 0.0000 0.0000
# 3 18.9969 67.4979 83.2885 0.0000 0.0000 0.0000
# 4 0.0000 0.0000 0.0000 22.6955 0.0000 0.0000
# 5 0.0000 0.0000 0.0000 0.0000 14.8800 0.0000
# 6 0.0000 0.0000 0.0000 0.0000 0.0000 -9.9600
#
#
#
# Elastic Compliance Matrix: (Units=1/GPa)
#
#
# Indices 1 2 3 4 5 6 
#
# 1 0.061687 -0.010268 -0.005749 0.000000 0.000000 0.000000
# 2 -0.010268 0.011831 -0.007246 0.000000 0.000000 0.000000
# 3 -0.005749 -0.007246 0.019190 0.000000 0.000000 0.000000
# 4 0.000000 0.000000 0.000000 0.044062 0.000000 0.000000
# 5 0.000000 0.000000 0.000000 0.000000 0.067204 0.000000
# 6 0.000000 0.000000 0.000000 0.000000 0.000000 -0.100401
#
#
# Mechanical properties :
#
#
# Convention : Reuss Voigt Hill
#
# Bulk Modulus (GPa) = 21.65324 55.19347 38.42336
# Shear Modulus (GPa) = 30.21331 14.97210 22.59271
#
# Velocity S-wave (km/s) = 4.35532 3.06593 3.76621
# Velocity P-wave (km/s) = 6.23588 6.86915 6.56016
#
# Compressibility (1/GPa) = 0.04618247
#
# Stress axis : x y z
#
# Youngs Moduli (GPa) = 16.21097 84.52691 52.11139
#
# Poissons Ratio (x) = 0.86790 0.29958
# Poissons Ratio (y) = 0.16645 0.37758
# Poissons Ratio (z) = 0.09319 0.61246
#
# Static dielectric constant tensor:
#      x y z
#    x 1.538840 0.000000 0.000000 
#    y 0.000000 1.544410 0.000000 
#    z 0.000000 0.000000 1.526080 
# 
# From -- ./inp_files/46024.got.cif
#   From: 2010.05.17/outbox.cif.g08.bks.cpg/sg64_24_cif.got.tgz:46024.got - 2010.06.03 16:29:19.
