data_PCOD9476737
_publ_section_title
;
Structure prediction by ZEFSAII (Michael W. Deem and Ramdas Pophale) SiO2 
 PCOD9476737
Probable space group: C M C A
;
_chemical_formula_sum "Si O2"
_cell_formula_units_Z 64
_cell_length_a 33.969184
_cell_length_b 13.610766
_cell_length_c 5.322936
_cell_angle_alpha 90.000000
_cell_angle_beta 90.000000
_cell_angle_gamma 90.000000
_cell_volume 2461.041440
_symmetry_space_group_name_H-M "C M C A"
_symmetry_group_IT_number 64
_symmetry_cell_setting 'orthorhombic'
loop_
_space_group_symop_operation_xyz
x,y,z
-x,1/2-y,1/2+z
x,-y,-z
-x,1/2+y,1/2-z
-x,-y,-z
x,1/2+y,1/2-z
-x,y,z
x,1/2-y,1/2+z
1/2+x,1/2+y,z
1/2-x,-y,1/2+z
1/2+x,1/2-y,-z
1/2-x,y,1/2-z
1/2-x,1/2-y,-z
1/2+x,y,1/2-z
1/2-x,1/2+y,z
1/2+x,-y,1/2+z
loop_
_atom_site_type_symbol
_atom_site_label
_atom_site_fract_x
_atom_site_fract_y
_atom_site_fract_z
Si Si1 0.825050 0.644071 0.122902
Si Si2 0.706940 0.366500 0.131537
Si Si3 0.587548 0.618328 0.476571
Si Si4 0.044297 0.880986 0.018256
O O1 0.802268 0.594685 0.354660
O O2 0.804203 0.750836 0.097587
O O3 0.871552 0.655623 0.145402
O O4 0.821013 0.595440 0.850782
O O5 0.750000 0.377048 0.250000
O O6 0.590969 0.500000 0.500000
O O7 0.574502 0.647808 0.758486
O O8 0.555521 0.646157 0.266556
O O9 0.000000 0.850808 0.084591
O O10 0.044963 0.000000 0.000000
#
# Coordination Sequence:
#
# PCOD9476737 Si02
#       4
#    16  16  16  16
#     4  10  18  30  49  74  99 122 153 205 249 279
#     4  10  19  33  53  75  92 120 168 212 238 267
#     4  10  19  30  47  74 102 127 155 193 246 299
#     4   9  17  30  47  68  96 129 165 199 230 275
#
# _framework density 26.00525
#
# number of rings (size 3 to 8) (size 9 to 14) (size 15 to 20)
#    0.000    2.250    0.000    6.000    0.000    3.000 
#    0.000    0.000    0.000    4.500    0.000   70.000 
#    0.000    0.000    0.000    0.000    0.000    0.000 
#
# Total GULP energy -178830.747450 kJ/mol
# GULP energy per Si atom -5588.460858 kJ/mol
# Density = 2.594606 g / cm^3
# Si number density = 26.005250 Si / 1000 Ang^3
#
#
#
# Elastic Constant Matrix: (Units=GPa)
#
#
# Indices 1 2 3 4 5 6 
#
# 1 122.7587 -4.9226 21.7751 0.0000 0.0000 0.0000
# 2 -4.9226 93.3760 0.7220 0.0000 0.0000 0.0000
# 3 21.7751 0.7220 192.4293 0.0000 0.0000 0.0000
# 4 0.0000 0.0000 0.0000 -6.0805 0.0000 0.0000
# 5 0.0000 0.0000 0.0000 0.0000 51.3828 0.0000
# 6 0.0000 0.0000 0.0000 0.0000 0.0000 31.5379
#
#
#
# Elastic Compliance Matrix: (Units=1/GPa)
#
#
# Indices 1 2 3 4 5 6 
#
# 1 0.008331 0.000447 -0.000944 0.000000 0.000000 0.000000
# 2 0.000447 0.010734 -0.000091 0.000000 0.000000 0.000000
# 3 -0.000944 -0.000091 0.005304 0.000000 0.000000 0.000000
# 4 0.000000 0.000000 0.000000 -0.164461 0.000000 0.000000
# 5 0.000000 0.000000 0.000000 0.000000 0.019462 0.000000
# 6 0.000000 0.000000 0.000000 0.000000 0.000000 0.031708
#
#
# Mechanical properties :
#
#
# Convention : Reuss Voigt Hill
#
# Bulk Modulus (GPa) = 43.11908 49.30144 46.21026
# Shear Modulus (GPa) = -62.48857 41.43404 -10.52727
#
# Velocity S-wave (km/s) = -4.90728 3.99594 -2.01418
# Velocity P-wave (km/s) = 3.93594 6.34740 3.52121
#
# Compressibility (1/GPa) = 0.02319159
#
# Stress axis : x y z
#
# Youngs Moduli (GPa) = 120.02648 93.16509 188.53948
#
# Poissons Ratio (x) = -0.04160 0.17807
# Poissons Ratio (y) = -0.05359 0.01712
# Poissons Ratio (z) = 0.11336 0.00846
#
# Static dielectric constant tensor:
#      x y z
#    x 2.018490 0.000000 0.000000 
#    y 0.000000 1.588320 0.000000 
#    z 0.000000 0.000000 2.070780 
# 
# From -- ./inp_files/2237.got.cif
#   From: 2010.05.17/outbox.cif.g08.bks.cpg/sg64_2_cif.got.tgz:2237.got - 2010.06.03 16:29:19.
