data_PCOD9476439
_publ_section_title
;
Structure prediction by ZEFSAII (Michael W. Deem and Ramdas Pophale) SiO2 
 PCOD9476439
Probable space group: C M C A
;
_chemical_formula_sum "Si O2"
_cell_formula_units_Z 96
_cell_length_a 8.485793
_cell_length_b 19.559633
_cell_length_c 32.708741
_cell_angle_alpha 90.000000
_cell_angle_beta 90.000000
_cell_angle_gamma 90.000000
_cell_volume 5428.964018
_symmetry_space_group_name_H-M "C M C A"
_symmetry_group_IT_number 64
_symmetry_cell_setting 'orthorhombic'
loop_
_space_group_symop_operation_xyz
x,y,z
-x,1/2-y,1/2+z
x,-y,-z
-x,1/2+y,1/2-z
-x,-y,-z
x,1/2+y,1/2-z
-x,y,z
x,1/2-y,1/2+z
1/2+x,1/2+y,z
1/2-x,-y,1/2+z
1/2+x,1/2-y,-z
1/2-x,y,1/2-z
1/2-x,1/2-y,-z
1/2+x,y,1/2-z
1/2-x,1/2+y,z
1/2+x,-y,1/2+z
loop_
_atom_site_type_symbol
_atom_site_label
_atom_site_fract_x
_atom_site_fract_y
_atom_site_fract_z
Si Si1 0.311956 0.666734 0.122423
Si Si2 0.809419 0.577718 0.047864
Si Si3 0.813043 0.671963 0.208170
Si Si4 0.812429 0.672104 0.792444
Si Si5 0.192264 0.174535 0.618291
Si Si6 0.691761 0.581196 0.544026
O O1 0.500000 0.666843 0.127318
O O2 0.262733 0.622203 0.083789
O O3 0.236786 0.640469 0.164860
O O4 0.260619 0.745832 0.115668
O O5 0.765270 0.497769 0.051720
O O6 0.000000 0.581880 0.050072
O O7 0.759818 0.600307 0.002119
O O8 0.750000 0.638516 0.250000
O O9 0.737530 0.748035 0.207284
O O10 0.000000 0.678118 0.210576
O O11 0.750000 0.641494 0.750000
O O12 0.758503 0.646121 0.837025
O O13 0.000000 0.668728 0.791122
O O14 0.248827 0.130521 0.579954
O O15 0.000000 0.173353 0.617726
O O16 0.500000 0.583223 0.544117
#
# Coordination Sequence:
#
# PCOD9476439 Si02
#       6
#    16  16  16  16  16  16
#     4  10  19  30  45  68  97 124 151 186 229 275
#     4   9  17  30  50  70  87 116 157 197 234 277
#     4  10  17  27  44  66  93 122 153 187 224 268
#     4   9  15  24  40  63  91 121 150 181 222 269
#     4   8  15  27  44  66  91 120 151 186 229 273
#     4   8  15  30  49  67  88 117 157 196 232 280
#
# _framework density 17.682929999999999
#
# number of rings (size 3 to 8) (size 9 to 14) (size 15 to 20)
#    0.000    3.000    0.000    5.500    0.000    0.667 
#    0.000    1.667    0.000   12.000    0.000    2.333 
#    0.000    0.000    0.000    0.000    0.000    0.000 
#
# Total GULP energy -267244.081845 kJ/mol
# GULP energy per Si atom -5567.585038 kJ/mol
# Density = 1.764268 g / cm^3
# Si number density = 17.682930 Si / 1000 Ang^3
#
#
#
# Elastic Constant Matrix: (Units=GPa)
#
#
# Indices 1 2 3 4 5 6 
#
# 1 29.9319 10.3518 30.0082 0.0000 0.0000 0.0000
# 2 10.3518 35.7092 66.3993 0.0000 0.0000 0.0000
# 3 30.0082 66.3993 212.6397 0.0000 0.0000 0.0000
# 4 0.0000 0.0000 0.0000 -10.3263 0.0000 0.0000
# 5 0.0000 0.0000 0.0000 0.0000 50.4785 0.0000
# 6 0.0000 0.0000 0.0000 0.0000 0.0000 6.7401
#
#
#
# Elastic Compliance Matrix: (Units=1/GPa)
#
#
# Indices 1 2 3 4 5 6 
#
# 1 0.039013 -0.002557 -0.004707 0.000000 0.000000 0.000000
# 2 -0.002557 0.066944 -0.020543 0.000000 0.000000 0.000000
# 3 -0.004707 -0.020543 0.011782 0.000000 0.000000 0.000000
# 4 0.000000 0.000000 0.000000 -0.096840 0.000000 0.000000
# 5 0.000000 0.000000 0.000000 0.000000 0.019810 0.000000
# 6 0.000000 0.000000 0.000000 0.000000 0.000000 0.148366
#
#
# Mechanical properties :
#
#
# Convention : Reuss Voigt Hill
#
# Bulk Modulus (GPa) = 16.09668 54.64437 35.37053
# Shear Modulus (GPa) = 18.83961 20.81322 19.82641
#
# Velocity S-wave (km/s) = 3.26761 3.43450 3.35209
# Velocity P-wave (km/s) = 4.83312 6.83353 5.91845
#
# Compressibility (1/GPa) = 0.06212459
#
# Stress axis : x y z
#
# Youngs Moduli (GPa) = 25.63278 14.93776 84.87514
#
# Poissons Ratio (x) = 0.03819 0.39953
# Poissons Ratio (y) = 0.06553 1.74363
# Poissons Ratio (z) = 0.12066 0.30687
#
# Static dielectric constant tensor:
#      x y z
#    x 1.599510 0.000000 0.000000 
#    y 0.000000 1.577360 0.000000 
#    z 0.000000 0.000000 1.659650 
# 
# From -- ./inp_files/43020.got.cif
#   From: 2010.05.17/outbox.cif.g08.bks.cpg/sg64_22_cif.got.tgz:43020.got - 2010.06.03 16:29:19.
