data_PCOD9476294
_publ_section_title
;
Structure prediction by ZEFSAII (Michael W. Deem and Ramdas Pophale) SiO2 
 PCOD9476294
Probable space group: C M C A
;
_chemical_formula_sum "Si O2"
_cell_formula_units_Z 128
_cell_length_a 15.380375
_cell_length_b 17.212373
_cell_length_c 22.018493
_cell_angle_alpha 90.000000
_cell_angle_beta 90.000000
_cell_angle_gamma 90.000000
_cell_volume 5829.016233
_symmetry_space_group_name_H-M "C M C A"
_symmetry_group_IT_number 64
_symmetry_cell_setting 'orthorhombic'
loop_
_space_group_symop_operation_xyz
x,y,z
-x,1/2-y,1/2+z
x,-y,-z
-x,1/2+y,1/2-z
-x,-y,-z
x,1/2+y,1/2-z
-x,y,z
x,1/2-y,1/2+z
1/2+x,1/2+y,z
1/2-x,-y,1/2+z
1/2+x,1/2-y,-z
1/2-x,y,1/2-z
1/2-x,1/2-y,-z
1/2+x,y,1/2-z
1/2-x,1/2+y,z
1/2+x,-y,1/2+z
loop_
_atom_site_type_symbol
_atom_site_label
_atom_site_fract_x
_atom_site_fract_y
_atom_site_fract_z
Si Si1 0.646787 0.989674 0.132971
Si Si2 0.365231 0.368416 0.555287
Si Si3 0.145224 0.911567 0.747499
Si Si4 0.635282 0.337260 0.421755
Si Si5 0.340543 0.645542 0.913232
Si Si6 0.404563 0.768377 0.828031
Si Si7 0.157871 0.331666 0.549160
Si Si8 0.143780 0.519073 0.374527
O O1 0.609207 0.903218 0.125951
O O2 0.626224 0.041843 0.074068
O O3 0.614714 0.032410 0.193314
O O4 0.752533 0.000399 0.135409
O O5 0.400781 0.353762 0.488698
O O6 0.405168 0.322347 0.611667
O O7 0.263574 0.339394 0.554335
O O8 0.250000 0.912950 0.750000
O O9 0.122590 0.823975 0.727043
O O10 0.112116 0.945109 0.811073
O O11 0.737825 0.358372 0.425842
O O12 0.629097 0.244667 0.413307
O O13 0.347850 0.697658 0.852867
O O14 0.386386 0.564032 0.898852
O O15 0.371640 0.677393 0.978960
O O16 0.500000 0.737519 0.815785
O O17 0.128470 0.413438 0.576520
#
# Coordination Sequence:
#
# PCOD9476294 Si02
#       8
#    16  16  16  16  16  16  16  16
#     4   8  16  26  47  73 110 138 175 225 282 331
#     4   9  15  29  46  75 110 141 175 218 278 340
#     4   9  19  37  53  76 107 142 188 235 278 323
#     4  10  15  25  49  82 111 137 173 226 288 335
#     4  10  18  32  50  83 112 138 180 225 285 345
#     4  11  21  35  56  80 110 151 190 228 279 341
#     4  10  16  28  53  84 112 136 169 231 294 335
#     4   9  18  31  50  75 106 142 181 230 278 330
#
# _framework density 21.959109000000002
#
# number of rings (size 3 to 8) (size 9 to 14) (size 15 to 20)
#    0.000    2.500    2.500    2.250    0.000    3.000 
#    2.250    1.250    0.000    8.250    0.000    0.000 
#    0.000    0.000    0.000    0.000    0.000    0.000 
#
# Total GULP energy -356379.790579 kJ/mol
# GULP energy per Si atom -5568.434228 kJ/mol
# Density = 2.190913 g / cm^3
# Si number density = 21.959109 Si / 1000 Ang^3
#
#
#
# Elastic Constant Matrix: (Units=GPa)
#
#
# Indices 1 2 3 4 5 6 
#
# 1 36.0910 1.2203 5.5400 0.0000 0.0000 0.0000
# 2 1.2203 130.0644 36.7486 0.0000 0.0000 0.0000
# 3 5.5400 36.7486 65.7348 0.0000 0.0000 0.0000
# 4 0.0000 0.0000 0.0000 26.7351 0.0000 0.0000
# 5 0.0000 0.0000 0.0000 0.0000 -23.9791 0.0000
# 6 0.0000 0.0000 0.0000 0.0000 0.0000 -57.0565
#
#
#
# Elastic Compliance Matrix: (Units=1/GPa)
#
#
# Indices 1 2 3 4 5 6 
#
# 1 0.028096 0.000481 -0.002637 0.000000 0.000000 0.000000
# 2 0.000481 0.009139 -0.005150 0.000000 0.000000 0.000000
# 3 -0.002637 -0.005150 0.018314 0.000000 0.000000 0.000000
# 4 0.000000 0.000000 0.000000 0.037404 0.000000 0.000000
# 5 0.000000 0.000000 0.000000 0.000000 -0.041703 0.000000
# 6 0.000000 0.000000 0.000000 0.000000 0.000000 -0.017526
#
#
# Mechanical properties :
#
#
# Convention : Reuss Voigt Hill
#
# Bulk Modulus (GPa) = 24.42688 35.43422 29.93055
# Shear Modulus (GPa) = 80.67094 1.69866 41.18480
#
# Velocity S-wave (km/s) = 6.06767 0.88047 4.33543
# Velocity P-wave (km/s) = 7.76124 4.14791 6.22262
#
# Compressibility (1/GPa) = 0.04093850
#
# Stress axis : x y z
#
# Youngs Moduli (GPa) = 35.59195 109.42148 54.60370
#
# Poissons Ratio (x) = -0.05268 0.14399
# Poissons Ratio (y) = -0.01714 0.28119
# Poissons Ratio (z) = 0.09386 0.56348
#
# Static dielectric constant tensor:
#      x y z
#    x 1.855520 0.000000 0.000000 
#    y 0.000000 1.855420 0.000000 
#    z 0.000000 0.000000 1.799840 
# 
# From -- ./inp_files/46011.got.cif
#   From: 2010.05.17/outbox.cif.g08.bks.cpg/sg64_24_cif.got.tgz:46011.got - 2010.06.03 16:29:19.
