data_PCOD9476237
_publ_section_title
;
Structure prediction by ZEFSAII (Michael W. Deem and Ramdas Pophale) SiO2 
 PCOD9476237
Probable space group: C M C M
;
_chemical_formula_sum "Si O2"
_cell_formula_units_Z 48
_cell_length_a 9.000000
_cell_length_b 21.000000
_cell_length_c 27.000000
_cell_angle_alpha 90.000000
_cell_angle_beta 90.000000
_cell_angle_gamma 90.000000
_cell_volume 5103.000000
_symmetry_space_group_name_H-M "C M C M"
_symmetry_group_IT_number 63
_symmetry_cell_setting 'orthorhombic'
loop_
_space_group_symop_operation_xyz
x,y,z
-x,-y,1/2+z
x,-y,-z
-x,y,1/2-z
-x,-y,-z
x,y,1/2-z
-x,y,z
x,-y,1/2+z
1/2+x,1/2+y,z
1/2-x,1/2-y,1/2+z
1/2+x,1/2-y,-z
1/2-x,1/2+y,1/2-z
1/2-x,1/2-y,-z
1/2+x,1/2+y,1/2-z
1/2-x,1/2+y,z
1/2+x,1/2-y,1/2+z
loop_
_atom_site_type_symbol
_atom_site_label
_atom_site_fract_x
_atom_site_fract_y
_atom_site_fract_z
Si Si1 0.328712 0.697513 0.809525
Si Si2 0.176160 0.936423 0.531613
Si Si3 0.821480 0.691575 0.470982
Si Si4 0.670490 0.447343 0.309546
Si Si5 0.323829 0.061686 0.360800
Si Si6 0.823565 0.811369 0.637776
O O1 0.323074 0.699078 0.750000
O O2 0.500000 0.711765 0.824183
O O3 0.295245 0.625042 0.825376
O O4 0.219489 0.749299 0.831561
O O5 0.258524 0.875376 0.508456
O O6 0.251181 0.946175 0.585000
O O7 0.000000 0.923135 0.536968
O O8 0.193653 0.000000 0.500000
O O9 0.750000 0.750000 0.500000
O O10 0.758305 0.694514 0.415134
O O11 0.000000 0.693115 0.471680
O O12 0.672981 0.448348 0.250000
O O13 0.500000 0.461888 0.325219
O O14 0.781254 0.499323 0.330424
O O15 0.500000 0.071107 0.364426
O O16 0.245475 0.124614 0.338614
O O17 0.000000 0.817578 0.631728
#
# Coordination Sequence:
#
# PCOD9476237 Si02
#       6
#    16  16  16  16  16  16
#     4   9  19  37  59  82 110 144 182 225 274 326
#     4  10  21  38  59  82 110 144 181 223 271 323
#     4  11  22  38  59  82 111 144 182 226 271 322
#     4   9  19  37  59  81 108 143 181 223 271 323
#     4  11  22  36  56  81 111 145 181 225 271 319
#     4  11  22  37  57  81 111 145 183 226 272 323
#
# _framework density 9.4062319999999993
#
# number of rings (size 3 to 8) (size 9 to 14) (size 15 to 20)
#    0.000    1.833    0.000    8.000    0.000    4.667 
#    0.000    3.333    0.000    0.000    0.000    0.000 
#    0.000    0.000    0.000    0.000    0.000    0.000 
#
# Total GULP energy -268000.247089 kJ/mol
# GULP energy per Si atom -5583.338481 kJ/mol
# Density = 0.938482 g / cm^3
# Si number density = 9.406232 Si / 1000 Ang^3
#
#
#
# Elastic Constant Matrix: (Units=GPa)
#
#
# Indices 1 2 3 4 5 6 
#
# 1 179.7123 88.9211 30.7805 0.0000 0.0000 0.0000
# 2 88.9211 133.2305 36.6534 0.0000 0.0000 0.0000
# 3 30.7805 36.6534 19.7274 0.0000 0.0000 0.0000
# 4 0.0000 0.0000 0.0000 36.0402 0.0000 0.0000
# 5 0.0000 0.0000 0.0000 0.0000 27.1555 0.0000
# 6 0.0000 0.0000 0.0000 0.0000 0.0000 37.9618
#
#
#
# Elastic Compliance Matrix: (Units=1/GPa)
#
#
# Indices 1 2 3 4 5 6 
#
# 1 0.008604 -0.004192 -0.005636 0.000000 0.000000 0.000000
# 2 -0.004192 0.017397 -0.025782 0.000000 0.000000 0.000000
# 3 -0.005636 -0.025782 0.107388 0.000000 0.000000 0.000000
# 4 0.000000 0.000000 0.000000 0.027747 0.000000 0.000000
# 5 0.000000 0.000000 0.000000 0.000000 0.036825 0.000000
# 6 0.000000 0.000000 0.000000 0.000000 0.000000 0.026342
#
#
# Mechanical properties :
#
#
# Convention : Reuss Voigt Hill
#
# Bulk Modulus (GPa) = 16.08542 71.70890 43.89716
# Shear Modulus (GPa) = 15.81053 31.98585 23.89819
#
# Velocity S-wave (km/s) = 2.90216 4.12788 3.56805
# Velocity P-wave (km/s) = 4.44961 7.80511 6.35290
#
# Compressibility (1/GPa) = 0.06216810
#
# Stress axis : x y z
#
# Youngs Moduli (GPa) = 116.22617 57.48276 9.31205
#
# Poissons Ratio (x) = 0.24096 0.05248
# Poissons Ratio (y) = 0.48721 0.24008
# Poissons Ratio (z) = 0.65506 1.48202
#
# Static dielectric constant tensor:
#      x y z
#    x 1.628680 0.000000 0.000000 
#    y 0.000000 1.681530 0.000000 
#    z 0.000000 0.000000 1.651550 
# 
# From -- ./inp_files/66999.got.cif
#   From: 2010.05.17/outbox.ucp.g08.bks.cvg/sg63_34_cif.got.tgz:66999.got - 2010.06.11 16:32:19.
