data_PCOD9476069
_publ_section_title
;
Structure prediction by ZEFSAII (Michael W. Deem and Ramdas Pophale) SiO2 
 PCOD9476069
Probable space group: C M C M
;
_chemical_formula_sum "Si O2"
_cell_formula_units_Z 64
_cell_length_a 24.000000
_cell_length_b 18.000000
_cell_length_c 18.000000
_cell_angle_alpha 90.000000
_cell_angle_beta 90.000000
_cell_angle_gamma 90.000000
_cell_volume 7776.000000
_symmetry_space_group_name_H-M "C M C M"
_symmetry_group_IT_number 63
_symmetry_cell_setting 'orthorhombic'
loop_
_space_group_symop_operation_xyz
x,y,z
-x,-y,1/2+z
x,-y,-z
-x,y,1/2-z
-x,-y,-z
x,y,1/2-z
-x,y,z
x,-y,1/2+z
1/2+x,1/2+y,z
1/2-x,1/2-y,1/2+z
1/2+x,1/2-y,-z
1/2-x,1/2+y,1/2-z
1/2-x,1/2-y,-z
1/2+x,1/2+y,1/2-z
1/2-x,1/2+y,z
1/2+x,1/2-y,1/2+z
loop_
_atom_site_type_symbol
_atom_site_label
_atom_site_fract_x
_atom_site_fract_y
_atom_site_fract_z
Si Si1 0.661614 0.119619 0.579105
Si Si2 0.436386 0.107328 0.456673
Si Si3 0.721473 0.455404 0.430635
Si Si4 0.167592 0.160073 0.832736
Si Si5 0.437641 0.764561 0.666243
Si Si6 0.762401 0.408534 0.838213
Si Si7 0.621296 0.979764 0.663015
Si Si8 0.282395 0.252113 0.663230
O O1 0.612051 0.117114 0.518457
O O2 0.720139 0.085772 0.548000
O O3 0.677415 0.199776 0.613979
O O4 0.644826 0.061699 0.644369
O O5 0.500000 0.102332 0.486048
O O6 0.434146 0.175839 0.398898
O O7 0.423130 0.038639 0.401170
O O8 0.699458 0.500000 0.500000
O O9 0.678363 0.398587 0.396476
O O10 0.736000 0.516846 0.369399
O O11 0.167200 0.125791 0.750000
O O12 0.111567 0.206156 0.842014
O O13 0.221750 0.213005 0.835229
O O14 0.431368 0.797976 0.750000
O O15 0.500000 0.731700 0.663650
O O16 0.756838 0.404926 0.750000
O O17 0.828602 0.420056 0.851409
O O18 0.731636 0.334560 0.866936
O O19 0.604965 0.975335 0.750000
O O20 0.301462 0.255095 0.750000
#
# Coordination Sequence:
#
# PCOD9476069 Si02
#       8
#    16  16  16  16  16  16  16  16
#     4  10  20  33  47  68  98 128 157 193 239 282
#     4  11  22  34  48  67  93 125 161 199 237 277
#     4  10  19  30  45  69 100 128 155 188 230 282
#     4   9  17  30  49  72  96 122 153 189 230 276
#     4   9  18  33  52  73  96 122 154 192 233 277
#     4   9  17  30  48  70  95 123 154 190 235 281
#     4  10  19  32  49  67  92 125 160 197 235 276
#     4   9  17  30  50  73  95 121 154 191 232 280
#
# _framework density 8.2304530000000007
#
# number of rings (size 3 to 8) (size 9 to 14) (size 15 to 20)
#    0.000    2.375    0.000    3.750    0.000    7.750 
#    0.000    3.125    0.000    1.500    0.000    0.875 
#    0.000    1.000    0.000    0.000    0.000    0.000 
#
# Total GULP energy -356602.392837 kJ/mol
# GULP energy per Si atom -5571.912388 kJ/mol
# Density = 0.821172 g / cm^3
# Si number density = 8.230453 Si / 1000 Ang^3
#
#
#
# Elastic Constant Matrix: (Units=GPa)
#
#
# Indices 1 2 3 4 5 6 
#
# 1 81.2343 35.8882 44.6405 0.0000 0.0000 0.0000
# 2 35.8882 62.3480 27.3385 0.0000 0.0000 0.0000
# 3 44.6405 27.3385 53.4343 0.0000 0.0000 0.0000
# 4 0.0000 0.0000 0.0000 14.0189 0.0000 0.0000
# 5 0.0000 0.0000 0.0000 0.0000 5.0261 0.0000
# 6 0.0000 0.0000 0.0000 0.0000 0.0000 34.2772
#
#
#
# Elastic Compliance Matrix: (Units=1/GPa)
#
#
# Indices 1 2 3 4 5 6 
#
# 1 0.024741 -0.006676 -0.017254 0.000000 0.000000 0.000000
# 2 -0.006676 0.022479 -0.005924 0.000000 0.000000 0.000000
# 3 -0.017254 -0.005924 0.036160 0.000000 0.000000 0.000000
# 4 0.000000 0.000000 0.000000 0.071332 0.000000 0.000000
# 5 0.000000 0.000000 0.000000 0.000000 0.198963 0.000000
# 6 0.000000 0.000000 0.000000 0.000000 0.000000 0.029174
#
#
# Mechanical properties :
#
#
# Convention : Reuss Voigt Hill
#
# Bulk Modulus (GPa) = 42.24219 45.86123 44.05171
# Shear Modulus (GPa) = 11.10012 16.60771 13.85391
#
# Velocity S-wave (km/s) = 2.59961 3.17979 2.90423
# Velocity P-wave (km/s) = 5.89309 6.43449 6.16973
#
# Compressibility (1/GPa) = 0.02367302
#
# Stress axis : x y z
#
# Youngs Moduli (GPa) = 40.41944 44.48582 27.65517
#
# Poissons Ratio (x) = 0.29697 0.47715
# Poissons Ratio (y) = 0.26982 0.16383
# Poissons Ratio (z) = 0.69738 0.26353
#
# Static dielectric constant tensor:
#      x y z
#    x 1.549490 0.000000 0.000000 
#    y 0.000000 1.587090 0.000000 
#    z 0.000000 0.000000 1.583490 
# 
# From -- ./inp_files/48449.got.cif
#   From: 2010.05.17/outbox.ucp.g08.bks.cvg/sg63_25_cif.got.tgz:48449.got - 2010.06.11 16:32:19.
