data_PCOD9476765
_publ_section_title
;
Structure prediction by ZEFSAII (Michael W. Deem and Ramdas Pophale) SiO2 
 PCOD9476765
Probable space group: C M C A
;
_chemical_formula_sum "Si O2"
_cell_formula_units_Z 104
_cell_length_a 16.230976
_cell_length_b 10.543841
_cell_length_c 26.751996
_cell_angle_alpha 90.000000
_cell_angle_beta 90.000000
_cell_angle_gamma 90.000000
_cell_volume 4578.251797
_symmetry_space_group_name_H-M "C M C A"
_symmetry_group_IT_number 64
_symmetry_cell_setting 'orthorhombic'
loop_
_space_group_symop_operation_xyz
x,y,z
-x,1/2-y,1/2+z
x,-y,-z
-x,1/2+y,1/2-z
-x,-y,-z
x,1/2+y,1/2-z
-x,y,z
x,1/2-y,1/2+z
1/2+x,1/2+y,z
1/2-x,-y,1/2+z
1/2+x,1/2-y,-z
1/2-x,y,1/2-z
1/2-x,1/2-y,-z
1/2+x,y,1/2-z
1/2-x,1/2+y,z
1/2+x,-y,1/2+z
loop_
_atom_site_type_symbol
_atom_site_label
_atom_site_fract_x
_atom_site_fract_y
_atom_site_fract_z
Si Si1 0.242495 0.736791 0.580415
Si Si2 0.356100 0.071020 0.377308
Si Si3 0.000000 0.641861 0.720213
Si Si4 0.368674 0.318382 0.673995
Si Si5 0.091554 0.112638 0.959853
Si Si6 0.750000 0.236116 0.750000
Si Si7 0.000000 0.651860 0.307973
Si Si8 0.802718 0.941685 0.340107
O O1 0.308235 0.849700 0.579513
O O2 0.182312 0.777494 0.625818
O O3 0.175837 0.696617 0.538745
O O4 0.295770 0.623767 0.605401
O O5 0.401553 0.959377 0.406647
O O6 0.420460 0.148874 0.344204
O O7 0.283765 0.019949 0.341494
O O8 0.073651 0.702262 0.687884
O O9 0.000000 0.727092 0.771075
O O10 0.000000 0.488189 0.720251
O O11 0.316057 0.324102 0.724264
O O12 0.382360 0.467505 0.664059
O O13 0.000000 0.175338 0.963236
O O14 0.092934 0.000000 0.000000
O O15 0.792044 0.151963 0.706595
#
# Coordination Sequence:
#
# PCOD9476765 Si02
#       8
#    16  16   8  16  16   8   8  16
#     4   9  20  37  61  85 119 159 202 250 319 378
#     4  10  21  40  59  86 120 160 204 262 317 379
#     4  12  28  36  54  84 118 167 215 273 315 376
#     4  10  22  33  52  76 110 157 206 255 303 361
#     4  10  20  37  65  96 125 156 198 260 325 399
#     4  10  18  30  52  66 104 142 202 246 296 356
#     4  12  26  40  57  84 129 167 218 269 322 374
#     4   9  19  33  52  73 107 148 200 244 302 359
#
# _framework density 22.716093999999998
#
# number of rings (size 3 to 8) (size 9 to 14) (size 15 to 20)
#    0.000    2.000    0.769    3.231   11.846    0.615 
#    0.000    0.000    0.000    0.000    0.000    0.538 
#    0.000    0.000    0.000    0.000    0.000    0.000 
#
# Total GULP energy -289531.053811 kJ/mol
# GULP energy per Si atom -5567.904881 kJ/mol
# Density = 2.266439 g / cm^3
# Si number density = 22.716094 Si / 1000 Ang^3
#
#
#
# Elastic Constant Matrix: (Units=GPa)
#
#
# Indices 1 2 3 4 5 6 
#
# 1 68.2067 18.4458 7.7714 0.0000 0.0000 0.0000
# 2 18.4458 62.5908 -1.3375 0.0000 0.0000 0.0000
# 3 7.7714 -1.3375 48.0993 0.0000 0.0000 0.0000
# 4 0.0000 0.0000 0.0000 21.2322 0.0000 0.0000
# 5 0.0000 0.0000 0.0000 0.0000 15.2264 0.0000
# 6 0.0000 0.0000 0.0000 0.0000 0.0000 27.2331
#
#
#
# Elastic Compliance Matrix: (Units=1/GPa)
#
#
# Indices 1 2 3 4 5 6 
#
# 1 0.016291 -0.004860 -0.002767 0.000000 0.000000 0.000000
# 2 -0.004860 0.017436 0.001270 0.000000 0.000000 0.000000
# 3 -0.002767 0.001270 0.021273 0.000000 0.000000 0.000000
# 4 0.000000 0.000000 0.000000 0.047098 0.000000 0.000000
# 5 0.000000 0.000000 0.000000 0.000000 0.065675 0.000000
# 6 0.000000 0.000000 0.000000 0.000000 0.000000 0.036720
#
#
# Mechanical properties :
#
#
# Convention : Reuss Voigt Hill
#
# Bulk Modulus (GPa) = 23.64886 25.40624 24.52755
# Shear Modulus (GPa) = 21.61663 23.00616 22.31140
#
# Velocity S-wave (km/s) = 3.08815 3.18586 3.13738
# Velocity P-wave (km/s) = 4.81132 4.97408 4.89337
#
# Compressibility (1/GPa) = 0.04228533
#
# Stress axis : x y z
#
# Youngs Moduli (GPa) = 61.38354 57.35182 47.00846
#
# Poissons Ratio (x) = 0.27874 0.13009
# Poissons Ratio (y) = 0.29833 -0.05971
# Poissons Ratio (z) = 0.16987 -0.07284
#
# Static dielectric constant tensor:
#      x y z
#    x 1.745880 0.000000 0.000000 
#    y 0.000000 1.972170 0.000000 
#    z 0.000000 0.000000 1.846590 
# 
# From -- ./inp_files/53646.got.cif
#   From: 2010.05.17/outbox.cif.g08.bks.cpg/sg64_27_cif.got.tgz:53646.got - 2010.06.03 16:29:19.
