data_PCOD9476889
_publ_section_title
;
Structure prediction by ZEFSAII (Michael W. Deem and Ramdas Pophale) SiO2 
 PCOD9476889
Probable space group: C M C A
;
_chemical_formula_sum "Si O2"
_cell_formula_units_Z 104
_cell_length_a 8.342720
_cell_length_b 22.630344
_cell_length_c 28.180909
_cell_angle_alpha 90.000000
_cell_angle_beta 90.000000
_cell_angle_gamma 90.000000
_cell_volume 5320.516828
_symmetry_space_group_name_H-M "C M C A"
_symmetry_group_IT_number 64
_symmetry_cell_setting 'orthorhombic'
loop_
_space_group_symop_operation_xyz
x,y,z
-x,1/2-y,1/2+z
x,-y,-z
-x,1/2+y,1/2-z
-x,-y,-z
x,1/2+y,1/2-z
-x,y,z
x,1/2-y,1/2+z
1/2+x,1/2+y,z
1/2-x,-y,1/2+z
1/2+x,1/2-y,-z
1/2-x,y,1/2-z
1/2-x,1/2-y,-z
1/2+x,y,1/2-z
1/2-x,1/2+y,z
1/2+x,-y,1/2+z
loop_
_atom_site_type_symbol
_atom_site_label
_atom_site_fract_x
_atom_site_fract_y
_atom_site_fract_z
Si Si1 0.307101 0.049064 0.401652
Si Si2 0.682313 0.133085 0.529808
Si Si3 0.306183 0.820386 0.568651
Si Si4 0.685330 0.634001 0.798580
Si Si5 0.187507 0.801935 0.386029
Si Si6 0.312359 0.496864 0.302907
Si Si7 0.259483 0.000000 0.500000
O O1 0.500000 0.040538 0.412011
O O2 0.270294 0.118985 0.403834
O O3 0.208871 0.018458 0.445279
O O4 0.270983 0.024846 0.349294
O O5 0.500000 0.151513 0.540769
O O6 0.749282 0.169758 0.485218
O O7 0.788795 0.147014 0.574902
O O8 0.674375 0.064898 0.513826
O O9 0.500000 0.817417 0.565678
O O10 0.252623 0.759765 0.592010
O O11 0.500000 0.617450 0.794133
O O12 0.750000 0.660723 0.750000
O O13 0.713638 0.678588 0.840846
O O14 0.782180 0.573482 0.806684
O O15 0.000000 0.796336 0.374002
O O16 0.500000 0.509867 0.305222
O O17 0.250000 0.514174 0.250000
#
# Coordination Sequence:
#
# PCOD9476889 Si02
#       7
#    16  16  16  16  16  16   8
#     4  10  18  34  57  82 111 149 188 225 267 323
#     4  10  18  32  53  79 107 144 186 224 267 323
#     4   8  18  34  53  76 110 150 188 223 264 317
#     4  11  22  38  58  81 105 135 173 221 273 327
#     4  11  21  35  53  78 109 145 184 227 272 320
#     4  11  22  38  59  86 114 144 179 224 276 330
#     4  10  19  32  55  82 111 144 183 224 273 332
#
# _framework density 19.546973000000001
#
# number of rings (size 3 to 8) (size 9 to 14) (size 15 to 20)
#    0.000    1.846    0.000    7.846    0.000    0.000 
#    0.000    6.923    0.000    0.000    0.000    0.000 
#    0.000    0.000    0.000    0.000    0.000    0.000 
#
# Total GULP energy -289664.323350 kJ/mol
# GULP energy per Si atom -5570.467757 kJ/mol
# Density = 1.950248 g / cm^3
# Si number density = 19.546973 Si / 1000 Ang^3
#
#
#
# Elastic Constant Matrix: (Units=GPa)
#
#
# Indices 1 2 3 4 5 6 
#
# 1 40.3311 6.8345 13.1297 0.0000 0.0000 0.0000
# 2 6.8345 65.8858 47.5735 0.0000 0.0000 0.0000
# 3 13.1297 47.5735 138.1481 0.0000 0.0000 0.0000
# 4 0.0000 0.0000 0.0000 28.5973 0.0000 0.0000
# 5 0.0000 0.0000 0.0000 0.0000 -14.9787 0.0000
# 6 0.0000 0.0000 0.0000 0.0000 0.0000 161.5624
#
#
#
# Elastic Compliance Matrix: (Units=1/GPa)
#
#
# Indices 1 2 3 4 5 6 
#
# 1 0.025657 -0.001199 -0.002026 0.000000 0.000000 0.000000
# 2 -0.001199 0.020257 -0.006862 0.000000 0.000000 0.000000
# 3 -0.002026 -0.006862 0.009794 0.000000 0.000000 0.000000
# 4 0.000000 0.000000 0.000000 0.034968 0.000000 0.000000
# 5 0.000000 0.000000 0.000000 0.000000 -0.066762 0.000000
# 6 0.000000 0.000000 0.000000 0.000000 0.000000 0.006190
#
#
# Mechanical properties :
#
#
# Convention : Reuss Voigt Hill
#
# Bulk Modulus (GPa) = 28.14082 42.16004 35.15043
# Shear Modulus (GPa) = 80.48634 46.82468 63.65551
#
# Velocity S-wave (km/s) = 6.42380 4.89969 5.71280
# Velocity P-wave (km/s) = 8.33355 7.32289 7.84451
#
# Compressibility (1/GPa) = 0.03553557
#
# Stress axis : x y z
#
# Youngs Moduli (GPa) = 38.97520 49.36623 102.10235
#
# Poissons Ratio (x) = 0.05918 0.20682
# Poissons Ratio (y) = 0.04673 0.70061
# Poissons Ratio (z) = 0.07895 0.33874
#
# Static dielectric constant tensor:
#      x y z
#    x 1.694260 0.000000 0.000000 
#    y 0.000000 1.667990 0.000000 
#    z 0.000000 0.000000 1.713330 
# 
# From -- ./inp_files/48233.got.cif
#   From: 2010.05.17/outbox.cif.g08.bks.cpg/sg64_25_cif.got.tgz:48233.got - 2010.06.03 16:29:19.
