data_PCOD9476903
_publ_section_title
;
Structure prediction by ZEFSAII (Michael W. Deem and Ramdas Pophale) SiO2 
 PCOD9476903
Probable space group: C M C A
;
_chemical_formula_sum "Si O2"
_cell_formula_units_Z 128
_cell_length_a 18.420348
_cell_length_b 21.308165
_cell_length_c 17.868439
_cell_angle_alpha 90.000000
_cell_angle_beta 90.000000
_cell_angle_gamma 90.000000
_cell_volume 7013.430467
_symmetry_space_group_name_H-M "C M C A"
_symmetry_group_IT_number 64
_symmetry_cell_setting 'orthorhombic'
loop_
_space_group_symop_operation_xyz
x,y,z
-x,1/2-y,1/2+z
x,-y,-z
-x,1/2+y,1/2-z
-x,-y,-z
x,1/2+y,1/2-z
-x,y,z
x,1/2-y,1/2+z
1/2+x,1/2+y,z
1/2-x,-y,1/2+z
1/2+x,1/2-y,-z
1/2-x,y,1/2-z
1/2-x,1/2-y,-z
1/2+x,y,1/2-z
1/2-x,1/2+y,z
1/2+x,-y,1/2+z
loop_
_atom_site_type_symbol
_atom_site_label
_atom_site_fract_x
_atom_site_fract_y
_atom_site_fract_z
Si Si1 0.415116 0.224543 0.648365
Si Si2 0.317379 0.501006 0.196849
Si Si3 0.275905 0.205388 0.163575
Si Si4 0.764280 0.442353 0.460171
Si Si5 0.163240 0.111403 0.099219
Si Si6 0.838935 0.374125 0.243100
Si Si7 0.417495 0.721874 0.024588
Si Si8 0.813615 0.681262 0.909697
O O1 0.500000 0.235352 0.666469
O O2 0.362337 0.284763 0.659004
O O3 0.379003 0.170675 0.698796
O O4 0.411397 0.202871 0.562022
O O5 0.250000 0.519760 0.250000
O O6 0.288812 0.465554 0.121602
O O7 0.356216 0.562583 0.164689
O O8 0.358783 0.446450 0.241753
O O9 0.250000 0.206622 0.250000
O O10 0.238574 0.145394 0.124473
O O11 0.242419 0.266697 0.122011
O O12 0.722181 0.500000 0.500000
O O13 0.825649 0.426712 0.521925
O O14 0.724420 0.376851 0.448945
O O15 0.108760 0.167268 0.080157
O O16 0.750000 0.371030 0.250000
O O17 0.854977 0.347676 0.161371
O O18 0.500000 0.738429 0.040380
O O19 0.366078 0.781038 0.036511
#
# Coordination Sequence:
#
# PCOD9476903 Si02
#       8
#    16  16  16  16  16  16  16  16
#     4  11  21  35  54  83 115 145 183 225 276 330
#     4  10  18  32  55  80 109 139 183 231 281 319
#     4  11  19  34  54  84 114 146 185 227 276 326
#     4  10  19  31  52  85 109 139 180 229 274 326
#     4  10  21  33  54  81 115 147 184 224 279 341
#     4  11  18  34  58  80 108 142 188 229 273 318
#     4  10  23  37  53  79 114 150 185 231 282 332
#     4  11  18  34  58  77 107 148 184 234 268 324
#
# _framework density 18.250696999999999
#
# number of rings (size 3 to 8) (size 9 to 14) (size 15 to 20)
#    0.000    1.500    5.000    2.625    0.000    2.500 
#    0.000    0.625    0.000    5.250    0.000    6.125 
#    0.000    0.000    0.000    0.000    0.000    0.000 
#
# Total GULP energy -356794.355080 kJ/mol
# GULP energy per Si atom -5574.911798 kJ/mol
# Density = 1.820916 g / cm^3
# Si number density = 18.250697 Si / 1000 Ang^3
#
#
#
# Elastic Constant Matrix: (Units=GPa)
#
#
# Indices 1 2 3 4 5 6 
#
# 1 59.3319 -3.1414 9.0291 0.0000 0.0000 0.0000
# 2 -3.1414 57.0408 9.7934 0.0000 0.0000 0.0000
# 3 9.0291 9.7934 55.8238 0.0000 0.0000 0.0000
# 4 0.0000 0.0000 0.0000 33.0857 0.0000 0.0000
# 5 0.0000 0.0000 0.0000 0.0000 18.5360 0.0000
# 6 0.0000 0.0000 0.0000 0.0000 0.0000 7.9213
#
#
#
# Elastic Compliance Matrix: (Units=1/GPa)
#
#
# Indices 1 2 3 4 5 6 
#
# 1 0.017401 0.001486 -0.003075 0.000000 0.000000 0.000000
# 2 0.001486 0.018203 -0.003434 0.000000 0.000000 0.000000
# 3 -0.003075 -0.003434 0.019013 0.000000 0.000000 0.000000
# 4 0.000000 0.000000 0.000000 0.030225 0.000000 0.000000
# 5 0.000000 0.000000 0.000000 0.000000 0.053949 0.000000
# 6 0.000000 0.000000 0.000000 0.000000 0.000000 0.126242
#
#
# Mechanical properties :
#
#
# Convention : Reuss Voigt Hill
#
# Bulk Modulus (GPa) = 22.43579 22.61764 22.52671
# Shear Modulus (GPa) = 17.24522 22.34295 19.79408
#
# Velocity S-wave (km/s) = 3.07727 3.50269 3.29685
# Velocity P-wave (km/s) = 4.99459 5.36452 5.18286
#
# Compressibility (1/GPa) = 0.04457164
#
# Stress axis : x y z
#
# Youngs Moduli (GPa) = 57.46783 54.93680 52.59470
#
# Poissons Ratio (x) = -0.08165 0.16174
# Poissons Ratio (y) = -0.08542 0.18060
# Poissons Ratio (z) = 0.17673 0.18864
#
# Static dielectric constant tensor:
#      x y z
#    x 1.616090 0.000000 0.000000 
#    y 0.000000 1.665180 0.000000 
#    z 0.000000 0.000000 1.658500 
# 
# From -- ./inp_files/33794.got.cif
#   From: 2010.05.17/outbox.cif.g08.bks.cpg/sg64_17_cif.got.tgz:33794.got - 2010.06.03 16:29:19.
