data_PCOD9476970
_publ_section_title
;
Structure prediction by ZEFSAII (Michael W. Deem and Ramdas Pophale) SiO2 
 PCOD9476970
Probable space group: C M C A
;
_chemical_formula_sum "Si O2"
_cell_formula_units_Z 88
_cell_length_a 19.601889
_cell_length_b 20.221919
_cell_length_c 9.212947
_cell_angle_alpha 90.000000
_cell_angle_beta 90.000000
_cell_angle_gamma 90.000000
_cell_volume 3651.899900
_symmetry_space_group_name_H-M "C M C A"
_symmetry_group_IT_number 64
_symmetry_cell_setting 'orthorhombic'
loop_
_space_group_symop_operation_xyz
x,y,z
-x,1/2-y,1/2+z
x,-y,-z
-x,1/2+y,1/2-z
-x,-y,-z
x,1/2+y,1/2-z
-x,y,z
x,1/2-y,1/2+z
1/2+x,1/2+y,z
1/2-x,-y,1/2+z
1/2+x,1/2-y,-z
1/2-x,y,1/2-z
1/2-x,1/2-y,-z
1/2+x,y,1/2-z
1/2-x,1/2+y,z
1/2+x,-y,1/2+z
loop_
_atom_site_type_symbol
_atom_site_label
_atom_site_fract_x
_atom_site_fract_y
_atom_site_fract_z
Si Si1 0.150534 0.892160 0.223744
Si Si2 0.211574 0.161595 0.066125
Si Si3 0.500000 0.606324 0.758898
Si Si4 0.500000 0.043897 0.226640
Si Si5 0.647903 0.531881 0.158022
Si Si6 0.000000 0.826664 0.536986
Si Si7 0.854668 0.206834 0.508070
O O1 0.072444 0.890902 0.160327
O O2 0.145955 0.849684 0.368906
O O3 0.166187 0.969116 0.259028
O O4 0.200133 0.861839 0.102848
O O5 0.191190 0.097957 0.157836
O O6 0.160467 0.222951 0.081116
O O7 0.287740 0.189466 0.086235
O O8 0.500000 0.533600 0.682611
O O9 0.500000 0.662566 0.636825
O O10 0.430233 0.051050 0.314678
O O11 0.500000 0.100989 0.108065
O O12 0.655511 0.500000 0.000000
O O13 0.072359 0.792968 0.571285
#
# Coordination Sequence:
#
# PCOD9476970 Si02
#       7
#    16  16   8   8  16   8  16
#     4   9  18  37  61  84 115 155 190 234 290 339
#     4  10  21  38  59  86 116 151 193 239 286 342
#     4   8  17  34  57  83 113 150 191 232 283 340
#     4  10  18  33  56  83 118 150 185 241 292 332
#     4   9  19  36  59  86 113 151 201 241 283 340
#     4  10  21  37  55  82 114 152 192 229 280 348
#     4  10  22  39  59  84 120 154 189 237 291 344
#
# _framework density 24.097045000000001
#
# number of rings (size 3 to 8) (size 9 to 14) (size 15 to 20)
#    0.000    2.545    0.000    1.091    0.000    5.091 
#    0.000   26.364    0.000    0.000    0.000    0.000 
#    0.000    0.000    0.000    0.000    0.000    0.000 
#
# Total GULP energy -245838.902783 kJ/mol
# GULP energy per Si atom -5587.247791 kJ/mol
# Density = 2.404220 g / cm^3
# Si number density = 24.097045 Si / 1000 Ang^3
#
#
#
# Elastic Constant Matrix: (Units=GPa)
#
#
# Indices 1 2 3 4 5 6 
#
# 1 184.8513 54.2648 -1.5593 0.0000 0.0000 0.0000
# 2 54.2648 152.1771 29.3360 0.0000 0.0000 0.0000
# 3 -1.5593 29.3360 20.2877 0.0000 0.0000 0.0000
# 4 0.0000 0.0000 0.0000 29.4250 0.0000 0.0000
# 5 0.0000 0.0000 0.0000 0.0000 17.2989 0.0000
# 6 0.0000 0.0000 0.0000 0.0000 0.0000 16.7803
#
#
#
# Elastic Compliance Matrix: (Units=1/GPa)
#
#
# Indices 1 2 3 4 5 6 
#
# 1 0.006426 -0.003309 0.005279 0.000000 0.000000 0.000000
# 2 -0.003309 0.010815 -0.015893 0.000000 0.000000 0.000000
# 3 0.005279 -0.015893 0.072678 0.000000 0.000000 0.000000
# 4 0.000000 0.000000 0.000000 0.033985 0.000000 0.000000
# 5 0.000000 0.000000 0.000000 0.000000 0.057807 0.000000
# 6 0.000000 0.000000 0.000000 0.000000 0.000000 0.059594
#
#
# Mechanical properties :
#
#
# Convention : Reuss Voigt Hill
#
# Bulk Modulus (GPa) = 16.11033 57.93323 37.02178
# Shear Modulus (GPa) = 17.25087 31.05248 24.15168
#
# Velocity S-wave (km/s) = 2.67852 3.59366 3.16929
# Velocity P-wave (km/s) = 4.03312 6.42752 5.36559
#
# Compressibility (1/GPa) = 0.06207198
#
# Stress axis : x y z
#
# Youngs Moduli (GPa) = 155.62669 92.46476 13.75940
#
# Poissons Ratio (x) = 0.30596 -0.07263
# Poissons Ratio (y) = 0.51495 0.21867
# Poissons Ratio (z) = -0.82148 1.46952
#
# Static dielectric constant tensor:
#      x y z
#    x 1.978050 0.000000 0.000000 
#    y 0.000000 1.923130 0.000000 
#    z 0.000000 0.000000 1.949270 
# 
# From -- ./inp_files/17217.got.cif
#   From: 2010.05.17/outbox.cif.g08.bks.cpg/sg64_9_cif.got.tgz:17217.got - 2010.06.03 16:29:19.
