data_PCOD9476713
_publ_section_title
;
Structure prediction by ZEFSAII (Michael W. Deem and Ramdas Pophale) SiO2 
 PCOD9476713
Probable space group: C M C A
;
_chemical_formula_sum "Si O2"
_cell_formula_units_Z 104
_cell_length_a 17.724688
_cell_length_b 9.166028
_cell_length_c 29.879023
_cell_angle_alpha 90.000000
_cell_angle_beta 90.000000
_cell_angle_gamma 90.000000
_cell_volume 4854.295068
_symmetry_space_group_name_H-M "C M C A"
_symmetry_group_IT_number 64
_symmetry_cell_setting 'orthorhombic'
loop_
_space_group_symop_operation_xyz
x,y,z
-x,1/2-y,1/2+z
x,-y,-z
-x,1/2+y,1/2-z
-x,-y,-z
x,1/2+y,1/2-z
-x,y,z
x,1/2-y,1/2+z
1/2+x,1/2+y,z
1/2-x,-y,1/2+z
1/2+x,1/2-y,-z
1/2-x,y,1/2-z
1/2-x,1/2-y,-z
1/2+x,y,1/2-z
1/2-x,1/2+y,z
1/2+x,-y,1/2+z
loop_
_atom_site_type_symbol
_atom_site_label
_atom_site_fract_x
_atom_site_fract_y
_atom_site_fract_z
Si Si1 0.585361 0.471496 0.296010
Si Si2 0.872348 0.500000 0.500000
Si Si3 0.807660 0.224100 0.930053
Si Si4 0.128005 0.519450 0.106283
Si Si5 0.801869 0.000009 0.139845
Si Si6 0.171842 0.675563 0.272510
Si Si7 0.632687 0.791808 0.570803
O O1 0.500000 0.439900 0.281917
O O2 0.585875 0.530298 0.346838
O O3 0.632688 0.320120 0.292819
O O4 0.620931 0.594004 0.264060
O O5 0.826033 0.593526 0.536349
O O6 0.909041 0.622877 0.468652
O O7 0.868581 0.353046 0.930430
O O8 0.722220 0.270983 0.941143
O O9 0.815799 0.161891 0.879002
O O10 0.216301 0.518540 0.122104
O O11 0.105535 0.367194 0.083944
O O12 0.808450 0.052143 0.190356
O O13 0.860515 0.105107 0.114075
O O14 0.250000 0.722761 0.250000
#
# Coordination Sequence:
#
# PCOD9476713 Si02
#       7
#    16   8  16  16  16  16  16
#     4  12  27  42  59  92 132 161 205 264 316 360
#     4  10  18  30  46  84 121 154 189 248 324 360
#     4   9  19  29  52  81 120 154 194 249 306 368
#     4  10  19  34  55  81 116 161 204 245 298 361
#     4   9  18  34  53  84 113 156 205 250 288 359
#     4  12  24  40  67  91 120 168 218 253 304 369
#     4   9  17  30  49  77 121 157 196 246 302 369
#
# _framework density 21.424326000000001
#
# number of rings (size 3 to 8) (size 9 to 14) (size 15 to 20)
#    0.000    1.846    3.077    2.308    2.154    0.615 
#    0.000    0.000    0.000    0.000    0.000    3.231 
#    0.000    0.000    0.000    0.000    0.000    0.000 
#
# Total GULP energy -289865.164663 kJ/mol
# GULP energy per Si atom -5574.330090 kJ/mol
# Density = 2.137556 g / cm^3
# Si number density = 21.424326 Si / 1000 Ang^3
#
#
#
# Elastic Constant Matrix: (Units=GPa)
#
#
# Indices 1 2 3 4 5 6 
#
# 1 62.5273 10.5100 12.1491 0.0000 0.0000 0.0000
# 2 10.5100 95.9774 22.6453 0.0000 0.0000 0.0000
# 3 12.1491 22.6453 77.4989 0.0000 0.0000 0.0000
# 4 0.0000 0.0000 0.0000 36.0866 0.0000 0.0000
# 5 0.0000 0.0000 0.0000 0.0000 -5.9510 0.0000
# 6 0.0000 0.0000 0.0000 0.0000 0.0000 -38.9659
#
#
#
# Elastic Compliance Matrix: (Units=1/GPa)
#
#
# Indices 1 2 3 4 5 6 
#
# 1 0.016644 -0.001296 -0.002230 0.000000 0.000000 0.000000
# 2 -0.001296 0.011292 -0.003096 0.000000 0.000000 0.000000
# 3 -0.002230 -0.003096 0.014158 0.000000 0.000000 0.000000
# 4 0.000000 0.000000 0.000000 0.027711 0.000000 0.000000
# 5 0.000000 0.000000 0.000000 0.000000 -0.168040 0.000000
# 6 0.000000 0.000000 0.000000 0.000000 0.000000 -0.025663
#
#
# Mechanical properties :
#
#
# Convention : Reuss Voigt Hill
#
# Bulk Modulus (GPa) = 34.66485 36.29025 35.47755
# Shear Modulus (GPa) = -49.48677 10.94723 -19.26977
#
# Velocity S-wave (km/s) = -4.81129 2.26292 -3.00231
# Velocity P-wave (km/s) = 3.82746 4.87887 2.13938
#
# Compressibility (1/GPa) = 0.02884767
#
# Stress axis : x y z
#
# Youngs Moduli (GPa) = 60.08066 88.56131 70.63254
#
# Poissons Ratio (x) = 0.11481 0.15754
# Poissons Ratio (y) = 0.07789 0.21869
# Poissons Ratio (z) = 0.13401 0.27420
#
# Static dielectric constant tensor:
#      x y z
#    x 1.745150 0.000000 0.000000 
#    y 0.000000 1.856300 0.000000 
#    z 0.000000 0.000000 1.827430 
# 
# From -- ./inp_files/53767.got.cif
#   From: 2010.05.17/outbox.cif.g08.bks.cpg/sg64_27_cif.got.tgz:53767.got - 2010.06.03 16:29:19.
