data_PCOD9476327
_publ_section_title
;
Structure prediction by ZEFSAII (Michael W. Deem and Ramdas Pophale) SiO2 
 PCOD9476327
Probable space group: C M C A
;
_chemical_formula_sum "Si O2"
_cell_formula_units_Z 112
_cell_length_a 17.127144
_cell_length_b 17.390238
_cell_length_c 15.911984
_cell_angle_alpha 90.000000
_cell_angle_beta 90.000000
_cell_angle_gamma 90.000000
_cell_volume 4739.306631
_symmetry_space_group_name_H-M "C M C A"
_symmetry_group_IT_number 64
_symmetry_cell_setting 'orthorhombic'
loop_
_space_group_symop_operation_xyz
x,y,z
-x,1/2-y,1/2+z
x,-y,-z
-x,1/2+y,1/2-z
-x,-y,-z
x,1/2+y,1/2-z
-x,y,z
x,1/2-y,1/2+z
1/2+x,1/2+y,z
1/2-x,-y,1/2+z
1/2+x,1/2-y,-z
1/2-x,y,1/2-z
1/2-x,1/2-y,-z
1/2+x,y,1/2-z
1/2-x,1/2+y,z
1/2+x,-y,1/2+z
loop_
_atom_site_type_symbol
_atom_site_label
_atom_site_fract_x
_atom_site_fract_y
_atom_site_fract_z
Si Si1 0.207270 0.123861 0.659217
Si Si2 0.910715 0.800286 0.245808
Si Si3 0.091594 0.571007 0.356046
Si Si4 0.404311 0.321153 0.599606
Si Si5 0.866062 0.594265 0.598985
Si Si6 0.088909 0.705729 0.457786
Si Si7 0.327393 0.049201 0.190644
O O1 0.250000 0.132689 0.750000
O O2 0.138991 0.185505 0.669929
O O3 0.277960 0.127314 0.594531
O O4 0.176129 0.037387 0.657431
O O5 0.887560 0.733588 0.180565
O O6 0.902050 0.876716 0.187558
O O7 0.000000 0.788463 0.266198
O O8 0.132997 0.497748 0.399150
O O9 0.124039 0.654757 0.382274
O O10 0.103511 0.560310 0.257371
O O11 0.000000 0.567141 0.375499
O O12 0.500000 0.333506 0.597660
O O13 0.380911 0.275899 0.514692
O O14 0.349381 0.393912 0.615602
O O15 0.913107 0.635855 0.526888
O O16 0.000000 0.725879 0.436196
O O17 0.250000 0.061995 0.250000
#
# Coordination Sequence:
#
# PCOD9476327 Si02
#       7
#    16  16  16  16  16  16  16
#     4   9  17  29  45  68 100 131 163 206 247 301
#     4   9  16  28  47  71  97 127 168 212 253 299
#     4  11  19  30  51  77 103 131 165 209 263 310
#     4   9  19  33  48  69 100 136 173 210 254 303
#     4  10  16  28  47  72 105 132 155 195 260 314
#     4   9  19  32  49  77 105 130 163 209 259 316
#     4  11  20  33  48  72 103 137 171 210 246 303
#
# _framework density 23.632148999999998
#
# number of rings (size 3 to 8) (size 9 to 14) (size 15 to 20)
#    0.000    2.286    4.286    3.000    0.000    4.571 
#    0.000    0.714    0.000    0.000    0.000    0.000 
#    0.000    3.429    0.000    0.571    0.000    0.000 
#
# Total GULP energy -312388.573117 kJ/mol
# GULP energy per Si atom -5578.367377 kJ/mol
# Density = 2.357836 g / cm^3
# Si number density = 23.632149 Si / 1000 Ang^3
#
#
#
# Elastic Constant Matrix: (Units=GPa)
#
#
# Indices 1 2 3 4 5 6 
#
# 1 50.0359 0.2674 7.3815 0.0000 0.0000 0.0000
# 2 0.2674 60.4461 -1.5910 0.0000 0.0000 0.0000
# 3 7.3815 -1.5910 55.0400 0.0000 0.0000 0.0000
# 4 0.0000 0.0000 0.0000 31.1727 0.0000 0.0000
# 5 0.0000 0.0000 0.0000 0.0000 16.2695 0.0000
# 6 0.0000 0.0000 0.0000 0.0000 0.0000 10.9104
#
#
#
# Elastic Compliance Matrix: (Units=1/GPa)
#
#
# Indices 1 2 3 4 5 6 
#
# 1 0.020391 -0.000162 -0.002739 0.000000 0.000000 0.000000
# 2 -0.000162 0.016558 0.000500 0.000000 0.000000 0.000000
# 3 -0.002739 0.000500 0.018550 0.000000 0.000000 0.000000
# 4 0.000000 0.000000 0.000000 0.032079 0.000000 0.000000
# 5 0.000000 0.000000 0.000000 0.000000 0.061465 0.000000
# 6 0.000000 0.000000 0.000000 0.000000 0.000000 0.091656
#
#
# Mechanical properties :
#
#
# Convention : Reuss Voigt Hill
#
# Bulk Modulus (GPa) = 19.72535 19.73753 19.73144
# Shear Modulus (GPa) = 19.05491 22.30147 20.67819
#
# Velocity S-wave (km/s) = 2.84265 3.07529 2.96125
# Velocity P-wave (km/s) = 4.37483 4.58039 4.47879
#
# Compressibility (1/GPa) = 0.05069618
#
# Stress axis : x y z
#
# Youngs Moduli (GPa) = 49.04208 60.39545 53.90708
#
# Poissons Ratio (x) = 0.00980 0.14767
# Poissons Ratio (y) = 0.00796 -0.02697
# Poissons Ratio (z) = 0.13434 -0.03022
#
# Static dielectric constant tensor:
#      x y z
#    x 1.949810 0.000000 0.000000 
#    y 0.000000 1.925110 0.000000 
#    z 0.000000 0.000000 1.946960 
# 
# From -- ./inp_files/33583.got.cif
#   From: 2010.05.17/outbox.cif.g08.bks.cpg/sg64_17_cif.got.tgz:33583.got - 2010.06.03 16:29:19.
