data_PCOD9476463
_publ_section_title
;
Structure prediction by ZEFSAII (Michael W. Deem and Ramdas Pophale) SiO2 
 PCOD9476463
Probable space group: C M C A
;
_chemical_formula_sum "Si O2"
_cell_formula_units_Z 96
_cell_length_a 18.581171
_cell_length_b 9.369087
_cell_length_c 27.290144
_cell_angle_alpha 90.000000
_cell_angle_beta 90.000000
_cell_angle_gamma 90.000000
_cell_volume 4750.903172
_symmetry_space_group_name_H-M "C M C A"
_symmetry_group_IT_number 64
_symmetry_cell_setting 'orthorhombic'
loop_
_space_group_symop_operation_xyz
x,y,z
-x,1/2-y,1/2+z
x,-y,-z
-x,1/2+y,1/2-z
-x,-y,-z
x,1/2+y,1/2-z
-x,y,z
x,1/2-y,1/2+z
1/2+x,1/2+y,z
1/2-x,-y,1/2+z
1/2+x,1/2-y,-z
1/2-x,y,1/2-z
1/2-x,1/2-y,-z
1/2+x,y,1/2-z
1/2-x,1/2+y,z
1/2+x,-y,1/2+z
loop_
_atom_site_type_symbol
_atom_site_label
_atom_site_fract_x
_atom_site_fract_y
_atom_site_fract_z
Si Si1 0.718114 0.224502 0.196239
Si Si2 0.796905 0.549985 0.865272
Si Si3 0.920194 0.654782 0.653905
Si Si4 0.082480 0.919446 0.575934
Si Si5 0.663964 0.729713 0.997286
Si Si6 0.347030 0.972619 0.579223
O O1 0.750000 0.229505 0.250000
O O2 0.771942 0.299911 0.157113
O O3 0.702257 0.063819 0.179072
O O4 0.643894 0.312605 0.191294
O O5 0.869666 0.536407 0.896084
O O6 0.733696 0.491687 0.900587
O O7 0.918012 0.785537 0.614561
O O8 0.899936 0.513522 0.623255
O O9 0.000000 0.647390 0.674859
O O10 0.122951 0.861224 0.527549
O O11 0.000000 0.959036 0.566345
O O12 0.647312 0.599293 0.960540
O O13 0.750000 0.750000 0.000000
O O14 0.640801 0.673681 0.050574
#
# Coordination Sequence:
#
# PCOD9476463 Si02
#       6
#    16  16  16  16  16  16
#     4  10  20  34  56  81 100 127 169 215 262 315
#     4  10  19  34  54  76 102 135 170 213 259 308
#     4   8  16  31  50  73 101 130 167 212 257 300
#     4   9  17  30  48  72 101 136 173 205 249 303
#     4  10  17  28  47  74 104 137 180 218 246 296
#     4   9  18  28  48  76  98 138 177 215 254 294
#
# _framework density 20.206683000000002
#
# number of rings (size 3 to 8) (size 9 to 14) (size 15 to 20)
#    0.000    2.667    1.667    1.500    0.000    0.667 
#    0.000    4.167    0.000   16.000    0.000    0.000 
#    0.000    0.000    0.000    0.000    0.000    0.000 
#
# Total GULP energy -267839.354176 kJ/mol
# GULP energy per Si atom -5579.986545 kJ/mol
# Density = 2.016069 g / cm^3
# Si number density = 20.206683 Si / 1000 Ang^3
#
#
#
# Elastic Constant Matrix: (Units=GPa)
#
#
# Indices 1 2 3 4 5 6 
#
# 1 104.0717 19.6686 18.5744 0.0000 0.0000 0.0000
# 2 19.6686 63.3625 24.6589 0.0000 0.0000 0.0000
# 3 18.5744 24.6589 68.0629 0.0000 0.0000 0.0000
# 4 0.0000 0.0000 0.0000 17.3676 0.0000 0.0000
# 5 0.0000 0.0000 0.0000 0.0000 22.9547 0.0000
# 6 0.0000 0.0000 0.0000 0.0000 0.0000 16.7606
#
#
#
# Elastic Compliance Matrix: (Units=1/GPa)
#
#
# Indices 1 2 3 4 5 6 
#
# 1 0.010425 -0.002478 -0.001947 0.000000 0.000000 0.000000
# 2 -0.002478 0.018962 -0.006193 0.000000 0.000000 0.000000
# 3 -0.001947 -0.006193 0.017468 0.000000 0.000000 0.000000
# 4 0.000000 0.000000 0.000000 0.057579 0.000000 0.000000
# 5 0.000000 0.000000 0.000000 0.000000 0.043564 0.000000
# 6 0.000000 0.000000 0.000000 0.000000 0.000000 0.059664
#
#
# Mechanical properties :
#
#
# Convention : Reuss Voigt Hill
#
# Bulk Modulus (GPa) = 39.03738 40.14455 39.59096
# Shear Modulus (GPa) = 21.05825 22.92291 21.99058
#
# Velocity S-wave (km/s) = 3.23173 3.37177 3.30249
# Velocity P-wave (km/s) = 5.76944 5.92187 5.84615
#
# Compressibility (1/GPa) = 0.02561648
#
# Stress axis : x y z
#
# Youngs Moduli (GPa) = 95.92670 52.73758 57.24908
#
# Poissons Ratio (x) = 0.13069 0.11147
# Poissons Ratio (y) = 0.23773 0.35457
# Poissons Ratio (z) = 0.18677 0.32663
#
# Static dielectric constant tensor:
#      x y z
#    x 1.705510 0.000000 0.000000 
#    y 0.000000 1.875180 0.000000 
#    z 0.000000 0.000000 1.754760 
# 
# From -- ./inp_files/50381.got.cif
#   From: 2010.05.17/outbox.cif.g08.bks.cpg/sg64_26_cif.got.tgz:50381.got - 2010.06.03 16:29:19.
