data_PCOD9476397
_publ_section_title
;
Structure prediction by ZEFSAII (Michael W. Deem and Ramdas Pophale) SiO2 
 PCOD9476397
Probable space group: C M C A
;
_chemical_formula_sum "Si O2"
_cell_formula_units_Z 112
_cell_length_a 27.600801
_cell_length_b 18.452302
_cell_length_c 10.989005
_cell_angle_alpha 90.000000
_cell_angle_beta 90.000000
_cell_angle_gamma 90.000000
_cell_volume 5596.681735
_symmetry_space_group_name_H-M "C M C A"
_symmetry_group_IT_number 64
_symmetry_cell_setting 'orthorhombic'
loop_
_space_group_symop_operation_xyz
x,y,z
-x,1/2-y,1/2+z
x,-y,-z
-x,1/2+y,1/2-z
-x,-y,-z
x,1/2+y,1/2-z
-x,y,z
x,1/2-y,1/2+z
1/2+x,1/2+y,z
1/2-x,-y,1/2+z
1/2+x,1/2-y,-z
1/2-x,y,1/2-z
1/2-x,1/2-y,-z
1/2+x,y,1/2-z
1/2-x,1/2+y,z
1/2+x,-y,1/2+z
loop_
_atom_site_type_symbol
_atom_site_label
_atom_site_fract_x
_atom_site_fract_y
_atom_site_fract_z
Si Si1 0.779004 0.164204 0.623005
Si Si2 0.944785 0.116960 0.706507
Si Si3 0.134296 0.420886 0.033728
Si Si4 0.445081 0.284469 0.880192
Si Si5 0.639280 0.329658 0.710552
Si Si6 0.881185 0.678993 0.599866
Si Si7 0.795295 0.664277 0.421343
O O1 0.750000 0.156183 0.750000
O O2 0.828951 0.120694 0.623252
O O3 0.788842 0.249051 0.597534
O O4 0.750305 0.138397 0.500583
O O5 0.917442 0.074671 0.600070
O O6 0.945541 0.201800 0.666591
O O7 0.909528 0.119527 0.822574
O O8 0.000000 0.094281 0.729249
O O9 0.152296 0.500000 0.000000
O O10 0.131887 0.373510 0.911940
O O11 0.500000 0.311680 0.879721
O O12 0.408617 0.329441 0.794739
O O13 0.422068 0.284819 0.014070
O O14 0.643957 0.244375 0.675242
O O15 0.685423 0.358114 0.787960
O O16 0.839980 0.649682 0.511729
#
# Coordination Sequence:
#
# PCOD9476397 Si02
#       7
#    16  16  16  16  16  16  16
#     4  11  22  38  59  89 111 148 193 243 302 356
#     4  10  20  34  57  85 114 153 193 234 292 348
#     4  12  25  42  56  77 120 164 200 238 277 349
#     4   9  17  29  55  89 116 143 178 241 305 348
#     4  10  19  34  52  82 116 151 185 233 288 345
#     4  10  16  33  57  87 123 141 179 241 299 352
#     4  10  20  33  63  89 115 141 180 245 314 355
#
# _framework density 20.011858
#
# number of rings (size 3 to 8) (size 9 to 14) (size 15 to 20)
#    0.000    1.714    2.857    3.857    2.000    1.429 
#    2.571    0.000    0.000    2.571    0.000    5.000 
#    0.000    0.000    0.000    0.000    0.000    0.000 
#
# Total GULP energy -312378.790989 kJ/mol
# GULP energy per Si atom -5578.192696 kJ/mol
# Density = 1.996631 g / cm^3
# Si number density = 20.011858 Si / 1000 Ang^3
#
#
#
# Elastic Constant Matrix: (Units=GPa)
#
#
# Indices 1 2 3 4 5 6 
#
# 1 66.9939 2.7611 25.8101 0.0000 0.0000 0.0000
# 2 2.7611 27.0867 7.4257 0.0000 0.0000 0.0000
# 3 25.8101 7.4257 96.1027 0.0000 0.0000 0.0000
# 4 0.0000 0.0000 0.0000 7.4777 0.0000 0.0000
# 5 0.0000 0.0000 0.0000 0.0000 22.3874 0.0000
# 6 0.0000 0.0000 0.0000 0.0000 0.0000 5.6504
#
#
#
# Elastic Compliance Matrix: (Units=1/GPa)
#
#
# Indices 1 2 3 4 5 6 
#
# 1 0.016656 -0.000482 -0.004436 0.000000 0.000000 0.000000
# 2 -0.000482 0.037731 -0.002786 0.000000 0.000000 0.000000
# 3 -0.004436 -0.002786 0.011812 0.000000 0.000000 0.000000
# 4 0.000000 0.000000 0.000000 0.133731 0.000000 0.000000
# 5 0.000000 0.000000 0.000000 0.000000 0.044668 0.000000
# 6 0.000000 0.000000 0.000000 0.000000 0.000000 0.176979
#
#
# Mechanical properties :
#
#
# Convention : Reuss Voigt Hill
#
# Bulk Modulus (GPa) = 19.68824 29.13078 24.40951
# Shear Modulus (GPa) = 11.01527 17.38219 14.19873
#
# Velocity S-wave (km/s) = 2.34869 2.95039 2.66656
# Velocity P-wave (km/s) = 4.14907 5.11808 4.65884
#
# Compressibility (1/GPa) = 0.05079175
#
# Stress axis : x y z
#
# Youngs Moduli (GPa) = 60.03998 26.50311 84.65850
#
# Poissons Ratio (x) = 0.01277 0.37554
# Poissons Ratio (y) = 0.02892 0.23587
# Poissons Ratio (z) = 0.26633 0.07384
#
# Static dielectric constant tensor:
#      x y z
#    x 1.750830 0.000000 0.000000 
#    y 0.000000 1.667270 0.000000 
#    z 0.000000 0.000000 1.771980 
# 
# From -- ./inp_files/19332.got.cif
#   From: 2010.05.17/outbox.cif.g08.bks.cpg/sg64_10_cif.got.tgz:19332.got - 2010.06.03 16:29:19.
