data_PCOD9476918
_publ_section_title
;
Structure prediction by ZEFSAII (Michael W. Deem and Ramdas Pophale) SiO2 
 PCOD9476918
Probable space group: C M C A
;
_chemical_formula_sum "Si O2"
_cell_formula_units_Z 88
_cell_length_a 9.642622
_cell_length_b 23.930717
_cell_length_c 19.720770
_cell_angle_alpha 90.000000
_cell_angle_beta 90.000000
_cell_angle_gamma 90.000000
_cell_volume 4550.663485
_symmetry_space_group_name_H-M "C M C A"
_symmetry_group_IT_number 64
_symmetry_cell_setting 'orthorhombic'
loop_
_space_group_symop_operation_xyz
x,y,z
-x,1/2-y,1/2+z
x,-y,-z
-x,1/2+y,1/2-z
-x,-y,-z
x,1/2+y,1/2-z
-x,y,z
x,1/2-y,1/2+z
1/2+x,1/2+y,z
1/2-x,-y,1/2+z
1/2+x,1/2-y,-z
1/2-x,y,1/2-z
1/2-x,1/2-y,-z
1/2+x,y,1/2-z
1/2-x,1/2+y,z
1/2+x,-y,1/2+z
loop_
_atom_site_type_symbol
_atom_site_label
_atom_site_fract_x
_atom_site_fract_y
_atom_site_fract_z
Si Si1 0.667956 0.648872 0.818158
Si Si2 0.655827 0.043171 0.861041
Si Si3 0.659808 0.706502 0.957824
Si Si4 0.651027 0.390618 0.934511
Si Si5 0.838703 0.415164 0.815063
Si Si6 0.246871 0.000000 0.000000
O O1 0.500000 0.646622 0.810313
O O2 0.750000 0.665335 0.750000
O O3 0.729836 0.587892 0.838399
O O4 0.700459 0.690246 0.881189
O O5 0.500000 0.063514 0.844539
O O6 0.674736 0.982309 0.827020
O O7 0.666677 0.031025 0.941502
O O8 0.500000 0.725559 0.956219
O O9 0.750000 0.750000 0.000000
O O10 0.665660 0.649826 0.001798
O O11 0.500000 0.380444 0.902611
O O12 0.773036 0.385492 0.880487
O O13 0.658437 0.453470 0.962080
O O14 0.750000 0.399730 0.750000
O O15 0.000000 0.402544 0.807482
#
# Coordination Sequence:
#
# PCOD9476918 Si02
#       6
#    16  16  16  16  16   8
#     4  11  23  40  61  90 122 155 201 251 305 365
#     4  10  20  33  53  84 122 162 202 245 295 353
#     4  10  23  43  64  90 119 154 202 249 300 360
#     4  10  20  36  59  86 116 154 197 243 296 353
#     4  10  21  35  52  81 119 160 202 243 292 355
#     4  10  18  32  56  88 124 156 200 242 294 350
#
# _framework density 19.33784
#
# number of rings (size 3 to 8) (size 9 to 14) (size 15 to 20)
#    0.000    1.818    1.818    2.182    0.000    8.000 
#    0.000    0.909    0.000    2.182    0.000    0.000 
#    0.000    0.000    0.000    0.000    0.000    0.000 
#
# Total GULP energy -245528.482493 kJ/mol
# GULP energy per Si atom -5580.192784 kJ/mol
# Density = 1.929383 g / cm^3
# Si number density = 19.337840 Si / 1000 Ang^3
#
#
#
# Elastic Constant Matrix: (Units=GPa)
#
#
# Indices 1 2 3 4 5 6 
#
# 1 127.2763 33.3349 74.9985 0.0000 0.0000 0.0000
# 2 33.3349 36.7977 20.4573 0.0000 0.0000 0.0000
# 3 74.9985 20.4573 138.7597 0.0000 0.0000 0.0000
# 4 0.0000 0.0000 0.0000 21.2524 0.0000 0.0000
# 5 0.0000 0.0000 0.0000 0.0000 32.3704 0.0000
# 6 0.0000 0.0000 0.0000 0.0000 0.0000 20.9653
#
#
#
# Elastic Compliance Matrix: (Units=1/GPa)
#
#
# Indices 1 2 3 4 5 6 
#
# 1 0.013880 -0.009153 -0.006152 0.000000 0.000000 0.000000
# 2 -0.009153 0.035638 -0.000307 0.000000 0.000000 0.000000
# 3 -0.006152 -0.000307 0.010577 0.000000 0.000000 0.000000
# 4 0.000000 0.000000 0.000000 0.047053 0.000000 0.000000
# 5 0.000000 0.000000 0.000000 0.000000 0.030892 0.000000
# 6 0.000000 0.000000 0.000000 0.000000 0.000000 0.047698
#
#
# Mechanical properties :
#
#
# Convention : Reuss Voigt Hill
#
# Bulk Modulus (GPa) = 34.63794 62.26835 48.45315
# Shear Modulus (GPa) = 22.06661 26.52047 24.29354
#
# Velocity S-wave (km/s) = 3.38170 3.70730 3.54823
# Velocity P-wave (km/s) = 5.76183 7.11306 6.47280
#
# Compressibility (1/GPa) = 0.02887008
#
# Stress axis : x y z
#
# Youngs Moduli (GPa) = 72.04858 28.05990 94.54256
#
# Poissons Ratio (x) = 0.25684 0.58166
# Poissons Ratio (y) = 0.65947 0.02902
# Poissons Ratio (z) = 0.44327 0.00861
#
# Static dielectric constant tensor:
#      x y z
#    x 1.680000 0.000000 0.000000 
#    y 0.000000 1.658500 0.000000 
#    z 0.000000 0.000000 1.688070 
# 
# From -- ./inp_files/36774.got.cif
#   From: 2010.05.17/outbox.cif.g08.bks.cpg/sg64_19_cif.got.tgz:36774.got - 2010.06.03 16:29:19.
