data_PCOD9476833
_publ_section_title
;
Structure prediction by ZEFSAII (Michael W. Deem and Ramdas Pophale) SiO2 
 PCOD9476833
Probable space group: C M C A
;
_chemical_formula_sum "Si O2"
_cell_formula_units_Z 64
_cell_length_a 8.690717
_cell_length_b 21.457176
_cell_length_c 18.518144
_cell_angle_alpha 90.000000
_cell_angle_beta 90.000000
_cell_angle_gamma 90.000000
_cell_volume 3453.230980
_symmetry_space_group_name_H-M "C M C A"
_symmetry_group_IT_number 64
_symmetry_cell_setting 'orthorhombic'
loop_
_space_group_symop_operation_xyz
x,y,z
-x,1/2-y,1/2+z
x,-y,-z
-x,1/2+y,1/2-z
-x,-y,-z
x,1/2+y,1/2-z
-x,y,z
x,1/2-y,1/2+z
1/2+x,1/2+y,z
1/2-x,-y,1/2+z
1/2+x,1/2-y,-z
1/2-x,y,1/2-z
1/2-x,1/2-y,-z
1/2+x,y,1/2-z
1/2-x,1/2+y,z
1/2+x,-y,1/2+z
loop_
_atom_site_type_symbol
_atom_site_label
_atom_site_fract_x
_atom_site_fract_y
_atom_site_fract_z
Si Si1 0.317177 0.380005 0.830945
Si Si2 0.315532 0.996485 0.915507
Si Si3 0.816312 0.748625 0.168173
Si Si4 0.815688 0.622810 0.830963
O O1 0.500000 0.373638 0.825926
O O2 0.250000 0.387930 0.750000
O O3 0.269426 0.439549 0.877226
O O4 0.246467 0.316124 0.863182
O O5 0.500000 0.986896 0.907912
O O6 0.277517 0.061753 0.876940
O O7 0.278990 0.000000 0.000000
O O8 0.750000 0.748852 0.250000
O O9 0.754424 0.813522 0.136644
O O10 0.000000 0.748328 0.169842
O O11 0.750000 0.614902 0.750000
O O12 0.000000 0.629384 0.826760
#
# Coordination Sequence:
#
# PCOD9476833 Si02
#       4
#    16  16  16  16
#     4  11  21  35  57  83 110 140 179 222 267 319
#     4  10  22  39  56  77 109 146 182 223 270 318
#     4  10  18  31  53  80 109 137 172 218 268 317
#     4  10  19  33  55  81 108 138 175 218 265 317
#
# _framework density 18.533366999999998
#
# number of rings (size 3 to 8) (size 9 to 14) (size 15 to 20)
#    0.000    1.750    0.000    9.000    0.000    4.500 
#    0.000    1.250    0.000    0.000    0.000    0.000 
#    0.000    0.000    0.000    0.000    0.000    0.000 
#
# Total GULP energy -178695.463581 kJ/mol
# GULP energy per Si atom -5584.233237 kJ/mol
# Density = 1.849118 g / cm^3
# Si number density = 18.533367 Si / 1000 Ang^3
#
#
#
# Elastic Constant Matrix: (Units=GPa)
#
#
# Indices 1 2 3 4 5 6 
#
# 1 136.2310 102.6769 43.7519 0.0000 0.0000 0.0000
# 2 102.6769 206.7937 63.3234 0.0000 0.0000 0.0000
# 3 43.7519 63.3234 59.2015 0.0000 0.0000 0.0000
# 4 0.0000 0.0000 0.0000 -7.8343 0.0000 0.0000
# 5 0.0000 0.0000 0.0000 0.0000 15.7512 0.0000
# 6 0.0000 0.0000 0.0000 0.0000 0.0000 40.6877
#
#
#
# Elastic Compliance Matrix: (Units=1/GPa)
#
#
# Indices 1 2 3 4 5 6 
#
# 1 0.012278 -0.004934 -0.003797 0.000000 0.000000 0.000000
# 2 -0.004934 0.009174 -0.006166 0.000000 0.000000 0.000000
# 3 -0.003797 -0.006166 0.026293 0.000000 0.000000 0.000000
# 4 0.000000 0.000000 0.000000 -0.127644 0.000000 0.000000
# 5 0.000000 0.000000 0.000000 0.000000 0.063487 0.000000
# 6 0.000000 0.000000 0.000000 0.000000 0.000000 0.024577
#
#
# Mechanical properties :
#
#
# Convention : Reuss Voigt Hill
#
# Bulk Modulus (GPa) = 55.70584 91.30339 73.50461
# Shear Modulus (GPa) = 113.78398 22.55254 68.16826
#
# Velocity S-wave (km/s) = 7.84394 3.49214 6.07134
# Velocity P-wave (km/s) = 10.59051 8.10132 9.42842
#
# Compressibility (1/GPa) = 0.01795144
#
# Stress axis : x y z
#
# Youngs Moduli (GPa) = 81.44328 109.00831 38.03316
#
# Poissons Ratio (x) = 0.53783 0.14441
# Poissons Ratio (y) = 0.40183 0.23451
# Poissons Ratio (z) = 0.30923 0.67215
#
# Static dielectric constant tensor:
#      x y z
#    x 1.621780 0.000000 0.000000 
#    y 0.000000 1.677350 0.000000 
#    z 0.000000 0.000000 1.603660 
# 
# From -- ./inp_files/29235.got.cif
#   From: 2010.05.17/outbox.cif.g08.bks.cpg/sg64_15_cif.got.tgz:29235.got - 2010.06.03 16:29:19.
