data_PCOD9476094
_publ_section_title
;
Structure prediction by ZEFSAII (Michael W. Deem and Ramdas Pophale) SiO2 
 PCOD9476094
Probable space group: C M C M
;
_chemical_formula_sum "Si O2"
_cell_formula_units_Z 44
_cell_length_a 18.000000
_cell_length_b 30.000000
_cell_length_c 9.000000
_cell_angle_alpha 90.000000
_cell_angle_beta 90.000000
_cell_angle_gamma 90.000000
_cell_volume 4860.000000
_symmetry_space_group_name_H-M "C M C M"
_symmetry_group_IT_number 63
_symmetry_cell_setting 'orthorhombic'
loop_
_space_group_symop_operation_xyz
x,y,z
-x,-y,1/2+z
x,-y,-z
-x,y,1/2-z
-x,-y,-z
x,y,1/2-z
-x,y,z
x,-y,1/2+z
1/2+x,1/2+y,z
1/2-x,1/2-y,1/2+z
1/2+x,1/2-y,-z
1/2-x,1/2+y,1/2-z
1/2-x,1/2-y,-z
1/2+x,1/2+y,1/2-z
1/2-x,1/2+y,z
1/2+x,1/2-y,1/2+z
loop_
_atom_site_type_symbol
_atom_site_label
_atom_site_fract_x
_atom_site_fract_y
_atom_site_fract_z
Si Si1 0.000000 0.548511 0.927666
Si Si2 0.084901 0.107163 0.068664
Si Si3 0.777954 0.951817 0.928337
Si Si4 0.090531 0.204516 0.078283
Si Si5 0.352287 0.104654 0.929537
Si Si6 0.913471 0.301165 0.068574
O O1 0.073258 0.576750 0.966038
O O2 0.000000 0.543068 0.750000
O O3 0.000000 0.500000 0.000000
O O4 0.083913 0.109704 0.250000
O O5 0.142384 0.068977 0.027990
O O6 0.110518 0.156288 0.013330
O O7 0.000000 0.099166 0.021007
O O8 0.773884 0.954935 0.750000
O O9 0.715825 0.918302 0.988926
O O10 0.766821 0.000000 0.000000
O O11 0.115721 0.204353 0.250000
O O12 0.112629 0.252482 0.013135
O O13 0.000000 0.205029 0.080538
O O14 0.342601 0.103006 0.750000
O O15 0.366099 0.155941 0.974379
O O16 0.913434 0.299511 0.250000
O O17 0.000000 0.307798 0.025790
#
# Coordination Sequence:
#
# PCOD9476094 Si02
#       6
#     8  16  16  16  16  16
#     4  10  20  32  48  68  92 126 168 210 243 278
#     4   8  15  30  51  74  99 127 161 202 246 295
#     4  11  23  37  52  71  98 130 165 207 255 300
#     4   7  10  19  41  72 100 125 156 195 238 283
#     4  10  19  33  51  73 102 132 165 204 245 287
#     4   8  12  22  44  73 101 129 163 200 235 277
#
# _framework density 9.0534979999999994
#
# number of rings (size 3 to 8) (size 9 to 14) (size 15 to 20)
#    0.000    3.091    0.909    3.273    0.000    2.545 
#    0.000    0.909    0.000    1.636    0.000    1.273 
#    0.000    8.727    0.000    0.000    0.000    0.000 
#
# Total GULP energy -245009.923282 kJ/mol
# GULP energy per Si atom -5568.407347 kJ/mol
# Density = 0.903289 g / cm^3
# Si number density = 9.053498 Si / 1000 Ang^3
#
#
#
# Elastic Constant Matrix: (Units=GPa)
#
#
# Indices 1 2 3 4 5 6 
#
# 1 59.8081 9.4493 12.7638 0.0000 0.0000 0.0000
# 2 9.4493 34.4208 8.3478 0.0000 0.0000 0.0000
# 3 12.7638 8.3478 10.3575 0.0000 0.0000 0.0000
# 4 0.0000 0.0000 0.0000 2.5777 0.0000 0.0000
# 5 0.0000 0.0000 0.0000 0.0000 11.2066 0.0000
# 6 0.0000 0.0000 0.0000 0.0000 0.0000 75.2754
#
#
#
# Elastic Compliance Matrix: (Units=1/GPa)
#
#
# Indices 1 2 3 4 5 6 
#
# 1 0.022700 0.000687 -0.028527 0.000000 0.000000 0.000000
# 2 0.000687 0.036131 -0.029967 0.000000 0.000000 0.000000
# 3 -0.028527 -0.029967 0.155855 0.000000 0.000000 0.000000
# 4 0.000000 0.000000 0.000000 0.387939 0.000000 0.000000
# 5 0.000000 0.000000 0.000000 0.000000 0.089233 0.000000
# 6 0.000000 0.000000 0.000000 0.000000 0.000000 0.013285
#
#
# Mechanical properties :
#
#
# Convention : Reuss Voigt Hill
#
# Bulk Modulus (GPa) = 10.09370 18.41205 14.25287
# Shear Modulus (GPa) = 5.85630 22.74698 14.30164
#
# Velocity S-wave (km/s) = 1.80036 3.54821 2.81346
# Velocity P-wave (km/s) = 3.14775 5.19393 4.29449
#
# Compressibility (1/GPa) = 0.09907172
#
# Stress axis : x y z
#
# Youngs Moduli (GPa) = 44.05354 27.67675 6.41621
#
# Poissons Ratio (x) = -0.01901 0.18303
# Poissons Ratio (y) = -0.03026 0.19228
# Poissons Ratio (z) = 1.25671 0.82940
#
# Static dielectric constant tensor:
#      x y z
#    x 1.615760 0.000000 0.000000 
#    y 0.000000 1.656420 0.000000 
#    z 0.000000 0.000000 1.596760 
# 
# From -- ./inp_files/6814.got.cif
#   From: 2010.05.17/outbox.ucp.g08.bks.cvg/sg63_4_cif.got.tgz:6814.got - 2010.06.11 16:32:19.
