data_PCOD9476084
_publ_section_title
;
Structure prediction by ZEFSAII (Michael W. Deem and Ramdas Pophale) SiO2 
 PCOD9476084
Probable space group: C M C M
;
_chemical_formula_sum "Si O2"
_cell_formula_units_Z 64
_cell_length_a 18.000000
_cell_length_b 24.000000
_cell_length_c 18.000000
_cell_angle_alpha 90.000000
_cell_angle_beta 90.000000
_cell_angle_gamma 90.000000
_cell_volume 7776.000000
_symmetry_space_group_name_H-M "C M C M"
_symmetry_group_IT_number 63
_symmetry_cell_setting 'orthorhombic'
loop_
_space_group_symop_operation_xyz
x,y,z
-x,-y,1/2+z
x,-y,-z
-x,y,1/2-z
-x,-y,-z
x,y,1/2-z
-x,y,z
x,-y,1/2+z
1/2+x,1/2+y,z
1/2-x,1/2-y,1/2+z
1/2+x,1/2-y,-z
1/2-x,1/2+y,1/2-z
1/2-x,1/2-y,-z
1/2+x,1/2+y,1/2-z
1/2-x,1/2+y,z
1/2+x,1/2-y,1/2+z
loop_
_atom_site_type_symbol
_atom_site_label
_atom_site_fract_x
_atom_site_fract_y
_atom_site_fract_z
Si Si1 0.766750 0.387872 0.161787
Si Si2 0.586522 0.447350 0.555033
Si Si3 0.585360 0.754291 0.514300
Si Si4 0.088136 0.624365 0.937125
Si Si5 0.313530 0.649724 0.985292
Si Si6 0.913373 0.316069 0.833826
Si Si7 0.177967 0.401015 0.574882
Si Si8 0.217649 0.983045 0.662308
O O1 0.763900 0.371269 0.250000
O O2 0.851648 0.384397 0.129085
O O3 0.715849 0.355582 0.100146
O O4 0.735428 0.451172 0.157755
O O5 0.586589 0.500000 0.500000
O O6 0.500000 0.434847 0.574227
O O7 0.626683 0.397399 0.509851
O O8 0.639445 0.464508 0.624565
O O9 0.500000 0.734282 0.503303
O O10 0.593034 0.811385 0.466941
O O11 0.647042 0.708263 0.497954
O O12 0.593945 0.770651 0.601134
O O13 0.000000 0.613582 0.921687
O O14 0.119332 0.588971 0.007892
O O15 0.241779 0.636836 0.036211
O O16 0.895672 0.297765 0.750000
O O17 0.862995 0.366907 0.860701
O O18 0.000000 0.333258 0.835405
O O19 0.219685 0.452651 0.612301
O O20 0.220095 0.967487 0.750000
#
# Coordination Sequence:
#
# PCOD9476084 Si02
#       8
#    16  16  16  16  16  16  16  16
#     4  10  21  35  51  73 104 136 166 206 255 306
#     4  10  19  33  55  77  99 133 172 205 243 296
#     4   9  18  33  51  72  98 129 164 203 248 294
#     4   9  19  35  54  74  99 133 173 211 253 302
#     4  10  19  32  52  76 101 127 166 211 249 291
#     4   9  17  30  47  69  99 131 161 198 248 301
#     4   9  18  30  52  74  98 129 169 209 251 294
#     4  10  20  35  52  74 106 137 166 207 257 303
#
# _framework density 8.2304530000000007
#
# number of rings (size 3 to 8) (size 9 to 14) (size 15 to 20)
#    0.000    2.500    1.250    1.875    0.000    5.500 
#    0.000    1.875    0.000    5.625    0.000    3.500 
#    0.000    0.000    0.000    0.000    0.000    0.000 
#
# Total GULP energy -356435.937684 kJ/mol
# GULP energy per Si atom -5569.311526 kJ/mol
# Density = 0.821172 g / cm^3
# Si number density = 8.230453 Si / 1000 Ang^3
#
#
#
# Elastic Constant Matrix: (Units=GPa)
#
#
# Indices 1 2 3 4 5 6 
#
# 1 102.4898 21.5009 27.3941 0.0000 0.0000 0.0000
# 2 21.5009 27.0009 14.1447 0.0000 0.0000 0.0000
# 3 27.3941 14.1447 95.6492 0.0000 0.0000 0.0000
# 4 0.0000 0.0000 0.0000 16.0946 0.0000 0.0000
# 5 0.0000 0.0000 0.0000 0.0000 25.9168 0.0000
# 6 0.0000 0.0000 0.0000 0.0000 0.0000 24.1752
#
#
#
# Elastic Compliance Matrix: (Units=1/GPa)
#
#
# Indices 1 2 3 4 5 6 
#
# 1 0.012133 -0.008500 -0.002218 0.000000 0.000000 0.000000
# 2 -0.008500 0.046100 -0.004383 0.000000 0.000000 0.000000
# 3 -0.002218 -0.004383 0.011738 0.000000 0.000000 0.000000
# 4 0.000000 0.000000 0.000000 0.062133 0.000000 0.000000
# 5 0.000000 0.000000 0.000000 0.000000 0.038585 0.000000
# 6 0.000000 0.000000 0.000000 0.000000 0.000000 0.041365
#
#
# Mechanical properties :
#
#
# Convention : Reuss Voigt Hill
#
# Bulk Modulus (GPa) = 25.14446 39.02434 32.08440
# Shear Modulus (GPa) = 19.56856 24.04400 21.80628
#
# Velocity S-wave (km/s) = 3.45162 3.82602 3.64363
# Velocity P-wave (km/s) = 5.58510 6.57850 6.10205
#
# Compressibility (1/GPa) = 0.03977020
#
# Stress axis : x y z
#
# Youngs Moduli (GPa) = 82.41987 21.69189 85.19141
#
# Poissons Ratio (x) = 0.18437 0.18895
# Poissons Ratio (y) = 0.70054 0.37340
# Poissons Ratio (z) = 0.18281 0.09508
#
# Static dielectric constant tensor:
#      x y z
#    x 1.567400 0.000000 0.000000 
#    y 0.000000 1.556400 0.000000 
#    z 0.000000 0.000000 1.550300 
# 
# From -- ./inp_files/46296.got.cif
#   From: 2010.05.17/outbox.ucp.g08.bks.cvg/sg63_24_cif.got.tgz:46296.got - 2010.06.11 16:32:19.
