data_PCOD9476916
_publ_section_title
;
Structure prediction by ZEFSAII (Michael W. Deem and Ramdas Pophale) SiO2 
 PCOD9476916
Probable space group: C M C A
;
_chemical_formula_sum "Si O2"
_cell_formula_units_Z 116
_cell_length_a 25.615424
_cell_length_b 17.902719
_cell_length_c 11.763419
_cell_angle_alpha 90.000000
_cell_angle_beta 90.000000
_cell_angle_gamma 90.000000
_cell_volume 5394.536183
_symmetry_space_group_name_H-M "C M C A"
_symmetry_group_IT_number 64
_symmetry_cell_setting 'orthorhombic'
loop_
_space_group_symop_operation_xyz
x,y,z
-x,1/2-y,1/2+z
x,-y,-z
-x,1/2+y,1/2-z
-x,-y,-z
x,1/2+y,1/2-z
-x,y,z
x,1/2-y,1/2+z
1/2+x,1/2+y,z
1/2-x,-y,1/2+z
1/2+x,1/2-y,-z
1/2-x,y,1/2-z
1/2-x,1/2-y,-z
1/2+x,y,1/2-z
1/2-x,1/2+y,z
1/2+x,-y,1/2+z
loop_
_atom_site_type_symbol
_atom_site_label
_atom_site_fract_x
_atom_site_fract_y
_atom_site_fract_z
Si Si1 0.902436 0.601287 0.548610
Si Si2 0.705861 0.788285 0.673688
Si Si3 0.613036 0.858418 0.828701
Si Si4 0.059787 0.717062 0.714504
Si Si5 0.636843 0.340209 0.409188
Si Si6 0.295651 0.438169 0.914886
Si Si7 0.000000 0.500000 0.500000
Si Si8 0.142808 0.517291 0.764713
O O1 0.913283 0.683298 0.599915
O O2 0.851912 0.589018 0.468870
O O3 0.953685 0.564815 0.496157
O O4 0.889020 0.556141 0.663431
O O5 0.750000 0.751497 0.750000
O O6 0.661420 0.823650 0.756142
O O7 0.679587 0.725082 0.598810
O O8 0.731116 0.859185 0.608495
O O9 0.565642 0.806206 0.789379
O O10 0.610322 0.946361 0.806981
O O11 0.620575 0.849531 0.962178
O O12 0.090418 0.686586 0.824579
O O13 0.000000 0.692635 0.716241
O O14 0.654985 0.419670 0.356916
O O15 0.307428 0.481326 0.798136
O O16 0.272899 0.500000 0.000000
#
# Coordination Sequence:
#
# PCOD9476916 Si02
#       8
#    16  16  16  16  16  16   4  16
#     4  10  18  32  56  87 116 152 196 247 292 340
#     4  10  22  40  61  87 116 147 191 243 295 353
#     4  10  21  39  58  82 112 151 192 237 291 351
#     4  10  21  36  55  80 114 149 192 239 288 346
#     4  10  21  38  58  80 113 152 189 238 290 351
#     4   9  17  35  59  85 115 150 186 238 293 337
#     4  12  16  28  56  92 114 152 202 244 294 354
#     4   9  18  35  55  79 113 151 188 230 290 345
#
# _framework density 21.503238
#
# number of rings (size 3 to 8) (size 9 to 14) (size 15 to 20)
#    0.000    2.207    2.759    1.241    0.000    2.207 
#    1.241    5.517    0.000    2.483    0.000    0.000 
#    0.000    0.000    0.000    0.000    0.000    0.000 
#
# Total GULP energy -323197.750382 kJ/mol
# GULP energy per Si atom -5572.375007 kJ/mol
# Density = 2.145430 g / cm^3
# Si number density = 21.503238 Si / 1000 Ang^3
#
#
#
# Elastic Constant Matrix: (Units=GPa)
#
#
# Indices 1 2 3 4 5 6 
#
# 1 35.5662 -1.1123 0.0777 0.0000 0.0000 0.0000
# 2 -1.1123 124.7291 27.6696 0.0000 0.0000 0.0000
# 3 0.0777 27.6696 80.9151 0.0000 0.0000 0.0000
# 4 0.0000 0.0000 0.0000 8.0745 0.0000 0.0000
# 5 0.0000 0.0000 0.0000 0.0000 5.3223 0.0000
# 6 0.0000 0.0000 0.0000 0.0000 0.0000 0.3976
#
#
#
# Elastic Compliance Matrix: (Units=1/GPa)
#
#
# Indices 1 2 3 4 5 6 
#
# 1 0.028126 0.000278 -0.000122 0.000000 0.000000 0.000000
# 2 0.000278 0.008678 -0.002968 0.000000 0.000000 0.000000
# 3 -0.000122 -0.002968 0.013374 0.000000 0.000000 0.000000
# 4 0.000000 0.000000 0.000000 0.123847 0.000000 0.000000
# 5 0.000000 0.000000 0.000000 0.000000 0.187888 0.000000
# 6 0.000000 0.000000 0.000000 0.000000 0.000000 2.515057
#
#
# Mechanical properties :
#
#
# Convention : Reuss Voigt Hill
#
# Bulk Modulus (GPa) = 22.44497 32.72005 27.58251
# Shear Modulus (GPa) = 1.72566 17.06391 9.39478
#
# Velocity S-wave (km/s) = 0.89680 2.82006 2.09248
# Velocity P-wave (km/s) = 3.39602 5.08459 4.32354
#
# Compressibility (1/GPa) = 0.04455341
#
# Stress axis : x y z
#
# Youngs Moduli (GPa) = 35.55486 115.23078 74.77393
#
# Poissons Ratio (x) = -0.03202 0.00912
# Poissons Ratio (y) = -0.00988 0.22192
# Poissons Ratio (z) = 0.00434 0.34199
#
# Static dielectric constant tensor:
#      x y z
#    x 1.791350 0.000000 0.000000 
#    y 0.000000 1.838920 0.000000 
#    z 0.000000 0.000000 1.783410 
# 
# From -- ./inp_files/19262.got.cif
#   From: 2010.05.17/outbox.cif.g08.bks.cpg/sg64_10_cif.got.tgz:19262.got - 2010.06.03 16:29:19.
