data_PCOD9476347
_publ_section_title
;
Structure prediction by ZEFSAII (Michael W. Deem and Ramdas Pophale) SiO2 
 PCOD9476347
Probable space group: C M C A
;
_chemical_formula_sum "Si O2"
_cell_formula_units_Z 88
_cell_length_a 33.610076
_cell_length_b 33.217124
_cell_length_c 5.227897
_cell_angle_alpha 90.000000
_cell_angle_beta 90.000000
_cell_angle_gamma 90.000000
_cell_volume 5836.581373
_symmetry_space_group_name_H-M "C M C A"
_symmetry_group_IT_number 64
_symmetry_cell_setting 'orthorhombic'
loop_
_space_group_symop_operation_xyz
x,y,z
-x,1/2-y,1/2+z
x,-y,-z
-x,1/2+y,1/2-z
-x,-y,-z
x,1/2+y,1/2-z
-x,y,z
x,1/2-y,1/2+z
1/2+x,1/2+y,z
1/2-x,-y,1/2+z
1/2+x,1/2-y,-z
1/2-x,y,1/2-z
1/2-x,1/2-y,-z
1/2+x,y,1/2-z
1/2-x,1/2+y,z
1/2+x,-y,1/2+z
loop_
_atom_site_type_symbol
_atom_site_label
_atom_site_fract_x
_atom_site_fract_y
_atom_site_fract_z
Si Si1 0.951657 0.524337 0.751328
Si Si2 0.731968 0.704491 0.498042
Si Si3 0.952650 0.383902 0.353065
Si Si4 0.500000 0.224837 0.307182
Si Si5 0.638918 0.223210 0.019363
Si Si6 0.930573 0.164024 0.342711
O O1 0.939922 0.500000 0.500000
O O2 0.940018 0.570831 0.720888
O O3 0.000000 0.524714 0.763229
O O4 0.937615 0.500000 0.000000
O O5 0.750000 0.683965 0.250000
O O6 0.750000 0.750000 0.500000
O O7 0.684855 0.709284 0.481984
O O8 0.750000 0.684890 0.750000
O O9 0.930149 0.366487 0.601914
O O10 0.000000 0.384058 0.417355
O O11 0.946258 0.357135 0.100421
O O12 0.500000 0.239105 0.600414
O O13 0.538510 0.198296 0.246145
O O14 0.632025 0.256186 0.243539
O O15 0.610172 0.186270 0.084101
#
# Coordination Sequence:
#
# PCOD9476347 Si02
#       6
#    16  16  16   8  16  16
#     4   9  17  29  49  73  88 107 146 193 232 274
#     4  10  16  30  49  67  85 107 142 194 249 294
#     4  11  20  36  50  64  93 125 154 193 240 296
#     4  12  22  36  46  56  80 118 172 212 230 262
#     4  12  21  33  48  67  89 115 160 214 234 276
#     4  12  23  34  47  65  88 126 162 196 254 274
#
# _framework density 15.077318999999999
#
# number of rings (size 3 to 8) (size 9 to 14) (size 15 to 20)
#    0.000    1.091    5.455    4.364    0.000    2.909 
#    0.000    0.000    0.000    0.000    0.000    0.000 
#    0.000    0.000    0.000    0.000    0.000   50.909 
#
# Total GULP energy -245458.553646 kJ/mol
# GULP energy per Si atom -5578.603492 kJ/mol
# Density = 1.504300 g / cm^3
# Si number density = 15.077319 Si / 1000 Ang^3
#
#
#
# Elastic Constant Matrix: (Units=GPa)
#
#
# Indices 1 2 3 4 5 6 
#
# 1 67.3391 29.7031 8.8391 0.0000 0.0000 0.0000
# 2 29.7031 62.9064 22.9089 0.0000 0.0000 0.0000
# 3 8.8391 22.9089 110.3160 0.0000 0.0000 0.0000
# 4 0.0000 0.0000 0.0000 23.9200 0.0000 0.0000
# 5 0.0000 0.0000 0.0000 0.0000 15.4976 0.0000
# 6 0.0000 0.0000 0.0000 0.0000 0.0000 6.4156
#
#
#
# Elastic Compliance Matrix: (Units=1/GPa)
#
#
# Indices 1 2 3 4 5 6 
#
# 1 0.018770 -0.008996 0.000364 0.000000 0.000000 0.000000
# 2 -0.008996 0.021508 -0.003746 0.000000 0.000000 0.000000
# 3 0.000364 -0.003746 0.009814 0.000000 0.000000 0.000000
# 4 0.000000 0.000000 0.000000 0.041806 0.000000 0.000000
# 5 0.000000 0.000000 0.000000 0.000000 0.064526 0.000000
# 6 0.000000 0.000000 0.000000 0.000000 0.000000 0.155870
#
#
# Mechanical properties :
#
#
# Convention : Reuss Voigt Hill
#
# Bulk Modulus (GPa) = 39.46688 40.38487 39.92587
# Shear Modulus (GPa) = 14.47203 21.10735 17.78969
#
# Velocity S-wave (km/s) = 3.10151 3.74564 3.43869
# Velocity P-wave (km/s) = 6.24972 6.74905 6.50418
#
# Compressibility (1/GPa) = 0.02533770
#
# Stress axis : x y z
#
# Youngs Moduli (GPa) = 53.27559 46.49378 101.89972
#
# Poissons Ratio (x) = 0.41824 -0.03710
# Poissons Ratio (y) = 0.47924 0.38169
# Poissons Ratio (z) = -0.01940 0.17416
#
# Static dielectric constant tensor:
#      x y z
#    x 1.479530 0.000000 0.000000 
#    y 0.000000 1.390070 0.000000 
#    z 0.000000 0.000000 1.446620 
# 
# From -- ./inp_files/3390.got.cif
#   From: 2010.05.17/outbox.cif.g08.bks.cpg/sg64_2_cif.got.tgz:3390.got - 2010.06.03 16:29:19.
