data_PCOD9476847
_publ_section_title
;
Structure prediction by ZEFSAII (Michael W. Deem and Ramdas Pophale) SiO2 
 PCOD9476847
Probable space group: C M C A
;
_chemical_formula_sum "Si O2"
_cell_formula_units_Z 64
_cell_length_a 18.130143
_cell_length_b 14.743672
_cell_length_c 9.371030
_cell_angle_alpha 90.000000
_cell_angle_beta 90.000000
_cell_angle_gamma 90.000000
_cell_volume 2504.922066
_symmetry_space_group_name_H-M "C M C A"
_symmetry_group_IT_number 64
_symmetry_cell_setting 'orthorhombic'
loop_
_space_group_symop_operation_xyz
x,y,z
-x,1/2-y,1/2+z
x,-y,-z
-x,1/2+y,1/2-z
-x,-y,-z
x,1/2+y,1/2-z
-x,y,z
x,1/2-y,1/2+z
1/2+x,1/2+y,z
1/2-x,-y,1/2+z
1/2+x,1/2-y,-z
1/2-x,y,1/2-z
1/2-x,1/2-y,-z
1/2+x,y,1/2-z
1/2-x,1/2+y,z
1/2+x,-y,1/2+z
loop_
_atom_site_type_symbol
_atom_site_label
_atom_site_fract_x
_atom_site_fract_y
_atom_site_fract_z
Si Si1 0.417229 0.379193 0.276771
Si Si2 0.587702 0.080328 0.170072
Si Si3 0.849802 0.902958 0.985890
Si Si4 0.815676 0.737043 0.153822
O O1 0.500000 0.354686 0.318609
O O2 0.395847 0.473662 0.351496
O O3 0.413387 0.404909 0.107196
O O4 0.363336 0.294636 0.271234
O O5 0.500000 0.091689 0.153661
O O6 0.613519 0.101171 0.332343
O O7 0.633677 0.157751 0.089321
O O8 0.801077 0.818165 0.040292
O O9 0.809071 0.000000 0.000000
O O10 0.750000 0.699006 0.250000
#
# Coordination Sequence:
#
# PCOD9476847 Si02
#       4
#    16  16  16  16
#     4   8  16  32  52  73  98 131 177 218 248 299
#     4  10  18  31  56  80 100 136 179 224 260 298
#     4   8  17  34  54  76  99 136 182 215 250 304
#     4  10  21  32  50  80 111 135 169 217 271 316
#
# _framework density 25.549697999999999
#
# number of rings (size 3 to 8) (size 9 to 14) (size 15 to 20)
#    1.500    1.500    0.000    1.500    0.000    5.000 
#    0.000    0.000    0.000    0.000    0.000    5.250 
#    0.000    0.000    0.000    0.000    0.000    0.000 
#
# Total GULP energy -178505.849337 kJ/mol
# GULP energy per Si atom -5578.307792 kJ/mol
# Density = 2.549155 g / cm^3
# Si number density = 25.549698 Si / 1000 Ang^3
#
#
#
# Elastic Constant Matrix: (Units=GPa)
#
#
# Indices 1 2 3 4 5 6 
#
# 1 80.1799 55.7109 -9.3298 0.0000 0.0000 0.0000
# 2 55.7109 149.1157 2.0165 0.0000 0.0000 0.0000
# 3 -9.3298 2.0165 85.6355 0.0000 0.0000 0.0000
# 4 0.0000 0.0000 0.0000 45.3750 0.0000 0.0000
# 5 0.0000 0.0000 0.0000 0.0000 3.7948 0.0000
# 6 0.0000 0.0000 0.0000 0.0000 0.0000 15.9353
#
#
#
# Elastic Compliance Matrix: (Units=1/GPa)
#
#
# Indices 1 2 3 4 5 6 
#
# 1 0.017189 -0.006449 0.002025 0.000000 0.000000 0.000000
# 2 -0.006449 0.009128 -0.000918 0.000000 0.000000 0.000000
# 3 0.002025 -0.000918 0.011920 0.000000 0.000000 0.000000
# 4 0.000000 0.000000 0.000000 0.022039 0.000000 0.000000
# 5 0.000000 0.000000 0.000000 0.000000 0.263515 0.000000
# 6 0.000000 0.000000 0.000000 0.000000 0.000000 0.062754
#
#
# Mechanical properties :
#
#
# Convention : Reuss Voigt Hill
#
# Bulk Modulus (GPa) = 36.29530 45.74738 41.02134
# Shear Modulus (GPa) = 12.30278 30.78994 21.54636
#
# Velocity S-wave (km/s) = 2.19675 3.47522 2.90713
# Velocity P-wave (km/s) = 4.54652 5.83498 5.23058
#
# Compressibility (1/GPa) = 0.02755177
#
# Stress axis : x y z
#
# Youngs Moduli (GPa) = 58.17821 109.55210 83.89565
#
# Poissons Ratio (x) = 0.70652 -0.16985
# Poissons Ratio (y) = 0.37520 0.07698
# Poissons Ratio (z) = -0.11778 0.10052
#
# Static dielectric constant tensor:
#      x y z
#    x 1.956670 0.000000 0.000000 
#    y 0.000000 2.032860 0.000000 
#    z 0.000000 0.000000 2.128180 
# 
# From -- ./inp_files/25011.got.cif
#   From: 2010.05.17/outbox.cif.g08.bks.cpg/sg64_13_cif.got.tgz:25011.got - 2010.06.03 16:29:19.
