data_PCOD9476479
_publ_section_title
;
Structure prediction by ZEFSAII (Michael W. Deem and Ramdas Pophale) SiO2 
 PCOD9476479
Probable space group: C M C A
;
_chemical_formula_sum "Si O2"
_cell_formula_units_Z 112
_cell_length_a 16.414274
_cell_length_b 20.023053
_cell_length_c 19.726731
_cell_angle_alpha 90.000000
_cell_angle_beta 90.000000
_cell_angle_gamma 90.000000
_cell_volume 6483.463916
_symmetry_space_group_name_H-M "C M C A"
_symmetry_group_IT_number 64
_symmetry_cell_setting 'orthorhombic'
loop_
_space_group_symop_operation_xyz
x,y,z
-x,1/2-y,1/2+z
x,-y,-z
-x,1/2+y,1/2-z
-x,-y,-z
x,1/2+y,1/2-z
-x,y,z
x,1/2-y,1/2+z
1/2+x,1/2+y,z
1/2-x,-y,1/2+z
1/2+x,1/2-y,-z
1/2-x,y,1/2-z
1/2-x,1/2-y,-z
1/2+x,y,1/2-z
1/2-x,1/2+y,z
1/2+x,-y,1/2+z
loop_
_atom_site_type_symbol
_atom_site_label
_atom_site_fract_x
_atom_site_fract_y
_atom_site_fract_z
Si Si1 0.653756 0.120376 0.246917
Si Si2 0.900647 0.667292 0.759867
Si Si3 0.401877 0.272938 0.644579
Si Si4 0.599222 0.550650 0.941124
Si Si5 0.900311 0.300547 0.485981
Si Si6 0.598181 0.276992 0.861530
Si Si7 0.098470 0.475828 0.287178
O O1 0.750000 0.123247 0.250000
O O2 0.626291 0.158873 0.179148
O O3 0.619360 0.162815 0.310587
O O4 0.625662 0.044376 0.253344
O O5 0.877095 0.712597 0.695172
O O6 0.872974 0.708706 0.825548
O O7 0.873104 0.591510 0.750583
O O8 0.000000 0.666288 0.760713
O O9 0.500000 0.273663 0.644591
O O10 0.374136 0.254306 0.569214
O O11 0.500000 0.549851 0.940524
O O12 0.623513 0.626069 0.959559
O O13 0.625369 0.529042 0.865898
O O14 0.625783 0.500000 0.000000
O O15 0.871547 0.287828 0.562370
O O16 0.000000 0.300078 0.487208
O O17 0.500000 0.274183 0.864484
O O18 0.000000 0.475049 0.287593
#
# Coordination Sequence:
#
# PCOD9476479 Si02
#       7
#    16  16  16  16  16  16  16
#     4  11  22  33  45  68  98 135 170 203 233 284
#     4   8  14  26  47  72  96 121 154 194 238 291
#     4   9  16  31  52  74  98 125 158 197 244 294
#     4   9  15  22  40  73 104 120 139 184 246 302
#     4   9  15  26  49  80 102 119 151 200 254 301
#     4   9  17  31  52  77 100 121 155 204 252 297
#     4  10  17  29  48  70  96 126 159 199 246 288
#
# _framework density 17.274716000000002
#
# number of rings (size 3 to 8) (size 9 to 14) (size 15 to 20)
#    0.000    2.714    1.429    3.000    0.000    2.286 
#    0.000    3.571    0.000    0.857    3.714    5.000 
#    0.000    0.000    0.000    0.000    0.000    0.000 
#
# Total GULP energy -312070.103559 kJ/mol
# GULP energy per Si atom -5572.680421 kJ/mol
# Density = 1.723540 g / cm^3
# Si number density = 17.274716 Si / 1000 Ang^3
#
#
#
# Elastic Constant Matrix: (Units=GPa)
#
#
# Indices 1 2 3 4 5 6 
#
# 1 6.5407 2.7168 1.6604 0.0000 0.0000 0.0000
# 2 2.7168 125.4509 32.2115 0.0000 0.0000 0.0000
# 3 1.6604 32.2115 39.0841 0.0000 0.0000 0.0000
# 4 0.0000 0.0000 0.0000 24.9131 0.0000 0.0000
# 5 0.0000 0.0000 0.0000 0.0000 -0.7297 0.0000
# 6 0.0000 0.0000 0.0000 0.0000 0.0000 10.9951
#
#
#
# Elastic Compliance Matrix: (Units=1/GPa)
#
#
# Indices 1 2 3 4 5 6 
#
# 1 0.154995 -0.002113 -0.004843 0.000000 0.000000 0.000000
# 2 -0.002113 0.010140 -0.008267 0.000000 0.000000 0.000000
# 3 -0.004843 -0.008267 0.032605 0.000000 0.000000 0.000000
# 4 0.000000 0.000000 0.000000 0.040139 0.000000 0.000000
# 5 0.000000 0.000000 0.000000 0.000000 -1.370400 0.000000
# 6 0.000000 0.000000 0.000000 0.000000 0.000000 0.090950
#
#
# Mechanical properties :
#
#
# Convention : Reuss Voigt Hill
#
# Bulk Modulus (GPa) = 5.97752 27.13926 16.55839
# Shear Modulus (GPa) = -5.23363 16.00149 5.38393
#
# Velocity S-wave (km/s) = -1.74248 3.04681 1.76732
# Velocity P-wave (km/s) = 0.76192 5.30301 3.71089
#
# Compressibility (1/GPa) = 0.16729347
#
# Stress axis : x y z
#
# Youngs Moduli (GPa) = 6.45180 98.62239 30.67022
#
# Poissons Ratio (x) = 0.20840 0.14854
# Poissons Ratio (y) = 0.01363 0.25355
# Poissons Ratio (z) = 0.03125 0.81531
#
# Static dielectric constant tensor:
#      x y z
#    x 1.580020 0.000000 0.000000 
#    y 0.000000 1.586380 0.000000 
#    z 0.000000 0.000000 1.599880 
# 
# From -- ./inp_files/41120.got.cif
#   From: 2010.05.17/outbox.cif.g08.bks.cpg/sg64_21_cif.got.tgz:41120.got - 2010.06.03 16:29:19.
