data_PCOD9476672
_publ_section_title
;
Structure prediction by ZEFSAII (Michael W. Deem and Ramdas Pophale) SiO2 
 PCOD9476672
Probable space group: C M C A
;
_chemical_formula_sum "Si O2"
_cell_formula_units_Z 96
_cell_length_a 7.662602
_cell_length_b 25.016705
_cell_length_c 26.951919
_cell_angle_alpha 90.000000
_cell_angle_beta 90.000000
_cell_angle_gamma 90.000000
_cell_volume 5166.495658
_symmetry_space_group_name_H-M "C M C A"
_symmetry_group_IT_number 64
_symmetry_cell_setting 'orthorhombic'
loop_
_space_group_symop_operation_xyz
x,y,z
-x,1/2-y,1/2+z
x,-y,-z
-x,1/2+y,1/2-z
-x,-y,-z
x,1/2+y,1/2-z
-x,y,z
x,1/2-y,1/2+z
1/2+x,1/2+y,z
1/2-x,-y,1/2+z
1/2+x,1/2-y,-z
1/2-x,y,1/2-z
1/2-x,1/2-y,-z
1/2+x,y,1/2-z
1/2-x,1/2+y,z
1/2+x,-y,1/2+z
loop_
_atom_site_type_symbol
_atom_site_label
_atom_site_fract_x
_atom_site_fract_y
_atom_site_fract_z
Si Si1 0.291343 0.507500 0.381911
Si Si2 0.289050 0.269052 0.556205
Si Si3 0.212779 0.889999 0.569903
Si Si4 0.706576 0.084138 0.692374
Si Si5 0.703753 0.330174 0.115474
Si Si6 0.211845 0.079009 0.539639
O O1 0.500000 0.510097 0.386489
O O2 0.227931 0.568336 0.387806
O O3 0.256450 0.471819 0.333582
O O4 0.227853 0.471661 0.428424
O O5 0.500000 0.269573 0.559434
O O6 0.250000 0.250000 0.500000
O O7 0.225130 0.328925 0.567913
O O8 0.221278 0.225812 0.596180
O O9 0.260209 0.917310 0.517498
O O10 0.000000 0.886906 0.571672
O O11 0.500000 0.087575 0.687077
O O12 0.750000 0.086337 0.750000
O O13 0.781258 0.134123 0.660307
O O14 0.500000 0.320614 0.127064
O O15 0.718512 0.369315 0.068261
O O16 0.000000 0.080223 0.541744
#
# Coordination Sequence:
#
# PCOD9476672 Si02
#       6
#    16  16  16  16  16  16
#     4   9  17  29  46  69  95 123 156 194 234 277
#     4  10  18  29  45  67  97 133 166 193 224 269
#     4   9  16  26  43  67  96 130 163 189 221 269
#     4  10  20  35  53  72  91 115 151 198 248 291
#     4   9  18  30  45  68  97 124 155 196 238 275
#     4   9  15  25  43  66  93 126 162 193 220 265
#
# _framework density 18.581261000000001
#
# number of rings (size 3 to 8) (size 9 to 14) (size 15 to 20)
#    0.000    2.667    1.667    1.000    0.000    2.667 
#    0.000    1.667    0.000    5.000    0.000    2.333 
#    0.000    0.000    0.000    0.000    0.000    0.000 
#
# Total GULP energy -267408.496573 kJ/mol
# GULP energy per Si atom -5571.010345 kJ/mol
# Density = 1.853897 g / cm^3
# Si number density = 18.581261 Si / 1000 Ang^3
#
#
#
# Elastic Constant Matrix: (Units=GPa)
#
#
# Indices 1 2 3 4 5 6 
#
# 1 31.2544 10.4531 -2.9531 0.0000 0.0000 0.0000
# 2 10.4531 147.8825 72.7013 0.0000 0.0000 0.0000
# 3 -2.9531 72.7013 102.8571 0.0000 0.0000 0.0000
# 4 0.0000 0.0000 0.0000 11.4127 0.0000 0.0000
# 5 0.0000 0.0000 0.0000 0.0000 9.0530 0.0000
# 6 0.0000 0.0000 0.0000 0.0000 0.0000 10.6137
#
#
#
# Elastic Compliance Matrix: (Units=1/GPa)
#
#
# Indices 1 2 3 4 5 6 
#
# 1 0.033852 -0.004399 0.004081 0.000000 0.000000 0.000000
# 2 -0.004399 0.010935 -0.007855 0.000000 0.000000 0.000000
# 3 0.004081 -0.007855 0.015392 0.000000 0.000000 0.000000
# 4 0.000000 0.000000 0.000000 0.087621 0.000000 0.000000
# 5 0.000000 0.000000 0.000000 0.000000 0.110461 0.000000
# 6 0.000000 0.000000 0.000000 0.000000 0.000000 0.094217
#
#
# Mechanical properties :
#
#
# Convention : Reuss Voigt Hill
#
# Bulk Modulus (GPa) = 22.81404 49.15517 35.98461
# Shear Modulus (GPa) = 13.03999 19.66875 16.35437
#
# Velocity S-wave (km/s) = 2.65199 3.25703 2.96996
# Velocity P-wave (km/s) = 4.65640 6.37620 5.58292
#
# Compressibility (1/GPa) = 0.04383265
#
# Stress axis : x y z
#
# Youngs Moduli (GPa) = 29.53995 91.45062 64.97027
#
# Poissons Ratio (x) = 0.40233 -0.26517
# Poissons Ratio (y) = 0.12996 0.51036
# Poissons Ratio (z) = -0.12057 0.71837
#
# Static dielectric constant tensor:
#      x y z
#    x 1.690650 0.000000 0.000000 
#    y 0.000000 1.696310 0.000000 
#    z 0.000000 0.000000 1.568090 
# 
# From -- ./inp_files/44494.got.cif
#   From: 2010.05.17/outbox.cif.g08.bks.cpg/sg64_23_cif.got.tgz:44494.got - 2010.06.03 16:29:19.
