data_PCOD9476904
_publ_section_title
;
Structure prediction by ZEFSAII (Michael W. Deem and Ramdas Pophale) SiO2 
 PCOD9476904
Probable space group: C M C A
;
_chemical_formula_sum "Si O2"
_cell_formula_units_Z 88
_cell_length_a 9.295711
_cell_length_b 19.542562
_cell_length_c 23.772979
_cell_angle_alpha 90.000000
_cell_angle_beta 90.000000
_cell_angle_gamma 90.000000
_cell_volume 4318.647114
_symmetry_space_group_name_H-M "C M C A"
_symmetry_group_IT_number 64
_symmetry_cell_setting 'orthorhombic'
loop_
_space_group_symop_operation_xyz
x,y,z
-x,1/2-y,1/2+z
x,-y,-z
-x,1/2+y,1/2-z
-x,-y,-z
x,1/2+y,1/2-z
-x,y,z
x,1/2-y,1/2+z
1/2+x,1/2+y,z
1/2-x,-y,1/2+z
1/2+x,1/2-y,-z
1/2-x,y,1/2-z
1/2-x,1/2-y,-z
1/2+x,y,1/2-z
1/2-x,1/2+y,z
1/2+x,-y,1/2+z
loop_
_atom_site_type_symbol
_atom_site_label
_atom_site_fract_x
_atom_site_fract_y
_atom_site_fract_z
Si Si1 0.667184 0.576218 0.979559
Si Si2 0.666593 0.234303 0.653176
Si Si3 0.164080 0.060576 0.160197
Si Si4 0.750000 0.335063 0.750000
Si Si5 0.326877 0.348010 0.570923
Si Si6 0.832568 0.413076 0.344690
O O1 0.500000 0.586036 0.995539
O O2 0.675792 0.580921 0.912457
O O3 0.709906 0.500000 0.000000
O O4 0.762057 0.632847 0.010833
O O5 0.500000 0.220173 0.639176
O O6 0.672439 0.285532 0.705765
O O7 0.723937 0.276651 0.599502
O O8 0.734477 0.160998 0.668326
O O9 0.159627 0.113543 0.211401
O O10 0.263950 0.094073 0.112814
O O11 0.000000 0.051820 0.138369
O O12 0.223379 0.985906 0.177065
O O13 0.500000 0.349281 0.570609
O O14 0.000000 0.411334 0.326127
#
# Coordination Sequence:
#
# PCOD9476904 Si02
#       6
#    16  16  16   8  16  16
#     4  10  18  32  55  81 106 142 186 218 252 313
#     4   9  19  35  51  75 108 141 174 217 273 321
#     4  10  19  35  57  79 102 139 185 221 257 314
#     4  10  20  32  56  80 104 134 176 226 272 320
#     4  10  20  33  53  80 112 142 172 216 268 315
#     4   9  18  33  54  76 104 141 181 219 258 315
#
# _framework density 20.376750999999999
#
# number of rings (size 3 to 8) (size 9 to 14) (size 15 to 20)
#    0.000    2.364    1.818    1.091    0.000    2.545 
#    0.000    0.000    0.000   12.000    0.000    0.000 
#    0.000    0.000    0.000    0.000    0.000    0.000 
#
# Total GULP energy -245127.049412 kJ/mol
# GULP energy per Si atom -5571.069305 kJ/mol
# Density = 2.033037 g / cm^3
# Si number density = 20.376751 Si / 1000 Ang^3
#
#
#
# Elastic Constant Matrix: (Units=GPa)
#
#
# Indices 1 2 3 4 5 6 
#
# 1 29.8062 7.6170 -0.1301 0.0000 0.0000 0.0000
# 2 7.6170 155.0200 10.1768 0.0000 0.0000 0.0000
# 3 -0.1301 10.1768 43.1914 0.0000 0.0000 0.0000
# 4 0.0000 0.0000 0.0000 21.8274 0.0000 0.0000
# 5 0.0000 0.0000 0.0000 0.0000 13.0840 0.0000
# 6 0.0000 0.0000 0.0000 0.0000 0.0000 17.2391
#
#
#
# Elastic Compliance Matrix: (Units=1/GPa)
#
#
# Indices 1 2 3 4 5 6 
#
# 1 0.033987 -0.001703 0.000504 0.000000 0.000000 0.000000
# 2 -0.001703 0.006637 -0.001569 0.000000 0.000000 0.000000
# 3 0.000504 -0.001569 0.023524 0.000000 0.000000 0.000000
# 4 0.000000 0.000000 0.000000 0.045814 0.000000 0.000000
# 5 0.000000 0.000000 0.000000 0.000000 0.076429 0.000000
# 6 0.000000 0.000000 0.000000 0.000000 0.000000 0.058008
#
#
# Mechanical properties :
#
#
# Convention : Reuss Voigt Hill
#
# Bulk Modulus (GPa) = 17.06134 29.26055 23.16095
# Shear Modulus (GPa) = 18.55468 24.45371 21.50419
#
# Velocity S-wave (km/s) = 3.02086 3.46797 3.25211
# Velocity P-wave (km/s) = 4.53415 5.51604 5.04902
#
# Compressibility (1/GPa) = 0.05861203
#
# Stress axis : x y z
#
# Youngs Moduli (GPa) = 29.42261 150.65990 42.50980
#
# Poissons Ratio (x) = 0.25658 -0.02141
# Poissons Ratio (y) = 0.05011 0.06670
# Poissons Ratio (z) = -0.01482 0.23639
#
# Static dielectric constant tensor:
#      x y z
#    x 1.732850 0.000000 0.000000 
#    y 0.000000 1.804480 0.000000 
#    z 0.000000 0.000000 1.737840 
# 
# From -- ./inp_files/51871.got.cif
#   From: 2010.05.17/outbox.cif.g08.bks.cpg/sg64_26_cif.got.tgz:51871.got - 2010.06.03 16:29:19.
