data_PCOD9476079
_publ_section_title
;
Structure prediction by ZEFSAII (Michael W. Deem and Ramdas Pophale) SiO2 
 PCOD9476079
Probable space group: C M C M
;
_chemical_formula_sum "Si O2"
_cell_formula_units_Z 48
_cell_length_a 9.000000
_cell_length_b 21.000000
_cell_length_c 27.000000
_cell_angle_alpha 90.000000
_cell_angle_beta 90.000000
_cell_angle_gamma 90.000000
_cell_volume 5103.000000
_symmetry_space_group_name_H-M "C M C M"
_symmetry_group_IT_number 63
_symmetry_cell_setting 'orthorhombic'
loop_
_space_group_symop_operation_xyz
x,y,z
-x,-y,1/2+z
x,-y,-z
-x,y,1/2-z
-x,-y,-z
x,y,1/2-z
-x,y,z
x,-y,1/2+z
1/2+x,1/2+y,z
1/2-x,1/2-y,1/2+z
1/2+x,1/2-y,-z
1/2-x,1/2+y,1/2-z
1/2-x,1/2-y,-z
1/2+x,1/2+y,1/2-z
1/2-x,1/2+y,z
1/2+x,1/2-y,1/2+z
loop_
_atom_site_type_symbol
_atom_site_label
_atom_site_fract_x
_atom_site_fract_y
_atom_site_fract_z
Si Si1 0.821370 0.525372 0.695184
Si Si2 0.175445 0.842173 0.329427
Si Si3 0.320453 0.086272 0.376214
Si Si4 0.176197 0.838580 0.955742
Si Si5 0.820149 0.700225 0.194965
Si Si6 0.674334 0.705879 0.563451
O O1 0.782416 0.500059 0.750000
O O2 0.757186 0.595942 0.689944
O O3 0.771234 0.477473 0.651973
O O4 0.000000 0.528392 0.692605
O O5 0.231313 0.772994 0.311280
O O6 0.192740 0.836913 0.388481
O O7 0.000000 0.846891 0.317132
O O8 0.500000 0.086119 0.378184
O O9 0.254548 0.102283 0.429506
O O10 0.270382 0.147083 0.343385
O O11 0.234098 0.771139 0.933992
O O12 0.000000 0.843019 0.949673
O O13 0.212553 0.831652 0.013744
O O14 0.785404 0.678124 0.250000
O O15 0.000000 0.703613 0.189745
O O16 0.500000 0.724662 0.560931
#
# Coordination Sequence:
#
# PCOD9476079 Si02
#       6
#    16  16  16  16  16  16
#     4  10  22  38  55  77 108 145 180 219 269 318
#     4  10  19  34  56  79 104 138 180 220 261 313
#     4  10  19  35  55  75 105 143 180 216 261 319
#     4  10  19  31  53  83 111 136 171 222 272 311
#     4   9  16  28  51  78  98 126 176 224 256 301
#     4   9  18  34  54  79 109 142 176 213 264 324
#
# _framework density 9.4062319999999993
#
# number of rings (size 3 to 8) (size 9 to 14) (size 15 to 20)
#    0.000    2.333    1.667    1.500    0.000    5.000 
#    0.000    0.833    0.000    6.500    0.000    0.000 
#    0.000    0.000    0.000    0.000    0.000    0.000 
#
# Total GULP energy -267582.478817 kJ/mol
# GULP energy per Si atom -5574.634975 kJ/mol
# Density = 0.938482 g / cm^3
# Si number density = 9.406232 Si / 1000 Ang^3
#
#
#
# Elastic Constant Matrix: (Units=GPa)
#
#
# Indices 1 2 3 4 5 6 
#
# 1 2.3150 6.8174 4.4314 0.0000 0.0000 0.0000
# 2 6.8174 43.4624 7.2889 0.0000 0.0000 0.0000
# 3 4.4314 7.2889 41.9633 0.0000 0.0000 0.0000
# 4 0.0000 0.0000 0.0000 1.0807 0.0000 0.0000
# 5 0.0000 0.0000 0.0000 0.0000 18.2191 0.0000
# 6 0.0000 0.0000 0.0000 0.0000 0.0000 24.0976
#
#
#
# Elastic Compliance Matrix: (Units=1/GPa)
#
#
# Indices 1 2 3 4 5 6 
#
# 1 1.020154 -0.146211 -0.082334 0.000000 0.000000 0.000000
# 2 -0.146211 0.044654 0.007684 0.000000 0.000000 0.000000
# 3 -0.082334 0.007684 0.031190 0.000000 0.000000 0.000000
# 4 0.000000 0.000000 0.000000 0.925313 0.000000 0.000000
# 5 0.000000 0.000000 0.000000 0.000000 0.054887 0.000000
# 6 0.000000 0.000000 0.000000 0.000000 0.000000 0.041498
#
#
# Mechanical properties :
#
#
# Convention : Reuss Voigt Hill
#
# Bulk Modulus (GPa) = 1.52841 13.86846 7.69843
# Shear Modulus (GPa) = 1.80017 13.29302 7.54660
#
# Velocity S-wave (km/s) = 0.97928 2.66109 2.00504
# Velocity P-wave (km/s) = 1.44667 4.10242 3.07593
#
# Compressibility (1/GPa) = 0.65427604
#
# Stress axis : x y z
#
# Youngs Moduli (GPa) = 0.98024 22.39436 32.06124
#
# Poissons Ratio (x) = 3.27430 2.63973
# Poissons Ratio (y) = 0.14332 -0.24636
# Poissons Ratio (z) = 0.08071 -0.17208
#
# Static dielectric constant tensor:
#      x y z
#    x 1.639490 0.000000 0.000000 
#    y 0.000000 1.623720 0.000000 
#    z 0.000000 0.000000 1.719960 
# 
# From -- ./inp_files/66865.got.cif
#   From: 2010.05.17/outbox.ucp.g08.bks.cvg/sg63_34_cif.got.tgz:66865.got - 2010.06.11 16:32:19.
