data_PCOD9476634
_publ_section_title
;
Structure prediction by ZEFSAII (Michael W. Deem and Ramdas Pophale) SiO2 
 PCOD9476634
Probable space group: C M C A
;
_chemical_formula_sum "Si O2"
_cell_formula_units_Z 92
_cell_length_a 27.628490
_cell_length_b 9.097067
_cell_length_c 12.958549
_cell_angle_alpha 90.000000
_cell_angle_beta 90.000000
_cell_angle_gamma 90.000000
_cell_volume 3256.978700
_symmetry_space_group_name_H-M "C M C A"
_symmetry_group_IT_number 64
_symmetry_cell_setting 'orthorhombic'
loop_
_space_group_symop_operation_xyz
x,y,z
-x,1/2-y,1/2+z
x,-y,-z
-x,1/2+y,1/2-z
-x,-y,-z
x,1/2+y,1/2-z
-x,y,z
x,1/2-y,1/2+z
1/2+x,1/2+y,z
1/2-x,-y,1/2+z
1/2+x,1/2-y,-z
1/2-x,y,1/2-z
1/2-x,1/2-y,-z
1/2+x,y,1/2-z
1/2-x,1/2+y,z
1/2+x,-y,1/2+z
loop_
_atom_site_type_symbol
_atom_site_label
_atom_site_fract_x
_atom_site_fract_y
_atom_site_fract_z
Si Si1 0.573803 0.225242 0.531879
Si Si2 0.736080 0.560255 0.628866
Si Si3 0.085903 0.528184 0.727647
Si Si4 0.648966 0.257143 0.819795
Si Si5 0.000000 0.500000 0.500000
Si Si6 0.000000 0.918648 0.630724
Si Si7 0.319216 0.262475 0.580372
O O1 0.542637 0.116541 0.461786
O O2 0.542188 0.367234 0.547788
O O3 0.630888 0.247071 0.514975
O O4 0.567048 0.142602 0.642663
O O5 0.750000 0.530511 0.750000
O O6 0.698209 0.697894 0.628143
O O7 0.710310 0.415487 0.583882
O O8 0.783492 0.624458 0.573967
O O9 0.110694 0.623763 0.819144
O O10 0.124901 0.418296 0.674473
O O11 0.042003 0.449087 0.782024
O O12 0.662298 0.256761 0.697847
#
# Coordination Sequence:
#
# PCOD9476634 Si02
#       7
#    16  16  16  16   4   8  16
#     4  10  22  36  56  79 110 145 198 234 277 338
#     4  10  18  27  46  76 120 161 169 207 270 353
#     4  11  19  30  49  82 114 143 178 226 281 340
#     4  10  18  29  44  72 121 148 177 205 269 347
#     4  10  22  44  60  76  98 156 200 246 276 326
#     4  11  17  31  48  75 109 135 169 233 285 326
#     4  10  19  30  47  78 112 146 182 214 269 331
#
# _framework density 28.247038
#
# number of rings (size 3 to 8) (size 9 to 14) (size 15 to 20)
#    0.000    1.739    5.217    2.609    4.870    0.000 
#    0.000    0.000    0.000    1.043    0.000   20.696 
#    0.000    0.000    0.000    0.000    0.000    0.000 
#
# Total GULP energy -256119.738137 kJ/mol
# GULP energy per Si atom -5567.820394 kJ/mol
# Density = 2.818275 g / cm^3
# Si number density = 28.247038 Si / 1000 Ang^3
#
#
#
# Elastic Constant Matrix: (Units=GPa)
#
#
# Indices 1 2 3 4 5 6 
#
# 1 209.0603 89.2519 36.0300 0.0000 0.0000 0.0000
# 2 89.2519 184.1530 45.7455 0.0000 0.0000 0.0000
# 3 36.0300 45.7455 33.1082 0.0000 0.0000 0.0000
# 4 0.0000 0.0000 0.0000 57.1214 0.0000 0.0000
# 5 0.0000 0.0000 0.0000 0.0000 -114.8583 0.0000
# 6 0.0000 0.0000 0.0000 0.0000 0.0000 22.9054
#
#
#
# Elastic Compliance Matrix: (Units=1/GPa)
#
#
# Indices 1 2 3 4 5 6 
#
# 1 0.006371 -0.002079 -0.004060 0.000000 0.000000 0.000000
# 2 -0.002079 0.008947 -0.010099 0.000000 0.000000 0.000000
# 3 -0.004060 -0.010099 0.048576 0.000000 0.000000 0.000000
# 4 0.000000 0.000000 0.000000 0.017507 0.000000 0.000000
# 5 0.000000 0.000000 0.000000 0.000000 -0.008706 0.000000
# 6 0.000000 0.000000 0.000000 0.000000 0.000000 0.043658
#
#
# Mechanical properties :
#
#
# Convention : Reuss Voigt Hill
#
# Bulk Modulus (GPa) = 31.82989 85.37515 58.60252
# Shear Modulus (GPa) = 31.38720 10.05329 20.72025
#
# Velocity S-wave (km/s) = 3.33703 1.88859 2.71133
# Velocity P-wave (km/s) = 5.11279 5.91995 5.53111
#
# Compressibility (1/GPa) = 0.03141701
#
# Stress axis : x y z
#
# Youngs Moduli (GPa) = 156.97031 111.77490 20.58613
#
# Poissons Ratio (x) = 0.23238 0.08359
# Poissons Ratio (y) = 0.32634 0.20790
# Poissons Ratio (z) = 0.63735 1.12881
#
# Static dielectric constant tensor:
#      x y z
#    x 2.230840 0.000000 0.000000 
#    y 0.000000 2.223800 0.000000 
#    z 0.000000 0.000000 2.374360 
# 
# From -- ./inp_files/41844.got.cif
#   From: 2010.05.17/outbox.cif.g08.bks.cpg/sg64_21_cif.got.tgz:41844.got - 2010.06.03 16:29:19.
