data_PCOD9476839
_publ_section_title
;
Structure prediction by ZEFSAII (Michael W. Deem and Ramdas Pophale) SiO2 
 PCOD9476839
Probable space group: C M C A
;
_chemical_formula_sum "Si O2"
_cell_formula_units_Z 64
_cell_length_a 7.585669
_cell_length_b 22.389688
_cell_length_c 21.803507
_cell_angle_alpha 90.000000
_cell_angle_beta 90.000000
_cell_angle_gamma 90.000000
_cell_volume 3703.124247
_symmetry_space_group_name_H-M "C M C A"
_symmetry_group_IT_number 64
_symmetry_cell_setting 'orthorhombic'
loop_
_space_group_symop_operation_xyz
x,y,z
-x,1/2-y,1/2+z
x,-y,-z
-x,1/2+y,1/2-z
-x,-y,-z
x,1/2+y,1/2-z
-x,y,z
x,1/2-y,1/2+z
1/2+x,1/2+y,z
1/2-x,-y,1/2+z
1/2+x,1/2-y,-z
1/2-x,y,1/2-z
1/2-x,1/2-y,-z
1/2+x,y,1/2-z
1/2-x,1/2+y,z
1/2+x,-y,1/2+z
loop_
_atom_site_type_symbol
_atom_site_label
_atom_site_fract_x
_atom_site_fract_y
_atom_site_fract_z
Si Si1 0.500000 0.485219 0.403412
Si Si2 0.500000 0.899007 0.990134
Si Si3 0.210184 0.304086 0.546264
Si Si4 0.709140 0.034907 0.319727
Si Si5 0.790413 0.826615 0.819054
O O1 0.500000 0.542310 0.448326
O O2 0.500000 0.424299 0.441164
O O3 0.325424 0.493888 0.363127
O O4 0.671424 0.859427 0.975638
O O5 0.250000 0.250000 0.500000
O O6 0.262531 0.293169 0.618144
O O7 0.000000 0.316348 0.544604
O O8 0.500000 0.032367 0.331944
O O9 0.750000 0.017856 0.250000
O O10 0.771786 0.104365 0.325067
O O11 0.750000 0.804541 0.750000
O O12 0.000000 0.829434 0.820537
#
# Coordination Sequence:
#
# PCOD9476839 Si02
#       5
#     8   8  16  16  16
#     4  11  22  36  56  85 121 154 185 234 296 361
#     4  11  24  38  56  83 121 156 189 232 294 353
#     4  11  22  38  60  86 114 152 198 241 287 349
#     4  10  18  31  54  84 115 146 189 243 295 344
#     4   9  19  30  51  85 114 139 182 241 297 338
#
# _framework density 17.282703000000001
#
# number of rings (size 3 to 8) (size 9 to 14) (size 15 to 20)
#    0.000    1.750    5.000    0.000    3.500    1.000 
#    0.000    2.500    0.000    1.500    0.000    0.000 
#    0.000    0.000    0.000    0.000    0.000    0.000 
#
# Total GULP energy -178307.181113 kJ/mol
# GULP energy per Si atom -5572.099410 kJ/mol
# Density = 1.724337 g / cm^3
# Si number density = 17.282703 Si / 1000 Ang^3
#
#
#
# Elastic Constant Matrix: (Units=GPa)
#
#
# Indices 1 2 3 4 5 6 
#
# 1 104.6585 26.0765 45.8506 0.0000 0.0000 0.0000
# 2 26.0765 47.1392 54.3027 0.0000 0.0000 0.0000
# 3 45.8506 54.3027 170.4587 0.0000 0.0000 0.0000
# 4 0.0000 0.0000 0.0000 33.6051 0.0000 0.0000
# 5 0.0000 0.0000 0.0000 0.0000 27.6025 0.0000
# 6 0.0000 0.0000 0.0000 0.0000 0.0000 2.6078
#
#
#
# Elastic Compliance Matrix: (Units=1/GPa)
#
#
# Indices 1 2 3 4 5 6 
#
# 1 0.011374 -0.004372 -0.001667 0.000000 0.000000 0.000000
# 2 -0.004372 0.035193 -0.010035 0.000000 0.000000 0.000000
# 3 -0.001667 -0.010035 0.009512 0.000000 0.000000 0.000000
# 4 0.000000 0.000000 0.000000 0.029757 0.000000 0.000000
# 5 0.000000 0.000000 0.000000 0.000000 0.036229 0.000000
# 6 0.000000 0.000000 0.000000 0.000000 0.000000 0.383459
#
#
# Mechanical properties :
#
#
# Convention : Reuss Voigt Hill
#
# Bulk Modulus (GPa) = 41.78740 63.85734 52.82237
# Shear Modulus (GPa) = 9.16340 25.83152 17.49746
#
# Velocity S-wave (km/s) = 2.30512 3.87026 3.18532
# Velocity P-wave (km/s) = 5.59607 7.54989 6.64518
#
# Compressibility (1/GPa) = 0.02393066
#
# Stress axis : x y z
#
# Youngs Moduli (GPa) = 87.91654 28.41506 105.13313
#
# Poissons Ratio (x) = 0.12423 0.17523
# Poissons Ratio (y) = 0.38438 1.05503
# Poissons Ratio (z) = 0.14653 0.28515
#
# Static dielectric constant tensor:
#      x y z
#    x 1.558300 0.000000 0.000000 
#    y 0.000000 1.554310 0.000000 
#    z 0.000000 0.000000 1.649990 
# 
# From -- ./inp_files/29272.got.cif
#   From: 2010.05.17/outbox.cif.g08.bks.cpg/sg64_15_cif.got.tgz:29272.got - 2010.06.03 16:29:19.
