data_PCOD9476441
_publ_section_title
;
Structure prediction by ZEFSAII (Michael W. Deem and Ramdas Pophale) SiO2 
 PCOD9476441
Probable space group: C M C A
;
_chemical_formula_sum "Si O2"
_cell_formula_units_Z 128
_cell_length_a 7.527613
_cell_length_b 30.552092
_cell_length_c 31.246359
_cell_angle_alpha 90.000000
_cell_angle_beta 90.000000
_cell_angle_gamma 90.000000
_cell_volume 7186.172781
_symmetry_space_group_name_H-M "C M C A"
_symmetry_group_IT_number 64
_symmetry_cell_setting 'orthorhombic'
loop_
_space_group_symop_operation_xyz
x,y,z
-x,1/2-y,1/2+z
x,-y,-z
-x,1/2+y,1/2-z
-x,-y,-z
x,1/2+y,1/2-z
-x,y,z
x,1/2-y,1/2+z
1/2+x,1/2+y,z
1/2-x,-y,1/2+z
1/2+x,1/2-y,-z
1/2-x,y,1/2-z
1/2-x,1/2-y,-z
1/2+x,y,1/2-z
1/2-x,1/2+y,z
1/2+x,-y,1/2+z
loop_
_atom_site_type_symbol
_atom_site_label
_atom_site_fract_x
_atom_site_fract_y
_atom_site_fract_z
Si Si1 0.212813 0.172214 0.201532
Si Si2 0.297730 0.373990 0.468399
Si Si3 0.715838 0.211624 0.383999
Si Si4 0.214357 0.623324 0.433981
Si Si5 0.714446 0.034304 0.385882
Si Si6 0.712878 0.928186 0.701374
Si Si7 0.214160 0.276969 0.043758
Si Si8 0.708187 0.969956 0.039131
O O1 0.250000 0.185876 0.250000
O O2 0.277832 0.204918 0.164691
O O3 0.280240 0.122025 0.196111
O O4 0.000000 0.169525 0.196633
O O5 0.500000 0.373842 0.451332
O O6 0.299078 0.374478 0.519763
O O7 0.216656 0.326792 0.456966
O O8 0.214241 0.421044 0.457008
O O9 0.500000 0.215189 0.383308
O O10 0.760160 0.166028 0.407100
O O11 0.779551 0.250173 0.414916
O O12 0.264884 0.579395 0.409474
O O13 0.000000 0.622925 0.439198
O O14 0.500000 0.031429 0.385808
O O15 0.776125 0.040435 0.336878
O O16 0.778752 0.995516 0.416251
O O17 0.500000 0.925791 0.696866
O O18 0.750000 0.942102 0.750000
O O19 0.000000 0.279438 0.045891
O O20 0.250000 0.250000 0.000000
O O21 0.500000 0.963597 0.028381
O O22 0.782179 0.000000 0.000000
#
# Coordination Sequence:
#
# PCOD9476441 Si02
#       8
#    16  16  16  16  16  16  16  16
#     4   9  16  28  44  63  89 117 143 174 215 263
#     4  10  20  32  43  62  91 119 152 192 222 256
#     4   9  16  28  45  64  88 120 148 174 217 265
#     4  10  17  27  45  65  88 119 152 182 215 259
#     4  10  19  30  46  68  90 117 155 189 215 259
#     4   9  17  29  44  65  91 116 143 178 218 263
#     4  10  19  30  46  66  88 117 152 186 220 261
#     4  10  20  32  44  61  90 124 153 185 228 268
#
# _framework density 17.811983999999999
#
# number of rings (size 3 to 8) (size 9 to 14) (size 15 to 20)
#    0.000    2.375    3.750    0.000    0.000    1.250 
#    0.000    1.250    0.000    0.000    0.000    0.875 
#    0.000    4.000    0.000    0.000    0.000    0.000 
#
# Total GULP energy -356788.061760 kJ/mol
# GULP energy per Si atom -5574.813465 kJ/mol
# Density = 1.777144 g / cm^3
# Si number density = 17.811984 Si / 1000 Ang^3
#
#
#
# Elastic Constant Matrix: (Units=GPa)
#
#
# Indices 1 2 3 4 5 6 
#
# 1 42.8160 7.7360 -0.9721 0.0000 0.0000 0.0000
# 2 7.7360 148.7528 74.6798 0.0000 0.0000 0.0000
# 3 -0.9721 74.6798 141.8880 0.0000 0.0000 0.0000
# 4 0.0000 0.0000 0.0000 16.9706 0.0000 0.0000
# 5 0.0000 0.0000 0.0000 0.0000 18.1740 0.0000
# 6 0.0000 0.0000 0.0000 0.0000 0.0000 3.5538
#
#
#
# Elastic Compliance Matrix: (Units=1/GPa)
#
#
# Indices 1 2 3 4 5 6 
#
# 1 0.023704 -0.001786 0.001103 0.000000 0.000000 0.000000
# 2 -0.001786 0.009271 -0.004892 0.000000 0.000000 0.000000
# 3 0.001103 -0.004892 0.009630 0.000000 0.000000 0.000000
# 4 0.000000 0.000000 0.000000 0.058925 0.000000 0.000000
# 5 0.000000 0.000000 0.000000 0.000000 0.055024 0.000000
# 6 0.000000 0.000000 0.000000 0.000000 0.000000 0.281392
#
#
# Mechanical properties :
#
#
# Convention : Reuss Voigt Hill
#
# Bulk Modulus (GPa) = 31.79282 55.14936 43.47109
# Shear Modulus (GPa) = 10.87944 24.54056 17.71000
#
# Velocity S-wave (km/s) = 2.47410 3.71584 3.15663
# Velocity P-wave (km/s) = 5.10387 7.03129 6.14364
#
# Compressibility (1/GPa) = 0.03145365
#
# Stress axis : x y z
#
# Youngs Moduli (GPa) = 42.18784 107.85764 103.83983
#
# Poissons Ratio (x) = 0.19266 -0.11449
# Poissons Ratio (y) = 0.07536 0.50799
# Poissons Ratio (z) = -0.04651 0.52765
#
# Static dielectric constant tensor:
#      x y z
#    x 1.712140 0.000000 0.000000 
#    y 0.000000 1.627640 0.000000 
#    z 0.000000 0.000000 1.619720 
# 
# From -- ./inp_files/44676.got.cif
#   From: 2010.05.17/outbox.cif.g08.bks.cpg/sg64_23_cif.got.tgz:44676.got - 2010.06.03 16:29:19.
