data_PCOD9476420
_publ_section_title
;
Structure prediction by ZEFSAII (Michael W. Deem and Ramdas Pophale) SiO2 
 PCOD9476420
Probable space group: C M C A
;
_chemical_formula_sum "Si O2"
_cell_formula_units_Z 96
_cell_length_a 14.631132
_cell_length_b 16.006000
_cell_length_c 14.590660
_cell_angle_alpha 90.000000
_cell_angle_beta 90.000000
_cell_angle_gamma 90.000000
_cell_volume 3416.926826
_symmetry_space_group_name_H-M "C M C A"
_symmetry_group_IT_number 64
_symmetry_cell_setting 'orthorhombic'
loop_
_space_group_symop_operation_xyz
x,y,z
-x,1/2-y,1/2+z
x,-y,-z
-x,1/2+y,1/2-z
-x,-y,-z
x,1/2+y,1/2-z
-x,y,z
x,1/2-y,1/2+z
1/2+x,1/2+y,z
1/2-x,-y,1/2+z
1/2+x,1/2-y,-z
1/2-x,y,1/2-z
1/2-x,1/2-y,-z
1/2+x,y,1/2-z
1/2-x,1/2+y,z
1/2+x,-y,1/2+z
loop_
_atom_site_type_symbol
_atom_site_label
_atom_site_fract_x
_atom_site_fract_y
_atom_site_fract_z
Si Si1 0.611728 0.390959 0.014702
Si Si2 0.612495 0.706565 0.152750
Si Si3 0.889154 0.868104 0.460489
Si Si4 0.102393 0.726006 0.666630
Si Si5 0.892055 0.544460 0.133741
Si Si6 0.155356 0.952129 0.199808
O O1 0.500000 0.400364 0.017008
O O2 0.637527 0.304775 0.069162
O O3 0.650518 0.457243 0.088579
O O4 0.639061 0.369880 0.912005
O O5 0.500000 0.706811 0.156314
O O6 0.645142 0.715306 0.257134
O O7 0.643199 0.790286 0.099019
O O8 0.864775 0.955265 0.410758
O O9 0.000000 0.861412 0.460318
O O10 0.856744 0.882843 0.565917
O O11 0.097803 0.633152 0.714360
O O12 0.000000 0.756769 0.649853
O O13 0.876838 0.531445 0.241738
O O14 0.000000 0.548585 0.123402
O O15 0.250000 0.933083 0.250000
#
# Coordination Sequence:
#
# PCOD9476420 Si02
#       6
#    16  16  16  16  16  16
#     4   8  15  25  39  56  76 104 133 163 196 234
#     4   9  13  22  41  62  81 100 126 161 203 241
#     4   8  13  20  38  64  78  92 119 156 205 249
#     4   8  14  25  39  55  79 105 126 163 202 223
#     4   9  14  23  39  58  80  99 122 160 203 239
#     4  10  17  25  36  53  80 111 137 156 186 230
#
# _framework density 28.095423
#
# number of rings (size 3 to 8) (size 9 to 14) (size 15 to 20)
#    1.000    2.333    1.667    2.000    0.000    0.000 
#    0.000    0.833    0.000    1.000    0.000    0.000 
#    0.000    0.000    0.000   31.000    0.000    0.000 
#
# Total GULP energy -267745.618506 kJ/mol
# GULP energy per Si atom -5578.033719 kJ/mol
# Density = 2.803148 g / cm^3
# Si number density = 28.095423 Si / 1000 Ang^3
#
#
#
# Elastic Constant Matrix: (Units=GPa)
#
#
# Indices 1 2 3 4 5 6 
#
# 1 89.2138 -27.6107 -43.3441 0.0000 0.0000 0.0000
# 2 -27.6107 129.7900 22.0659 0.0000 0.0000 0.0000
# 3 -43.3441 22.0659 186.6272 0.0000 0.0000 0.0000
# 4 0.0000 0.0000 0.0000 38.0936 0.0000 0.0000
# 5 0.0000 0.0000 0.0000 0.0000 -3.8693 0.0000
# 6 0.0000 0.0000 0.0000 0.0000 0.0000 -4.5528
#
#
#
# Elastic Compliance Matrix: (Units=1/GPa)
#
#
# Indices 1 2 3 4 5 6 
#
# 1 0.013303 0.002352 0.002812 0.000000 0.000000 0.000000
# 2 0.002352 0.008279 -0.000433 0.000000 0.000000 0.000000
# 3 0.002812 -0.000433 0.006062 0.000000 0.000000 0.000000
# 4 0.000000 0.000000 0.000000 0.026251 0.000000 0.000000
# 5 0.000000 0.000000 0.000000 0.000000 -0.258442 0.000000
# 6 0.000000 0.000000 0.000000 0.000000 0.000000 -0.219645
#
#
# Mechanical properties :
#
#
# Convention : Reuss Voigt Hill
#
# Bulk Modulus (GPa) = 26.95003 34.20593 30.57798
# Shear Modulus (GPa) = -11.86845 36.23562 12.18358
#
# Velocity S-wave (km/s) = -2.05755 3.59518 2.08469
# Velocity P-wave (km/s) = 1.99210 5.42541 4.08678
#
# Compressibility (1/GPa) = 0.03710571
#
# Stress axis : x y z
#
# Youngs Moduli (GPa) = 75.17166 120.79277 164.95138
#
# Poissons Ratio (x) = -0.28410 -0.46376
# Poissons Ratio (y) = -0.17680 0.07135
# Poissons Ratio (z) = -0.21135 0.05225
#
# Static dielectric constant tensor:
#      x y z
#    x 2.183030 0.000000 0.000000 
#    y 0.000000 2.276330 0.000000 
#    z 0.000000 0.000000 2.256120 
# 
# From -- ./inp_files/34574.got.cif
#   From: 2010.05.17/outbox.cif.g08.bks.cpg/sg64_18_cif.got.tgz:34574.got - 2010.06.03 16:29:19.
