data_PCOD9476658
_publ_section_title
;
Structure prediction by ZEFSAII (Michael W. Deem and Ramdas Pophale) SiO2 
 PCOD9476658
Probable space group: C M C A
;
_chemical_formula_sum "Si O2"
_cell_formula_units_Z 80
_cell_length_a 14.971443
_cell_length_b 21.470102
_cell_length_c 14.538065
_cell_angle_alpha 90.000000
_cell_angle_beta 90.000000
_cell_angle_gamma 90.000000
_cell_volume 4673.092473
_symmetry_space_group_name_H-M "C M C A"
_symmetry_group_IT_number 64
_symmetry_cell_setting 'orthorhombic'
loop_
_space_group_symop_operation_xyz
x,y,z
-x,1/2-y,1/2+z
x,-y,-z
-x,1/2+y,1/2-z
-x,-y,-z
x,1/2+y,1/2-z
-x,y,z
x,1/2-y,1/2+z
1/2+x,1/2+y,z
1/2-x,-y,1/2+z
1/2+x,1/2-y,-z
1/2-x,y,1/2-z
1/2-x,1/2-y,-z
1/2+x,y,1/2-z
1/2-x,1/2+y,z
1/2+x,-y,1/2+z
loop_
_atom_site_type_symbol
_atom_site_label
_atom_site_fract_x
_atom_site_fract_y
_atom_site_fract_z
Si Si1 0.393679 0.073987 0.003837
Si Si2 0.395665 0.768259 0.330573
Si Si3 0.777070 0.143533 0.347682
Si Si4 0.397446 0.165479 0.848611
Si Si5 0.843149 0.718779 0.469384
O O1 0.500000 0.088421 0.013899
O O2 0.338896 0.101418 0.088680
O O3 0.359762 0.110333 0.912246
O O4 0.383970 0.000000 0.000000
O O5 0.500000 0.752994 0.311696
O O6 0.334510 0.706581 0.328001
O O7 0.361564 0.814945 0.251204
O O8 0.389797 0.795376 0.433922
O O9 0.750000 0.115803 0.250000
O O10 0.688147 0.163076 0.404041
O O11 0.500000 0.147996 0.831980
O O12 0.392467 0.228005 0.910868
O O13 0.750000 0.750000 0.500000
#
# Coordination Sequence:
#
# PCOD9476658 Si02
#       5
#    16  16  16  16  16
#     4  10  21  38  56  73 102 144 185 216 247 305
#     4  10  19  30  48  77 109 135 166 210 262 321
#     4  11  20  33  51  77 107 133 170 216 272 312
#     4  10  18  30  50  76 101 132 172 209 255 312
#     4  10  18  28  47  74 106 134 157 212 267 313
#
# _framework density 17.119285000000001
#
# number of rings (size 3 to 8) (size 9 to 14) (size 15 to 20)
#    0.000    1.800    6.000    1.200    0.000    0.000 
#    0.000    2.000    0.000    0.000    0.000    0.000 
#    0.000    9.600    0.000    0.000    0.000    0.000 
#
# Total GULP energy -222803.622697 kJ/mol
# GULP energy per Si atom -5570.090567 kJ/mol
# Density = 1.708032 g / cm^3
# Si number density = 17.119285 Si / 1000 Ang^3
#
#
#
# Elastic Constant Matrix: (Units=GPa)
#
#
# Indices 1 2 3 4 5 6 
#
# 1 39.7729 14.4143 10.0170 0.0000 0.0000 0.0000
# 2 14.4143 70.8594 46.4002 0.0000 0.0000 0.0000
# 3 10.0170 46.4002 133.4275 0.0000 0.0000 0.0000
# 4 0.0000 0.0000 0.0000 12.0932 0.0000 0.0000
# 5 0.0000 0.0000 0.0000 0.0000 26.2223 0.0000
# 6 0.0000 0.0000 0.0000 0.0000 0.0000 15.2255
#
#
#
# Elastic Compliance Matrix: (Units=1/GPa)
#
#
# Indices 1 2 3 4 5 6 
#
# 1 0.027146 -0.005422 -0.000152 0.000000 0.000000 0.000000
# 2 -0.005422 0.019357 -0.006324 0.000000 0.000000 0.000000
# 3 -0.000152 -0.006324 0.009705 0.000000 0.000000 0.000000
# 4 0.000000 0.000000 0.000000 0.082691 0.000000 0.000000
# 5 0.000000 0.000000 0.000000 0.000000 0.038136 0.000000
# 6 0.000000 0.000000 0.000000 0.000000 0.000000 0.065679
#
#
# Mechanical properties :
#
#
# Convention : Reuss Voigt Hill
#
# Bulk Modulus (GPa) = 30.85427 42.85809 36.85618
# Shear Modulus (GPa) = 18.02998 22.25675 20.14336
#
# Velocity S-wave (km/s) = 3.24882 3.60960 3.43395
# Velocity P-wave (km/s) = 5.66880 6.51626 6.10725
#
# Compressibility (1/GPa) = 0.03241043
#
# Stress axis : x y z
#
# Youngs Moduli (GPa) = 36.83744 51.66141 103.03463
#
# Poissons Ratio (x) = 0.28013 0.01570
# Poissons Ratio (y) = 0.19975 0.65163
# Poissons Ratio (z) = 0.00561 0.32673
#
# Static dielectric constant tensor:
#      x y z
#    x 1.635520 0.000000 0.000000 
#    y 0.000000 1.566440 0.000000 
#    z 0.000000 0.000000 1.644500 
# 
# From -- ./inp_files/23647.got.cif
#   From: 2010.05.17/outbox.cif.g08.bks.cpg/sg64_12_cif.got.tgz:23647.got - 2010.06.03 16:29:19.
