data_PCOD9476805
_publ_section_title
;
Structure prediction by ZEFSAII (Michael W. Deem and Ramdas Pophale) SiO2 
 PCOD9476805
Probable space group: C M C A
;
_chemical_formula_sum "Si O2"
_cell_formula_units_Z 80
_cell_length_a 14.410317
_cell_length_b 28.145868
_cell_length_c 9.083422
_cell_angle_alpha 90.000000
_cell_angle_beta 90.000000
_cell_angle_gamma 90.000000
_cell_volume 3684.153123
_symmetry_space_group_name_H-M "C M C A"
_symmetry_group_IT_number 64
_symmetry_cell_setting 'orthorhombic'
loop_
_space_group_symop_operation_xyz
x,y,z
-x,1/2-y,1/2+z
x,-y,-z
-x,1/2+y,1/2-z
-x,-y,-z
x,1/2+y,1/2-z
-x,y,z
x,1/2-y,1/2+z
1/2+x,1/2+y,z
1/2-x,-y,1/2+z
1/2+x,1/2-y,-z
1/2-x,y,1/2-z
1/2-x,1/2-y,-z
1/2+x,y,1/2-z
1/2-x,1/2+y,z
1/2+x,-y,1/2+z
loop_
_atom_site_type_symbol
_atom_site_label
_atom_site_fract_x
_atom_site_fract_y
_atom_site_fract_z
Si Si1 0.219039 0.043977 0.416400
Si Si2 0.646231 0.138866 0.201074
Si Si3 0.613787 0.189298 0.675604
Si Si4 0.604191 0.596181 0.987037
Si Si5 0.607203 0.275887 0.488501
O O1 0.250000 0.031741 0.250000
O O2 0.157290 0.091547 0.399301
O O3 0.314636 0.057965 0.498624
O O4 0.174255 0.000000 0.500000
O O5 0.750000 0.152153 0.250000
O O6 0.600011 0.122718 0.353563
O O7 0.607538 0.182878 0.111212
O O8 0.500000 0.190602 0.674978
O O9 0.635981 0.136145 0.628160
O O10 0.647524 0.227793 0.556394
O O11 0.647359 0.204407 0.836625
O O12 0.500000 0.578867 0.952932
O O13 0.500000 0.264331 0.454296
#
# Coordination Sequence:
#
# PCOD9476805 Si02
#       5
#    16  16  16  16  16
#     4   9  20  36  53  72  97 129 162 200 252 302
#     4   9  19  34  50  72  99 132 168 201 245 294
#     4   9  18  30  49  77 102 129 164 203 246 288
#     4   9  17  33  54  75  99 127 165 207 245 288
#     4  10  18  31  51  73 101 135 168 201 241 290
#
# _framework density 21.714623
#
# number of rings (size 3 to 8) (size 9 to 14) (size 15 to 20)
#    0.000    3.200    0.000    1.800    0.000    5.200 
#    0.000   12.000    0.000   15.000    0.000    0.000 
#    0.000    0.000    0.000    0.000    0.000    0.000 
#
# Total GULP energy -223278.239202 kJ/mol
# GULP energy per Si atom -5581.955980 kJ/mol
# Density = 2.166520 g / cm^3
# Si number density = 21.714623 Si / 1000 Ang^3
#
#
#
# Elastic Constant Matrix: (Units=GPa)
#
#
# Indices 1 2 3 4 5 6 
#
# 1 49.9904 -2.2791 1.0829 0.0000 0.0000 0.0000
# 2 -2.2791 54.3301 17.4850 0.0000 0.0000 0.0000
# 3 1.0829 17.4850 43.2415 0.0000 0.0000 0.0000
# 4 0.0000 0.0000 0.0000 28.6266 0.0000 0.0000
# 5 0.0000 0.0000 0.0000 0.0000 13.6057 0.0000
# 6 0.0000 0.0000 0.0000 0.0000 0.0000 5.3395
#
#
#
# Elastic Compliance Matrix: (Units=1/GPa)
#
#
# Indices 1 2 3 4 5 6 
#
# 1 0.020077 0.001154 -0.000970 0.000000 0.000000 0.000000
# 2 0.001154 0.021226 -0.008612 0.000000 0.000000 0.000000
# 3 -0.000970 -0.008612 0.026632 0.000000 0.000000 0.000000
# 4 0.000000 0.000000 0.000000 0.034933 0.000000 0.000000
# 5 0.000000 0.000000 0.000000 0.000000 0.073499 0.000000
# 6 0.000000 0.000000 0.000000 0.000000 0.000000 0.187282
#
#
# Mechanical properties :
#
#
# Convention : Reuss Voigt Hill
#
# Bulk Modulus (GPa) = 19.57644 20.01549 19.79596
# Shear Modulus (GPa) = 12.57766 18.26591 15.42179
#
# Velocity S-wave (km/s) = 2.40932 2.90346 2.66785
# Velocity P-wave (km/s) = 4.09569 4.52522 4.31580
#
# Compressibility (1/GPa) = 0.05108182
#
# Stress axis : x y z
#
# Youngs Moduli (GPa) = 49.80706 47.11218 37.54818
#
# Poissons Ratio (x) = -0.05438 0.03640
# Poissons Ratio (y) = -0.05749 0.32336
# Poissons Ratio (z) = 0.04829 0.40572
#
# Static dielectric constant tensor:
#      x y z
#    x 1.855220 0.000000 0.000000 
#    y 0.000000 1.766600 0.000000 
#    z 0.000000 0.000000 1.790790 
# 
# From -- ./inp_files/7257.got.cif
#   From: 2010.05.17/outbox.cif.g08.bks.cpg/sg64_4_cif.got.tgz:7257.got - 2010.06.03 16:29:19.
