data_PCOD9476650
_publ_section_title
;
Structure prediction by ZEFSAII (Michael W. Deem and Ramdas Pophale) SiO2 
 PCOD9476650
Probable space group: C M C A
;
_chemical_formula_sum "Si O2"
_cell_formula_units_Z 64
_cell_length_a 5.515833
_cell_length_b 28.714749
_cell_length_c 19.430186
_cell_angle_alpha 90.000000
_cell_angle_beta 90.000000
_cell_angle_gamma 90.000000
_cell_volume 3077.464779
_symmetry_space_group_name_H-M "C M C A"
_symmetry_group_IT_number 64
_symmetry_cell_setting 'orthorhombic'
loop_
_space_group_symop_operation_xyz
x,y,z
-x,1/2-y,1/2+z
x,-y,-z
-x,1/2+y,1/2-z
-x,-y,-z
x,1/2+y,1/2-z
-x,y,z
x,1/2-y,1/2+z
1/2+x,1/2+y,z
1/2-x,-y,1/2+z
1/2+x,1/2-y,-z
1/2-x,y,1/2-z
1/2-x,1/2-y,-z
1/2+x,y,1/2-z
1/2-x,1/2+y,z
1/2+x,-y,1/2+z
loop_
_atom_site_type_symbol
_atom_site_label
_atom_site_fract_x
_atom_site_fract_y
_atom_site_fract_z
Si Si1 0.000000 0.015422 0.286282
Si Si2 0.000000 0.787411 0.116886
Si Si3 0.500000 0.982464 0.078638
Si Si4 0.500000 0.691091 0.465343
Si Si5 0.000000 0.353021 0.515444
Si Si6 0.500000 0.547438 0.956631
Si Si7 0.000000 0.902173 0.288640
Si Si8 0.500000 0.313576 0.369670
O O1 0.250000 0.030172 0.250000
O O2 0.000000 0.025143 0.367871
O O3 0.000000 0.958608 0.289327
O O4 0.250043 0.792213 0.157405
O O5 0.000000 0.740331 0.072468
O O6 0.000000 0.830065 0.061359
O O7 0.752296 0.954564 0.086468
O O8 0.500000 0.000000 0.000000
O O9 0.249188 0.664290 0.450194
O O10 0.500000 0.697686 0.548359
O O11 0.000000 0.408029 0.504929
O O12 0.500000 0.500000 0.000000
O O13 0.750000 0.889762 0.250000
O O14 0.000000 0.868607 0.355104
#
# Coordination Sequence:
#
# PCOD9476650 Si02
#       8
#     8   8   8   8   8   8   8   8
#     4  10  21  35  52  75 104 142 186 234 269 326
#     4  10  19  29  46  71  97 124 170 211 250 313
#     4  10  21  36  54  74 106 143 183 236 280 326
#     4  10  19  31  44  73  97 124 173 210 250 314
#     4  10  18  28  46  64  94 138 165 198 259 313
#     4  10  21  33  48  75 103 141 181 222 266 331
#     4  10  21  33  44  67 100 135 187 223 240 307
#     4  10  18  29  46  63  90 137 166 206 253 288
#
# _framework density 20.796337000000001
#
# number of rings (size 3 to 8) (size 9 to 14) (size 15 to 20)
#    0.000    2.000    0.000    6.000    7.000    0.000 
#    0.000    0.000    0.000    0.000    0.000    0.000 
#    0.000    0.000    0.000  522.000    0.000    0.000 
#
# Total GULP energy -178466.096729 kJ/mol
# GULP energy per Si atom -5577.065523 kJ/mol
# Density = 2.074900 g / cm^3
# Si number density = 20.796337 Si / 1000 Ang^3
#
#
#
# Elastic Constant Matrix: (Units=GPa)
#
#
# Indices 1 2 3 4 5 6 
#
# 1 235.3949 22.0658 12.4246 0.0000 0.0000 0.0000
# 2 22.0658 82.5682 -4.5999 0.0000 0.0000 0.0000
# 3 12.4246 -4.5999 44.1215 0.0000 0.0000 0.0000
# 4 0.0000 0.0000 0.0000 16.8984 0.0000 0.0000
# 5 0.0000 0.0000 0.0000 0.0000 19.0494 0.0000
# 6 0.0000 0.0000 0.0000 0.0000 0.0000 11.3333
#
#
#
# Elastic Compliance Matrix: (Units=1/GPa)
#
#
# Indices 1 2 3 4 5 6 
#
# 1 0.004440 -0.001263 -0.001382 0.000000 0.000000 0.000000
# 2 -0.001263 0.012542 0.001663 0.000000 0.000000 0.000000
# 3 -0.001382 0.001663 0.023227 0.000000 0.000000 0.000000
# 4 0.000000 0.000000 0.000000 0.059177 0.000000 0.000000
# 5 0.000000 0.000000 0.000000 0.000000 0.052495 0.000000
# 6 0.000000 0.000000 0.000000 0.000000 0.000000 0.088235
#
#
# Mechanical properties :
#
#
# Convention : Reuss Voigt Hill
#
# Bulk Modulus (GPa) = 26.14773 46.87397 36.51085
# Shear Modulus (GPa) = 19.62107 31.60248 25.61178
#
# Velocity S-wave (km/s) = 3.07496 3.90246 3.51316
# Velocity P-wave (km/s) = 5.02072 6.54935 5.83531
#
# Compressibility (1/GPa) = 0.03824423
#
# Stress axis : x y z
#
# Youngs Moduli (GPa) = 225.24789 79.73521 43.05291
#
# Poissons Ratio (x) = 0.10074 0.05949
# Poissons Ratio (y) = 0.28458 -0.07161
# Poissons Ratio (z) = 0.31127 -0.13262
#
# Static dielectric constant tensor:
#      x y z
#    x 1.769300 0.000000 0.000000 
#    y 0.000000 1.707720 0.000000 
#    z 0.000000 0.000000 1.804540 
# 
# From -- ./inp_files/35960.got.cif
#   From: 2010.05.17/outbox.cif.g08.bks.cpg/sg64_18_cif.got.tgz:35960.got - 2010.06.03 16:29:19.
