data_PCOD9476652
_publ_section_title
;
Structure prediction by ZEFSAII (Michael W. Deem and Ramdas Pophale) SiO2 
 PCOD9476652
Probable space group: C M C A
;
_chemical_formula_sum "Si O2"
_cell_formula_units_Z 96
_cell_length_a 23.573647
_cell_length_b 19.841565
_cell_length_c 12.117376
_cell_angle_alpha 90.000000
_cell_angle_beta 90.000000
_cell_angle_gamma 90.000000
_cell_volume 5667.757812
_symmetry_space_group_name_H-M "C M C A"
_symmetry_group_IT_number 64
_symmetry_cell_setting 'orthorhombic'
loop_
_space_group_symop_operation_xyz
x,y,z
-x,1/2-y,1/2+z
x,-y,-z
-x,1/2+y,1/2-z
-x,-y,-z
x,1/2+y,1/2-z
-x,y,z
x,1/2-y,1/2+z
1/2+x,1/2+y,z
1/2-x,-y,1/2+z
1/2+x,1/2-y,-z
1/2-x,y,1/2-z
1/2-x,1/2-y,-z
1/2+x,y,1/2-z
1/2-x,1/2+y,z
1/2+x,-y,1/2+z
loop_
_atom_site_type_symbol
_atom_site_label
_atom_site_fract_x
_atom_site_fract_y
_atom_site_fract_z
Si Si1 0.301175 0.215238 0.825087
Si Si2 0.309781 0.554802 0.315019
Si Si3 0.935336 0.579153 0.530030
Si Si4 0.250720 0.887679 0.485632
Si Si5 0.334104 0.419906 0.200117
Si Si6 0.642712 0.850334 0.640601
O O1 0.250000 0.245605 0.750000
O O2 0.275175 0.180648 0.934349
O O3 0.323427 0.150884 0.758239
O O4 0.348879 0.270861 0.843611
O O5 0.250000 0.558781 0.250000
O O6 0.295163 0.573294 0.440773
O O7 0.334356 0.481515 0.285236
O O8 0.349646 0.610048 0.255423
O O9 0.933818 0.500000 0.500000
O O10 0.891295 0.585247 0.630202
O O11 0.910726 0.622845 0.428269
O O12 0.000000 0.597780 0.555927
O O13 0.281140 0.928613 0.385955
O O14 0.303053 0.869944 0.564962
#
# Coordination Sequence:
#
# PCOD9476652 Si02
#       6
#    16  16  16  16  16  16
#     4  10  19  32  48  76 113 148 166 196 252 327
#     4  10  18  28  46  72 105 136 170 210 244 300
#     4  10  20  37  58  75  93 127 178 233 269 291
#     4   9  19  30  47  73 111 144 171 195 253 315
#     4  10  20  33  49  77 107 135 176 211 258 307
#     4  10  19  31  51  75 103 132 175 212 254 303
#
# _framework density 16.937915
#
# number of rings (size 3 to 8) (size 9 to 14) (size 15 to 20)
#    0.000    2.167    1.667    3.500    0.000    6.000 
#    0.000    0.833    0.000    0.000    0.000    3.500 
#    0.000    0.000    0.000    0.000    0.000    0.000 
#
# Total GULP energy -267717.689164 kJ/mol
# GULP energy per Si atom -5577.451858 kJ/mol
# Density = 1.689936 g / cm^3
# Si number density = 16.937915 Si / 1000 Ang^3
#
#
#
# Elastic Constant Matrix: (Units=GPa)
#
#
# Indices 1 2 3 4 5 6 
#
# 1 86.8818 31.5327 31.7683 0.0000 0.0000 0.0000
# 2 31.5327 82.7309 43.8111 0.0000 0.0000 0.0000
# 3 31.7683 43.8111 78.9228 0.0000 0.0000 0.0000
# 4 0.0000 0.0000 0.0000 19.0758 0.0000 0.0000
# 5 0.0000 0.0000 0.0000 0.0000 15.0900 0.0000
# 6 0.0000 0.0000 0.0000 0.0000 0.0000 11.1784
#
#
#
# Elastic Compliance Matrix: (Units=1/GPa)
#
#
# Indices 1 2 3 4 5 6 
#
# 1 0.014127 -0.003361 -0.003821 0.000000 0.000000 0.000000
# 2 -0.003361 0.017920 -0.008595 0.000000 0.000000 0.000000
# 3 -0.003821 -0.008595 0.018979 0.000000 0.000000 0.000000
# 4 0.000000 0.000000 0.000000 0.052422 0.000000 0.000000
# 5 0.000000 0.000000 0.000000 0.000000 0.066269 0.000000
# 6 0.000000 0.000000 0.000000 0.000000 0.000000 0.089458
#
#
# Mechanical properties :
#
#
# Convention : Reuss Voigt Hill
#
# Bulk Modulus (GPa) = 51.35196 51.41776 51.38486
# Shear Modulus (GPa) = 16.82256 18.49706 17.65981
#
# Velocity S-wave (km/s) = 3.15491 3.30820 3.23247
# Velocity P-wave (km/s) = 6.60718 6.70931 6.65844
#
# Compressibility (1/GPa) = 0.01947345
#
# Stress axis : x y z
#
# Youngs Moduli (GPa) = 70.78767 55.80398 52.68863
#
# Poissons Ratio (x) = 0.18757 0.20130
# Poissons Ratio (y) = 0.23793 0.45284
# Poissons Ratio (z) = 0.27044 0.47961
#
# Static dielectric constant tensor:
#      x y z
#    x 1.548800 0.000000 0.000000 
#    y 0.000000 1.599650 0.000000 
#    z 0.000000 0.000000 1.627860 
# 
# From -- ./inp_files/18470.got.cif
#   From: 2010.05.17/outbox.cif.g08.bks.cpg/sg64_10_cif.got.tgz:18470.got - 2010.06.03 16:29:19.
