data_PCOD9476944
_publ_section_title
;
Structure prediction by ZEFSAII (Michael W. Deem and Ramdas Pophale) SiO2 
 PCOD9476944
Probable space group: C M C A
;
_chemical_formula_sum "Si O2"
_cell_formula_units_Z 112
_cell_length_a 25.200459
_cell_length_b 22.293061
_cell_length_c 11.166449
_cell_angle_alpha 90.000000
_cell_angle_beta 90.000000
_cell_angle_gamma 90.000000
_cell_volume 6273.259344
_symmetry_space_group_name_H-M "C M C A"
_symmetry_group_IT_number 64
_symmetry_cell_setting 'orthorhombic'
loop_
_space_group_symop_operation_xyz
x,y,z
-x,1/2-y,1/2+z
x,-y,-z
-x,1/2+y,1/2-z
-x,-y,-z
x,1/2+y,1/2-z
-x,y,z
x,1/2-y,1/2+z
1/2+x,1/2+y,z
1/2-x,-y,1/2+z
1/2+x,1/2-y,-z
1/2-x,y,1/2-z
1/2-x,1/2-y,-z
1/2+x,y,1/2-z
1/2-x,1/2+y,z
1/2+x,-y,1/2+z
loop_
_atom_site_type_symbol
_atom_site_label
_atom_site_fract_x
_atom_site_fract_y
_atom_site_fract_z
Si Si1 0.062152 0.020932 0.862920
Si Si2 0.309296 0.720199 0.691563
Si Si3 0.870927 0.435981 0.794973
Si Si4 0.692494 0.645494 0.115929
Si Si5 0.305748 0.870967 0.973086
Si Si6 0.647899 0.874104 0.349811
Si Si7 0.294007 0.038425 0.825746
O O1 0.078941 0.966468 0.772470
O O2 0.000000 0.033562 0.848275
O O3 0.097196 0.081580 0.846627
O O4 0.071981 0.000000 0.000000
O O5 0.250000 0.715314 0.750000
O O6 0.321620 0.789158 0.666514
O O7 0.310813 0.683571 0.566376
O O8 0.351888 0.688856 0.779527
O O9 0.836372 0.405865 0.690474
O O10 0.842374 0.494741 0.844989
O O11 0.860085 0.388737 0.903975
O O12 0.756428 0.642352 0.113074
O O13 0.670140 0.638014 0.981299
O O14 0.284590 0.927472 0.051378
O O15 0.690452 0.911371 0.271717
O O16 0.250000 0.003135 0.750000
#
# Coordination Sequence:
#
# PCOD9476944 Si02
#       7
#    16  16  16  16  16  16  16
#     4  10  21  41  65  84 106 142 193 254 311 355
#     4  11  22  35  54  76 121 169 193 220 266 340
#     4  11  23  31  52  86 109 143 189 238 290 338
#     4  12  21  33  51  83 119 157 190 228 266 338
#     4  11  20  34  49  78 121 160 193 216 268 332
#     4  10  20  36  56  81 111 147 194 236 285 336
#     4  10  18  33  50  73 115 156 181 223 275 337
#
# _framework density 17.853558
#
# number of rings (size 3 to 8) (size 9 to 14) (size 15 to 20)
#    0.000    1.286    4.286    3.857    2.000    0.000 
#    0.000    0.000    0.000   17.143    0.000    0.000 
#    0.000    0.000    0.000    0.000    0.000    0.000 
#
# Total GULP energy -311830.847833 kJ/mol
# GULP energy per Si atom -5568.407997 kJ/mol
# Density = 1.781292 g / cm^3
# Si number density = 17.853558 Si / 1000 Ang^3
#
#
#
# Elastic Constant Matrix: (Units=GPa)
#
#
# Indices 1 2 3 4 5 6 
#
# 1 77.8427 30.8513 26.6738 0.0000 0.0000 0.0000
# 2 30.8513 95.3390 30.8558 0.0000 0.0000 0.0000
# 3 26.6738 30.8558 89.9467 0.0000 0.0000 0.0000
# 4 0.0000 0.0000 0.0000 28.1765 0.0000 0.0000
# 5 0.0000 0.0000 0.0000 0.0000 20.1097 0.0000
# 6 0.0000 0.0000 0.0000 0.0000 0.0000 16.6776
#
#
#
# Elastic Compliance Matrix: (Units=1/GPa)
#
#
# Indices 1 2 3 4 5 6 
#
# 1 0.015534 -0.003977 -0.003242 0.000000 0.000000 0.000000
# 2 -0.003977 0.012817 -0.003217 0.000000 0.000000 0.000000
# 3 -0.003242 -0.003217 0.013183 0.000000 0.000000 0.000000
# 4 0.000000 0.000000 0.000000 0.035491 0.000000 0.000000
# 5 0.000000 0.000000 0.000000 0.000000 0.049727 0.000000
# 6 0.000000 0.000000 0.000000 0.000000 0.000000 0.059961
#
#
# Mechanical properties :
#
#
# Convention : Reuss Voigt Hill
#
# Bulk Modulus (GPa) = 48.40261 48.87669 48.63965
# Shear Modulus (GPa) = 23.31299 24.64260 23.97779
#
# Velocity S-wave (km/s) = 3.61749 3.71922 3.66871
# Velocity P-wave (km/s) = 6.67968 6.77343 6.72672
#
# Compressibility (1/GPa) = 0.02066004
#
# Stress axis : x y z
#
# Youngs Moduli (GPa) = 64.37614 78.02005 75.85598
#
# Poissons Ratio (x) = 0.31031 0.24594
# Poissons Ratio (y) = 0.25605 0.24406
# Poissons Ratio (z) = 0.20872 0.25102
#
# Static dielectric constant tensor:
#      x y z
#    x 1.613990 0.000000 0.000000 
#    y 0.000000 1.646270 0.000000 
#    z 0.000000 0.000000 1.679100 
# 
# From -- ./inp_files/18522.got.cif
#   From: 2010.05.17/outbox.cif.g08.bks.cpg/sg64_10_cif.got.tgz:18522.got - 2010.06.03 16:29:19.
