data_PCOD9476071
_publ_section_title
;
Structure prediction by ZEFSAII (Michael W. Deem and Ramdas Pophale) SiO2 
 PCOD9476071
Probable space group: C M C M
;
_chemical_formula_sum "Si O2"
_cell_formula_units_Z 48
_cell_length_a 27.000000
_cell_length_b 9.000000
_cell_length_c 21.000000
_cell_angle_alpha 90.000000
_cell_angle_beta 90.000000
_cell_angle_gamma 90.000000
_cell_volume 5103.000000
_symmetry_space_group_name_H-M "C M C M"
_symmetry_group_IT_number 63
_symmetry_cell_setting 'orthorhombic'
loop_
_space_group_symop_operation_xyz
x,y,z
-x,-y,1/2+z
x,-y,-z
-x,y,1/2-z
-x,-y,-z
x,y,1/2-z
-x,y,z
x,-y,1/2+z
1/2+x,1/2+y,z
1/2-x,1/2-y,1/2+z
1/2+x,1/2-y,-z
1/2-x,1/2+y,1/2-z
1/2-x,1/2-y,-z
1/2+x,1/2+y,1/2-z
1/2-x,1/2+y,z
1/2+x,1/2-y,1/2+z
loop_
_atom_site_type_symbol
_atom_site_label
_atom_site_fract_x
_atom_site_fract_y
_atom_site_fract_z
Si Si1 0.771441 0.988524 0.181144
Si Si2 0.755281 0.257652 0.900582
Si Si3 0.148690 0.668054 0.566977
Si Si4 0.366237 0.816751 0.926450
Si Si5 0.941258 0.826614 0.325043
Si Si6 0.880422 0.887197 0.820732
O O1 0.752471 0.036504 0.250000
O O2 0.753248 0.072794 0.118307
O O3 0.830407 0.012384 0.181126
O O4 0.752725 0.823882 0.167802
O O5 0.707861 0.203619 0.940323
O O6 0.812146 0.239379 0.920033
O O7 0.121200 0.705854 0.500904
O O8 0.141775 0.493905 0.580942
O O9 0.128509 0.767215 0.624664
O O10 0.405996 0.759540 0.875150
O O11 0.931263 0.788252 0.250000
O O12 0.000000 0.805060 0.336495
O O13 0.925379 0.999525 0.331959
O O14 0.885426 0.819871 0.750000
#
# Coordination Sequence:
#
# PCOD9476071 Si02
#       6
#    16  16  16  16  16  16
#     4  10  19  30  50  80 114 151 192 235 286 345
#     4  11  19  35  51  81 120 160 196 234 284 346
#     4  10  23  38  55  87 122 162 198 234 287 355
#     4  11  22  39  58  84 122 159 201 244 289 344
#     4  10  22  42  67  91 113 145 195 253 306 353
#     4   9  19  38  58  82 115 149 191 243 294 348
#
# _framework density 9.4062319999999993
#
# number of rings (size 3 to 8) (size 9 to 14) (size 15 to 20)
#    0.000    1.833    3.333    1.000    0.000    2.667 
#    0.000    4.167    0.000    2.000    0.000    0.000 
#    0.000    0.000    0.000    0.000    0.000    0.000 
#
# Total GULP energy -267219.625843 kJ/mol
# GULP energy per Si atom -5567.075538 kJ/mol
# Density = 0.938482 g / cm^3
# Si number density = 9.406232 Si / 1000 Ang^3
#
#
#
# Elastic Constant Matrix: (Units=GPa)
#
#
# Indices 1 2 3 4 5 6 
#
# 1 99.6926 26.2340 68.8672 0.0000 0.0000 0.0000
# 2 26.2340 55.4561 62.1038 0.0000 0.0000 0.0000
# 3 68.8672 62.1038 135.4113 0.0000 0.0000 0.0000
# 4 0.0000 0.0000 0.0000 26.4734 0.0000 0.0000
# 5 0.0000 0.0000 0.0000 0.0000 24.2215 0.0000
# 6 0.0000 0.0000 0.0000 0.0000 0.0000 21.5919
#
#
#
# Elastic Compliance Matrix: (Units=1/GPa)
#
#
# Indices 1 2 3 4 5 6 
#
# 1 0.015722 0.003119 -0.009426 0.000000 0.000000 0.000000
# 2 0.003119 0.037692 -0.018873 0.000000 0.000000 0.000000
# 3 -0.009426 -0.018873 0.020834 0.000000 0.000000 0.000000
# 4 0.000000 0.000000 0.000000 0.037774 0.000000 0.000000
# 5 0.000000 0.000000 0.000000 0.000000 0.041286 0.000000
# 6 0.000000 0.000000 0.000000 0.000000 0.000000 0.046314
#
#
# Mechanical properties :
#
#
# Convention : Reuss Voigt Hill
#
# Bulk Modulus (GPa) = 41.86235 67.21889 54.54062
# Shear Modulus (GPa) = 19.38404 23.34770 21.36587
#
# Velocity S-wave (km/s) = 3.21344 3.52671 3.37371
# Velocity P-wave (km/s) = 6.00575 7.23825 6.65061
#
# Compressibility (1/GPa) = 0.02388781
#
# Stress axis : x y z
#
# Youngs Moduli (GPa) = 63.60689 26.53071 47.99751
#
# Poissons Ratio (x) = -0.08274 0.45242
# Poissons Ratio (y) = -0.19837 0.90585
# Poissons Ratio (z) = 0.59956 0.50071
#
# Static dielectric constant tensor:
#      x y z
#    x 1.636400 0.000000 0.000000 
#    y 0.000000 1.654190 0.000000 
#    z 0.000000 0.000000 1.675230 
# 
# From -- ./inp_files/58063.got.cif
#   From: 2010.05.17/outbox.ucp.g08.bks.cvg/sg63_30_cif.got.tgz:58063.got - 2010.06.11 16:32:19.
