data_PCOD9476664
_publ_section_title
;
Structure prediction by ZEFSAII (Michael W. Deem and Ramdas Pophale) SiO2 
 PCOD9476664
Probable space group: C M C A
;
_chemical_formula_sum "Si O2"
_cell_formula_units_Z 128
_cell_length_a 19.129265
_cell_length_b 20.594605
_cell_length_c 19.185872
_cell_angle_alpha 90.000000
_cell_angle_beta 90.000000
_cell_angle_gamma 90.000000
_cell_volume 7558.459545
_symmetry_space_group_name_H-M "C M C A"
_symmetry_group_IT_number 64
_symmetry_cell_setting 'orthorhombic'
loop_
_space_group_symop_operation_xyz
x,y,z
-x,1/2-y,1/2+z
x,-y,-z
-x,1/2+y,1/2-z
-x,-y,-z
x,1/2+y,1/2-z
-x,y,z
x,1/2-y,1/2+z
1/2+x,1/2+y,z
1/2-x,-y,1/2+z
1/2+x,1/2-y,-z
1/2-x,y,1/2-z
1/2-x,1/2-y,-z
1/2+x,y,1/2-z
1/2-x,1/2+y,z
1/2+x,-y,1/2+z
loop_
_atom_site_type_symbol
_atom_site_label
_atom_site_fract_x
_atom_site_fract_y
_atom_site_fract_z
Si Si1 0.078581 0.071887 0.771012
Si Si2 0.920920 0.354198 0.743617
Si Si3 0.780886 0.395862 0.329471
Si Si4 0.266795 0.260198 0.332792
Si Si5 0.218610 0.882853 0.827863
Si Si6 0.078553 0.287170 0.198241
Si Si7 0.217535 0.004783 0.419632
Si Si8 0.580247 0.963757 0.849817
O O1 0.142377 0.073048 0.824483
O O2 0.081677 0.143358 0.735630
O O3 0.089678 0.016704 0.712368
O O4 0.000000 0.062931 0.799112
O O5 0.863814 0.375359 0.687208
O O6 0.917519 0.276080 0.748776
O O7 0.906691 0.393809 0.814023
O O8 0.000000 0.371621 0.722852
O O9 0.750000 0.397283 0.250000
O O10 0.779469 0.321369 0.354945
O O11 0.733131 0.438362 0.379218
O O12 0.250000 0.254762 0.250000
O O13 0.255683 0.186804 0.357399
O O14 0.348576 0.279713 0.343458
O O15 0.250000 0.894230 0.750000
O O16 0.239740 0.940206 0.878253
O O17 0.000000 0.283136 0.165259
O O18 0.236101 0.000000 0.500000
O O19 0.136422 0.022245 0.408432
O O20 0.500000 0.967567 0.872778
#
# Coordination Sequence:
#
# PCOD9476664 Si02
#       8
#    16  16  16  16  16  16  16  16
#     4  10  18  28  49  77 101 125 158 198 248 296
#     4   9  17  28  49  77 101 125 158 200 249 295
#     4  11  18  33  54  74 100 130 162 207 249 288
#     4   9  16  27  48  77  97 125 158 201 251 290
#     4  10  18  32  54  74 100 130 164 206 249 291
#     4   9  15  24  40  73 108 123 145 194 249 298
#     4  12  24  35  49  72 100 136 172 204 244 290
#     4  10  19  32  48  70  98 129 163 199 244 297
#
# _framework density 16.934667999999999
#
# number of rings (size 3 to 8) (size 9 to 14) (size 15 to 20)
#    0.000    2.000    5.000    1.125    0.000    0.250 
#    0.000    0.625    0.000    1.500    0.000    0.000 
#    0.000    0.000    0.000    0.000    0.000    0.000 
#
# Total GULP energy -356348.876343 kJ/mol
# GULP energy per Si atom -5567.951193 kJ/mol
# Density = 1.689612 g / cm^3
# Si number density = 16.934668 Si / 1000 Ang^3
#
#
#
# Elastic Constant Matrix: (Units=GPa)
#
#
# Indices 1 2 3 4 5 6 
#
# 1 60.8037 -16.6812 5.1734 0.0000 0.0000 0.0000
# 2 -16.6812 75.0751 20.0570 0.0000 0.0000 0.0000
# 3 5.1734 20.0570 41.2973 0.0000 0.0000 0.0000
# 4 0.0000 0.0000 0.0000 0.6505 0.0000 0.0000
# 5 0.0000 0.0000 0.0000 0.0000 10.0226 0.0000
# 6 0.0000 0.0000 0.0000 0.0000 0.0000 25.8025
#
#
#
# Elastic Compliance Matrix: (Units=1/GPa)
#
#
# Indices 1 2 3 4 5 6 
#
# 1 0.018343 0.005389 -0.004915 0.000000 0.000000 0.000000
# 2 0.005389 0.016889 -0.008878 0.000000 0.000000 0.000000
# 3 -0.004915 -0.008878 0.029142 0.000000 0.000000 0.000000
# 4 0.000000 0.000000 0.000000 1.537374 0.000000 0.000000
# 5 0.000000 0.000000 0.000000 0.000000 0.099774 0.000000
# 6 0.000000 0.000000 0.000000 0.000000 0.000000 0.038756
#
#
# Mechanical properties :
#
#
# Convention : Reuss Voigt Hill
#
# Bulk Modulus (GPa) = 21.02333 21.58606 21.30469
# Shear Modulus (GPa) = 2.82017 18.53690 10.67854
#
# Velocity S-wave (km/s) = 1.29187 3.31208 2.51384
# Velocity P-wave (km/s) = 3.82970 5.23458 4.58625
#
# Compressibility (1/GPa) = 0.04756621
#
# Stress axis : x y z
#
# Youngs Moduli (GPa) = 54.51692 59.20980 34.31473
#
# Poissons Ratio (x) = -0.31907 0.16866
# Poissons Ratio (y) = -0.29378 0.30463
# Poissons Ratio (z) = 0.26795 0.52564
#
# Static dielectric constant tensor:
#      x y z
#    x 1.646320 0.000000 0.000000 
#    y 0.000000 1.613440 0.000000 
#    z 0.000000 0.000000 1.517630 
# 
# From -- ./inp_files/34671.got.cif
#   From: 2010.05.17/outbox.cif.g08.bks.cpg/sg64_18_cif.got.tgz:34671.got - 2010.06.03 16:29:19.
