data_PCOD9476175
_publ_section_title
;
Structure prediction by ZEFSAII (Michael W. Deem and Ramdas Pophale) SiO2 
 PCOD9476175
Probable space group: C M C M
;
_chemical_formula_sum "Si O2"
_cell_formula_units_Z 32
_cell_length_a 15.000000
_cell_length_b 15.000000
_cell_length_c 15.000000
_cell_angle_alpha 90.000000
_cell_angle_beta 90.000000
_cell_angle_gamma 90.000000
_cell_volume 3375.000000
_symmetry_space_group_name_H-M "C M C M"
_symmetry_group_IT_number 63
_symmetry_cell_setting 'orthorhombic'
loop_
_space_group_symop_operation_xyz
x,y,z
-x,-y,1/2+z
x,-y,-z
-x,y,1/2-z
-x,-y,-z
x,y,1/2-z
-x,y,z
x,-y,1/2+z
1/2+x,1/2+y,z
1/2-x,1/2-y,1/2+z
1/2+x,1/2-y,-z
1/2-x,1/2+y,1/2-z
1/2-x,1/2-y,-z
1/2+x,1/2+y,1/2-z
1/2-x,1/2+y,z
1/2+x,1/2-y,1/2+z
loop_
_atom_site_type_symbol
_atom_site_label
_atom_site_fract_x
_atom_site_fract_y
_atom_site_fract_z
Si Si1 0.602728 0.589698 0.146199
Si Si2 0.708256 0.589076 0.644652
Si Si3 0.353324 0.273797 0.008266
Si Si4 0.402090 0.909255 0.443714
O O1 0.617275 0.615458 0.250000
O O2 0.500000 0.558743 0.138512
O O3 0.669811 0.509339 0.123582
O O4 0.616728 0.670593 0.078364
O O5 0.701316 0.602654 0.750000
O O6 0.646572 0.660097 0.592346
O O7 0.812104 0.596058 0.615312
O O8 0.400148 0.178142 0.007095
O O9 0.250000 0.250000 0.000000
O O10 0.500000 0.909095 0.397839
O O11 0.395777 0.000000 0.500000
#
# Coordination Sequence:
#
# PCOD9476175 Si02
#       4
#    16  16  16  16
#     4  10  21  37  60  89 116 145 186 237 292 346
#     4  10  21  37  58  86 118 149 186 233 286 345
#     4  10  20  35  56  82 113 149 187 230 280 333
#     4  10  21  38  58  80 111 153 198 239 281 333
#
# _framework density 9.4814810000000005
#
# number of rings (size 3 to 8) (size 9 to 14) (size 15 to 20)
#    0.000    2.000    0.000    4.500    0.000    7.500 
#    0.000    1.250    0.000    1.500    0.000    0.000 
#    0.000    0.000    0.000    0.000    0.000    0.000 
#
# Total GULP energy -178408.958707 kJ/mol
# GULP energy per Si atom -5575.279960 kJ/mol
# Density = 0.945990 g / cm^3
# Si number density = 9.481481 Si / 1000 Ang^3
#
#
#
# Elastic Constant Matrix: (Units=GPa)
#
#
# Indices 1 2 3 4 5 6 
#
# 1 103.4713 30.4967 24.3020 0.0000 0.0000 0.0000
# 2 30.4967 144.0856 57.7118 0.0000 0.0000 0.0000
# 3 24.3020 57.7118 71.1835 0.0000 0.0000 0.0000
# 4 0.0000 0.0000 0.0000 13.0512 0.0000 0.0000
# 5 0.0000 0.0000 0.0000 0.0000 26.9477 0.0000
# 6 0.0000 0.0000 0.0000 0.0000 0.0000 12.1589
#
#
#
# Elastic Compliance Matrix: (Units=1/GPa)
#
#
# Indices 1 2 3 4 5 6 
#
# 1 0.010641 -0.001180 -0.002676 0.000000 0.000000 0.000000
# 2 -0.001180 0.010409 -0.008036 0.000000 0.000000 0.000000
# 3 -0.002676 -0.008036 0.021477 0.000000 0.000000 0.000000
# 4 0.000000 0.000000 0.000000 0.076621 0.000000 0.000000
# 5 0.000000 0.000000 0.000000 0.000000 0.037109 0.000000
# 6 0.000000 0.000000 0.000000 0.000000 0.000000 0.082244
#
#
# Mechanical properties :
#
#
# Convention : Reuss Voigt Hill
#
# Bulk Modulus (GPa) = 53.35536 60.41795 56.88665
# Shear Modulus (GPa) = 18.61970 24.18022 21.39996
#
# Velocity S-wave (km/s) = 3.13692 3.57477 3.36298
# Velocity P-wave (km/s) = 6.42792 6.99777 6.71889
#
# Compressibility (1/GPa) = 0.01874226
#
# Stress axis : x y z
#
# Youngs Moduli (GPa) = 93.97718 96.07178 46.56185
#
# Poissons Ratio (x) = 0.11341 0.12459
# Poissons Ratio (y) = 0.11094 0.37417
# Poissons Ratio (z) = 0.25146 0.77203
#
# Static dielectric constant tensor:
#      x y z
#    x 1.678640 0.000000 0.000000 
#    y 0.000000 1.680010 0.000000 
#    z 0.000000 0.000000 1.647280 
# 
# From -- ./inp_files/31096.got.cif
#   From: 2010.05.17/outbox.ucp.g08.bks.cvg/sg63_16_cif.got.tgz:31096.got - 2010.06.11 16:32:19.
