data_PCOD9476112
_publ_section_title
;
Structure prediction by ZEFSAII (Michael W. Deem and Ramdas Pophale) SiO2 
 PCOD9476112
Probable space group: C M C M
;
_chemical_formula_sum "Si O2"
_cell_formula_units_Z 48
_cell_length_a 9.000000
_cell_length_b 24.000000
_cell_length_c 24.000000
_cell_angle_alpha 90.000000
_cell_angle_beta 90.000000
_cell_angle_gamma 90.000000
_cell_volume 5184.000000
_symmetry_space_group_name_H-M "C M C M"
_symmetry_group_IT_number 63
_symmetry_cell_setting 'orthorhombic'
loop_
_space_group_symop_operation_xyz
x,y,z
-x,-y,1/2+z
x,-y,-z
-x,y,1/2-z
-x,-y,-z
x,y,1/2-z
-x,y,z
x,-y,1/2+z
1/2+x,1/2+y,z
1/2-x,1/2-y,1/2+z
1/2+x,1/2-y,-z
1/2-x,1/2+y,1/2-z
1/2-x,1/2-y,-z
1/2+x,1/2+y,1/2-z
1/2-x,1/2+y,z
1/2+x,1/2-y,1/2+z
loop_
_atom_site_type_symbol
_atom_site_label
_atom_site_fract_x
_atom_site_fract_y
_atom_site_fract_z
Si Si1 0.832129 0.409603 0.936952
Si Si2 0.177093 0.149614 0.250000
Si Si3 0.324721 0.592002 0.546725
Si Si4 0.178314 0.781552 0.051636
Si Si5 0.178759 0.692355 0.138670
Si Si6 0.668422 0.981150 0.135434
Si Si7 0.819277 0.527116 0.250000
O O1 0.775984 0.354251 0.906828
O O2 0.836770 0.457703 0.891584
O O3 0.000000 0.398927 0.956961
O O4 0.736931 0.429681 0.988444
O O5 0.237634 0.180540 0.304597
O O6 0.246194 0.087607 0.250000
O O7 0.000000 0.146669 0.250000
O O8 0.500000 0.592091 0.545184
O O9 0.269963 0.655258 0.551563
O O10 0.267745 0.556942 0.597764
O O11 0.211372 0.750705 0.109454
O O12 0.000000 0.779787 0.044801
O O13 0.250000 0.750000 0.000000
O O14 0.000000 0.686329 0.146989
O O15 0.500000 0.959265 0.136236
O O16 0.724214 0.991595 0.196812
O O17 0.000000 0.534445 0.250000
#
# Coordination Sequence:
#
# PCOD9476112 Si02
#       7
#    16   8  16  16  16  16   8
#     4  10  19  34  59  85 110 148 193 230 271 334
#     4  12  24  36  57  90 121 145 180 238 296 335
#     4  11  23  36  53  84 122 151 181 230 291 340
#     4  10  21  37  59  84 111 148 190 232 280 336
#     4  10  20  38  61  83 112 153 193 230 275 335
#     4  10  21  37  58  82 110 148 196 234 271 337
#     4  10  20  40  63  82 107 149 198 236 274 337
#
# _framework density 9.2592590000000001
#
# number of rings (size 3 to 8) (size 9 to 14) (size 15 to 20)
#    0.000    1.667    3.333    1.750    0.000    5.333 
#    0.000    0.833    0.000    3.000    0.000    0.000 
#    0.000    0.000    0.000    0.000    0.000    0.000 
#
# Total GULP energy -267808.951128 kJ/mol
# GULP energy per Si atom -5579.353149 kJ/mol
# Density = 0.923818 g / cm^3
# Si number density = 9.259259 Si / 1000 Ang^3
#
#
#
# Elastic Constant Matrix: (Units=GPa)
#
#
# Indices 1 2 3 4 5 6 
#
# 1 -3.5639 -28.3251 15.0855 0.0000 0.0000 0.0000
# 2 -28.3251 -43.0737 -17.8391 0.0000 0.0000 0.0000
# 3 15.0855 -17.8391 104.4682 0.0000 0.0000 0.0000
# 4 0.0000 0.0000 0.0000 11.8718 0.0000 0.0000
# 5 0.0000 0.0000 0.0000 0.0000 112.5767 0.0000
# 6 0.0000 0.0000 0.0000 0.0000 0.0000 16.8727
#
#
#
# Elastic Compliance Matrix: (Units=1/GPa)
#
#
# Indices 1 2 3 4 5 6 
#
# 1 0.115828 -0.064667 -0.027768 0.000000 0.000000 0.000000
# 2 -0.064667 0.014422 0.011801 0.000000 0.000000 0.000000
# 3 -0.027768 0.011801 0.015597 0.000000 0.000000 0.000000
# 4 0.000000 0.000000 0.000000 0.084233 0.000000 0.000000
# 5 0.000000 0.000000 0.000000 0.000000 0.008883 0.000000
# 6 0.000000 0.000000 0.000000 0.000000 0.000000 0.059267
#
#
# Mechanical properties :
#
#
# Convention : Reuss Voigt Hill
#
# Bulk Modulus (GPa) = -64.83567 -0.48074 -32.65821
# Shear Modulus (GPa) = 11.00452 34.19152 22.59802
#
# Velocity S-wave (km/s) = 2.44036 4.30157 3.49706
# Velocity P-wave (km/s) = 5.21026 4.94077 1.16954
#
# Compressibility (1/GPa) = -0.01542361
#
# Stress axis : x y z
#
# Youngs Moduli (GPa) = 8.63352 69.34067 64.11383
#
# Poissons Ratio (x) = 4.48407 1.78034
# Poissons Ratio (y) = 0.55831 -0.75659
# Poissons Ratio (z) = 0.23974 -0.81827
#
# Static dielectric constant tensor:
#      x y z
#    x 1.627920 0.000000 0.000000 
#    y 0.000000 1.635090 0.000000 
#    z 0.000000 0.000000 1.616770 
# 
# From -- ./inp_files/60053.got.cif
#   From: 2010.05.17/outbox.ucp.g08.bks.cvg/sg63_31_cif.got.tgz:60053.got - 2010.06.11 16:32:19.
