data_PCOD9476527
_publ_section_title
;
Structure prediction by ZEFSAII (Michael W. Deem and Ramdas Pophale) SiO2 
 PCOD9476527
Probable space group: C M C A
;
_chemical_formula_sum "Si O2"
_cell_formula_units_Z 128
_cell_length_a 22.786154
_cell_length_b 24.251621
_cell_length_c 11.339930
_cell_angle_alpha 90.000000
_cell_angle_beta 90.000000
_cell_angle_gamma 90.000000
_cell_volume 6266.458595
_symmetry_space_group_name_H-M "C M C A"
_symmetry_group_IT_number 64
_symmetry_cell_setting 'orthorhombic'
loop_
_space_group_symop_operation_xyz
x,y,z
-x,1/2-y,1/2+z
x,-y,-z
-x,1/2+y,1/2-z
-x,-y,-z
x,1/2+y,1/2-z
-x,y,z
x,1/2-y,1/2+z
1/2+x,1/2+y,z
1/2-x,-y,1/2+z
1/2+x,1/2-y,-z
1/2-x,y,1/2-z
1/2-x,1/2-y,-z
1/2+x,y,1/2-z
1/2-x,1/2+y,z
1/2+x,-y,1/2+z
loop_
_atom_site_type_symbol
_atom_site_label
_atom_site_fract_x
_atom_site_fract_y
_atom_site_fract_z
Si Si1 0.682687 0.540667 0.792824
Si Si2 0.064733 0.373616 0.832278
Si Si3 0.311828 0.753857 0.793963
Si Si4 0.169705 0.147160 0.662570
Si Si5 0.166819 0.455425 0.891339
Si Si6 0.105334 0.278686 0.986832
Si Si7 0.225085 0.603557 0.495091
Si Si8 0.618122 0.326188 0.888496
O O1 0.750000 0.542103 0.750000
O O2 0.651409 0.590308 0.722540
O O3 0.659513 0.485025 0.735242
O O4 0.689768 0.557989 0.927762
O O5 0.116064 0.409612 0.892896
O O6 0.067148 0.313536 0.895368
O O7 0.079079 0.365783 0.693266
O O8 0.000000 0.397436 0.848482
O O9 0.250000 0.775246 0.750000
O O10 0.314308 0.689346 0.766718
O O11 0.331119 0.768016 0.924781
O O12 0.356156 0.783876 0.707358
O O13 0.119469 0.178919 0.591446
O O14 0.226188 0.134078 0.579157
O O15 0.230802 0.426917 0.904239
O O16 0.163051 0.500000 0.000000
O O17 0.086270 0.216952 0.023107
O O18 0.174476 0.642545 0.443135
#
# Coordination Sequence:
#
# PCOD9476527 Si02
#       8
#    16  16  16  16  16  16  16  16
#     4  10  20  33  54  87 118 160 187 228 287 362
#     4  11  26  44  61  84 113 152 213 265 289 337
#     4  10  18  27  50  83 127 154 180 221 278 362
#     4  10  17  31  50  83 125 153 184 222 276 361
#     4  12  23  40  62  87 121 160 201 246 305 354
#     4  10  19  38  55  86 112 162 191 229 295 353
#     4  11  21  34  58  90 126 154 182 232 296 379
#     4  10  23  34  60  89 119 154 190 235 303 361
#
# _framework density 20.426210999999999
#
# number of rings (size 3 to 8) (size 9 to 14) (size 15 to 20)
#    0.000    1.500    3.750    3.375    3.500    2.750 
#    0.000    0.000    0.000    1.500    0.000    0.000 
#    0.000    0.000    0.000    0.000    0.000    0.000 
#
# Total GULP energy -356592.924693 kJ/mol
# GULP energy per Si atom -5571.764448 kJ/mol
# Density = 2.037972 g / cm^3
# Si number density = 20.426211 Si / 1000 Ang^3
#
#
#
# Elastic Constant Matrix: (Units=GPa)
#
#
# Indices 1 2 3 4 5 6 
#
# 1 54.1689 26.3615 22.5599 0.0000 0.0000 0.0000
# 2 26.3615 98.7942 34.6115 0.0000 0.0000 0.0000
# 3 22.5599 34.6115 50.3599 0.0000 0.0000 0.0000
# 4 0.0000 0.0000 0.0000 24.2011 0.0000 0.0000
# 5 0.0000 0.0000 0.0000 0.0000 5.7534 0.0000
# 6 0.0000 0.0000 0.0000 0.0000 0.0000 8.4162
#
#
#
# Elastic Compliance Matrix: (Units=1/GPa)
#
#
# Indices 1 2 3 4 5 6 
#
# 1 0.023534 -0.003406 -0.008202 0.000000 0.000000 0.000000
# 2 -0.003406 0.013825 -0.007976 0.000000 0.000000 0.000000
# 3 -0.008202 -0.007976 0.029013 0.000000 0.000000 0.000000
# 4 0.000000 0.000000 0.000000 0.041320 0.000000 0.000000
# 5 0.000000 0.000000 0.000000 0.000000 0.173812 0.000000
# 6 0.000000 0.000000 0.000000 0.000000 0.000000 0.118819
#
#
# Mechanical properties :
#
#
# Convention : Reuss Voigt Hill
#
# Bulk Modulus (GPa) = 36.75840 41.15432 38.95636
# Shear Modulus (GPa) = 11.14680 15.66013 13.40346
#
# Velocity S-wave (km/s) = 2.33858 2.77188 2.56440
# Velocity P-wave (km/s) = 5.03256 5.51688 5.28028
#
# Compressibility (1/GPa) = 0.02720466
#
# Stress axis : x y z
#
# Youngs Moduli (GPa) = 42.49129 72.33133 34.46749
#
# Poissons Ratio (x) = 0.24639 0.28269
# Poissons Ratio (y) = 0.14474 0.27491
# Poissons Ratio (z) = 0.34849 0.57691
#
# Static dielectric constant tensor:
#      x y z
#    x 1.695100 0.000000 0.000000 
#    y 0.000000 1.810530 0.000000 
#    z 0.000000 0.000000 1.841750 
# 
# From -- ./inp_files/18680.got.cif
#   From: 2010.05.17/outbox.cif.g08.bks.cpg/sg64_10_cif.got.tgz:18680.got - 2010.06.03 16:29:19.
