data_PCOD9476313
_publ_section_title
;
Structure prediction by ZEFSAII (Michael W. Deem and Ramdas Pophale) SiO2 
 PCOD9476313
Probable space group: C M C A
;
_chemical_formula_sum "Si O2"
_cell_formula_units_Z 68
_cell_length_a 20.745057
_cell_length_b 21.084513
_cell_length_c 7.207689
_cell_angle_alpha 90.000000
_cell_angle_beta 90.000000
_cell_angle_gamma 90.000000
_cell_volume 3152.639017
_symmetry_space_group_name_H-M "C M C A"
_symmetry_group_IT_number 64
_symmetry_cell_setting 'orthorhombic'
loop_
_space_group_symop_operation_xyz
x,y,z
-x,1/2-y,1/2+z
x,-y,-z
-x,1/2+y,1/2-z
-x,-y,-z
x,1/2+y,1/2-z
-x,y,z
x,1/2-y,1/2+z
1/2+x,1/2+y,z
1/2-x,-y,1/2+z
1/2+x,1/2-y,-z
1/2-x,y,1/2-z
1/2-x,1/2-y,-z
1/2+x,y,1/2-z
1/2-x,1/2+y,z
1/2+x,-y,1/2+z
loop_
_atom_site_type_symbol
_atom_site_label
_atom_site_fract_x
_atom_site_fract_y
_atom_site_fract_z
Si Si1 0.121022 0.075691 0.007125
Si Si2 0.000000 0.206472 0.673260
Si Si3 0.000000 0.000000 0.500000
Si Si4 0.263739 0.074132 0.969329
Si Si5 0.000000 0.848000 0.908947
Si Si6 0.101687 0.613139 0.922596
O O1 0.195048 0.087192 0.066275
O O2 0.113979 0.099084 0.795866
O O3 0.064079 0.110000 0.119402
O O4 0.109985 0.000000 0.000000
O O5 0.000000 0.281334 0.693098
O O6 0.937276 0.178639 0.570037
O O7 0.000000 0.173805 0.875325
O O8 0.943939 0.055695 0.514547
O O9 0.250000 0.082176 0.750000
O O10 0.328150 0.112406 0.015113
O O11 0.278819 0.000000 0.000000
#
# Coordination Sequence:
#
# PCOD9476313 Si02
#       6
#    16   8   4  16   8  16
#     4   9  18  32  53  74  98 129 165 204 250 294
#     4   9  20  35  49  67  96 135 166 206 244 293
#     4  10  16  26  46  74  96 130 152 194 242 286
#     4   9  16  29  48  74 101 132 157 199 249 297
#     4  10  19  37  49  68  98 129 173 208 244 298
#     4   9  17  31  49  72 106 127 160 196 251 297
#
# _framework density 21.569230999999998
#
# number of rings (size 3 to 8) (size 9 to 14) (size 15 to 20)
#    0.000    2.824    1.176    1.059    0.000    0.000 
#    8.471    1.176    0.000    0.000    0.000    0.000 
#    0.000    0.000    0.000    0.000    0.000    0.000 
#
# Total GULP energy -189340.178590 kJ/mol
# GULP energy per Si atom -5568.828782 kJ/mol
# Density = 2.152014 g / cm^3
# Si number density = 21.569231 Si / 1000 Ang^3
#
#
#
# Elastic Constant Matrix: (Units=GPa)
#
#
# Indices 1 2 3 4 5 6 
#
# 1 212.7658 74.6520 16.8146 0.0000 0.0000 0.0000
# 2 74.6520 74.0104 8.5555 0.0000 0.0000 0.0000
# 3 16.8146 8.5555 51.5332 0.0000 0.0000 0.0000
# 4 0.0000 0.0000 0.0000 15.8565 0.0000 0.0000
# 5 0.0000 0.0000 0.0000 0.0000 7.9708 0.0000
# 6 0.0000 0.0000 0.0000 0.0000 0.0000 13.3447
#
#
#
# Elastic Compliance Matrix: (Units=1/GPa)
#
#
# Indices 1 2 3 4 5 6 
#
# 1 0.007345 -0.007271 -0.001189 0.000000 0.000000 0.000000
# 2 -0.007271 0.020974 -0.001110 0.000000 0.000000 0.000000
# 3 -0.001189 -0.001110 0.019977 0.000000 0.000000 0.000000
# 4 0.000000 0.000000 0.000000 0.063066 0.000000 0.000000
# 5 0.000000 0.000000 0.000000 0.000000 0.125458 0.000000
# 6 0.000000 0.000000 0.000000 0.000000 0.000000 0.074936
#
#
# Mechanical properties :
#
#
# Convention : Reuss Voigt Hill
#
# Bulk Modulus (GPa) = 34.29829 59.81705 47.05767
# Shear Modulus (GPa) = 14.67927 23.32022 18.99975
#
# Velocity S-wave (km/s) = 2.61159 3.29170 2.97117
# Velocity P-wave (km/s) = 5.00299 6.49922 5.79956
#
# Compressibility (1/GPa) = 0.02915597
#
# Stress axis : x y z
#
# Youngs Moduli (GPa) = 136.14120 47.67720 50.05682
#
# Poissons Ratio (x) = 0.34668 0.05954
# Poissons Ratio (y) = 0.98995 0.05554
# Poissons Ratio (z) = 0.16194 0.05290
#
# Static dielectric constant tensor:
#      x y z
#    x 1.822890 0.000000 0.000000 
#    y 0.000000 1.707440 0.000000 
#    z 0.000000 0.000000 2.047960 
# 
# From -- ./inp_files/7904.got.cif
#   From: 2010.05.17/outbox.cif.g08.bks.cpg/sg64_4_cif.got.tgz:7904.got - 2010.06.03 16:29:19.
