data_PCOD9476052
_publ_section_title
;
Structure prediction by ZEFSAII (Michael W. Deem and Ramdas Pophale) SiO2 
 PCOD9476052
Probable space group: C M C M
;
_chemical_formula_sum "Si O2"
_cell_formula_units_Z 48
_cell_length_a 9.000000
_cell_length_b 27.000000
_cell_length_c 24.000000
_cell_angle_alpha 90.000000
_cell_angle_beta 90.000000
_cell_angle_gamma 90.000000
_cell_volume 5832.000000
_symmetry_space_group_name_H-M "C M C M"
_symmetry_group_IT_number 63
_symmetry_cell_setting 'orthorhombic'
loop_
_space_group_symop_operation_xyz
x,y,z
-x,-y,1/2+z
x,-y,-z
-x,y,1/2-z
-x,-y,-z
x,y,1/2-z
-x,y,z
x,-y,1/2+z
1/2+x,1/2+y,z
1/2-x,1/2-y,1/2+z
1/2+x,1/2-y,-z
1/2-x,1/2+y,1/2-z
1/2-x,1/2-y,-z
1/2+x,1/2+y,1/2-z
1/2-x,1/2+y,z
1/2+x,1/2-y,1/2+z
loop_
_atom_site_type_symbol
_atom_site_label
_atom_site_fract_x
_atom_site_fract_y
_atom_site_fract_z
Si Si1 0.673678 0.203315 0.938029
Si Si2 0.181061 0.362402 0.250000
Si Si3 0.678894 0.210262 0.134157
Si Si4 0.319434 0.744664 0.250000
Si Si5 0.328069 0.899500 0.130302
Si Si6 0.321348 0.348904 0.541394
Si Si7 0.678333 0.448257 0.026673
O O1 0.500000 0.217319 0.946770
O O2 0.762925 0.244155 0.903693
O O3 0.674140 0.153922 0.900129
O O4 0.754065 0.188954 0.995516
O O5 0.220147 0.303744 0.250000
O O6 0.230348 0.389480 0.307037
O O7 0.000000 0.363152 0.250000
O O8 0.500000 0.208953 0.137022
O O9 0.751085 0.219465 0.194772
O O10 0.744362 0.163241 0.100243
O O11 0.500000 0.741240 0.250000
O O12 0.500000 0.915342 0.134561
O O13 0.244257 0.935512 0.087432
O O14 0.500000 0.343661 0.545322
O O15 0.286907 0.402901 0.515474
O O16 0.500000 0.449916 0.032094
O O17 0.729607 0.500000 0.000000
#
# Coordination Sequence:
#
# PCOD9476052 Si02
#       7
#    16   8  16   8  16  16  16
#     4  10  18  31  50  73 103 139 174 210 253 304
#     4   9  16  31  51  74 105 138 169 206 247 300
#     4  12  23  34  48  73 106 139 177 216 251 299
#     4  11  21  37  55  72 101 146 183 212 253 302
#     4   9  17  30  51  77 104 136 172 208 254 311
#     4  10  20  34  52  74 100 134 172 215 264 313
#     4   9  19  36  56  78 103 130 168 221 274 317
#
# _framework density 8.2304530000000007
#
# number of rings (size 3 to 8) (size 9 to 14) (size 15 to 20)
#    0.000    2.000    1.667    3.250    0.000    1.667 
#    0.000    0.417    0.000    1.000    0.000    5.833 
#    0.000    0.000    0.000    0.000    0.000    0.000 
#
# Total GULP energy -267779.579196 kJ/mol
# GULP energy per Si atom -5578.741233 kJ/mol
# Density = 0.821172 g / cm^3
# Si number density = 8.230453 Si / 1000 Ang^3
#
#
#
# Elastic Constant Matrix: (Units=GPa)
#
#
# Indices 1 2 3 4 5 6 
#
# 1 94.2696 33.6647 57.0650 0.0000 0.0000 0.0000
# 2 33.6647 76.3807 63.6661 0.0000 0.0000 0.0000
# 3 57.0650 63.6661 171.3089 0.0000 0.0000 0.0000
# 4 0.0000 0.0000 0.0000 22.9028 0.0000 0.0000
# 5 0.0000 0.0000 0.0000 0.0000 32.0088 0.0000
# 6 0.0000 0.0000 0.0000 0.0000 0.0000 19.6948
#
#
#
# Elastic Compliance Matrix: (Units=1/GPa)
#
#
# Indices 1 2 3 4 5 6 
#
# 1 0.013828 -0.003267 -0.003392 0.000000 0.000000 0.000000
# 2 -0.003267 0.019740 -0.006248 0.000000 0.000000 0.000000
# 3 -0.003392 -0.006248 0.009289 0.000000 0.000000 0.000000
# 4 0.000000 0.000000 0.000000 0.043663 0.000000 0.000000
# 5 0.000000 0.000000 0.000000 0.000000 0.031241 0.000000
# 6 0.000000 0.000000 0.000000 0.000000 0.000000 0.050775
#
#
# Mechanical properties :
#
#
# Convention : Reuss Voigt Hill
#
# Bulk Modulus (GPa) = 58.67502 72.30566 65.49034
# Shear Modulus (GPa) = 24.99598 27.42551 26.21075
#
# Velocity S-wave (km/s) = 3.90103 4.08622 3.99470
# Velocity P-wave (km/s) = 7.48419 8.14149 7.81975
#
# Compressibility (1/GPa) = 0.01704303
#
# Stress axis : x y z
#
# Youngs Moduli (GPa) = 72.31723 50.65771 107.65005
#
# Poissons Ratio (x) = 0.16552 0.36515
# Poissons Ratio (y) = 0.23628 0.67260
# Poissons Ratio (z) = 0.24530 0.31651
#
# Static dielectric constant tensor:
#      x y z
#    x 1.553430 0.000000 0.000000 
#    y 0.000000 1.566210 0.000000 
#    z 0.000000 0.000000 1.558140 
# 
# From -- ./inp_files/60291.got.cif
#   From: 2010.05.17/outbox.ucp.g08.bks.cvg/sg63_31_cif.got.tgz:60291.got - 2010.06.11 16:32:19.
