data_PCOD9476591
_publ_section_title
;
Structure prediction by ZEFSAII (Michael W. Deem and Ramdas Pophale) SiO2 
 PCOD9476591
Probable space group: C M C A
;
_chemical_formula_sum "Si O2"
_cell_formula_units_Z 120
_cell_length_a 26.432852
_cell_length_b 7.952430
_cell_length_c 29.009824
_cell_angle_alpha 90.000000
_cell_angle_beta 90.000000
_cell_angle_gamma 90.000000
_cell_volume 6098.021810
_symmetry_space_group_name_H-M "C M C A"
_symmetry_group_IT_number 64
_symmetry_cell_setting 'orthorhombic'
loop_
_space_group_symop_operation_xyz
x,y,z
-x,1/2-y,1/2+z
x,-y,-z
-x,1/2+y,1/2-z
-x,-y,-z
x,1/2+y,1/2-z
-x,y,z
x,1/2-y,1/2+z
1/2+x,1/2+y,z
1/2-x,-y,1/2+z
1/2+x,1/2-y,-z
1/2-x,y,1/2-z
1/2-x,1/2-y,-z
1/2+x,y,1/2-z
1/2-x,1/2+y,z
1/2+x,-y,1/2+z
loop_
_atom_site_type_symbol
_atom_site_label
_atom_site_fract_x
_atom_site_fract_y
_atom_site_fract_z
Si Si1 0.941241 0.701907 0.491475
Si Si2 0.059691 0.241343 0.906234
Si Si3 0.594328 0.145084 0.764465
Si Si4 0.322875 0.323409 0.824562
Si Si5 0.226682 0.177977 0.801336
Si Si6 0.500000 0.742630 0.677195
Si Si7 0.119938 0.687314 0.181936
Si Si8 0.913536 0.847472 0.893714
O O1 0.939055 0.500000 0.500000
O O2 0.927195 0.782067 0.540648
O O3 0.911342 0.733399 0.444543
O O4 0.000000 0.743951 0.482641
O O5 0.095985 0.323948 0.868398
O O6 0.000000 0.279617 0.898279
O O7 0.067380 0.040296 0.899468
O O8 0.642803 0.243500 0.784443
O O9 0.543829 0.227855 0.782834
O O10 0.598244 0.148992 0.709181
O O11 0.598788 0.963846 0.787458
O O12 0.274994 0.204430 0.833872
O O13 0.297689 0.495429 0.807246
O O14 0.360180 0.347222 0.867459
O O15 0.250000 0.199871 0.750000
O O16 0.180461 0.301744 0.814560
O O17 0.544820 0.756890 0.637724
#
# Coordination Sequence:
#
# PCOD9476591 Si02
#       8
#    16  16  16  16  16   8  16  16
#     4   8  14  29  56  93 122 150 192 242 287 348
#     4  10  20  33  60  93 126 156 195 242 293 353
#     4  11  26  39  56  86 118 164 198 236 288 358
#     4  11  23  38  59  88 114 154 199 244 304 344
#     4  12  23  38  60  83 117 152 199 258 290 346
#     4  10  22  36  57  79 128 156 194 230 287 354
#     4  12  25  41  58  83 121 160 201 242 293 348
#     4  10  17  35  61  92 118 156 198 240 296 361
#
# _framework density 19.678512999999999
#
# number of rings (size 3 to 8) (size 9 to 14) (size 15 to 20)
#    0.000    1.467    4.000    2.800    3.733    0.000 
#    0.000    0.000    0.000    4.800    0.000    0.000 
#    0.000    0.000    0.000    0.000    0.000    0.000 
#
# Total GULP energy -334077.248412 kJ/mol
# GULP energy per Si atom -5567.954140 kJ/mol
# Density = 1.963372 g / cm^3
# Si number density = 19.678513 Si / 1000 Ang^3
#
#
#
# Elastic Constant Matrix: (Units=GPa)
#
#
# Indices 1 2 3 4 5 6 
#
# 1 155.2637 17.4233 72.6001 0.0000 0.0000 0.0000
# 2 17.4233 23.5537 -1.5517 0.0000 0.0000 0.0000
# 3 72.6001 -1.5517 128.3474 0.0000 0.0000 0.0000
# 4 0.0000 0.0000 0.0000 8.5813 0.0000 0.0000
# 5 0.0000 0.0000 0.0000 0.0000 26.9356 0.0000
# 6 0.0000 0.0000 0.0000 0.0000 0.0000 16.6776
#
#
#
# Elastic Compliance Matrix: (Units=1/GPa)
#
#
# Indices 1 2 3 4 5 6 
#
# 1 0.010003 -0.007779 -0.005752 0.000000 0.000000 0.000000
# 2 -0.007779 0.048539 0.004987 0.000000 0.000000 0.000000
# 3 -0.005752 0.004987 0.011106 0.000000 0.000000 0.000000
# 4 0.000000 0.000000 0.000000 0.116533 0.000000 0.000000
# 5 0.000000 0.000000 0.000000 0.000000 0.037126 0.000000
# 6 0.000000 0.000000 0.000000 0.000000 0.000000 0.059961
#
#
# Mechanical properties :
#
#
# Convention : Reuss Voigt Hill
#
# Bulk Modulus (GPa) = 19.02618 53.78979 36.40799
# Shear Modulus (GPa) = 15.72944 25.01844 20.37394
#
# Velocity S-wave (km/s) = 2.83029 3.56948 3.22116
# Velocity P-wave (km/s) = 4.51334 6.66197 5.69000
#
# Compressibility (1/GPa) = 0.05255915
#
# Stress axis : x y z
#
# Youngs Moduli (GPa) = 99.96615 20.60205 90.04504
#
# Poissons Ratio (x) = 0.16026 0.51798
# Poissons Ratio (y) = 0.77761 -0.44905
# Poissons Ratio (z) = 0.57505 -0.10274
#
# Static dielectric constant tensor:
#      x y z
#    x 1.666660 0.000000 0.000000 
#    y 0.000000 1.823240 0.000000 
#    z 0.000000 0.000000 1.713410 
# 
# From -- ./inp_files/51244.got.cif
#   From: 2010.05.17/outbox.cif.g08.bks.cpg/sg64_26_cif.got.tgz:51244.got - 2010.06.03 16:29:19.
