data_PCOD9476848
_publ_section_title
;
Structure prediction by ZEFSAII (Michael W. Deem and Ramdas Pophale) SiO2 
 PCOD9476848
Probable space group: C M C A
;
_chemical_formula_sum "Si O2"
_cell_formula_units_Z 112
_cell_length_a 16.755769
_cell_length_b 20.203768
_cell_length_c 18.096521
_cell_angle_alpha 90.000000
_cell_angle_beta 90.000000
_cell_angle_gamma 90.000000
_cell_volume 6126.209274
_symmetry_space_group_name_H-M "C M C A"
_symmetry_group_IT_number 64
_symmetry_cell_setting 'orthorhombic'
loop_
_space_group_symop_operation_xyz
x,y,z
-x,1/2-y,1/2+z
x,-y,-z
-x,1/2+y,1/2-z
-x,-y,-z
x,1/2+y,1/2-z
-x,y,z
x,1/2-y,1/2+z
1/2+x,1/2+y,z
1/2-x,-y,1/2+z
1/2+x,1/2-y,-z
1/2-x,y,1/2-z
1/2-x,1/2-y,-z
1/2+x,y,1/2-z
1/2-x,1/2+y,z
1/2+x,-y,1/2+z
loop_
_atom_site_type_symbol
_atom_site_label
_atom_site_fract_x
_atom_site_fract_y
_atom_site_fract_z
Si Si1 0.591825 0.001786 0.349194
Si Si2 0.839549 0.525064 0.076809
Si Si3 0.203868 0.797097 0.058342
Si Si4 0.316717 0.385685 0.930755
Si Si5 0.242710 0.412113 0.338574
Si Si6 0.216505 0.701959 0.177938
Si Si7 0.411937 0.593370 0.292096
O O1 0.500000 0.983309 0.361109
O O2 0.620055 0.060560 0.403728
O O3 0.599943 0.036355 0.268749
O O4 0.654180 0.941992 0.353360
O O5 0.765214 0.573208 0.055332
O O6 0.801908 0.467699 0.128353
O O7 0.902595 0.562667 0.126912
O O8 0.873260 0.500000 0.000000
O O9 0.253669 0.846408 0.111867
O O10 0.169140 0.746787 0.119021
O O11 0.250000 0.750000 0.000000
O O12 0.156973 0.845675 0.003228
O O13 0.287991 0.333870 0.867645
O O14 0.250000 0.404012 0.250000
O O15 0.250000 0.738805 0.250000
O O16 0.158711 0.646008 0.210240
O O17 0.500000 0.621817 0.279832
#
# Coordination Sequence:
#
# PCOD9476848 Si02
#       7
#    16  16  16  16  16  16  16
#     4  10  20  34  56  84 114 145 179 225 287 341
#     4  10  18  31  56  83 111 138 170 227 281 319
#     4  10  21  35  54  81 108 141 184 231 264 316
#     4   9  18  32  52  79 110 135 178 223 274 317
#     4  11  20  35  57  88 111 140 183 230 279 328
#     4  10  18  33  55  78 101 143 185 224 264 319
#     4  10  20  34  54  82 110 141 180 221 274 338
#
# _framework density 18.282105000000001
#
# number of rings (size 3 to 8) (size 9 to 14) (size 15 to 20)
#    0.000    2.000    4.286    0.429    0.000    0.286 
#    0.000    2.857    0.000    0.000    0.000    0.000 
#    0.000    0.000    0.000    0.000    0.000    0.000 
#
# Total GULP energy -311737.602631 kJ/mol
# GULP energy per Si atom -5566.742904 kJ/mol
# Density = 1.824049 g / cm^3
# Si number density = 18.282105 Si / 1000 Ang^3
#
#
#
# Elastic Constant Matrix: (Units=GPa)
#
#
# Indices 1 2 3 4 5 6 
#
# 1 46.9344 8.5810 9.4799 0.0000 0.0000 0.0000
# 2 8.5810 55.7788 32.0991 0.0000 0.0000 0.0000
# 3 9.4799 32.0991 121.7473 0.0000 0.0000 0.0000
# 4 0.0000 0.0000 0.0000 40.9920 0.0000 0.0000
# 5 0.0000 0.0000 0.0000 0.0000 10.7313 0.0000
# 6 0.0000 0.0000 0.0000 0.0000 0.0000 -10.2258
#
#
#
# Elastic Compliance Matrix: (Units=1/GPa)
#
#
# Indices 1 2 3 4 5 6 
#
# 1 0.022019 -0.002830 -0.000968 0.000000 0.000000 0.000000
# 2 -0.002830 0.021498 -0.005448 0.000000 0.000000 0.000000
# 3 -0.000968 -0.005448 0.009725 0.000000 0.000000 0.000000
# 4 0.000000 0.000000 0.000000 0.024395 0.000000 0.000000
# 5 0.000000 0.000000 0.000000 0.000000 0.093185 0.000000
# 6 0.000000 0.000000 0.000000 0.000000 0.000000 -0.097792
#
#
# Mechanical properties :
#
#
# Convention : Reuss Voigt Hill
#
# Bulk Modulus (GPa) = 28.77648 36.08671 32.43159
# Shear Modulus (GPa) = 48.49283 19.91952 34.20618
#
# Velocity S-wave (km/s) = 5.15581 3.30444 4.33022
# Velocity P-wave (km/s) = 7.15664 5.86010 6.54058
#
# Compressibility (1/GPa) = 0.03475060
#
# Stress axis : x y z
#
# Youngs Moduli (GPa) = 45.41459 46.51513 102.82297
#
# Poissons Ratio (x) = 0.13165 0.09957
# Poissons Ratio (y) = 0.12853 0.56015
# Poissons Ratio (z) = 0.04398 0.25340
#
# Static dielectric constant tensor:
#      x y z
#    x 1.588970 0.000000 0.000000 
#    y 0.000000 1.669910 0.000000 
#    z 0.000000 0.000000 1.686690 
# 
# From -- ./inp_files/33578.got.cif
#   From: 2010.05.17/outbox.cif.g08.bks.cpg/sg64_17_cif.got.tgz:33578.got - 2010.06.03 16:29:19.
