data_PCOD9476109
_publ_section_title
;
Structure prediction by ZEFSAII (Michael W. Deem and Ramdas Pophale) SiO2 
 PCOD9476109
Probable space group: C M C M
;
_chemical_formula_sum "Si O2"
_cell_formula_units_Z 56
_cell_length_a 24.000000
_cell_length_b 15.000000
_cell_length_c 15.000000
_cell_angle_alpha 90.000000
_cell_angle_beta 90.000000
_cell_angle_gamma 90.000000
_cell_volume 5400.000000
_symmetry_space_group_name_H-M "C M C M"
_symmetry_group_IT_number 63
_symmetry_cell_setting 'orthorhombic'
loop_
_space_group_symop_operation_xyz
x,y,z
-x,-y,1/2+z
x,-y,-z
-x,y,1/2-z
-x,-y,-z
x,y,1/2-z
-x,y,z
x,-y,1/2+z
1/2+x,1/2+y,z
1/2-x,1/2-y,1/2+z
1/2+x,1/2-y,-z
1/2-x,1/2+y,1/2-z
1/2-x,1/2-y,-z
1/2+x,1/2+y,1/2-z
1/2-x,1/2+y,z
1/2+x,1/2-y,1/2+z
loop_
_atom_site_type_symbol
_atom_site_label
_atom_site_fract_x
_atom_site_fract_y
_atom_site_fract_z
Si Si1 0.329362 0.508990 0.858515
Si Si2 0.246394 0.173168 0.857145
Si Si3 0.934791 0.111216 0.856643
Si Si4 0.878871 0.442454 0.644304
Si Si5 0.066518 0.712871 0.471301
Si Si6 0.378014 0.149161 0.854726
Si Si7 0.758603 0.371797 0.641705
O O1 0.327016 0.506100 0.750000
O O2 0.292192 0.593124 0.889402
O O3 0.392892 0.531270 0.881330
O O4 0.297654 0.420304 0.889548
O O5 0.237250 0.175638 0.750000
O O6 0.311606 0.154548 0.869609
O O7 0.233327 0.271716 0.892673
O O8 0.927341 0.130372 0.750000
O O9 0.919683 0.198458 0.914311
O O10 0.000000 0.090625 0.870381
O O11 0.885682 0.421721 0.750000
O O12 0.911777 0.372453 0.584333
O O13 0.894936 0.545546 0.631769
O O14 0.813334 0.429685 0.622280
O O15 0.092502 0.708138 0.570157
O O16 0.000000 0.708777 0.478238
O O17 0.388418 0.172528 0.750000
O O18 0.755214 0.366410 0.750000
#
# Coordination Sequence:
#
# PCOD9476109 Si02
#       7
#    16  16  16  16  16  16  16
#     4   9  15  28  52  82 114 149 185 222 277 340
#     4   9  16  29  51  78 107 142 184 231 277 327
#     4   9  18  33  54  81 112 143 178 227 283 334
#     4  10  19  34  55  81 114 147 179 225 280 336
#     4  11  23  37  55  79 109 147 190 233 279 335
#     4  10  21  37  55  74 107 148 187 232 282 331
#     4   9  16  28  53  84 113 149 187 225 278 336
#
# _framework density 10.370369999999999
#
# number of rings (size 3 to 8) (size 9 to 14) (size 15 to 20)
#    0.000    2.429    1.429    1.714    0.000    4.571 
#    0.000    4.286    0.000    0.857    0.000    6.000 
#    0.000    0.000    0.000    0.000    0.000    0.000 
#
# Total GULP energy -312832.004119 kJ/mol
# GULP energy per Si atom -5586.285788 kJ/mol
# Density = 1.034677 g / cm^3
# Si number density = 10.370370 Si / 1000 Ang^3
#
#
#
# Elastic Constant Matrix: (Units=GPa)
#
#
# Indices 1 2 3 4 5 6 
#
# 1 22.0040 -33.7676 0.4371 0.0000 0.0000 0.0000
# 2 -33.7676 -12.1904 -29.5247 0.0000 0.0000 0.0000
# 3 0.4371 -29.5247 42.2231 0.0000 0.0000 0.0000
# 4 0.0000 0.0000 0.0000 7.8587 0.0000 0.0000
# 5 0.0000 0.0000 0.0000 0.0000 12.4806 0.0000
# 6 0.0000 0.0000 0.0000 0.0000 0.0000 30.4751
#
#
#
# Elastic Compliance Matrix: (Units=1/GPa)
#
#
# Indices 1 2 3 4 5 6 
#
# 1 0.017825 -0.018165 -0.012887 0.000000 0.000000 0.000000
# 2 -0.018165 -0.011943 -0.008163 0.000000 0.000000 0.000000
# 3 -0.012887 -0.008163 0.018109 0.000000 0.000000 0.000000
# 4 0.000000 0.000000 0.000000 0.127247 0.000000 0.000000
# 5 0.000000 0.000000 0.000000 0.000000 0.080124 0.000000
# 6 0.000000 0.000000 0.000000 0.000000 0.000000 0.032814
#
#
# Mechanical properties :
#
#
# Convention : Reuss Voigt Hill
#
# Bulk Modulus (GPa) = -18.36931 -8.18597 -13.27764
# Shear Modulus (GPa) = 15.41019 17.82235 16.61627
#
# Velocity S-wave (km/s) = 2.72874 2.93455 2.83352
# Velocity P-wave (km/s) = 1.02577 2.74349 2.07110
#
# Compressibility (1/GPa) = -0.05443862
#
# Stress axis : x y z
#
# Youngs Moduli (GPa) = 56.09967 -83.73253 55.22080
#
# Poissons Ratio (x) = -1.52103 0.71162
# Poissons Ratio (y) = 1.01907 0.45077
# Poissons Ratio (z) = 0.72294 -0.68351
#
# Static dielectric constant tensor:
#      x y z
#    x 1.724400 0.000000 0.000000 
#    y 0.000000 1.738630 0.000000 
#    z 0.000000 0.000000 1.754150 
# 
# From -- ./inp_files/36890.got.cif
#   From: 2010.05.17/outbox.ucp.g08.bks.cvg/sg63_19_cif.got.tgz:36890.got - 2010.06.11 16:32:19.
