data_PCOD9476649
_publ_section_title
;
Structure prediction by ZEFSAII (Michael W. Deem and Ramdas Pophale) SiO2 
 PCOD9476649
Probable space group: C M C A
;
_chemical_formula_sum "Si O2"
_cell_formula_units_Z 96
_cell_length_a 7.889238
_cell_length_b 26.609048
_cell_length_c 24.241186
_cell_angle_alpha 90.000000
_cell_angle_beta 90.000000
_cell_angle_gamma 90.000000
_cell_volume 5088.833701
_symmetry_space_group_name_H-M "C M C A"
_symmetry_group_IT_number 64
_symmetry_cell_setting 'orthorhombic'
loop_
_space_group_symop_operation_xyz
x,y,z
-x,1/2-y,1/2+z
x,-y,-z
-x,1/2+y,1/2-z
-x,-y,-z
x,1/2+y,1/2-z
-x,y,z
x,1/2-y,1/2+z
1/2+x,1/2+y,z
1/2-x,-y,1/2+z
1/2+x,1/2-y,-z
1/2-x,y,1/2-z
1/2-x,1/2-y,-z
1/2+x,y,1/2-z
1/2-x,1/2+y,z
1/2+x,-y,1/2+z
loop_
_atom_site_type_symbol
_atom_site_label
_atom_site_fract_x
_atom_site_fract_y
_atom_site_fract_z
Si Si1 0.201082 0.000308 0.813747
Si Si2 0.693872 0.440651 0.503578
Si Si3 0.795652 0.195092 0.565030
Si Si4 0.294601 0.308828 0.937740
Si Si5 0.795741 0.595971 0.885124
Si Si6 0.193415 0.405650 0.618104
O O1 0.250000 0.999148 0.750000
O O2 0.272960 0.950620 0.845385
O O3 0.000000 0.996621 0.819132
O O4 0.247136 0.054084 0.840674
O O5 0.682241 0.500000 0.500000
O O6 0.500000 0.421088 0.511304
O O7 0.761586 0.423740 0.444802
O O8 0.803803 0.426482 0.555823
O O9 0.750704 0.179757 0.501825
O O10 0.733253 0.252038 0.573234
O O11 0.738774 0.154222 0.610659
O O12 0.000000 0.196658 0.567076
O O13 0.500000 0.309542 0.934984
O O14 0.230695 0.350199 0.893697
O O15 0.000000 0.596342 0.884601
O O16 0.000000 0.398241 0.637625
#
# Coordination Sequence:
#
# PCOD9476649 Si02
#       6
#    16  16  16  16  16  16
#     4  11  24  39  54  72  95 128 170 214 258 301
#     4  10  18  28  45  72 104 135 163 195 241 298
#     4   9  17  29  47  73 105 139 168 195 236 290
#     4   9  17  29  46  72 106 138 166 198 238 288
#     4  10  19  32  51  75 104 135 167 202 246 297
#     4  10  20  32  49  73 102 133 165 203 248 296
#
# _framework density 18.864833999999998
#
# number of rings (size 3 to 8) (size 9 to 14) (size 15 to 20)
#    0.000    2.167    3.333    0.500    0.000    2.333 
#    0.000    0.000    0.000    1.000    0.000    2.333 
#    0.000    0.000    0.000    0.000    0.000    0.000 
#
# Total GULP energy -267213.553305 kJ/mol
# GULP energy per Si atom -5566.949027 kJ/mol
# Density = 1.882190 g / cm^3
# Si number density = 18.864834 Si / 1000 Ang^3
#
#
#
# Elastic Constant Matrix: (Units=GPa)
#
#
# Indices 1 2 3 4 5 6 
#
# 1 21.4645 10.6503 1.8635 0.0000 0.0000 0.0000
# 2 10.6503 175.8087 69.2250 0.0000 0.0000 0.0000
# 3 1.8635 69.2250 92.3989 0.0000 0.0000 0.0000
# 4 0.0000 0.0000 0.0000 58.7295 0.0000 0.0000
# 5 0.0000 0.0000 0.0000 0.0000 25.6451 0.0000
# 6 0.0000 0.0000 0.0000 0.0000 0.0000 17.6262
#
#
#
# Elastic Compliance Matrix: (Units=1/GPa)
#
#
# Indices 1 2 3 4 5 6 
#
# 1 0.048226 -0.003601 0.001725 0.000000 0.000000 0.000000
# 2 -0.003601 0.008337 -0.006173 0.000000 0.000000 0.000000
# 3 0.001725 -0.006173 0.015413 0.000000 0.000000 0.000000
# 4 0.000000 0.000000 0.000000 0.017027 0.000000 0.000000
# 5 0.000000 0.000000 0.000000 0.000000 0.038994 0.000000
# 6 0.000000 0.000000 0.000000 0.000000 0.000000 0.056734
#
#
# Mechanical properties :
#
#
# Convention : Reuss Voigt Hill
#
# Bulk Modulus (GPa) = 17.89636 50.34997 34.12317
# Shear Modulus (GPa) = 22.78384 34.26238 28.52311
#
# Velocity S-wave (km/s) = 3.47903 4.26632 3.89263
# Velocity P-wave (km/s) = 5.06413 7.14258 6.19120
#
# Compressibility (1/GPa) = 0.05587728
#
# Stress axis : x y z
#
# Youngs Moduli (GPa) = 20.73592 119.94860 64.88061
#
# Poissons Ratio (x) = 0.43190 -0.11192
# Poissons Ratio (y) = 0.07466 0.40053
# Poissons Ratio (z) = -0.03577 0.74049
#
# Static dielectric constant tensor:
#      x y z
#    x 1.729620 0.000000 0.000000 
#    y 0.000000 1.765000 0.000000 
#    z 0.000000 0.000000 1.573900 
# 
# From -- ./inp_files/43208.got.cif
#   From: 2010.05.17/outbox.cif.g08.bks.cpg/sg64_22_cif.got.tgz:43208.got - 2010.06.03 16:29:19.
