data_PCOD9476521
_publ_section_title
;
Structure prediction by ZEFSAII (Michael W. Deem and Ramdas Pophale) SiO2 
 PCOD9476521
Probable space group: C M C A
;
_chemical_formula_sum "Si O2"
_cell_formula_units_Z 88
_cell_length_a 22.408545
_cell_length_b 20.226649
_cell_length_c 8.383243
_cell_angle_alpha 90.000000
_cell_angle_beta 90.000000
_cell_angle_gamma 90.000000
_cell_volume 3799.702998
_symmetry_space_group_name_H-M "C M C A"
_symmetry_group_IT_number 64
_symmetry_cell_setting 'orthorhombic'
loop_
_space_group_symop_operation_xyz
x,y,z
-x,1/2-y,1/2+z
x,-y,-z
-x,1/2+y,1/2-z
-x,-y,-z
x,1/2+y,1/2-z
-x,y,z
x,1/2-y,1/2+z
1/2+x,1/2+y,z
1/2-x,-y,1/2+z
1/2+x,1/2-y,-z
1/2-x,y,1/2-z
1/2-x,1/2-y,-z
1/2+x,y,1/2-z
1/2-x,1/2+y,z
1/2+x,-y,1/2+z
loop_
_atom_site_type_symbol
_atom_site_label
_atom_site_fract_x
_atom_site_fract_y
_atom_site_fract_z
Si Si1 0.368879 0.556471 0.765358
Si Si2 0.189409 0.822165 0.341753
Si Si3 0.000000 0.109331 0.122087
Si Si4 0.500000 0.237812 0.200997
Si Si5 0.629707 0.414859 0.854688
Si Si6 0.000000 0.604489 0.748569
Si Si7 0.868398 0.285981 0.840494
O O1 0.324354 0.600771 0.663513
O O2 0.346874 0.480980 0.772695
O O3 0.436153 0.572958 0.700108
O O4 0.365767 0.579717 0.953229
O O5 0.250000 0.807648 0.250000
O O6 0.177738 0.795386 0.516960
O O7 0.139620 0.784891 0.238455
O O8 0.000000 0.188625 0.144382
O O9 0.940129 0.081216 0.192156
O O10 0.000000 0.089640 0.939709
O O11 0.500000 0.314843 0.250392
O O12 0.438628 0.214876 0.114250
O O13 0.647230 0.343599 0.786757
#
# Coordination Sequence:
#
# PCOD9476521 Si02
#       7
#    16  16   8   8  16   8  16
#     4  10  20  37  63  90 125 162 205 253 312 381
#     4  12  26  44  62  87 121 166 214 261 314 376
#     4   8  17  30  52  86 130 158 194 241 306 395
#     4  10  20  32  59  96 125 156 203 261 323 379
#     4   9  19  38  60  92 124 163 202 249 316 379
#     4  10  17  30  59  89 126 161 202 248 317 380
#     4  11  24  40  65  92 128 161 209 266 320 380
#
# _framework density 23.159704999999999
#
# number of rings (size 3 to 8) (size 9 to 14) (size 15 to 20)
#    0.000    1.818    1.818    2.182    5.091    3.636 
#    0.000    4.545    0.000    4.364    0.000    0.000 
#    0.000    0.000    0.000    0.000    0.000    0.000 
#
# Total GULP energy -245459.649695 kJ/mol
# GULP energy per Si atom -5578.628402 kJ/mol
# Density = 2.310699 g / cm^3
# Si number density = 23.159705 Si / 1000 Ang^3
#
#
#
# Elastic Constant Matrix: (Units=GPa)
#
#
# Indices 1 2 3 4 5 6 
#
# 1 44.8794 -20.2444 2.5212 0.0000 0.0000 0.0000
# 2 -20.2444 94.7134 -11.8550 0.0000 0.0000 0.0000
# 3 2.5212 -11.8550 7.8286 0.0000 0.0000 0.0000
# 4 0.0000 0.0000 0.0000 33.4454 0.0000 0.0000
# 5 0.0000 0.0000 0.0000 0.0000 14.0275 0.0000
# 6 0.0000 0.0000 0.0000 0.0000 0.0000 8.7254
#
#
#
# Elastic Compliance Matrix: (Units=1/GPa)
#
#
# Indices 1 2 3 4 5 6 
#
# 1 0.024660 0.005277 0.000049 0.000000 0.000000 0.000000
# 2 0.005277 0.014157 0.019738 0.000000 0.000000 0.000000
# 3 0.000049 0.019738 0.157610 0.000000 0.000000 0.000000
# 4 0.000000 0.000000 0.000000 0.029899 0.000000 0.000000
# 5 0.000000 0.000000 0.000000 0.000000 0.071289 0.000000
# 6 0.000000 0.000000 0.000000 0.000000 0.000000 0.114607
#
#
# Mechanical properties :
#
#
# Convention : Reuss Voigt Hill
#
# Bulk Modulus (GPa) = 4.05588 9.80723 6.93156
# Shear Modulus (GPa) = 11.25422 23.03965 17.14694
#
# Velocity S-wave (km/s) = 2.20680 3.15749 2.72394
# Velocity P-wave (km/s) = 2.87199 4.18770 3.59062
#
# Compressibility (1/GPa) = 0.24655552
#
# Stress axis : x y z
#
# Youngs Moduli (GPa) = 40.55224 70.63818 6.34477
#
# Poissons Ratio (x) = -0.37276 -0.00031
# Poissons Ratio (y) = -0.21400 -0.12523
# Poissons Ratio (z) = -0.00201 -1.39426
#
# Static dielectric constant tensor:
#      x y z
#    x 1.908100 0.000000 0.000000 
#    y 0.000000 1.877820 0.000000 
#    z 0.000000 0.000000 1.862590 
# 
# From -- ./inp_files/9371.got.cif
#   From: 2010.05.17/outbox.cif.g08.bks.cpg/sg64_5_cif.got.tgz:9371.got - 2010.06.03 16:29:19.
