data_PCOD9476595
_publ_section_title
;
Structure prediction by ZEFSAII (Michael W. Deem and Ramdas Pophale) SiO2 
 PCOD9476595
Probable space group: C M C A
;
_chemical_formula_sum "Si O2"
_cell_formula_units_Z 72
_cell_length_a 10.092150
_cell_length_b 10.732759
_cell_length_c 25.711761
_cell_angle_alpha 90.000000
_cell_angle_beta 90.000000
_cell_angle_gamma 90.000000
_cell_volume 2785.010885
_symmetry_space_group_name_H-M "C M C A"
_symmetry_group_IT_number 64
_symmetry_cell_setting 'orthorhombic'
loop_
_space_group_symop_operation_xyz
x,y,z
-x,1/2-y,1/2+z
x,-y,-z
-x,1/2+y,1/2-z
-x,-y,-z
x,1/2+y,1/2-z
-x,y,z
x,1/2-y,1/2+z
1/2+x,1/2+y,z
1/2-x,-y,1/2+z
1/2+x,1/2-y,-z
1/2-x,y,1/2-z
1/2-x,1/2-y,-z
1/2+x,y,1/2-z
1/2-x,1/2+y,z
1/2+x,-y,1/2+z
loop_
_atom_site_type_symbol
_atom_site_label
_atom_site_fract_x
_atom_site_fract_y
_atom_site_fract_z
Si Si1 0.741195 0.628097 0.305276
Si Si2 0.729140 0.457088 0.916814
Si Si3 0.500000 0.751658 0.568648
Si Si4 0.000000 0.379837 0.957675
Si Si5 0.500000 0.320527 0.208006
Si Si6 0.000000 0.371345 0.403571
Si Si7 0.500000 0.797023 0.180479
O O1 0.750000 0.558678 0.250000
O O2 0.728562 0.544250 0.356058
O O3 0.625410 0.729716 0.299623
O O4 0.873302 0.708231 0.313406
O O5 0.630652 0.339780 0.926968
O O6 0.633527 0.573204 0.927704
O O7 0.862728 0.449926 0.948741
O O8 0.500000 0.686958 0.513246
O O9 0.500000 0.663760 0.620089
O O10 0.000000 0.273937 0.912967
O O11 0.500000 0.408769 0.157531
O O12 0.500000 0.377560 0.266238
#
# Coordination Sequence:
#
# PCOD9476595 Si02
#       7
#    16  16   8   8   8   8   8
#     4   9  16  32  59  87 124 167 205 268 333 392
#     4  10  21  39  62 100 133 169 228 277 335 402
#     4   9  20  38  66  98 130 182 228 275 340 392
#     4  12  22  43  70  94 132 186 227 272 342 393
#     4  10  17  35  62  92 125 171 210 266 337 399
#     4  11  24  40  65  98 134 167 223 281 335 409
#     4   8  17  31  59  94 122 163 222 261 326 401
#
# _framework density 25.852681
#
# number of rings (size 3 to 8) (size 9 to 14) (size 15 to 20)
#    0.000    2.222    2.222    1.333    0.000    1.778 
#    0.000    6.667    0.000    2.667    0.000    0.000 
#    0.000    0.000    0.000    0.000    0.000    0.000 
#
# Total GULP energy -201642.678005 kJ/mol
# GULP energy per Si atom -5601.185500 kJ/mol
# Density = 2.579384 g / cm^3
# Si number density = 25.852681 Si / 1000 Ang^3
#
#
#
# Elastic Constant Matrix: (Units=GPa)
#
#
# Indices 1 2 3 4 5 6 
#
# 1 184.2539 30.4102 37.5031 0.0000 0.0000 0.0000
# 2 30.4102 39.6788 15.7765 0.0000 0.0000 0.0000
# 3 37.5031 15.7765 181.9291 0.0000 0.0000 0.0000
# 4 0.0000 0.0000 0.0000 31.5700 0.0000 0.0000
# 5 0.0000 0.0000 0.0000 0.0000 23.3430 0.0000
# 6 0.0000 0.0000 0.0000 0.0000 0.0000 25.1958
#
#
#
# Elastic Compliance Matrix: (Units=1/GPa)
#
#
# Indices 1 2 3 4 5 6 
#
# 1 0.006358 -0.004507 -0.000920 0.000000 0.000000 0.000000
# 2 -0.004507 0.029298 -0.001611 0.000000 0.000000 0.000000
# 3 -0.000920 -0.001611 0.005826 0.000000 0.000000 0.000000
# 4 0.000000 0.000000 0.000000 0.031676 0.000000 0.000000
# 5 0.000000 0.000000 0.000000 0.000000 0.042839 0.000000
# 6 0.000000 0.000000 0.000000 0.000000 0.000000 0.039689
#
#
# Mechanical properties :
#
#
# Convention : Reuss Voigt Hill
#
# Bulk Modulus (GPa) = 36.49023 63.69349 50.09186
# Shear Modulus (GPa) = 27.94879 37.49990 32.72435
#
# Velocity S-wave (km/s) = 3.29154 3.81270 3.56167
# Velocity P-wave (km/s) = 5.34706 6.63874 6.02760
#
# Compressibility (1/GPa) = 0.02740460
#
# Stress axis : x y z
#
# Youngs Moduli (GPa) = 157.27087 34.13242 171.64401
#
# Poissons Ratio (x) = 0.15385 0.15789
# Poissons Ratio (y) = 0.70889 0.27660
# Poissons Ratio (z) = 0.14467 0.05500
#
# Static dielectric constant tensor:
#      x y z
#    x 1.949510 0.000000 0.000000 
#    y 0.000000 1.989400 0.000000 
#    z 0.000000 0.000000 2.070190 
# 
# From -- ./inp_files/47764.got.cif
#   From: 2010.05.17/outbox.cif.g08.bks.cpg/sg64_24_cif.got.tgz:47764.got - 2010.06.03 16:29:19.
