data_PCOD9476401
_publ_section_title
;
Structure prediction by ZEFSAII (Michael W. Deem and Ramdas Pophale) SiO2 
 PCOD9476401
Probable space group: C M C A
;
_chemical_formula_sum "Si O2"
_cell_formula_units_Z 72
_cell_length_a 21.629033
_cell_length_b 11.040845
_cell_length_c 16.383047
_cell_angle_alpha 90.000000
_cell_angle_beta 90.000000
_cell_angle_gamma 90.000000
_cell_volume 3912.317510
_symmetry_space_group_name_H-M "C M C A"
_symmetry_group_IT_number 64
_symmetry_cell_setting 'orthorhombic'
loop_
_space_group_symop_operation_xyz
x,y,z
-x,1/2-y,1/2+z
x,-y,-z
-x,1/2+y,1/2-z
-x,-y,-z
x,1/2+y,1/2-z
-x,y,z
x,1/2-y,1/2+z
1/2+x,1/2+y,z
1/2-x,-y,1/2+z
1/2+x,1/2-y,-z
1/2-x,y,1/2-z
1/2-x,1/2-y,-z
1/2+x,y,1/2-z
1/2-x,1/2+y,z
1/2+x,-y,1/2+z
loop_
_atom_site_type_symbol
_atom_site_label
_atom_site_fract_x
_atom_site_fract_y
_atom_site_fract_z
Si Si1 0.571243 0.441261 0.589163
Si Si2 0.750000 0.588147 0.250000
Si Si3 0.252144 0.375463 0.449417
Si Si4 0.650129 0.097046 0.803944
Si Si5 0.166801 0.749343 0.653913
O O1 0.580938 0.500000 0.500000
O O2 0.500000 0.403350 0.594811
O O3 0.588813 0.538160 0.659260
O O4 0.619266 0.333038 0.605732
O O5 0.690734 0.500399 0.252249
O O6 0.770285 0.675694 0.176003
O O7 0.256034 0.500000 0.500000
O O8 0.250000 0.250000 0.500000
O O9 0.307552 0.376984 0.383366
O O10 0.188421 0.364216 0.399101
O O11 0.641624 0.207479 0.741979
#
# Coordination Sequence:
#
# PCOD9476401 Si02
#       5
#    16   8  16  16  16
#     4  10  23  42  59  81 120 167 215 256 303 365
#     4  10  16  34  54  82 122 150 186 236 318 352
#     4  12  23  34  56  91 130 158 198 244 317 383
#     4  11  20  35  58  86 118 160 193 258 308 365
#     4  11  21  35  61  85 119 158 198 255 305 368
#
# _framework density 18.403414000000001
#
# number of rings (size 3 to 8) (size 9 to 14) (size 15 to 20)
#    0.000    1.111    4.444    4.667    0.000    0.889 
#    0.000    0.000    0.000    0.667    0.000    0.000 
#    0.000    0.000    0.000    0.000    0.000    0.000 
#
# Total GULP energy -200540.554725 kJ/mol
# GULP energy per Si atom -5570.570965 kJ/mol
# Density = 1.836153 g / cm^3
# Si number density = 18.403414 Si / 1000 Ang^3
#
#
#
# Elastic Constant Matrix: (Units=GPa)
#
#
# Indices 1 2 3 4 5 6 
#
# 1 84.4335 14.6905 35.5230 0.0000 0.0000 0.0000
# 2 14.6905 74.8504 44.1647 0.0000 0.0000 0.0000
# 3 35.5230 44.1647 100.8095 0.0000 0.0000 0.0000
# 4 0.0000 0.0000 0.0000 42.2562 0.0000 0.0000
# 5 0.0000 0.0000 0.0000 0.0000 24.9068 0.0000
# 6 0.0000 0.0000 0.0000 0.0000 0.0000 13.4446
#
#
#
# Elastic Compliance Matrix: (Units=1/GPa)
#
#
# Indices 1 2 3 4 5 6 
#
# 1 0.013908 0.000219 -0.004997 0.000000 0.000000 0.000000
# 2 0.000219 0.018021 -0.007972 0.000000 0.000000 0.000000
# 3 -0.004997 -0.007972 0.015173 0.000000 0.000000 0.000000
# 4 0.000000 0.000000 0.000000 0.023665 0.000000 0.000000
# 5 0.000000 0.000000 0.000000 0.000000 0.040150 0.000000
# 6 0.000000 0.000000 0.000000 0.000000 0.000000 0.074379
#
#
# Mechanical properties :
#
#
# Convention : Reuss Voigt Hill
#
# Bulk Modulus (GPa) = 46.29279 49.87219 48.08249
# Shear Modulus (GPa) = 22.93619 27.16920 25.05269
#
# Velocity S-wave (km/s) = 3.53413 3.84645 3.69359
# Velocity P-wave (km/s) = 6.47012 6.84727 6.66137
#
# Compressibility (1/GPa) = 0.02160163
#
# Stress axis : x y z
#
# Youngs Moduli (GPa) = 71.90224 55.49123 65.90705
#
# Poissons Ratio (x) = -0.01213 0.32931
# Poissons Ratio (y) = -0.01571 0.52541
# Poissons Ratio (z) = 0.35926 0.44237
#
# Static dielectric constant tensor:
#      x y z
#    x 1.610510 0.000000 0.000000 
#    y 0.000000 1.718970 0.000000 
#    z 0.000000 0.000000 1.780120 
# 
# From -- ./inp_files/27021.got.cif
#   From: 2010.05.17/outbox.cif.g08.bks.cpg/sg64_14_cif.got.tgz:27021.got - 2010.06.03 16:29:19.
