data_PCOD9476101
_publ_section_title
;
Structure prediction by ZEFSAII (Michael W. Deem and Ramdas Pophale) SiO2 
 PCOD9476101
Probable space group: C M C M
;
_chemical_formula_sum "Si O2"
_cell_formula_units_Z 32
_cell_length_a 9.000000
_cell_length_b 18.000000
_cell_length_c 21.000000
_cell_angle_alpha 90.000000
_cell_angle_beta 90.000000
_cell_angle_gamma 90.000000
_cell_volume 3402.000000
_symmetry_space_group_name_H-M "C M C M"
_symmetry_group_IT_number 63
_symmetry_cell_setting 'orthorhombic'
loop_
_space_group_symop_operation_xyz
x,y,z
-x,-y,1/2+z
x,-y,-z
-x,y,1/2-z
-x,-y,-z
x,y,1/2-z
-x,y,z
x,-y,1/2+z
1/2+x,1/2+y,z
1/2-x,1/2-y,1/2+z
1/2+x,1/2-y,-z
1/2-x,1/2+y,1/2-z
1/2-x,1/2-y,-z
1/2+x,1/2+y,1/2-z
1/2-x,1/2+y,z
1/2+x,1/2-y,1/2+z
loop_
_atom_site_type_symbol
_atom_site_label
_atom_site_fract_x
_atom_site_fract_y
_atom_site_fract_z
Si Si1 0.681496 0.678773 0.250000
Si Si2 0.170278 0.079168 0.631884
Si Si3 0.673630 0.599232 0.377962
Si Si4 0.168329 0.409624 0.005378
Si Si5 0.323968 0.847695 0.250000
O O1 0.500000 0.676139 0.250000
O O2 0.728875 0.637461 0.313903
O O3 0.731721 0.763292 0.250000
O O4 0.227822 0.108720 0.564541
O O5 0.268170 0.110395 0.688084
O O6 0.000000 0.099194 0.642681
O O7 0.180846 0.989711 0.630416
O O8 0.500000 0.618107 0.388245
O O9 0.767660 0.620113 0.439528
O O10 0.000000 0.385869 0.016986
O O11 0.168683 0.500000 0.000000
O O12 0.500000 0.845234 0.250000
#
# Coordination Sequence:
#
# PCOD9476101 Si02
#       5
#     8  16  16  16   8
#     4   9  19  35  53  73 100 135 172 210 252 297
#     4  10  19  33  55  79 102 132 170 209 249 300
#     4   9  17  33  56  78 100 131 172 211 248 296
#     4   9  17  30  50  79 109 131 159 206 259 303
#     4  11  22  35  51  73 104 137 168 208 256 301
#
# _framework density 9.4062319999999993
#
# number of rings (size 3 to 8) (size 9 to 14) (size 15 to 20)
#    0.000    2.500    0.000    2.625    0.000    6.000 
#    0.000    4.375    0.000    0.000    0.000    0.000 
#    0.000    0.000    0.000    0.000    0.000    0.000 
#
# Total GULP energy -178469.202728 kJ/mol
# GULP energy per Si atom -5577.162585 kJ/mol
# Density = 0.938482 g / cm^3
# Si number density = 9.406232 Si / 1000 Ang^3
#
#
#
# Elastic Constant Matrix: (Units=GPa)
#
#
# Indices 1 2 3 4 5 6 
#
# 1 50.9088 23.2146 22.4472 0.0000 0.0000 0.0000
# 2 23.2146 -3.1985 11.2741 0.0000 0.0000 0.0000
# 3 22.4472 11.2741 92.0769 0.0000 0.0000 0.0000
# 4 0.0000 0.0000 0.0000 3122.2676 0.0000 0.0000
# 5 0.0000 0.0000 0.0000 0.0000 52.7132 0.0000
# 6 0.0000 0.0000 0.0000 0.0000 0.0000 5.7153
#
#
#
# Elastic Compliance Matrix: (Units=1/GPa)
#
#
# Indices 1 2 3 4 5 6 
#
# 1 0.007304 0.032646 -0.005778 0.000000 0.000000 0.000000
# 2 0.032646 -0.072476 0.000916 0.000000 0.000000 0.000000
# 3 -0.005778 0.000916 0.012157 0.000000 0.000000 0.000000
# 4 0.000000 0.000000 0.000000 0.000320 0.000000 0.000000
# 5 0.000000 0.000000 0.000000 0.000000 0.018971 0.000000
# 6 0.000000 0.000000 0.000000 0.000000 0.000000 0.174969
#
#
# Mechanical properties :
#
#
# Convention : Reuss Voigt Hill
#
# Bulk Modulus (GPa) = 391.91578 28.18436 210.05007
# Shear Modulus (GPa) = 57.78474 641.66263 349.72369
#
# Velocity S-wave (km/s) = 5.54823 18.48849 13.64931
# Velocity P-wave (km/s) = 15.80582 21.69746 18.98162
#
# Compressibility (1/GPa) = 0.00255157
#
# Stress axis : x y z
#
# Youngs Moduli (GPa) = 136.91269 -13.79759 82.25749
#
# Poissons Ratio (x) = 0.45043 0.47527
# Poissons Ratio (y) = -4.46963 -0.07531
# Poissons Ratio (z) = 0.79106 0.01263
#
# Static dielectric constant tensor:
#      x y z
#    x 1.629380 0.000000 0.000000 
#    y 0.000000 1.627810 0.000000 
#    z 0.000000 0.000000 1.638120 
# 
# From -- ./inp_files/39895.got.cif
#   From: 2010.05.17/outbox.ucp.g08.bks.cvg/sg63_20_cif.got.tgz:39895.got - 2010.06.11 16:32:19.
