data_PCOD9476732
_publ_section_title
;
Structure prediction by ZEFSAII (Michael W. Deem and Ramdas Pophale) SiO2 
 PCOD9476732
Probable space group: C M C A
;
_chemical_formula_sum "Si O2"
_cell_formula_units_Z 96
_cell_length_a 9.124031
_cell_length_b 20.327946
_cell_length_c 30.536748
_cell_angle_alpha 90.000000
_cell_angle_beta 90.000000
_cell_angle_gamma 90.000000
_cell_volume 5663.736444
_symmetry_space_group_name_H-M "C M C A"
_symmetry_group_IT_number 64
_symmetry_cell_setting 'orthorhombic'
loop_
_space_group_symop_operation_xyz
x,y,z
-x,1/2-y,1/2+z
x,-y,-z
-x,1/2+y,1/2-z
-x,-y,-z
x,1/2+y,1/2-z
-x,y,z
x,1/2-y,1/2+z
1/2+x,1/2+y,z
1/2-x,-y,1/2+z
1/2+x,1/2-y,-z
1/2-x,y,1/2-z
1/2-x,1/2-y,-z
1/2+x,y,1/2-z
1/2-x,1/2+y,z
1/2+x,-y,1/2+z
loop_
_atom_site_type_symbol
_atom_site_label
_atom_site_fract_x
_atom_site_fract_y
_atom_site_fract_z
Si Si1 0.831967 0.145183 0.706031
Si Si2 0.169921 0.015105 0.294350
Si Si3 0.172186 0.433915 0.970997
Si Si4 0.676479 0.686163 0.979215
Si Si5 0.673697 0.642000 0.882912
Si Si6 0.325108 0.985004 0.615404
O O1 0.750000 0.167241 0.750000
O O2 0.756613 0.164924 0.660560
O O3 0.000000 0.165978 0.707102
O O4 0.828373 0.065035 0.706355
O O5 0.250000 0.037218 0.250000
O O6 0.257337 0.034926 0.337868
O O7 0.000000 0.035399 0.295756
O O8 0.259361 0.376788 0.995646
O O9 0.244480 0.448808 0.924181
O O10 0.000000 0.417218 0.966593
O O11 0.182977 0.500000 0.000000
O O12 0.500000 0.687950 0.982866
O O13 0.750000 0.750000 0.000000
O O14 0.713940 0.678372 0.927741
O O15 0.500000 0.649084 0.875629
O O16 0.701426 0.563779 0.889474
O O17 0.500000 0.974598 0.614218
#
# Coordination Sequence:
#
# PCOD9476732 Si02
#       6
#    16  16  16  16  16  16
#     4   9  16  25  41  65  96 130 166 207 254 306
#     4   9  16  26  40  64  98 134 169 208 258 312
#     4  11  22  35  54  79 106 137 177 221 263 313
#     4  11  23  39  56  77 106 142 180 222 269 319
#     4   9  18  31  48  70 100 135 171 211 260 310
#     4  10  18  30  49  73 101 135 174 216 264 314
#
# _framework density 16.949942
#
# number of rings (size 3 to 8) (size 9 to 14) (size 15 to 20)
#    0.000    2.167    1.667    2.500    0.000    6.667 
#    0.000    0.000    0.000    0.000    0.000    1.167 
#    0.000    5.333    0.000    0.000    0.000    0.000 
#
# Total GULP energy -267779.550912 kJ/mol
# GULP energy per Si atom -5578.740644 kJ/mol
# Density = 1.691136 g / cm^3
# Si number density = 16.949942 Si / 1000 Ang^3
#
#
#
# Elastic Constant Matrix: (Units=GPa)
#
#
# Indices 1 2 3 4 5 6 
#
# 1 114.5461 38.1071 102.5165 0.0000 0.0000 0.0000
# 2 38.1071 40.2188 42.3139 0.0000 0.0000 0.0000
# 3 102.5165 42.3139 200.0281 0.0000 0.0000 0.0000
# 4 0.0000 0.0000 0.0000 12.6113 0.0000 0.0000
# 5 0.0000 0.0000 0.0000 0.0000 37.5289 0.0000
# 6 0.0000 0.0000 0.0000 0.0000 0.0000 19.1185
#
#
#
# Elastic Compliance Matrix: (Units=1/GPa)
#
#
# Indices 1 2 3 4 5 6 
#
# 1 0.018733 -0.009838 -0.007520 0.000000 0.000000 0.000000
# 2 -0.009838 0.037148 -0.002816 0.000000 0.000000 0.000000
# 3 -0.007520 -0.002816 0.009449 0.000000 0.000000 0.000000
# 4 0.000000 0.000000 0.000000 0.079294 0.000000 0.000000
# 5 0.000000 0.000000 0.000000 0.000000 0.026646 0.000000
# 6 0.000000 0.000000 0.000000 0.000000 0.000000 0.052305
#
#
# Mechanical properties :
#
#
# Convention : Reuss Voigt Hill
#
# Bulk Modulus (GPa) = 40.02818 80.07423 60.05120
# Shear Modulus (GPa) = 18.36536 25.30875 21.83706
#
# Velocity S-wave (km/s) = 3.29524 3.86832 3.59322
# Velocity P-wave (km/s) = 6.17616 8.20341 7.26088
#
# Compressibility (1/GPa) = 0.02498240
#
# Stress axis : x y z
#
# Youngs Moduli (GPa) = 53.38162 26.91903 105.83120
#
# Poissons Ratio (x) = 0.26483 0.79582
# Poissons Ratio (y) = 0.52517 0.29805
# Poissons Ratio (z) = 0.40142 0.07581
#
# Static dielectric constant tensor:
#      x y z
#    x 1.564410 0.000000 0.000000 
#    y 0.000000 1.552540 0.000000 
#    z 0.000000 0.000000 1.563740 
# 
# From -- ./inp_files/48038.got.cif
#   From: 2010.05.17/outbox.cif.g08.bks.cpg/sg64_25_cif.got.tgz:48038.got - 2010.06.03 16:29:19.
