data_PCOD9476535
_publ_section_title
;
Structure prediction by ZEFSAII (Michael W. Deem and Ramdas Pophale) SiO2 
 PCOD9476535
Probable space group: C M C A
;
_chemical_formula_sum "Si O2"
_cell_formula_units_Z 120
_cell_length_a 14.449877
_cell_length_b 19.107201
_cell_length_c 22.038201
_cell_angle_alpha 90.000000
_cell_angle_beta 90.000000
_cell_angle_gamma 90.000000
_cell_volume 6084.674664
_symmetry_space_group_name_H-M "C M C A"
_symmetry_group_IT_number 64
_symmetry_cell_setting 'orthorhombic'
loop_
_space_group_symop_operation_xyz
x,y,z
-x,1/2-y,1/2+z
x,-y,-z
-x,1/2+y,1/2-z
-x,-y,-z
x,1/2+y,1/2-z
-x,y,z
x,1/2-y,1/2+z
1/2+x,1/2+y,z
1/2-x,-y,1/2+z
1/2+x,1/2-y,-z
1/2-x,y,1/2-z
1/2-x,1/2-y,-z
1/2+x,y,1/2-z
1/2-x,1/2+y,z
1/2+x,-y,1/2+z
loop_
_atom_site_type_symbol
_atom_site_label
_atom_site_fract_x
_atom_site_fract_y
_atom_site_fract_z
Si Si1 0.730054 0.500000 0.000000
Si Si2 0.746466 0.898452 0.098900
Si Si3 0.105683 0.602626 0.418772
Si Si4 0.894945 0.626124 0.690450
Si Si5 0.283383 0.165260 0.316074
Si Si6 0.344655 0.288806 0.013880
Si Si7 0.098918 0.280124 0.871245
Si Si8 0.109680 0.812924 0.321538
O O1 0.785078 0.457867 0.051922
O O2 0.664752 0.549744 0.040593
O O3 0.814171 0.915943 0.155823
O O4 0.815136 0.852478 0.057358
O O5 0.662980 0.851819 0.124181
O O6 0.151135 0.613819 0.353419
O O7 0.111499 0.677610 0.454198
O O8 0.000000 0.580292 0.415302
O O9 0.892968 0.706054 0.664380
O O10 0.879877 0.638180 0.761869
O O11 0.000000 0.599654 0.679434
O O12 0.250000 0.142350 0.250000
O O13 0.190409 0.177687 0.355116
O O14 0.337889 0.239383 0.310245
O O15 0.401277 0.238058 0.057529
O O16 0.250000 0.250000 0.000000
O O17 0.000000 0.312065 0.853516
O O18 0.000000 0.801807 0.331424
#
# Coordination Sequence:
#
# PCOD9476535 Si02
#       8
#     8  16  16  16  16  16  16  16
#     4  10  25  42  63  76 108 152 207 264 297 326
#     4  10  19  35  54  80 110 147 191 246 292 337
#     4  11  23  39  60  85 114 155 202 250 295 341
#     4   9  17  29  52  84 115 146 179 222 281 346
#     4  12  21  35  57  89 128 159 180 228 294 369
#     4  10  17  31  54  81 115 146 185 233 297 351
#     4  10  18  29  49  79 120 154 179 215 273 349
#     4  11  19  32  56  90 123 156 186 225 289 365
#
# _framework density 19.721679000000002
#
# number of rings (size 3 to 8) (size 9 to 14) (size 15 to 20)
#    0.000    1.600    5.333    1.400    0.000    4.267 
#    0.000    2.333    0.000    0.800    0.000    0.000 
#    0.000    0.000    0.000    0.000    0.000    0.000 
#
# Total GULP energy -334547.603131 kJ/mol
# GULP energy per Si atom -5575.793386 kJ/mol
# Density = 1.967679 g / cm^3
# Si number density = 19.721679 Si / 1000 Ang^3
#
#
#
# Elastic Constant Matrix: (Units=GPa)
#
#
# Indices 1 2 3 4 5 6 
#
# 1 65.6620 -10.8405 16.5611 0.0000 0.0000 0.0000
# 2 -10.8405 15.0244 15.3024 0.0000 0.0000 0.0000
# 3 16.5611 15.3024 89.8991 0.0000 0.0000 0.0000
# 4 0.0000 0.0000 0.0000 27.6291 0.0000 0.0000
# 5 0.0000 0.0000 0.0000 0.0000 15.9520 0.0000
# 6 0.0000 0.0000 0.0000 0.0000 0.0000 7.1857
#
#
#
# Elastic Compliance Matrix: (Units=1/GPa)
#
#
# Indices 1 2 3 4 5 6 
#
# 1 0.021014 0.023112 -0.007805 0.000000 0.000000 0.000000
# 2 0.023112 0.105937 -0.022290 0.000000 0.000000 0.000000
# 3 -0.007805 -0.022290 0.016356 0.000000 0.000000 0.000000
# 4 0.000000 0.000000 0.000000 0.036194 0.000000 0.000000
# 5 0.000000 0.000000 0.000000 0.000000 0.062688 0.000000
# 6 0.000000 0.000000 0.000000 0.000000 0.000000 0.139165
#
#
# Mechanical properties :
#
#
# Convention : Reuss Voigt Hill
#
# Bulk Modulus (GPa) = 7.73161 23.62571 15.67866
# Shear Modulus (GPa) = 11.40426 20.12420 15.76423
#
# Velocity S-wave (km/s) = 2.40731 3.19785 2.83032
# Velocity P-wave (km/s) = 3.41405 5.06365 4.31835
#
# Compressibility (1/GPa) = 0.12933919
#
# Stress axis : x y z
#
# Youngs Moduli (GPa) = 47.58796 9.43959 61.14120
#
# Poissons Ratio (x) = -0.21816 0.47721
# Poissons Ratio (y) = -1.09984 1.36283
# Poissons Ratio (z) = 0.37143 0.21041
#
# Static dielectric constant tensor:
#      x y z
#    x 1.711430 0.000000 0.000000 
#    y 0.000000 1.718320 0.000000 
#    z 0.000000 0.000000 1.552090 
# 
# From -- ./inp_files/45505.got.cif
#   From: 2010.05.17/outbox.cif.g08.bks.cpg/sg64_23_cif.got.tgz:45505.got - 2010.06.03 16:29:19.
