data_PCOD9476472
_publ_section_title
;
Structure prediction by ZEFSAII (Michael W. Deem and Ramdas Pophale) SiO2 
 PCOD9476472
Probable space group: C M C A
;
_chemical_formula_sum "Si O2"
_cell_formula_units_Z 104
_cell_length_a 19.081128
_cell_length_b 13.805714
_cell_length_c 22.969375
_cell_angle_alpha 90.000000
_cell_angle_beta 90.000000
_cell_angle_gamma 90.000000
_cell_volume 6050.790206
_symmetry_space_group_name_H-M "C M C A"
_symmetry_group_IT_number 64
_symmetry_cell_setting 'orthorhombic'
loop_
_space_group_symop_operation_xyz
x,y,z
-x,1/2-y,1/2+z
x,-y,-z
-x,1/2+y,1/2-z
-x,-y,-z
x,1/2+y,1/2-z
-x,y,z
x,1/2-y,1/2+z
1/2+x,1/2+y,z
1/2-x,-y,1/2+z
1/2+x,1/2-y,-z
1/2-x,y,1/2-z
1/2-x,1/2-y,-z
1/2+x,y,1/2-z
1/2-x,1/2+y,z
1/2+x,-y,1/2+z
loop_
_atom_site_type_symbol
_atom_site_label
_atom_site_fract_x
_atom_site_fract_y
_atom_site_fract_z
Si Si1 0.214371 0.539677 0.168470
Si Si2 0.360775 0.164960 0.823925
Si Si3 0.500000 0.351505 0.244597
Si Si4 0.419098 0.374861 0.446281
Si Si5 0.344912 0.371942 0.784506
Si Si6 0.500000 0.329793 0.656506
Si Si7 0.000000 0.932887 0.772817
Si Si8 0.383049 0.598183 0.426978
O O1 0.187730 0.430234 0.178151
O O2 0.296267 0.555134 0.179106
O O3 0.174531 0.602613 0.218042
O O4 0.189160 0.578757 0.106330
O O5 0.430632 0.150737 0.784845
O O6 0.384670 0.175893 0.890895
O O7 0.325543 0.262666 0.800997
O O8 0.500000 0.263212 0.198808
O O9 0.500000 0.454478 0.212819
O O10 0.500000 0.346607 0.453089
O O11 0.416532 0.490330 0.432476
O O12 0.380633 0.361252 0.507896
O O13 0.427732 0.385510 0.793839
O O14 0.500000 0.419190 0.702387
O O15 0.433137 0.339348 0.614665
#
# Coordination Sequence:
#
# PCOD9476472 Si02
#       8
#    16  16   8  16  16   8   8  16
#     4  10  22  35  53  78 116 146 174 231 277 336
#     4  11  20  36  54  84 116 141 189 221 276 338
#     4  12  20  31  56  85 116 147 183 221 278 328
#     4  10  17  28  56  85 108 146 175 244 281 317
#     4  11  22  36  55  80 111 151 179 224 282 328
#     4  12  18  30  53  84 114 147 171 232 264 334
#     4  12  20  36  53  80 111 145 189 219 271 327
#     4  10  17  32  51  82 117 137 186 225 291 323
#
# _framework density 17.187837999999999
#
# number of rings (size 3 to 8) (size 9 to 14) (size 15 to 20)
#    0.000    1.231    6.923    1.385    0.000    2.462 
#    2.769    0.769    0.000    0.000    0.000    1.077 
#    0.000    0.000    0.000    0.000    0.000    0.000 
#
# Total GULP energy -290055.137371 kJ/mol
# GULP energy per Si atom -5577.983411 kJ/mol
# Density = 1.714872 g / cm^3
# Si number density = 17.187838 Si / 1000 Ang^3
#
#
#
# Elastic Constant Matrix: (Units=GPa)
#
#
# Indices 1 2 3 4 5 6 
#
# 1 87.4296 20.8315 31.3530 0.0000 0.0000 0.0000
# 2 20.8315 80.0500 38.8859 0.0000 0.0000 0.0000
# 3 31.3530 38.8859 106.5340 0.0000 0.0000 0.0000
# 4 0.0000 0.0000 0.0000 17.8899 0.0000 0.0000
# 5 0.0000 0.0000 0.0000 0.0000 21.8625 0.0000
# 6 0.0000 0.0000 0.0000 0.0000 0.0000 17.9489
#
#
#
# Elastic Compliance Matrix: (Units=1/GPa)
#
#
# Indices 1 2 3 4 5 6 
#
# 1 0.013010 -0.001854 -0.003152 0.000000 0.000000 0.000000
# 2 -0.001854 0.015449 -0.005093 0.000000 0.000000 0.000000
# 3 -0.003152 -0.005093 0.012173 0.000000 0.000000 0.000000
# 4 0.000000 0.000000 0.000000 0.055898 0.000000 0.000000
# 5 0.000000 0.000000 0.000000 0.000000 0.045740 0.000000
# 6 0.000000 0.000000 0.000000 0.000000 0.000000 0.055714
#
#
# Mechanical properties :
#
#
# Convention : Reuss Voigt Hill
#
# Bulk Modulus (GPa) = 48.94052 50.68381 49.81216
# Shear Modulus (GPa) = 22.22281 23.73648 22.97965
#
# Velocity S-wave (km/s) = 3.59965 3.72022 3.66043
# Velocity P-wave (km/s) = 6.76848 6.92860 6.84901
#
# Compressibility (1/GPa) = 0.02043297
#
# Stress axis : x y z
#
# Youngs Moduli (GPa) = 76.86430 64.72939 82.14656
#
# Poissons Ratio (x) = 0.12004 0.25892
# Poissons Ratio (y) = 0.14254 0.41839
# Poissons Ratio (z) = 0.24227 0.32968
#
# Static dielectric constant tensor:
#      x y z
#    x 1.612620 0.000000 0.000000 
#    y 0.000000 1.590030 0.000000 
#    z 0.000000 0.000000 1.587280 
# 
# From -- ./inp_files/46438.got.cif
#   From: 2010.05.17/outbox.cif.g08.bks.cpg/sg64_24_cif.got.tgz:46438.got - 2010.06.03 16:29:19.
