data_PCOD9476053
_publ_section_title
;
Structure prediction by ZEFSAII (Michael W. Deem and Ramdas Pophale) SiO2 
 PCOD9476053
Probable space group: C M C M
;
_chemical_formula_sum "Si O2"
_cell_formula_units_Z 40
_cell_length_a 24.000000
_cell_length_b 21.000000
_cell_length_c 9.000000
_cell_angle_alpha 90.000000
_cell_angle_beta 90.000000
_cell_angle_gamma 90.000000
_cell_volume 4536.000000
_symmetry_space_group_name_H-M "C M C M"
_symmetry_group_IT_number 63
_symmetry_cell_setting 'orthorhombic'
loop_
_space_group_symop_operation_xyz
x,y,z
-x,-y,1/2+z
x,-y,-z
-x,y,1/2-z
-x,-y,-z
x,y,1/2-z
-x,y,z
x,-y,1/2+z
1/2+x,1/2+y,z
1/2-x,1/2-y,1/2+z
1/2+x,1/2-y,-z
1/2-x,1/2+y,1/2-z
1/2-x,1/2-y,-z
1/2+x,1/2+y,1/2-z
1/2-x,1/2+y,z
1/2+x,1/2-y,1/2+z
loop_
_atom_site_type_symbol
_atom_site_label
_atom_site_fract_x
_atom_site_fract_y
_atom_site_fract_z
Si Si1 0.728021 0.438370 0.927488
Si Si2 0.500000 0.401273 0.577279
Si Si3 0.500000 0.245952 0.915956
Si Si4 0.894234 0.248950 0.582547
Si Si5 0.615309 0.398713 0.427948
Si Si6 0.222597 0.308609 0.580043
O O1 0.728601 0.442743 0.750000
O O2 0.759548 0.375745 0.982432
O O3 0.754213 0.500000 0.000000
O O4 0.665324 0.431755 0.986899
O O5 0.500000 0.421177 0.750000
O O6 0.500000 0.323556 0.575135
O O7 0.555748 0.420253 0.490816
O O8 0.500000 0.225748 0.750000
O O9 0.555829 0.224072 0.990420
O O10 0.914629 0.240624 0.750000
O O11 0.878430 0.177017 0.535877
O O12 0.842360 0.295006 0.577553
O O13 0.619007 0.407263 0.250000
O O14 0.242153 0.307407 0.750000
O O15 0.250000 0.250000 0.500000
#
# Coordination Sequence:
#
# PCOD9476053 Si02
#       6
#    16   8   8  16  16  16
#     4  11  23  37  53  74 104 139 175 214 260 309
#     4   9  17  29  46  70 101 134 172 214 256 300
#     4   9  17  27  43  72 105 134 165 204 250 300
#     4   9  17  30  49  74 103 134 166 206 255 305
#     4  10  18  31  51  73 100 134 174 214 258 305
#     4  10  20  34  54  79 104 134 173 215 258 306
#
# _framework density 8.8183419999999995
#
# number of rings (size 3 to 8) (size 9 to 14) (size 15 to 20)
#    0.000    2.200    2.000    1.800    0.000    4.800 
#    0.000    0.500    0.000    0.000    0.000    0.700 
#    0.000    0.000    0.000    0.000    0.000    0.000 
#
# Total GULP energy -222871.379942 kJ/mol
# GULP energy per Si atom -5571.784499 kJ/mol
# Density = 0.879827 g / cm^3
# Si number density = 8.818342 Si / 1000 Ang^3
#
#
#
# Elastic Constant Matrix: (Units=GPa)
#
#
# Indices 1 2 3 4 5 6 
#
# 1 1.1771 34.3131 43.4499 0.0000 0.0000 0.0000
# 2 34.3131 103.9170 42.0155 0.0000 0.0000 0.0000
# 3 43.4499 42.0155 33.5909 0.0000 0.0000 0.0000
# 4 0.0000 0.0000 0.0000 14.8334 0.0000 0.0000
# 5 0.0000 0.0000 0.0000 0.0000 1.9749 0.0000
# 6 0.0000 0.0000 0.0000 0.0000 0.0000 -3.7154
#
#
#
# Elastic Compliance Matrix: (Units=1/GPa)
#
#
# Indices 1 2 3 4 5 6 
#
# 1 -0.015914 -0.006207 0.028348 0.000000 0.000000 0.000000
# 2 -0.006207 0.017048 -0.013295 0.000000 0.000000 0.000000
# 3 0.028348 -0.013295 0.009731 0.000000 0.000000 0.000000
# 4 0.000000 0.000000 0.000000 0.067415 0.000000 0.000000
# 5 0.000000 0.000000 0.000000 0.000000 0.506345 0.000000
# 6 0.000000 0.000000 0.000000 0.000000 0.000000 -0.269153
#
#
# Mechanical properties :
#
#
# Convention : Reuss Voigt Hill
#
# Bulk Modulus (GPa) = 35.01692 42.02689 38.52190
# Shear Modulus (GPa) = 16.27077 3.87905 10.07491
#
# Velocity S-wave (km/s) = 3.04065 1.48465 2.39267
# Velocity P-wave (km/s) = 5.67672 5.17879 5.43346
#
# Compressibility (1/GPa) = 0.02855763
#
# Stress axis : x y z
#
# Youngs Moduli (GPa) = -62.83933 58.65828 102.76266
#
# Poissons Ratio (x) = 0.36409 -2.91310
# Poissons Ratio (y) = -0.39004 1.36621
# Poissons Ratio (z) = 1.78136 0.77985
#
# Static dielectric constant tensor:
#      x y z
#    x 1.608800 0.000000 0.000000 
#    y 0.000000 1.816170 0.000000 
#    z 0.000000 0.000000 1.613050 
# 
# From -- ./inp_files/10061.got.cif
#   From: 2010.05.17/outbox.ucp.g08.bks.cvg/sg63_6_cif.got.tgz:10061.got - 2010.06.11 16:32:19.
