data_PCOD9476303
_publ_section_title
;
Structure prediction by ZEFSAII (Michael W. Deem and Ramdas Pophale) SiO2 
 PCOD9476303
Probable space group: C M C A
;
_chemical_formula_sum "Si O2"
_cell_formula_units_Z 72
_cell_length_a 19.126185
_cell_length_b 5.427534
_cell_length_c 34.567987
_cell_angle_alpha 90.000000
_cell_angle_beta 90.000000
_cell_angle_gamma 90.000000
_cell_volume 3588.434264
_symmetry_space_group_name_H-M "C M C A"
_symmetry_group_IT_number 64
_symmetry_cell_setting 'orthorhombic'
loop_
_space_group_symop_operation_xyz
x,y,z
-x,1/2-y,1/2+z
x,-y,-z
-x,1/2+y,1/2-z
-x,-y,-z
x,1/2+y,1/2-z
-x,y,z
x,1/2-y,1/2+z
1/2+x,1/2+y,z
1/2-x,-y,1/2+z
1/2+x,1/2-y,-z
1/2-x,y,1/2-z
1/2-x,1/2-y,-z
1/2+x,y,1/2-z
1/2-x,1/2+y,z
1/2+x,-y,1/2+z
loop_
_atom_site_type_symbol
_atom_site_label
_atom_site_fract_x
_atom_site_fract_y
_atom_site_fract_z
Si Si1 0.330772 0.750023 0.016225
Si Si2 0.823575 0.272534 0.859541
Si Si3 0.655616 0.763455 0.274852
Si Si4 0.332311 0.227774 0.391703
Si Si5 0.500000 0.309897 0.727438
O O1 0.335830 0.747829 0.062310
O O2 0.362942 0.500000 0.000000
O O3 0.250000 0.750000 0.000000
O O4 0.362886 0.000000 0.000000
O O5 0.802780 0.250082 0.814586
O O6 0.750389 0.283609 0.882298
O O7 0.860343 0.529560 0.870008
O O8 0.861586 0.026830 0.874427
O O9 0.665978 0.520403 0.248135
O O10 0.575223 0.747540 0.290270
O O11 0.500000 0.600138 0.738365
#
# Coordination Sequence:
#
# PCOD9476303 Si02
#       5
#    16  16  16  16   8
#     4  10  16  25  41  58  77 110 143 170 196 233
#     4  10  18  30  43  57  84 116 140 168 209 247
#     4  10  19  32  47  64  80 106 143 178 212 249
#     4  10  19  30  40  60  89 118 139 165 207 242
#     4   8  16  30  48  64  80  96 128 180 224 250
#
# _framework density 20.064463
#
# number of rings (size 3 to 8) (size 9 to 14) (size 15 to 20)
#    0.000    2.222    0.000    8.000    0.000    0.000 
#    0.000   13.333    0.000    0.000    0.000    0.000 
#    0.000    0.000    0.000   74.000    0.000    0.000 
#
# Total GULP energy -200486.798754 kJ/mol
# GULP energy per Si atom -5569.077743 kJ/mol
# Density = 2.001880 g / cm^3
# Si number density = 20.064463 Si / 1000 Ang^3
#
#
#
# Elastic Constant Matrix: (Units=GPa)
#
#
# Indices 1 2 3 4 5 6 
#
# 1 19.4814 -3.9535 -3.5663 0.0000 0.0000 0.0000
# 2 -3.9535 167.3128 15.4818 0.0000 0.0000 0.0000
# 3 -3.5663 15.4818 99.2707 0.0000 0.0000 0.0000
# 4 0.0000 0.0000 0.0000 36.0978 0.0000 0.0000
# 5 0.0000 0.0000 0.0000 0.0000 -0.6758 0.0000
# 6 0.0000 0.0000 0.0000 0.0000 0.0000 2.0182
#
#
#
# Elastic Compliance Matrix: (Units=1/GPa)
#
#
# Indices 1 2 3 4 5 6 
#
# 1 0.051858 0.001068 0.001696 0.000000 0.000000 0.000000
# 2 0.001068 0.006086 -0.000911 0.000000 0.000000 0.000000
# 3 0.001696 -0.000911 0.010276 0.000000 0.000000 0.000000
# 4 0.000000 0.000000 0.000000 0.027703 0.000000 0.000000
# 5 0.000000 0.000000 0.000000 0.000000 -1.479819 0.000000
# 6 0.000000 0.000000 0.000000 0.000000 0.000000 0.495486
#
#
# Mechanical properties :
#
#
# Convention : Reuss Voigt Hill
#
# Bulk Modulus (GPa) = 13.90259 33.55432 23.72846
# Shear Modulus (GPa) = -5.75943 26.02824 10.13441
#
# Velocity S-wave (km/s) = -1.69608 3.60562 2.24986
# Velocity P-wave (km/s) = 1.76307 5.83897 4.31288
#
# Compressibility (1/GPa) = 0.07192902
#
# Stress axis : x y z
#
# Youngs Moduli (GPa) = 19.28333 164.30200 97.30979
#
# Poissons Ratio (x) = -0.17554 -0.16507
# Poissons Ratio (y) = -0.02060 0.08863
# Poissons Ratio (z) = -0.03271 0.14965
#
# Static dielectric constant tensor:
#      x y z
#    x 2.082250 0.000000 0.000000 
#    y 0.000000 2.003450 0.000000 
#    z 0.000000 0.000000 1.668200 
# 
# From -- ./inp_files/46810.got.cif
#   From: 2010.05.17/outbox.cif.g08.bks.cpg/sg64_24_cif.got.tgz:46810.got - 2010.06.03 16:29:19.
