data_PCOD9476616
_publ_section_title
;
Structure prediction by ZEFSAII (Michael W. Deem and Ramdas Pophale) SiO2 
 PCOD9476616
Probable space group: C M C A
;
_chemical_formula_sum "Si O2"
_cell_formula_units_Z 64
_cell_length_a 14.663968
_cell_length_b 23.205905
_cell_length_c 8.657129
_cell_angle_alpha 90.000000
_cell_angle_beta 90.000000
_cell_angle_gamma 90.000000
_cell_volume 2945.940040
_symmetry_space_group_name_H-M "C M C A"
_symmetry_group_IT_number 64
_symmetry_cell_setting 'orthorhombic'
loop_
_space_group_symop_operation_xyz
x,y,z
-x,1/2-y,1/2+z
x,-y,-z
-x,1/2+y,1/2-z
-x,-y,-z
x,1/2+y,1/2-z
-x,y,z
x,1/2-y,1/2+z
1/2+x,1/2+y,z
1/2-x,-y,1/2+z
1/2+x,1/2-y,-z
1/2-x,y,1/2-z
1/2-x,1/2-y,-z
1/2+x,y,1/2-z
1/2-x,1/2+y,z
1/2+x,-y,1/2+z
loop_
_atom_site_type_symbol
_atom_site_label
_atom_site_fract_x
_atom_site_fract_y
_atom_site_fract_z
Si Si1 0.657179 0.093571 0.081739
Si Si2 0.000000 0.180380 0.325295
Si Si3 0.892028 0.520892 0.771308
Si Si4 0.500000 0.308253 0.042531
Si Si5 0.183897 0.376364 0.392504
O O1 0.586641 0.142998 0.123668
O O2 0.650054 0.041646 0.202851
O O3 0.625062 0.060699 0.923461
O O4 0.754067 0.122269 0.044490
O O5 0.000000 0.242572 0.403542
O O6 0.000000 0.187612 0.141807
O O7 0.845710 0.557570 0.637406
O O8 0.000000 0.514803 0.748856
O O9 0.408123 0.339734 0.101261
O O10 0.250000 0.358203 0.250000
#
# Coordination Sequence:
#
# PCOD9476616 Si02
#       5
#    16   8  16   8  16
#     4  10  21  43  69 110 141 196 229 301 366 437
#     4  12  28  48  77  96 148 192 260 302 357 435
#     4  10  17  40  76 101 141 188 234 289 373 439
#     4  12  30  51  71 107 139 204 249 312 359 423
#     4  10  24  45  75 105 151 185 246 301 363 449
#
# _framework density 21.724813000000001
#
# number of rings (size 3 to 8) (size 9 to 14) (size 15 to 20)
#    0.000    1.500    3.750    0.750    7.000    2.000 
#   27.000    1.250    0.000    0.000    0.000    0.000 
#    0.000    0.000    0.000    0.000    0.000    0.000 
#
# Total GULP energy -179114.675518 kJ/mol
# GULP energy per Si atom -5597.333610 kJ/mol
# Density = 2.167537 g / cm^3
# Si number density = 21.724813 Si / 1000 Ang^3
#
#
#
# Elastic Constant Matrix: (Units=GPa)
#
#
# Indices 1 2 3 4 5 6 
#
# 1 200.6308 102.0765 57.8050 0.0000 0.0000 0.0000
# 2 102.0765 183.9290 52.0344 0.0000 0.0000 0.0000
# 3 57.8050 52.0344 59.5307 0.0000 0.0000 0.0000
# 4 0.0000 0.0000 0.0000 28.1860 0.0000 0.0000
# 5 0.0000 0.0000 0.0000 0.0000 33.2935 0.0000
# 6 0.0000 0.0000 0.0000 0.0000 0.0000 -46.0919
#
#
#
# Elastic Compliance Matrix: (Units=1/GPa)
#
#
# Indices 1 2 3 4 5 6 
#
# 1 0.007980 -0.002971 -0.005152 0.000000 0.000000 0.000000
# 2 -0.002971 0.008329 -0.004395 0.000000 0.000000 0.000000
# 3 -0.005152 -0.004395 0.025642 0.000000 0.000000 0.000000
# 4 0.000000 0.000000 0.000000 0.035479 0.000000 0.000000
# 5 0.000000 0.000000 0.000000 0.000000 0.030036 0.000000
# 6 0.000000 0.000000 0.000000 0.000000 0.000000 -0.021696
#
#
# Mechanical properties :
#
#
# Convention : Reuss Voigt Hill
#
# Bulk Modulus (GPa) = 59.11862 96.43581 77.77722
# Shear Modulus (GPa) = 42.93837 18.55584 30.74710
#
# Velocity S-wave (km/s) = 4.45057 2.92572 3.76613
# Velocity P-wave (km/s) = 7.32678 7.47658 7.40206
#
# Compressibility (1/GPa) = 0.01691514
#
# Stress axis : x y z
#
# Youngs Moduli (GPa) = 125.30685 120.05638 38.99820
#
# Poissons Ratio (x) = 0.35675 0.20091
# Poissons Ratio (y) = 0.37235 0.17141
# Poissons Ratio (z) = 0.64555 0.52767
#
# Static dielectric constant tensor:
#      x y z
#    x 1.798420 0.000000 0.000000 
#    y 0.000000 1.723190 0.000000 
#    z 0.000000 0.000000 1.864330 
# 
# From -- ./inp_files/5616.got.cif
#   From: 2010.05.17/outbox.cif.g08.bks.cpg/sg64_3_cif.got.tgz:5616.got - 2010.06.03 16:29:19.
