data_PCOD9476152
_publ_section_title
;
Structure prediction by ZEFSAII (Michael W. Deem and Ramdas Pophale) SiO2 
 PCOD9476152
Probable space group: C M C M
;
_chemical_formula_sum "Si O2"
_cell_formula_units_Z 48
_cell_length_a 21.000000
_cell_length_b 27.000000
_cell_length_c 9.000000
_cell_angle_alpha 90.000000
_cell_angle_beta 90.000000
_cell_angle_gamma 90.000000
_cell_volume 5103.000000
_symmetry_space_group_name_H-M "C M C M"
_symmetry_group_IT_number 63
_symmetry_cell_setting 'orthorhombic'
loop_
_space_group_symop_operation_xyz
x,y,z
-x,-y,1/2+z
x,-y,-z
-x,y,1/2-z
-x,-y,-z
x,y,1/2-z
-x,y,z
x,-y,1/2+z
1/2+x,1/2+y,z
1/2-x,1/2-y,1/2+z
1/2+x,1/2-y,-z
1/2-x,1/2+y,1/2-z
1/2-x,1/2-y,-z
1/2+x,1/2+y,1/2-z
1/2-x,1/2+y,z
1/2+x,1/2-y,1/2+z
loop_
_atom_site_type_symbol
_atom_site_label
_atom_site_fract_x
_atom_site_fract_y
_atom_site_fract_z
Si Si1 0.695897 0.446175 0.070927
Si Si2 0.070222 0.944891 0.928258
Si Si3 0.071853 0.666798 0.426242
Si Si4 0.307904 0.120348 0.922277
Si Si5 0.205765 0.208822 0.577422
Si Si6 0.572537 0.724618 0.071412
O O1 0.690534 0.445679 0.250000
O O2 0.765295 0.425851 0.029493
O O3 0.693111 0.500000 0.000000
O O4 0.632370 0.420444 0.002644
O O5 0.078879 0.948497 0.750000
O O6 0.000000 0.921773 0.954594
O O7 0.066238 0.000000 0.000000
O O8 0.078146 0.676528 0.250000
O O9 0.130675 0.633848 0.481828
O O10 0.075603 0.718329 0.516243
O O11 0.000000 0.646426 0.450958
O O12 0.327889 0.115463 0.750000
O O13 0.252561 0.161952 0.927010
O O14 0.194210 0.221873 0.750000
O O15 0.250000 0.250000 0.500000
O O16 0.136942 0.202034 0.499765
O O17 0.577424 0.721720 0.250000
O O18 0.500000 0.707027 0.030837
#
# Coordination Sequence:
#
# PCOD9476152 Si02
#       6
#    16  16  16  16  16  16
#     4  10  20  35  54  77 104 137 177 221 269 319
#     4   9  16  27  46  72  99 129 167 211 258 307
#     4  10  20  33  53  81 107 135 175 219 261 311
#     4  10  22  37  54  78 108 141 176 215 267 322
#     4  11  21  34  53  78 107 140 177 218 263 314
#     4  10  20  34  52  75 107 146 182 218 263 313
#
# _framework density 9.4062319999999993
#
# number of rings (size 3 to 8) (size 9 to 14) (size 15 to 20)
#    0.000    2.000    1.667    3.500    0.000    5.000 
#    0.000    0.833    0.000    5.500    0.000    0.000 
#    0.000    0.000    0.000    0.000    0.000    0.000 
#
# Total GULP energy -267486.078499 kJ/mol
# GULP energy per Si atom -5572.626635 kJ/mol
# Density = 0.938482 g / cm^3
# Si number density = 9.406232 Si / 1000 Ang^3
#
#
#
# Elastic Constant Matrix: (Units=GPa)
#
#
# Indices 1 2 3 4 5 6 
#
# 1 176.8608 27.8523 60.3304 0.0000 0.0000 0.0000
# 2 27.8523 34.3941 9.5027 0.0000 0.0000 0.0000
# 3 60.3304 9.5027 88.3524 0.0000 0.0000 0.0000
# 4 0.0000 0.0000 0.0000 10.9250 0.0000 0.0000
# 5 0.0000 0.0000 0.0000 0.0000 44.4011 0.0000
# 6 0.0000 0.0000 0.0000 0.0000 0.0000 11.2889
#
#
#
# Elastic Compliance Matrix: (Units=1/GPa)
#
#
# Indices 1 2 3 4 5 6 
#
# 1 0.008197 -0.005248 -0.005033 0.000000 0.000000 0.000000
# 2 -0.005248 0.033325 -0.000001 0.000000 0.000000 0.000000
# 3 -0.005033 -0.000001 0.014755 0.000000 0.000000 0.000000
# 4 0.000000 0.000000 0.000000 0.091533 0.000000 0.000000
# 5 0.000000 0.000000 0.000000 0.000000 0.022522 0.000000
# 6 0.000000 0.000000 0.000000 0.000000 0.000000 0.088583
#
#
# Mechanical properties :
#
#
# Convention : Reuss Voigt Hill
#
# Bulk Modulus (GPa) = 28.00034 54.99756 41.49895
# Shear Modulus (GPa) = 17.15954 26.78447 21.97201
#
# Velocity S-wave (km/s) = 3.02344 3.77737 3.42124
# Velocity P-wave (km/s) = 5.20620 6.95146 6.14114
#
# Compressibility (1/GPa) = 0.03571386
#
# Stress axis : x y z
#
# Youngs Moduli (GPa) = 121.98884 30.00786 67.77267
#
# Poissons Ratio (x) = 0.15747 0.34111
# Poissons Ratio (y) = 0.64016 0.00006
# Poissons Ratio (z) = 0.61399 0.00003
#
# Static dielectric constant tensor:
#      x y z
#    x 1.699490 0.000000 0.000000 
#    y 0.000000 1.799360 0.000000 
#    z 0.000000 0.000000 1.630290 
# 
# From -- ./inp_files/8575.got.cif
#   From: 2010.05.17/outbox.ucp.g08.bks.cvg/sg63_5_cif.got.tgz:8575.got - 2010.06.11 16:32:19.
