data_PCOD9476683
_publ_section_title
;
Structure prediction by ZEFSAII (Michael W. Deem and Ramdas Pophale) SiO2 
 PCOD9476683
Probable space group: C M C A
;
_chemical_formula_sum "Si O2"
_cell_formula_units_Z 96
_cell_length_a 9.413256
_cell_length_b 28.057191
_cell_length_c 21.667125
_cell_angle_alpha 90.000000
_cell_angle_beta 90.000000
_cell_angle_gamma 90.000000
_cell_volume 5722.494017
_symmetry_space_group_name_H-M "C M C A"
_symmetry_group_IT_number 64
_symmetry_cell_setting 'orthorhombic'
loop_
_space_group_symop_operation_xyz
x,y,z
-x,1/2-y,1/2+z
x,-y,-z
-x,1/2+y,1/2-z
-x,-y,-z
x,1/2+y,1/2-z
-x,y,z
x,1/2-y,1/2+z
1/2+x,1/2+y,z
1/2-x,-y,1/2+z
1/2+x,1/2-y,-z
1/2-x,y,1/2-z
1/2-x,1/2-y,-z
1/2+x,y,1/2-z
1/2-x,1/2+y,z
1/2+x,-y,1/2+z
loop_
_atom_site_type_symbol
_atom_site_label
_atom_site_fract_x
_atom_site_fract_y
_atom_site_fract_z
Si Si1 0.171657 0.282816 0.050783
Si Si2 0.838640 0.105595 0.542146
Si Si3 0.661702 0.927725 0.900307
Si Si4 0.665755 0.251288 0.311727
Si Si5 0.662765 0.517212 0.927991
Si Si6 0.165417 0.636714 0.310978
O O1 0.201744 0.338890 0.041165
O O2 0.213855 0.270312 0.121385
O O3 0.000000 0.275788 0.045399
O O4 0.250000 0.250000 0.000000
O O5 0.843751 0.086647 0.472073
O O6 0.731013 0.069628 0.575339
O O7 0.000000 0.101917 0.567406
O O8 0.500000 0.928310 0.876890
O O9 0.757156 0.888671 0.867035
O O10 0.737415 0.978769 0.894732
O O11 0.500000 0.264124 0.304210
O O12 0.750000 0.266231 0.250000
O O13 0.675439 0.193864 0.315907
O O14 0.500000 0.516144 0.906527
O O15 0.661355 0.500000 0.000000
O O16 0.250000 0.621994 0.250000
O O17 0.000000 0.623929 0.307842
#
# Coordination Sequence:
#
# PCOD9476683 Si02
#       6
#    16  16  16  16  16  16
#     4  10  20  33  50  75 104 132 165 208 254 297
#     4   9  18  31  47  69  98 128 158 196 243 292
#     4  10  18  29  47  70  96 125 155 191 240 293
#     4   9  19  34  51  71  98 133 170 205 243 292
#     4   9  17  29  46  68  93 122 156 193 234 285
#     4  10  19  31  47  68  94 124 159 197 237 284
#
# _framework density 16.775903
#
# number of rings (size 3 to 8) (size 9 to 14) (size 15 to 20)
#    0.000    2.500    0.000    2.500    0.000    4.667 
#    0.000    0.000    0.000    1.000    0.000    4.667 
#    0.000    0.000    0.000    0.000    0.000    0.000 
#
# Total GULP energy -267452.049189 kJ/mol
# GULP energy per Si atom -5571.917691 kJ/mol
# Density = 1.673772 g / cm^3
# Si number density = 16.775903 Si / 1000 Ang^3
#
#
#
# Elastic Constant Matrix: (Units=GPa)
#
#
# Indices 1 2 3 4 5 6 
#
# 1 111.5021 55.6052 35.7091 0.0000 0.0000 0.0000
# 2 55.6052 72.9094 29.4998 0.0000 0.0000 0.0000
# 3 35.7091 29.4998 60.2361 0.0000 0.0000 0.0000
# 4 0.0000 0.0000 0.0000 13.4166 0.0000 0.0000
# 5 0.0000 0.0000 0.0000 0.0000 26.0024 0.0000
# 6 0.0000 0.0000 0.0000 0.0000 0.0000 23.9261
#
#
#
# Elastic Compliance Matrix: (Units=1/GPa)
#
#
# Indices 1 2 3 4 5 6 
#
# 1 0.015272 -0.009957 -0.004177 0.000000 0.000000 0.000000
# 2 -0.009957 0.023597 -0.005654 0.000000 0.000000 0.000000
# 3 -0.004177 -0.005654 0.021846 0.000000 0.000000 0.000000
# 4 0.000000 0.000000 0.000000 0.074535 0.000000 0.000000
# 5 0.000000 0.000000 0.000000 0.000000 0.038458 0.000000
# 6 0.000000 0.000000 0.000000 0.000000 0.000000 0.041795
#
#
# Mechanical properties :
#
#
# Convention : Reuss Voigt Hill
#
# Bulk Modulus (GPa) = 47.30434 54.03064 50.66749
# Shear Modulus (GPa) = 19.07489 20.92459 19.99974
#
# Velocity S-wave (km/s) = 3.37566 3.53555 3.45653
# Velocity P-wave (km/s) = 6.59185 6.99600 6.79693
#
# Compressibility (1/GPa) = 0.02113971
#
# Stress axis : x y z
#
# Youngs Moduli (GPa) = 65.48085 42.37834 45.77439
#
# Poissons Ratio (x) = 0.42196 0.19120
# Poissons Ratio (y) = 0.65199 0.25879
# Poissons Ratio (z) = 0.27351 0.23959
#
# Static dielectric constant tensor:
#      x y z
#    x 1.578680 0.000000 0.000000 
#    y 0.000000 1.550960 0.000000 
#    z 0.000000 0.000000 1.582310 
# 
# From -- ./inp_files/36937.got.cif
#   From: 2010.05.17/outbox.cif.g08.bks.cpg/sg64_19_cif.got.tgz:36937.got - 2010.06.03 16:29:19.
