data_PCOD9476961
_publ_section_title
;
Structure prediction by ZEFSAII (Michael W. Deem and Ramdas Pophale) SiO2 
 PCOD9476961
Probable space group: C M C A
;
_chemical_formula_sum "Si O2"
_cell_formula_units_Z 96
_cell_length_a 23.102948
_cell_length_b 7.848703
_cell_length_c 26.746614
_cell_angle_alpha 90.000000
_cell_angle_beta 90.000000
_cell_angle_gamma 90.000000
_cell_volume 4849.914765
_symmetry_space_group_name_H-M "C M C A"
_symmetry_group_IT_number 64
_symmetry_cell_setting 'orthorhombic'
loop_
_space_group_symop_operation_xyz
x,y,z
-x,1/2-y,1/2+z
x,-y,-z
-x,1/2+y,1/2-z
-x,-y,-z
x,1/2+y,1/2-z
-x,y,z
x,1/2-y,1/2+z
1/2+x,1/2+y,z
1/2-x,-y,1/2+z
1/2+x,1/2-y,-z
1/2-x,y,1/2-z
1/2-x,1/2-y,-z
1/2+x,y,1/2-z
1/2-x,1/2+y,z
1/2+x,-y,1/2+z
loop_
_atom_site_type_symbol
_atom_site_label
_atom_site_fract_x
_atom_site_fract_y
_atom_site_fract_z
Si Si1 0.432201 0.005255 0.332745
Si Si2 0.432115 0.298984 0.011618
Si Si3 0.931918 0.166703 0.598157
Si Si4 0.325773 0.901922 0.720874
Si Si5 0.723103 0.247338 0.179938
Si Si6 0.374538 0.314199 0.612519
O O1 0.500000 0.993250 0.322210
O O2 0.422598 0.151930 0.374623
O O3 0.393518 0.073263 0.286868
O O4 0.408165 0.824533 0.352736
O O5 0.500000 0.272387 0.026132
O O6 0.391415 0.240663 0.056522
O O7 0.425727 0.500000 0.000000
O O8 0.420962 0.196484 0.960654
O O9 0.000000 0.126384 0.604030
O O10 0.896262 0.007337 0.618882
O O11 0.306868 0.869382 0.777241
O O12 0.291942 0.762861 0.687211
O O13 0.297300 0.068848 0.697417
O O14 0.692741 0.202683 0.127995
#
# Coordination Sequence:
#
# PCOD9476961 Si02
#       6
#    16  16  16  16  16  16
#     4  10  21  37  56  85 120 151 186 241 296 345
#     4  10  18  33  55  81 120 161 198 240 287 350
#     4  10  20  32  56  83 115 159 192 235 286 342
#     4  10  21  39  60  85 113 150 198 236 290 356
#     4  10  22  37  64  86 111 153 195 250 286 347
#     4  11  21  34  57  88 117 147 198 242 288 340
#
# _framework density 19.794163000000001
#
# number of rings (size 3 to 8) (size 9 to 14) (size 15 to 20)
#    0.000    1.833    1.667    4.000    4.667    1.333 
#    0.000    5.000    0.000    1.000    4.333    0.000 
#    0.000    0.000    0.000    0.000    0.000    0.000 
#
# Total GULP energy -267755.225482 kJ/mol
# GULP energy per Si atom -5578.233864 kJ/mol
# Density = 1.974911 g / cm^3
# Si number density = 19.794163 Si / 1000 Ang^3
#
#
#
# Elastic Constant Matrix: (Units=GPa)
#
#
# Indices 1 2 3 4 5 6 
#
# 1 62.0220 10.6329 11.9949 0.0000 0.0000 0.0000
# 2 10.6329 71.4247 -2.9743 0.0000 0.0000 0.0000
# 3 11.9949 -2.9743 37.8977 0.0000 0.0000 0.0000
# 4 0.0000 0.0000 0.0000 -29.4682 0.0000 0.0000
# 5 0.0000 0.0000 0.0000 0.0000 32.2393 0.0000
# 6 0.0000 0.0000 0.0000 0.0000 0.0000 9.8111
#
#
#
# Elastic Compliance Matrix: (Units=1/GPa)
#
#
# Indices 1 2 3 4 5 6 
#
# 1 0.017748 -0.002885 -0.005844 0.000000 0.000000 0.000000
# 2 -0.002885 0.014516 0.002053 0.000000 0.000000 0.000000
# 3 -0.005844 0.002053 0.028398 0.000000 0.000000 0.000000
# 4 0.000000 0.000000 0.000000 -0.033935 0.000000 0.000000
# 5 0.000000 0.000000 0.000000 0.000000 0.031018 0.000000
# 6 0.000000 0.000000 0.000000 0.000000 0.000000 0.101925
#
#
# Mechanical properties :
#
#
# Convention : Reuss Voigt Hill
#
# Bulk Modulus (GPa) = 21.13816 23.40570 22.27193
# Shear Modulus (GPa) = 26.48409 12.62918 19.55663
#
# Velocity S-wave (km/s) = 3.66180 2.52866 3.14666
# Velocity P-wave (km/s) = 5.34608 4.51394 4.94754
#
# Compressibility (1/GPa) = 0.04730780
#
# Stress axis : x y z
#
# Youngs Moduli (GPa) = 56.34380 68.89050 35.21428
#
# Poissons Ratio (x) = 0.19878 0.20579
# Poissons Ratio (y) = 0.16258 -0.07228
# Poissons Ratio (z) = 0.32927 -0.14140
#
# Static dielectric constant tensor:
#      x y z
#    x 1.723920 0.000000 0.000000 
#    y 0.000000 1.773180 0.000000 
#    z 0.000000 0.000000 1.919850 
# 
# From -- ./inp_files/50956.got.cif
#   From: 2010.05.17/outbox.cif.g08.bks.cpg/sg64_26_cif.got.tgz:50956.got - 2010.06.03 16:29:19.
