data_PCOD9476089
_publ_section_title
;
Structure prediction by ZEFSAII (Michael W. Deem and Ramdas Pophale) SiO2 
 PCOD9476089
Probable space group: C M C M
;
_chemical_formula_sum "Si O2"
_cell_formula_units_Z 40
_cell_length_a 24.000000
_cell_length_b 21.000000
_cell_length_c 9.000000
_cell_angle_alpha 90.000000
_cell_angle_beta 90.000000
_cell_angle_gamma 90.000000
_cell_volume 4536.000000
_symmetry_space_group_name_H-M "C M C M"
_symmetry_group_IT_number 63
_symmetry_cell_setting 'orthorhombic'
loop_
_space_group_symop_operation_xyz
x,y,z
-x,-y,1/2+z
x,-y,-z
-x,y,1/2-z
-x,-y,-z
x,y,1/2-z
-x,y,z
x,-y,1/2+z
1/2+x,1/2+y,z
1/2-x,1/2-y,1/2+z
1/2+x,1/2-y,-z
1/2-x,1/2+y,1/2-z
1/2-x,1/2-y,-z
1/2+x,1/2+y,1/2-z
1/2-x,1/2+y,z
1/2+x,1/2-y,1/2+z
loop_
_atom_site_type_symbol
_atom_site_label
_atom_site_fract_x
_atom_site_fract_y
_atom_site_fract_z
Si Si1 0.115639 0.601350 0.424651
Si Si2 0.718331 0.690464 0.073320
Si Si3 0.500000 0.096572 0.920453
Si Si4 0.386054 0.255589 0.423564
Si Si5 0.770239 0.434607 0.427698
Si Si6 0.000000 0.751134 0.579059
O O1 0.120568 0.584948 0.250000
O O2 0.120965 0.678640 0.436055
O O3 0.165680 0.573184 0.520528
O O4 0.056175 0.580418 0.490655
O O5 0.727702 0.688548 0.250000
O O6 0.750000 0.750000 0.000000
O O7 0.655569 0.706479 0.028844
O O8 0.738946 0.625832 0.997693
O O9 0.500000 0.072960 0.750000
O O10 0.500000 0.173875 0.913688
O O11 0.377926 0.271425 0.250000
O O12 0.446790 0.270306 0.484578
O O13 0.749005 0.500000 0.500000
O O14 0.766149 0.435247 0.250000
O O15 0.000000 0.773565 0.750000
#
# Coordination Sequence:
#
# PCOD9476089 Si02
#       6
#    16  16   8  16  16   8
#     4  10  19  33  53  77 108 144 187 231 278 329
#     4  12  23  37  58  85 114 147 189 234 281 333
#     4   9  17  29  48  74 105 142 186 230 277 324
#     4  10  19  32  53  81 113 147 185 229 278 330
#     4  12  25  41  59  80 111 148 188 233 284 338
#     4   9  17  29  47  76 113 146 181 226 278 330
#
# _framework density 8.8183419999999995
#
# number of rings (size 3 to 8) (size 9 to 14) (size 15 to 20)
#    0.000    1.400    2.000    5.400    0.000    4.000 
#    0.000    0.500    0.000    0.000    0.000    0.700 
#    0.000    0.000    0.000    0.000    0.000    0.000 
#
# Total GULP energy -223487.610892 kJ/mol
# GULP energy per Si atom -5587.190272 kJ/mol
# Density = 0.879827 g / cm^3
# Si number density = 8.818342 Si / 1000 Ang^3
#
#
#
# Elastic Constant Matrix: (Units=GPa)
#
#
# Indices 1 2 3 4 5 6 
#
# 1 86.5862 40.7019 32.8311 0.0000 0.0000 0.0000
# 2 40.7019 97.5278 60.4011 0.0000 0.0000 0.0000
# 3 32.8311 60.4011 178.3278 0.0000 0.0000 0.0000
# 4 0.0000 0.0000 0.0000 23.7843 0.0000 0.0000
# 5 0.0000 0.0000 0.0000 0.0000 31.2303 0.0000
# 6 0.0000 0.0000 0.0000 0.0000 0.0000 -5.9690
#
#
#
# Elastic Compliance Matrix: (Units=1/GPa)
#
#
# Indices 1 2 3 4 5 6 
#
# 1 0.014454 -0.005548 -0.000782 0.000000 0.000000 0.000000
# 2 -0.005548 0.015105 -0.004095 0.000000 0.000000 0.000000
# 3 -0.000782 -0.004095 0.007139 0.000000 0.000000 0.000000
# 4 0.000000 0.000000 0.000000 0.042045 0.000000 0.000000
# 5 0.000000 0.000000 0.000000 0.000000 0.032020 0.000000
# 6 0.000000 0.000000 0.000000 0.000000 0.000000 -0.167532
#
#
# Mechanical properties :
#
#
# Convention : Reuss Voigt Hill
#
# Bulk Modulus (GPa) = 63.09934 70.03444 66.56689
# Shear Modulus (GPa) = -163.19115 25.04296 -69.07410
#
# Velocity S-wave (km/s) = -9.62966 3.77229 -6.26498
# Velocity P-wave (km/s) = 9.36938 7.66611 3.80894
#
# Compressibility (1/GPa) = 0.01584803
#
# Stress axis : x y z
#
# Youngs Moduli (GPa) = 69.18735 66.20451 140.08502
#
# Poissons Ratio (x) = 0.36728 0.10953
# Poissons Ratio (y) = 0.38383 0.57361
# Poissons Ratio (z) = 0.05410 0.27109
#
# Static dielectric constant tensor:
#      x y z
#    x 1.741800 0.000000 0.000000 
#    y 0.000000 1.614100 0.000000 
#    z 0.000000 0.000000 1.579700 
# 
# From -- ./inp_files/10086.got.cif
#   From: 2010.05.17/outbox.ucp.g08.bks.cvg/sg63_6_cif.got.tgz:10086.got - 2010.06.11 16:32:19.
