data_PCOD9476553
_publ_section_title
;
Structure prediction by ZEFSAII (Michael W. Deem and Ramdas Pophale) SiO2 
 PCOD9476553
Probable space group: C M C A
;
_chemical_formula_sum "Si O2"
_cell_formula_units_Z 72
_cell_length_a 25.570270
_cell_length_b 27.589008
_cell_length_c 4.943279
_cell_angle_alpha 90.000000
_cell_angle_beta 90.000000
_cell_angle_gamma 90.000000
_cell_volume 3487.277613
_symmetry_space_group_name_H-M "C M C A"
_symmetry_group_IT_number 64
_symmetry_cell_setting 'orthorhombic'
loop_
_space_group_symop_operation_xyz
x,y,z
-x,1/2-y,1/2+z
x,-y,-z
-x,1/2+y,1/2-z
-x,-y,-z
x,1/2+y,1/2-z
-x,y,z
x,1/2-y,1/2+z
1/2+x,1/2+y,z
1/2-x,-y,1/2+z
1/2+x,1/2-y,-z
1/2-x,y,1/2-z
1/2-x,1/2-y,-z
1/2+x,y,1/2-z
1/2-x,1/2+y,z
1/2+x,-y,1/2+z
loop_
_atom_site_type_symbol
_atom_site_label
_atom_site_fract_x
_atom_site_fract_y
_atom_site_fract_z
Si Si1 0.080554 0.131655 0.125387
Si Si2 0.557802 0.432808 0.364390
Si Si3 0.669603 0.541342 0.703508
Si Si4 0.308013 0.396088 0.789704
Si Si5 0.500000 0.285397 0.790874
O O1 0.066738 0.088099 0.334904
O O2 0.143344 0.136100 0.115380
O O3 0.049849 0.178958 0.215294
O O4 0.061337 0.113385 0.834749
O O5 0.500000 0.454199 0.337258
O O6 0.606951 0.465594 0.272886
O O7 0.691149 0.500000 0.500000
O O8 0.676744 0.587403 0.510920
O O9 0.691918 0.557987 0.994890
O O10 0.250000 0.376158 0.750000
O O11 0.500000 0.246086 0.558882
#
# Coordination Sequence:
#
# PCOD9476553 Si02
#       5
#    16  16  16  16   8
#     4  10  20  35  54  80 110 139 182 221 261 338
#     4  10  17  32  54  73 107 151 180 215 270 325
#     4  10  21  33  50  80 110 139 186 239 277 312
#     4  10  21  37  57  75 102 151 192 224 271 319
#     4  12  22  34  58  88 115 136 165 220 290 330
#
# _framework density 20.646477999999998
#
# number of rings (size 3 to 8) (size 9 to 14) (size 15 to 20)
#    0.000    1.778    2.222    2.667    0.000    2.222 
#    0.000    0.000    0.000    9.333    0.000    0.000 
#    0.000    0.000    0.000    0.000    0.000    0.000 
#
# Total GULP energy -200751.390991 kJ/mol
# GULP energy per Si atom -5576.427528 kJ/mol
# Density = 2.059949 g / cm^3
# Si number density = 20.646478 Si / 1000 Ang^3
#
#
#
# Elastic Constant Matrix: (Units=GPa)
#
#
# Indices 1 2 3 4 5 6 
#
# 1 180.7930 28.1748 9.2035 0.0000 0.0000 0.0000
# 2 28.1748 58.3824 16.9859 0.0000 0.0000 0.0000
# 3 9.2035 16.9859 124.6441 0.0000 0.0000 0.0000
# 4 0.0000 0.0000 0.0000 28.0360 0.0000 0.0000
# 5 0.0000 0.0000 0.0000 0.0000 18.3011 0.0000
# 6 0.0000 0.0000 0.0000 0.0000 0.0000 15.3137
#
#
#
# Elastic Compliance Matrix: (Units=1/GPa)
#
#
# Indices 1 2 3 4 5 6 
#
# 1 0.005981 -0.002872 -0.000050 0.000000 0.000000 0.000000
# 2 -0.002872 0.019215 -0.002406 0.000000 0.000000 0.000000
# 3 -0.000050 -0.002406 0.008354 0.000000 0.000000 0.000000
# 4 0.000000 0.000000 0.000000 0.035668 0.000000 0.000000
# 5 0.000000 0.000000 0.000000 0.000000 0.054641 0.000000
# 6 0.000000 0.000000 0.000000 0.000000 0.000000 0.065301
#
#
# Mechanical properties :
#
#
# Convention : Reuss Voigt Hill
#
# Bulk Modulus (GPa) = 43.68119 52.50532 48.09325
# Shear Modulus (GPa) = 24.10229 32.96053 28.53141
#
# Velocity S-wave (km/s) = 3.42040 3.99986 3.72143
# Velocity P-wave (km/s) = 6.06643 6.84235 6.46604
#
# Compressibility (1/GPa) = 0.02289315
#
# Stress axis : x y z
#
# Youngs Moduli (GPa) = 167.18761 52.04401 119.69615
#
# Poissons Ratio (x) = 0.14946 0.00602
# Poissons Ratio (y) = 0.48014 0.28804
# Poissons Ratio (z) = 0.00841 0.12524
#
# Static dielectric constant tensor:
#      x y z
#    x 1.842270 0.000000 0.000000 
#    y 0.000000 1.725630 0.000000 
#    z 0.000000 0.000000 1.729860 
# 
# From -- ./inp_files/2255.got.cif
#   From: 2010.05.17/outbox.cif.g08.bks.cpg/sg64_2_cif.got.tgz:2255.got - 2010.06.03 16:29:19.
