data_PCOD9476693
_publ_section_title
;
Structure prediction by ZEFSAII (Michael W. Deem and Ramdas Pophale) SiO2 
 PCOD9476693
Probable space group: C M C A
;
_chemical_formula_sum "Si O2"
_cell_formula_units_Z 104
_cell_length_a 24.915463
_cell_length_b 20.051500
_cell_length_c 8.727505
_cell_angle_alpha 90.000000
_cell_angle_beta 90.000000
_cell_angle_gamma 90.000000
_cell_volume 4360.195224
_symmetry_space_group_name_H-M "C M C A"
_symmetry_group_IT_number 64
_symmetry_cell_setting 'orthorhombic'
loop_
_space_group_symop_operation_xyz
x,y,z
-x,1/2-y,1/2+z
x,-y,-z
-x,1/2+y,1/2-z
-x,-y,-z
x,1/2+y,1/2-z
-x,y,z
x,1/2-y,1/2+z
1/2+x,1/2+y,z
1/2-x,-y,1/2+z
1/2+x,1/2-y,-z
1/2-x,y,1/2-z
1/2-x,1/2-y,-z
1/2+x,y,1/2-z
1/2-x,1/2+y,z
1/2+x,-y,1/2+z
loop_
_atom_site_type_symbol
_atom_site_label
_atom_site_fract_x
_atom_site_fract_y
_atom_site_fract_z
Si Si1 0.250000 0.341116 0.750000
Si Si2 0.723618 0.432182 0.038998
Si Si3 0.558632 0.722635 0.587767
Si Si4 0.142663 0.332989 0.880754
Si Si5 0.060151 0.621804 0.343496
Si Si6 0.832152 0.580261 0.825096
Si Si7 0.561375 0.907626 0.299426
O O1 0.234291 0.388089 0.608087
O O2 0.195010 0.304481 0.796242
O O3 0.779240 0.457980 0.118178
O O4 0.689831 0.391134 0.164197
O O5 0.692627 0.500000 0.000000
O O6 0.500000 0.707879 0.519361
O O7 0.601940 0.718822 0.454103
O O8 0.558322 0.797695 0.644942
O O9 0.566095 0.666028 0.719015
O O10 0.109516 0.384925 0.774120
O O11 0.161168 0.370346 0.034155
O O12 0.068928 0.595944 0.517042
O O13 0.000000 0.599195 0.294846
O O14 0.890690 0.552011 0.783136
O O15 0.500000 0.929984 0.271734
#
# Coordination Sequence:
#
# PCOD9476693 Si02
#       7
#     8  16  16  16  16  16  16
#     4  10  20  32  50  76 102 132 170 212 260 318
#     4  10  19  35  58  80  98 123 165 213 257 302
#     4   9  17  30  48  71 100 136 181 227 258 280
#     4  10  19  31  47  71 105 139 170 211 261 302
#     4  10  18  29  49  75 101 135 183 226 249 276
#     4   9  19  33  51  77 105 131 159 204 256 305
#     4   9  17  29  47  72 103 139 172 207 256 303
#
# _framework density 23.852143999999999
#
# number of rings (size 3 to 8) (size 9 to 14) (size 15 to 20)
#    0.000    2.462    0.000    3.231    0.000    3.077 
#    0.000    0.769    0.000   10.154    0.000    8.615 
#    0.000    0.000    0.000    0.000    0.000    0.000 
#
# Total GULP energy -289738.026773 kJ/mol
# GULP energy per Si atom -5571.885130 kJ/mol
# Density = 2.379786 g / cm^3
# Si number density = 23.852144 Si / 1000 Ang^3
#
#
#
# Elastic Constant Matrix: (Units=GPa)
#
#
# Indices 1 2 3 4 5 6 
#
# 1 143.0338 9.8496 71.1077 0.0000 0.0000 0.0000
# 2 9.8496 32.9125 7.0212 0.0000 0.0000 0.0000
# 3 71.1077 7.0212 120.2910 0.0000 0.0000 0.0000
# 4 0.0000 0.0000 0.0000 14.9087 0.0000 0.0000
# 5 0.0000 0.0000 0.0000 0.0000 41.3590 0.0000
# 6 0.0000 0.0000 0.0000 0.0000 0.0000 15.4899
#
#
#
# Elastic Compliance Matrix: (Units=1/GPa)
#
#
# Indices 1 2 3 4 5 6 
#
# 1 0.010000 -0.001753 -0.005809 0.000000 0.000000 0.000000
# 2 -0.001753 0.031074 -0.000777 0.000000 0.000000 0.000000
# 3 -0.005809 -0.000777 0.011792 0.000000 0.000000 0.000000
# 4 0.000000 0.000000 0.000000 0.067075 0.000000 0.000000
# 5 0.000000 0.000000 0.000000 0.000000 0.024179 0.000000
# 6 0.000000 0.000000 0.000000 0.000000 0.000000 0.064558
#
#
# Mechanical properties :
#
#
# Convention : Reuss Voigt Hill
#
# Bulk Modulus (GPa) = 27.63404 52.46605 40.05004
# Shear Modulus (GPa) = 21.05974 28.23544 24.64759
#
# Velocity S-wave (km/s) = 2.97463 3.44433 3.21806
# Velocity P-wave (km/s) = 4.83825 6.15321 5.53492
#
# Compressibility (1/GPa) = 0.03618726
#
# Stress axis : x y z
#
# Youngs Moduli (GPa) = 100.00055 32.18109 84.80055
#
# Poissons Ratio (x) = 0.05643 0.49260
# Poissons Ratio (y) = 0.17534 0.06591
# Poissons Ratio (z) = 0.58090 0.02501
#
# Static dielectric constant tensor:
#      x y z
#    x 2.055550 0.000000 0.000000 
#    y 0.000000 1.860670 0.000000 
#    z 0.000000 0.000000 1.929800 
# 
# From -- ./inp_files/9681.got.cif
#   From: 2010.05.17/outbox.cif.g08.bks.cpg/sg64_5_cif.got.tgz:9681.got - 2010.06.03 16:29:19.
