data_PCOD9476862
_publ_section_title
;
Structure prediction by ZEFSAII (Michael W. Deem and Ramdas Pophale) SiO2 
 PCOD9476862
Probable space group: C M C A
;
_chemical_formula_sum "Si O2"
_cell_formula_units_Z 112
_cell_length_a 29.784900
_cell_length_b 15.654298
_cell_length_c 12.870985
_cell_angle_alpha 90.000000
_cell_angle_beta 90.000000
_cell_angle_gamma 90.000000
_cell_volume 6001.247353
_symmetry_space_group_name_H-M "C M C A"
_symmetry_group_IT_number 64
_symmetry_cell_setting 'orthorhombic'
loop_
_space_group_symop_operation_xyz
x,y,z
-x,1/2-y,1/2+z
x,-y,-z
-x,1/2+y,1/2-z
-x,-y,-z
x,1/2+y,1/2-z
-x,y,z
x,1/2-y,1/2+z
1/2+x,1/2+y,z
1/2-x,-y,1/2+z
1/2+x,1/2-y,-z
1/2-x,y,1/2-z
1/2-x,1/2-y,-z
1/2+x,y,1/2-z
1/2-x,1/2+y,z
1/2+x,-y,1/2+z
loop_
_atom_site_type_symbol
_atom_site_label
_atom_site_fract_x
_atom_site_fract_y
_atom_site_fract_z
Si Si1 0.853224 0.820007 0.578762
Si Si2 0.050737 0.493793 0.374978
Si Si3 0.661219 0.777985 0.157273
Si Si4 0.689521 0.047702 0.602426
Si Si5 0.108817 0.155741 0.851894
Si Si6 0.635791 0.588141 0.221456
Si Si7 0.737434 0.277581 0.117715
O O1 0.846070 0.821066 0.455593
O O2 0.891732 0.749345 0.599869
O O3 0.863501 0.898972 0.653907
O O4 0.807535 0.779545 0.628252
O O5 0.054050 0.500000 0.500000
O O6 0.063395 0.396348 0.345434
O O7 0.088983 0.550176 0.319916
O O8 0.000000 0.516293 0.345045
O O9 0.634534 0.833627 0.242116
O O10 0.643129 0.680955 0.168156
O O11 0.714918 0.769734 0.175050
O O12 0.642855 0.098040 0.579226
O O13 0.723278 0.123557 0.627815
O O14 0.705511 0.000000 0.500000
O O15 0.675276 0.976696 0.686115
O O16 0.750000 0.250000 0.000000
#
# Coordination Sequence:
#
# PCOD9476862 Si02
#       7
#    16  16  16  16  16  16  16
#     4   9  18  32  52  77 109 145 180 216 260 315
#     4  10  20  37  60  82 102 126 169 229 281 330
#     4  10  19  35  52  74 111 146 180 220 264 318
#     4  10  18  32  50  72 102 135 181 229 262 303
#     4   9  18  32  54  77 100 137 171 213 276 327
#     4  10  19  33  57  79 100 135 176 224 274 321
#     4   9  18  33  51  74 106 148 188 223 262 307
#
# _framework density 18.662787000000002
#
# number of rings (size 3 to 8) (size 9 to 14) (size 15 to 20)
#    0.000    2.429    0.000    5.143    0.000    5.143 
#    0.000   20.000    0.000    3.429    0.000    0.000 
#    0.000    0.000    0.000    0.000    0.000    0.000 
#
# Total GULP energy -311921.304239 kJ/mol
# GULP energy per Si atom -5570.023290 kJ/mol
# Density = 1.862031 g / cm^3
# Si number density = 18.662787 Si / 1000 Ang^3
#
#
#
# Elastic Constant Matrix: (Units=GPa)
#
#
# Indices 1 2 3 4 5 6 
#
# 1 99.7713 34.9416 32.6795 0.0000 0.0000 0.0000
# 2 34.9416 60.8795 9.9413 0.0000 0.0000 0.0000
# 3 32.6795 9.9413 81.7910 0.0000 0.0000 0.0000
# 4 0.0000 0.0000 0.0000 34.7447 0.0000 0.0000
# 5 0.0000 0.0000 0.0000 0.0000 14.6361 0.0000
# 6 0.0000 0.0000 0.0000 0.0000 0.0000 21.7776
#
#
#
# Elastic Compliance Matrix: (Units=1/GPa)
#
#
# Indices 1 2 3 4 5 6 
#
# 1 0.014156 -0.007347 -0.004763 0.000000 0.000000 0.000000
# 2 -0.007347 0.020572 0.000435 0.000000 0.000000 0.000000
# 3 -0.004763 0.000435 0.014076 0.000000 0.000000 0.000000
# 4 0.000000 0.000000 0.000000 0.028781 0.000000 0.000000
# 5 0.000000 0.000000 0.000000 0.000000 0.068324 0.000000
# 6 0.000000 0.000000 0.000000 0.000000 0.000000 0.045919
#
#
# Mechanical properties :
#
#
# Convention : Reuss Voigt Hill
#
# Bulk Modulus (GPa) = 39.28618 44.17406 41.73012
# Shear Modulus (GPa) = 22.35503 25.22364 23.78934
#
# Velocity S-wave (km/s) = 3.46474 3.68033 3.57416
# Velocity P-wave (km/s) = 6.09115 6.46380 6.28024
#
# Compressibility (1/GPa) = 0.02545424
#
# Stress axis : x y z
#
# Youngs Moduli (GPa) = 70.64092 48.61061 71.04055
#
# Poissons Ratio (x) = 0.35714 0.33837
# Poissons Ratio (y) = 0.51900 -0.03091
# Poissons Ratio (z) = 0.33647 -0.02115
#
# Static dielectric constant tensor:
#      x y z
#    x 1.650150 0.000000 0.000000 
#    y 0.000000 1.750330 0.000000 
#    z 0.000000 0.000000 1.622830 
# 
# From -- ./inp_files/28480.got.cif
#   From: 2010.05.17/outbox.cif.g08.bks.cpg/sg64_15_cif.got.tgz:28480.got - 2010.06.03 16:29:19.
