data_PCOD9476259
_publ_section_title
;
Structure prediction by ZEFSAII (Michael W. Deem and Ramdas Pophale) SiO2 
 PCOD9476259
Probable space group: C M C M
;
_chemical_formula_sum "Si O2"
_cell_formula_units_Z 40
_cell_length_a 9.000000
_cell_length_b 27.000000
_cell_length_c 18.000000
_cell_angle_alpha 90.000000
_cell_angle_beta 90.000000
_cell_angle_gamma 90.000000
_cell_volume 4374.000000
_symmetry_space_group_name_H-M "C M C M"
_symmetry_group_IT_number 63
_symmetry_cell_setting 'orthorhombic'
loop_
_space_group_symop_operation_xyz
x,y,z
-x,-y,1/2+z
x,-y,-z
-x,y,1/2-z
-x,-y,-z
x,y,1/2-z
-x,y,z
x,-y,1/2+z
1/2+x,1/2+y,z
1/2-x,1/2-y,1/2+z
1/2+x,1/2-y,-z
1/2-x,1/2+y,1/2-z
1/2-x,1/2-y,-z
1/2+x,1/2+y,1/2-z
1/2-x,1/2+y,z
1/2+x,1/2-y,1/2+z
loop_
_atom_site_type_symbol
_atom_site_label
_atom_site_fract_x
_atom_site_fract_y
_atom_site_fract_z
Si Si1 0.821228 0.848111 0.164021
Si Si2 0.679151 0.245694 0.081260
Si Si3 0.677485 0.057548 0.585108
Si Si4 0.678011 0.945771 0.907901
Si Si5 0.324087 0.651143 0.161500
O O1 0.775191 0.847147 0.250000
O O2 0.780430 0.796091 0.125358
O O3 0.754028 0.896193 0.124282
O O4 0.000000 0.851662 0.160765
O O5 0.500000 0.242615 0.076991
O O6 0.741752 0.196737 0.121389
O O7 0.750000 0.250000 0.000000
O O8 0.500000 0.060770 0.596080
O O9 0.704003 0.059808 0.496424
O O10 0.723918 0.002311 0.611800
O O11 0.500000 0.941875 0.895708
O O12 0.759962 0.901478 0.866109
O O13 0.303295 0.655316 0.250000
O O14 0.500000 0.653631 0.145017
#
# Coordination Sequence:
#
# PCOD9476259 Si02
#       5
#    16  16  16  16  16
#     4  10  22  38  55  79 112 147 181 220 272 332
#     4  11  23  40  62  85 111 146 188 232 281 338
#     4   9  19  36  58  84 111 143 186 232 276 327
#     4   9  19  37  59  82 111 147 187 230 278 333
#     4  11  24  39  56  83 117 150 188 234 281 331
#
# _framework density 9.1449470000000002
#
# number of rings (size 3 to 8) (size 9 to 14) (size 15 to 20)
#    0.000    2.000    0.000    4.200    0.000   10.000 
#    0.000    6.000    0.000    0.000    0.000    0.000 
#    0.000    0.000    0.000    0.000    0.000    0.000 
#
# Total GULP energy -223420.935608 kJ/mol
# GULP energy per Si atom -5585.523390 kJ/mol
# Density = 0.912413 g / cm^3
# Si number density = 9.144947 Si / 1000 Ang^3
#
#
#
# Elastic Constant Matrix: (Units=GPa)
#
#
# Indices 1 2 3 4 5 6 
#
# 1 63.0115 67.9494 52.7759 0.0000 0.0000 0.0000
# 2 67.9494 182.9534 74.2454 0.0000 0.0000 0.0000
# 3 52.7759 74.2454 83.3548 0.0000 0.0000 0.0000
# 4 0.0000 0.0000 0.0000 11.8805 0.0000 0.0000
# 5 0.0000 0.0000 0.0000 0.0000 30.6697 0.0000
# 6 0.0000 0.0000 0.0000 0.0000 0.0000 39.9187
#
#
#
# Elastic Compliance Matrix: (Units=1/GPa)
#
#
# Indices 1 2 3 4 5 6 
#
# 1 0.038696 -0.006936 -0.018322 0.000000 0.000000 0.000000
# 2 -0.006936 0.009803 -0.004340 0.000000 0.000000 0.000000
# 3 -0.018322 -0.004340 0.027463 0.000000 0.000000 0.000000
# 4 0.000000 0.000000 0.000000 0.084172 0.000000 0.000000
# 5 0.000000 0.000000 0.000000 0.000000 0.032605 0.000000
# 6 0.000000 0.000000 0.000000 0.000000 0.000000 0.025051
#
#
# Mechanical properties :
#
#
# Convention : Reuss Voigt Hill
#
# Bulk Modulus (GPa) = 59.64631 79.91790 69.78211
# Shear Modulus (GPa) = 17.69437 25.45037 21.57237
#
# Velocity S-wave (km/s) = 3.11374 3.73433 3.43807
# Velocity P-wave (km/s) = 6.75349 7.89833 7.34824
#
# Compressibility (1/GPa) = 0.01676550
#
# Stress axis : x y z
#
# Youngs Moduli (GPa) = 25.84271 102.00487 36.41239
#
# Poissons Ratio (x) = 0.70755 0.66713
# Poissons Ratio (y) = 0.17926 0.15804
# Poissons Ratio (z) = 0.47348 0.44273
#
# Static dielectric constant tensor:
#      x y z
#    x 1.614820 0.000000 0.000000 
#    y 0.000000 1.603570 0.000000 
#    z 0.000000 0.000000 1.616110 
# 
# From -- ./inp_files/40450.got.cif
#   From: 2010.05.17/outbox.ucp.g08.bks.cvg/sg63_21_cif.got.tgz:40450.got - 2010.06.11 16:32:19.
