data_PCOD9476795
_publ_section_title
;
Structure prediction by ZEFSAII (Michael W. Deem and Ramdas Pophale) SiO2 
 PCOD9476795
Probable space group: C M C A
;
_chemical_formula_sum "Si O2"
_cell_formula_units_Z 96
_cell_length_a 7.628016
_cell_length_b 24.817502
_cell_length_c 26.690793
_cell_angle_alpha 90.000000
_cell_angle_beta 90.000000
_cell_angle_gamma 90.000000
_cell_volume 5052.788711
_symmetry_space_group_name_H-M "C M C A"
_symmetry_group_IT_number 64
_symmetry_cell_setting 'orthorhombic'
loop_
_space_group_symop_operation_xyz
x,y,z
-x,1/2-y,1/2+z
x,-y,-z
-x,1/2+y,1/2-z
-x,-y,-z
x,1/2+y,1/2-z
-x,y,z
x,1/2-y,1/2+z
1/2+x,1/2+y,z
1/2-x,-y,1/2+z
1/2+x,1/2-y,-z
1/2-x,y,1/2-z
1/2-x,1/2-y,-z
1/2+x,y,1/2-z
1/2-x,1/2+y,z
1/2+x,-y,1/2+z
loop_
_atom_site_type_symbol
_atom_site_label
_atom_site_fract_x
_atom_site_fract_y
_atom_site_fract_z
Si Si1 0.704472 0.990983 0.555780
Si Si2 0.794527 0.825231 0.031719
Si Si3 0.205680 0.914028 0.119836
Si Si4 0.284809 0.261058 0.610260
Si Si5 0.789267 0.324775 0.308200
Si Si6 0.300635 0.129317 0.073548
O O1 0.500000 0.007341 0.551551
O O2 0.711793 0.928540 0.570112
O O3 0.781477 0.000000 0.500000
O O4 0.781458 0.030446 0.598162
O O5 0.784495 0.872310 0.073357
O O6 0.730160 0.771948 0.060411
O O7 0.000000 0.818510 0.019404
O O8 0.700881 0.844684 0.981967
O O9 0.279807 0.880092 0.166488
O O10 0.000000 0.923619 0.131871
O O11 0.500000 0.261626 0.609203
O O12 0.228585 0.225695 0.657880
O O13 0.225234 0.322704 0.607710
O O14 0.750000 0.319975 0.250000
O O15 0.000000 0.325587 0.314146
O O16 0.500000 0.118969 0.089079
#
# Coordination Sequence:
#
# PCOD9476795 Si02
#       6
#    16  16  16  16  16  16
#     4  10  18  31  49  66  89 130 173 192 212 274
#     4   9  15  29  48  64  87 128 167 189 216 273
#     4   8  15  29  49  69  90 120 159 195 228 270
#     4   8  17  31  47  66  94 127 156 186 235 290
#     4   9  17  33  55  74  91 115 150 197 246 286
#     4  11  20  28  41  68 101 129 154 190 236 272
#
# _framework density 18.999407999999999
#
# number of rings (size 3 to 8) (size 9 to 14) (size 15 to 20)
#    0.000    2.833    1.667    3.000    0.000    0.333 
#    0.000    6.667    0.000    1.000    0.000    7.000 
#    0.000    0.000    0.000    0.000    0.000    0.000 
#
# Total GULP energy -267509.237203 kJ/mol
# GULP energy per Si atom -5573.109108 kJ/mol
# Density = 1.895616 g / cm^3
# Si number density = 18.999408 Si / 1000 Ang^3
#
#
#
# Elastic Constant Matrix: (Units=GPa)
#
#
# Indices 1 2 3 4 5 6 
#
# 1 35.5886 0.8043 0.0573 0.0000 0.0000 0.0000
# 2 0.8043 136.3748 50.4963 0.0000 0.0000 0.0000
# 3 0.0573 50.4963 95.8439 0.0000 0.0000 0.0000
# 4 0.0000 0.0000 0.0000 13.9222 0.0000 0.0000
# 5 0.0000 0.0000 0.0000 0.0000 15.8740 0.0000
# 6 0.0000 0.0000 0.0000 0.0000 0.0000 -2.6257
#
#
#
# Elastic Compliance Matrix: (Units=1/GPa)
#
#
# Indices 1 2 3 4 5 6 
#
# 1 0.028103 -0.000198 0.000088 0.000000 0.000000 0.000000
# 2 -0.000198 0.009111 -0.004800 0.000000 0.000000 0.000000
# 3 0.000088 -0.004800 0.012963 0.000000 0.000000 0.000000
# 4 0.000000 0.000000 0.000000 0.071828 0.000000 0.000000
# 5 0.000000 0.000000 0.000000 0.000000 0.062996 0.000000
# 6 0.000000 0.000000 0.000000 0.000000 0.000000 -0.380849
#
#
# Mechanical properties :
#
#
# Convention : Reuss Voigt Hill
#
# Bulk Modulus (GPa) = 24.77976 41.16925 32.97450
# Shear Modulus (GPa) = -28.97302 19.86406 -4.55448
#
# Velocity S-wave (km/s) = -3.90929 3.23694 -1.54996
# Velocity P-wave (km/s) = 2.70296 5.97379 3.76697
#
# Compressibility (1/GPa) = 0.04035551
#
# Stress axis : x y z
#
# Youngs Moduli (GPa) = 35.58310 109.75346 77.14468
#
# Poissons Ratio (x) = 0.02175 -0.00676
# Poissons Ratio (y) = 0.00705 0.37032
# Poissons Ratio (z) = -0.00312 0.52685
#
# Static dielectric constant tensor:
#      x y z
#    x 1.801440 0.000000 0.000000 
#    y 0.000000 1.694230 0.000000 
#    z 0.000000 0.000000 1.646990 
# 
# From -- ./inp_files/43167.got.cif
#   From: 2010.05.17/outbox.cif.g08.bks.cpg/sg64_22_cif.got.tgz:43167.got - 2010.06.03 16:29:19.
