data_PCOD9476689
_publ_section_title
;
Structure prediction by ZEFSAII (Michael W. Deem and Ramdas Pophale) SiO2 
 PCOD9476689
Probable space group: C M C A
;
_chemical_formula_sum "Si O2"
_cell_formula_units_Z 96
_cell_length_a 21.083506
_cell_length_b 10.627987
_cell_length_c 23.553889
_cell_angle_alpha 90.000000
_cell_angle_beta 90.000000
_cell_angle_gamma 90.000000
_cell_volume 5277.843040
_symmetry_space_group_name_H-M "C M C A"
_symmetry_group_IT_number 64
_symmetry_cell_setting 'orthorhombic'
loop_
_space_group_symop_operation_xyz
x,y,z
-x,1/2-y,1/2+z
x,-y,-z
-x,1/2+y,1/2-z
-x,-y,-z
x,1/2+y,1/2-z
-x,y,z
x,1/2-y,1/2+z
1/2+x,1/2+y,z
1/2-x,-y,1/2+z
1/2+x,1/2-y,-z
1/2-x,y,1/2-z
1/2-x,1/2-y,-z
1/2+x,y,1/2-z
1/2-x,1/2+y,z
1/2+x,-y,1/2+z
loop_
_atom_site_type_symbol
_atom_site_label
_atom_site_fract_x
_atom_site_fract_y
_atom_site_fract_z
Si Si1 0.375919 0.266465 0.829192
Si Si2 0.187439 0.962517 0.563102
Si Si3 0.069445 0.012663 0.225221
Si Si4 0.928193 0.991077 0.647634
Si Si5 0.254897 0.224105 0.895893
Si Si6 0.811399 0.165561 0.778787
O O1 0.424253 0.377977 0.820473
O O2 0.413023 0.137037 0.838508
O O3 0.323981 0.276992 0.878218
O O4 0.334284 0.259485 0.770935
O O5 0.127093 0.951488 0.604981
O O6 0.231622 0.080275 0.584179
O O7 0.166893 0.000000 0.500000
O O8 0.223051 0.828239 0.564082
O O9 0.075456 0.067916 0.289285
O O10 0.128518 0.923206 0.213752
O O11 0.000000 0.950866 0.222786
O O12 0.000000 0.974697 0.626196
O O13 0.212371 0.217950 0.838573
O O14 0.750000 0.098201 0.750000
#
# Coordination Sequence:
#
# PCOD9476689 Si02
#       6
#    16  16  16  16  16  16
#     4   9  17  29  49  74 101 134 164 197 245 304
#     4  11  22  36  54  74  97 129 171 217 257 291
#     4  10  18  29  48  75 107 137 164 199 248 305
#     4   9  19  33  48  70 100 133 169 205 243 293
#     4  10  20  35  54  76 102 130 165 209 254 300
#     4   9  18  30  48  73 101 132 165 201 246 304
#
# _framework density 18.189247999999999
#
# number of rings (size 3 to 8) (size 9 to 14) (size 15 to 20)
#    0.000    2.333    0.000    4.000    0.000    3.000 
#    0.000    0.833    0.000    0.000    0.000    0.000 
#    0.000   14.000    0.000    0.000    0.000    0.000 
#
# Total GULP energy -267334.940477 kJ/mol
# GULP energy per Si atom -5569.477927 kJ/mol
# Density = 1.814785 g / cm^3
# Si number density = 18.189248 Si / 1000 Ang^3
#
#
#
# Elastic Constant Matrix: (Units=GPa)
#
#
# Indices 1 2 3 4 5 6 
#
# 1 111.1577 32.1066 7.7498 0.0000 0.0000 0.0000
# 2 32.1066 37.1255 4.3320 0.0000 0.0000 0.0000
# 3 7.7498 4.3320 21.5633 0.0000 0.0000 0.0000
# 4 0.0000 0.0000 0.0000 16.8491 0.0000 0.0000
# 5 0.0000 0.0000 0.0000 0.0000 9.8667 0.0000
# 6 0.0000 0.0000 0.0000 0.0000 0.0000 7.3197
#
#
#
# Elastic Compliance Matrix: (Units=1/GPa)
#
#
# Indices 1 2 3 4 5 6 
#
# 1 0.012102 -0.010198 -0.002301 0.000000 0.000000 0.000000
# 2 -0.010198 0.036175 -0.003603 0.000000 0.000000 0.000000
# 3 -0.002301 -0.003603 0.047926 0.000000 0.000000 0.000000
# 4 0.000000 0.000000 0.000000 0.059350 0.000000 0.000000
# 5 0.000000 0.000000 0.000000 0.000000 0.101351 0.000000
# 6 0.000000 0.000000 0.000000 0.000000 0.000000 0.136618
#
#
# Mechanical properties :
#
#
# Convention : Reuss Voigt Hill
#
# Bulk Modulus (GPa) = 15.62475 28.69149 22.15812
# Shear Modulus (GPa) = 11.18424 15.18430 13.18427
#
# Velocity S-wave (km/s) = 2.48237 2.89242 2.69520
# Velocity P-wave (km/s) = 4.10183 5.19258 4.67910
#
# Compressibility (1/GPa) = 0.06400104
#
# Stress axis : x y z
#
# Youngs Moduli (GPa) = 82.63042 27.64344 20.86563
#
# Poissons Ratio (x) = 0.28190 0.04801
# Poissons Ratio (y) = 0.84263 0.07517
# Poissons Ratio (z) = 0.19012 0.09959
#
# Static dielectric constant tensor:
#      x y z
#    x 1.648690 0.000000 0.000000 
#    y 0.000000 1.659830 0.000000 
#    z 0.000000 0.000000 1.630690 
# 
# From -- ./inp_files/40848.got.cif
#   From: 2010.05.17/outbox.cif.g08.bks.cpg/sg64_21_cif.got.tgz:40848.got - 2010.06.03 16:29:19.
