data_PCOD9476482
_publ_section_title
;
Structure prediction by ZEFSAII (Michael W. Deem and Ramdas Pophale) SiO2 
 PCOD9476482
Probable space group: C M C A
;
_chemical_formula_sum "Si O2"
_cell_formula_units_Z 128
_cell_length_a 25.890933
_cell_length_b 12.078586
_cell_length_c 24.291198
_cell_angle_alpha 90.000000
_cell_angle_beta 90.000000
_cell_angle_gamma 90.000000
_cell_volume 7596.485806
_symmetry_space_group_name_H-M "C M C A"
_symmetry_group_IT_number 64
_symmetry_cell_setting 'orthorhombic'
loop_
_space_group_symop_operation_xyz
x,y,z
-x,1/2-y,1/2+z
x,-y,-z
-x,1/2+y,1/2-z
-x,-y,-z
x,1/2+y,1/2-z
-x,y,z
x,1/2-y,1/2+z
1/2+x,1/2+y,z
1/2-x,-y,1/2+z
1/2+x,1/2-y,-z
1/2-x,y,1/2-z
1/2-x,1/2-y,-z
1/2+x,y,1/2-z
1/2-x,1/2+y,z
1/2+x,-y,1/2+z
loop_
_atom_site_type_symbol
_atom_site_label
_atom_site_fract_x
_atom_site_fract_y
_atom_site_fract_z
Si Si1 0.438692 0.510240 0.784852
Si Si2 0.742833 0.003564 0.312860
Si Si3 0.439555 0.955138 0.841022
Si Si4 0.798213 0.819287 0.614467
Si Si5 0.204117 0.682331 0.887736
Si Si6 0.144789 0.160979 0.194526
Si Si7 0.619250 0.734121 0.811845
Si Si8 0.864601 0.494794 0.061142
O O1 0.500000 0.508975 0.795125
O O2 0.430523 0.510378 0.718561
O O3 0.410326 0.401106 0.808686
O O4 0.410956 0.620194 0.806101
O O5 0.750000 0.969828 0.250000
O O6 0.779896 0.102282 0.334671
O O7 0.686420 0.060908 0.312241
O O8 0.761851 0.902040 0.350294
O O9 0.500000 0.958354 0.853110
O O10 0.419597 0.830240 0.831845
O O11 0.406386 0.007290 0.889998
O O12 0.746640 0.767267 0.589586
O O13 0.836141 0.730814 0.642366
O O14 0.829876 0.896892 0.573525
O O15 0.163340 0.749477 0.850112
O O16 0.173002 0.609728 0.931090
O O17 0.143164 0.223627 0.253629
O O18 0.886624 0.500000 0.000000
#
# Coordination Sequence:
#
# PCOD9476482 Si02
#       8
#    16  16  16  16  16  16  16  16
#     4  10  20  32  49  73 104 139 164 190 241 303
#     4  10  18  28  46  73 104 134 165 192 233 290
#     4   9  19  34  49  71  98 123 165 208 242 293
#     4   9  19  32  46  75 102 129 166 198 238 291
#     4  10  21  31  49  73 101 134 164 200 243 290
#     4  10  20  30  46  70 103 136 166 198 230 292
#     4  10  17  29  49  72 102 136 159 191 238 290
#     4  10  21  37  53  70  94 126 169 216 252 283
#
# _framework density 16.849896999999999
#
# number of rings (size 3 to 8) (size 9 to 14) (size 15 to 20)
#    0.000    2.250    1.250    1.875    5.250    1.250 
#    0.000    0.625    0.000    0.000    0.000    0.000 
#    0.000    5.000    0.000    0.000    0.000    0.000 
#
# Total GULP energy -356573.038468 kJ/mol
# GULP energy per Si atom -5571.453726 kJ/mol
# Density = 1.681155 g / cm^3
# Si number density = 16.849897 Si / 1000 Ang^3
#
#
#
# Elastic Constant Matrix: (Units=GPa)
#
#
# Indices 1 2 3 4 5 6 
#
# 1 81.6398 33.9089 27.2393 0.0000 0.0000 0.0000
# 2 33.9089 54.5605 10.6582 0.0000 0.0000 0.0000
# 3 27.2393 10.6582 30.9919 0.0000 0.0000 0.0000
# 4 0.0000 0.0000 0.0000 4.8846 0.0000 0.0000
# 5 0.0000 0.0000 0.0000 0.0000 12.1214 0.0000
# 6 0.0000 0.0000 0.0000 0.0000 0.0000 22.3228
#
#
#
# Elastic Compliance Matrix: (Units=1/GPa)
#
#
# Indices 1 2 3 4 5 6 
#
# 1 0.021803 -0.010513 -0.015547 0.000000 0.000000 0.000000
# 2 -0.010513 0.024718 0.000740 0.000000 0.000000 0.000000
# 3 -0.015547 0.000740 0.045677 0.000000 0.000000 0.000000
# 4 0.000000 0.000000 0.000000 0.204725 0.000000 0.000000
# 5 0.000000 0.000000 0.000000 0.000000 0.082499 0.000000
# 6 0.000000 0.000000 0.000000 0.000000 0.000000 0.044797
#
#
# Mechanical properties :
#
#
# Convention : Reuss Voigt Hill
#
# Bulk Modulus (GPa) = 24.06408 34.53390 29.29899
# Shear Modulus (GPa) = 10.23098 14.22482 12.22790
#
# Velocity S-wave (km/s) = 2.46678 2.90868 2.69680
# Velocity P-wave (km/s) = 4.73559 5.64093 5.20797
#
# Compressibility (1/GPa) = 0.04155572
#
# Stress axis : x y z
#
# Youngs Moduli (GPa) = 45.86528 40.45696 21.89291
#
# Poissons Ratio (x) = 0.42533 0.34038
# Poissons Ratio (y) = 0.48219 -0.01620
# Poissons Ratio (z) = 0.71309 -0.02993
#
# Static dielectric constant tensor:
#      x y z
#    x 1.589710 0.000000 0.000000 
#    y 0.000000 1.591570 0.000000 
#    z 0.000000 0.000000 1.546940 
# 
# From -- ./inp_files/46759.got.cif
#   From: 2010.05.17/outbox.cif.g08.bks.cpg/sg64_24_cif.got.tgz:46759.got - 2010.06.03 16:29:19.
