data_PCOD9476044
_publ_section_title
;
Structure prediction by ZEFSAII (Michael W. Deem and Ramdas Pophale) SiO2 
 PCOD9476044
Probable space group: C M C M
;
_chemical_formula_sum "Si O2"
_cell_formula_units_Z 48
_cell_length_a 9.000000
_cell_length_b 24.000000
_cell_length_c 27.000000
_cell_angle_alpha 90.000000
_cell_angle_beta 90.000000
_cell_angle_gamma 90.000000
_cell_volume 5832.000000
_symmetry_space_group_name_H-M "C M C M"
_symmetry_group_IT_number 63
_symmetry_cell_setting 'orthorhombic'
loop_
_space_group_symop_operation_xyz
x,y,z
-x,-y,1/2+z
x,-y,-z
-x,y,1/2-z
-x,-y,-z
x,y,1/2-z
-x,y,z
x,-y,1/2+z
1/2+x,1/2+y,z
1/2-x,1/2-y,1/2+z
1/2+x,1/2-y,-z
1/2-x,1/2+y,1/2-z
1/2-x,1/2-y,-z
1/2+x,1/2+y,1/2-z
1/2-x,1/2+y,z
1/2+x,1/2-y,1/2+z
loop_
_atom_site_type_symbol
_atom_site_label
_atom_site_fract_x
_atom_site_fract_y
_atom_site_fract_z
Si Si1 0.323538 0.668082 0.975365
Si Si2 0.675252 0.644961 0.150453
Si Si3 0.319480 0.459899 0.455121
Si Si4 0.668080 0.854540 0.750000
Si Si5 0.170360 0.510190 0.250000
Si Si6 0.820456 0.015729 0.147064
Si Si7 0.672261 0.218666 0.070753
O O1 0.500000 0.668630 0.989988
O O2 0.282126 0.604855 0.962886
O O3 0.308905 0.714622 0.932664
O O4 0.220867 0.691715 0.018745
O O5 0.500000 0.643750 0.155389
O O6 0.748500 0.663305 0.201267
O O7 0.721639 0.580890 0.139554
O O8 0.725853 0.687687 0.109469
O O9 0.268177 0.500000 0.500000
O O10 0.500000 0.462889 0.455278
O O11 0.271092 0.482403 0.401593
O O12 0.500000 0.008805 0.750000
O O13 0.670261 0.922131 0.750000
O O14 0.500000 0.164629 0.250000
O O15 0.251982 0.494932 0.198835
O O16 0.000000 0.013025 0.150700
O O17 0.500000 0.206882 0.080898
#
# Coordination Sequence:
#
# PCOD9476044 Si02
#       7
#    16  16  16   8   8  16  16
#     4   9  18  32  48  67  91 120 155 190 226 271
#     4  10  18  29  47  70  94 121 153 187 227 273
#     4   9  16  28  48  72  95 119 151 192 233 273
#     4   9  17  29  45  68  97 122 147 186 232 273
#     4   9  17  29  45  66  95 126 153 186 230 275
#     4   9  17  29  48  71  93 120 155 192 228 272
#     4  10  19  30  46  67  92 122 154 189 228 270
#
# _framework density 8.2304530000000007
#
# number of rings (size 3 to 8) (size 9 to 14) (size 15 to 20)
#    0.000    2.667    0.000    2.500    0.000    6.000 
#    0.000    0.833    0.000    3.000    0.000    3.500 
#    0.000    0.000    0.000    0.000    0.000    0.000 
#
# Total GULP energy -267289.942422 kJ/mol
# GULP energy per Si atom -5568.540467 kJ/mol
# Density = 0.821172 g / cm^3
# Si number density = 8.230453 Si / 1000 Ang^3
#
#
#
# Elastic Constant Matrix: (Units=GPa)
#
#
# Indices 1 2 3 4 5 6 
#
# 1 25.3500 21.4284 19.7107 0.0000 0.0000 0.0000
# 2 21.4284 77.9369 37.5713 0.0000 0.0000 0.0000
# 3 19.7107 37.5713 86.6745 0.0000 0.0000 0.0000
# 4 0.0000 0.0000 0.0000 22.6590 0.0000 0.0000
# 5 0.0000 0.0000 0.0000 0.0000 24.7165 0.0000
# 6 0.0000 0.0000 0.0000 0.0000 0.0000 15.9025
#
#
#
# Elastic Compliance Matrix: (Units=1/GPa)
#
#
# Indices 1 2 3 4 5 6 
#
# 1 0.055021 -0.011499 -0.007528 0.000000 0.000000 0.000000
# 2 -0.011499 0.018624 -0.005458 0.000000 0.000000 0.000000
# 3 -0.007528 -0.005458 0.015615 0.000000 0.000000 0.000000
# 4 0.000000 0.000000 0.000000 0.044133 0.000000 0.000000
# 5 0.000000 0.000000 0.000000 0.000000 0.040459 0.000000
# 6 0.000000 0.000000 0.000000 0.000000 0.000000 0.062883
#
#
# Mechanical properties :
#
#
# Convention : Reuss Voigt Hill
#
# Bulk Modulus (GPa) = 24.81973 38.59803 31.70888
# Shear Modulus (GPa) = 16.71493 20.07232 18.39362
#
# Velocity S-wave (km/s) = 3.19004 3.49577 3.34640
# Velocity P-wave (km/s) = 5.35530 6.30818 5.85117
#
# Compressibility (1/GPa) = 0.04029053
#
# Stress axis : x y z
#
# Youngs Moduli (GPa) = 18.17489 53.69551 64.04012
#
# Poissons Ratio (x) = 0.61743 0.48209
# Poissons Ratio (y) = 0.20899 0.34952
# Poissons Ratio (z) = 0.13682 0.29307
#
# Static dielectric constant tensor:
#      x y z
#    x 1.552640 0.000000 0.000000 
#    y 0.000000 1.542320 0.000000 
#    z 0.000000 0.000000 1.579810 
# 
# From -- ./inp_files/67266.got.cif
#   From: 2010.05.17/outbox.ucp.g08.bks.cvg/sg63_34_cif.got.tgz:67266.got - 2010.06.11 16:32:19.
