data_PCOD9476614
_publ_section_title
;
Structure prediction by ZEFSAII (Michael W. Deem and Ramdas Pophale) SiO2 
 PCOD9476614
Probable space group: C M C A
;
_chemical_formula_sum "Si O2"
_cell_formula_units_Z 104
_cell_length_a 21.975131
_cell_length_b 9.676140
_cell_length_c 26.261033
_cell_angle_alpha 90.000000
_cell_angle_beta 90.000000
_cell_angle_gamma 90.000000
_cell_volume 5584.000153
_symmetry_space_group_name_H-M "C M C A"
_symmetry_group_IT_number 64
_symmetry_cell_setting 'orthorhombic'
loop_
_space_group_symop_operation_xyz
x,y,z
-x,1/2-y,1/2+z
x,-y,-z
-x,1/2+y,1/2-z
-x,-y,-z
x,1/2+y,1/2-z
-x,y,z
x,1/2-y,1/2+z
1/2+x,1/2+y,z
1/2-x,-y,1/2+z
1/2+x,1/2-y,-z
1/2-x,y,1/2-z
1/2-x,1/2-y,-z
1/2+x,y,1/2-z
1/2-x,1/2+y,z
1/2+x,-y,1/2+z
loop_
_atom_site_type_symbol
_atom_site_label
_atom_site_fract_x
_atom_site_fract_y
_atom_site_fract_z
Si Si1 0.365782 0.980623 0.942018
Si Si2 0.861652 0.984882 0.719778
Si Si3 0.691311 0.226369 0.136984
Si Si4 0.872246 0.498629 0.335013
Si Si5 0.167221 0.786108 0.361372
Si Si6 0.000000 0.403225 0.913244
Si Si7 0.000000 0.348303 0.340911
Si Si8 0.500000 0.440570 0.700920
O O1 0.350782 0.115929 0.908404
O O2 0.332543 0.857452 0.911714
O O3 0.437622 0.943414 0.940256
O O4 0.346237 0.000000 0.000000
O O5 0.843429 0.984456 0.778517
O O6 0.841052 0.119822 0.688923
O O7 0.935245 0.985411 0.721644
O O8 0.837355 0.855442 0.685994
O O9 0.667449 0.382653 0.137003
O O10 0.763666 0.232861 0.137525
O O11 0.872939 0.649178 0.359291
O O12 0.939733 0.436504 0.335051
O O13 0.000000 0.481618 0.858712
O O14 0.000000 0.243396 0.893262
O O15 0.000000 0.226451 0.298940
#
# Coordination Sequence:
#
# PCOD9476614 Si02
#       8
#    16  16  16  16  16   8   8   8
#     4  11  23  44  70  88 111 158 205 250 312 376
#     4  11  22  38  60  88 124 172 204 232 285 369
#     4  11  22  43  58  83 130 161 193 250 298 350
#     4  12  22  36  61  90 126 159 200 247 297 341
#     4  11  25  37  60  93 119 158 209 247 288 357
#     4  10  17  41  71  84 114 156 199 248 315 363
#     4  10  19  36  61  85 123 165 186 254 312 339
#     4  10  17  39  62  81 122 166 200 237 297 359
#
# _framework density 18.624641
#
# number of rings (size 3 to 8) (size 9 to 14) (size 15 to 20)
#    0.462    0.615    6.154    3.462    0.000    5.538 
#    0.000    0.769    0.000    0.923    0.000    0.000 
#    0.000    0.000    0.000    0.000    0.000    0.000 
#
# Total GULP energy -290228.054141 kJ/mol
# GULP energy per Si atom -5581.308733 kJ/mol
# Density = 1.858225 g / cm^3
# Si number density = 18.624641 Si / 1000 Ang^3
#
#
#
# Elastic Constant Matrix: (Units=GPa)
#
#
# Indices 1 2 3 4 5 6 
#
# 1 96.4226 11.4197 12.6371 0.0000 0.0000 0.0000
# 2 11.4197 97.1133 51.3212 0.0000 0.0000 0.0000
# 3 12.6371 51.3212 105.7247 0.0000 0.0000 0.0000
# 4 0.0000 0.0000 0.0000 1.8173 0.0000 0.0000
# 5 0.0000 0.0000 0.0000 0.0000 -3.1063 0.0000
# 6 0.0000 0.0000 0.0000 0.0000 0.0000 193.4085
#
#
#
# Elastic Compliance Matrix: (Units=1/GPa)
#
#
# Indices 1 2 3 4 5 6 
#
# 1 0.010579 -0.000774 -0.000889 0.000000 0.000000 0.000000
# 2 -0.000774 0.013907 -0.006658 0.000000 0.000000 0.000000
# 3 -0.000889 -0.006658 0.012797 0.000000 0.000000 0.000000
# 4 0.000000 0.000000 0.000000 0.550257 0.000000 0.000000
# 5 0.000000 0.000000 0.000000 0.000000 -0.321927 0.000000
# 6 0.000000 0.000000 0.000000 0.000000 0.000000 0.005170
#
#
# Mechanical properties :
#
#
# Convention : Reuss Voigt Hill
#
# Bulk Modulus (GPa) = 48.44843 50.00184 49.22514
# Shear Modulus (GPa) = 16.98912 53.34941 35.16926
#
# Velocity S-wave (km/s) = 3.02352 5.35786 4.35019
# Velocity P-wave (km/s) = 6.18534 8.07348 7.19164
#
# Compressibility (1/GPa) = 0.02064050
#
# Stress axis : x y z
#
# Youngs Moduli (GPa) = 94.52522 71.90641 78.14463
#
# Poissons Ratio (x) = 0.05569 0.06944
# Poissons Ratio (y) = 0.07320 0.52030
# Poissons Ratio (z) = 0.08399 0.47877
#
# Static dielectric constant tensor:
#      x y z
#    x 2.285130 0.000000 0.000000 
#    y 0.000000 1.636720 0.000000 
#    z 0.000000 0.000000 1.647660 
# 
# From -- ./inp_files/50791.got.cif
#   From: 2010.05.17/outbox.cif.g08.bks.cpg/sg64_26_cif.got.tgz:50791.got - 2010.06.03 16:29:19.
