data_PCOD9476917
_publ_section_title
;
Structure prediction by ZEFSAII (Michael W. Deem and Ramdas Pophale) SiO2 
 PCOD9476917
Probable space group: C M C A
;
_chemical_formula_sum "Si O2"
_cell_formula_units_Z 88
_cell_length_a 24.076529
_cell_length_b 9.087744
_cell_length_c 18.965427
_cell_angle_alpha 90.000000
_cell_angle_beta 90.000000
_cell_angle_gamma 90.000000
_cell_volume 4149.660689
_symmetry_space_group_name_H-M "C M C A"
_symmetry_group_IT_number 64
_symmetry_cell_setting 'orthorhombic'
loop_
_space_group_symop_operation_xyz
x,y,z
-x,1/2-y,1/2+z
x,-y,-z
-x,1/2+y,1/2-z
-x,-y,-z
x,1/2+y,1/2-z
-x,y,z
x,1/2-y,1/2+z
1/2+x,1/2+y,z
1/2-x,-y,1/2+z
1/2+x,1/2-y,-z
1/2-x,y,1/2-z
1/2-x,1/2-y,-z
1/2+x,y,1/2-z
1/2-x,1/2+y,z
1/2+x,-y,1/2+z
loop_
_atom_site_type_symbol
_atom_site_label
_atom_site_fract_x
_atom_site_fract_y
_atom_site_fract_z
Si Si1 0.619964 0.022755 0.415422
Si Si2 0.184215 0.500000 0.000000
Si Si3 0.500000 0.847985 0.958559
Si Si4 0.382526 0.189833 0.114674
Si Si5 0.793204 0.559679 0.187144
Si Si6 0.713506 0.265520 0.391666
Si Si7 0.000000 0.598351 0.430030
O O1 0.661868 0.154784 0.398987
O O2 0.557761 0.066626 0.391840
O O3 0.619980 0.000000 0.500000
O O4 0.634534 0.861785 0.385929
O O5 0.144432 0.586531 0.054007
O O6 0.218348 0.374019 0.041054
O O7 0.446874 0.817476 0.908435
O O8 0.500000 0.750368 0.029430
O O9 0.500000 0.000000 0.000000
O O10 0.356342 0.119551 0.186083
O O11 0.750000 0.581535 0.250000
O O12 0.764336 0.659687 0.126281
O O13 0.794083 0.387252 0.169297
O O14 0.000000 0.500000 0.500000
#
# Coordination Sequence:
#
# PCOD9476917 Si02
#       7
#    16   8   8  16  16  16   8
#     4  11  19  36  58  95 138 176 205 250 334 424
#     4  10  20  35  56 102 132 167 210 258 354 408
#     4  12  20  32  60 101 146 179 206 263 332 428
#     4  11  21  36  62  96 136 177 214 267 328 405
#     4  11  26  46  62  85 120 178 238 284 325 384
#     4  11  23  40  64  87 125 170 216 283 338 405
#     4  10  18  32  56  87 148 183 198 237 327 429
#
# _framework density 21.206553
#
# number of rings (size 3 to 8) (size 9 to 14) (size 15 to 20)
#    0.000    1.091    6.364    1.636    2.545    2.909 
#    8.182    0.909    0.000    1.091    0.000    8.909 
#    0.000    0.000    0.000    0.000    0.000    0.000 
#
# Total GULP energy -245311.301129 kJ/mol
# GULP energy per Si atom -5575.256844 kJ/mol
# Density = 2.115829 g / cm^3
# Si number density = 21.206553 Si / 1000 Ang^3
#
#
#
# Elastic Constant Matrix: (Units=GPa)
#
#
# Indices 1 2 3 4 5 6 
#
# 1 116.6047 55.5190 33.2231 0.0000 0.0000 0.0000
# 2 55.5190 190.3361 21.0602 0.0000 0.0000 0.0000
# 3 33.2231 21.0602 47.7962 0.0000 0.0000 0.0000
# 4 0.0000 0.0000 0.0000 19.1764 0.0000 0.0000
# 5 0.0000 0.0000 0.0000 0.0000 12.1721 0.0000
# 6 0.0000 0.0000 0.0000 0.0000 0.0000 -33.1383
#
#
#
# Elastic Compliance Matrix: (Units=1/GPa)
#
#
# Indices 1 2 3 4 5 6 
#
# 1 0.011865 -0.002679 -0.007067 0.000000 0.000000 0.000000
# 2 -0.002679 0.006128 -0.000838 0.000000 0.000000 0.000000
# 3 -0.007067 -0.000838 0.026204 0.000000 0.000000 0.000000
# 4 0.000000 0.000000 0.000000 0.052147 0.000000 0.000000
# 5 0.000000 0.000000 0.000000 0.000000 0.082155 0.000000
# 6 0.000000 0.000000 0.000000 0.000000 0.000000 -0.030177
#
#
# Mechanical properties :
#
#
# Convention : Reuss Voigt Hill
#
# Bulk Modulus (GPa) = 43.42385 63.81574 53.61979
# Shear Modulus (GPa) = 28.22196 15.97102 22.09649
#
# Velocity S-wave (km/s) = 3.65199 2.74728 3.23145
# Velocity P-wave (km/s) = 6.18900 6.34201 6.26598
#
# Compressibility (1/GPa) = 0.02302882
#
# Stress axis : x y z
#
# Youngs Moduli (GPa) = 84.28117 163.18509 38.16264
#
# Poissons Ratio (x) = 0.43717 0.26969
# Poissons Ratio (y) = 0.22579 0.03198
# Poissons Ratio (z) = 0.59561 0.13675
#
# Static dielectric constant tensor:
#      x y z
#    x 1.856190 0.000000 0.000000 
#    y 0.000000 1.720420 0.000000 
#    z 0.000000 0.000000 1.874590 
# 
# From -- ./inp_files/41391.got.cif
#   From: 2010.05.17/outbox.cif.g08.bks.cpg/sg64_21_cif.got.tgz:41391.got - 2010.06.03 16:29:19.
