data_PCOD9476455
_publ_section_title
;
Structure prediction by ZEFSAII (Michael W. Deem and Ramdas Pophale) SiO2 
 PCOD9476455
Probable space group: C M C A
;
_chemical_formula_sum "Si O2"
_cell_formula_units_Z 128
_cell_length_a 17.134752
_cell_length_b 19.783075
_cell_length_c 24.011729
_cell_angle_alpha 90.000000
_cell_angle_beta 90.000000
_cell_angle_gamma 90.000000
_cell_volume 8139.449888
_symmetry_space_group_name_H-M "C M C A"
_symmetry_group_IT_number 64
_symmetry_cell_setting 'orthorhombic'
loop_
_space_group_symop_operation_xyz
x,y,z
-x,1/2-y,1/2+z
x,-y,-z
-x,1/2+y,1/2-z
-x,-y,-z
x,1/2+y,1/2-z
-x,y,z
x,1/2-y,1/2+z
1/2+x,1/2+y,z
1/2-x,-y,1/2+z
1/2+x,1/2-y,-z
1/2-x,y,1/2-z
1/2-x,1/2-y,-z
1/2+x,y,1/2-z
1/2-x,1/2+y,z
1/2+x,-y,1/2+z
loop_
_atom_site_type_symbol
_atom_site_label
_atom_site_fract_x
_atom_site_fract_y
_atom_site_fract_z
Si Si1 0.094986 0.867501 0.933788
Si Si2 0.657009 0.989817 0.251256
Si Si3 0.093994 0.258160 0.343933
Si Si4 0.595160 0.646200 0.939727
Si Si5 0.593648 0.870148 0.779898
Si Si6 0.094322 0.008008 0.876997
Si Si7 0.594210 0.781483 0.671335
Si Si8 0.842465 0.838422 0.261618
O O1 0.118186 0.812501 0.887663
O O2 0.000000 0.867399 0.934627
O O3 0.117874 0.941674 0.911721
O O4 0.121900 0.853467 0.996471
O O5 0.750000 0.992600 0.250000
O O6 0.627823 0.994297 0.314955
O O7 0.632905 0.915845 0.229277
O O8 0.625716 0.054586 0.218399
O O9 0.121556 0.291283 0.401407
O O10 0.122110 0.183561 0.326182
O O11 0.116462 0.308154 0.293467
O O12 0.000000 0.255163 0.345714
O O13 0.500000 0.647227 0.940565
O O14 0.617285 0.576492 0.908895
O O15 0.500000 0.873566 0.782671
O O16 0.613137 0.835567 0.720248
O O17 0.000000 0.007392 0.872553
O O18 0.500000 0.772834 0.672303
O O19 0.634341 0.711763 0.688757
O O20 0.750000 0.836566 0.250000
#
# Coordination Sequence:
#
# PCOD9476455 Si02
#       8
#    16  16  16  16  16  16  16  16
#     4   9  16  27  44  71  97 118 151 190 231 279
#     4  11  21  30  43  68  92 126 158 189 229 273
#     4   9  17  30  47  69  93 121 151 184 228 277
#     4   9  16  26  46  71  94 121 152 187 231 281
#     4   9  17  29  45  65  92 121 151 187 226 272
#     4  10  17  28  45  68  99 126 150 187 232 282
#     4   9  17  30  47  68  94 121 149 186 230 277
#     4  10  20  31  44  65  91 125 156 190 229 268
#
# _framework density 15.725878
#
# number of rings (size 3 to 8) (size 9 to 14) (size 15 to 20)
#    0.000    2.500    2.500    1.875    0.000    5.000 
#    0.000    0.000    0.000    0.750    0.000    0.875 
#    0.000    5.000    0.000    0.000    0.000    0.500 
#
# Total GULP energy -356581.620818 kJ/mol
# GULP energy per Si atom -5571.587825 kJ/mol
# Density = 1.569009 g / cm^3
# Si number density = 15.725878 Si / 1000 Ang^3
#
#
#
# Elastic Constant Matrix: (Units=GPa)
#
#
# Indices 1 2 3 4 5 6 
#
# 1 6.6460 21.3624 15.1815 0.0000 0.0000 0.0000
# 2 21.3624 151.5458 60.5847 0.0000 0.0000 0.0000
# 3 15.1815 60.5847 96.7375 0.0000 0.0000 0.0000
# 4 0.0000 0.0000 0.0000 18.8010 0.0000 0.0000
# 5 0.0000 0.0000 0.0000 0.0000 4.1274 0.0000
# 6 0.0000 0.0000 0.0000 0.0000 0.0000 30.5204
#
#
#
# Elastic Compliance Matrix: (Units=1/GPa)
#
#
# Indices 1 2 3 4 5 6 
#
# 1 0.330417 -0.034479 -0.030260 0.000000 0.000000 0.000000
# 2 -0.034479 0.012401 -0.002355 0.000000 0.000000 0.000000
# 3 -0.030260 -0.002355 0.016561 0.000000 0.000000 0.000000
# 4 0.000000 0.000000 0.000000 0.053189 0.000000 0.000000
# 5 0.000000 0.000000 0.000000 0.000000 0.242281 0.000000
# 6 0.000000 0.000000 0.000000 0.000000 0.000000 0.032765
#
#
# Mechanical properties :
#
#
# Convention : Reuss Voigt Hill
#
# Bulk Modulus (GPa) = 4.44071 49.90960 27.17516
# Shear Modulus (GPa) = 5.57497 21.20982 13.39240
#
# Velocity S-wave (km/s) = 1.88488 3.67648 2.92141
# Velocity P-wave (km/s) = 2.75082 7.05890 5.35701
#
# Compressibility (1/GPa) = 0.22518911
#
# Stress axis : x y z
#
# Youngs Moduli (GPa) = 3.02648 80.64181 60.38223
#
# Poissons Ratio (x) = 2.78046 1.82719
# Poissons Ratio (y) = 0.10435 0.14221
# Poissons Ratio (z) = 0.09158 0.18993
#
# Static dielectric constant tensor:
#      x y z
#    x 1.542080 0.000000 0.000000 
#    y 0.000000 1.548020 0.000000 
#    z 0.000000 0.000000 1.518000 
# 
# From -- ./inp_files/46023.got.cif
#   From: 2010.05.17/outbox.cif.g08.bks.cpg/sg64_24_cif.got.tgz:46023.got - 2010.06.03 16:29:19.
