data_PCOD9476493
_publ_section_title
;
Structure prediction by ZEFSAII (Michael W. Deem and Ramdas Pophale) SiO2 
 PCOD9476493
Probable space group: C M C A
;
_chemical_formula_sum "Si O2"
_cell_formula_units_Z 112
_cell_length_a 9.546841
_cell_length_b 24.731758
_cell_length_c 23.985984
_cell_angle_alpha 90.000000
_cell_angle_beta 90.000000
_cell_angle_gamma 90.000000
_cell_volume 5663.334551
_symmetry_space_group_name_H-M "C M C A"
_symmetry_group_IT_number 64
_symmetry_cell_setting 'orthorhombic'
loop_
_space_group_symop_operation_xyz
x,y,z
-x,1/2-y,1/2+z
x,-y,-z
-x,1/2+y,1/2-z
-x,-y,-z
x,1/2+y,1/2-z
-x,y,z
x,1/2-y,1/2+z
1/2+x,1/2+y,z
1/2-x,-y,1/2+z
1/2+x,1/2-y,-z
1/2-x,y,1/2-z
1/2-x,1/2-y,-z
1/2+x,y,1/2-z
1/2-x,1/2+y,z
1/2+x,-y,1/2+z
loop_
_atom_site_type_symbol
_atom_site_label
_atom_site_fract_x
_atom_site_fract_y
_atom_site_fract_z
Si Si1 0.151161 0.791363 0.528776
Si Si2 0.831569 0.649876 0.196533
Si Si3 0.658297 0.240757 0.649656
Si Si4 0.832381 0.553550 0.111203
Si Si5 0.834129 0.087754 0.508775
Si Si6 0.164042 0.122609 0.883937
Si Si7 0.163335 0.977038 0.193367
O O1 0.250000 0.750000 0.500000
O O2 0.145566 0.773915 0.592339
O O3 0.185898 0.852991 0.518511
O O4 0.000000 0.783401 0.502379
O O5 0.750000 0.626883 0.250000
O O6 0.778681 0.711800 0.187667
O O7 0.810368 0.611233 0.142766
O O8 0.000000 0.651429 0.205676
O O9 0.500000 0.228918 0.670623
O O10 0.720474 0.182233 0.633459
O O11 0.738578 0.512927 0.146463
O O12 0.000000 0.542512 0.115384
O O13 0.796812 0.551155 0.045090
O O14 0.746914 0.093262 0.565676
O O15 0.000000 0.079254 0.520737
O O16 0.000000 0.129519 0.901152
O O17 0.168028 0.083828 0.830585
O O18 0.250000 0.982008 0.250000
O O19 0.000000 0.992213 0.200941
#
# Coordination Sequence:
#
# PCOD9476493 Si02
#       7
#    16  16  16  16  16  16  16
#     4  10  17  29  52  81 114 152 187 222 272 335
#     4  10  20  35  55  81 112 146 189 239 290 344
#     4   9  17  33  55  78 111 151 184 222 279 339
#     4  10  21  39  62  86 116 152 189 235 293 348
#     4  10  20  34  57  91 122 151 188 234 288 345
#     4  10  22  39  60  86 117 156 193 232 286 344
#     4  11  25  44  64  85 110 149 200 244 288 340
#
# _framework density 19.776336000000001
#
# number of rings (size 3 to 8) (size 9 to 14) (size 15 to 20)
#    0.000    2.000    2.857    0.857    0.000    4.571 
#    0.000    4.286    0.000    0.000    0.000    0.000 
#    0.000    0.000    0.000    0.000    0.000    0.000 
#
# Total GULP energy -311936.929353 kJ/mol
# GULP energy per Si atom -5570.302310 kJ/mol
# Density = 1.973132 g / cm^3
# Si number density = 19.776336 Si / 1000 Ang^3
#
#
#
# Elastic Constant Matrix: (Units=GPa)
#
#
# Indices 1 2 3 4 5 6 
#
# 1 32.9197 29.1999 36.2267 0.0000 0.0000 0.0000
# 2 29.1999 71.8412 26.2373 0.0000 0.0000 0.0000
# 3 36.2267 26.2373 76.8753 0.0000 0.0000 0.0000
# 4 0.0000 0.0000 0.0000 29.9852 0.0000 0.0000
# 5 0.0000 0.0000 0.0000 0.0000 25.1086 0.0000
# 6 0.0000 0.0000 0.0000 0.0000 0.0000 22.5646
#
#
#
# Elastic Compliance Matrix: (Units=1/GPa)
#
#
# Indices 1 2 3 4 5 6 
#
# 1 0.088176 -0.023606 -0.033495 0.000000 0.000000 0.000000
# 2 -0.023606 0.022222 0.003540 0.000000 0.000000 0.000000
# 3 -0.033495 0.003540 0.027584 0.000000 0.000000 0.000000
# 4 0.000000 0.000000 0.000000 0.033350 0.000000 0.000000
# 5 0.000000 0.000000 0.000000 0.000000 0.039827 0.000000
# 6 0.000000 0.000000 0.000000 0.000000 0.000000 0.044317
#
#
# Mechanical properties :
#
#
# Convention : Reuss Voigt Hill
#
# Bulk Modulus (GPa) = 32.40584 40.55157 36.47870
# Shear Modulus (GPa) = 13.40898 21.52983 17.46940
#
# Velocity S-wave (km/s) = 2.60673 3.30307 2.97534
# Velocity P-wave (km/s) = 5.04795 5.92424 5.50357
#
# Compressibility (1/GPa) = 0.03085864
#
# Stress axis : x y z
#
# Youngs Moduli (GPa) = 11.34097 45.00142 36.25269
#
# Poissons Ratio (x) = 1.06232 1.21429
# Poissons Ratio (y) = 0.26772 -0.12834
# Poissons Ratio (z) = 0.37987 -0.15931
#
# Static dielectric constant tensor:
#      x y z
#    x 1.682060 0.000000 0.000000 
#    y 0.000000 1.756140 0.000000 
#    z 0.000000 0.000000 1.730450 
# 
# From -- ./inp_files/38463.got.cif
#   From: 2010.05.17/outbox.cif.g08.bks.cpg/sg64_20_cif.got.tgz:38463.got - 2010.06.03 16:29:19.
