data_PCOD9476773
_publ_section_title
;
Structure prediction by ZEFSAII (Michael W. Deem and Ramdas Pophale) SiO2 
 PCOD9476773
Probable space group: C M C A
;
_chemical_formula_sum "Si O2"
_cell_formula_units_Z 128
_cell_length_a 19.779181
_cell_length_b 17.897405
_cell_length_c 20.486139
_cell_angle_alpha 90.000000
_cell_angle_beta 90.000000
_cell_angle_gamma 90.000000
_cell_volume 7252.011526
_symmetry_space_group_name_H-M "C M C A"
_symmetry_group_IT_number 64
_symmetry_cell_setting 'orthorhombic'
loop_
_space_group_symop_operation_xyz
x,y,z
-x,1/2-y,1/2+z
x,-y,-z
-x,1/2+y,1/2-z
-x,-y,-z
x,1/2+y,1/2-z
-x,y,z
x,1/2-y,1/2+z
1/2+x,1/2+y,z
1/2-x,-y,1/2+z
1/2+x,1/2-y,-z
1/2-x,y,1/2-z
1/2-x,1/2-y,-z
1/2+x,y,1/2-z
1/2-x,1/2+y,z
1/2+x,-y,1/2+z
loop_
_atom_site_type_symbol
_atom_site_label
_atom_site_fract_x
_atom_site_fract_y
_atom_site_fract_z
Si Si1 0.336231 0.869646 0.819384
Si Si2 0.419944 0.179310 0.850060
Si Si3 0.919878 0.674977 0.424680
Si Si4 0.325761 0.720748 0.771231
Si Si5 0.080483 0.927520 0.040027
Si Si6 0.580120 0.515465 0.682566
Si Si7 0.853723 0.938157 0.179810
Si Si8 0.189900 0.903358 0.833461
O O1 0.357764 0.783042 0.819131
O O2 0.263014 0.873059 0.852971
O O3 0.325636 0.882768 0.741466
O O4 0.382685 0.939400 0.839301
O O5 0.500000 0.182557 0.832576
O O6 0.409802 0.237437 0.909222
O O7 0.374265 0.210381 0.791096
O O8 0.403704 0.091365 0.857959
O O9 0.903802 0.645651 0.497014
O O10 0.871417 0.627787 0.376646
O O11 0.000000 0.658500 0.412105
O O12 0.250000 0.743193 0.750000
O O13 0.319360 0.639699 0.803326
O O14 0.105161 0.927209 0.113645
O O15 0.000000 0.934341 0.042182
O O16 0.106690 0.000000 0.000000
O O17 0.500000 0.503312 0.681149
O O18 0.602425 0.536712 0.756942
O O19 0.804584 0.007192 0.166187
#
# Coordination Sequence:
#
# PCOD9476773 Si02
#       8
#    16  16  16  16  16  16  16  16
#     4  10  19  31  48  73 100 137 172 208 259 309
#     4   9  18  32  48  76 102 130 170 212 259 310
#     4  10  18  30  54  76 102 140 170 210 258 313
#     4  11  20  33  51  74 107 140 169 209 261 312
#     4  10  19  32  49  75 106 139 175 211 260 312
#     4   9  19  32  50  75 106 134 168 214 262 316
#     4  10  21  30  50  74 105 137 166 211 259 307
#     4  10  18  31  45  73 100 133 174 208 245 312
#
# _framework density 17.650275000000001
#
# number of rings (size 3 to 8) (size 9 to 14) (size 15 to 20)
#    0.000    2.125    3.750    0.375    5.250    3.000 
#    0.000    0.000    0.000    3.000    3.250    0.000 
#    0.000    4.000    0.000    0.000    0.000    0.000 
#
# Total GULP energy -356279.488199 kJ/mol
# GULP energy per Si atom -5566.867003 kJ/mol
# Density = 1.761010 g / cm^3
# Si number density = 17.650275 Si / 1000 Ang^3
#
#
#
# Elastic Constant Matrix: (Units=GPa)
#
#
# Indices 1 2 3 4 5 6 
#
# 1 34.8516 19.6194 -5.9106 0.0000 0.0000 0.0000
# 2 19.6194 112.8916 -5.9846 0.0000 0.0000 0.0000
# 3 -5.9106 -5.9846 24.2573 0.0000 0.0000 0.0000
# 4 0.0000 0.0000 0.0000 12.5951 0.0000 0.0000
# 5 0.0000 0.0000 0.0000 0.0000 9.6409 0.0000
# 6 0.0000 0.0000 0.0000 0.0000 0.0000 20.4962
#
#
#
# Elastic Compliance Matrix: (Units=1/GPa)
#
#
# Indices 1 2 3 4 5 6 
#
# 1 0.032840 -0.005353 0.006681 0.000000 0.000000 0.000000
# 2 -0.005353 0.009848 0.001125 0.000000 0.000000 0.000000
# 3 0.006681 0.001125 0.043130 0.000000 0.000000 0.000000
# 4 0.000000 0.000000 0.000000 0.079396 0.000000 0.000000
# 5 0.000000 0.000000 0.000000 0.000000 0.103725 0.000000
# 6 0.000000 0.000000 0.000000 0.000000 0.000000 0.048789
#
#
# Mechanical properties :
#
#
# Convention : Reuss Voigt Hill
#
# Bulk Modulus (GPa) = 11.02235 20.82766 15.92501
# Shear Modulus (GPa) = 14.57458 19.49819 17.03638
#
# Velocity S-wave (km/s) = 2.87669 3.32730 3.11017
# Velocity P-wave (km/s) = 4.15839 5.15626 4.68398
#
# Compressibility (1/GPa) = 0.09072472
#
# Stress axis : x y z
#
# Youngs Moduli (GPa) = 30.45107 101.54334 23.18554
#
# Poissons Ratio (x) = 0.54356 -0.15490
# Poissons Ratio (y) = 0.16300 -0.02609
# Poissons Ratio (z) = -0.20345 -0.11427
#
# Static dielectric constant tensor:
#      x y z
#    x 1.605390 0.000000 0.000000 
#    y 0.000000 1.693360 0.000000 
#    z 0.000000 0.000000 1.588360 
# 
# From -- ./inp_files/41147.got.cif
#   From: 2010.05.17/outbox.cif.g08.bks.cpg/sg64_21_cif.got.tgz:41147.got - 2010.06.03 16:29:19.
