data_PCOD9476906
_publ_section_title
;
Structure prediction by ZEFSAII (Michael W. Deem and Ramdas Pophale) SiO2 
 PCOD9476906
Probable space group: C M C A
;
_chemical_formula_sum "Si O2"
_cell_formula_units_Z 80
_cell_length_a 25.384310
_cell_length_b 20.229136
_cell_length_c 8.791094
_cell_angle_alpha 90.000000
_cell_angle_beta 90.000000
_cell_angle_gamma 90.000000
_cell_volume 4514.250147
_symmetry_space_group_name_H-M "C M C A"
_symmetry_group_IT_number 64
_symmetry_cell_setting 'orthorhombic'
loop_
_space_group_symop_operation_xyz
x,y,z
-x,1/2-y,1/2+z
x,-y,-z
-x,1/2+y,1/2-z
-x,-y,-z
x,1/2+y,1/2-z
-x,y,z
x,1/2-y,1/2+z
1/2+x,1/2+y,z
1/2-x,-y,1/2+z
1/2+x,1/2-y,-z
1/2-x,y,1/2-z
1/2-x,1/2-y,-z
1/2+x,y,1/2-z
1/2-x,1/2+y,z
1/2+x,-y,1/2+z
loop_
_atom_site_type_symbol
_atom_site_label
_atom_site_fract_x
_atom_site_fract_y
_atom_site_fract_z
Si Si1 0.384044 0.786044 0.484975
Si Si2 0.216663 0.935352 0.399538
Si Si3 0.500000 0.716581 0.969058
Si Si4 0.000000 0.653960 0.862378
Si Si5 0.615519 0.151805 0.849789
Si Si6 0.228742 0.316916 0.579948
O O1 0.443496 0.806858 0.533666
O O2 0.379915 0.707583 0.518687
O O3 0.379191 0.807291 0.308641
O O4 0.334602 0.817042 0.571670
O O5 0.250000 0.952102 0.250000
O O6 0.161322 0.901268 0.358365
O O7 0.248939 0.879465 0.490334
O O8 0.209021 0.000000 0.500000
O O9 0.500000 0.794854 0.998127
O O10 0.500000 0.698509 0.791536
O O11 0.056976 0.620312 0.858807
O O12 0.250000 0.317058 0.750000
O O13 0.250000 0.250000 0.500000
#
# Coordination Sequence:
#
# PCOD9476906 Si02
#       6
#    16  16   8   8  16  16
#     4  10  18  32  55  85 117 146 185 227 277 328
#     4  12  25  42  56  79 112 152 193 241 294 350
#     4   8  16  28  48  80 116 148 175 224 274 324
#     4   8  16  30  51  82 114 148 180 225 278 331
#     4  10  19  34  57  85 117 148 187 230 282 339
#     4  12  22  35  58  87 115 147 190 236 284 342
#
# _framework density 17.721658999999999
#
# number of rings (size 3 to 8) (size 9 to 14) (size 15 to 20)
#    0.000    1.600    4.000    2.400    0.000    0.000 
#    0.000    0.500    0.000    0.000    0.000    5.600 
#    0.000    0.000    0.000    0.000    0.000    0.000 
#
# Total GULP energy -222978.124913 kJ/mol
# GULP energy per Si atom -5574.453123 kJ/mol
# Density = 1.768132 g / cm^3
# Si number density = 17.721659 Si / 1000 Ang^3
#
#
#
# Elastic Constant Matrix: (Units=GPa)
#
#
# Indices 1 2 3 4 5 6 
#
# 1 202.7213 53.6481 52.2372 0.0000 0.0000 0.0000
# 2 53.6481 62.2383 34.5251 0.0000 0.0000 0.0000
# 3 52.2372 34.5251 81.8243 0.0000 0.0000 0.0000
# 4 0.0000 0.0000 0.0000 19.7303 0.0000 0.0000
# 5 0.0000 0.0000 0.0000 0.0000 25.3123 0.0000
# 6 0.0000 0.0000 0.0000 0.0000 0.0000 9.0173
#
#
#
# Elastic Compliance Matrix: (Units=1/GPa)
#
#
# Indices 1 2 3 4 5 6 
#
# 1 0.006738 -0.004467 -0.002416 0.000000 0.000000 0.000000
# 2 -0.004467 0.023939 -0.007249 0.000000 0.000000 0.000000
# 3 -0.002416 -0.007249 0.016823 0.000000 0.000000 0.000000
# 4 0.000000 0.000000 0.000000 0.050684 0.000000 0.000000
# 5 0.000000 0.000000 0.000000 0.000000 0.039506 0.000000
# 6 0.000000 0.000000 0.000000 0.000000 0.000000 0.110897
#
#
# Mechanical properties :
#
#
# Convention : Reuss Voigt Hill
#
# Bulk Modulus (GPa) = 51.99115 69.73385 60.86250
# Shear Modulus (GPa) = 17.65137 24.57022 21.11080
#
# Velocity S-wave (km/s) = 3.15942 3.72755 3.45518
# Velocity P-wave (km/s) = 6.53534 7.61322 7.09478
#
# Compressibility (1/GPa) = 0.01923404
#
# Stress axis : x y z
#
# Youngs Moduli (GPa) = 148.41630 41.77248 59.44366
#
# Poissons Ratio (x) = 0.18661 0.14365
# Poissons Ratio (y) = 0.66303 0.43090
# Poissons Ratio (z) = 0.35865 0.30281
#
# Static dielectric constant tensor:
#      x y z
#    x 1.673170 0.000000 0.000000 
#    y 0.000000 1.533780 0.000000 
#    z 0.000000 0.000000 1.614190 
# 
# From -- ./inp_files/9279.got.cif
#   From: 2010.05.17/outbox.cif.g08.bks.cpg/sg64_5_cif.got.tgz:9279.got - 2010.06.03 16:29:19.
