data_PCOD9476368
_publ_section_title
;
Structure prediction by ZEFSAII (Michael W. Deem and Ramdas Pophale) SiO2 
 PCOD9476368
Probable space group: C M C A
;
_chemical_formula_sum "Si O2"
_cell_formula_units_Z 104
_cell_length_a 30.076536
_cell_length_b 22.718697
_cell_length_c 9.437217
_cell_angle_alpha 90.000000
_cell_angle_beta 90.000000
_cell_angle_gamma 90.000000
_cell_volume 6448.447622
_symmetry_space_group_name_H-M "C M C A"
_symmetry_group_IT_number 64
_symmetry_cell_setting 'orthorhombic'
loop_
_space_group_symop_operation_xyz
x,y,z
-x,1/2-y,1/2+z
x,-y,-z
-x,1/2+y,1/2-z
-x,-y,-z
x,1/2+y,1/2-z
-x,y,z
x,1/2-y,1/2+z
1/2+x,1/2+y,z
1/2-x,-y,1/2+z
1/2+x,1/2-y,-z
1/2-x,y,1/2-z
1/2-x,1/2-y,-z
1/2+x,y,1/2-z
1/2-x,1/2+y,z
1/2+x,-y,1/2+z
loop_
_atom_site_type_symbol
_atom_site_label
_atom_site_fract_x
_atom_site_fract_y
_atom_site_fract_z
Si Si1 0.624610 0.068139 0.183521
Si Si2 0.728271 0.500000 0.000000
Si Si3 0.879828 0.566619 0.731360
Si Si4 0.835641 0.104905 0.052042
Si Si5 0.196692 0.084285 0.551612
Si Si6 0.949236 0.429339 0.032367
Si Si7 0.754492 0.812256 0.922901
O O1 0.637840 0.113094 0.304128
O O2 0.617471 0.004463 0.256298
O O3 0.665163 0.059910 0.073938
O O4 0.582833 0.090958 0.094089
O O5 0.696413 0.547337 0.074290
O O6 0.762408 0.459066 0.086249
O O7 0.869463 0.589408 0.574517
O O8 0.836359 0.588588 0.817124
O O9 0.923505 0.584746 0.821046
O O10 0.801670 0.158372 0.034087
O O11 0.217737 0.143722 0.489383
O O12 0.000000 0.409058 0.031410
O O13 0.949589 0.500000 0.000000
O O14 0.750000 0.810155 0.750000
O O15 0.750000 0.750000 0.000000
#
# Coordination Sequence:
#
# PCOD9476368 Si02
#       7
#    16   8  16  16  16  16  16
#     4  10  16  31  46  73 103 126 166 205 246 289
#     4  10  18  26  46  68  96 126 168 194 256 262
#     4  10  18  29  48  76 101 126 165 206 247 296
#     4  11  21  30  47  71 103 130 165 215 250 281
#     4  10  19  31  48  67  96 132 169 208 237 287
#     4   8  16  30  49  68 100 141 166 188 238 314
#     4  11  25  38  48  64  97 141 177 211 236 289
#
# _framework density 16.127912999999999
#
# number of rings (size 3 to 8) (size 9 to 14) (size 15 to 20)
#    0.000    2.000    4.615    0.923    2.154    3.077 
#    0.000    0.769    0.000    3.692    0.000    0.000 
#    0.000   19.692    0.000    0.000    0.000    0.000 
#
# Total GULP energy -289489.210691 kJ/mol
# GULP energy per Si atom -5567.100206 kJ/mol
# Density = 1.609120 g / cm^3
# Si number density = 16.127913 Si / 1000 Ang^3
#
#
#
# Elastic Constant Matrix: (Units=GPa)
#
#
# Indices 1 2 3 4 5 6 
#
# 1 117.9603 20.8160 41.4768 0.0000 0.0000 0.0000
# 2 20.8160 63.6847 9.3746 0.0000 0.0000 0.0000
# 3 41.4768 9.3746 74.3235 0.0000 0.0000 0.0000
# 4 0.0000 0.0000 0.0000 16.7009 0.0000 0.0000
# 5 0.0000 0.0000 0.0000 0.0000 10.0222 0.0000
# 6 0.0000 0.0000 0.0000 0.0000 0.0000 9.6835
#
#
#
# Elastic Compliance Matrix: (Units=1/GPa)
#
#
# Indices 1 2 3 4 5 6 
#
# 1 0.010998 -0.002742 -0.005791 0.000000 0.000000 0.000000
# 2 -0.002742 0.016683 -0.000574 0.000000 0.000000 0.000000
# 3 -0.005791 -0.000574 0.016759 0.000000 0.000000 0.000000
# 4 0.000000 0.000000 0.000000 0.059877 0.000000 0.000000
# 5 0.000000 0.000000 0.000000 0.000000 0.099778 0.000000
# 6 0.000000 0.000000 0.000000 0.000000 0.000000 0.103268
#
#
# Mechanical properties :
#
#
# Convention : Reuss Voigt Hill
#
# Bulk Modulus (GPa) = 38.13209 44.36703 41.24956
# Shear Modulus (GPa) = 14.95571 19.56806 17.26189
#
# Velocity S-wave (km/s) = 3.04849 3.48703 3.27511
# Velocity P-wave (km/s) = 6.00716 6.61677 6.31932
#
# Compressibility (1/GPa) = 0.02622463
#
# Stress axis : x y z
#
# Youngs Moduli (GPa) = 90.92795 59.94069 59.66920
#
# Poissons Ratio (x) = 0.16437 0.34557
# Poissons Ratio (y) = 0.24934 0.03425
# Poissons Ratio (z) = 0.52661 0.03441
#
# Static dielectric constant tensor:
#      x y z
#    x 1.557980 0.000000 0.000000 
#    y 0.000000 1.540660 0.000000 
#    z 0.000000 0.000000 1.592760 
# 
# From -- ./inp_files/11279.got.cif
#   From: 2010.05.17/outbox.cif.g08.bks.cpg/sg64_6_cif.got.tgz:11279.got - 2010.06.03 16:29:19.
