data_PCOD9476618
_publ_section_title
;
Structure prediction by ZEFSAII (Michael W. Deem and Ramdas Pophale) SiO2 
 PCOD9476618
Probable space group: C M C A
;
_chemical_formula_sum "Si O2"
_cell_formula_units_Z 64
_cell_length_a 35.559001
_cell_length_b 5.329077
_cell_length_c 13.861582
_cell_angle_alpha 90.000000
_cell_angle_beta 90.000000
_cell_angle_gamma 90.000000
_cell_volume 2626.723413
_symmetry_space_group_name_H-M "C M C A"
_symmetry_group_IT_number 64
_symmetry_cell_setting 'orthorhombic'
loop_
_space_group_symop_operation_xyz
x,y,z
-x,1/2-y,1/2+z
x,-y,-z
-x,1/2+y,1/2-z
-x,-y,-z
x,1/2+y,1/2-z
-x,y,z
x,1/2-y,1/2+z
1/2+x,1/2+y,z
1/2-x,-y,1/2+z
1/2+x,1/2-y,-z
1/2-x,y,1/2-z
1/2-x,1/2-y,-z
1/2+x,y,1/2-z
1/2-x,1/2+y,z
1/2+x,-y,1/2+z
loop_
_atom_site_type_symbol
_atom_site_label
_atom_site_fract_x
_atom_site_fract_y
_atom_site_fract_z
Si Si1 0.118240 0.217511 0.396799
Si Si2 0.647975 0.781668 0.616288
Si Si3 0.731783 0.519779 0.115607
Si Si4 0.542385 0.080934 0.185588
O O1 0.136395 0.248733 0.502919
O O2 0.120935 0.493267 0.351493
O O3 0.075612 0.123275 0.390782
O O4 0.142370 0.999140 0.346241
O O5 0.689888 0.879778 0.630322
O O6 0.739857 0.237727 0.150278
O O7 0.736766 0.500000 0.000000
O O8 0.545929 0.311470 0.261896
O O9 0.500000 0.096734 0.145089
#
# Coordination Sequence:
#
# PCOD9476618 Si02
#       4
#    16  16  16  16
#     4  10  19  32  50  72 104 135 158 204 258 299
#     4  10  19  32  47  77 112 133 160 201 253 308
#     4  10  18  26  43  68 106 141 165 195 234 294
#     4  10  21  38  57  75  96 127 172 217 250 290
#
# _framework density 24.364954000000001
#
# number of rings (size 3 to 8) (size 9 to 14) (size 15 to 20)
#    0.000    2.000    2.500    3.000    7.000    0.000 
#    0.000    5.000    0.000    0.000    0.000    0.000 
#    0.000  116.000    0.000    0.000    0.000    0.000 
#
# Total GULP energy -178737.143730 kJ/mol
# GULP energy per Si atom -5585.535742 kJ/mol
# Density = 2.430950 g / cm^3
# Si number density = 24.364954 Si / 1000 Ang^3
#
#
#
# Elastic Constant Matrix: (Units=GPa)
#
#
# Indices 1 2 3 4 5 6 
#
# 1 173.4611 39.8192 4.9849 0.0000 0.0000 0.0000
# 2 39.8192 182.6792 -31.5060 0.0000 0.0000 0.0000
# 3 4.9849 -31.5060 74.2060 0.0000 0.0000 0.0000
# 4 0.0000 0.0000 0.0000 -14.8427 0.0000 0.0000
# 5 0.0000 0.0000 0.0000 0.0000 13.8308 0.0000
# 6 0.0000 0.0000 0.0000 0.0000 0.0000 46.7861
#
#
#
# Elastic Compliance Matrix: (Units=1/GPa)
#
#
# Indices 1 2 3 4 5 6 
#
# 1 0.006145 -0.001522 -0.001059 0.000000 0.000000 0.000000
# 2 -0.001522 0.006284 0.002770 0.000000 0.000000 0.000000
# 3 -0.001059 0.002770 0.014723 0.000000 0.000000 0.000000
# 4 0.000000 0.000000 0.000000 -0.067373 0.000000 0.000000
# 5 0.000000 0.000000 0.000000 0.000000 0.072303 0.000000
# 6 0.000000 0.000000 0.000000 0.000000 0.000000 0.021374
#
#
# Mechanical properties :
#
#
# Convention : Reuss Voigt Hill
#
# Bulk Modulus (GPa) = 36.32435 50.77140 43.54788
# Shear Modulus (GPa) = 80.31654 36.95804 58.63729
#
# Velocity S-wave (km/s) = 5.74765 3.89890 4.91106
# Velocity P-wave (km/s) = 7.68038 6.41496 7.07601
#
# Compressibility (1/GPa) = 0.02752974
#
# Stress axis : x y z
#
# Youngs Moduli (GPa) = 162.73893 159.14468 67.91974
#
# Poissons Ratio (x) = 0.24223 0.07193
# Poissons Ratio (y) = 0.24770 -0.18814
# Poissons Ratio (z) = 0.17234 -0.44085
#
# Static dielectric constant tensor:
#      x y z
#    x 1.909460 0.000000 0.000000 
#    y 0.000000 2.025580 0.000000 
#    z 0.000000 0.000000 1.655710 
# 
# From -- ./inp_files/35619.got.cif
#   From: 2010.05.17/outbox.cif.g08.bks.cpg/sg64_18_cif.got.tgz:35619.got - 2010.06.03 16:29:19.
