data_PCOD9476318
_publ_section_title
;
Structure prediction by ZEFSAII (Michael W. Deem and Ramdas Pophale) SiO2 
 PCOD9476318
Probable space group: C M C A
;
_chemical_formula_sum "Si O2"
_cell_formula_units_Z 128
_cell_length_a 15.079700
_cell_length_b 19.893669
_cell_length_c 24.064376
_cell_angle_alpha 90.000000
_cell_angle_beta 90.000000
_cell_angle_gamma 90.000000
_cell_volume 7219.085642
_symmetry_space_group_name_H-M "C M C A"
_symmetry_group_IT_number 64
_symmetry_cell_setting 'orthorhombic'
loop_
_space_group_symop_operation_xyz
x,y,z
-x,1/2-y,1/2+z
x,-y,-z
-x,1/2+y,1/2-z
-x,-y,-z
x,1/2+y,1/2-z
-x,y,z
x,1/2-y,1/2+z
1/2+x,1/2+y,z
1/2-x,-y,1/2+z
1/2+x,1/2-y,-z
1/2-x,y,1/2-z
1/2-x,1/2-y,-z
1/2+x,y,1/2-z
1/2-x,1/2+y,z
1/2+x,-y,1/2+z
loop_
_atom_site_type_symbol
_atom_site_label
_atom_site_fract_x
_atom_site_fract_y
_atom_site_fract_z
Si Si1 0.606745 0.506156 0.251511
Si Si2 0.107081 0.763644 0.658573
Si Si3 0.349280 0.141347 0.729634
Si Si4 0.108285 0.646007 0.060546
Si Si5 0.898523 0.223255 0.664613
Si Si6 0.391292 0.367608 0.434080
Si Si7 0.108657 0.153660 0.231771
Si Si8 0.108034 0.507757 0.120244
O O1 0.500000 0.509409 0.252967
O O2 0.630463 0.436804 0.221681
O O3 0.638336 0.576899 0.226300
O O4 0.637688 0.502696 0.315768
O O5 0.136299 0.689948 0.677601
O O6 0.137560 0.792880 0.599869
O O7 0.132286 0.815548 0.708019
O O8 0.000000 0.762810 0.658072
O O9 0.250000 0.147631 0.750000
O O10 0.401669 0.173045 0.782290
O O11 0.135339 0.576385 0.090236
O O12 0.000000 0.646095 0.060065
O O13 0.137108 0.647772 0.996694
O O14 0.858586 0.185152 0.612118
O O15 0.857340 0.292565 0.686758
O O16 0.000000 0.238845 0.649337
O O17 0.500000 0.367008 0.433004
O O18 0.364902 0.441975 0.413996
O O19 0.000000 0.154563 0.229710
O O20 0.000000 0.508426 0.121570
#
# Coordination Sequence:
#
# PCOD9476318 Si02
#       8
#    16  16  16  16  16  16  16  16
#     4  10  16  27  45  64  86 116 144 173 219 268
#     4   9  16  29  46  64  88 118 146 173 211 261
#     4  11  21  30  42  62  88 115 149 186 220 253
#     4   9  15  23  39  66  95 117 142 175 214 260
#     4   9  16  29  46  65  88 117 146 174 214 263
#     4   9  15  22  38  65  95 120 140 171 214 261
#     4   8  14  24  43  64  83 110 144 175 206 254
#     4   9  14  21  36  63  94 118 137 166 212 266
#
# _framework density 17.730777
#
# number of rings (size 3 to 8) (size 9 to 14) (size 15 to 20)
#    0.000    2.750    2.500    2.250    0.000    1.500 
#    0.000    2.500    0.000    0.750    0.000    0.875 
#    0.000    6.000    0.000    0.000    0.000    0.000 
#
# Total GULP energy -356643.686677 kJ/mol
# GULP energy per Si atom -5572.557604 kJ/mol
# Density = 1.769042 g / cm^3
# Si number density = 17.730777 Si / 1000 Ang^3
#
#
#
# Elastic Constant Matrix: (Units=GPa)
#
#
# Indices 1 2 3 4 5 6 
#
# 1 19.3552 8.7818 1.8187 0.0000 0.0000 0.0000
# 2 8.7818 140.5717 61.3690 0.0000 0.0000 0.0000
# 3 1.8187 61.3690 76.7310 0.0000 0.0000 0.0000
# 4 0.0000 0.0000 0.0000 22.9707 0.0000 0.0000
# 5 0.0000 0.0000 0.0000 0.0000 1.5276 0.0000
# 6 0.0000 0.0000 0.0000 0.0000 0.0000 0.8894
#
#
#
# Elastic Compliance Matrix: (Units=1/GPa)
#
#
# Indices 1 2 3 4 5 6 
#
# 1 0.053404 -0.004277 0.002155 0.000000 0.000000 0.000000
# 2 -0.004277 0.011273 -0.008915 0.000000 0.000000 0.000000
# 3 0.002155 -0.008915 0.020111 0.000000 0.000000 0.000000
# 4 0.000000 0.000000 0.000000 0.043534 0.000000 0.000000
# 5 0.000000 0.000000 0.000000 0.000000 0.654630 0.000000
# 6 0.000000 0.000000 0.000000 0.000000 0.000000 1.124389
#
#
# Mechanical properties :
#
#
# Convention : Reuss Voigt Hill
#
# Bulk Modulus (GPa) = 15.94524 42.28854 29.11689
# Shear Modulus (GPa) = 2.56368 16.05675 9.31022
#
# Velocity S-wave (km/s) = 1.20376 3.01256 2.29397
# Velocity P-wave (km/s) = 3.30825 6.00024 4.84497
#
# Compressibility (1/GPa) = 0.06271463
#
# Stress axis : x y z
#
# Youngs Moduli (GPa) = 18.72525 88.70917 49.72339
#
# Poissons Ratio (x) = 0.37941 -0.10715
# Poissons Ratio (y) = 0.08009 0.44326
# Poissons Ratio (z) = -0.04035 0.79080
#
# Static dielectric constant tensor:
#      x y z
#    x 1.794200 0.000000 0.000000 
#    y 0.000000 1.634930 0.000000 
#    z 0.000000 0.000000 1.599620 
# 
# From -- ./inp_files/46497.got.cif
#   From: 2010.05.17/outbox.cif.g08.bks.cpg/sg64_24_cif.got.tgz:46497.got - 2010.06.03 16:29:19.
