data_PCOD9476443
_publ_section_title
;
Structure prediction by ZEFSAII (Michael W. Deem and Ramdas Pophale) SiO2 
 PCOD9476443
Probable space group: C M C A
;
_chemical_formula_sum "Si O2"
_cell_formula_units_Z 104
_cell_length_a 26.365087
_cell_length_b 8.791055
_cell_length_c 22.119772
_cell_angle_alpha 90.000000
_cell_angle_beta 90.000000
_cell_angle_gamma 90.000000
_cell_volume 5126.852844
_symmetry_space_group_name_H-M "C M C A"
_symmetry_group_IT_number 64
_symmetry_cell_setting 'orthorhombic'
loop_
_space_group_symop_operation_xyz
x,y,z
-x,1/2-y,1/2+z
x,-y,-z
-x,1/2+y,1/2-z
-x,-y,-z
x,1/2+y,1/2-z
-x,y,z
x,1/2-y,1/2+z
1/2+x,1/2+y,z
1/2-x,-y,1/2+z
1/2+x,1/2-y,-z
1/2-x,y,1/2-z
1/2-x,1/2-y,-z
1/2+x,y,1/2-z
1/2-x,1/2+y,z
1/2+x,-y,1/2+z
loop_
_atom_site_type_symbol
_atom_site_label
_atom_site_fract_x
_atom_site_fract_y
_atom_site_fract_z
Si Si1 0.250000 0.173740 0.250000
Si Si2 0.000000 0.260782 0.746093
Si Si3 0.500000 0.468536 0.164813
Si Si4 0.940655 0.048393 0.403947
Si Si5 0.179593 0.581289 0.695648
Si Si6 0.892439 0.571511 0.388302
Si Si7 0.895735 0.136206 0.693039
Si Si8 0.059684 0.754092 0.988118
O O1 0.217905 0.278155 0.296197
O O2 0.212559 0.065931 0.212785
O O3 0.000000 0.435858 0.727592
O O4 0.050137 0.193827 0.716052
O O5 0.000000 0.204759 0.814536
O O6 0.551375 0.515241 0.131670
O O7 0.905410 0.014412 0.346863
O O8 0.928640 0.195287 0.444580
O O9 0.000000 0.048287 0.388754
O O10 0.936490 0.897549 0.446415
O O11 0.148881 0.550615 0.633899
O O12 0.138987 0.603534 0.749747
O O13 0.902711 0.627656 0.456403
O O14 0.878442 0.723747 0.349426
O O15 0.000000 0.802006 0.986870
#
# Coordination Sequence:
#
# PCOD9476443 Si02
#       8
#     8   8   8  16  16  16  16  16
#     4  10  24  38  48  68  90 122 160 218 252 294
#     4  10  18  26  39  67 107 127 154 179 222 276
#     4  10  18  26  39  67 107 127 154 179 222 276
#     4   8  13  22  38  65 103 137 160 185 218 265
#     4  11  20  35  52  68  94 121 164 201 256 288
#     4  10  17  27  45  71  98 133 157 189 227 288
#     4  10  17  27  45  71  98 133 157 189 227 288
#     4   8  13  22  38  65 103 137 160 185 218 265
#
# _framework density 20.285349
#
# number of rings (size 3 to 8) (size 9 to 14) (size 15 to 20)
#    0.000    2.462    4.615    0.923    0.000    0.000 
#    0.000    0.000    0.000    0.000    0.000    7.538 
#    0.000    3.692    0.000    0.000    0.000    0.000 
#
# Total GULP energy -290253.759427 kJ/mol
# GULP energy per Si atom -5581.803066 kJ/mol
# Density = 2.023918 g / cm^3
# Si number density = 20.285349 Si / 1000 Ang^3
#
#
#
# Elastic Constant Matrix: (Units=GPa)
#
#
# Indices 1 2 3 4 5 6 
#
# 1 80.9537 33.1502 12.8228 0.0000 0.0000 0.0000
# 2 33.1502 78.6634 34.6618 0.0000 0.0000 0.0000
# 3 12.8228 34.6618 39.9523 0.0000 0.0000 0.0000
# 4 0.0000 0.0000 0.0000 34.6435 0.0000 0.0000
# 5 0.0000 0.0000 0.0000 0.0000 16.4022 0.0000
# 6 0.0000 0.0000 0.0000 0.0000 0.0000 10.6336
#
#
#
# Elastic Compliance Matrix: (Units=1/GPa)
#
#
# Indices 1 2 3 4 5 6 
#
# 1 0.014958 -0.006780 0.001081 0.000000 0.000000 0.000000
# 2 -0.006780 0.023653 -0.018345 0.000000 0.000000 0.000000
# 3 0.001081 -0.018345 0.040598 0.000000 0.000000 0.000000
# 4 0.000000 0.000000 0.000000 0.028865 0.000000 0.000000
# 5 0.000000 0.000000 0.000000 0.000000 0.060967 0.000000
# 6 0.000000 0.000000 0.000000 0.000000 0.000000 0.094042
#
#
# Mechanical properties :
#
#
# Convention : Reuss Voigt Hill
#
# Bulk Modulus (GPa) = 32.13120 40.09323 36.11222
# Shear Modulus (GPa) = 15.54997 20.26483 17.90740
#
# Velocity S-wave (km/s) = 2.77169 3.16411 2.97438
# Velocity P-wave (km/s) = 5.11048 5.75815 5.44396
#
# Compressibility (1/GPa) = 0.03112240
#
# Stress axis : x y z
#
# Youngs Moduli (GPa) = 66.85454 42.27806 24.63164
#
# Poissons Ratio (x) = 0.28665 -0.02664
# Poissons Ratio (y) = 0.45328 0.45186
# Poissons Ratio (z) = -0.07230 0.77558
#
# Static dielectric constant tensor:
#      x y z
#    x 1.699560 0.000000 0.000000 
#    y 0.000000 1.813340 0.000000 
#    z 0.000000 0.000000 1.762260 
# 
# From -- ./inp_files/47178.got.cif
#   From: 2010.05.17/outbox.cif.g08.bks.cpg/sg64_24_cif.got.tgz:47178.got - 2010.06.03 16:29:19.
