data_PCOD9476341
_publ_section_title
;
Structure prediction by ZEFSAII (Michael W. Deem and Ramdas Pophale) SiO2 
 PCOD9476341
Probable space group: C M C A
;
_chemical_formula_sum "Si O2"
_cell_formula_units_Z 88
_cell_length_a 24.007039
_cell_length_b 5.215636
_cell_length_c 40.240913
_cell_angle_alpha 90.000000
_cell_angle_beta 90.000000
_cell_angle_gamma 90.000000
_cell_volume 5038.644267
_symmetry_space_group_name_H-M "C M C A"
_symmetry_group_IT_number 64
_symmetry_cell_setting 'orthorhombic'
loop_
_space_group_symop_operation_xyz
x,y,z
-x,1/2-y,1/2+z
x,-y,-z
-x,1/2+y,1/2-z
-x,-y,-z
x,1/2+y,1/2-z
-x,y,z
x,1/2-y,1/2+z
1/2+x,1/2+y,z
1/2-x,-y,1/2+z
1/2+x,1/2-y,-z
1/2-x,y,1/2-z
1/2-x,1/2-y,-z
1/2+x,y,1/2-z
1/2-x,1/2+y,z
1/2+x,-y,1/2+z
loop_
_atom_site_type_symbol
_atom_site_label
_atom_site_fract_x
_atom_site_fract_y
_atom_site_fract_z
Si Si1 0.813428 0.060020 0.735853
Si Si2 0.500000 0.442974 0.398369
Si Si3 0.379168 0.532997 0.395792
Si Si4 0.878046 0.532884 0.441630
Si Si5 0.288862 0.500000 0.000000
Si Si6 0.286910 0.548447 0.339716
Si Si7 0.500000 0.943238 0.441573
O O1 0.839983 0.834525 0.757394
O O2 0.750000 0.093932 0.750000
O O3 0.810251 0.984191 0.697569
O O4 0.441544 0.501831 0.381145
O O5 0.500000 0.149360 0.411001
O O6 0.500000 0.648304 0.429177
O O7 0.373751 0.305116 0.422890
O O8 0.333324 0.510445 0.367543
O O9 0.374347 0.804386 0.414632
O O10 0.829322 0.504230 0.468159
O O11 0.940055 0.502055 0.457637
O O12 0.250000 0.750000 0.000000
O O13 0.240546 0.327309 0.343243
#
# Coordination Sequence:
#
# PCOD9476341 Si02
#       7
#    16   8  16  16   8  16   8
#     4  10  16  30  46  63 100 134 162 200 242 295
#     4   8  16  34  52  73 100 133 162 201 268 303
#     4  10  21  35  55  77 104 131 168 219 254 296
#     4  10  21  39  55  77 100 132 175 216 257 297
#     4  12  26  39  56  73 106 150 176 190 256 328
#     4  12  21  30  48  78 104 133 169 200 254 306
#     4   8  16  33  60  76  94 121 166 227 260 283
#
# _framework density 17.465015000000001
#
# number of rings (size 3 to 8) (size 9 to 14) (size 15 to 20)
#    0.000    1.818    3.636    2.182    0.000    4.727 
#    0.000    0.000    0.000    7.636    0.000    1.273 
#    0.000    0.000    0.000    0.000    0.000    0.000 
#
# Total GULP energy -245249.204530 kJ/mol
# GULP energy per Si atom -5573.845558 kJ/mol
# Density = 1.742526 g / cm^3
# Si number density = 17.465015 Si / 1000 Ang^3
#
#
#
# Elastic Constant Matrix: (Units=GPa)
#
#
# Indices 1 2 3 4 5 6 
#
# 1 83.2374 -1.2891 37.2042 0.0000 0.0000 0.0000
# 2 -1.2891 89.5394 -4.4974 0.0000 0.0000 0.0000
# 3 37.2042 -4.4974 53.5715 0.0000 0.0000 0.0000
# 4 0.0000 0.0000 0.0000 17.2020 0.0000 0.0000
# 5 0.0000 0.0000 0.0000 0.0000 -7.4237 0.0000
# 6 0.0000 0.0000 0.0000 0.0000 0.0000 19.1867
#
#
#
# Elastic Compliance Matrix: (Units=1/GPa)
#
#
# Indices 1 2 3 4 5 6 
#
# 1 0.017433 -0.000359 -0.012137 0.000000 0.000000 0.000000
# 2 -0.000359 0.011223 0.001191 0.000000 0.000000 0.000000
# 3 -0.012137 0.001191 0.027196 0.000000 0.000000 0.000000
# 4 0.000000 0.000000 0.000000 0.058133 0.000000 0.000000
# 5 0.000000 0.000000 0.000000 0.000000 -0.134703 0.000000
# 6 0.000000 0.000000 0.000000 0.000000 0.000000 0.052119
#
#
# Mechanical properties :
#
#
# Convention : Reuss Voigt Hill
#
# Bulk Modulus (GPa) = 30.08173 32.13152 31.10662
# Shear Modulus (GPa) = 76.81582 18.78835 47.80209
#
# Velocity S-wave (km/s) = 6.63914 3.28345 5.23733
# Velocity P-wave (km/s) = 8.71965 5.72821 7.37715
#
# Compressibility (1/GPa) = 0.03324277
#
# Stress axis : x y z
#
# Youngs Moduli (GPa) = 57.36220 89.10325 36.77077
#
# Poissons Ratio (x) = 0.03195 0.44629
# Poissons Ratio (y) = 0.02057 -0.04380
# Poissons Ratio (z) = 0.69620 -0.10614
#
# Static dielectric constant tensor:
#      x y z
#    x 1.721200 0.000000 0.000000 
#    y 0.000000 1.636960 0.000000 
#    z 0.000000 0.000000 1.564500 
# 
# From -- ./inp_files/53901.got.cif
#   From: 2010.05.17/outbox.cif.g08.bks.cpg/sg64_27_cif.got.tgz:53901.got - 2010.06.03 16:29:19.
