data_PCOD9476178
_publ_section_title
;
Structure prediction by ZEFSAII (Michael W. Deem and Ramdas Pophale) SiO2 
 PCOD9476178
Probable space group: C M C M
;
_chemical_formula_sum "Si O2"
_cell_formula_units_Z 56
_cell_length_a 15.000000
_cell_length_b 15.000000
_cell_length_c 24.000000
_cell_angle_alpha 90.000000
_cell_angle_beta 90.000000
_cell_angle_gamma 90.000000
_cell_volume 5400.000000
_symmetry_space_group_name_H-M "C M C M"
_symmetry_group_IT_number 63
_symmetry_cell_setting 'orthorhombic'
loop_
_space_group_symop_operation_xyz
x,y,z
-x,-y,1/2+z
x,-y,-z
-x,y,1/2-z
-x,-y,-z
x,y,1/2-z
-x,y,z
x,-y,1/2+z
1/2+x,1/2+y,z
1/2-x,1/2-y,1/2+z
1/2+x,1/2-y,-z
1/2-x,1/2+y,1/2-z
1/2-x,1/2-y,-z
1/2+x,1/2+y,1/2-z
1/2-x,1/2+y,z
1/2+x,1/2-y,1/2+z
loop_
_atom_site_type_symbol
_atom_site_label
_atom_site_fract_x
_atom_site_fract_y
_atom_site_fract_z
Si Si1 0.600129 0.814441 0.084590
Si Si2 0.265736 0.103481 0.998830
Si Si3 0.393354 0.303810 0.185934
Si Si4 0.299725 0.879576 0.683764
Si Si5 0.892441 0.437480 0.185780
Si Si6 0.101193 0.076956 0.919043
Si Si7 0.655849 0.621155 0.398014
O O1 0.500000 0.846460 0.073886
O O2 0.662526 0.838684 0.033155
O O3 0.634098 0.863259 0.140770
O O4 0.600211 0.709590 0.094988
O O5 0.173537 0.107247 0.963938
O O6 0.241153 0.130988 0.060960
O O7 0.294339 0.000000 0.000000
O O8 0.367338 0.325567 0.250000
O O9 0.500000 0.288184 0.186299
O O10 0.345187 0.213339 0.166993
O O11 0.376007 0.380399 0.140867
O O12 0.303818 0.879867 0.750000
O O13 0.199309 0.885118 0.662407
O O14 0.352373 0.968374 0.666107
O O15 0.864359 0.419058 0.250000
O O16 0.000000 0.443004 0.186411
O O17 0.000000 0.102205 0.934049
O O18 0.108639 0.970302 0.914222
#
# Coordination Sequence:
#
# PCOD9476178 Si02
#       7
#    16  16  16  16  16  16  16
#     4  11  23  39  59  83 116 156 190 228 282 339
#     4  10  22  40  60  82 112 146 190 243 283 326
#     4   9  18  34  57  85 114 144 186 241 289 327
#     4  10  20  35  58  84 111 148 190 233 285 337
#     4   9  18  34  56  82 112 147 190 237 282 333
#     4  10  21  38  61  86 113 148 188 231 283 338
#     4  11  23  38  55  82 117 150 187 231 276 334
#
# _framework density 10.370369999999999
#
# number of rings (size 3 to 8) (size 9 to 14) (size 15 to 20)
#    0.000    2.000    0.000    3.857    0.000    6.286 
#    0.000    6.429    0.000    4.286    0.000    0.000 
#    0.000    0.000    0.000    0.000    0.000    0.000 
#
# Total GULP energy -312805.676640 kJ/mol
# GULP energy per Si atom -5585.815654 kJ/mol
# Density = 1.034677 g / cm^3
# Si number density = 10.370370 Si / 1000 Ang^3
#
#
#
# Elastic Constant Matrix: (Units=GPa)
#
#
# Indices 1 2 3 4 5 6 
#
# 1 40.8209 19.7086 1.9927 0.0000 0.0000 0.0000
# 2 19.7086 68.2109 35.0830 0.0000 0.0000 0.0000
# 3 1.9927 35.0830 23.6342 0.0000 0.0000 0.0000
# 4 0.0000 0.0000 0.0000 22.6470 0.0000 0.0000
# 5 0.0000 0.0000 0.0000 0.0000 1.9013 0.0000
# 6 0.0000 0.0000 0.0000 0.0000 0.0000 -15.9295
#
#
#
# Elastic Compliance Matrix: (Units=1/GPa)
#
#
# Indices 1 2 3 4 5 6 
#
# 1 0.042990 -0.044635 0.062632 0.000000 0.000000 0.000000
# 2 -0.044635 0.108327 -0.157039 0.000000 0.000000 0.000000
# 3 0.062632 -0.157039 0.270141 0.000000 0.000000 0.000000
# 4 0.000000 0.000000 0.000000 0.044156 0.000000 0.000000
# 5 0.000000 0.000000 0.000000 0.000000 0.525959 0.000000
# 6 0.000000 0.000000 0.000000 0.000000 0.000000 -0.062777
#
#
# Mechanical properties :
#
#
# Convention : Reuss Voigt Hill
#
# Bulk Modulus (GPa) = 6.97471 27.35938 17.16704
# Shear Modulus (GPa) = 3.98511 6.78253 5.38382
#
# Velocity S-wave (km/s) = 1.38765 1.81032 1.61289
# Velocity P-wave (km/s) = 2.43670 4.19398 3.42979
#
# Compressibility (1/GPa) = 0.14337523
#
# Stress axis : x y z
#
# Youngs Moduli (GPa) = 23.26122 9.23130 3.70176
#
# Poissons Ratio (x) = 0.41204 -0.23185
# Poissons Ratio (y) = 1.03827 0.58132
# Poissons Ratio (z) = -1.45691 1.44967
#
# Static dielectric constant tensor:
#      x y z
#    x 1.735230 0.000000 0.000000 
#    y 0.000000 1.732320 0.000000 
#    z 0.000000 0.000000 1.745620 
# 
# From -- ./inp_files/62964.got.cif
#   From: 2010.05.17/outbox.ucp.g08.bks.cvg/sg63_32_cif.got.tgz:62964.got - 2010.06.11 16:32:19.
