data_PCOD9476387
_publ_section_title
;
Structure prediction by ZEFSAII (Michael W. Deem and Ramdas Pophale) SiO2 
 PCOD9476387
Probable space group: C M C A
;
_chemical_formula_sum "Si O2"
_cell_formula_units_Z 104
_cell_length_a 8.252568
_cell_length_b 29.590347
_cell_length_c 21.417000
_cell_angle_alpha 90.000000
_cell_angle_beta 90.000000
_cell_angle_gamma 90.000000
_cell_volume 5229.953244
_symmetry_space_group_name_H-M "C M C A"
_symmetry_group_IT_number 64
_symmetry_cell_setting 'orthorhombic'
loop_
_space_group_symop_operation_xyz
x,y,z
-x,1/2-y,1/2+z
x,-y,-z
-x,1/2+y,1/2-z
-x,-y,-z
x,1/2+y,1/2-z
-x,y,z
x,1/2-y,1/2+z
1/2+x,1/2+y,z
1/2-x,-y,1/2+z
1/2+x,1/2-y,-z
1/2-x,y,1/2-z
1/2-x,1/2-y,-z
1/2+x,y,1/2-z
1/2-x,1/2+y,z
1/2+x,-y,1/2+z
loop_
_atom_site_type_symbol
_atom_site_label
_atom_site_fract_x
_atom_site_fract_y
_atom_site_fract_z
Si Si1 0.696348 0.288463 0.820743
Si Si2 0.693299 0.453222 0.679130
Si Si3 0.250000 0.624091 0.750000
Si Si4 0.317191 0.689982 0.638955
Si Si5 0.805939 0.128744 0.094781
Si Si6 0.190975 0.382783 0.453868
Si Si7 0.307350 0.443387 0.348606
O O1 0.500000 0.287747 0.821081
O O2 0.750000 0.296943 0.750000
O O3 0.751210 0.238830 0.843135
O O4 0.755208 0.327846 0.866786
O O5 0.500000 0.449111 0.676827
O O6 0.750000 0.446054 0.750000
O O7 0.767526 0.416066 0.633689
O O8 0.734931 0.504384 0.658859
O O9 0.328633 0.659540 0.701704
O O10 0.197362 0.587166 0.697710
O O11 0.500000 0.695556 0.614615
O O12 0.218310 0.661823 0.588149
O O13 0.000000 0.133866 0.090947
O O14 0.746118 0.124758 0.023826
O O15 0.280299 0.422964 0.416964
O O16 0.000000 0.393155 0.456156
O O17 0.500000 0.437267 0.331868
#
# Coordination Sequence:
#
# PCOD9476387 Si02
#       7
#    16  16   8  16  16  16  16
#     4  10  21  39  60  85 117 152 192 241 290 342
#     4  11  23  40  62  89 117 151 194 241 293 344
#     4  10  16  32  56  82 112 146 178 232 282 340
#     4  10  21  36  57  86 118 151 189 238 291 346
#     4  10  23  42  60  82 118 159 200 241 286 339
#     4  10  22  38  58  86 118 156 196 240 288 343
#     4  10  22  38  58  86 118 152 190 236 293 351
#
# _framework density 19.885453999999999
#
# number of rings (size 3 to 8) (size 9 to 14) (size 15 to 20)
#    0.000    1.846    1.538    2.769    0.000   11.077 
#    0.000    3.077    0.000    0.000    0.000    0.000 
#    0.000    0.000    0.000    0.000    0.000    0.000 
#
# Total GULP energy -289893.989404 kJ/mol
# GULP energy per Si atom -5574.884412 kJ/mol
# Density = 1.984019 g / cm^3
# Si number density = 19.885454 Si / 1000 Ang^3
#
#
#
# Elastic Constant Matrix: (Units=GPa)
#
#
# Indices 1 2 3 4 5 6 
#
# 1 17.1146 6.0909 9.0809 0.0000 0.0000 0.0000
# 2 6.0909 134.9052 81.0508 0.0000 0.0000 0.0000
# 3 9.0809 81.0508 165.8923 0.0000 0.0000 0.0000
# 4 0.0000 0.0000 0.0000 -0.3254 0.0000 0.0000
# 5 0.0000 0.0000 0.0000 0.0000 21.1290 0.0000
# 6 0.0000 0.0000 0.0000 0.0000 0.0000 20.1765
#
#
#
# Elastic Compliance Matrix: (Units=1/GPa)
#
#
# Indices 1 2 3 4 5 6 
#
# 1 0.060282 -0.001046 -0.002789 0.000000 0.000000 0.000000
# 2 -0.001046 0.010511 -0.005078 0.000000 0.000000 0.000000
# 3 -0.002789 -0.005078 0.008662 0.000000 0.000000 0.000000
# 4 0.000000 0.000000 0.000000 -3.073355 0.000000 0.000000
# 5 0.000000 0.000000 0.000000 0.000000 0.047328 0.000000
# 6 0.000000 0.000000 0.000000 0.000000 0.000000 0.049563
#
#
# Mechanical properties :
#
#
# Convention : Reuss Voigt Hill
#
# Bulk Modulus (GPa) = 16.22631 56.70636 36.46633
# Shear Modulus (GPa) = -1.74908 22.97533 10.61312
#
# Velocity S-wave (km/s) = -0.93888 3.40278 2.31273
# Velocity P-wave (km/s) = 2.64618 6.63453 5.05071
#
# Compressibility (1/GPa) = 0.06162832
#
# Stress axis : x y z
#
# Youngs Moduli (GPa) = 16.58876 95.14114 115.45174
#
# Poissons Ratio (x) = 0.09955 0.32195
# Poissons Ratio (y) = 0.01736 0.58626
# Poissons Ratio (z) = 0.04626 0.48313
#
# Static dielectric constant tensor:
#      x y z
#    x 1.710610 0.000000 0.000000 
#    y 0.000000 1.690140 0.000000 
#    z 0.000000 0.000000 1.673520 
# 
# From -- ./inp_files/37403.got.cif
#   From: 2010.05.17/outbox.cif.g08.bks.cpg/sg64_19_cif.got.tgz:37403.got - 2010.06.03 16:29:19.
