data_PCOD9476165
_publ_section_title
;
Structure prediction by ZEFSAII (Michael W. Deem and Ramdas Pophale) SiO2 
 PCOD9476165
Probable space group: C M C M
;
_chemical_formula_sum "Si O2"
_cell_formula_units_Z 36
_cell_length_a 27.000000
_cell_length_b 15.000000
_cell_length_c 9.000000
_cell_angle_alpha 90.000000
_cell_angle_beta 90.000000
_cell_angle_gamma 90.000000
_cell_volume 3645.000000
_symmetry_space_group_name_H-M "C M C M"
_symmetry_group_IT_number 63
_symmetry_cell_setting 'orthorhombic'
loop_
_space_group_symop_operation_xyz
x,y,z
-x,-y,1/2+z
x,-y,-z
-x,y,1/2-z
-x,-y,-z
x,y,1/2-z
-x,y,z
x,-y,1/2+z
1/2+x,1/2+y,z
1/2-x,1/2-y,1/2+z
1/2+x,1/2-y,-z
1/2-x,1/2+y,1/2-z
1/2-x,1/2-y,-z
1/2+x,1/2+y,1/2-z
1/2-x,1/2+y,z
1/2+x,1/2-y,1/2+z
loop_
_atom_site_type_symbol
_atom_site_label
_atom_site_fract_x
_atom_site_fract_y
_atom_site_fract_z
Si Si1 0.786068 0.373642 0.581682
Si Si2 0.088696 0.207349 0.427805
Si Si3 0.309849 0.337047 0.081613
Si Si4 0.000000 0.098007 0.927847
Si Si5 0.110521 0.411015 0.427194
O O1 0.786367 0.409405 0.750000
O O2 0.734813 0.389174 0.496618
O O3 0.792547 0.266346 0.592780
O O4 0.833522 0.404682 0.489455
O O5 0.083574 0.198421 0.250000
O O6 0.141220 0.168105 0.481867
O O7 0.046971 0.153281 0.513410
O O8 0.087312 0.313841 0.463258
O O9 0.319666 0.368277 0.250000
O O10 0.000000 0.091313 0.750000
O O11 0.000000 0.000000 0.000000
O O12 0.087636 0.500000 0.500000
O O13 0.110741 0.420248 0.250000
#
# Coordination Sequence:
#
# PCOD9476165 Si02
#       5
#    16  16  16   8  16
#     4   9  16  27  46  74 111 154 197 237 278 328
#     4  10  21  39  62  88 118 153 194 241 294 349
#     4   9  16  28  49  78 111 149 193 237 283 335
#     4  12  26  46  71  94 115 142 181 234 296 356
#     4  10  20  34  55  84 121 162 201 240 283 338
#
# _framework density 9.8765429999999999
#
# number of rings (size 3 to 8) (size 9 to 14) (size 15 to 20)
#    0.000    2.222    0.000    3.667    0.000    8.000 
#    0.000    1.667    0.000    0.000    0.000    0.000 
#    0.000    0.000    0.000    0.000    0.000    0.000 
#
# Total GULP energy -200986.623083 kJ/mol
# GULP energy per Si atom -5582.961752 kJ/mol
# Density = 0.985406 g / cm^3
# Si number density = 9.876543 Si / 1000 Ang^3
#
#
#
# Elastic Constant Matrix: (Units=GPa)
#
#
# Indices 1 2 3 4 5 6 
#
# 1 80.8248 56.2995 55.1819 0.0000 0.0000 0.0000
# 2 56.2995 116.1089 70.4904 0.0000 0.0000 0.0000
# 3 55.1819 70.4904 144.8157 0.0000 0.0000 0.0000
# 4 0.0000 0.0000 0.0000 27.9007 0.0000 0.0000
# 5 0.0000 0.0000 0.0000 0.0000 29.3362 0.0000
# 6 0.0000 0.0000 0.0000 0.0000 0.0000 7.5929
#
#
#
# Elastic Compliance Matrix: (Units=1/GPa)
#
#
# Indices 1 2 3 4 5 6 
#
# 1 0.020324 -0.007315 -0.004184 0.000000 0.000000 0.000000
# 2 -0.007315 0.014858 -0.004445 0.000000 0.000000 0.000000
# 3 -0.004184 -0.004445 0.010663 0.000000 0.000000 0.000000
# 4 0.000000 0.000000 0.000000 0.035841 0.000000 0.000000
# 5 0.000000 0.000000 0.000000 0.000000 0.034088 0.000000
# 6 0.000000 0.000000 0.000000 0.000000 0.000000 0.131703
#
#
# Mechanical properties :
#
#
# Convention : Reuss Voigt Hill
#
# Bulk Modulus (GPa) = 71.64363 78.41035 75.02699
# Shear Modulus (GPa) = 17.60457 23.61779 20.61118
#
# Velocity S-wave (km/s) = 2.98859 3.46157 3.23374
# Velocity P-wave (km/s) = 6.94674 7.46713 7.21163
#
# Compressibility (1/GPa) = 0.01395798
#
# Stress axis : x y z
#
# Youngs Moduli (GPa) = 49.20248 67.30368 93.77987
#
# Poissons Ratio (x) = 0.49231 0.39237
# Poissons Ratio (y) = 0.35991 0.41685
# Poissons Ratio (z) = 0.20586 0.29916
#
# Static dielectric constant tensor:
#      x y z
#    x 1.678810 0.000000 0.000000 
#    y 0.000000 1.730390 0.000000 
#    z 0.000000 0.000000 1.673430 
# 
# From -- ./inp_files/11693.got.cif
#   From: 2010.05.17/outbox.ucp.g08.bks.cvg/sg63_6_cif.got.tgz:11693.got - 2010.06.11 16:32:19.
