data_PCOD9476750
_publ_section_title
;
Structure prediction by ZEFSAII (Michael W. Deem and Ramdas Pophale) SiO2 
 PCOD9476750
Probable space group: C M C A
;
_chemical_formula_sum "Si O2"
_cell_formula_units_Z 96
_cell_length_a 26.562744
_cell_length_b 13.649876
_cell_length_c 11.330573
_cell_angle_alpha 90.000000
_cell_angle_beta 90.000000
_cell_angle_gamma 90.000000
_cell_volume 4108.218331
_symmetry_space_group_name_H-M "C M C A"
_symmetry_group_IT_number 64
_symmetry_cell_setting 'orthorhombic'
loop_
_space_group_symop_operation_xyz
x,y,z
-x,1/2-y,1/2+z
x,-y,-z
-x,1/2+y,1/2-z
-x,-y,-z
x,1/2+y,1/2-z
-x,y,z
x,1/2-y,1/2+z
1/2+x,1/2+y,z
1/2-x,-y,1/2+z
1/2+x,1/2-y,-z
1/2-x,y,1/2-z
1/2-x,1/2-y,-z
1/2+x,y,1/2-z
1/2-x,1/2+y,z
1/2+x,-y,1/2+z
loop_
_atom_site_type_symbol
_atom_site_label
_atom_site_fract_x
_atom_site_fract_y
_atom_site_fract_z
Si Si1 0.303638 0.711614 0.955648
Si Si2 0.126593 0.835392 0.233897
Si Si3 0.355745 0.920361 0.910738
Si Si4 0.363431 0.118137 0.338326
Si Si5 0.057261 0.370103 0.053391
Si Si6 0.443624 0.860515 0.491678
O O1 0.334771 0.813674 0.948007
O O2 0.324111 0.640490 0.058243
O O3 0.250000 0.750000 0.000000
O O4 0.317852 0.660119 0.829650
O O5 0.125359 0.723032 0.278320
O O6 0.098904 0.887772 0.344170
O O7 0.089611 0.856079 0.125265
O O8 0.415863 0.912013 0.936058
O O9 0.344879 0.942334 0.773772
O O10 0.333497 0.000000 0.000000
O O11 0.413567 0.083443 0.404972
O O12 0.054033 0.252987 0.034155
O O13 0.000000 0.403296 0.076440
O O14 0.500000 0.893636 0.470543
#
# Coordination Sequence:
#
# PCOD9476750 Si02
#       6
#    16  16  16  16  16  16
#     4  10  20  37  65  83 110 155 204 253 308 361
#     4   9  15  30  50  81 107 139 199 248 288 330
#     4  11  22  37  57  88 128 150 191 254 306 363
#     4   9  17  34  52  81 115 153 192 238 293 357
#     4  10  18  30  50  79 117 160 192 234 299 364
#     4   9  15  25  49  80 107 143 201 249 279 330
#
# _framework density 23.367795000000001
#
# number of rings (size 3 to 8) (size 9 to 14) (size 15 to 20)
#    0.000    2.333    6.667    0.500    0.000    4.333 
#    0.000    0.000    7.333    3.000    0.000    5.833 
#    0.000    0.000    0.000    0.000    0.000    0.000 
#
# Total GULP energy -267437.683961 kJ/mol
# GULP energy per Si atom -5571.618416 kJ/mol
# Density = 2.331461 g / cm^3
# Si number density = 23.367795 Si / 1000 Ang^3
#
#
#
# Elastic Constant Matrix: (Units=GPa)
#
#
# Indices 1 2 3 4 5 6 
#
# 1 121.1821 -13.1308 20.1117 0.0000 0.0000 0.0000
# 2 -13.1308 61.0968 0.3389 0.0000 0.0000 0.0000
# 3 20.1117 0.3389 123.3527 0.0000 0.0000 0.0000
# 4 0.0000 0.0000 0.0000 35.1874 0.0000 0.0000
# 5 0.0000 0.0000 0.0000 0.0000 16.3757 0.0000
# 6 0.0000 0.0000 0.0000 0.0000 0.0000 6.8929
#
#
#
# Elastic Compliance Matrix: (Units=1/GPa)
#
#
# Indices 1 2 3 4 5 6 
#
# 1 0.008691 0.001876 -0.001422 0.000000 0.000000 0.000000
# 2 0.001876 0.016773 -0.000352 0.000000 0.000000 0.000000
# 3 -0.001422 -0.000352 0.008340 0.000000 0.000000 0.000000
# 4 0.000000 0.000000 0.000000 0.028419 0.000000 0.000000
# 5 0.000000 0.000000 0.000000 0.000000 0.061066 0.000000
# 6 0.000000 0.000000 0.000000 0.000000 0.000000 0.145077
#
#
# Mechanical properties :
#
#
# Convention : Reuss Voigt Hill
#
# Bulk Modulus (GPa) = 29.40574 35.58568 32.49571
# Shear Modulus (GPa) = 17.88924 31.57866 24.73395
#
# Velocity S-wave (km/s) = 2.76986 3.68009 3.25693
# Velocity P-wave (km/s) = 4.77919 5.77226 5.29904
#
# Compressibility (1/GPa) = 0.03400697
#
# Stress axis : x y z
#
# Youngs Moduli (GPa) = 115.05718 59.62115 119.90860
#
# Poissons Ratio (x) = -0.11184 0.17053
# Poissons Ratio (y) = -0.21583 0.04220
# Poissons Ratio (z) = 0.16364 0.02098
#
# Static dielectric constant tensor:
#      x y z
#    x 1.893430 0.000000 0.000000 
#    y 0.000000 2.012270 0.000000 
#    z 0.000000 0.000000 1.929910 
# 
# From -- ./inp_files/19133.got.cif
#   From: 2010.05.17/outbox.cif.g08.bks.cpg/sg64_10_cif.got.tgz:19133.got - 2010.06.03 16:29:19.
