data_PCOD9476066
_publ_section_title
;
Structure prediction by ZEFSAII (Michael W. Deem and Ramdas Pophale) SiO2 
 PCOD9476066
Probable space group: C M C M
;
_chemical_formula_sum "Si O2"
_cell_formula_units_Z 36
_cell_length_a 21.000000
_cell_length_b 24.000000
_cell_length_c 9.000000
_cell_angle_alpha 90.000000
_cell_angle_beta 90.000000
_cell_angle_gamma 90.000000
_cell_volume 4536.000000
_symmetry_space_group_name_H-M "C M C M"
_symmetry_group_IT_number 63
_symmetry_cell_setting 'orthorhombic'
loop_
_space_group_symop_operation_xyz
x,y,z
-x,-y,1/2+z
x,-y,-z
-x,y,1/2-z
-x,-y,-z
x,y,1/2-z
-x,y,z
x,-y,1/2+z
1/2+x,1/2+y,z
1/2-x,1/2-y,1/2+z
1/2+x,1/2-y,-z
1/2-x,1/2+y,1/2-z
1/2-x,1/2-y,-z
1/2+x,1/2+y,1/2-z
1/2-x,1/2+y,z
1/2+x,1/2-y,1/2+z
loop_
_atom_site_type_symbol
_atom_site_label
_atom_site_fract_x
_atom_site_fract_y
_atom_site_fract_z
Si Si1 0.192389 0.175470 0.417839
Si Si2 0.500000 0.060610 0.072144
Si Si3 0.375564 0.111411 0.926416
Si Si4 0.338758 0.780857 0.917051
Si Si5 0.751204 0.059281 0.429436
O O1 0.166603 0.179319 0.250000
O O2 0.264679 0.199760 0.411646
O O3 0.157568 0.217250 0.529279
O O4 0.200430 0.110672 0.459645
O O5 0.500000 0.058109 0.250000
O O6 0.437729 0.090487 0.009819
O O7 0.500000 0.000000 0.000000
O O8 0.378167 0.102173 0.750000
O O9 0.368387 0.176564 0.965725
O O10 0.315214 0.078886 0.996445
O O11 0.364202 0.788434 0.750000
O O12 0.744012 0.055449 0.250000
O O13 0.769319 0.000000 0.500000
#
# Coordination Sequence:
#
# PCOD9476066 Si02
#       5
#    16   8  16  16  16
#     4   8  15  26  40  59  82 107 135 168 205 248
#     4  12  24  38  50  62  82 108 143 182 219 254
#     4  11  21  33  47  62  81 108 142 178 217 254
#     4   9  16  27  43  62  81 103 134 171 210 249
#     4  10  19  30  43  61  85 113 144 175 210 250
#
# _framework density 7.9365079999999999
#
# number of rings (size 3 to 8) (size 9 to 14) (size 15 to 20)
#    0.000    2.222    0.000    6.333    0.000    6.222 
#    0.000    0.000    0.000    0.000    0.000    0.000 
#    0.000    0.000    0.000    1.000    0.000   13.556 
#
# Total GULP energy -200603.135692 kJ/mol
# GULP energy per Si atom -5572.309325 kJ/mol
# Density = 0.791844 g / cm^3
# Si number density = 7.936508 Si / 1000 Ang^3
#
#
#
# Elastic Constant Matrix: (Units=GPa)
#
#
# Indices 1 2 3 4 5 6 
#
# 1 12.2378 9.8458 13.7268 0.0000 0.0000 0.0000
# 2 9.8458 126.1897 46.8461 0.0000 0.0000 0.0000
# 3 13.7268 46.8461 115.4166 0.0000 0.0000 0.0000
# 4 0.0000 0.0000 0.0000 30.3804 0.0000 0.0000
# 5 0.0000 0.0000 0.0000 0.0000 15.6910 0.0000
# 6 0.0000 0.0000 0.0000 0.0000 0.0000 9.8379
#
#
#
# Elastic Compliance Matrix: (Units=1/GPa)
#
#
# Indices 1 2 3 4 5 6 
#
# 1 0.095834 -0.003822 -0.009847 0.000000 0.000000 0.000000
# 2 -0.003822 0.009483 -0.003394 0.000000 0.000000 0.000000
# 3 -0.009847 -0.003394 0.011213 0.000000 0.000000 0.000000
# 4 0.000000 0.000000 0.000000 0.032916 0.000000 0.000000
# 5 0.000000 0.000000 0.000000 0.000000 0.063731 0.000000
# 6 0.000000 0.000000 0.000000 0.000000 0.000000 0.101648
#
#
# Mechanical properties :
#
#
# Convention : Reuss Voigt Hill
#
# Bulk Modulus (GPa) = 12.13532 43.85350 27.99441
# Shear Modulus (GPa) = 13.28308 23.41021 18.34664
#
# Velocity S-wave (km/s) = 2.89595 3.84453 3.40345
# Velocity P-wave (km/s) = 4.34095 6.88440 5.75495
#
# Compressibility (1/GPa) = 0.08240409
#
# Stress axis : x y z
#
# Youngs Moduli (GPa) = 10.43472 105.45283 89.18141
#
# Poissons Ratio (x) = 0.40303 0.87813
# Poissons Ratio (y) = 0.03988 0.30272
# Poissons Ratio (z) = 0.10275 0.35795
#
# Static dielectric constant tensor:
#      x y z
#    x 1.515560 0.000000 0.000000 
#    y 0.000000 1.629210 0.000000 
#    z 0.000000 0.000000 1.398790 
# 
# From -- ./inp_files/6111.got.cif
#   From: 2010.05.17/outbox.ucp.g08.bks.cvg/sg63_4_cif.got.tgz:6111.got - 2010.06.11 16:32:19.
