data_PCOD9476506
_publ_section_title
;
Structure prediction by ZEFSAII (Michael W. Deem and Ramdas Pophale) SiO2 
 PCOD9476506
Probable space group: C M C A
;
_chemical_formula_sum "Si O2"
_cell_formula_units_Z 96
_cell_length_a 10.513263
_cell_length_b 28.198389
_cell_length_c 18.729942
_cell_angle_alpha 90.000000
_cell_angle_beta 90.000000
_cell_angle_gamma 90.000000
_cell_volume 5552.623909
_symmetry_space_group_name_H-M "C M C A"
_symmetry_group_IT_number 64
_symmetry_cell_setting 'orthorhombic'
loop_
_space_group_symop_operation_xyz
x,y,z
-x,1/2-y,1/2+z
x,-y,-z
-x,1/2+y,1/2-z
-x,-y,-z
x,1/2+y,1/2-z
-x,y,z
x,1/2-y,1/2+z
1/2+x,1/2+y,z
1/2-x,-y,1/2+z
1/2+x,1/2-y,-z
1/2-x,y,1/2-z
1/2-x,1/2-y,-z
1/2+x,y,1/2-z
1/2-x,1/2+y,z
1/2+x,-y,1/2+z
loop_
_atom_site_type_symbol
_atom_site_label
_atom_site_fract_x
_atom_site_fract_y
_atom_site_fract_z
Si Si1 0.351570 0.527768 0.069356
Si Si2 0.000000 0.821168 0.572452
Si Si3 0.500000 0.698283 0.079473
Si Si4 0.500000 0.192593 0.899614
Si Si5 0.000000 0.713765 0.592550
Si Si6 0.263981 0.132492 0.434722
Si Si7 0.352508 0.947124 0.311607
Si Si8 0.767950 0.352414 0.393540
O O1 0.500000 0.539311 0.053695
O O2 0.285513 0.577693 0.083235
O O3 0.346548 0.491367 0.134405
O O4 0.300101 0.500000 0.000000
O O5 0.000000 0.813483 0.486157
O O6 0.000000 0.769322 0.606833
O O7 0.872189 0.848989 0.590161
O O8 0.500000 0.750716 0.113690
O O9 0.624537 0.666678 0.094260
O O10 0.500000 0.707290 0.993709
O O11 0.371430 0.167081 0.873495
O O12 0.873885 0.687704 0.619548
O O13 0.268377 0.136861 0.521350
O O14 0.500000 0.942408 0.287624
O O15 0.250000 0.954323 0.250000
O O16 0.311183 0.899611 0.353348
#
# Coordination Sequence:
#
# PCOD9476506 Si02
#       8
#    16   8   8   8   8  16  16  16
#     4  10  19  34  59  82 104 140 187 231 273 331
#     4   9  18  28  42  76 122 141 168 214 272 321
#     4   9  16  26  48  76 110 141 180 214 256 317
#     4   9  18  28  44  77 115 146 166 214 266 316
#     4   9  16  28  48  73 107 150 174 208 258 320
#     4  10  17  30  50  81 111 143 177 221 276 324
#     4  11  24  40  57  80 108 144 186 229 274 334
#     4  10  18  31  52  76 108 146 180 214 271 326
#
# _framework density 17.289124000000001
#
# number of rings (size 3 to 8) (size 9 to 14) (size 15 to 20)
#    0.000    2.167    3.333    1.000    1.167    4.000 
#    1.500    0.417    0.000    0.000    0.000    7.000 
#    0.000    0.000    0.000    0.000    0.000    0.000 
#
# Total GULP energy -267696.258968 kJ/mol
# GULP energy per Si atom -5577.005395 kJ/mol
# Density = 1.724977 g / cm^3
# Si number density = 17.289124 Si / 1000 Ang^3
#
#
#
# Elastic Constant Matrix: (Units=GPa)
#
#
# Indices 1 2 3 4 5 6 
#
# 1 170.6826 87.5999 23.6969 0.0000 0.0000 0.0000
# 2 87.5999 162.4871 11.7041 0.0000 0.0000 0.0000
# 3 23.6969 11.7041 18.7399 0.0000 0.0000 0.0000
# 4 0.0000 0.0000 0.0000 6.9432 0.0000 0.0000
# 5 0.0000 0.0000 0.0000 0.0000 12.6002 0.0000
# 6 0.0000 0.0000 0.0000 0.0000 0.0000 11.9906
#
#
#
# Elastic Compliance Matrix: (Units=1/GPa)
#
#
# Indices 1 2 3 4 5 6 
#
# 1 0.009384 -0.004402 -0.009117 0.000000 0.000000 0.000000
# 2 -0.004402 0.008510 0.000252 0.000000 0.000000 0.000000
# 3 -0.009117 0.000252 0.064733 0.000000 0.000000 0.000000
# 4 0.000000 0.000000 0.000000 0.144025 0.000000 0.000000
# 5 0.000000 0.000000 0.000000 0.000000 0.079364 0.000000
# 6 0.000000 0.000000 0.000000 0.000000 0.000000 0.083399
#
#
# Mechanical properties :
#
#
# Convention : Reuss Voigt Hill
#
# Bulk Modulus (GPa) = 17.82763 66.43461 42.13112
# Shear Modulus (GPa) = 11.50361 21.56737 16.53549
#
# Velocity S-wave (km/s) = 2.58227 3.53576 3.09594
# Velocity P-wave (km/s) = 4.38460 7.42818 6.09929
#
# Compressibility (1/GPa) = 0.05609269
#
# Stress axis : x y z
#
# Youngs Moduli (GPa) = 106.56411 117.51439 15.44809
#
# Poissons Ratio (x) = 0.51735 0.14084
# Poissons Ratio (y) = 0.46914 -0.00390
# Poissons Ratio (z) = 0.97152 -0.02964
#
# Static dielectric constant tensor:
#      x y z
#    x 1.584640 0.000000 0.000000 
#    y 0.000000 1.563400 0.000000 
#    z 0.000000 0.000000 1.572520 
# 
# From -- ./inp_files/31219.got.cif
#   From: 2010.05.17/outbox.cif.g08.bks.cpg/sg64_16_cif.got.tgz:31219.got - 2010.06.03 16:29:19.
