data_PCOD9476560
_publ_section_title
;
Structure prediction by ZEFSAII (Michael W. Deem and Ramdas Pophale) SiO2 
 PCOD9476560
Probable space group: C M C A
;
_chemical_formula_sum "Si O2"
_cell_formula_units_Z 88
_cell_length_a 19.929215
_cell_length_b 15.317516
_cell_length_c 15.050295
_cell_angle_alpha 90.000000
_cell_angle_beta 90.000000
_cell_angle_gamma 90.000000
_cell_volume 4594.344401
_symmetry_space_group_name_H-M "C M C A"
_symmetry_group_IT_number 64
_symmetry_cell_setting 'orthorhombic'
loop_
_space_group_symop_operation_xyz
x,y,z
-x,1/2-y,1/2+z
x,-y,-z
-x,1/2+y,1/2-z
-x,-y,-z
x,1/2+y,1/2-z
-x,y,z
x,1/2-y,1/2+z
1/2+x,1/2+y,z
1/2-x,-y,1/2+z
1/2+x,1/2-y,-z
1/2-x,y,1/2-z
1/2-x,1/2-y,-z
1/2+x,y,1/2-z
1/2-x,1/2+y,z
1/2+x,-y,1/2+z
loop_
_atom_site_type_symbol
_atom_site_label
_atom_site_fract_x
_atom_site_fract_y
_atom_site_fract_z
Si Si1 0.500000 0.663525 0.636843
Si Si2 0.359855 0.141022 0.371795
Si Si3 0.738621 0.404244 0.027347
Si Si4 0.353977 0.342699 0.358552
Si Si5 0.500000 0.345041 0.962011
Si Si6 0.646708 0.042201 0.692566
Si Si7 0.500000 0.882832 0.331272
O O1 0.428115 0.620730 0.618240
O O2 0.500000 0.747431 0.574956
O O3 0.500000 0.680463 0.744250
O O4 0.301931 0.136431 0.445884
O O5 0.362679 0.239842 0.335035
O O6 0.430554 0.117888 0.421416
O O7 0.345345 0.062388 0.303612
O O8 0.800833 0.349586 0.062984
O O9 0.686050 0.422163 0.106879
O O10 0.764010 0.500000 0.000000
O O11 0.329819 0.402969 0.277631
O O12 0.500000 0.346981 0.068545
O O13 0.568056 0.062949 0.680124
#
# Coordination Sequence:
#
# PCOD9476560 Si02
#       7
#     8  16  16  16   8  16   8
#     4   8  20  34  55  84 116 147 196 227 281 342
#     4  10  20  34  57  87 112 144 189 230 284 340
#     4  10  20  35  56  81 111 145 189 233 275 341
#     4  10  20  38  55  79 117 150 181 237 281 334
#     4  10  17  32  59  87 118 146 182 240 289 331
#     4  10  20  34  56  86 114 143 186 233 284 335
#     4  10  17  32  59  87 116 150 182 239 290 332
#
# _framework density 19.153984000000001
#
# number of rings (size 3 to 8) (size 9 to 14) (size 15 to 20)
#    0.000    2.182    1.818    1.636    0.000    0.727 
#    0.000    9.545    4.000    0.000    0.000    0.000 
#    0.000    0.000    0.000    0.000    0.000    0.000 
#
# Total GULP energy -245111.541923 kJ/mol
# GULP energy per Si atom -5570.716862 kJ/mol
# Density = 1.911039 g / cm^3
# Si number density = 19.153984 Si / 1000 Ang^3
#
#
#
# Elastic Constant Matrix: (Units=GPa)
#
#
# Indices 1 2 3 4 5 6 
#
# 1 82.2732 38.7648 20.4755 0.0000 0.0000 0.0000
# 2 38.7648 86.6720 42.1306 0.0000 0.0000 0.0000
# 3 20.4755 42.1306 60.5946 0.0000 0.0000 0.0000
# 4 0.0000 0.0000 0.0000 27.4150 0.0000 0.0000
# 5 0.0000 0.0000 0.0000 0.0000 16.1440 0.0000
# 6 0.0000 0.0000 0.0000 0.0000 0.0000 19.7105
#
#
#
# Elastic Compliance Matrix: (Units=1/GPa)
#
#
# Indices 1 2 3 4 5 6 
#
# 1 0.015416 -0.006590 -0.000627 0.000000 0.000000 0.000000
# 2 -0.006590 0.020245 -0.011849 0.000000 0.000000 0.000000
# 3 -0.000627 -0.011849 0.024954 0.000000 0.000000 0.000000
# 4 0.000000 0.000000 0.000000 0.036476 0.000000 0.000000
# 5 0.000000 0.000000 0.000000 0.000000 0.061942 0.000000
# 6 0.000000 0.000000 0.000000 0.000000 0.000000 0.050734
#
#
# Mechanical properties :
#
#
# Convention : Reuss Voigt Hill
#
# Bulk Modulus (GPa) = 44.48092 48.03130 46.25611
# Shear Modulus (GPa) = 19.57759 21.19851 20.38805
#
# Velocity S-wave (km/s) = 3.20052 3.33038 3.26610
# Velocity P-wave (km/s) = 6.07709 6.31818 6.19881
#
# Compressibility (1/GPa) = 0.02248155
#
# Stress axis : x y z
#
# Youngs Moduli (GPa) = 64.86897 49.39502 40.07426
#
# Poissons Ratio (x) = 0.32551 0.02514
# Poissons Ratio (y) = 0.42748 0.47485
# Poissons Ratio (z) = 0.04069 0.58529
#
# Static dielectric constant tensor:
#      x y z
#    x 1.719430 0.000000 0.000000 
#    y 0.000000 1.675430 0.000000 
#    z 0.000000 0.000000 1.665170 
# 
# From -- ./inp_files/25469.got.cif
#   From: 2010.05.17/outbox.cif.g08.bks.cpg/sg64_13_cif.got.tgz:25469.got - 2010.06.03 16:29:19.
