data_PCOD9476869
_publ_section_title
;
Structure prediction by ZEFSAII (Michael W. Deem and Ramdas Pophale) SiO2 
 PCOD9476869
Probable space group: C M C A
;
_chemical_formula_sum "Si O2"
_cell_formula_units_Z 128
_cell_length_a 22.842235
_cell_length_b 11.843799
_cell_length_c 26.476939
_cell_angle_alpha 90.000000
_cell_angle_beta 90.000000
_cell_angle_gamma 90.000000
_cell_volume 7163.040365
_symmetry_space_group_name_H-M "C M C A"
_symmetry_group_IT_number 64
_symmetry_cell_setting 'orthorhombic'
loop_
_space_group_symop_operation_xyz
x,y,z
-x,1/2-y,1/2+z
x,-y,-z
-x,1/2+y,1/2-z
-x,-y,-z
x,1/2+y,1/2-z
-x,y,z
x,1/2-y,1/2+z
1/2+x,1/2+y,z
1/2-x,-y,1/2+z
1/2+x,1/2-y,-z
1/2-x,y,1/2-z
1/2-x,1/2-y,-z
1/2+x,y,1/2-z
1/2-x,1/2+y,z
1/2+x,-y,1/2+z
loop_
_atom_site_type_symbol
_atom_site_label
_atom_site_fract_x
_atom_site_fract_y
_atom_site_fract_z
Si Si1 0.726377 0.907078 0.650148
Si Si2 0.433003 0.549213 0.653362
Si Si3 0.432574 0.566913 0.243174
Si Si4 0.370890 0.033977 0.056057
Si Si5 0.737187 0.543063 0.943964
Si Si6 0.664665 0.399467 0.198589
Si Si7 0.142936 0.265260 0.206131
Si Si8 0.176707 0.753454 0.605656
O O1 0.684708 0.813922 0.673807
O O2 0.787004 0.844352 0.639330
O O3 0.708218 0.956348 0.595733
O O4 0.719293 0.017967 0.685222
O O5 0.500000 0.590608 0.654535
O O6 0.428171 0.453959 0.696803
O O7 0.415101 0.506575 0.598736
O O8 0.386741 0.642117 0.671058
O O9 0.500000 0.550504 0.228551
O O10 0.389699 0.478057 0.215522
O O11 0.408863 0.689122 0.229064
O O12 0.307287 0.972603 0.062292
O O13 0.359787 0.167001 0.067771
O O14 0.390398 0.000000 0.000000
O O15 0.716796 0.668384 0.927949
O O16 0.723082 0.500000 0.000000
O O17 0.675809 0.320253 0.246393
O O18 0.649256 0.327404 0.148535
#
# Coordination Sequence:
#
# PCOD9476869 Si02
#       8
#    16  16  16  16  16  16  16  16
#     4   9  19  32  49  73 101 132 169 204 242 299
#     4  10  20  33  50  72  98 128 164 204 243 289
#     4   9  18  33  53  76  99 126 165 209 252 299
#     4  10  21  34  51  73  98 129 165 204 243 291
#     4   9  19  34  54  77  98 125 165 210 253 299
#     4   9  19  33  48  73 102 133 169 203 244 300
#     4  10  18  32  52  73 101 131 162 203 250 294
#     4  10  19  35  52  71 103 135 163 200 249 297
#
# _framework density 17.869506999999999
#
# number of rings (size 3 to 8) (size 9 to 14) (size 15 to 20)
#    0.000    2.500    0.000    1.875    0.000    6.750 
#    0.000    9.375    0.000    0.000    0.000    0.000 
#    0.000    9.500    0.000    0.000    0.000    0.000 
#
# Total GULP energy -356636.131164 kJ/mol
# GULP energy per Si atom -5572.439549 kJ/mol
# Density = 1.782884 g / cm^3
# Si number density = 17.869507 Si / 1000 Ang^3
#
#
#
# Elastic Constant Matrix: (Units=GPa)
#
#
# Indices 1 2 3 4 5 6 
#
# 1 18.8539 5.7651 29.7285 0.0000 0.0000 0.0000
# 2 5.7651 55.4665 26.9829 0.0000 0.0000 0.0000
# 3 29.7285 26.9829 102.6639 0.0000 0.0000 0.0000
# 4 0.0000 0.0000 0.0000 21.2990 0.0000 0.0000
# 5 0.0000 0.0000 0.0000 0.0000 23.0994 0.0000
# 6 0.0000 0.0000 0.0000 0.0000 0.0000 8.1351
#
#
#
# Elastic Compliance Matrix: (Units=1/GPa)
#
#
# Indices 1 2 3 4 5 6 
#
# 1 0.098438 0.004168 -0.029600 0.000000 0.000000 0.000000
# 2 0.004168 0.020848 -0.006687 0.000000 0.000000 0.000000
# 3 -0.029600 -0.006687 0.020069 0.000000 0.000000 0.000000
# 4 0.000000 0.000000 0.000000 0.046951 0.000000 0.000000
# 5 0.000000 0.000000 0.000000 0.000000 0.043291 0.000000
# 6 0.000000 0.000000 0.000000 0.000000 0.000000 0.122924
#
#
# Mechanical properties :
#
#
# Convention : Reuss Voigt Hill
#
# Bulk Modulus (GPa) = 13.31228 33.54857 23.43043
# Shear Modulus (GPa) = 11.31737 18.14056 14.72896
#
# Velocity S-wave (km/s) = 2.51934 3.18963 2.87409
# Velocity P-wave (km/s) = 3.99108 5.69034 4.91470
#
# Compressibility (1/GPa) = 0.07511860
#
# Stress axis : x y z
#
# Youngs Moduli (GPa) = 10.15867 47.96513 49.82728
#
# Poissons Ratio (x) = -0.19993 1.47490
# Poissons Ratio (y) = -0.04234 0.33317
# Poissons Ratio (z) = 0.30070 0.32072
#
# Static dielectric constant tensor:
#      x y z
#    x 1.607220 0.000000 0.000000 
#    y 0.000000 1.635260 0.000000 
#    z 0.000000 0.000000 1.616520 
# 
# From -- ./inp_files/46737.got.cif
#   From: 2010.05.17/outbox.cif.g08.bks.cpg/sg64_24_cif.got.tgz:46737.got - 2010.06.03 16:29:19.
