data_PCOD9476754
_publ_section_title
;
Structure prediction by ZEFSAII (Michael W. Deem and Ramdas Pophale) SiO2 
 PCOD9476754
Probable space group: C M C A
;
_chemical_formula_sum "Si O2"
_cell_formula_units_Z 112
_cell_length_a 7.556928
_cell_length_b 28.376562
_cell_length_c 25.057108
_cell_angle_alpha 90.000000
_cell_angle_beta 90.000000
_cell_angle_gamma 90.000000
_cell_volume 5373.237117
_symmetry_space_group_name_H-M "C M C A"
_symmetry_group_IT_number 64
_symmetry_cell_setting 'orthorhombic'
loop_
_space_group_symop_operation_xyz
x,y,z
-x,1/2-y,1/2+z
x,-y,-z
-x,1/2+y,1/2-z
-x,-y,-z
x,1/2+y,1/2-z
-x,y,z
x,1/2-y,1/2+z
1/2+x,1/2+y,z
1/2-x,-y,1/2+z
1/2+x,1/2-y,-z
1/2-x,y,1/2-z
1/2-x,1/2-y,-z
1/2+x,y,1/2-z
1/2-x,1/2+y,z
1/2+x,-y,1/2+z
loop_
_atom_site_type_symbol
_atom_site_label
_atom_site_fract_x
_atom_site_fract_y
_atom_site_fract_z
Si Si1 0.211214 0.585884 0.188147
Si Si2 0.790044 0.370800 0.309872
Si Si3 0.783211 0.322955 0.877624
Si Si4 0.284083 0.473524 0.590991
Si Si5 0.708537 0.421667 0.417861
Si Si6 0.714941 0.618889 0.476276
Si Si7 0.787813 0.763856 0.189634
O O1 0.250000 0.580655 0.250000
O O2 0.273110 0.635378 0.162929
O O3 0.274248 0.543974 0.149576
O O4 0.000000 0.586716 0.182541
O O5 0.750000 0.387869 0.250000
O O6 0.726255 0.402767 0.358156
O O7 0.717903 0.317238 0.314955
O O8 0.000000 0.368395 0.314740
O O9 0.724410 0.339790 0.936408
O O10 0.721942 0.273271 0.854026
O O11 0.000000 0.321956 0.877653
O O12 0.500000 0.475482 0.590459
O O13 0.217720 0.525444 0.577320
O O14 0.237497 0.431171 0.551088
O O15 0.500000 0.425845 0.429224
O O16 0.777645 0.385544 0.462833
O O17 0.500000 0.622443 0.475447
O O18 0.750000 0.747049 0.250000
O O19 0.000000 0.766130 0.184461
#
# Coordination Sequence:
#
# PCOD9476754 Si02
#       7
#    16  16  16  16  16  16  16
#     4   9  16  26  41  63  92 119 145 183 228 273
#     4  10  21  36  51  68  92 120 153 193 232 272
#     4   8  14  26  45  69  93 117 147 184 227 272
#     4   8  15  27  44  68  94 121 156 194 226 261
#     4  10  18  30  51  73  92 120 157 193 228 266
#     4   8  14  26  47  73  96 119 153 192 224 267
#     4   9  17  30  49  69  90 119 153 189 229 273
#
# _framework density 20.844045999999999
#
# number of rings (size 3 to 8) (size 9 to 14) (size 15 to 20)
#    0.000    3.143    0.000    3.000    0.000    2.857 
#    0.000    2.857    0.000    6.000    0.000    0.000 
#    0.000    0.000    0.000    0.000    0.000    0.000 
#
# Total GULP energy -312199.812507 kJ/mol
# GULP energy per Si atom -5574.996652 kJ/mol
# Density = 2.079660 g / cm^3
# Si number density = 20.844046 Si / 1000 Ang^3
#
#
#
# Elastic Constant Matrix: (Units=GPa)
#
#
# Indices 1 2 3 4 5 6 
#
# 1 44.2269 -6.2776 -15.6070 0.0000 0.0000 0.0000
# 2 -6.2776 28.6686 -0.8042 0.0000 0.0000 0.0000
# 3 -15.6070 -0.8042 78.1686 0.0000 0.0000 0.0000
# 4 0.0000 0.0000 0.0000 20.0231 0.0000 0.0000
# 5 0.0000 0.0000 0.0000 0.0000 14.2200 0.0000
# 6 0.0000 0.0000 0.0000 0.0000 0.0000 -5.2269
#
#
#
# Elastic Compliance Matrix: (Units=1/GPa)
#
#
# Indices 1 2 3 4 5 6 
#
# 1 0.025211 0.005663 0.005092 0.000000 0.000000 0.000000
# 2 0.005663 0.036164 0.001503 0.000000 0.000000 0.000000
# 3 0.005092 0.001503 0.013825 0.000000 0.000000 0.000000
# 4 0.000000 0.000000 0.000000 0.049942 0.000000 0.000000
# 5 0.000000 0.000000 0.000000 0.000000 0.070323 0.000000
# 6 0.000000 0.000000 0.000000 0.000000 0.000000 -0.191320
#
#
# Mechanical properties :
#
#
# Convention : Reuss Voigt Hill
#
# Bulk Modulus (GPa) = 10.02843 11.74293 10.88568
# Shear Modulus (GPa) = 388.54842 17.38679 202.96760
#
# Velocity S-wave (km/s) = 13.66792 2.89128 9.87855
# Velocity P-wave (km/s) = 15.93438 4.09779 11.63392
#
# Compressibility (1/GPa) = 0.09971653
#
# Stress axis : x y z
#
# Youngs Moduli (GPa) = 39.66457 27.65201 72.33292
#
# Poissons Ratio (x) = -0.15661 -0.36831
# Poissons Ratio (y) = -0.22464 -0.10870
# Poissons Ratio (z) = -0.20197 -0.04156
#
# Static dielectric constant tensor:
#      x y z
#    x 1.790370 0.000000 0.000000 
#    y 0.000000 1.746730 0.000000 
#    z 0.000000 0.000000 1.726730 
# 
# From -- ./inp_files/38558.got.cif
#   From: 2010.05.17/outbox.cif.g08.bks.cpg/sg64_20_cif.got.tgz:38558.got - 2010.06.03 16:29:19.
