data_PCOD9476931
_publ_section_title
;
Structure prediction by ZEFSAII (Michael W. Deem and Ramdas Pophale) SiO2 
 PCOD9476931
Probable space group: C M C A
;
_chemical_formula_sum "Si O2"
_cell_formula_units_Z 40
_cell_length_a 21.942851
_cell_length_b 13.913735
_cell_length_c 4.967483
_cell_angle_alpha 90.000000
_cell_angle_beta 90.000000
_cell_angle_gamma 90.000000
_cell_volume 1516.607402
_symmetry_space_group_name_H-M "C M C A"
_symmetry_group_IT_number 64
_symmetry_cell_setting 'orthorhombic'
loop_
_space_group_symop_operation_xyz
x,y,z
-x,1/2-y,1/2+z
x,-y,-z
-x,1/2+y,1/2-z
-x,-y,-z
x,1/2+y,1/2-z
-x,y,z
x,1/2-y,1/2+z
1/2+x,1/2+y,z
1/2-x,-y,1/2+z
1/2+x,1/2-y,-z
1/2-x,y,1/2-z
1/2-x,1/2-y,-z
1/2+x,y,1/2-z
1/2-x,1/2+y,z
1/2+x,-y,1/2+z
loop_
_atom_site_type_symbol
_atom_site_label
_atom_site_fract_x
_atom_site_fract_y
_atom_site_fract_z
Si Si1 0.873148 0.614031 0.461560
Si Si2 0.194638 0.384249 0.049131
Si Si3 0.500000 0.811331 0.745266
O O1 0.865442 0.500000 0.500000
O O2 0.862598 0.647760 0.765980
O O3 0.938751 0.634061 0.338997
O O4 0.821122 0.649604 0.252002
O O5 0.250000 0.359692 0.250000
O O6 0.199328 0.500000 0.000000
O O7 0.500000 0.783478 0.056760
#
# Coordination Sequence:
#
# PCOD9476931 Si02
#       3
#    16  16   8
#     4  10  21  37  61  89 118 153 196 243 291 350
#     4  10  18  32  58  92 122 147 185 241 298 349
#     4  12  25  42  61  82 118 162 204 248 295 346
#
# _framework density 26.374659000000001
#
# number of rings (size 3 to 8) (size 9 to 14) (size 15 to 20)
#    0.000    1.600    0.000    7.800    0.000    0.000 
#    0.000    8.000    0.000   24.000    0.000    0.000 
#    0.000    0.000    0.000    0.000    0.000    0.000 
#
# Total GULP energy -111795.902768 kJ/mol
# GULP energy per Si atom -5589.795138 kJ/mol
# Density = 2.631463 g / cm^3
# Si number density = 26.374659 Si / 1000 Ang^3
#
#
#
# Elastic Constant Matrix: (Units=GPa)
#
#
# Indices 1 2 3 4 5 6 
#
# 1 160.1108 10.5039 69.3299 0.0000 0.0000 0.0000
# 2 10.5039 94.8713 2.8363 0.0000 0.0000 0.0000
# 3 69.3299 2.8363 184.5666 0.0000 0.0000 0.0000
# 4 0.0000 0.0000 0.0000 13.8862 0.0000 0.0000
# 5 0.0000 0.0000 0.0000 0.0000 44.8894 0.0000
# 6 0.0000 0.0000 0.0000 0.0000 0.0000 36.7698
#
#
#
# Elastic Compliance Matrix: (Units=1/GPa)
#
#
# Indices 1 2 3 4 5 6 
#
# 1 0.007512 -0.000748 -0.002810 0.000000 0.000000 0.000000
# 2 -0.000748 0.010620 0.000118 0.000000 0.000000 0.000000
# 3 -0.002810 0.000118 0.006472 0.000000 0.000000 0.000000
# 4 0.000000 0.000000 0.000000 0.072014 0.000000 0.000000
# 5 0.000000 0.000000 0.000000 0.000000 0.022277 0.000000
# 6 0.000000 0.000000 0.000000 0.000000 0.000000 0.027196
#
#
# Mechanical properties :
#
#
# Convention : Reuss Voigt Hill
#
# Bulk Modulus (GPa) = 56.42377 67.20988 61.81683
# Shear Modulus (GPa) = 31.47061 42.90098 37.18579
#
# Velocity S-wave (km/s) = 3.45804 4.03749 3.75895
# Velocity P-wave (km/s) = 6.11422 6.87555 6.50603
#
# Compressibility (1/GPa) = 0.01772303
#
# Stress axis : x y z
#
# Youngs Moduli (GPa) = 133.12851 94.16323 154.51474
#
# Poissons Ratio (x) = 0.07040 0.43420
# Poissons Ratio (y) = 0.09953 -0.01818
# Poissons Ratio (z) = 0.37411 -0.01108
#
# Static dielectric constant tensor:
#      x y z
#    x 2.090830 0.000000 0.000000 
#    y 0.000000 2.094380 0.000000 
#    z 0.000000 0.000000 1.992080 
# 
# From -- ./inp_files/1005.got.cif
#   From: 2010.05.17/outbox.cif.g08.bks.cpg/sg64_1_cif.got.tgz:1005.got - 2010.06.03 16:29:19.
