data_PCOD9476149
_publ_section_title
;
Structure prediction by ZEFSAII (Michael W. Deem and Ramdas Pophale) SiO2 
 PCOD9476149
Probable space group: C M C M
;
_chemical_formula_sum "Si O2"
_cell_formula_units_Z 48
_cell_length_a 9.000000
_cell_length_b 24.000000
_cell_length_c 24.000000
_cell_angle_alpha 90.000000
_cell_angle_beta 90.000000
_cell_angle_gamma 90.000000
_cell_volume 5184.000000
_symmetry_space_group_name_H-M "C M C M"
_symmetry_group_IT_number 63
_symmetry_cell_setting 'orthorhombic'
loop_
_space_group_symop_operation_xyz
x,y,z
-x,-y,1/2+z
x,-y,-z
-x,y,1/2-z
-x,-y,-z
x,y,1/2-z
-x,y,z
x,-y,1/2+z
1/2+x,1/2+y,z
1/2-x,1/2-y,1/2+z
1/2+x,1/2-y,-z
1/2-x,1/2+y,1/2-z
1/2-x,1/2-y,-z
1/2+x,1/2+y,1/2-z
1/2-x,1/2+y,z
1/2+x,1/2-y,1/2+z
loop_
_atom_site_type_symbol
_atom_site_label
_atom_site_fract_x
_atom_site_fract_y
_atom_site_fract_z
Si Si1 0.677865 0.436400 0.997009
Si Si2 0.333159 0.559918 0.183393
Si Si3 0.668197 0.949791 0.316756
Si Si4 0.178724 0.249243 0.939354
Si Si5 0.677045 0.632092 0.608997
Si Si6 0.175876 0.367876 0.602224
O O1 0.500000 0.435359 0.989221
O O2 0.710046 0.405072 0.054615
O O3 0.727702 0.500000 0.000000
O O4 0.752697 0.404649 0.946305
O O5 0.334004 0.559354 0.250000
O O6 0.500000 0.567628 0.162643
O O7 0.270574 0.500670 0.163585
O O8 0.229810 0.607758 0.160214
O O9 0.669196 0.949823 0.250000
O O10 0.500000 0.958786 0.335881
O O11 0.734551 0.893396 0.340118
O O12 0.221518 0.194351 0.906118
O O13 0.223041 0.304660 0.907239
O O14 0.000000 0.248150 0.945823
O O15 0.250000 0.250000 0.000000
O O16 0.500000 0.629678 0.619239
O O17 0.000000 0.371122 0.597878
#
# Coordination Sequence:
#
# PCOD9476149 Si02
#       6
#    16  16  16  16  16  16
#     4  10  20  33  52  79 110 144 182 226 276 331
#     4  10  21  38  60  83 109 146 187 225 275 337
#     4  10  21  37  58  85 115 145 180 228 283 331
#     4  10  21  37  56  80 110 150 191 228 275 327
#     4  10  20  35  55  80 112 149 189 227 271 330
#     4  11  22  35  55  83 112 143 185 232 279 327
#
# _framework density 9.2592590000000001
#
# number of rings (size 3 to 8) (size 9 to 14) (size 15 to 20)
#    0.000    1.833    1.667    2.500    0.000    5.667 
#    0.000    0.833    0.000    5.000    0.000    0.000 
#    0.000    0.000    0.000    0.000    0.000    0.000 
#
# Total GULP energy -267923.588466 kJ/mol
# GULP energy per Si atom -5581.741426 kJ/mol
# Density = 0.923818 g / cm^3
# Si number density = 9.259259 Si / 1000 Ang^3
#
#
#
# Elastic Constant Matrix: (Units=GPa)
#
#
# Indices 1 2 3 4 5 6 
#
# 1 5.2728 30.7494 15.4872 0.0000 0.0000 0.0000
# 2 30.7494 143.2128 24.3200 0.0000 0.0000 0.0000
# 3 15.4872 24.3200 14.1144 0.0000 0.0000 0.0000
# 4 0.0000 0.0000 0.0000 33.8133 0.0000 0.0000
# 5 0.0000 0.0000 0.0000 0.0000 69.2507 0.0000
# 6 0.0000 0.0000 0.0000 0.0000 0.0000 193.3111
#
#
#
# Elastic Compliance Matrix: (Units=1/GPa)
#
#
# Indices 1 2 3 4 5 6 
#
# 1 -0.084148 0.003375 0.086517 0.000000 0.000000 0.000000
# 2 0.003375 0.009736 -0.020479 0.000000 0.000000 0.000000
# 3 0.086517 -0.020479 0.011205 0.000000 0.000000 0.000000
# 4 0.000000 0.000000 0.000000 0.029574 0.000000 0.000000
# 5 0.000000 0.000000 0.000000 0.000000 0.014440 0.000000
# 6 0.000000 0.000000 0.000000 0.000000 0.000000 0.005173
#
#
# Mechanical properties :
#
#
# Convention : Reuss Voigt Hill
#
# Bulk Modulus (GPa) = 13.22426 33.74591 23.48509
# Shear Modulus (GPa) = -39.17248 65.41122 13.11937
#
# Velocity S-wave (km/s) = -4.60424 5.94968 2.66455
# Velocity P-wave (km/s) = 4.59443 8.09078 4.70913
#
# Compressibility (1/GPa) = 0.07561857
#
# Stress axis : x y z
#
# Youngs Moduli (GPa) = -11.88383 102.71662 89.24936
#
# Poissons Ratio (x) = -0.34672 -7.72155
# Poissons Ratio (y) = 0.04011 1.82772
# Poissons Ratio (z) = 1.02815 2.10351
#
# Static dielectric constant tensor:
#      x y z
#    x 1.624760 0.000000 0.000000 
#    y 0.000000 1.631930 0.000000 
#    z 0.000000 0.000000 1.621630 
# 
# From -- ./inp_files/51328.got.cif
#   From: 2010.05.17/outbox.ucp.g08.bks.cvg/sg63_26_cif.got.tgz:51328.got - 2010.06.11 16:32:19.
