data_PCOD9476812
_publ_section_title
;
Structure prediction by ZEFSAII (Michael W. Deem and Ramdas Pophale) SiO2 
 PCOD9476812
Probable space group: C M C A
;
_chemical_formula_sum "Si O2"
_cell_formula_units_Z 96
_cell_length_a 16.129979
_cell_length_b 10.314969
_cell_length_c 26.800447
_cell_angle_alpha 90.000000
_cell_angle_beta 90.000000
_cell_angle_gamma 90.000000
_cell_volume 4459.064626
_symmetry_space_group_name_H-M "C M C A"
_symmetry_group_IT_number 64
_symmetry_cell_setting 'orthorhombic'
loop_
_space_group_symop_operation_xyz
x,y,z
-x,1/2-y,1/2+z
x,-y,-z
-x,1/2+y,1/2-z
-x,-y,-z
x,1/2+y,1/2-z
-x,y,z
x,1/2-y,1/2+z
1/2+x,1/2+y,z
1/2-x,-y,1/2+z
1/2+x,1/2-y,-z
1/2-x,y,1/2-z
1/2-x,1/2-y,-z
1/2+x,y,1/2-z
1/2-x,1/2+y,z
1/2+x,-y,1/2+z
loop_
_atom_site_type_symbol
_atom_site_label
_atom_site_fract_x
_atom_site_fract_y
_atom_site_fract_z
Si Si1 0.846357 0.334557 0.642369
Si Si2 0.351626 0.421575 0.309962
Si Si3 0.148199 0.917884 0.195800
Si Si4 0.651504 0.824590 0.864861
Si Si5 0.172231 0.346765 0.983798
Si Si6 0.594910 0.618278 0.034575
O O1 0.880407 0.193863 0.654318
O O2 0.882037 0.441848 0.678889
O O3 0.748279 0.323460 0.650263
O O4 0.856940 0.379777 0.586125
O O5 0.249749 0.424325 0.308220
O O6 0.375206 0.394066 0.252916
O O7 0.383266 0.554154 0.334167
O O8 0.117710 0.809715 0.156949
O O9 0.653171 0.840441 0.924581
O O10 0.179074 0.500000 0.000000
O O11 0.250000 0.250000 0.000000
O O12 0.101603 0.261020 0.010550
O O13 0.500000 0.588407 0.045914
O O14 0.625953 0.500000 0.000000
#
# Coordination Sequence:
#
# PCOD9476812 Si02
#       6
#    16  16  16  16  16  16
#     4  10  18  31  52  73 107 144 183 227 279 336
#     4   9  17  29  46  78 110 142 175 224 283 335
#     4   9  17  28  48  76 112 141 175 226 278 340
#     4  10  19  29  51  79 111 143 182 224 284 338
#     4  12  24  37  60  87 118 152 191 243 285 343
#     4  11  24  41  59  81 113 154 199 241 287 344
#
# _framework density 21.529178999999999
#
# number of rings (size 3 to 8) (size 9 to 14) (size 15 to 20)
#    0.000    1.833    1.667    3.500    4.667    4.333 
#    0.000    0.000    0.000    1.000    0.000    2.333 
#    0.000    0.000    0.000    0.000    0.000    0.000 
#
# Total GULP energy -267544.701574 kJ/mol
# GULP energy per Si atom -5573.847949 kJ/mol
# Density = 2.148018 g / cm^3
# Si number density = 21.529179 Si / 1000 Ang^3
#
#
#
# Elastic Constant Matrix: (Units=GPa)
#
#
# Indices 1 2 3 4 5 6 
#
# 1 14.8744 1.2091 -16.2813 0.0000 0.0000 0.0000
# 2 1.2091 93.7820 6.1733 0.0000 0.0000 0.0000
# 3 -16.2813 6.1733 70.3078 0.0000 0.0000 0.0000
# 4 0.0000 0.0000 0.0000 44.7502 0.0000 0.0000
# 5 0.0000 0.0000 0.0000 0.0000 -16.7954 0.0000
# 6 0.0000 0.0000 0.0000 0.0000 0.0000 6.3005
#
#
#
# Elastic Compliance Matrix: (Units=1/GPa)
#
#
# Indices 1 2 3 4 5 6 
#
# 1 0.090666 -0.002566 0.021221 0.000000 0.000000 0.000000
# 2 -0.002566 0.010798 -0.001542 0.000000 0.000000 0.000000
# 3 0.021221 -0.001542 0.019273 0.000000 0.000000 0.000000
# 4 0.000000 0.000000 0.000000 0.022346 0.000000 0.000000
# 5 0.000000 0.000000 0.000000 0.000000 -0.059540 0.000000
# 6 0.000000 0.000000 0.000000 0.000000 0.000000 0.158717
#
#
# Mechanical properties :
#
#
# Convention : Reuss Voigt Hill
#
# Bulk Modulus (GPa) = 6.45317 17.90739 12.18028
# Shear Modulus (GPa) = 19.25390 19.37529 19.31459
#
# Velocity S-wave (km/s) = 2.99376 3.00318 2.99847
# Velocity P-wave (km/s) = 3.86704 4.51234 4.20210
#
# Compressibility (1/GPa) = 0.15496264
#
# Stress axis : x y z
#
# Youngs Moduli (GPa) = 11.02945 92.61299 51.88672
#
# Poissons Ratio (x) = 0.23763 -1.10109
# Poissons Ratio (y) = 0.02830 0.08002
# Poissons Ratio (z) = -0.23406 0.14283
#
# Static dielectric constant tensor:
#      x y z
#    x 1.858830 0.000000 0.000000 
#    y 0.000000 1.823120 0.000000 
#    z 0.000000 0.000000 1.772130 
# 
# From -- ./inp_files/50688.got.cif
#   From: 2010.05.17/outbox.cif.g08.bks.cpg/sg64_26_cif.got.tgz:50688.got - 2010.06.03 16:29:19.
