data_PCOD9476982
_publ_section_title
;
Structure prediction by ZEFSAII (Michael W. Deem and Ramdas Pophale) SiO2 
 PCOD9476982
Probable space group: C M C A
;
_chemical_formula_sum "Si O2"
_cell_formula_units_Z 96
_cell_length_a 8.534722
_cell_length_b 30.536095
_cell_length_c 19.220401
_cell_angle_alpha 90.000000
_cell_angle_beta 90.000000
_cell_angle_gamma 90.000000
_cell_volume 5009.164819
_symmetry_space_group_name_H-M "C M C A"
_symmetry_group_IT_number 64
_symmetry_cell_setting 'orthorhombic'
loop_
_space_group_symop_operation_xyz
x,y,z
-x,1/2-y,1/2+z
x,-y,-z
-x,1/2+y,1/2-z
-x,-y,-z
x,1/2+y,1/2-z
-x,y,z
x,1/2-y,1/2+z
1/2+x,1/2+y,z
1/2-x,-y,1/2+z
1/2+x,1/2-y,-z
1/2-x,y,1/2-z
1/2-x,1/2-y,-z
1/2+x,y,1/2-z
1/2-x,1/2+y,z
1/2+x,-y,1/2+z
loop_
_atom_site_type_symbol
_atom_site_label
_atom_site_fract_x
_atom_site_fract_y
_atom_site_fract_z
Si Si1 0.190749 0.159474 0.924329
Si Si2 0.187793 0.611656 0.174201
Si Si3 0.812730 0.264675 0.327216
Si Si4 0.313778 0.025982 0.097480
Si Si5 0.812689 0.312839 0.576886
Si Si6 0.687044 0.439140 0.049269
O O1 0.242579 0.189072 0.859793
O O2 0.239499 0.108731 0.925537
O O3 0.000000 0.159420 0.924160
O O4 0.240022 0.182148 0.996927
O O5 0.250000 0.623727 0.250000
O O6 0.228377 0.561465 0.155762
O O7 0.264386 0.643142 0.117248
O O8 0.000000 0.616449 0.171171
O O9 0.750000 0.256803 0.250000
O O10 0.760518 0.227162 0.380810
O O11 0.000000 0.264674 0.324113
O O12 0.500000 0.019142 0.098009
O O13 0.229973 0.979165 0.100015
O O14 0.266569 0.048298 0.024002
O O15 0.000000 0.308420 0.577526
O O16 0.500000 0.438281 0.038428
#
# Coordination Sequence:
#
# PCOD9476982 Si02
#       6
#    16  16  16  16  16  16
#     4   9  20  37  60  87 114 145 189 238 279 335
#     4  11  23  37  55  81 116 155 192 236 288 342
#     4  11  23  41  59  82 115 151 190 232 283 340
#     4  10  20  34  52  81 115 146 183 231 279 331
#     4  11  21  38  61  86 113 145 188 237 288 342
#     4  10  18  33  58  84 109 145 185 228 278 331
#
# _framework density 19.164871000000002
#
# number of rings (size 3 to 8) (size 9 to 14) (size 15 to 20)
#    0.000    1.667    1.667    4.500    0.000    2.000 
#    0.000    6.667    0.000    4.000    0.000    0.000 
#    0.000    0.000    0.000    0.000    0.000    0.000 
#
# Total GULP energy -268102.602300 kJ/mol
# GULP energy per Si atom -5585.470881 kJ/mol
# Density = 1.912125 g / cm^3
# Si number density = 19.164871 Si / 1000 Ang^3
#
#
#
# Elastic Constant Matrix: (Units=GPa)
#
#
# Indices 1 2 3 4 5 6 
#
# 1 28.7622 11.3344 9.0032 0.0000 0.0000 0.0000
# 2 11.3344 116.7451 14.2478 0.0000 0.0000 0.0000
# 3 9.0032 14.2478 29.5986 0.0000 0.0000 0.0000
# 4 0.0000 0.0000 0.0000 0.5698 0.0000 0.0000
# 5 0.0000 0.0000 0.0000 0.0000 12.5013 0.0000
# 6 0.0000 0.0000 0.0000 0.0000 0.0000 16.6001
#
#
#
# Elastic Compliance Matrix: (Units=1/GPa)
#
#
# Indices 1 2 3 4 5 6 
#
# 1 0.039097 -0.002491 -0.010693 0.000000 0.000000 0.000000
# 2 -0.002491 0.009259 -0.003699 0.000000 0.000000 0.000000
# 3 -0.010693 -0.003699 0.038819 0.000000 0.000000 0.000000
# 4 0.000000 0.000000 0.000000 1.755147 0.000000 0.000000
# 5 0.000000 0.000000 0.000000 0.000000 0.079991 0.000000
# 6 0.000000 0.000000 0.000000 0.000000 0.000000 0.060240
#
#
# Mechanical properties :
#
#
# Convention : Reuss Voigt Hill
#
# Bulk Modulus (GPa) = 18.72394 27.14186 22.93290
# Shear Modulus (GPa) = 2.45806 15.30228 8.88017
#
# Velocity S-wave (km/s) = 1.13374 2.82876 2.15491
# Velocity P-wave (km/s) = 3.39190 4.98620 4.26422
#
# Compressibility (1/GPa) = 0.05340756
#
# Stress axis : x y z
#
# Youngs Moduli (GPa) = 25.57764 108.00346 25.76075
#
# Poissons Ratio (x) = 0.26901 0.27547
# Poissons Ratio (y) = 0.06371 0.09530
# Poissons Ratio (z) = 0.27351 0.39954
#
# Static dielectric constant tensor:
#      x y z
#    x 1.645990 0.000000 0.000000 
#    y 0.000000 1.691950 0.000000 
#    z 0.000000 0.000000 2.281610 
# 
# From -- ./inp_files/37051.got.cif
#   From: 2010.05.17/outbox.cif.g08.bks.cpg/sg64_19_cif.got.tgz:37051.got - 2010.06.03 16:29:19.
