data_PCOD9476398
_publ_section_title
;
Structure prediction by ZEFSAII (Michael W. Deem and Ramdas Pophale) SiO2 
 PCOD9476398
Probable space group: C M C A
;
_chemical_formula_sum "Si O2"
_cell_formula_units_Z 60
_cell_length_a 32.348500
_cell_length_b 5.273982
_cell_length_c 15.681819
_cell_angle_alpha 90.000000
_cell_angle_beta 90.000000
_cell_angle_gamma 90.000000
_cell_volume 2675.403109
_symmetry_space_group_name_H-M "C M C A"
_symmetry_group_IT_number 64
_symmetry_cell_setting 'orthorhombic'
loop_
_space_group_symop_operation_xyz
x,y,z
-x,1/2-y,1/2+z
x,-y,-z
-x,1/2+y,1/2-z
-x,-y,-z
x,1/2+y,1/2-z
-x,y,z
x,1/2-y,1/2+z
1/2+x,1/2+y,z
1/2-x,-y,1/2+z
1/2+x,1/2-y,-z
1/2-x,y,1/2-z
1/2-x,1/2-y,-z
1/2+x,y,1/2-z
1/2-x,1/2+y,z
1/2+x,-y,1/2+z
loop_
_atom_site_type_symbol
_atom_site_label
_atom_site_fract_x
_atom_site_fract_y
_atom_site_fract_z
Si Si1 0.500000 0.611532 0.194154
Si Si2 0.000000 0.000000 0.500000
Si Si3 0.068480 0.364832 0.416912
Si Si4 0.641444 0.656575 0.303132
Si Si5 0.766883 0.295575 0.348271
O O1 0.500000 0.886575 0.236413
O O2 0.459275 0.566611 0.136849
O O3 0.035546 0.163200 0.449862
O O4 0.086779 0.500000 0.500000
O O5 0.103129 0.231491 0.361478
O O6 0.639618 0.365348 0.273152
O O7 0.685818 0.710615 0.345258
O O8 0.750000 0.327870 0.250000
O O9 0.759963 0.570445 0.387655
#
# Coordination Sequence:
#
# PCOD9476398 Si02
#       5
#     8   4  16  16  16
#     4  11  24  43  68  94 122 157 216 277 321 375
#     4  10  24  48  64  78 120 178 212 252 330 400
#     4  11  27  43  67  91 134 177 213 266 337 401
#     4  12  23  39  67 103 132 166 226 279 315 383
#     4  10  16  33  58  94 130 169 203 268 333 373
#
# _framework density 22.426525999999999
#
# number of rings (size 3 to 8) (size 9 to 14) (size 15 to 20)
#    0.000    1.067    5.333    3.200   11.200    0.000 
#    0.000    0.000    0.000    1.600    0.000    0.000 
#    0.000    0.000    0.000    0.000    0.000    0.000 
#
# Total GULP energy -167349.370755 kJ/mol
# GULP energy per Si atom -5578.312358 kJ/mol
# Density = 2.237548 g / cm^3
# Si number density = 22.426526 Si / 1000 Ang^3
#
#
#
# Elastic Constant Matrix: (Units=GPa)
#
#
# Indices 1 2 3 4 5 6 
#
# 1 97.9798 -24.4673 0.1961 0.0000 0.0000 0.0000
# 2 -24.4673 80.1834 2.7393 0.0000 0.0000 0.0000
# 3 0.1961 2.7393 31.0793 0.0000 0.0000 0.0000
# 4 0.0000 0.0000 0.0000 28.2880 0.0000 0.0000
# 5 0.0000 0.0000 0.0000 0.0000 -47.9840 0.0000
# 6 0.0000 0.0000 0.0000 0.0000 0.0000 31.2375
#
#
#
# Elastic Compliance Matrix: (Units=1/GPa)
#
#
# Indices 1 2 3 4 5 6 
#
# 1 0.011052 0.003385 -0.000368 0.000000 0.000000 0.000000
# 2 0.003385 0.013546 -0.001215 0.000000 0.000000 0.000000
# 3 -0.000368 -0.001215 0.032285 0.000000 0.000000 0.000000
# 4 0.000000 0.000000 0.000000 0.035351 0.000000 0.000000
# 5 0.000000 0.000000 0.000000 0.000000 -0.020840 0.000000
# 6 0.000000 0.000000 0.000000 0.000000 0.000000 0.032013
#
#
# Mechanical properties :
#
#
# Convention : Reuss Voigt Hill
#
# Bulk Modulus (GPa) = 16.53257 18.46430 17.49844
# Shear Modulus (GPa) = 41.67872 17.69326 29.68599
#
# Velocity S-wave (km/s) = 4.31566 2.81186 3.64222
# Velocity P-wave (km/s) = 5.67636 4.33511 5.05046
#
# Compressibility (1/GPa) = 0.06048666
#
# Stress axis : x y z
#
# Youngs Moduli (GPa) = 90.47947 73.82329 30.97397
#
# Poissons Ratio (x) = -0.24990 0.01140
# Poissons Ratio (y) = -0.30628 0.03764
# Poissons Ratio (z) = 0.03330 0.08972
#
# Static dielectric constant tensor:
#      x y z
#    x 1.757420 0.000000 0.000000 
#    y 0.000000 1.893240 0.000000 
#    z 0.000000 0.000000 1.914850 
# 
# From -- ./inp_files/35612.got.cif
#   From: 2010.05.17/outbox.cif.g08.bks.cpg/sg64_18_cif.got.tgz:35612.got - 2010.06.03 16:29:19.
