data_PCOD9476557
_publ_section_title
;
Structure prediction by ZEFSAII (Michael W. Deem and Ramdas Pophale) SiO2 
 PCOD9476557
Probable space group: C M C A
;
_chemical_formula_sum "Si O2"
_cell_formula_units_Z 72
_cell_length_a 14.423838
_cell_length_b 15.600369
_cell_length_c 18.058835
_cell_angle_alpha 90.000000
_cell_angle_beta 90.000000
_cell_angle_gamma 90.000000
_cell_volume 4063.548400
_symmetry_space_group_name_H-M "C M C A"
_symmetry_group_IT_number 64
_symmetry_cell_setting 'orthorhombic'
loop_
_space_group_symop_operation_xyz
x,y,z
-x,1/2-y,1/2+z
x,-y,-z
-x,1/2+y,1/2-z
-x,-y,-z
x,1/2+y,1/2-z
-x,y,z
x,1/2-y,1/2+z
1/2+x,1/2+y,z
1/2-x,-y,1/2+z
1/2+x,1/2-y,-z
1/2-x,y,1/2-z
1/2-x,1/2-y,-z
1/2+x,y,1/2-z
1/2-x,1/2+y,z
1/2+x,-y,1/2+z
loop_
_atom_site_type_symbol
_atom_site_label
_atom_site_fract_x
_atom_site_fract_y
_atom_site_fract_z
Si Si1 0.000000 0.136456 0.356001
Si Si2 0.201478 0.386242 0.926496
Si Si3 0.197606 0.576571 0.900585
Si Si4 0.000000 0.051101 0.671461
Si Si5 0.296183 0.251356 0.327458
Si Si6 0.000000 0.272922 0.228811
O O1 0.905621 0.131267 0.403437
O O2 0.000000 0.219955 0.304624
O O3 0.000000 0.048740 0.306982
O O4 0.232838 0.479128 0.894412
O O5 0.262875 0.312089 0.891163
O O6 0.207514 0.393795 0.014784
O O7 0.089699 0.567608 0.878853
O O8 0.235104 0.651855 0.848314
O O9 0.000000 0.123335 0.734922
O O10 0.250000 0.225340 0.250000
O O11 0.406461 0.250131 0.315287
#
# Coordination Sequence:
#
# PCOD9476557 Si02
#       6
#     8  16  16   8  16   8
#     4  10  17  32  55  79 103 136 179 214 252 304
#     4  10  19  34  56  80 104 139 175 217 258 304
#     4   9  19  34  54  79 107 133 178 218 257 306
#     4   8  17  32  53  77 103 138 169 220 262 290
#     4  11  21  35  54  76 107 140 171 213 265 311
#     4  10  20  36  48  75 110 133 172 214 258 316
#
# _framework density 17.718505
#
# number of rings (size 3 to 8) (size 9 to 14) (size 15 to 20)
#    0.000    2.222    2.222    1.333    0.000    3.556 
#    4.000    0.000    0.000    2.667    0.000    0.000 
#    0.000    0.000    0.000    0.000    0.000    0.000 
#
# Total GULP energy -200574.851354 kJ/mol
# GULP energy per Si atom -5571.523649 kJ/mol
# Density = 1.767818 g / cm^3
# Si number density = 17.718505 Si / 1000 Ang^3
#
#
#
# Elastic Constant Matrix: (Units=GPa)
#
#
# Indices 1 2 3 4 5 6 
#
# 1 47.1161 4.1955 -8.7465 0.0000 0.0000 0.0000
# 2 4.1955 47.6531 10.2355 0.0000 0.0000 0.0000
# 3 -8.7465 10.2355 31.9637 0.0000 0.0000 0.0000
# 4 0.0000 0.0000 0.0000 33.9433 0.0000 0.0000
# 5 0.0000 0.0000 0.0000 0.0000 11.5325 0.0000
# 6 0.0000 0.0000 0.0000 0.0000 0.0000 18.5068
#
#
#
# Elastic Compliance Matrix: (Units=1/GPa)
#
#
# Indices 1 2 3 4 5 6 
#
# 1 0.022925 -0.003614 0.007431 0.000000 0.000000 0.000000
# 2 -0.003614 0.023105 -0.008388 0.000000 0.000000 0.000000
# 3 0.007431 -0.008388 0.036005 0.000000 0.000000 0.000000
# 4 0.000000 0.000000 0.000000 0.029461 0.000000 0.000000
# 5 0.000000 0.000000 0.000000 0.000000 0.086711 0.000000
# 6 0.000000 0.000000 0.000000 0.000000 0.000000 0.054034
#
#
# Mechanical properties :
#
#
# Convention : Reuss Voigt Hill
#
# Bulk Modulus (GPa) = 13.71892 15.34466 14.53179
# Shear Modulus (GPa) = 17.50199 20.86641 19.18420
#
# Velocity S-wave (km/s) = 3.14631 3.43543 3.29404
# Velocity P-wave (km/s) = 4.57805 4.94118 4.76308
#
# Compressibility (1/GPa) = 0.07289203
#
# Stress axis : x y z
#
# Youngs Moduli (GPa) = 43.61968 43.28100 27.77411
#
# Poissons Ratio (x) = 0.15644 -0.20638
# Poissons Ratio (y) = 0.15766 0.23296
# Poissons Ratio (z) = -0.32413 0.36303
#
# Static dielectric constant tensor:
#      x y z
#    x 1.590460 0.000000 0.000000 
#    y 0.000000 1.646190 0.000000 
#    z 0.000000 0.000000 1.578500 
# 
# From -- ./inp_files/25152.got.cif
#   From: 2010.05.17/outbox.cif.g08.bks.cpg/sg64_13_cif.got.tgz:25152.got - 2010.06.03 16:29:19.
