data_PCOD9476999
_publ_section_title
;
Structure prediction by ZEFSAII (Michael W. Deem and Ramdas Pophale) SiO2 
 PCOD9476999
Probable space group: C M C A
;
_chemical_formula_sum "Si O2"
_cell_formula_units_Z 112
_cell_length_a 17.526213
_cell_length_b 14.238961
_cell_length_c 23.788739
_cell_angle_alpha 90.000000
_cell_angle_beta 90.000000
_cell_angle_gamma 90.000000
_cell_volume 5936.600269
_symmetry_space_group_name_H-M "C M C A"
_symmetry_group_IT_number 64
_symmetry_cell_setting 'orthorhombic'
loop_
_space_group_symop_operation_xyz
x,y,z
-x,1/2-y,1/2+z
x,-y,-z
-x,1/2+y,1/2-z
-x,-y,-z
x,1/2+y,1/2-z
-x,y,z
x,1/2-y,1/2+z
1/2+x,1/2+y,z
1/2-x,-y,1/2+z
1/2+x,1/2-y,-z
1/2-x,y,1/2-z
1/2-x,1/2-y,-z
1/2+x,y,1/2-z
1/2-x,1/2+y,z
1/2+x,-y,1/2+z
loop_
_atom_site_type_symbol
_atom_site_label
_atom_site_fract_x
_atom_site_fract_y
_atom_site_fract_z
Si Si1 0.908376 0.888822 0.987511
Si Si2 0.588885 0.741082 0.906339
Si Si3 0.839738 0.112779 0.129526
Si Si4 0.089292 0.219826 0.227631
Si Si5 0.414654 0.561785 0.839174
Si Si6 0.411425 0.565805 0.706975
Si Si7 0.668136 0.382185 0.666844
O O1 0.859591 0.857547 0.933466
O O2 0.000000 0.879300 0.977140
O O3 0.888369 0.821359 0.039955
O O4 0.895655 0.000000 0.000000
O O5 0.500000 0.762598 0.912966
O O6 0.597503 0.669884 0.853603
O O7 0.630867 0.835010 0.888198
O O8 0.900610 0.156589 0.172479
O O9 0.853535 0.001451 0.130511
O O10 0.757645 0.130480 0.156436
O O11 0.112697 0.324951 0.208269
O O12 0.137797 0.172790 0.277700
O O13 0.000000 0.223919 0.245031
O O14 0.500000 0.539438 0.860953
O O15 0.411737 0.542027 0.773311
O O16 0.500000 0.558982 0.687461
O O17 0.358857 0.489878 0.675940
#
# Coordination Sequence:
#
# PCOD9476999 Si02
#       7
#    16  16  16  16  16  16  16
#     4  10  20  38  66  92 113 152 210 257 294 342
#     4  10  20  37  64  91 115 153 206 256 292 345
#     4  12  24  36  55  93 126 155 185 248 315 356
#     4  11  22  39  60  83 116 160 205 241 281 350
#     4  10  18  33  60  89 116 151 198 250 291 341
#     4  10  21  37  60  84 115 160 202 239 282 351
#     4  12  24  37  56  89 127 158 189 234 314 372
#
# _framework density 18.866016999999999
#
# number of rings (size 3 to 8) (size 9 to 14) (size 15 to 20)
#    0.000    1.286    4.286    3.000    0.000    1.714 
#    2.571    0.000    0.000    0.000    0.000    4.000 
#    0.000    0.000    0.000    0.000    0.000    0.000 
#
# Total GULP energy -312348.265814 kJ/mol
# GULP energy per Si atom -5577.647604 kJ/mol
# Density = 1.882308 g / cm^3
# Si number density = 18.866017 Si / 1000 Ang^3
#
#
#
# Elastic Constant Matrix: (Units=GPa)
#
#
# Indices 1 2 3 4 5 6 
#
# 1 49.4852 29.7407 29.4600 0.0000 0.0000 0.0000
# 2 29.7407 75.6394 21.8539 0.0000 0.0000 0.0000
# 3 29.4600 21.8539 76.8497 0.0000 0.0000 0.0000
# 4 0.0000 0.0000 0.0000 29.3877 0.0000 0.0000
# 5 0.0000 0.0000 0.0000 0.0000 24.0480 0.0000
# 6 0.0000 0.0000 0.0000 0.0000 0.0000 -15.1611
#
#
#
# Elastic Compliance Matrix: (Units=1/GPa)
#
#
# Indices 1 2 3 4 5 6 
#
# 1 0.031628 -0.009732 -0.009357 0.000000 0.000000 0.000000
# 2 -0.009732 0.017399 -0.001217 0.000000 0.000000 0.000000
# 3 -0.009357 -0.001217 0.016945 0.000000 0.000000 0.000000
# 4 0.000000 0.000000 0.000000 0.034028 0.000000 0.000000
# 5 0.000000 0.000000 0.000000 0.000000 0.041584 0.000000
# 6 0.000000 0.000000 0.000000 0.000000 0.000000 -0.065958
#
#
# Mechanical properties :
#
#
# Convention : Reuss Voigt Hill
#
# Bulk Modulus (GPa) = 39.43233 40.45373 39.94303
# Shear Modulus (GPa) = 40.09949 15.71623 27.90786
#
# Velocity S-wave (km/s) = 4.61530 2.88938 3.85030
# Velocity P-wave (km/s) = 7.02481 5.71144 6.40190
#
# Compressibility (1/GPa) = 0.02535990
#
# Stress axis : x y z
#
# Youngs Moduli (GPa) = 31.61805 57.47502 59.01336
#
# Poissons Ratio (x) = 0.55936 0.55217
# Poissons Ratio (y) = 0.30772 0.07181
# Poissons Ratio (z) = 0.29584 0.06994
#
# Static dielectric constant tensor:
#      x y z
#    x 1.657900 0.000000 0.000000 
#    y 0.000000 1.692770 0.000000 
#    z 0.000000 0.000000 1.673310 
# 
# From -- ./inp_files/50088.got.cif
#   From: 2010.05.17/outbox.cif.g08.bks.cpg/sg64_26_cif.got.tgz:50088.got - 2010.06.03 16:29:19.
