data_PCOD9476808
_publ_section_title
;
Structure prediction by ZEFSAII (Michael W. Deem and Ramdas Pophale) SiO2 
 PCOD9476808
Probable space group: C M C A
;
_chemical_formula_sum "Si O2"
_cell_formula_units_Z 112
_cell_length_a 17.521005
_cell_length_b 19.384751
_cell_length_c 18.518872
_cell_angle_alpha 90.000000
_cell_angle_beta 90.000000
_cell_angle_gamma 90.000000
_cell_volume 6289.755597
_symmetry_space_group_name_H-M "C M C A"
_symmetry_group_IT_number 64
_symmetry_cell_setting 'orthorhombic'
loop_
_space_group_symop_operation_xyz
x,y,z
-x,1/2-y,1/2+z
x,-y,-z
-x,1/2+y,1/2-z
-x,-y,-z
x,1/2+y,1/2-z
-x,y,z
x,1/2-y,1/2+z
1/2+x,1/2+y,z
1/2-x,-y,1/2+z
1/2+x,1/2-y,-z
1/2-x,y,1/2-z
1/2-x,1/2-y,-z
1/2+x,y,1/2-z
1/2-x,1/2+y,z
1/2+x,-y,1/2+z
loop_
_atom_site_type_symbol
_atom_site_label
_atom_site_fract_x
_atom_site_fract_y
_atom_site_fract_z
Si Si1 0.347109 0.193035 0.604434
Si Si2 0.334150 0.068762 0.965825
Si Si3 0.089012 0.723105 0.758510
Si Si4 0.292254 0.618226 0.678197
Si Si5 0.160256 0.920425 0.988566
Si Si6 0.587921 0.211608 0.992700
Si Si7 0.088626 0.671795 0.370349
O O1 0.397205 0.212772 0.673646
O O2 0.265531 0.170820 0.637048
O O3 0.371400 0.128159 0.553751
O O4 0.353058 0.257220 0.550633
O O5 0.314679 0.062111 0.880941
O O6 0.252202 0.082016 0.004099
O O7 0.387523 0.134735 0.974104
O O8 0.367518 0.000000 0.000000
O O9 0.136247 0.662235 0.795689
O O10 0.114767 0.796346 0.793588
O O11 0.000000 0.717294 0.775253
O O12 0.250000 0.591915 0.750000
O O13 0.133878 0.887599 0.912804
O O14 0.137316 0.000000 0.000000
O O15 0.500000 0.214937 0.018930
O O16 0.592194 0.261859 0.923690
O O17 0.000000 0.650209 0.364602
#
# Coordination Sequence:
#
# PCOD9476808 Si02
#       7
#    16  16  16  16  16  16  16
#     4   9  19  32  54  78 105 138 174 219 268 315
#     4  10  20  33  53  75 103 141 175 215 267 312
#     4  10  18  31  51  76 105 134 173 219 264 314
#     4   9  18  32  53  78 101 131 177 220 261 311
#     4   9  19  34  53  78 106 135 173 218 266 321
#     4  10  19  32  51  77 105 134 175 219 262 312
#     4   9  18  30  51  77 100 132 169 215 263 307
#
# _framework density 17.806733000000001
#
# number of rings (size 3 to 8) (size 9 to 14) (size 15 to 20)
#    0.000    2.571    1.429    0.429    2.000    2.857 
#    0.000    0.000   12.571    0.000    0.000    0.000 
#    0.000    0.000    0.000    0.000    0.000    0.000 
#
# Total GULP energy -311875.699134 kJ/mol
# GULP energy per Si atom -5569.208913 kJ/mol
# Density = 1.776620 g / cm^3
# Si number density = 17.806733 Si / 1000 Ang^3
#
#
#
# Elastic Constant Matrix: (Units=GPa)
#
#
# Indices 1 2 3 4 5 6 
#
# 1 15.6692 5.7968 8.9174 0.0000 0.0000 0.0000
# 2 5.7968 86.9169 21.8724 0.0000 0.0000 0.0000
# 3 8.9174 21.8724 72.4474 0.0000 0.0000 0.0000
# 4 0.0000 0.0000 0.0000 23.0579 0.0000 0.0000
# 5 0.0000 0.0000 0.0000 0.0000 20.8210 0.0000
# 6 0.0000 0.0000 0.0000 0.0000 0.0000 15.2331
#
#
#
# Elastic Compliance Matrix: (Units=1/GPa)
#
#
# Indices 1 2 3 4 5 6 
#
# 1 0.069196 -0.002675 -0.007710 0.000000 0.000000 0.000000
# 2 -0.002675 0.012555 -0.003461 0.000000 0.000000 0.000000
# 3 -0.007710 -0.003461 0.015797 0.000000 0.000000 0.000000
# 4 0.000000 0.000000 0.000000 0.043369 0.000000 0.000000
# 5 0.000000 0.000000 0.000000 0.000000 0.048028 0.000000
# 6 0.000000 0.000000 0.000000 0.000000 0.000000 0.065646
#
#
# Mechanical properties :
#
#
# Convention : Reuss Voigt Hill
#
# Bulk Modulus (GPa) = 14.31498 27.57853 20.94675
# Shear Modulus (GPa) = 16.36293 21.05221 18.70757
#
# Velocity S-wave (km/s) = 3.03465 3.44213 3.24480
# Velocity P-wave (km/s) = 4.50948 5.59634 5.08205
#
# Compressibility (1/GPa) = 0.06985690
#
# Stress axis : x y z
#
# Youngs Moduli (GPa) = 14.45160 79.65194 63.30317
#
# Poissons Ratio (x) = 0.21306 0.48804
# Poissons Ratio (y) = 0.03866 0.21910
# Poissons Ratio (z) = 0.11142 0.27568
#
# Static dielectric constant tensor:
#      x y z
#    x 1.625950 0.000000 0.000000 
#    y 0.000000 1.592190 0.000000 
#    z 0.000000 0.000000 1.653840 
# 
# From -- ./inp_files/34519.got.cif
#   From: 2010.05.17/outbox.cif.g08.bks.cpg/sg64_18_cif.got.tgz:34519.got - 2010.06.03 16:29:19.
