data_PCOD9476771
_publ_section_title
;
Structure prediction by ZEFSAII (Michael W. Deem and Ramdas Pophale) SiO2 
 PCOD9476771
Probable space group: C M C A
;
_chemical_formula_sum "Si O2"
_cell_formula_units_Z 80
_cell_length_a 19.184461
_cell_length_b 12.836439
_cell_length_c 20.214206
_cell_angle_alpha 90.000000
_cell_angle_beta 90.000000
_cell_angle_gamma 90.000000
_cell_volume 4977.953672
_symmetry_space_group_name_H-M "C M C A"
_symmetry_group_IT_number 64
_symmetry_cell_setting 'orthorhombic'
loop_
_space_group_symop_operation_xyz
x,y,z
-x,1/2-y,1/2+z
x,-y,-z
-x,1/2+y,1/2-z
-x,-y,-z
x,1/2+y,1/2-z
-x,y,z
x,1/2-y,1/2+z
1/2+x,1/2+y,z
1/2-x,-y,1/2+z
1/2+x,1/2-y,-z
1/2-x,y,1/2-z
1/2-x,1/2-y,-z
1/2+x,y,1/2-z
1/2-x,1/2+y,z
1/2+x,-y,1/2+z
loop_
_atom_site_type_symbol
_atom_site_label
_atom_site_fract_x
_atom_site_fract_y
_atom_site_fract_z
Si Si1 0.417254 0.508675 0.077587
Si Si2 0.917284 0.710696 0.338785
Si Si3 0.663506 0.585960 0.678745
Si Si4 0.326291 0.639424 0.285767
Si Si5 0.179858 0.363308 0.334763
O O1 0.500000 0.489828 0.087647
O O2 0.402388 0.624940 0.104857
O O3 0.372915 0.425415 0.119135
O O4 0.402130 0.500000 0.000000
O O5 0.887074 0.826394 0.350645
O O6 0.879281 0.666665 0.273328
O O7 0.000000 0.716242 0.328959
O O8 0.649796 0.463413 0.675807
O O9 0.740839 0.604882 0.651252
O O10 0.665688 0.606798 0.758068
O O11 0.250000 0.625300 0.250000
O O12 0.323491 0.738447 0.333982
#
# Coordination Sequence:
#
# PCOD9476771 Si02
#       5
#    16  16  16  16  16
#     4  10  21  38  57  76 106 146 187 227 261 312
#     4  10  20  32  50  76 105 137 179 217 264 320
#     4  10  18  30  53  78 112 135 164 221 280 319
#     4  11  17  31  52  79 108 139 164 216 278 319
#     4  10  18  30  54  79 104 140 175 212 266 326
#
# _framework density 16.07086
#
# number of rings (size 3 to 8) (size 9 to 14) (size 15 to 20)
#    0.000    1.800    8.000    0.000    0.000    4.000 
#    0.000    1.000    0.000    0.000    0.000    4.200 
#    0.000    0.000    0.000    0.000    0.000    0.000 
#
# Total GULP energy -222867.301632 kJ/mol
# GULP energy per Si atom -5571.682541 kJ/mol
# Density = 1.603428 g / cm^3
# Si number density = 16.070860 Si / 1000 Ang^3
#
#
#
# Elastic Constant Matrix: (Units=GPa)
#
#
# Indices 1 2 3 4 5 6 
#
# 1 72.9689 44.8477 39.1392 0.0000 0.0000 0.0000
# 2 44.8477 157.1808 35.5851 0.0000 0.0000 0.0000
# 3 39.1392 35.5851 49.8092 0.0000 0.0000 0.0000
# 4 0.0000 0.0000 0.0000 12.1037 0.0000 0.0000
# 5 0.0000 0.0000 0.0000 0.0000 18.5270 0.0000
# 6 0.0000 0.0000 0.0000 0.0000 0.0000 28.9268
#
#
#
# Elastic Compliance Matrix: (Units=1/GPa)
#
#
# Indices 1 2 3 4 5 6 
#
# 1 0.024969 -0.003200 -0.017334 0.000000 0.000000 0.000000
# 2 -0.003200 0.008000 -0.003201 0.000000 0.000000 0.000000
# 3 -0.017334 -0.003201 0.035984 0.000000 0.000000 0.000000
# 4 0.000000 0.000000 0.000000 0.082620 0.000000 0.000000
# 5 0.000000 0.000000 0.000000 0.000000 0.053975 0.000000
# 6 0.000000 0.000000 0.000000 0.000000 0.000000 0.034570
#
#
# Mechanical properties :
#
#
# Convention : Reuss Voigt Hill
#
# Bulk Modulus (GPa) = 46.54780 57.67808 52.11294
# Shear Modulus (GPa) = 16.96364 22.60394 19.78379
#
# Velocity S-wave (km/s) = 3.25245 3.75443 3.51242
# Velocity P-wave (km/s) = 6.56746 7.40014 6.99620
#
# Compressibility (1/GPa) = 0.02148329
#
# Stress axis : x y z
#
# Youngs Moduli (GPa) = 40.05002 125.00362 27.79010
#
# Poissons Ratio (x) = 0.40000 0.48171
# Poissons Ratio (y) = 0.12816 0.08895
# Poissons Ratio (z) = 0.69422 0.40012
#
# Static dielectric constant tensor:
#      x y z
#    x 1.538190 0.000000 0.000000 
#    y 0.000000 1.588240 0.000000 
#    z 0.000000 0.000000 1.501060 
# 
# From -- ./inp_files/40129.got.cif
#   From: 2010.05.17/outbox.cif.g08.bks.cpg/sg64_21_cif.got.tgz:40129.got - 2010.06.03 16:29:19.
