data_PCOD9476356
_publ_section_title
;
Structure prediction by ZEFSAII (Michael W. Deem and Ramdas Pophale) SiO2 
 PCOD9476356
Probable space group: C M C A
;
_chemical_formula_sum "Si O2"
_cell_formula_units_Z 72
_cell_length_a 20.540490
_cell_length_b 19.293505
_cell_length_c 10.316371
_cell_angle_alpha 90.000000
_cell_angle_beta 90.000000
_cell_angle_gamma 90.000000
_cell_volume 4088.357674
_symmetry_space_group_name_H-M "C M C A"
_symmetry_group_IT_number 64
_symmetry_cell_setting 'orthorhombic'
loop_
_space_group_symop_operation_xyz
x,y,z
-x,1/2-y,1/2+z
x,-y,-z
-x,1/2+y,1/2-z
-x,-y,-z
x,1/2+y,1/2-z
-x,y,z
x,1/2-y,1/2+z
1/2+x,1/2+y,z
1/2-x,-y,1/2+z
1/2+x,1/2-y,-z
1/2-x,y,1/2-z
1/2-x,1/2-y,-z
1/2+x,y,1/2-z
1/2-x,1/2+y,z
1/2+x,-y,1/2+z
loop_
_atom_site_type_symbol
_atom_site_label
_atom_site_fract_x
_atom_site_fract_y
_atom_site_fract_z
Si Si1 0.750000 0.969463 0.750000
Si Si2 0.576313 0.308410 0.348535
Si Si3 0.349727 0.743622 0.906874
Si Si4 0.252361 0.356933 0.962949
Si Si5 0.852529 0.943644 0.386965
O O1 0.732904 0.919731 0.631361
O O2 0.814393 0.013626 0.721542
O O3 0.500000 0.294771 0.334862
O O4 0.602574 0.276121 0.484125
O O5 0.615421 0.275207 0.227345
O O6 0.590026 0.391456 0.350217
O O7 0.290581 0.798472 0.889904
O O8 0.314179 0.677309 0.969920
O O9 0.203094 0.390114 0.065729
O O10 0.868388 0.000000 0.500000
#
# Coordination Sequence:
#
# PCOD9476356 Si02
#       5
#     8  16  16  16  16
#     4  10  16  30  52  78 104 130 168 216 266 312
#     4  11  22  36  53  74 106 145 179 210 248 307
#     4  10  20  35  55  81 106 132 170 218 271 311
#     4   9  18  31  54  81 105 129 164 222 277 313
#     4   9  19  32  50  76 104 137 173 209 258 313
#
# _framework density 17.610983999999998
#
# number of rings (size 3 to 8) (size 9 to 14) (size 15 to 20)
#    0.000    2.222    0.000    3.333    0.000    6.667 
#    0.000    0.000    0.000    4.000    0.000    0.000 
#    0.000    0.000    0.000    0.000    0.000    0.000 
#
# Total GULP energy -200698.269458 kJ/mol
# GULP energy per Si atom -5574.951929 kJ/mol
# Density = 1.757090 g / cm^3
# Si number density = 17.610984 Si / 1000 Ang^3
#
#
#
# Elastic Constant Matrix: (Units=GPa)
#
#
# Indices 1 2 3 4 5 6 
#
# 1 52.6144 13.8778 31.3807 0.0000 0.0000 0.0000
# 2 13.8778 68.1480 19.5256 0.0000 0.0000 0.0000
# 3 31.3807 19.5256 68.1488 0.0000 0.0000 0.0000
# 4 0.0000 0.0000 0.0000 14.2721 0.0000 0.0000
# 5 0.0000 0.0000 0.0000 0.0000 22.2730 0.0000
# 6 0.0000 0.0000 0.0000 0.0000 0.0000 23.6113
#
#
#
# Elastic Compliance Matrix: (Units=1/GPa)
#
#
# Indices 1 2 3 4 5 6 
#
# 1 0.026467 -0.002068 -0.011595 0.000000 0.000000 0.000000
# 2 -0.002068 0.016148 -0.003674 0.000000 0.000000 0.000000
# 3 -0.011595 -0.003674 0.021066 0.000000 0.000000 0.000000
# 4 0.000000 0.000000 0.000000 0.070067 0.000000 0.000000
# 5 0.000000 0.000000 0.000000 0.000000 0.044897 0.000000
# 6 0.000000 0.000000 0.000000 0.000000 0.000000 0.042353
#
#
# Mechanical properties :
#
#
# Convention : Reuss Voigt Hill
#
# Bulk Modulus (GPa) = 34.47509 35.38660 34.93085
# Shear Modulus (GPa) = 18.84371 20.30643 19.57507
#
# Velocity S-wave (km/s) = 3.27463 3.39935 3.33757
# Velocity P-wave (km/s) = 5.82375 5.96192 5.89324
#
# Compressibility (1/GPa) = 0.02900645
#
# Stress axis : x y z
#
# Youngs Moduli (GPa) = 37.78270 61.92790 47.47043
#
# Poissons Ratio (x) = 0.12804 0.55042
# Poissons Ratio (y) = 0.07812 0.17443
# Poissons Ratio (z) = 0.43809 0.22755
#
# Static dielectric constant tensor:
#      x y z
#    x 1.604670 0.000000 0.000000 
#    y 0.000000 1.635780 0.000000 
#    z 0.000000 0.000000 1.540140 
# 
# From -- ./inp_files/8012.got.cif
#   From: 2010.05.17/outbox.cif.g08.bks.cpg/sg64_5_cif.got.tgz:8012.got - 2010.06.03 16:29:19.
