data_PCOD9476957
_publ_section_title
;
Structure prediction by ZEFSAII (Michael W. Deem and Ramdas Pophale) SiO2 
 PCOD9476957
Probable space group: C M C A
;
_chemical_formula_sum "Si O2"
_cell_formula_units_Z 128
_cell_length_a 25.474563
_cell_length_b 22.163775
_cell_length_c 13.511228
_cell_angle_alpha 90.000000
_cell_angle_beta 90.000000
_cell_angle_gamma 90.000000
_cell_volume 7628.607983
_symmetry_space_group_name_H-M "C M C A"
_symmetry_group_IT_number 64
_symmetry_cell_setting 'orthorhombic'
loop_
_space_group_symop_operation_xyz
x,y,z
-x,1/2-y,1/2+z
x,-y,-z
-x,1/2+y,1/2-z
-x,-y,-z
x,1/2+y,1/2-z
-x,y,z
x,1/2-y,1/2+z
1/2+x,1/2+y,z
1/2-x,-y,1/2+z
1/2+x,1/2-y,-z
1/2-x,y,1/2-z
1/2-x,1/2-y,-z
1/2+x,y,1/2-z
1/2-x,1/2+y,z
1/2+x,-y,1/2+z
loop_
_atom_site_type_symbol
_atom_site_label
_atom_site_fract_x
_atom_site_fract_y
_atom_site_fract_z
Si Si1 0.870878 0.954186 0.578808
Si Si2 0.637099 0.288133 0.723282
Si Si3 0.312408 0.167542 0.030578
Si Si4 0.193935 0.319427 0.195343
Si Si5 0.688726 0.039250 0.772871
Si Si6 0.437768 0.606704 0.247859
Si Si7 0.216935 0.874274 0.842774
Si Si8 0.867359 0.469355 0.604133
O O1 0.840771 0.898041 0.529186
O O2 0.829209 0.005125 0.360696
O O3 0.911458 0.926358 0.657298
O O4 0.895476 0.000000 0.500000
O O5 0.652882 0.294420 0.608138
O O6 0.647909 0.220541 0.757093
O O7 0.583801 0.324431 0.745840
O O8 0.679170 0.327229 0.787108
O O9 0.304535 0.193560 0.921851
O O10 0.256550 0.157179 0.082676
O O11 0.250000 0.306637 0.250000
O O12 0.182201 0.390244 0.205067
O O13 0.750000 0.031914 0.750000
O O14 0.652361 0.019986 0.680996
O O15 0.500000 0.604157 0.248734
O O16 0.413247 0.570552 0.154394
O O17 0.250000 0.900653 0.750000
O O18 0.182276 0.923644 0.898595
O O19 0.879693 0.500000 0.500000
#
# Coordination Sequence:
#
# PCOD9476957 Si02
#       8
#    16  16  16  16  16  16  16  16
#     4  10  18  33  55  80 108 135 163 219 267 307
#     4   9  20  37  51  70 100 135 183 225 253 290
#     4  10  19  32  52  75 107 150 174 203 249 301
#     4  11  22  31  47  81 111 146 175 203 241 302
#     4  10  20  31  46  80 121 146 171 196 241 308
#     4   9  20  39  60  75  90 127 181 227 269 315
#     4   9  17  31  49  70 102 143 183 204 235 298
#     4  10  20  31  50  79 107 138 165 210 260 311
#
# _framework density 16.778946000000001
#
# number of rings (size 3 to 8) (size 9 to 14) (size 15 to 20)
#    0.000    2.250    1.250    4.500    3.500    3.500 
#    2.250    0.000    0.000    6.000    0.000    0.000 
#    0.000    0.000    0.000    0.000    0.000    0.000 
#
# Total GULP energy -356807.766545 kJ/mol
# GULP energy per Si atom -5575.121352 kJ/mol
# Density = 1.674076 g / cm^3
# Si number density = 16.778946 Si / 1000 Ang^3
#
#
#
# Elastic Constant Matrix: (Units=GPa)
#
#
# Indices 1 2 3 4 5 6 
#
# 1 96.3840 30.2063 26.4151 0.0000 0.0000 0.0000
# 2 30.2063 70.3244 26.2227 0.0000 0.0000 0.0000
# 3 26.4151 26.2227 104.5224 0.0000 0.0000 0.0000
# 4 0.0000 0.0000 0.0000 19.0559 0.0000 0.0000
# 5 0.0000 0.0000 0.0000 0.0000 8.4579 0.0000
# 6 0.0000 0.0000 0.0000 0.0000 0.0000 12.4628
#
#
#
# Elastic Compliance Matrix: (Units=1/GPa)
#
#
# Indices 1 2 3 4 5 6 
#
# 1 0.012348 -0.004567 -0.001975 0.000000 0.000000 0.000000
# 2 -0.004567 0.017377 -0.003205 0.000000 0.000000 0.000000
# 3 -0.001975 -0.003205 0.010871 0.000000 0.000000 0.000000
# 4 0.000000 0.000000 0.000000 0.052477 0.000000 0.000000
# 5 0.000000 0.000000 0.000000 0.000000 0.118233 0.000000
# 6 0.000000 0.000000 0.000000 0.000000 0.000000 0.080239
#
#
# Mechanical properties :
#
#
# Convention : Reuss Voigt Hill
#
# Bulk Modulus (GPa) = 47.39233 48.54658 47.96946
# Shear Modulus (GPa) = 15.71972 20.55443 18.13707
#
# Velocity S-wave (km/s) = 3.06416 3.50382 3.29134
# Velocity P-wave (km/s) = 6.38946 6.73534 6.56468
#
# Compressibility (1/GPa) = 0.02110046
#
# Stress axis : x y z
#
# Youngs Moduli (GPa) = 80.98646 57.54797 91.99198
#
# Poissons Ratio (x) = 0.26284 0.18165
# Poissons Ratio (y) = 0.36990 0.29486
# Poissons Ratio (z) = 0.15992 0.18446
#
# Static dielectric constant tensor:
#      x y z
#    x 1.537260 0.000000 0.000000 
#    y 0.000000 1.598400 0.000000 
#    z 0.000000 0.000000 1.590800 
# 
# From -- ./inp_files/19422.got.cif
#   From: 2010.05.17/outbox.cif.g08.bks.cpg/sg64_10_cif.got.tgz:19422.got - 2010.06.03 16:29:19.
