data_PCOD9476394
_publ_section_title
;
Structure prediction by ZEFSAII (Michael W. Deem and Ramdas Pophale) SiO2 
 PCOD9476394
Probable space group: C M C A
;
_chemical_formula_sum "Si O2"
_cell_formula_units_Z 96
_cell_length_a 19.102299
_cell_length_b 16.039077
_cell_length_c 19.216718
_cell_angle_alpha 90.000000
_cell_angle_beta 90.000000
_cell_angle_gamma 90.000000
_cell_volume 5887.680410
_symmetry_space_group_name_H-M "C M C A"
_symmetry_group_IT_number 64
_symmetry_cell_setting 'orthorhombic'
loop_
_space_group_symop_operation_xyz
x,y,z
-x,1/2-y,1/2+z
x,-y,-z
-x,1/2+y,1/2-z
-x,-y,-z
x,1/2+y,1/2-z
-x,y,z
x,1/2-y,1/2+z
1/2+x,1/2+y,z
1/2-x,-y,1/2+z
1/2+x,1/2-y,-z
1/2-x,y,1/2-z
1/2-x,1/2-y,-z
1/2+x,y,1/2-z
1/2-x,1/2+y,z
1/2+x,-y,1/2+z
loop_
_atom_site_type_symbol
_atom_site_label
_atom_site_fract_x
_atom_site_fract_y
_atom_site_fract_z
Si Si1 0.673494 0.040430 0.219433
Si Si2 0.293446 0.012981 0.925402
Si Si3 0.176253 0.634714 0.422276
Si Si4 0.172432 0.858814 0.080196
Si Si5 0.221277 0.775846 0.679878
Si Si6 0.417290 0.993737 0.646843
O O1 0.750000 0.014970 0.250000
O O2 0.662662 0.999988 0.144099
O O3 0.682182 0.139754 0.205429
O O4 0.617658 0.014961 0.277005
O O5 0.233593 0.940499 0.926234
O O6 0.249191 0.097605 0.918704
O O7 0.329774 0.000000 0.000000
O O8 0.162561 0.666759 0.499881
O O9 0.213284 0.697416 0.368987
O O10 0.107775 0.590379 0.392120
O O11 0.173283 0.782858 0.133441
O O12 0.117816 0.928946 0.105534
O O13 0.250000 0.733656 0.750000
O O14 0.500000 0.001878 0.649558
#
# Coordination Sequence:
#
# PCOD9476394 Si02
#       6
#    16  16  16  16  16  16
#     4  10  16  33  51  69 103 136 175 211 250 304
#     4   8  15  27  48  74  99 126 166 218 256 288
#     4   9  17  33  48  75 106 133 168 208 258 313
#     4  10  19  28  51  79 103 131 168 215 259 300
#     4  10  18  30  52  76 102 132 169 216 259 297
#     4  11  21  34  53  78 106 139 172 211 261 314
#
# _framework density 16.305233000000001
#
# number of rings (size 3 to 8) (size 9 to 14) (size 15 to 20)
#    0.000    2.333    6.667    2.000    2.333    1.333 
#    0.000    0.833    0.000    0.500    0.000    0.000 
#    0.000    0.000    0.000    0.000    0.000    0.000 
#
# Total GULP energy -267270.310075 kJ/mol
# GULP energy per Si atom -5568.131460 kJ/mol
# Density = 1.626812 g / cm^3
# Si number density = 16.305233 Si / 1000 Ang^3
#
#
#
# Elastic Constant Matrix: (Units=GPa)
#
#
# Indices 1 2 3 4 5 6 
#
# 1 62.4416 17.5126 33.3688 0.0000 0.0000 0.0000
# 2 17.5126 22.3789 16.2716 0.0000 0.0000 0.0000
# 3 33.3688 16.2716 142.7504 0.0000 0.0000 0.0000
# 4 0.0000 0.0000 0.0000 22.2438 0.0000 0.0000
# 5 0.0000 0.0000 0.0000 0.0000 12.9525 0.0000
# 6 0.0000 0.0000 0.0000 0.0000 0.0000 8.0557
#
#
#
# Elastic Compliance Matrix: (Units=1/GPa)
#
#
# Indices 1 2 3 4 5 6 
#
# 1 0.021986 -0.014685 -0.003465 0.000000 0.000000 0.000000
# 2 -0.014685 0.058532 -0.003239 0.000000 0.000000 0.000000
# 3 -0.003465 -0.003239 0.008184 0.000000 0.000000 0.000000
# 4 0.000000 0.000000 0.000000 0.044956 0.000000 0.000000
# 5 0.000000 0.000000 0.000000 0.000000 0.077205 0.000000
# 6 0.000000 0.000000 0.000000 0.000000 0.000000 0.124136
#
#
# Mechanical properties :
#
#
# Convention : Reuss Voigt Hill
#
# Bulk Modulus (GPa) = 21.77572 40.20855 30.99213
# Shear Modulus (GPa) = 12.71986 19.34491 16.03239
#
# Velocity S-wave (km/s) = 2.79607 3.44819 3.13911
# Velocity P-wave (km/s) = 4.87935 6.36920 5.67340
#
# Compressibility (1/GPa) = 0.04592271
#
# Stress axis : x y z
#
# Youngs Moduli (GPa) = 45.48452 17.08473 122.18222
#
# Poissons Ratio (x) = 0.25089 0.42340
# Poissons Ratio (y) = 0.66794 0.39576
# Poissons Ratio (z) = 0.15762 0.05534
#
# Static dielectric constant tensor:
#      x y z
#    x 1.510270 0.000000 0.000000 
#    y 0.000000 1.578120 0.000000 
#    z 0.000000 0.000000 1.609610 
# 
# From -- ./inp_files/34421.got.cif
#   From: 2010.05.17/outbox.cif.g08.bks.cpg/sg64_18_cif.got.tgz:34421.got - 2010.06.03 16:29:19.
