data_PCOD9476817
_publ_section_title
;
Structure prediction by ZEFSAII (Michael W. Deem and Ramdas Pophale) SiO2 
 PCOD9476817
Probable space group: C M C A
;
_chemical_formula_sum "Si O2"
_cell_formula_units_Z 96
_cell_length_a 8.167309
_cell_length_b 21.205214
_cell_length_c 29.313444
_cell_angle_alpha 90.000000
_cell_angle_beta 90.000000
_cell_angle_gamma 90.000000
_cell_volume 5076.781740
_symmetry_space_group_name_H-M "C M C A"
_symmetry_group_IT_number 64
_symmetry_cell_setting 'orthorhombic'
loop_
_space_group_symop_operation_xyz
x,y,z
-x,1/2-y,1/2+z
x,-y,-z
-x,1/2+y,1/2-z
-x,-y,-z
x,1/2+y,1/2-z
-x,y,z
x,1/2-y,1/2+z
1/2+x,1/2+y,z
1/2-x,-y,1/2+z
1/2+x,1/2-y,-z
1/2-x,y,1/2-z
1/2-x,1/2-y,-z
1/2+x,y,1/2-z
1/2-x,1/2+y,z
1/2+x,-y,1/2+z
loop_
_atom_site_type_symbol
_atom_site_label
_atom_site_fract_x
_atom_site_fract_y
_atom_site_fract_z
Si Si1 0.801617 0.750049 0.552698
Si Si2 0.801857 0.997812 0.447369
Si Si3 0.300001 0.375490 0.605079
Si Si4 0.804347 0.571819 0.699584
Si Si5 0.195457 0.073437 0.300254
Si Si6 0.803606 0.873599 0.106034
O O1 0.750000 0.750000 0.500000
O O2 0.744895 0.812895 0.579064
O O3 0.741510 0.688012 0.579600
O O4 0.000000 0.749841 0.553487
O O5 0.749825 0.061523 0.421847
O O6 0.000000 0.995190 0.445808
O O7 0.751013 0.000000 0.500000
O O8 0.735903 0.936087 0.422562
O O9 0.500000 0.374185 0.605043
O O10 0.245816 0.384353 0.657425
O O11 0.750000 0.591948 0.750000
O O12 0.750279 0.499124 0.692860
O O13 0.741603 0.613794 0.657475
O O14 0.000000 0.572301 0.698696
O O15 0.250000 0.093886 0.250000
O O16 0.000000 0.073156 0.300961
O O17 0.000000 0.867074 0.108941
#
# Coordination Sequence:
#
# PCOD9476817 Si02
#       6
#    16  16  16  16  16  16
#     4  10  21  39  57  76 105 142 180 215 260 315
#     4  10  19  32  53  78 102 133 178 222 259 310
#     4   9  18  33  53  76 103 138 175 213 259 310
#     4  10  19  32  51  78 107 138 172 213 264 315
#     4  10  18  31  52  78 105 136 171 214 264 311
#     4  10  21  35  53  78 108 139 172 217 270 313
#
# _framework density 18.909617000000001
#
# number of rings (size 3 to 8) (size 9 to 14) (size 15 to 20)
#    0.000    2.167    1.667    3.000    0.000    3.000 
#    0.000    3.333    0.000    0.000    0.000    0.000 
#    0.000    0.000    0.000    0.000    0.000    0.000 
#
# Total GULP energy -267891.075958 kJ/mol
# GULP energy per Si atom -5581.064082 kJ/mol
# Density = 1.886658 g / cm^3
# Si number density = 18.909617 Si / 1000 Ang^3
#
#
#
# Elastic Constant Matrix: (Units=GPa)
#
#
# Indices 1 2 3 4 5 6 
#
# 1 17.0721 7.3902 15.9242 0.0000 0.0000 0.0000
# 2 7.3902 153.9001 108.3520 0.0000 0.0000 0.0000
# 3 15.9242 108.3520 218.8525 0.0000 0.0000 0.0000
# 4 0.0000 0.0000 0.0000 35.2349 0.0000 0.0000
# 5 0.0000 0.0000 0.0000 0.0000 24.6287 0.0000
# 6 0.0000 0.0000 0.0000 0.0000 0.0000 15.6186
#
#
#
# Elastic Compliance Matrix: (Units=1/GPa)
#
#
# Indices 1 2 3 4 5 6 
#
# 1 0.062850 0.000310 -0.004726 0.000000 0.000000 0.000000
# 2 0.000310 0.009976 -0.004962 0.000000 0.000000 0.000000
# 3 -0.004726 -0.004962 0.007370 0.000000 0.000000 0.000000
# 4 0.000000 0.000000 0.000000 0.028381 0.000000 0.000000
# 5 0.000000 0.000000 0.000000 0.000000 0.040603 0.000000
# 6 0.000000 0.000000 0.000000 0.000000 0.000000 0.064026
#
#
# Mechanical properties :
#
#
# Convention : Reuss Voigt Hill
#
# Bulk Modulus (GPa) = 16.27643 72.57307 44.42475
# Shear Modulus (GPa) = 19.80655 32.30699 26.05677
#
# Velocity S-wave (km/s) = 3.23992 4.13788 3.71612
# Velocity P-wave (km/s) = 4.75629 7.82890 6.47742
#
# Compressibility (1/GPa) = 0.06143855
#
# Stress axis : x y z
#
# Youngs Moduli (GPa) = 15.91098 100.24063 135.69234
#
# Poissons Ratio (x) = -0.03103 0.64133
# Poissons Ratio (y) = -0.00493 0.67324
# Poissons Ratio (z) = 0.07520 0.49735
#
# Static dielectric constant tensor:
#      x y z
#    x 1.674090 0.000000 0.000000 
#    y 0.000000 1.627600 0.000000 
#    z 0.000000 0.000000 1.671910 
# 
# From -- ./inp_files/48114.got.cif
#   From: 2010.05.17/outbox.cif.g08.bks.cpg/sg64_25_cif.got.tgz:48114.got - 2010.06.03 16:29:19.
