data_PCOD9476573
_publ_section_title
;
Structure prediction by ZEFSAII (Michael W. Deem and Ramdas Pophale) SiO2 
 PCOD9476573
Probable space group: C M C A
;
_chemical_formula_sum "Si O2"
_cell_formula_units_Z 64
_cell_length_a 14.523635
_cell_length_b 7.751169
_cell_length_c 22.051020
_cell_angle_alpha 90.000000
_cell_angle_beta 90.000000
_cell_angle_gamma 90.000000
_cell_volume 2482.396870
_symmetry_space_group_name_H-M "C M C A"
_symmetry_group_IT_number 64
_symmetry_cell_setting 'orthorhombic'
loop_
_space_group_symop_operation_xyz
x,y,z
-x,1/2-y,1/2+z
x,-y,-z
-x,1/2+y,1/2-z
-x,-y,-z
x,1/2+y,1/2-z
-x,y,z
x,1/2-y,1/2+z
1/2+x,1/2+y,z
1/2-x,-y,1/2+z
1/2+x,1/2-y,-z
1/2-x,y,1/2-z
1/2-x,1/2-y,-z
1/2+x,y,1/2-z
1/2-x,1/2+y,z
1/2+x,-y,1/2+z
loop_
_atom_site_type_symbol
_atom_site_label
_atom_site_fract_x
_atom_site_fract_y
_atom_site_fract_z
Si Si1 0.891551 0.032870 0.627690
Si Si2 0.772667 0.350349 0.679573
Si Si3 0.400031 0.566965 0.897226
Si Si4 0.641473 0.755849 0.013286
O O1 0.842162 0.194172 0.662820
O O2 0.826588 0.873305 0.646646
O O3 0.880383 0.083631 0.556791
O O4 0.000000 0.017016 0.641942
O O5 0.750000 0.353311 0.750000
O O6 0.826193 0.519573 0.654107
O O7 0.500000 0.563573 0.868038
O O8 0.386340 0.402811 0.942897
O O9 0.400673 0.717216 0.947954
O O10 0.750000 0.750000 0.000000
#
# Coordination Sequence:
#
# PCOD9476573 Si02
#       4
#    16  16  16  16
#     4  11  24  43  67  94 129 170 210 264 325 376
#     4  11  23  42  66  94 128 169 218 264 312 377
#     4  10  20  36  61  89 119 163 209 255 318 380
#     4  10  17  33  60  89 121 157 202 260 319 372
#
# _framework density 25.781534000000001
#
# number of rings (size 3 to 8) (size 9 to 14) (size 15 to 20)
#    0.000    1.500    2.500    6.000    0.000    2.000 
#    0.000    2.500    0.000    6.000    0.000    0.000 
#    0.000    0.000    0.000    0.000    0.000    0.000 
#
# Total GULP energy -178937.354115 kJ/mol
# GULP energy per Si atom -5591.792316 kJ/mol
# Density = 2.572285 g / cm^3
# Si number density = 25.781534 Si / 1000 Ang^3
#
#
#
# Elastic Constant Matrix: (Units=GPa)
#
#
# Indices 1 2 3 4 5 6 
#
# 1 245.6682 1.0075 47.4375 0.0000 0.0000 0.0000
# 2 1.0075 118.4497 22.3200 0.0000 0.0000 0.0000
# 3 47.4375 22.3200 205.4975 0.0000 0.0000 0.0000
# 4 0.0000 0.0000 0.0000 31.1501 0.0000 0.0000
# 5 0.0000 0.0000 0.0000 0.0000 -96.8667 0.0000
# 6 0.0000 0.0000 0.0000 0.0000 0.0000 34.5000
#
#
#
# Elastic Compliance Matrix: (Units=1/GPa)
#
#
# Indices 1 2 3 4 5 6 
#
# 1 0.004263 0.000152 -0.001001 0.000000 0.000000 0.000000
# 2 0.000152 0.008624 -0.000972 0.000000 0.000000 0.000000
# 3 -0.001001 -0.000972 0.005203 0.000000 0.000000 0.000000
# 4 0.000000 0.000000 0.000000 0.032103 0.000000 0.000000
# 5 0.000000 0.000000 0.000000 0.000000 -0.010323 0.000000
# 6 0.000000 0.000000 0.000000 0.000000 0.000000 0.028986
#
#
# Mechanical properties :
#
#
# Convention : Reuss Voigt Hill
#
# Bulk Modulus (GPa) = 69.20556 79.01613 74.11085
# Shear Modulus (GPa) = 64.67313 27.01337 45.84325
#
# Velocity S-wave (km/s) = 5.01393 3.24045 4.22138
# Velocity P-wave (km/s) = 7.77308 6.68697 7.25039
#
# Compressibility (1/GPa) = 0.01444971
#
# Stress axis : x y z
#
# Youngs Moduli (GPa) = 234.56950 115.95225 192.20452
#
# Poissons Ratio (x) = -0.01766 0.19233
# Poissons Ratio (y) = -0.03572 0.18680
# Poissons Ratio (z) = 0.23472 0.11269
#
# Static dielectric constant tensor:
#      x y z
#    x 2.117420 0.000000 0.000000 
#    y 0.000000 3.875890 0.000000 
#    z 0.000000 0.000000 1.935110 
# 
# From -- ./inp_files/43721.got.cif
#   From: 2010.05.17/outbox.cif.g08.bks.cpg/sg64_22_cif.got.tgz:43721.got - 2010.06.03 16:29:19.
