data_PCOD9476858
_publ_section_title
;
Structure prediction by ZEFSAII (Michael W. Deem and Ramdas Pophale) SiO2 
 PCOD9476858
Probable space group: C M C A
;
_chemical_formula_sum "Si O2"
_cell_formula_units_Z 96
_cell_length_a 11.687220
_cell_length_b 17.779480
_cell_length_c 26.231090
_cell_angle_alpha 90.000000
_cell_angle_beta 90.000000
_cell_angle_gamma 90.000000
_cell_volume 5450.628864
_symmetry_space_group_name_H-M "C M C A"
_symmetry_group_IT_number 64
_symmetry_cell_setting 'orthorhombic'
loop_
_space_group_symop_operation_xyz
x,y,z
-x,1/2-y,1/2+z
x,-y,-z
-x,1/2+y,1/2-z
-x,-y,-z
x,1/2+y,1/2-z
-x,y,z
x,1/2-y,1/2+z
1/2+x,1/2+y,z
1/2-x,-y,1/2+z
1/2+x,1/2-y,-z
1/2-x,y,1/2-z
1/2-x,1/2-y,-z
1/2+x,y,1/2-z
1/2-x,1/2+y,z
1/2+x,-y,1/2+z
loop_
_atom_site_type_symbol
_atom_site_label
_atom_site_fract_x
_atom_site_fract_y
_atom_site_fract_z
Si Si1 0.288649 0.273212 0.415909
Si Si2 0.133552 0.531316 0.216638
Si Si3 0.804050 0.958743 0.547730
Si Si4 0.874847 0.657834 0.129273
Si Si5 0.130139 0.072920 0.625028
Si Si6 0.370269 0.656282 0.003169
O O1 0.222333 0.219622 0.376656
O O2 0.351716 0.340272 0.387027
O O3 0.363510 0.219626 0.452380
O O4 0.198664 0.311156 0.455067
O O5 0.250000 0.536022 0.250000
O O6 0.138892 0.600221 0.176037
O O7 0.142664 0.455366 0.182683
O O8 0.000000 0.533159 0.237816
O O9 0.868676 0.892559 0.577746
O O10 0.693745 0.917079 0.524805
O O11 0.862308 0.000000 0.500000
O O12 0.786401 0.023052 0.589872
O O13 0.000000 0.693245 0.132690
O O14 0.000000 0.051527 0.609946
O O15 0.500000 0.640696 0.989676
#
# Coordination Sequence:
#
# PCOD9476858 Si02
#       6
#    16  16  16  16  16  16
#     4  10  19  34  49  75 104 139 183 211 258 316
#     4   9  19  39  63  84 105 133 176 228 279 328
#     4  10  18  32  47  75 102 138 185 212 247 308
#     4   9  19  34  54  76 104 137 174 220 260 313
#     4  10  20  35  55  78 105 137 178 227 266 311
#     4  10  20  32  46  68 108 150 179 215 256 304
#
# _framework density 17.612646999999999
#
# number of rings (size 3 to 8) (size 9 to 14) (size 15 to 20)
#    0.000    2.333    1.667    2.500    0.000    1.667 
#    0.000   10.833    0.000    4.000    0.000    0.000 
#    0.000    0.000    0.000    0.000    0.000    0.000 
#
# Total GULP energy -267205.173845 kJ/mol
# GULP energy per Si atom -5566.774455 kJ/mol
# Density = 1.757256 g / cm^3
# Si number density = 17.612647 Si / 1000 Ang^3
#
#
#
# Elastic Constant Matrix: (Units=GPa)
#
#
# Indices 1 2 3 4 5 6 
#
# 1 100.9001 24.3157 40.5093 0.0000 0.0000 0.0000
# 2 24.3157 76.3848 10.7830 0.0000 0.0000 0.0000
# 3 40.5093 10.7830 49.6239 0.0000 0.0000 0.0000
# 4 0.0000 0.0000 0.0000 16.5051 0.0000 0.0000
# 5 0.0000 0.0000 0.0000 0.0000 11.4645 0.0000
# 6 0.0000 0.0000 0.0000 0.0000 0.0000 10.8371
#
#
#
# Elastic Compliance Matrix: (Units=1/GPa)
#
#
# Indices 1 2 3 4 5 6 
#
# 1 0.015484 -0.003244 -0.011935 0.000000 0.000000 0.000000
# 2 -0.003244 0.014186 -0.000434 0.000000 0.000000 0.000000
# 3 -0.011935 -0.000434 0.029989 0.000000 0.000000 0.000000
# 4 0.000000 0.000000 0.000000 0.060588 0.000000 0.000000
# 5 0.000000 0.000000 0.000000 0.000000 0.087226 0.000000
# 6 0.000000 0.000000 0.000000 0.000000 0.000000 0.092276
#
#
# Mechanical properties :
#
#
# Convention : Reuss Voigt Hill
#
# Bulk Modulus (GPa) = 35.17208 42.01387 38.59298
# Shear Modulus (GPa) = 14.68631 17.84804 16.26717
#
# Velocity S-wave (km/s) = 2.89078 3.18679 3.04239
# Velocity P-wave (km/s) = 5.58169 6.11940 5.85672
#
# Compressibility (1/GPa) = 0.02843164
#
# Stress axis : x y z
#
# Youngs Moduli (GPa) = 64.58095 70.49375 33.34552
#
# Poissons Ratio (x) = 0.22870 0.39799
# Poissons Ratio (y) = 0.20952 0.01447
# Poissons Ratio (z) = 0.77080 0.03060
#
# Static dielectric constant tensor:
#      x y z
#    x 1.603830 0.000000 0.000000 
#    y 0.000000 1.610040 0.000000 
#    z 0.000000 0.000000 1.600140 
# 
# From -- ./inp_files/44194.got.cif
#   From: 2010.05.17/outbox.cif.g08.bks.cpg/sg64_23_cif.got.tgz:44194.got - 2010.06.03 16:29:19.
