data_PCOD9476825
_publ_section_title
;
Structure prediction by ZEFSAII (Michael W. Deem and Ramdas Pophale) SiO2 
 PCOD9476825
Probable space group: C M C A
;
_chemical_formula_sum "Si O2"
_cell_formula_units_Z 64
_cell_length_a 16.855290
_cell_length_b 18.219126
_cell_length_c 9.096655
_cell_angle_alpha 90.000000
_cell_angle_beta 90.000000
_cell_angle_gamma 90.000000
_cell_volume 2793.479524
_symmetry_space_group_name_H-M "C M C A"
_symmetry_group_IT_number 64
_symmetry_cell_setting 'orthorhombic'
loop_
_space_group_symop_operation_xyz
x,y,z
-x,1/2-y,1/2+z
x,-y,-z
-x,1/2+y,1/2-z
-x,-y,-z
x,1/2+y,1/2-z
-x,y,z
x,1/2-y,1/2+z
1/2+x,1/2+y,z
1/2-x,-y,1/2+z
1/2+x,1/2-y,-z
1/2-x,y,1/2-z
1/2-x,1/2-y,-z
1/2+x,y,1/2-z
1/2-x,1/2+y,z
1/2+x,-y,1/2+z
loop_
_atom_site_type_symbol
_atom_site_label
_atom_site_fract_x
_atom_site_fract_y
_atom_site_fract_z
Si Si1 0.500000 0.496405 0.775887
Si Si2 0.790431 0.855551 0.399323
Si Si3 0.648026 0.200039 0.395799
Si Si4 0.000000 0.371715 0.469543
Si Si5 0.164618 0.068256 0.325476
O O1 0.500000 0.581796 0.821161
O O2 0.585632 0.478588 0.705445
O O3 0.500000 0.437835 0.910888
O O4 0.750000 0.881438 0.250000
O O5 0.723252 0.824200 0.508485
O O6 0.845567 0.785899 0.361754
O O7 0.827367 0.917577 0.501214
O O8 0.574810 0.178215 0.497022
O O9 0.647583 0.148284 0.251938
O O10 0.250000 0.045997 0.250000
#
# Coordination Sequence:
#
# PCOD9476825 Si02
#       5
#     8  16  16   8  16
#     4   9  18  35  57  83 115 157 218 275 312 382
#     4  10  18  31  52  82 118 154 197 253 321 394
#     4   9  17  31  52  79 112 149 193 248 316 393
#     4   9  18  33  55  81 111 151 202 258 318 381
#     4   9  18  33  56  84 115 157 208 264 327 387
#
# _framework density 22.910495999999998
#
# number of rings (size 3 to 8) (size 9 to 14) (size 15 to 20)
#    0.000    2.750    0.000    3.750    0.000    1.000 
#    0.000    6.250    0.000    6.000    0.000    1.750 
#    0.000    0.000    0.000    0.000    0.000    0.000 
#
# Total GULP energy -178691.543495 kJ/mol
# GULP energy per Si atom -5584.110734 kJ/mol
# Density = 2.285835 g / cm^3
# Si number density = 22.910496 Si / 1000 Ang^3
#
#
#
# Elastic Constant Matrix: (Units=GPa)
#
#
# Indices 1 2 3 4 5 6 
#
# 1 162.3968 73.6608 41.6582 0.0000 0.0000 0.0000
# 2 73.6608 131.1939 54.1805 0.0000 0.0000 0.0000
# 3 41.6582 54.1805 135.4137 0.0000 0.0000 0.0000
# 4 0.0000 0.0000 0.0000 26.1073 0.0000 0.0000
# 5 0.0000 0.0000 0.0000 0.0000 21.9336 0.0000
# 6 0.0000 0.0000 0.0000 0.0000 0.0000 27.6808
#
#
#
# Elastic Compliance Matrix: (Units=1/GPa)
#
#
# Indices 1 2 3 4 5 6 
#
# 1 0.008339 -0.004340 -0.000829 0.000000 0.000000 0.000000
# 2 -0.004340 0.011389 -0.003222 0.000000 0.000000 0.000000
# 3 -0.000829 -0.003222 0.008929 0.000000 0.000000 0.000000
# 4 0.000000 0.000000 0.000000 0.038303 0.000000 0.000000
# 5 0.000000 0.000000 0.000000 0.000000 0.045592 0.000000
# 6 0.000000 0.000000 0.000000 0.000000 0.000000 0.036126
#
#
# Mechanical properties :
#
#
# Convention : Reuss Voigt Hill
#
# Bulk Modulus (GPa) = 84.20343 85.33369 84.76856
# Shear Modulus (GPa) = 29.51266 32.44468 30.97867
#
# Velocity S-wave (km/s) = 3.59301 3.76726 3.68116
# Velocity P-wave (km/s) = 7.35159 7.50003 7.42618
#
# Compressibility (1/GPa) = 0.01187600
#
# Stress axis : x y z
#
# Youngs Moduli (GPa) = 119.92163 87.80046 111.99484
#
# Poissons Ratio (x) = 0.38102 0.09284
# Poissons Ratio (y) = 0.52041 0.36085
# Poissons Ratio (z) = 0.09942 0.28290
#
# Static dielectric constant tensor:
#      x y z
#    x 1.808850 0.000000 0.000000 
#    y 0.000000 1.866700 0.000000 
#    z 0.000000 0.000000 1.867050 
# 
# From -- ./inp_files/6631.got.cif
#   From: 2010.05.17/outbox.cif.g08.bks.cpg/sg64_4_cif.got.tgz:6631.got - 2010.06.03 16:29:19.
