data_PCOD9476991
_publ_section_title
;
Structure prediction by ZEFSAII (Michael W. Deem and Ramdas Pophale) SiO2 
 PCOD9476991
Probable space group: C M C A
;
_chemical_formula_sum "Si O2"
_cell_formula_units_Z 88
_cell_length_a 14.015042
_cell_length_b 15.904116
_cell_length_c 20.217581
_cell_angle_alpha 90.000000
_cell_angle_beta 90.000000
_cell_angle_gamma 90.000000
_cell_volume 4506.435195
_symmetry_space_group_name_H-M "C M C A"
_symmetry_group_IT_number 64
_symmetry_cell_setting 'orthorhombic'
loop_
_space_group_symop_operation_xyz
x,y,z
-x,1/2-y,1/2+z
x,-y,-z
-x,1/2+y,1/2-z
-x,-y,-z
x,1/2+y,1/2-z
-x,y,z
x,1/2-y,1/2+z
1/2+x,1/2+y,z
1/2-x,-y,1/2+z
1/2+x,1/2-y,-z
1/2-x,y,1/2-z
1/2-x,1/2-y,-z
1/2+x,y,1/2-z
1/2-x,1/2+y,z
1/2+x,-y,1/2+z
loop_
_atom_site_type_symbol
_atom_site_label
_atom_site_fract_x
_atom_site_fract_y
_atom_site_fract_z
Si Si1 0.391274 0.737552 0.004226
Si Si2 0.275313 0.984982 0.146846
Si Si3 0.601810 0.075888 0.051347
Si Si4 0.250000 0.204509 0.250000
Si Si5 0.752215 0.795992 0.389999
Si Si6 0.386824 0.950685 0.728925
O O1 0.500000 0.707929 0.012472
O O2 0.393422 0.836237 0.985094
O O3 0.336668 0.698826 0.941122
O O4 0.328629 0.737590 0.070915
O O5 0.286953 0.891617 0.119346
O O6 0.309901 0.057442 0.097618
O O7 0.345939 0.996550 0.209012
O O8 0.167587 0.004901 0.168122
O O9 0.500000 0.073998 0.089063
O O10 0.600166 0.000000 0.000000
O O11 0.266556 0.258411 0.183136
O O12 0.339408 0.141627 0.262223
O O13 0.500000 0.949115 0.724760
#
# Coordination Sequence:
#
# PCOD9476991 Si02
#       6
#    16  16  16   8  16  16
#     4  10  22  38  58  87 122 156 191 236 288 347
#     4  10  20  36  59  85 114 148 189 242 288 337
#     4  10  18  33  59  85 110 147 194 234 272 327
#     4  10  22  40  60  82 116 156 192 240 294 346
#     4  11  22  38  59  87 121 153 191 237 296 348
#     4  10  22  39  59  83 111 148 194 238 287 347
#
# _framework density 19.527629999999998
#
# number of rings (size 3 to 8) (size 9 to 14) (size 15 to 20)
#    0.000    2.000    1.818    3.818    0.000    4.364 
#    0.000    1.818    0.000    0.545    0.000    0.000 
#    0.000    0.000    0.000    0.000    0.000    0.000 
#
# Total GULP energy -245342.878090 kJ/mol
# GULP energy per Si atom -5575.974502 kJ/mol
# Density = 1.948318 g / cm^3
# Si number density = 19.527630 Si / 1000 Ang^3
#
#
#
# Elastic Constant Matrix: (Units=GPa)
#
#
# Indices 1 2 3 4 5 6 
#
# 1 147.5730 -0.8124 38.0004 0.0000 0.0000 0.0000
# 2 -0.8124 44.6984 10.8516 0.0000 0.0000 0.0000
# 3 38.0004 10.8516 91.5230 0.0000 0.0000 0.0000
# 4 0.0000 0.0000 0.0000 8.7434 0.0000 0.0000
# 5 0.0000 0.0000 0.0000 0.0000 12.5875 0.0000
# 6 0.0000 0.0000 0.0000 0.0000 0.0000 29.2376
#
#
#
# Elastic Compliance Matrix: (Units=1/GPa)
#
#
# Indices 1 2 3 4 5 6 
#
# 1 0.007625 0.000934 -0.003277 0.000000 0.000000 0.000000
# 2 0.000934 0.023150 -0.003133 0.000000 0.000000 0.000000
# 3 -0.003277 -0.003133 0.012658 0.000000 0.000000 0.000000
# 4 0.000000 0.000000 0.000000 0.114372 0.000000 0.000000
# 5 0.000000 0.000000 0.000000 0.000000 0.079444 0.000000
# 6 0.000000 0.000000 0.000000 0.000000 0.000000 0.034203
#
#
# Mechanical properties :
#
#
# Convention : Reuss Voigt Hill
#
# Bulk Modulus (GPa) = 30.78584 42.20817 36.49701
# Shear Modulus (GPa) = 17.05148 25.83068 21.44108
#
# Velocity S-wave (km/s) = 2.95820 3.64094 3.31718
# Velocity P-wave (km/s) = 5.24094 6.27191 5.77946
#
# Compressibility (1/GPa) = 0.03248246
#
# Stress axis : x y z
#
# Youngs Moduli (GPa) = 131.14375 43.19722 79.00047
#
# Poissons Ratio (x) = -0.04035 0.25886
# Poissons Ratio (y) = -0.12250 0.24748
# Poissons Ratio (z) = 0.42972 0.13532
#
# Static dielectric constant tensor:
#      x y z
#    x 1.721490 0.000000 0.000000 
#    y 0.000000 1.670920 0.000000 
#    z 0.000000 0.000000 1.792500 
# 
# From -- ./inp_files/39074.got.cif
#   From: 2010.05.17/outbox.cif.g08.bks.cpg/sg64_20_cif.got.tgz:39074.got - 2010.06.03 16:29:19.
