data_PCOD9476344
_publ_section_title
;
Structure prediction by ZEFSAII (Michael W. Deem and Ramdas Pophale) SiO2 
 PCOD9476344
Probable space group: C M C A
;
_chemical_formula_sum "Si O2"
_cell_formula_units_Z 112
_cell_length_a 33.976777
_cell_length_b 34.908574
_cell_length_c 5.311715
_cell_angle_alpha 90.000000
_cell_angle_beta 90.000000
_cell_angle_gamma 90.000000
_cell_volume 6300.123358
_symmetry_space_group_name_H-M "C M C A"
_symmetry_group_IT_number 64
_symmetry_cell_setting 'orthorhombic'
loop_
_space_group_symop_operation_xyz
x,y,z
-x,1/2-y,1/2+z
x,-y,-z
-x,1/2+y,1/2-z
-x,-y,-z
x,1/2+y,1/2-z
-x,y,z
x,1/2-y,1/2+z
1/2+x,1/2+y,z
1/2-x,-y,1/2+z
1/2+x,1/2-y,-z
1/2-x,y,1/2-z
1/2-x,1/2-y,-z
1/2+x,y,1/2-z
1/2-x,1/2+y,z
1/2+x,-y,1/2+z
loop_
_atom_site_type_symbol
_atom_site_label
_atom_site_fract_x
_atom_site_fract_y
_atom_site_fract_z
Si Si1 0.546717 0.069809 0.500002
Si Si2 0.596384 0.852703 0.499999
Si Si3 0.546527 0.775242 0.500001
Si Si4 0.138393 0.380357 0.999999
Si Si5 0.794931 0.266519 0.000001
Si Si6 0.275721 0.644130 0.500000
Si Si7 0.088815 0.457054 0.999998
O O1 0.500000 0.070711 0.500001
O O2 0.564585 0.112734 0.500001
O O3 0.562881 0.049400 0.750250
O O4 0.562881 0.049400 0.249755
O O5 0.573882 0.812541 0.499999
O O6 0.622409 0.859023 0.249553
O O7 0.622409 0.859023 0.750446
O O8 0.500000 0.786333 0.500000
O O9 0.553378 0.750000 0.250001
O O10 0.120759 0.423132 0.999999
O O11 0.185279 0.381038 0.999999
O O12 0.814365 0.250000 0.250000
O O13 0.750000 0.250000 0.000000
O O14 0.790835 0.311819 0.000002
O O15 0.250000 0.638596 0.250000
O O16 0.250000 0.638596 0.750000
O O17 0.105164 0.500000 0.000000
#
# Coordination Sequence:
#
# PCOD9476344 Si02
#       7
#    16  16  16  16  16  16  16
#     4  10  20  33  56  86 111 145 185 220 265 317
#     4  10  20  39  54  74 116 144 183 227 270 326
#     4  10  20  34  56  78 104 147 195 235 269 304
#     4  10  23  38  56  81 105 144 181 216 277 340
#     4  10  16  30  48  71  99 125 155 202 253 319
#     4  12  21  35  58  77 103 135 176 225 263 319
#     4  10  21  37  56  79 115 149 173 217 270 329
#
# _framework density 17.777431
#
# number of rings (size 3 to 8) (size 9 to 14) (size 15 to 20)
#    0.000    1.714    2.857    3.000    0.000    1.714 
#    0.000    8.571    0.000    0.857    0.000    0.000 
#    0.000    0.000    0.000    0.000    0.000    0.000 
#
# Total GULP energy -312751.648456 kJ/mol
# GULP energy per Si atom -5584.850865 kJ/mol
# Density = 1.773697 g / cm^3
# Si number density = 17.777431 Si / 1000 Ang^3
#
#
#
# Elastic Constant Matrix: (Units=GPa)
#
#
# Indices 1 2 3 4 5 6 
#
# 1 106.3809 54.0351 68.7483 0.0000 0.0000 0.0000
# 2 54.0351 78.8737 55.0590 0.0000 0.0000 0.0000
# 3 68.7483 55.0590 201.0217 0.0000 0.0000 0.0000
# 4 0.0000 0.0000 0.0000 29.7787 0.0000 0.0000
# 5 0.0000 0.0000 0.0000 0.0000 -0.4730 0.0000
# 6 0.0000 0.0000 0.0000 0.0000 0.0000 5.2035
#
#
#
# Elastic Compliance Matrix: (Units=1/GPa)
#
#
# Indices 1 2 3 4 5 6 
#
# 1 0.015763 -0.008699 -0.003008 0.000000 0.000000 0.000000
# 2 -0.008699 0.020476 -0.002633 0.000000 0.000000 0.000000
# 3 -0.003008 -0.002633 0.006725 0.000000 0.000000 0.000000
# 4 0.000000 0.000000 0.000000 0.033581 0.000000 0.000000
# 5 0.000000 0.000000 0.000000 0.000000 -2.113962 0.000000
# 6 0.000000 0.000000 0.000000 0.000000 0.000000 0.192177
#
#
# Mechanical properties :
#
#
# Convention : Reuss Voigt Hill
#
# Bulk Modulus (GPa) = 70.01469 82.44010 76.22739
# Shear Modulus (GPa) = -2.75969 20.79743 9.01887
#
# Velocity S-wave (km/s) = -1.24729 3.42406 2.25482
# Velocity P-wave (km/s) = 6.11516 7.88076 7.05342
#
# Compressibility (1/GPa) = 0.01428272
#
# Stress axis : x y z
#
# Youngs Moduli (GPa) = 63.44085 48.83709 148.70686
#
# Poissons Ratio (x) = 0.42483 0.44734
# Poissons Ratio (y) = 0.55186 0.39160
# Poissons Ratio (z) = 0.19084 0.12861
#
# Static dielectric constant tensor:
#      x y z
#    x 1.579270 0.000000 0.000000 
#    y 0.000000 1.589150 0.000000 
#    z 0.000000 0.000000 1.676990 
# 
# From -- ./inp_files/3470.got.cif
#   From: 2010.05.17/outbox.cif.g08.bks.cpg/sg64_2_cif.got.tgz:3470.got - 2010.06.03 16:29:19.
