data_PCOD9476485
_publ_section_title
;
Structure prediction by ZEFSAII (Michael W. Deem and Ramdas Pophale) SiO2 
 PCOD9476485
Probable space group: C M C A
;
_chemical_formula_sum "Si O2"
_cell_formula_units_Z 128
_cell_length_a 19.837641
_cell_length_b 22.910787
_cell_length_c 16.742241
_cell_angle_alpha 90.000000
_cell_angle_beta 90.000000
_cell_angle_gamma 90.000000
_cell_volume 7609.281022
_symmetry_space_group_name_H-M "C M C A"
_symmetry_group_IT_number 64
_symmetry_cell_setting 'orthorhombic'
loop_
_space_group_symop_operation_xyz
x,y,z
-x,1/2-y,1/2+z
x,-y,-z
-x,1/2+y,1/2-z
-x,-y,-z
x,1/2+y,1/2-z
-x,y,z
x,1/2-y,1/2+z
1/2+x,1/2+y,z
1/2-x,-y,1/2+z
1/2+x,1/2-y,-z
1/2-x,y,1/2-z
1/2-x,1/2-y,-z
1/2+x,y,1/2-z
1/2-x,1/2+y,z
1/2+x,-y,1/2+z
loop_
_atom_site_type_symbol
_atom_site_label
_atom_site_fract_x
_atom_site_fract_y
_atom_site_fract_z
Si Si1 0.295987 0.092436 0.409343
Si Si2 0.228006 0.406190 0.076977
Si Si3 0.325330 0.309480 0.785826
Si Si4 0.823058 0.823779 0.294507
Si Si5 0.647674 0.929782 0.303551
Si Si6 0.076669 0.898936 0.711490
Si Si7 0.926282 0.970860 0.878700
Si Si8 0.819506 0.986135 0.654390
O O1 0.253856 0.104659 0.488633
O O2 0.319261 0.151044 0.365140
O O3 0.362347 0.053625 0.426907
O O4 0.247054 0.054330 0.351790
O O5 0.188856 0.353392 0.119445
O O6 0.292729 0.418464 0.133611
O O7 0.185646 0.465778 0.085014
O O8 0.250000 0.309611 0.750000
O O9 0.346366 0.242667 0.799445
O O10 0.377336 0.342465 0.727533
O O11 0.750000 0.823267 0.250000
O O12 0.866726 0.869098 0.241737
O O13 0.589009 0.963503 0.349765
O O14 0.673295 0.974355 0.234323
O O15 0.074145 0.932387 0.797133
O O16 0.117179 0.942764 0.654057
O O17 0.000000 0.886797 0.687158
O O18 0.000000 0.964918 0.915829
#
# Coordination Sequence:
#
# PCOD9476485 Si02
#       8
#    16  16  16  16  16  16  16  16
#     4  11  20  28  48  75 103 131 169 212 258 315
#     4  10  19  29  46  74  99 132 167 206 251 308
#     4  10  18  31  51  73  97 127 167 216 253 301
#     4   8  17  31  48  70  95 125 168 214 251 293
#     4   9  17  30  50  64  96 135 162 206 253 303
#     4   9  18  30  49  76  99 124 164 211 260 304
#     4   9  18  29  45  71 104 134 165 205 258 318
#     4  10  17  29  50  71  95 130 164 207 252 303
#
# _framework density 16.821562
#
# number of rings (size 3 to 8) (size 9 to 14) (size 15 to 20)
#    0.000    2.500    2.500    1.500    3.500    0.500 
#    0.000    1.875    0.000    2.250    0.000    0.875 
#    0.000    0.000    0.000    0.000    0.000    0.000 
#
# Total GULP energy -356459.325395 kJ/mol
# GULP energy per Si atom -5569.676959 kJ/mol
# Density = 1.678328 g / cm^3
# Si number density = 16.821562 Si / 1000 Ang^3
#
#
#
# Elastic Constant Matrix: (Units=GPa)
#
#
# Indices 1 2 3 4 5 6 
#
# 1 82.6438 39.5846 6.5462 0.0000 0.0000 0.0000
# 2 39.5846 144.3770 30.2575 0.0000 0.0000 0.0000
# 3 6.5462 30.2575 54.9645 0.0000 0.0000 0.0000
# 4 0.0000 0.0000 0.0000 13.4372 0.0000 0.0000
# 5 0.0000 0.0000 0.0000 0.0000 5.4824 0.0000
# 6 0.0000 0.0000 0.0000 0.0000 0.0000 9.9589
#
#
#
# Elastic Compliance Matrix: (Units=1/GPa)
#
#
# Indices 1 2 3 4 5 6 
#
# 1 0.013942 -0.003928 0.000502 0.000000 0.000000 0.000000
# 2 -0.003928 0.008936 -0.004451 0.000000 0.000000 0.000000
# 3 0.000502 -0.004451 0.020584 0.000000 0.000000 0.000000
# 4 0.000000 0.000000 0.000000 0.074420 0.000000 0.000000
# 5 0.000000 0.000000 0.000000 0.000000 0.182402 0.000000
# 6 0.000000 0.000000 0.000000 0.000000 0.000000 0.100413
#
#
# Mechanical properties :
#
#
# Convention : Reuss Voigt Hill
#
# Bulk Modulus (GPa) = 36.09165 48.30689 42.19927
# Shear Modulus (GPa) = 11.74569 19.48215 15.61392
#
# Velocity S-wave (km/s) = 2.64531 3.40687 3.04996
# Velocity P-wave (km/s) = 5.55269 6.65247 6.12730
#
# Compressibility (1/GPa) = 0.02770724
#
# Stress axis : x y z
#
# Youngs Moduli (GPa) = 71.72767 111.90612 48.58070
#
# Poissons Ratio (x) = 0.43952 -0.02437
# Poissons Ratio (y) = 0.28172 0.21626
# Poissons Ratio (z) = -0.03598 0.49815
#
# Static dielectric constant tensor:
#      x y z
#    x 1.580310 0.000000 0.000000 
#    y 0.000000 1.585530 0.000000 
#    z 0.000000 0.000000 1.584760 
# 
# From -- ./inp_files/34645.got.cif
#   From: 2010.05.17/outbox.cif.g08.bks.cpg/sg64_18_cif.got.tgz:34645.got - 2010.06.03 16:29:19.
