data_PCOD9476582
_publ_section_title
;
Structure prediction by ZEFSAII (Michael W. Deem and Ramdas Pophale) SiO2 
 PCOD9476582
Probable space group: C M C A
;
_chemical_formula_sum "Si O2"
_cell_formula_units_Z 112
_cell_length_a 21.885585
_cell_length_b 15.380699
_cell_length_c 17.351424
_cell_angle_alpha 90.000000
_cell_angle_beta 90.000000
_cell_angle_gamma 90.000000
_cell_volume 5840.759919
_symmetry_space_group_name_H-M "C M C A"
_symmetry_group_IT_number 64
_symmetry_cell_setting 'orthorhombic'
loop_
_space_group_symop_operation_xyz
x,y,z
-x,1/2-y,1/2+z
x,-y,-z
-x,1/2+y,1/2-z
-x,-y,-z
x,1/2+y,1/2-z
-x,y,z
x,1/2-y,1/2+z
1/2+x,1/2+y,z
1/2-x,-y,1/2+z
1/2+x,1/2-y,-z
1/2-x,y,1/2-z
1/2-x,1/2-y,-z
1/2+x,y,1/2-z
1/2-x,1/2+y,z
1/2+x,-y,1/2+z
loop_
_atom_site_type_symbol
_atom_site_label
_atom_site_fract_x
_atom_site_fract_y
_atom_site_fract_z
Si Si1 0.733099 0.920215 0.157085
Si Si2 0.925781 0.707385 0.042707
Si Si3 0.567308 0.098717 0.780188
Si Si4 0.370439 0.452121 0.633062
Si Si5 0.870148 0.226402 0.625156
Si Si6 0.148216 0.834524 0.152620
Si Si7 0.319384 0.832545 0.745280
O O1 0.750000 0.927691 0.250000
O O2 0.684129 0.843697 0.139525
O O3 0.795666 0.888614 0.117633
O O4 0.696846 0.004136 0.124182
O O5 0.896900 0.614859 0.070933
O O6 0.898530 0.783050 0.097955
O O7 0.000000 0.704563 0.043679
O O8 0.897329 0.726072 0.959187
O O9 0.500000 0.083348 0.752409
O O10 0.576211 0.193385 0.818145
O O11 0.613207 0.099780 0.709119
O O12 0.584439 0.030784 0.846943
O O13 0.363830 0.397380 0.711339
O O14 0.841983 0.313963 0.659420
O O15 0.177579 0.757572 0.205579
O O16 0.250000 0.863026 0.750000
#
# Coordination Sequence:
#
# PCOD9476582 Si02
#       7
#    16  16  16  16  16  16  16
#     4  11  17  37  58  88 117 144 195 243 302 357
#     4  11  24  40  55  88 125 159 200 242 290 351
#     4  10  19  34  56  83 110 154 197 235 293 351
#     4  10  22  33  61  87 118 150 188 254 299 337
#     4  10  20  35  61  81 114 158 188 243 294 350
#     4  10  19  35  58  81 116 152 190 242 285 351
#     4  10  17  34  58  87 109 139 189 246 291 337
#
# _framework density 19.175588000000001
#
# number of rings (size 3 to 8) (size 9 to 14) (size 15 to 20)
#    0.000    1.714    5.714    1.714    0.000    2.857 
#    0.000    5.714    3.143    0.857    0.000    2.000 
#    0.000    0.000    0.000    0.000    0.000    0.000 
#
# Total GULP energy -311809.721155 kJ/mol
# GULP energy per Si atom -5568.030735 kJ/mol
# Density = 1.913194 g / cm^3
# Si number density = 19.175588 Si / 1000 Ang^3
#
#
#
# Elastic Constant Matrix: (Units=GPa)
#
#
# Indices 1 2 3 4 5 6 
#
# 1 119.6141 11.6416 31.0054 0.0000 0.0000 0.0000
# 2 11.6416 33.0633 4.7117 0.0000 0.0000 0.0000
# 3 31.0054 4.7117 65.9957 0.0000 0.0000 0.0000
# 4 0.0000 0.0000 0.0000 10.1711 0.0000 0.0000
# 5 0.0000 0.0000 0.0000 0.0000 24.9848 0.0000
# 6 0.0000 0.0000 0.0000 0.0000 0.0000 20.3764
#
#
#
# Elastic Compliance Matrix: (Units=1/GPa)
#
#
# Indices 1 2 3 4 5 6 
#
# 1 0.009772 -0.002815 -0.004390 0.000000 0.000000 0.000000
# 2 -0.002815 0.031367 -0.000917 0.000000 0.000000 0.000000
# 3 -0.004390 -0.000917 0.017280 0.000000 0.000000 0.000000
# 4 0.000000 0.000000 0.000000 0.098318 0.000000 0.000000
# 5 0.000000 0.000000 0.000000 0.000000 0.040024 0.000000
# 6 0.000000 0.000000 0.000000 0.000000 0.000000 0.049076
#
#
# Mechanical properties :
#
#
# Convention : Reuss Voigt Hill
#
# Bulk Modulus (GPa) = 23.71053 34.82120 29.26586
# Shear Modulus (GPa) = 18.10670 22.52740 20.31705
#
# Velocity S-wave (km/s) = 3.07621 3.43125 3.25857
# Velocity P-wave (km/s) = 5.00092 5.82207 5.42705
#
# Compressibility (1/GPa) = 0.04217536
#
# Stress axis : x y z
#
# Youngs Moduli (GPa) = 102.33141 31.88075 57.86887
#
# Poissons Ratio (x) = 0.08975 0.25405
# Poissons Ratio (y) = 0.28808 0.05306
# Poissons Ratio (z) = 0.44924 0.02923
#
# Static dielectric constant tensor:
#      x y z
#    x 1.702940 0.000000 0.000000 
#    y 0.000000 1.707760 0.000000 
#    z 0.000000 0.000000 1.693520 
# 
# From -- ./inp_files/34513.got.cif
#   From: 2010.05.17/outbox.cif.g08.bks.cpg/sg64_18_cif.got.tgz:34513.got - 2010.06.03 16:29:19.
