data_PCOD9476194
_publ_section_title
;
Structure prediction by ZEFSAII (Michael W. Deem and Ramdas Pophale) SiO2 
 PCOD9476194
Probable space group: C M C M
;
_chemical_formula_sum "Si O2"
_cell_formula_units_Z 48
_cell_length_a 15.000000
_cell_length_b 15.000000
_cell_length_c 21.000000
_cell_angle_alpha 90.000000
_cell_angle_beta 90.000000
_cell_angle_gamma 90.000000
_cell_volume 4725.000000
_symmetry_space_group_name_H-M "C M C M"
_symmetry_group_IT_number 63
_symmetry_cell_setting 'orthorhombic'
loop_
_space_group_symop_operation_xyz
x,y,z
-x,-y,1/2+z
x,-y,-z
-x,y,1/2-z
-x,-y,-z
x,y,1/2-z
-x,y,z
x,-y,1/2+z
1/2+x,1/2+y,z
1/2-x,1/2-y,1/2+z
1/2+x,1/2-y,-z
1/2-x,1/2+y,1/2-z
1/2-x,1/2-y,-z
1/2+x,1/2+y,1/2-z
1/2-x,1/2+y,z
1/2+x,1/2-y,1/2+z
loop_
_atom_site_type_symbol
_atom_site_label
_atom_site_fract_x
_atom_site_fract_y
_atom_site_fract_z
Si Si1 0.292296 0.536930 0.070049
Si Si2 0.357248 0.771900 0.821376
Si Si3 0.898892 0.933295 0.322090
Si Si4 0.208748 0.763275 0.571922
Si Si5 0.402382 0.041617 0.374273
Si Si6 0.896026 0.347265 0.322533
O O1 0.334910 0.474820 0.124676
O O2 0.331102 0.637037 0.073351
O O3 0.185360 0.542920 0.081468
O O4 0.309544 0.500000 0.000000
O O5 0.319339 0.779016 0.750000
O O6 0.402600 0.674663 0.824029
O O7 0.289952 0.765869 0.879296
O O8 0.404392 0.865979 0.835023
O O9 0.869188 0.957091 0.250000
O O10 0.000000 0.966311 0.331387
O O11 0.250000 0.750000 0.500000
O O12 0.146369 0.694446 0.612182
O O13 0.500000 0.033068 0.406444
O O14 0.390640 0.954136 0.330730
O O15 0.861263 0.324775 0.250000
O O16 0.000000 0.321840 0.322687
#
# Coordination Sequence:
#
# PCOD9476194 Si02
#       6
#    16  16  16  16  16  16
#     4  11  24  41  62  88 119 158 203 249 299 359
#     4  10  20  36  61  90 120 157 202 250 297 352
#     4  10  22  40  62  89 122 160 202 250 302 355
#     4  11  23  40  60  85 119 160 202 246 303 365
#     4  10  21  37  61  93 125 157 197 247 302 360
#     4  10  21  38  62  91 122 156 196 246 302 360
#
# _framework density 10.15873
#
# number of rings (size 3 to 8) (size 9 to 14) (size 15 to 20)
#    0.000    1.667    0.000    4.500    0.000    8.333 
#    0.000    9.167    0.000    0.000    0.000    0.000 
#    0.000    0.000    0.000    0.000    0.000    0.000 
#
# Total GULP energy -267253.374102 kJ/mol
# GULP energy per Si atom -5567.778627 kJ/mol
# Density = 1.013561 g / cm^3
# Si number density = 10.158730 Si / 1000 Ang^3
#
#
#
# Elastic Constant Matrix: (Units=GPa)
#
#
# Indices 1 2 3 4 5 6 
#
# 1 82.0573 38.2230 54.2342 0.0000 0.0000 0.0000
# 2 38.2230 129.1435 53.0944 0.0000 0.0000 0.0000
# 3 54.2342 53.0944 166.0998 0.0000 0.0000 0.0000
# 4 0.0000 0.0000 0.0000 29.1175 0.0000 0.0000
# 5 0.0000 0.0000 0.0000 0.0000 18.0174 0.0000
# 6 0.0000 0.0000 0.0000 0.0000 0.0000 10.1815
#
#
#
# Elastic Compliance Matrix: (Units=1/GPa)
#
#
# Indices 1 2 3 4 5 6 
#
# 1 0.016540 -0.003080 -0.004416 0.000000 0.000000 0.000000
# 2 -0.003080 0.009488 -0.002027 0.000000 0.000000 0.000000
# 3 -0.004416 -0.002027 0.008110 0.000000 0.000000 0.000000
# 4 0.000000 0.000000 0.000000 0.034344 0.000000 0.000000
# 5 0.000000 0.000000 0.000000 0.000000 0.055502 0.000000
# 6 0.000000 0.000000 0.000000 0.000000 0.000000 0.098217
#
#
# Mechanical properties :
#
#
# Convention : Reuss Voigt Hill
#
# Bulk Modulus (GPa) = 66.25929 74.26710 70.26319
# Shear Modulus (GPa) = 20.30219 26.91321 23.60770
#
# Velocity S-wave (km/s) = 3.16452 3.64350 3.41242
# Velocity P-wave (km/s) = 6.78491 7.37108 7.08406
#
# Compressibility (1/GPa) = 0.01509222
#
# Stress axis : x y z
#
# Youngs Moduli (GPa) = 60.45977 105.39213 123.29763
#
# Poissons Ratio (x) = 0.32459 0.54449
# Poissons Ratio (y) = 0.18620 0.24997
# Poissons Ratio (z) = 0.26699 0.21367
#
# Static dielectric constant tensor:
#      x y z
#    x 1.738420 0.000000 0.000000 
#    y 0.000000 1.772130 0.000000 
#    z 0.000000 0.000000 1.687030 
# 
# From -- ./inp_files/54196.got.cif
#   From: 2010.05.17/outbox.ucp.g08.bks.cvg/sg63_28_cif.got.tgz:54196.got - 2010.06.11 16:32:19.
