data_PCOD9476186
_publ_section_title
;
Structure prediction by ZEFSAII (Michael W. Deem and Ramdas Pophale) SiO2 
 PCOD9476186
Probable space group: C M C M
;
_chemical_formula_sum "Si O2"
_cell_formula_units_Z 32
_cell_length_a 9.000000
_cell_length_b 18.000000
_cell_length_c 21.000000
_cell_angle_alpha 90.000000
_cell_angle_beta 90.000000
_cell_angle_gamma 90.000000
_cell_volume 3402.000000
_symmetry_space_group_name_H-M "C M C M"
_symmetry_group_IT_number 63
_symmetry_cell_setting 'orthorhombic'
loop_
_space_group_symop_operation_xyz
x,y,z
-x,-y,1/2+z
x,-y,-z
-x,y,1/2-z
-x,-y,-z
x,y,1/2-z
-x,y,z
x,-y,1/2+z
1/2+x,1/2+y,z
1/2-x,1/2-y,1/2+z
1/2+x,1/2-y,-z
1/2-x,1/2+y,1/2-z
1/2-x,1/2-y,-z
1/2+x,1/2+y,1/2-z
1/2-x,1/2+y,z
1/2+x,1/2-y,1/2+z
loop_
_atom_site_type_symbol
_atom_site_label
_atom_site_fract_x
_atom_site_fract_y
_atom_site_fract_z
Si Si1 0.827335 0.685316 0.679650
Si Si2 0.675245 0.421216 0.564737
Si Si3 0.171795 0.659483 0.177241
Si Si4 0.823821 0.582197 0.940387
O O1 0.812491 0.650488 0.750000
O O2 0.717326 0.754433 0.676161
O O3 0.799299 0.630095 0.622276
O O4 0.000000 0.711221 0.674443
O O5 0.500000 0.424275 0.555593
O O6 0.720631 0.381046 0.628958
O O7 0.744562 0.503295 0.567792
O O8 0.752753 0.382982 0.503800
O O9 0.189693 0.633323 0.250000
O O10 0.000000 0.648796 0.158734
O O11 0.000000 0.572208 0.949223
#
# Coordination Sequence:
#
# PCOD9476186 Si02
#       4
#    16  16  16  16
#     4   9  19  36  57  81 108 138 174 218 267 317
#     4  11  22  36  55  79 109 143 180 223 267 315
#     4  10  21  37  57  80 107 140 178 220 266 318
#     4  10  20  36  57  80 109 143 179 221 267 318
#
# _framework density 9.4062319999999993
#
# number of rings (size 3 to 8) (size 9 to 14) (size 15 to 20)
#    0.000    2.000    0.000    5.250    0.000    5.500 
#    0.000    2.500    0.000    0.000    0.000    0.000 
#    0.000    0.000    0.000    0.000    0.000    0.000 
#
# Total GULP energy -178501.354317 kJ/mol
# GULP energy per Si atom -5578.167322 kJ/mol
# Density = 0.938482 g / cm^3
# Si number density = 9.406232 Si / 1000 Ang^3
#
#
#
# Elastic Constant Matrix: (Units=GPa)
#
#
# Indices 1 2 3 4 5 6 
#
# 1 104.9618 25.6728 68.2814 0.0000 0.0000 0.0000
# 2 25.6728 23.4624 39.2172 0.0000 0.0000 0.0000
# 3 68.2814 39.2172 95.2064 0.0000 0.0000 0.0000
# 4 0.0000 0.0000 0.0000 31.0779 0.0000 0.0000
# 5 0.0000 0.0000 0.0000 0.0000 25.1009 0.0000
# 6 0.0000 0.0000 0.0000 0.0000 0.0000 22.4185
#
#
#
# Elastic Compliance Matrix: (Units=1/GPa)
#
#
# Indices 1 2 3 4 5 6 
#
# 1 0.018127 0.006085 -0.015507 0.000000 0.000000 0.000000
# 2 0.006085 0.138876 -0.061570 0.000000 0.000000 0.000000
# 3 -0.015507 -0.061570 0.046987 0.000000 0.000000 0.000000
# 4 0.000000 0.000000 0.000000 0.032177 0.000000 0.000000
# 5 0.000000 0.000000 0.000000 0.000000 0.039839 0.000000
# 6 0.000000 0.000000 0.000000 0.000000 0.000000 0.044606
#
#
# Mechanical properties :
#
#
# Convention : Reuss Voigt Hill
#
# Bulk Modulus (GPa) = 16.12736 54.44149 35.28442
# Shear Modulus (GPa) = 10.34634 21.75010 16.04822
#
# Velocity S-wave (km/s) = 2.34769 3.40392 2.92389
# Velocity P-wave (km/s) = 3.99252 6.66714 5.49504
#
# Compressibility (1/GPa) = 0.06200642
#
# Stress axis : x y z
#
# Youngs Moduli (GPa) = 55.16721 7.20069 21.28264
#
# Poissons Ratio (x) = -0.04382 0.33003
# Poissons Ratio (y) = -0.33572 1.31037
# Poissons Ratio (z) = 0.85548 0.44334
#
# Static dielectric constant tensor:
#      x y z
#    x 1.624280 0.000000 0.000000 
#    y 0.000000 1.634390 0.000000 
#    z 0.000000 0.000000 1.701970 
# 
# From -- ./inp_files/39806.got.cif
#   From: 2010.05.17/outbox.ucp.g08.bks.cvg/sg63_20_cif.got.tgz:39806.got - 2010.06.11 16:32:19.
