data_PCOD9476883
_publ_section_title
;
Structure prediction by ZEFSAII (Michael W. Deem and Ramdas Pophale) SiO2 
 PCOD9476883
Probable space group: C M C A
;
_chemical_formula_sum "Si O2"
_cell_formula_units_Z 112
_cell_length_a 16.116097
_cell_length_b 24.160579
_cell_length_c 15.533838
_cell_angle_alpha 90.000000
_cell_angle_beta 90.000000
_cell_angle_gamma 90.000000
_cell_volume 6048.476284
_symmetry_space_group_name_H-M "C M C A"
_symmetry_group_IT_number 64
_symmetry_cell_setting 'orthorhombic'
loop_
_space_group_symop_operation_xyz
x,y,z
-x,1/2-y,1/2+z
x,-y,-z
-x,1/2+y,1/2-z
-x,-y,-z
x,1/2+y,1/2-z
-x,y,z
x,1/2-y,1/2+z
1/2+x,1/2+y,z
1/2-x,-y,1/2+z
1/2+x,1/2-y,-z
1/2-x,y,1/2-z
1/2-x,1/2-y,-z
1/2+x,y,1/2-z
1/2-x,1/2+y,z
1/2+x,-y,1/2+z
loop_
_atom_site_type_symbol
_atom_site_label
_atom_site_fract_x
_atom_site_fract_y
_atom_site_fract_z
Si Si1 0.653056 0.592850 0.225123
Si Si2 0.253096 0.539183 0.933253
Si Si3 0.680533 0.298360 0.680862
Si Si4 0.406936 0.991333 0.164059
Si Si5 0.204585 0.362233 0.548668
Si Si6 0.903972 0.693472 0.596027
Si Si7 0.838264 0.401388 0.284158
O O1 0.750000 0.583086 0.250000
O O2 0.632051 0.651541 0.271239
O O3 0.605096 0.542084 0.268713
O O4 0.653640 0.603489 0.122291
O O5 0.168231 0.509402 0.904389
O O6 0.306583 0.551128 0.849366
O O7 0.298874 0.500000 0.000000
O O8 0.246279 0.596886 0.984122
O O9 0.750000 0.278706 0.750000
O O10 0.731223 0.326326 0.603208
O O11 0.627843 0.248902 0.642162
O O12 0.500000 0.993747 0.128755
O O13 0.390721 0.933002 0.212530
O O14 0.147430 0.324019 0.488712
O O15 0.888269 0.643984 0.663898
O O16 0.000000 0.698167 0.574514
O O17 0.750000 0.377749 0.250000
#
# Coordination Sequence:
#
# PCOD9476883 Si02
#       7
#    16  16  16  16  16  16  16
#     4   9  18  36  58  76  97 138 187 219 248 306
#     4  10  18  32  53  75  99 133 174 213 253 306
#     4   9  19  37  59  76  98 140 186 216 254 320
#     4  11  21  32  50  78 111 138 166 212 266 317
#     4   9  19  35  56  76 101 138 180 218 257 316
#     4  11  21  33  52  80 109 131 166 224 277 310
#     4   9  19  35  54  71  96 138 178 209 250 310
#
# _framework density 18.517060000000001
#
# number of rings (size 3 to 8) (size 9 to 14) (size 15 to 20)
#    0.000    2.571    0.000    5.143    0.000    1.429 
#    0.000    2.857    0.000    4.714    0.000    0.000 
#    0.000    0.000    0.000    0.000    0.000    0.000 
#
# Total GULP energy -312055.141067 kJ/mol
# GULP energy per Si atom -5572.413233 kJ/mol
# Density = 1.847491 g / cm^3
# Si number density = 18.517060 Si / 1000 Ang^3
#
#
#
# Elastic Constant Matrix: (Units=GPa)
#
#
# Indices 1 2 3 4 5 6 
#
# 1 42.9716 22.0667 0.9884 0.0000 0.0000 0.0000
# 2 22.0667 59.8669 14.7903 0.0000 0.0000 0.0000
# 3 0.9884 14.7903 70.1167 0.0000 0.0000 0.0000
# 4 0.0000 0.0000 0.0000 18.9083 0.0000 0.0000
# 5 0.0000 0.0000 0.0000 0.0000 6.0953 0.0000
# 6 0.0000 0.0000 0.0000 0.0000 0.0000 8.4138
#
#
#
# Elastic Compliance Matrix: (Units=1/GPa)
#
#
# Indices 1 2 3 4 5 6 
#
# 1 0.028953 -0.011152 0.001944 0.000000 0.000000 0.000000
# 2 -0.011152 0.021918 -0.004466 0.000000 0.000000 0.000000
# 3 0.001944 -0.004466 0.015177 0.000000 0.000000 0.000000
# 4 0.000000 0.000000 0.000000 0.052887 0.000000 0.000000
# 5 0.000000 0.000000 0.000000 0.000000 0.164060 0.000000
# 6 0.000000 0.000000 0.000000 0.000000 0.000000 0.118852
#
#
# Mechanical properties :
#
#
# Convention : Reuss Voigt Hill
#
# Bulk Modulus (GPa) = 25.84017 27.62733 26.73375
# Shear Modulus (GPa) = 11.30979 15.69082 13.50031
#
# Velocity S-wave (km/s) = 2.47407 2.91412 2.70307
# Velocity P-wave (km/s) = 4.70600 5.12593 4.92045
#
# Compressibility (1/GPa) = 0.03869944
#
# Stress axis : x y z
#
# Youngs Moduli (GPa) = 34.53820 45.62496 65.89090
#
# Poissons Ratio (x) = 0.50883 -0.12812
# Poissons Ratio (y) = 0.38519 0.29428
# Poissons Ratio (z) = -0.06715 0.20377
#
# Static dielectric constant tensor:
#      x y z
#    x 1.627550 0.000000 0.000000 
#    y 0.000000 1.665990 0.000000 
#    z 0.000000 0.000000 1.667710 
# 
# From -- ./inp_files/24420.got.cif
#   From: 2010.05.17/outbox.cif.g08.bks.cpg/sg64_13_cif.got.tgz:24420.got - 2010.06.03 16:29:19.
