data_PCOD9476827
_publ_section_title
;
Structure prediction by ZEFSAII (Michael W. Deem and Ramdas Pophale) SiO2 
 PCOD9476827
Probable space group: C M C A
;
_chemical_formula_sum "Si O2"
_cell_formula_units_Z 128
_cell_length_a 23.195817
_cell_length_b 18.909692
_cell_length_c 17.718655
_cell_angle_alpha 90.000000
_cell_angle_beta 90.000000
_cell_angle_gamma 90.000000
_cell_volume 7771.858430
_symmetry_space_group_name_H-M "C M C A"
_symmetry_group_IT_number 64
_symmetry_cell_setting 'orthorhombic'
loop_
_space_group_symop_operation_xyz
x,y,z
-x,1/2-y,1/2+z
x,-y,-z
-x,1/2+y,1/2-z
-x,-y,-z
x,1/2+y,1/2-z
-x,y,z
x,1/2-y,1/2+z
1/2+x,1/2+y,z
1/2-x,-y,1/2+z
1/2+x,1/2-y,-z
1/2-x,y,1/2-z
1/2-x,1/2-y,-z
1/2+x,y,1/2-z
1/2-x,1/2+y,z
1/2+x,-y,1/2+z
loop_
_atom_site_type_symbol
_atom_site_label
_atom_site_fract_x
_atom_site_fract_y
_atom_site_fract_z
Si Si1 0.933774 0.832824 0.546237
Si Si2 0.822167 0.828862 0.302039
Si Si3 0.333254 0.727579 0.954731
Si Si4 0.933891 0.116659 0.627821
Si Si5 0.128929 0.525066 0.086463
Si Si6 0.279824 0.702811 0.114535
Si Si7 0.711470 0.892995 0.359755
Si Si8 0.254037 0.046432 0.340397
O O1 0.893911 0.764768 0.559286
O O2 0.932561 0.852198 0.457080
O O3 0.905652 0.901401 0.585295
O O4 0.000000 0.822916 0.568745
O O5 0.888110 0.839825 0.323416
O O6 0.801486 0.748558 0.314216
O O7 0.779530 0.870954 0.360074
O O8 0.810002 0.861774 0.220352
O O9 0.284279 0.773370 0.911177
O O10 0.323102 0.648984 0.923065
O O11 0.318911 0.725481 0.043366
O O12 0.000000 0.117984 0.653913
O O13 0.909075 0.036929 0.623654
O O14 0.190030 0.536264 0.126212
O O15 0.138876 0.500000 0.000000
O O16 0.279528 0.619958 0.130201
O O17 0.709581 0.977007 0.362620
O O18 0.250000 0.047778 0.250000
#
# Coordination Sequence:
#
# PCOD9476827 Si02
#       8
#    16  16  16  16  16  16  16  16
#     4  10  19  33  52  79 109 143 184 225 271 325
#     4  10  18  36  49  78 106 142 176 229 260 327
#     4  10  20  35  51  81 103 147 175 227 269 318
#     4  10  18  31  53  76 109 148 183 220 273 330
#     4  10  20  31  50  79 116 145 181 224 272 334
#     4  10  22  31  55  75 111 141 182 216 277 322
#     4  10  21  33  55  73 115 143 179 223 280 315
#     4  12  22  34  52  84 109 152 180 223 279 337
#
# _framework density 16.469677999999998
#
# number of rings (size 3 to 8) (size 9 to 14) (size 15 to 20)
#    0.000    1.750    5.000    0.375    5.250    1.500 
#    0.000    0.625    0.000    0.000    0.000    7.000 
#    0.000    0.000    0.000    0.000    0.000    0.000 
#
# Total GULP energy -357008.772836 kJ/mol
# GULP energy per Si atom -5578.262076 kJ/mol
# Density = 1.643219 g / cm^3
# Si number density = 16.469678 Si / 1000 Ang^3
#
#
#
# Elastic Constant Matrix: (Units=GPa)
#
#
# Indices 1 2 3 4 5 6 
#
# 1 119.0258 51.4748 34.5666 0.0000 0.0000 0.0000
# 2 51.4748 132.3738 25.0284 0.0000 0.0000 0.0000
# 3 34.5666 25.0284 30.5805 0.0000 0.0000 0.0000
# 4 0.0000 0.0000 0.0000 18.7722 0.0000 0.0000
# 5 0.0000 0.0000 0.0000 0.0000 17.6550 0.0000
# 6 0.0000 0.0000 0.0000 0.0000 0.0000 20.4235
#
#
#
# Elastic Compliance Matrix: (Units=1/GPa)
#
#
# Indices 1 2 3 4 5 6 
#
# 1 0.013307 -0.002757 -0.012785 0.000000 0.000000 0.000000
# 2 -0.002757 0.009509 -0.004666 0.000000 0.000000 0.000000
# 3 -0.012785 -0.004666 0.050970 0.000000 0.000000 0.000000
# 4 0.000000 0.000000 0.000000 0.053270 0.000000 0.000000
# 5 0.000000 0.000000 0.000000 0.000000 0.056641 0.000000
# 6 0.000000 0.000000 0.000000 0.000000 0.000000 0.048963
#
#
# Mechanical properties :
#
#
# Convention : Reuss Voigt Hill
#
# Bulk Modulus (GPa) = 29.96646 56.01332 42.98989
# Shear Modulus (GPa) = 17.59328 22.76415 20.17871
#
# Velocity S-wave (km/s) = 3.27191 3.72181 3.50409
# Velocity P-wave (km/s) = 5.70161 7.24934 6.52155
#
# Compressibility (1/GPa) = 0.03337064
#
# Stress axis : x y z
#
# Youngs Moduli (GPa) = 75.14957 105.16679 19.61921
#
# Poissons Ratio (x) = 0.28997 0.25083
# Poissons Ratio (y) = 0.20720 0.09154
# Poissons Ratio (z) = 0.96077 0.49068
#
# Static dielectric constant tensor:
#      x y z
#    x 1.535300 0.000000 0.000000 
#    y 0.000000 1.572390 0.000000 
#    z 0.000000 0.000000 1.564890 
# 
# From -- ./inp_files/35162.got.cif
#   From: 2010.05.17/outbox.cif.g08.bks.cpg/sg64_18_cif.got.tgz:35162.got - 2010.06.03 16:29:19.
