data_PCOD9476197
_publ_section_title
;
Structure prediction by ZEFSAII (Michael W. Deem and Ramdas Pophale) SiO2 
 PCOD9476197
Probable space group: C M C M
;
_chemical_formula_sum "Si O2"
_cell_formula_units_Z 48
_cell_length_a 27.000000
_cell_length_b 21.000000
_cell_length_c 9.000000
_cell_angle_alpha 90.000000
_cell_angle_beta 90.000000
_cell_angle_gamma 90.000000
_cell_volume 5103.000000
_symmetry_space_group_name_H-M "C M C M"
_symmetry_group_IT_number 63
_symmetry_cell_setting 'orthorhombic'
loop_
_space_group_symop_operation_xyz
x,y,z
-x,-y,1/2+z
x,-y,-z
-x,y,1/2-z
-x,-y,-z
x,y,1/2-z
-x,y,z
x,-y,1/2+z
1/2+x,1/2+y,z
1/2-x,1/2-y,1/2+z
1/2+x,1/2-y,-z
1/2-x,1/2+y,1/2-z
1/2-x,1/2-y,-z
1/2+x,1/2+y,1/2-z
1/2-x,1/2+y,z
1/2+x,1/2-y,1/2+z
loop_
_atom_site_type_symbol
_atom_site_label
_atom_site_fract_x
_atom_site_fract_y
_atom_site_fract_z
Si Si1 0.399930 0.195200 0.429000
Si Si2 0.268750 0.434258 0.570754
Si Si3 0.377623 0.567144 0.570694
Si Si4 0.715422 0.802915 0.572784
Si Si5 0.940167 0.433180 0.424430
Si Si6 0.441448 0.678510 0.424957
O O1 0.405585 0.196978 0.250000
O O2 0.342020 0.204551 0.466994
O O3 0.417670 0.127405 0.491615
O O4 0.429480 0.252709 0.505280
O O5 0.249391 0.500000 0.500000
O O6 0.273914 0.440412 0.750000
O O7 0.322434 0.423412 0.495807
O O8 0.234711 0.373699 0.536528
O O9 0.395192 0.500000 0.500000
O O10 0.376296 0.563781 0.750000
O O11 0.411284 0.624882 0.513813
O O12 0.719312 0.795854 0.750000
O O13 0.750000 0.750000 0.500000
O O14 0.925263 0.500000 0.500000
O O15 0.926814 0.432600 0.250000
O O16 0.000000 0.428848 0.434393
O O17 0.427650 0.677501 0.250000
O O18 0.500000 0.666320 0.436005
#
# Coordination Sequence:
#
# PCOD9476197 Si02
#       6
#    16  16  16  16  16  16
#     4  11  23  39  59  86 118 151 191 237 287 341
#     4  10  20  37  59  84 115 150 189 231 279 334
#     4  11  22  38  61  88 117 150 189 232 283 339
#     4  10  23  39  57  83 114 149 189 234 282 336
#     4  10  21  38  60  86 116 152 193 236 285 340
#     4  11  24  41  60  84 115 151 192 237 285 338
#
# _framework density 9.4062319999999993
#
# number of rings (size 3 to 8) (size 9 to 14) (size 15 to 20)
#    0.000    1.500    0.000    6.000    0.000   10.667 
#    0.000    1.667    0.000    0.000    0.000    0.000 
#    0.000    0.000    0.000    0.000    0.000    0.000 
#
# Total GULP energy -268352.235292 kJ/mol
# GULP energy per Si atom -5590.671569 kJ/mol
# Density = 0.938482 g / cm^3
# Si number density = 9.406232 Si / 1000 Ang^3
#
#
#
# Elastic Constant Matrix: (Units=GPa)
#
#
# Indices 1 2 3 4 5 6 
#
# 1 21.3375 -6.7332 13.4166 0.0000 0.0000 0.0000
# 2 -6.7332 51.4506 14.4250 0.0000 0.0000 0.0000
# 3 13.4166 14.4250 104.2974 0.0000 0.0000 0.0000
# 4 0.0000 0.0000 0.0000 42.0558 0.0000 0.0000
# 5 0.0000 0.0000 0.0000 0.0000 19.7304 0.0000
# 6 0.0000 0.0000 0.0000 0.0000 0.0000 57.6331
#
#
#
# Elastic Compliance Matrix: (Units=1/GPa)
#
#
# Indices 1 2 3 4 5 6 
#
# 1 0.055188 0.009584 -0.008425 0.000000 0.000000 0.000000
# 2 0.009584 0.021885 -0.004260 0.000000 0.000000 0.000000
# 3 -0.008425 -0.004260 0.011261 0.000000 0.000000 0.000000
# 4 0.000000 0.000000 0.000000 0.023778 0.000000 0.000000
# 5 0.000000 0.000000 0.000000 0.000000 0.050683 0.000000
# 6 0.000000 0.000000 0.000000 0.000000 0.000000 0.017351
#
#
# Mechanical properties :
#
#
# Convention : Reuss Voigt Hill
#
# Bulk Modulus (GPa) = 12.17542 24.36691 18.27117
# Shear Modulus (GPa) = 23.39475 34.28233 28.83854
#
# Velocity S-wave (km/s) = 3.53026 4.27350 3.91954
# Velocity P-wave (km/s) = 4.80657 6.10991 5.49700
#
# Compressibility (1/GPa) = 0.08213266
#
# Stress axis : x y z
#
# Youngs Moduli (GPa) = 18.12003 45.69415 88.80325
#
# Poissons Ratio (x) = -0.43794 0.74815
# Poissons Ratio (y) = -0.17367 0.37827
# Poissons Ratio (z) = 0.15266 0.19464
#
# Static dielectric constant tensor:
#      x y z
#    x 1.640320 0.000000 0.000000 
#    y 0.000000 1.634920 0.000000 
#    z 0.000000 0.000000 1.629960 
# 
# From -- ./inp_files/12316.got.cif
#   From: 2010.05.17/outbox.ucp.g08.bks.cvg/sg63_7_cif.got.tgz:12316.got - 2010.06.11 16:32:19.
