data_PCOD9476656
_publ_section_title
;
Structure prediction by ZEFSAII (Michael W. Deem and Ramdas Pophale) SiO2 
 PCOD9476656
Probable space group: C M C A
;
_chemical_formula_sum "Si O2"
_cell_formula_units_Z 88
_cell_length_a 24.558108
_cell_length_b 10.538233
_cell_length_c 21.817458
_cell_angle_alpha 90.000000
_cell_angle_beta 90.000000
_cell_angle_gamma 90.000000
_cell_volume 5646.337712
_symmetry_space_group_name_H-M "C M C A"
_symmetry_group_IT_number 64
_symmetry_cell_setting 'orthorhombic'
loop_
_space_group_symop_operation_xyz
x,y,z
-x,1/2-y,1/2+z
x,-y,-z
-x,1/2+y,1/2-z
-x,-y,-z
x,1/2+y,1/2-z
-x,y,z
x,1/2-y,1/2+z
1/2+x,1/2+y,z
1/2-x,-y,1/2+z
1/2+x,1/2-y,-z
1/2-x,y,1/2-z
1/2-x,1/2-y,-z
1/2+x,y,1/2-z
1/2-x,1/2+y,z
1/2+x,-y,1/2+z
loop_
_atom_site_type_symbol
_atom_site_label
_atom_site_fract_x
_atom_site_fract_y
_atom_site_fract_z
Si Si1 0.060667 0.753778 0.701237
Si Si2 0.060976 0.461049 0.691949
Si Si3 0.677338 0.526571 0.139812
Si Si4 0.674758 0.267138 0.643099
Si Si5 0.255278 0.875078 0.959047
Si Si6 0.250000 0.128801 0.250000
O O1 0.065854 0.604549 0.719259
O O2 0.064205 0.851218 0.757413
O O3 0.111280 0.782518 0.657681
O O4 0.000000 0.768416 0.674060
O O5 0.113535 0.446916 0.649292
O O6 0.000000 0.453876 0.664085
O O7 0.684637 0.378533 0.124900
O O8 0.703306 0.607806 0.085506
O O9 0.710495 0.553284 0.203067
O O10 0.695614 0.356552 0.589050
O O11 0.709995 0.294184 0.704582
O O12 0.250000 0.750000 0.000000
O O13 0.261386 0.000000 0.000000
#
# Coordination Sequence:
#
# PCOD9476656 Si02
#       6
#    16  16  16  16  16   8
#     4   9  17  31  50  75 105 136 166 202 253 308
#     4   9  17  31  50  75 106 136 166 203 254 307
#     4  10  19  32  52  75 107 134 167 219 247 313
#     4  10  19  32  52  75 106 134 168 214 252 312
#     4  11  22  39  54  73  99 138 178 214 259 299
#     4  10  18  28  46  82 104 138 162 204 262 306
#
# _framework density 15.585323000000001
#
# number of rings (size 3 to 8) (size 9 to 14) (size 15 to 20)
#    0.000    2.182    3.636    0.545    0.000    0.000 
#    3.273    0.000    0.000    2.182    0.000    0.000 
#    0.000    0.000    0.000    0.000    0.000    0.000 
#
# Total GULP energy -244936.193592 kJ/mol
# GULP energy per Si atom -5566.731673 kJ/mol
# Density = 1.554985 g / cm^3
# Si number density = 15.585323 Si / 1000 Ang^3
#
#
#
# Elastic Constant Matrix: (Units=GPa)
#
#
# Indices 1 2 3 4 5 6 
#
# 1 128.9363 54.0767 49.1241 0.0000 0.0000 0.0000
# 2 54.0767 83.2781 47.7335 0.0000 0.0000 0.0000
# 3 49.1241 47.7335 82.3468 0.0000 0.0000 0.0000
# 4 0.0000 0.0000 0.0000 29.6359 0.0000 0.0000
# 5 0.0000 0.0000 0.0000 0.0000 14.2410 0.0000
# 6 0.0000 0.0000 0.0000 0.0000 0.0000 24.6646
#
#
#
# Elastic Compliance Matrix: (Units=1/GPa)
#
#
# Indices 1 2 3 4 5 6 
#
# 1 0.011384 -0.005241 -0.003753 0.000000 0.000000 0.000000
# 2 -0.005241 0.020396 -0.008696 0.000000 0.000000 0.000000
# 3 -0.003753 -0.008696 0.019423 0.000000 0.000000 0.000000
# 4 0.000000 0.000000 0.000000 0.033743 0.000000 0.000000
# 5 0.000000 0.000000 0.000000 0.000000 0.070220 0.000000
# 6 0.000000 0.000000 0.000000 0.000000 0.000000 0.040544
#
#
# Mechanical properties :
#
#
# Convention : Reuss Voigt Hill
#
# Bulk Modulus (GPa) = 63.20030 66.26998 64.73514
# Shear Modulus (GPa) = 21.15384 23.28344 22.21864
#
# Velocity S-wave (km/s) = 3.68814 3.86934 3.77983
# Velocity P-wave (km/s) = 7.66653 7.91046 7.78945
#
# Compressibility (1/GPa) = 0.01582271
#
# Stress axis : x y z
#
# Youngs Moduli (GPa) = 87.84494 49.03023 51.48408
#
# Poissons Ratio (x) = 0.25696 0.19322
# Poissons Ratio (y) = 0.46038 0.44771
# Poissons Ratio (z) = 0.32968 0.42637
#
# Static dielectric constant tensor:
#      x y z
#    x 1.534550 0.000000 0.000000 
#    y 0.000000 1.526650 0.000000 
#    z 0.000000 0.000000 1.490440 
# 
# From -- ./inp_files/41375.got.cif
#   From: 2010.05.17/outbox.cif.g08.bks.cpg/sg64_21_cif.got.tgz:41375.got - 2010.06.03 16:29:19.
