data_PCOD9476896
_publ_section_title
;
Structure prediction by ZEFSAII (Michael W. Deem and Ramdas Pophale) SiO2 
 PCOD9476896
Probable space group: C M C A
;
_chemical_formula_sum "Si O2"
_cell_formula_units_Z 64
_cell_length_a 8.499942
_cell_length_b 21.114315
_cell_length_c 19.845935
_cell_angle_alpha 90.000000
_cell_angle_beta 90.000000
_cell_angle_gamma 90.000000
_cell_volume 3561.758942
_symmetry_space_group_name_H-M "C M C A"
_symmetry_group_IT_number 64
_symmetry_cell_setting 'orthorhombic'
loop_
_space_group_symop_operation_xyz
x,y,z
-x,1/2-y,1/2+z
x,-y,-z
-x,1/2+y,1/2-z
-x,-y,-z
x,1/2+y,1/2-z
-x,y,z
x,1/2-y,1/2+z
1/2+x,1/2+y,z
1/2-x,-y,1/2+z
1/2+x,1/2-y,-z
1/2-x,y,1/2-z
1/2-x,1/2-y,-z
1/2+x,y,1/2-z
1/2-x,1/2+y,z
1/2+x,-y,1/2+z
loop_
_atom_site_type_symbol
_atom_site_label
_atom_site_fract_x
_atom_site_fract_y
_atom_site_fract_z
Si Si1 0.811157 0.994740 0.322926
Si Si2 0.810661 0.811630 0.538525
Si Si3 0.308546 0.437302 0.460092
Si Si4 0.687675 0.137767 0.324024
O O1 0.750000 0.974934 0.250000
O O2 0.761377 0.948108 0.382829
O O3 0.000000 0.998450 0.321996
O O4 0.748826 0.065888 0.336132
O O5 0.750000 0.750000 0.500000
O O6 0.756006 0.873722 0.496758
O O7 0.748487 0.819509 0.614596
O O8 0.000000 0.811338 0.540200
O O9 0.257289 0.500000 0.500000
O O10 0.500000 0.436577 0.461812
O O11 0.500000 0.137179 0.322778
O O12 0.750000 0.156716 0.250000
#
# Coordination Sequence:
#
# PCOD9476896 Si02
#       4
#    16  16  16  16
#     4  10  18  32  54  82 112 145 184 230 283 334
#     4  11  22  39  59  83 115 151 193 235 283 340
#     4   9  17  33  57  80 107 147 186 227 279 333
#     4  11  21  35  56  84 113 147 187 232 283 336
#
# _framework density 17.968648999999999
#
# number of rings (size 3 to 8) (size 9 to 14) (size 15 to 20)
#    0.000    1.750    2.500    5.250    0.000    0.000 
#    0.000    7.500    0.000    3.000    0.000    0.000 
#    0.000    0.000    0.000    0.000    0.000    0.000 
#
# Total GULP energy -178645.688635 kJ/mol
# GULP energy per Si atom -5582.677770 kJ/mol
# Density = 1.792775 g / cm^3
# Si number density = 17.968649 Si / 1000 Ang^3
#
#
#
# Elastic Constant Matrix: (Units=GPa)
#
#
# Indices 1 2 3 4 5 6 
#
# 1 87.0433 28.0993 47.9040 0.0000 0.0000 0.0000
# 2 28.0993 111.3427 83.5981 0.0000 0.0000 0.0000
# 3 47.9040 83.5981 182.0549 0.0000 0.0000 0.0000
# 4 0.0000 0.0000 0.0000 29.7348 0.0000 0.0000
# 5 0.0000 0.0000 0.0000 0.0000 28.7293 0.0000
# 6 0.0000 0.0000 0.0000 0.0000 0.0000 11.4254
#
#
#
# Elastic Compliance Matrix: (Units=1/GPa)
#
#
# Indices 1 2 3 4 5 6 
#
# 1 0.013527 -0.001131 -0.003040 0.000000 0.000000 0.000000
# 2 -0.001131 0.013802 -0.006040 0.000000 0.000000 0.000000
# 3 -0.003040 -0.006040 0.009066 0.000000 0.000000 0.000000
# 4 0.000000 0.000000 0.000000 0.033631 0.000000 0.000000
# 5 0.000000 0.000000 0.000000 0.000000 0.034808 0.000000
# 6 0.000000 0.000000 0.000000 0.000000 0.000000 0.087524
#
#
# Mechanical properties :
#
#
# Convention : Reuss Voigt Hill
#
# Bulk Modulus (GPa) = 62.60790 77.73818 70.17304
# Shear Modulus (GPa) = 22.92490 28.70053 25.81272
#
# Velocity S-wave (km/s) = 3.57575 4.00090 3.79429
# Velocity P-wave (km/s) = 7.20878 8.04364 7.63762
#
# Compressibility (1/GPa) = 0.01597242
#
# Stress axis : x y z
#
# Youngs Moduli (GPa) = 73.92794 72.45489 110.30019
#
# Poissons Ratio (x) = 0.08198 0.33528
# Poissons Ratio (y) = 0.08364 0.66620
# Poissons Ratio (z) = 0.22472 0.43762
#
# Static dielectric constant tensor:
#      x y z
#    x 1.614220 0.000000 0.000000 
#    y 0.000000 1.586410 0.000000 
#    z 0.000000 0.000000 1.635110 
# 
# From -- ./inp_files/29256.got.cif
#   From: 2010.05.17/outbox.cif.g08.bks.cpg/sg64_15_cif.got.tgz:29256.got - 2010.06.03 16:29:19.
