data_PCOD9476027
_publ_section_title
;
Structure prediction by ZEFSAII (Michael W. Deem and Ramdas Pophale) SiO2 
 PCOD9476027
Probable space group: C M C M
;
_chemical_formula_sum "Si O2"
_cell_formula_units_Z 80
_cell_length_a 15.119417
_cell_length_b 33.480008
_cell_length_c 9.259252
_cell_angle_alpha 90.000000
_cell_angle_beta 90.000000
_cell_angle_gamma 90.000000
_cell_volume 4687.016715
_symmetry_space_group_name_H-M "C M C M"
_symmetry_group_IT_number 63
_symmetry_cell_setting 'orthorhombic'
loop_
_space_group_symop_operation_xyz
x,y,z
-x,-y,1/2+z
x,-y,-z
-x,y,1/2-z
-x,-y,-z
x,y,1/2-z
-x,y,z
x,-y,1/2+z
1/2+x,1/2+y,z
1/2-x,1/2-y,1/2+z
1/2+x,1/2-y,-z
1/2-x,1/2+y,1/2-z
1/2-x,1/2-y,-z
1/2+x,1/2+y,1/2-z
1/2-x,1/2+y,z
1/2+x,1/2-y,1/2+z
loop_
_atom_site_type_symbol
_atom_site_label
_atom_site_fract_x
_atom_site_fract_y
_atom_site_fract_z
Si Si1 0.603603 0.540892 0.577129
Si Si2 0.160202 0.799415 0.914842
Si Si3 0.404906 0.142015 0.577155
Si Si4 0.708041 0.620642 0.924199
Si Si5 0.868542 0.277005 0.914738
O O1 0.631186 0.500000 0.500000
O O2 0.610540 0.535947 0.750000
O O3 0.500000 0.547972 0.542497
O O4 0.660995 0.579361 0.535812
O O5 0.128407 0.802993 0.750000
O O6 0.262608 0.784791 0.909045
O O7 0.163207 0.841608 0.997147
O O8 0.113060 0.764424 0.004226
O O9 0.401841 0.147311 0.750000
O O10 0.500000 0.122502 0.541237
O O11 0.312719 0.120717 0.537301
O O12 0.403235 0.185158 0.502489
O O13 0.700733 0.625858 0.750000
O O14 0.899384 0.276180 0.750000
#
# Coordination Sequence:
#
# PCOD9476027 Si02
#       5
#    16  16  16  16  16
#     4   9  18  33  53  75  96 117 143 178 223 277
#     4   9  16  26  42  64  89 119 156 195 232 270
#     4   9  17  29  45  65  90 122 160 197 229 265
#     4   9  17  30  48  69  93 121 152 188 231 276
#     4   9  16  26  41  61  87 121 159 197 234 268
#
# _framework density 17.068427
#
# number of rings (size 3 to 8) (size 9 to 14) (size 15 to 20)
#    0.000    3.000    0.000    1.200    0.000    6.000 
#    0.000    1.000    0.000    4.200    0.000    0.000 
#    0.000    0.000    0.000    0.000    0.000    0.000 
#
# Total GULP energy -222823.052178 kJ/mol
# GULP energy per Si atom -5570.576304 kJ/mol
# Density = 1.702958 g / cm^3
# Si number density = 17.068427 Si / 1000 Ang^3
#
#
#
# Elastic Constant Matrix: (Units=GPa)
#
#
# Indices 1 2 3 4 5 6 
#
# 1 68.4997 60.8225 23.9614 0.0000 0.0000 0.0000
# 2 60.8225 148.9074 51.5690 0.0000 0.0000 0.0000
# 3 23.9614 51.5690 34.2425 0.0000 0.0000 0.0000
# 4 0.0000 0.0000 0.0000 28.4592 0.0000 0.0000
# 5 0.0000 0.0000 0.0000 0.0000 7.2884 0.0000
# 6 0.0000 0.0000 0.0000 0.0000 0.0000 7.0597
#
#
#
# Elastic Compliance Matrix: (Units=1/GPa)
#
#
# Indices 1 2 3 4 5 6 
#
# 1 0.023178 -0.008048 -0.004099 0.000000 0.000000 0.000000
# 2 -0.008048 0.016830 -0.019715 0.000000 0.000000 0.000000
# 3 -0.004099 -0.019715 0.061763 0.000000 0.000000 0.000000
# 4 0.000000 0.000000 0.000000 0.035138 0.000000 0.000000
# 5 0.000000 0.000000 0.000000 0.000000 0.137204 0.000000
# 6 0.000000 0.000000 0.000000 0.000000 0.000000 0.141650
#
#
# Mechanical properties :
#
#
# Convention : Reuss Voigt Hill
#
# Bulk Modulus (GPa) = 26.28315 58.26173 42.27244
# Shear Modulus (GPa) = 10.15909 16.24789 13.20349
#
# Velocity S-wave (km/s) = 2.44231 3.08868 2.78432
# Velocity P-wave (km/s) = 4.83584 6.85042 5.92931
#
# Compressibility (1/GPa) = 0.03804719
#
# Stress axis : x y z
#
# Youngs Moduli (GPa) = 43.14371 59.41659 16.19102
#
# Poissons Ratio (x) = 0.47817 0.06637
# Poissons Ratio (y) = 0.34721 0.31920
# Poissons Ratio (z) = 0.17687 1.17139
#
# Static dielectric constant tensor:
#      x y z
#    x 1.634940 0.000000 0.000000 
#    y 0.000000 1.527800 0.000000 
#    z 0.000000 0.000000 1.583540 
# 
# From -- ./inp_files/6633.got.cif
#   From: 2010.05.17/outbox.cif.g08.bks.cpg/sg63_4_cif.got.tgz:6633.got - 2010.06.03 15:47:04.
