data_PCOD9476740
_publ_section_title
;
Structure prediction by ZEFSAII (Michael W. Deem and Ramdas Pophale) SiO2 
 PCOD9476740
Probable space group: C M C A
;
_chemical_formula_sum "Si O2"
_cell_formula_units_Z 96
_cell_length_a 7.776845
_cell_length_b 20.195040
_cell_length_c 31.545262
_cell_angle_alpha 90.000000
_cell_angle_beta 90.000000
_cell_angle_gamma 90.000000
_cell_volume 4954.299984
_symmetry_space_group_name_H-M "C M C A"
_symmetry_group_IT_number 64
_symmetry_cell_setting 'orthorhombic'
loop_
_space_group_symop_operation_xyz
x,y,z
-x,1/2-y,1/2+z
x,-y,-z
-x,1/2+y,1/2-z
-x,-y,-z
x,1/2+y,1/2-z
-x,y,z
x,1/2-y,1/2+z
1/2+x,1/2+y,z
1/2-x,-y,1/2+z
1/2+x,1/2-y,-z
1/2-x,y,1/2-z
1/2-x,1/2-y,-z
1/2+x,y,1/2-z
1/2-x,1/2+y,z
1/2+x,-y,1/2+z
loop_
_atom_site_type_symbol
_atom_site_label
_atom_site_fract_x
_atom_site_fract_y
_atom_site_fract_z
Si Si1 0.704156 0.251954 0.129137
Si Si2 0.211661 0.897975 0.110237
Si Si3 0.794829 0.847643 0.799099
Si Si4 0.206810 0.572301 0.514551
Si Si5 0.205132 0.133794 0.428856
Si Si6 0.798375 0.034853 0.143239
O O1 0.500000 0.257037 0.122245
O O2 0.771390 0.326442 0.126266
O O3 0.732694 0.214800 0.173497
O O4 0.770425 0.201400 0.092941
O O5 0.265460 0.908563 0.061442
O O6 0.000000 0.899462 0.110994
O O7 0.272871 0.961263 0.137240
O O8 0.750000 0.844585 0.750000
O O9 0.724370 0.914209 0.822099
O O10 0.000000 0.848746 0.803359
O O11 0.272107 0.500000 0.500000
O O12 0.253872 0.623986 0.477898
O O13 0.000000 0.568539 0.516199
O O14 0.282307 0.073216 0.401605
O O15 0.000000 0.130812 0.423135
O O16 0.000000 0.027395 0.153060
#
# Coordination Sequence:
#
# PCOD9476740 Si02
#       6
#    16  16  16  16  16  16
#     4   9  19  35  53  74 104 138 169 206 256 305
#     4   9  17  32  53  74  99 135 175 211 249 293
#     4  10  20  35  58  81 101 127 163 204 249 305
#     4  10  18  30  50  72  97 137 184 217 246 293
#     4  10  19  30  46  72 104 136 170 213 257 291
#     4   9  17  33  55  75  96 130 172 206 243 298
#
# _framework density 19.377106000000001
#
# number of rings (size 3 to 8) (size 9 to 14) (size 15 to 20)
#    0.000    2.500    1.667    1.000    0.000    2.333 
#    0.000    2.500    0.000    2.000    0.000    0.000 
#    0.000    0.000    0.000    0.000    0.000    0.000 
#
# Total GULP energy -267732.262730 kJ/mol
# GULP energy per Si atom -5577.755474 kJ/mol
# Density = 1.933300 g / cm^3
# Si number density = 19.377106 Si / 1000 Ang^3
#
#
#
# Elastic Constant Matrix: (Units=GPa)
#
#
# Indices 1 2 3 4 5 6 
#
# 1 19.2612 3.9337 -13.2913 0.0000 0.0000 0.0000
# 2 3.9337 196.9973 80.2868 0.0000 0.0000 0.0000
# 3 -13.2913 80.2868 113.5415 0.0000 0.0000 0.0000
# 4 0.0000 0.0000 0.0000 15.8876 0.0000 0.0000
# 5 0.0000 0.0000 0.0000 0.0000 19.2351 0.0000
# 6 0.0000 0.0000 0.0000 0.0000 0.0000 9.5095
#
#
#
# Elastic Compliance Matrix: (Units=1/GPa)
#
#
# Indices 1 2 3 4 5 6 
#
# 1 0.060836 -0.005784 0.011211 0.000000 0.000000 0.000000
# 2 -0.005784 0.007681 -0.006109 0.000000 0.000000 0.000000
# 3 0.011211 -0.006109 0.014439 0.000000 0.000000 0.000000
# 4 0.000000 0.000000 0.000000 0.062942 0.000000 0.000000
# 5 0.000000 0.000000 0.000000 0.000000 0.051988 0.000000
# 6 0.000000 0.000000 0.000000 0.000000 0.000000 0.105158
#
#
# Mechanical properties :
#
#
# Convention : Reuss Voigt Hill
#
# Bulk Modulus (GPa) = 12.25582 52.40649 32.33116
# Shear Modulus (GPa) = 15.07817 26.18448 20.63133
#
# Velocity S-wave (km/s) = 2.79255 3.68001 3.26656
# Velocity P-wave (km/s) = 4.09101 6.72018 5.56315
#
# Compressibility (1/GPa) = 0.08159386
#
# Stress axis : x y z
#
# Youngs Moduli (GPa) = 16.43771 130.18619 69.25550
#
# Poissons Ratio (x) = 0.75300 -0.77646
# Poissons Ratio (y) = 0.09508 0.42306
# Poissons Ratio (z) = -0.18429 0.79526
#
# Static dielectric constant tensor:
#      x y z
#    x 1.714080 0.000000 0.000000 
#    y 0.000000 1.704370 0.000000 
#    z 0.000000 0.000000 1.594120 
# 
# From -- ./inp_files/48028.got.cif
#   From: 2010.05.17/outbox.cif.g08.bks.cpg/sg64_25_cif.got.tgz:48028.got - 2010.06.03 16:29:19.
