data_PCOD9476639
_publ_section_title
;
Structure prediction by ZEFSAII (Michael W. Deem and Ramdas Pophale) SiO2 
 PCOD9476639
Probable space group: C M C A
;
_chemical_formula_sum "Si O2"
_cell_formula_units_Z 96
_cell_length_a 7.457450
_cell_length_b 25.009739
_cell_length_c 26.365613
_cell_angle_alpha 90.000000
_cell_angle_beta 90.000000
_cell_angle_gamma 90.000000
_cell_volume 4917.420901
_symmetry_space_group_name_H-M "C M C A"
_symmetry_group_IT_number 64
_symmetry_cell_setting 'orthorhombic'
loop_
_space_group_symop_operation_xyz
x,y,z
-x,1/2-y,1/2+z
x,-y,-z
-x,1/2+y,1/2-z
-x,-y,-z
x,1/2+y,1/2-z
-x,y,z
x,1/2-y,1/2+z
1/2+x,1/2+y,z
1/2-x,-y,1/2+z
1/2+x,1/2-y,-z
1/2-x,y,1/2-z
1/2-x,1/2-y,-z
1/2+x,y,1/2-z
1/2-x,1/2+y,z
1/2+x,-y,1/2+z
loop_
_atom_site_type_symbol
_atom_site_label
_atom_site_fract_x
_atom_site_fract_y
_atom_site_fract_z
Si Si1 0.719663 0.251890 0.383016
Si Si2 0.283854 0.171177 0.469843
Si Si3 0.796300 0.359823 0.080681
Si Si4 0.792187 0.026139 0.551480
Si Si5 0.715949 0.077526 0.392137
Si Si6 0.285835 0.659343 0.190702
O O1 0.500000 0.253368 0.382991
O O2 0.772516 0.220287 0.434289
O O3 0.783623 0.312977 0.384442
O O4 0.778075 0.213653 0.336931
O O5 0.500000 0.173044 0.475012
O O6 0.201289 0.166936 0.524941
O O7 0.238368 0.117723 0.438192
O O8 0.711798 0.418028 0.071087
O O9 0.000000 0.368990 0.098858
O O10 0.000000 0.038701 0.538926
O O11 0.713003 0.000000 0.500000
O O12 0.785921 0.980706 0.594223
O O13 0.500000 0.073573 0.390469
O O14 0.779200 0.108046 0.341502
O O15 0.500000 0.659479 0.183844
O O16 0.250000 0.657192 0.250000
#
# Coordination Sequence:
#
# PCOD9476639 Si02
#       6
#    16  16  16  16  16  16
#     4   8  16  30  46  65  91 120 150 184 230 283
#     4   9  16  27  43  64  90 121 155 188 220 266
#     4  10  18  28  43  63  93 130 157 183 222 265
#     4  10  19  29  42  66  98 129 164 196 220 263
#     4   9  18  31  47  67  93 124 156 190 232 277
#     4   9  18  34  54  74  91 112 149 196 243 288
#
# _framework density 19.522428000000001
#
# number of rings (size 3 to 8) (size 9 to 14) (size 15 to 20)
#    0.000    2.833    1.667    2.500    0.000    1.667 
#    0.000    3.333    0.000    1.000    0.000    4.667 
#    0.000    0.000    0.000    0.000    0.000    0.000 
#
# Total GULP energy -267630.760188 kJ/mol
# GULP energy per Si atom -5575.640837 kJ/mol
# Density = 1.947799 g / cm^3
# Si number density = 19.522428 Si / 1000 Ang^3
#
#
#
# Elastic Constant Matrix: (Units=GPa)
#
#
# Indices 1 2 3 4 5 6 
#
# 1 57.5781 1.6269 -3.7632 0.0000 0.0000 0.0000
# 2 1.6269 168.6841 56.9644 0.0000 0.0000 0.0000
# 3 -3.7632 56.9644 90.9358 0.0000 0.0000 0.0000
# 4 0.0000 0.0000 0.0000 11.0044 0.0000 0.0000
# 5 0.0000 0.0000 0.0000 0.0000 9.4314 0.0000
# 6 0.0000 0.0000 0.0000 0.0000 0.0000 11.9103
#
#
#
# Elastic Compliance Matrix: (Units=1/GPa)
#
#
# Indices 1 2 3 4 5 6 
#
# 1 0.017451 -0.000523 0.001050 0.000000 0.000000 0.000000
# 2 -0.000523 0.007534 -0.004741 0.000000 0.000000 0.000000
# 3 0.001050 -0.004741 0.014010 0.000000 0.000000 0.000000
# 4 0.000000 0.000000 0.000000 0.090873 0.000000 0.000000
# 5 0.000000 0.000000 0.000000 0.000000 0.106029 0.000000
# 6 0.000000 0.000000 0.000000 0.000000 0.000000 0.083961
#
#
# Mechanical properties :
#
#
# Convention : Reuss Voigt Hill
#
# Bulk Modulus (GPa) = 32.71519 47.42825 40.07172
# Shear Modulus (GPa) = 14.77208 23.96055 19.36631
#
# Velocity S-wave (km/s) = 2.75375 3.50713 3.15303
# Velocity P-wave (km/s) = 5.18700 6.38333 5.81601
#
# Compressibility (1/GPa) = 0.03056684
#
# Stress axis : x y z
#
# Youngs Moduli (GPa) = 57.30300 132.72382 71.37591
#
# Poissons Ratio (x) = 0.06939 -0.07492
# Poissons Ratio (y) = 0.02996 0.33842
# Poissons Ratio (z) = -0.06015 0.62930
#
# Static dielectric constant tensor:
#      x y z
#    x 1.449660 0.000000 0.000000 
#    y 0.000000 1.734110 0.000000 
#    z 0.000000 0.000000 1.661010 
# 
# From -- ./inp_files/42968.got.cif
#   From: 2010.05.17/outbox.cif.g08.bks.cpg/sg64_22_cif.got.tgz:42968.got - 2010.06.03 16:29:19.
