data_PCOD9476423
_publ_section_title
;
Structure prediction by ZEFSAII (Michael W. Deem and Ramdas Pophale) SiO2 
 PCOD9476423
Probable space group: C M C A
;
_chemical_formula_sum "Si O2"
_cell_formula_units_Z 96
_cell_length_a 15.884385
_cell_length_b 13.006109
_cell_length_c 17.626388
_cell_angle_alpha 90.000000
_cell_angle_beta 90.000000
_cell_angle_gamma 90.000000
_cell_volume 3641.506755
_symmetry_space_group_name_H-M "C M C A"
_symmetry_group_IT_number 64
_symmetry_cell_setting 'orthorhombic'
loop_
_space_group_symop_operation_xyz
x,y,z
-x,1/2-y,1/2+z
x,-y,-z
-x,1/2+y,1/2-z
-x,-y,-z
x,1/2+y,1/2-z
-x,y,z
x,1/2-y,1/2+z
1/2+x,1/2+y,z
1/2-x,-y,1/2+z
1/2+x,1/2-y,-z
1/2-x,y,1/2-z
1/2-x,1/2-y,-z
1/2+x,y,1/2-z
1/2-x,1/2+y,z
1/2+x,-y,1/2+z
loop_
_atom_site_type_symbol
_atom_site_label
_atom_site_fract_x
_atom_site_fract_y
_atom_site_fract_z
Si Si1 0.806590 0.325394 0.320766
Si Si2 0.102281 0.510703 0.378672
Si Si3 0.896205 0.101025 0.451559
Si Si4 0.093235 0.692679 0.470607
Si Si5 0.402210 0.537559 0.292587
Si Si6 0.870283 0.702468 0.823550
O O1 0.750000 0.379450 0.250000
O O2 0.856946 0.397663 0.376667
O O3 0.868706 0.263920 0.264940
O O4 0.724418 0.277916 0.356071
O O5 0.132395 0.584236 0.445967
O O6 0.129247 0.547707 0.293631
O O7 0.000000 0.506191 0.379700
O O8 0.869192 0.210956 0.484476
O O9 0.862748 0.089675 0.366260
O O10 0.000000 0.101389 0.451922
O O11 0.871866 0.000000 0.500000
O O12 0.079598 0.738834 0.386068
O O13 0.000000 0.671343 0.504017
O O14 0.500000 0.567413 0.289335
O O15 0.399731 0.415826 0.316692
#
# Coordination Sequence:
#
# PCOD9476423 Si02
#       6
#    16  16  16  16  16  16
#     4   7  16  29  38  60  78 117 153 172 219 258
#     4   9  17  28  43  62  88 118 149 183 214 261
#     4   9  15  22  38  66  95 119 142 179 231 271
#     4  10  17  25  41  71  95 111 143 188 225 258
#     4   9  14  24  41  61  88 124 149 171 223 277
#     4   8  14  25  39  58  85 111 146 176 210 263
#
# _framework density 26.362712999999999
#
# number of rings (size 3 to 8) (size 9 to 14) (size 15 to 20)
#    1.000    2.167    1.667    0.500    0.000    0.667 
#    3.000    0.000    0.000    1.000    0.000    0.000 
#    0.000    4.000    0.000   58.500    0.000    0.000 
#
# Total GULP energy -267256.223015 kJ/mol
# GULP energy per Si atom -5567.837979 kJ/mol
# Density = 2.630271 g / cm^3
# Si number density = 26.362713 Si / 1000 Ang^3
#
#
#
# Elastic Constant Matrix: (Units=GPa)
#
#
# Indices 1 2 3 4 5 6 
#
# 1 57.4724 7.7351 7.5241 0.0000 0.0000 0.0000
# 2 7.7351 125.8950 78.0366 0.0000 0.0000 0.0000
# 3 7.5241 78.0366 129.1933 0.0000 0.0000 0.0000
# 4 0.0000 0.0000 0.0000 70.8191 0.0000 0.0000
# 5 0.0000 0.0000 0.0000 0.0000 22.9659 0.0000
# 6 0.0000 0.0000 0.0000 0.0000 0.0000 7.8408
#
#
#
# Elastic Compliance Matrix: (Units=1/GPa)
#
#
# Indices 1 2 3 4 5 6 
#
# 1 0.017573 -0.000712 -0.000593 0.000000 0.000000 0.000000
# 2 -0.000712 0.012726 -0.007645 0.000000 0.000000 0.000000
# 3 -0.000593 -0.007645 0.012393 0.000000 0.000000 0.000000
# 4 0.000000 0.000000 0.000000 0.014120 0.000000 0.000000
# 5 0.000000 0.000000 0.000000 0.000000 0.043543 0.000000
# 6 0.000000 0.000000 0.000000 0.000000 0.000000 0.127538
#
#
# Mechanical properties :
#
#
# Convention : Reuss Voigt Hill
#
# Bulk Modulus (GPa) = 40.33782 55.46135 47.89958
# Shear Modulus (GPa) = 19.68055 34.94281 27.31168
#
# Velocity S-wave (km/s) = 2.73523 3.64464 3.22218
# Velocity P-wave (km/s) = 5.03087 6.22854 5.66146
#
# Compressibility (1/GPa) = 0.02479063
#
# Stress axis : x y z
#
# Youngs Moduli (GPa) = 56.90496 78.58015 80.69133
#
# Poissons Ratio (x) = 0.05594 0.04789
# Poissons Ratio (y) = 0.04051 0.61691
# Poissons Ratio (z) = 0.03377 0.60077
#
# Static dielectric constant tensor:
#      x y z
#    x 2.201950 0.000000 0.000000 
#    y 0.000000 2.277560 0.000000 
#    z 0.000000 0.000000 2.175200 
# 
# From -- ./inp_files/33264.got.cif
#   From: 2010.05.17/outbox.cif.g08.bks.cpg/sg64_17_cif.got.tgz:33264.got - 2010.06.03 16:29:19.
