data_PCOD9476604
_publ_section_title
;
Structure prediction by ZEFSAII (Michael W. Deem and Ramdas Pophale) SiO2 
 PCOD9476604
Probable space group: C M C A
;
_chemical_formula_sum "Si O2"
_cell_formula_units_Z 64
_cell_length_a 10.646314
_cell_length_b 16.049740
_cell_length_c 19.918865
_cell_angle_alpha 90.000000
_cell_angle_beta 90.000000
_cell_angle_gamma 90.000000
_cell_volume 3403.547849
_symmetry_space_group_name_H-M "C M C A"
_symmetry_group_IT_number 64
_symmetry_cell_setting 'orthorhombic'
loop_
_space_group_symop_operation_xyz
x,y,z
-x,1/2-y,1/2+z
x,-y,-z
-x,1/2+y,1/2-z
-x,-y,-z
x,1/2+y,1/2-z
-x,y,z
x,1/2-y,1/2+z
1/2+x,1/2+y,z
1/2-x,-y,1/2+z
1/2+x,1/2-y,-z
1/2-x,y,1/2-z
1/2-x,1/2-y,-z
1/2+x,y,1/2-z
1/2-x,1/2+y,z
1/2+x,-y,1/2+z
loop_
_atom_site_type_symbol
_atom_site_label
_atom_site_fract_x
_atom_site_fract_y
_atom_site_fract_z
Si Si1 0.781501 0.000000 0.500000
Si Si2 0.230147 0.908557 0.130377
Si Si3 0.750000 0.456988 0.750000
Si Si4 0.500000 0.074990 0.080421
Si Si5 0.000000 0.102456 0.655401
Si Si6 0.000000 0.146022 0.281470
Si Si7 0.500000 0.167439 0.701709
O O1 0.708721 0.047985 0.558583
O O2 0.876465 0.066409 0.464943
O O3 0.366061 0.863088 0.131256
O O4 0.121649 0.849100 0.156772
O O5 0.240475 0.982965 0.185273
O O6 0.874594 0.400667 0.756830
O O7 0.500000 0.144675 0.136779
O O8 0.500000 0.989791 0.124017
O O9 0.000000 0.103091 0.735872
O O10 0.000000 0.242860 0.263445
#
# Coordination Sequence:
#
# PCOD9476604 Si02
#       7
#     8  16   8   8   8   8   8
#     4   9  18  33  66  86 108 154 214 236 278 346
#     4  11  20  38  64  90 111 157 204 247 277 359
#     4  12  20  40  62  88 118 148 208 240 288 342
#     4   9  16  38  60  86 112 155 210 234 280 362
#     4  10  17  36  60  85 109 155 202 235 279 351
#     4  12  25  36  59  94 125 154 181 259 302 344
#     4  12  24  35  55  92 132 147 189 246 313 337
#
# _framework density 18.803906999999999
#
# number of rings (size 3 to 8) (size 9 to 14) (size 15 to 20)
#    0.000    1.250    7.500    1.500    3.500    0.500 
#    0.000    1.250    0.000    0.000    0.000    0.000 
#    0.000    0.000    0.000    0.000    0.000    0.000 
#
# Total GULP energy -178452.276881 kJ/mol
# GULP energy per Si atom -5576.633653 kJ/mol
# Density = 1.876111 g / cm^3
# Si number density = 18.803907 Si / 1000 Ang^3
#
#
#
# Elastic Constant Matrix: (Units=GPa)
#
#
# Indices 1 2 3 4 5 6 
#
# 1 124.3838 37.0768 2.4697 0.0000 0.0000 0.0000
# 2 37.0768 52.7819 8.1672 0.0000 0.0000 0.0000
# 3 2.4697 8.1672 91.9660 0.0000 0.0000 0.0000
# 4 0.0000 0.0000 0.0000 15.6474 0.0000 0.0000
# 5 0.0000 0.0000 0.0000 0.0000 21.8375 0.0000
# 6 0.0000 0.0000 0.0000 0.0000 0.0000 5.8759
#
#
#
# Elastic Compliance Matrix: (Units=1/GPa)
#
#
# Indices 1 2 3 4 5 6 
#
# 1 0.010181 -0.007209 0.000367 0.000000 0.000000 0.000000
# 2 -0.007209 0.024314 -0.001966 0.000000 0.000000 0.000000
# 3 0.000367 -0.001966 0.011038 0.000000 0.000000 0.000000
# 4 0.000000 0.000000 0.000000 0.063908 0.000000 0.000000
# 5 0.000000 0.000000 0.000000 0.000000 0.045793 0.000000
# 6 0.000000 0.000000 0.000000 0.000000 0.000000 0.170186
#
#
# Mechanical properties :
#
#
# Convention : Reuss Voigt Hill
#
# Bulk Modulus (GPa) = 35.81879 40.50657 38.16268
# Shear Modulus (GPa) = 14.19079 23.43335 18.81207
#
# Velocity S-wave (km/s) = 2.75011 3.53398 3.16640
# Velocity P-wave (km/s) = 5.40130 6.18388 5.80579
#
# Compressibility (1/GPa) = 0.02791831
#
# Stress axis : x y z
#
# Youngs Moduli (GPa) = 98.22127 41.12906 90.59363
#
# Poissons Ratio (x) = 0.29648 -0.03323
# Poissons Ratio (y) = 0.70803 0.17808
# Poissons Ratio (z) = -0.03602 0.08085
#
# Static dielectric constant tensor:
#      x y z
#    x 1.711010 0.000000 0.000000 
#    y 0.000000 1.644540 0.000000 
#    z 0.000000 0.000000 1.667890 
# 
# From -- ./inp_files/30544.got.cif
#   From: 2010.05.17/outbox.cif.g08.bks.cpg/sg64_16_cif.got.tgz:30544.got - 2010.06.03 16:29:19.
