data_PCOD9476605
_publ_section_title
;
Structure prediction by ZEFSAII (Michael W. Deem and Ramdas Pophale) SiO2 
 PCOD9476605
Probable space group: C M C A
;
_chemical_formula_sum "Si O2"
_cell_formula_units_Z 72
_cell_length_a 13.916667
_cell_length_b 19.512193
_cell_length_c 14.828708
_cell_angle_alpha 90.000000
_cell_angle_beta 90.000000
_cell_angle_gamma 90.000000
_cell_volume 4026.656953
_symmetry_space_group_name_H-M "C M C A"
_symmetry_group_IT_number 64
_symmetry_cell_setting 'orthorhombic'
loop_
_space_group_symop_operation_xyz
x,y,z
-x,1/2-y,1/2+z
x,-y,-z
-x,1/2+y,1/2-z
-x,-y,-z
x,1/2+y,1/2-z
-x,y,z
x,1/2-y,1/2+z
1/2+x,1/2+y,z
1/2-x,-y,1/2+z
1/2+x,1/2-y,-z
1/2-x,y,1/2-z
1/2-x,1/2-y,-z
1/2+x,y,1/2-z
1/2-x,1/2+y,z
1/2+x,-y,1/2+z
loop_
_atom_site_type_symbol
_atom_site_label
_atom_site_fract_x
_atom_site_fract_y
_atom_site_fract_z
Si Si1 0.297760 0.078725 0.151037
Si Si2 0.783834 0.066307 0.853152
Si Si3 0.205428 0.675089 0.496512
Si Si4 0.500000 0.857631 0.573576
Si Si5 0.000000 0.009147 0.867458
Si Si6 0.500000 0.397707 0.724893
O O1 0.250000 0.080114 0.250000
O O2 0.246489 0.130773 0.085576
O O3 0.405367 0.104387 0.165684
O O4 0.277315 0.001133 0.117946
O O5 0.750000 0.078515 0.750000
O O6 0.897269 0.047220 0.868343
O O7 0.768718 0.132644 0.913925
O O8 0.250000 0.750000 0.500000
O O9 0.092259 0.673573 0.474758
O O10 0.500000 0.941786 0.566517
O O11 0.500000 0.850504 0.683944
O O12 0.000000 0.973002 0.769524
#
# Coordination Sequence:
#
# PCOD9476605 Si02
#       6
#    16  16  16   8   8   8
#     4  11  19  38  65  90 120 156 205 261 310 352
#     4  11  21  39  63  95 119 154 211 266 307 350
#     4  12  26  39  60  92 131 169 203 246 312 378
#     4  10  19  41  65  92 114 165 216 254 293 370
#     4  10  17  36  69  98 109 148 223 268 300 343
#     4  10  18  35  66  97 117 149 208 260 319 354
#
# _framework density 17.880837
#
# number of rings (size 3 to 8) (size 9 to 14) (size 15 to 20)
#    0.667    0.444    8.889    1.333    0.000    2.667 
#    0.000    5.556    0.000    0.000    0.000    0.000 
#    0.000    0.000    0.000    0.000    0.000    0.000 
#
# Total GULP energy -200587.847655 kJ/mol
# GULP energy per Si atom -5571.884657 kJ/mol
# Density = 1.784014 g / cm^3
# Si number density = 17.880837 Si / 1000 Ang^3
#
#
#
# Elastic Constant Matrix: (Units=GPa)
#
#
# Indices 1 2 3 4 5 6 
#
# 1 129.5723 45.0030 42.2000 0.0000 0.0000 0.0000
# 2 45.0030 131.1910 64.6587 0.0000 0.0000 0.0000
# 3 42.2000 64.6587 77.9652 0.0000 0.0000 0.0000
# 4 0.0000 0.0000 0.0000 9.1482 0.0000 0.0000
# 5 0.0000 0.0000 0.0000 0.0000 16.0849 0.0000
# 6 0.0000 0.0000 0.0000 0.0000 0.0000 13.9261
#
#
#
# Elastic Compliance Matrix: (Units=1/GPa)
#
#
# Indices 1 2 3 4 5 6 
#
# 1 0.009484 -0.001223 -0.004119 0.000000 0.000000 0.000000
# 2 -0.001223 0.013050 -0.010160 0.000000 0.000000 0.000000
# 3 -0.004119 -0.010160 0.023482 0.000000 0.000000 0.000000
# 4 0.000000 0.000000 0.000000 0.109311 0.000000 0.000000
# 5 0.000000 0.000000 0.000000 0.000000 0.062170 0.000000
# 6 0.000000 0.000000 0.000000 0.000000 0.000000 0.071808
#
#
# Mechanical properties :
#
#
# Convention : Reuss Voigt Hill
#
# Bulk Modulus (GPa) = 66.61964 71.38354 69.00159
# Shear Modulus (GPa) = 15.36979 20.28962 17.82970
#
# Velocity S-wave (km/s) = 2.93502 3.37220 3.16118
# Velocity P-wave (km/s) = 6.98743 7.42771 7.21093
#
# Compressibility (1/GPa) = 0.01501059
#
# Stress axis : x y z
#
# Youngs Moduli (GPa) = 105.44024 76.62982 42.58597
#
# Poissons Ratio (x) = 0.09374 0.17541
# Poissons Ratio (y) = 0.12899 0.43269
# Poissons Ratio (z) = 0.43429 0.77859
#
# Static dielectric constant tensor:
#      x y z
#    x 1.872400 0.000000 0.000000 
#    y 0.000000 1.596840 0.000000 
#    z 0.000000 0.000000 1.691830 
# 
# From -- ./inp_files/23569.got.cif
#   From: 2010.05.17/outbox.cif.g08.bks.cpg/sg64_12_cif.got.tgz:23569.got - 2010.06.03 16:29:19.
