data_PCOD9476548
_publ_section_title
;
Structure prediction by ZEFSAII (Michael W. Deem and Ramdas Pophale) SiO2 
 PCOD9476548
Probable space group: C M C A
;
_chemical_formula_sum "Si O2"
_cell_formula_units_Z 128
_cell_length_a 18.071821
_cell_length_b 23.851975
_cell_length_c 19.535598
_cell_angle_alpha 90.000000
_cell_angle_beta 90.000000
_cell_angle_gamma 90.000000
_cell_volume 8420.792611
_symmetry_space_group_name_H-M "C M C A"
_symmetry_group_IT_number 64
_symmetry_cell_setting 'orthorhombic'
loop_
_space_group_symop_operation_xyz
x,y,z
-x,1/2-y,1/2+z
x,-y,-z
-x,1/2+y,1/2-z
-x,-y,-z
x,1/2+y,1/2-z
-x,y,z
x,1/2-y,1/2+z
1/2+x,1/2+y,z
1/2-x,-y,1/2+z
1/2+x,1/2-y,-z
1/2-x,y,1/2-z
1/2-x,1/2-y,-z
1/2+x,y,1/2-z
1/2-x,1/2+y,z
1/2+x,-y,1/2+z
loop_
_atom_site_type_symbol
_atom_site_label
_atom_site_fract_x
_atom_site_fract_y
_atom_site_fract_z
Si Si1 0.914255 0.350742 0.254979
Si Si2 0.412569 0.424001 0.859126
Si Si3 0.668315 0.826891 0.722533
Si Si4 0.795421 0.292861 0.178214
Si Si5 0.914637 0.264169 0.842815
Si Si6 0.589598 0.551320 0.853132
Si Si7 0.805353 0.220068 0.947619
Si Si8 0.087029 0.878669 0.012191
O O1 0.864470 0.333110 0.191075
O O2 0.911822 0.298085 0.308090
O O3 0.885692 0.405571 0.294415
O O4 0.000000 0.358358 0.236337
O O5 0.500000 0.420972 0.841596
O O6 0.368557 0.378109 0.816203
O O7 0.385378 0.487412 0.847009
O O8 0.406604 0.408649 0.939233
O O9 0.750000 0.840658 0.750000
O O10 0.677635 0.771757 0.674520
O O11 0.618191 0.805724 0.785827
O O12 0.750000 0.295577 0.250000
O O13 0.744684 0.305647 0.113655
O O14 0.860987 0.262152 0.907912
O O15 0.000000 0.276126 0.858728
O O16 0.500000 0.550176 0.849400
O O17 0.606352 0.578770 0.926503
O O18 0.750000 0.250000 0.000000
O O19 0.857980 0.173764 0.981983
O O20 0.000000 0.861795 0.021545
#
# Coordination Sequence:
#
# PCOD9476548 Si02
#       8
#    16  16  16  16  16  16  16  16
#     4   9  16  29  52  72  90 122 166 207 242 288
#     4  10  20  31  47  72  99 128 163 204 251 296
#     4  10  18  32  48  68  99 129 158 199 248 300
#     4  10  17  32  48  70  97 130 161 198 251 293
#     4  10  18  32  52  70  93 130 169 198 240 302
#     4   9  16  30  50  72  96 126 167 209 246 293
#     4  12  21  31  48  75 101 133 166 203 249 293
#     4  10  19  32  49  69  98 133 167 201 245 303
#
# _framework density 15.200469
#
# number of rings (size 3 to 8) (size 9 to 14) (size 15 to 20)
#    0.000    2.000    5.000    1.875    0.000    2.000 
#    0.000    3.125    0.000    0.000    0.000    0.000 
#    0.000    0.000    0.000    6.875    0.000    0.000 
#
# Total GULP energy -356726.323321 kJ/mol
# GULP energy per Si atom -5573.848802 kJ/mol
# Density = 1.516587 g / cm^3
# Si number density = 15.200469 Si / 1000 Ang^3
#
#
#
# Elastic Constant Matrix: (Units=GPa)
#
#
# Indices 1 2 3 4 5 6 
#
# 1 94.9478 45.7455 43.5704 0.0000 0.0000 0.0000
# 2 45.7455 99.8454 33.9792 0.0000 0.0000 0.0000
# 3 43.5704 33.9792 50.5596 0.0000 0.0000 0.0000
# 4 0.0000 0.0000 0.0000 17.1702 0.0000 0.0000
# 5 0.0000 0.0000 0.0000 0.0000 24.8205 0.0000
# 6 0.0000 0.0000 0.0000 0.0000 0.0000 15.3087
#
#
#
# Elastic Compliance Matrix: (Units=1/GPa)
#
#
# Indices 1 2 3 4 5 6 
#
# 1 0.018560 -0.003968 -0.013327 0.000000 0.000000 0.000000
# 2 -0.003968 0.013834 -0.005878 0.000000 0.000000 0.000000
# 3 -0.013327 -0.005878 0.035214 0.000000 0.000000 0.000000
# 4 0.000000 0.000000 0.000000 0.058240 0.000000 0.000000
# 5 0.000000 0.000000 0.000000 0.000000 0.040289 0.000000
# 6 0.000000 0.000000 0.000000 0.000000 0.000000 0.065322
#
#
# Mechanical properties :
#
#
# Convention : Reuss Voigt Hill
#
# Bulk Modulus (GPa) = 47.03389 54.66034 50.84712
# Shear Modulus (GPa) = 17.55051 19.59706 18.57378
#
# Velocity S-wave (km/s) = 3.40163 3.59449 3.49939
# Velocity P-wave (km/s) = 6.81452 7.29828 7.06054
#
# Compressibility (1/GPa) = 0.02126127
#
# Stress axis : x y z
#
# Youngs Moduli (GPa) = 53.88074 72.28723 28.39792
#
# Poissons Ratio (x) = 0.28682 0.37847
# Poissons Ratio (y) = 0.21379 0.16692
# Poissons Ratio (z) = 0.71808 0.42489
#
# Static dielectric constant tensor:
#      x y z
#    x 1.526040 0.000000 0.000000 
#    y 0.000000 1.500990 0.000000 
#    z 0.000000 0.000000 1.503350 
# 
# From -- ./inp_files/33754.got.cif
#   From: 2010.05.17/outbox.cif.g08.bks.cpg/sg64_17_cif.got.tgz:33754.got - 2010.06.03 16:29:19.
