data_PCOD9476119
_publ_section_title
;
Structure prediction by ZEFSAII (Michael W. Deem and Ramdas Pophale) SiO2 
 PCOD9476119
Probable space group: C M C M
;
_chemical_formula_sum "Si O2"
_cell_formula_units_Z 48
_cell_length_a 9.000000
_cell_length_b 21.000000
_cell_length_c 27.000000
_cell_angle_alpha 90.000000
_cell_angle_beta 90.000000
_cell_angle_gamma 90.000000
_cell_volume 5103.000000
_symmetry_space_group_name_H-M "C M C M"
_symmetry_group_IT_number 63
_symmetry_cell_setting 'orthorhombic'
loop_
_space_group_symop_operation_xyz
x,y,z
-x,-y,1/2+z
x,-y,-z
-x,y,1/2-z
-x,-y,-z
x,y,1/2-z
-x,y,z
x,-y,1/2+z
1/2+x,1/2+y,z
1/2-x,1/2-y,1/2+z
1/2+x,1/2-y,-z
1/2-x,1/2+y,1/2-z
1/2-x,1/2-y,-z
1/2+x,1/2+y,1/2-z
1/2-x,1/2+y,z
1/2+x,1/2-y,1/2+z
loop_
_atom_site_type_symbol
_atom_site_label
_atom_site_fract_x
_atom_site_fract_y
_atom_site_fract_z
Si Si1 0.821733 0.523608 0.694561
Si Si2 0.177441 0.845336 0.336347
Si Si3 0.320060 0.090871 0.376979
Si Si4 0.824175 0.838499 0.962023
Si Si5 0.819698 0.705110 0.195557
Si Si6 0.825125 0.692208 0.564552
O O1 0.787080 0.499330 0.750000
O O2 0.748706 0.592287 0.687246
O O3 0.777765 0.472940 0.652492
O O4 0.000000 0.530377 0.691447
O O5 0.229338 0.777485 0.314027
O O6 0.228906 0.840001 0.392934
O O7 0.000000 0.848789 0.331654
O O8 0.500000 0.091197 0.383209
O O9 0.238396 0.105134 0.428167
O O10 0.276623 0.151533 0.343239
O O11 0.801893 0.768851 0.936447
O O12 0.000000 0.844795 0.971407
O O13 0.731146 0.833615 0.012209
O O14 0.771844 0.685099 0.250000
O O15 0.000000 0.706815 0.194336
O O16 0.000000 0.680320 0.571849
#
# Coordination Sequence:
#
# PCOD9476119 Si02
#       6
#    16  16  16  16  16  16
#     4  10  22  39  58  81 114 156 195 232 279 336
#     4  11  21  35  57  84 115 149 189 236 286 336
#     4  10  19  35  58  82 111 149 192 233 278 334
#     4  10  20  34  56  86 118 147 182 231 288 339
#     4   9  17  30  52  81 108 138 184 235 277 324
#     4  10  20  35  57  84 116 150 187 229 282 343
#
# _framework density 9.4062319999999993
#
# number of rings (size 3 to 8) (size 9 to 14) (size 15 to 20)
#    0.000    2.000    1.667    2.500    0.000    5.000 
#    0.000    0.833    0.000    7.500    0.000    0.000 
#    0.000    0.000    0.000    0.000    0.000    0.000 
#
# Total GULP energy -267806.774574 kJ/mol
# GULP energy per Si atom -5579.307804 kJ/mol
# Density = 0.938482 g / cm^3
# Si number density = 9.406232 Si / 1000 Ang^3
#
#
#
# Elastic Constant Matrix: (Units=GPa)
#
#
# Indices 1 2 3 4 5 6 
#
# 1 0.9894 0.1502 -9.6043 0.0000 0.0000 0.0000
# 2 0.1502 36.9875 -10.5391 0.0000 0.0000 0.0000
# 3 -9.6043 -10.5391 30.1844 0.0000 0.0000 0.0000
# 4 0.0000 0.0000 0.0000 3.1241 0.0000 0.0000
# 5 0.0000 0.0000 0.0000 0.0000 19.8232 0.0000
# 6 0.0000 0.0000 0.0000 0.0000 0.0000 27.4813
#
#
#
# Elastic Compliance Matrix: (Units=1/GPa)
#
#
# Indices 1 2 3 4 5 6 
#
# 1 -0.421127 -0.040500 -0.148137 0.000000 0.000000 0.000000
# 2 -0.040500 0.026128 -0.003764 0.000000 0.000000 0.000000
# 3 -0.148137 -0.003764 -0.015320 0.000000 0.000000 0.000000
# 4 0.000000 0.000000 0.000000 0.320092 0.000000 0.000000
# 5 0.000000 0.000000 0.000000 0.000000 0.050446 0.000000
# 6 0.000000 0.000000 0.000000 0.000000 0.000000 0.036388
#
#
# Mechanical properties :
#
#
# Convention : Reuss Voigt Hill
#
# Bulk Modulus (GPa) = -1.25767 3.13056 0.93645
# Shear Modulus (GPa) = 42.96648 15.96269 29.46459
#
# Velocity S-wave (km/s) = 4.78424 2.91609 3.96185
# Velocity P-wave (km/s) = 5.46339 3.60636 4.62895
#
# Compressibility (1/GPa) = -0.79511991
#
# Stress axis : x y z
#
# Youngs Moduli (GPa) = -2.37458 38.27289 -65.27540
#
# Poissons Ratio (x) = 1.55004 -9.66973
# Poissons Ratio (y) = -0.09617 -0.24568
# Poissons Ratio (z) = -0.35176 0.14405
#
# Static dielectric constant tensor:
#      x y z
#    x 1.621330 0.000000 0.000000 
#    y 0.000000 1.636870 0.000000 
#    z 0.000000 0.000000 1.689160 
# 
# From -- ./inp_files/66866.got.cif
#   From: 2010.05.17/outbox.ucp.g08.bks.cvg/sg63_34_cif.got.tgz:66866.got - 2010.06.11 16:32:19.
