data_PCOD9476195
_publ_section_title
;
Structure prediction by ZEFSAII (Michael W. Deem and Ramdas Pophale) SiO2 
 PCOD9476195
Probable space group: C M C M
;
_chemical_formula_sum "Si O2"
_cell_formula_units_Z 56
_cell_length_a 27.000000
_cell_length_b 15.000000
_cell_length_c 15.000000
_cell_angle_alpha 90.000000
_cell_angle_beta 90.000000
_cell_angle_gamma 90.000000
_cell_volume 6075.000000
_symmetry_space_group_name_H-M "C M C M"
_symmetry_group_IT_number 63
_symmetry_cell_setting 'orthorhombic'
loop_
_space_group_symop_operation_xyz
x,y,z
-x,-y,1/2+z
x,-y,-z
-x,y,1/2-z
-x,-y,-z
x,y,1/2-z
-x,y,z
x,-y,1/2+z
1/2+x,1/2+y,z
1/2-x,1/2-y,1/2+z
1/2+x,1/2-y,-z
1/2-x,1/2+y,1/2-z
1/2-x,1/2-y,-z
1/2+x,1/2+y,1/2-z
1/2-x,1/2+y,z
1/2+x,1/2-y,1/2+z
loop_
_atom_site_type_symbol
_atom_site_label
_atom_site_fract_x
_atom_site_fract_y
_atom_site_fract_z
Si Si1 0.291969 0.812627 0.146331
Si Si2 0.263906 0.871645 0.858380
Si Si3 0.059436 0.115287 0.350937
Si Si4 0.404605 0.585224 0.857668
Si Si5 0.204923 0.043994 0.645167
Si Si6 0.642546 0.891734 0.989120
Si Si7 0.559452 0.741569 0.515101
O O1 0.308799 0.811213 0.250000
O O2 0.268525 0.716542 0.123862
O O3 0.245616 0.879651 0.139888
O O4 0.332534 0.850891 0.078729
O O5 0.272116 0.876940 0.750000
O O6 0.315972 0.875833 0.911341
O O7 0.230270 0.954604 0.890502
O O8 0.078880 0.131846 0.250000
O O9 0.074592 0.188773 0.423765
O O10 0.000000 0.119117 0.347814
O O11 0.073151 0.013360 0.375646
O O12 0.407056 0.599305 0.750000
O O13 0.347635 0.577107 0.889921
O O14 0.430248 0.667249 0.908301
O O15 0.195232 0.024706 0.750000
O O16 0.593592 0.830053 0.972774
O O17 0.634459 0.000000 0.000000
O O18 0.500000 0.760767 0.512234
#
# Coordination Sequence:
#
# PCOD9476195 Si02
#       7
#    16  16  16  16  16  16  16
#     4  10  21  39  61  86 120 159 199 243 299 360
#     4  10  21  39  62  89 124 159 196 243 295 360
#     4   9  19  38  62  87 119 157 199 251 309 367
#     4  10  20  36  62  94 127 160 192 233 303 380
#     4   9  18  34  56  88 123 155 187 231 289 355
#     4  12  25  41  62  87 115 161 214 256 303 348
#     4  11  25  42  60  87 120 158 209 262 308 354
#
# _framework density 9.2181069999999998
#
# number of rings (size 3 to 8) (size 9 to 14) (size 15 to 20)
#    0.000    1.857    1.429    2.143    2.000    4.571 
#    2.571    0.000    0.000    0.000    0.000    4.000 
#    0.000    0.000    0.000    0.000    0.000    0.000 
#
# Total GULP energy -312653.043451 kJ/mol
# GULP energy per Si atom -5583.090062 kJ/mol
# Density = 0.919713 g / cm^3
# Si number density = 9.218107 Si / 1000 Ang^3
#
#
#
# Elastic Constant Matrix: (Units=GPa)
#
#
# Indices 1 2 3 4 5 6 
#
# 1 89.6278 46.1674 29.2947 0.0000 0.0000 0.0000
# 2 46.1674 138.5601 35.9116 0.0000 0.0000 0.0000
# 3 29.2947 35.9116 62.3455 0.0000 0.0000 0.0000
# 4 0.0000 0.0000 0.0000 16.5278 0.0000 0.0000
# 5 0.0000 0.0000 0.0000 0.0000 27.1984 0.0000
# 6 0.0000 0.0000 0.0000 0.0000 0.0000 34.4242
#
#
#
# Elastic Compliance Matrix: (Units=1/GPa)
#
#
# Indices 1 2 3 4 5 6 
#
# 1 0.014581 -0.003624 -0.004764 0.000000 0.000000 0.000000
# 2 -0.003624 0.009384 -0.003703 0.000000 0.000000 0.000000
# 3 -0.004764 -0.003703 0.020411 0.000000 0.000000 0.000000
# 4 0.000000 0.000000 0.000000 0.060504 0.000000 0.000000
# 5 0.000000 0.000000 0.000000 0.000000 0.036767 0.000000
# 6 0.000000 0.000000 0.000000 0.000000 0.000000 0.029049
#
#
# Mechanical properties :
#
#
# Convention : Reuss Voigt Hill
#
# Bulk Modulus (GPa) = 49.51627 57.03118 53.27373
# Shear Modulus (GPa) = 24.80054 27.57406 26.18730
#
# Velocity S-wave (km/s) = 3.67169 3.87155 3.77294
# Velocity P-wave (km/s) = 6.70011 7.14050 6.92381
#
# Compressibility (1/GPa) = 0.02019538
#
# Stress axis : x y z
#
# Youngs Moduli (GPa) = 68.58312 106.56351 48.99333
#
# Poissons Ratio (x) = 0.38614 0.23340
# Poissons Ratio (y) = 0.24851 0.18141
# Poissons Ratio (z) = 0.32673 0.39457
#
# Static dielectric constant tensor:
#      x y z
#    x 1.633450 0.000000 0.000000 
#    y 0.000000 1.634890 0.000000 
#    z 0.000000 0.000000 1.684580 
# 
# From -- ./inp_files/36863.got.cif
#   From: 2010.05.17/outbox.ucp.g08.bks.cvg/sg63_19_cif.got.tgz:36863.got - 2010.06.11 16:32:19.
