data_PCOD9476405
_publ_section_title
;
Structure prediction by ZEFSAII (Michael W. Deem and Ramdas Pophale) SiO2 
 PCOD9476405
Probable space group: C M C A
;
_chemical_formula_sum "Si O2"
_cell_formula_units_Z 56
_cell_length_a 11.122323
_cell_length_b 13.875501
_cell_length_c 13.036274
_cell_angle_alpha 90.000000
_cell_angle_beta 90.000000
_cell_angle_gamma 90.000000
_cell_volume 2011.859538
_symmetry_space_group_name_H-M "C M C A"
_symmetry_group_IT_number 64
_symmetry_cell_setting 'orthorhombic'
loop_
_space_group_symop_operation_xyz
x,y,z
-x,1/2-y,1/2+z
x,-y,-z
-x,1/2+y,1/2-z
-x,-y,-z
x,1/2+y,1/2-z
-x,y,z
x,1/2-y,1/2+z
1/2+x,1/2+y,z
1/2-x,-y,1/2+z
1/2+x,1/2-y,-z
1/2-x,y,1/2-z
1/2-x,1/2-y,-z
1/2+x,y,1/2-z
1/2-x,1/2+y,z
1/2+x,-y,1/2+z
loop_
_atom_site_type_symbol
_atom_site_label
_atom_site_fract_x
_atom_site_fract_y
_atom_site_fract_z
Si Si1 0.000000 0.932387 0.725527
Si Si2 0.758731 0.782756 0.373556
Si Si3 0.000000 0.612705 0.877499
Si Si4 0.859735 0.577905 0.415898
Si Si5 0.500000 0.208165 0.655639
O O1 0.000000 0.997879 0.625227
O O2 0.115685 0.956857 0.797483
O O3 0.000000 0.819578 0.695827
O O4 0.750000 0.789146 0.250000
O O5 0.874375 0.841557 0.413007
O O6 0.780051 0.672069 0.402543
O O7 0.623760 0.811440 0.402886
O O8 0.000000 0.643904 0.757323
O O9 0.819035 0.500000 0.500000
O O10 0.000000 0.601589 0.438475
#
# Coordination Sequence:
#
# PCOD9476405 Si02
#       5
#     8  16   8  16   8
#     4  10  17  33  55  89 103 145 191 233 276 329
#     4  10  16  35  53  80 110 146 179 238 282 323
#     4  10  18  30  54  83 108 133 188 232 272 330
#     4   9  16  31  56  83 109 148 192 232 282 343
#     4  10  20  35  51  78 121 144 175 242 289 325
#
# _framework density 27.834945999999999
#
# number of rings (size 3 to 8) (size 9 to 14) (size 15 to 20)
#    0.857    1.429    7.143    0.000    0.000    0.000 
#   15.429    0.714    0.000    6.857   14.857    0.000 
#    0.000    0.000    0.000    0.000    0.000    0.000 
#
# Total GULP energy -156733.114280 kJ/mol
# GULP energy per Si atom -5597.611224 kJ/mol
# Density = 2.777159 g / cm^3
# Si number density = 27.834946 Si / 1000 Ang^3
#
#
#
# Elastic Constant Matrix: (Units=GPa)
#
#
# Indices 1 2 3 4 5 6 
#
# 1 214.0590 38.7190 29.7757 0.0000 0.0000 0.0000
# 2 38.7190 120.2854 -0.4788 0.0000 0.0000 0.0000
# 3 29.7757 -0.4788 86.4447 0.0000 0.0000 0.0000
# 4 0.0000 0.0000 0.0000 40.1366 0.0000 0.0000
# 5 0.0000 0.0000 0.0000 0.0000 34.3703 0.0000
# 6 0.0000 0.0000 0.0000 0.0000 0.0000 29.7489
#
#
#
# Elastic Compliance Matrix: (Units=1/GPa)
#
#
# Indices 1 2 3 4 5 6 
#
# 1 0.005229 -0.001690 -0.001811 0.000000 0.000000 0.000000
# 2 -0.001690 0.008860 0.000631 0.000000 0.000000 0.000000
# 3 -0.001811 0.000631 0.012195 0.000000 0.000000 0.000000
# 4 0.000000 0.000000 0.000000 0.024915 0.000000 0.000000
# 5 0.000000 0.000000 0.000000 0.000000 0.029095 0.000000
# 6 0.000000 0.000000 0.000000 0.000000 0.000000 0.033615
#
#
# Mechanical properties :
#
#
# Convention : Reuss Voigt Hill
#
# Bulk Modulus (GPa) = 48.67284 61.86900 55.27092
# Shear Modulus (GPa) = 39.52661 44.36935 41.94798
#
# Velocity S-wave (km/s) = 3.77242 3.99684 3.88625
# Velocity P-wave (km/s) = 6.04145 6.60114 6.32749
#
# Compressibility (1/GPa) = 0.02054534
#
# Stress axis : x y z
#
# Youngs Moduli (GPa) = 191.23279 112.86400 81.99923
#
# Poissons Ratio (x) = 0.19079 0.14846
# Poissons Ratio (y) = 0.32327 -0.05177
# Poissons Ratio (z) = 0.34624 -0.07126
#
# Static dielectric constant tensor:
#      x y z
#    x 2.122540 0.000000 0.000000 
#    y 0.000000 2.120500 0.000000 
#    z 0.000000 0.000000 2.245900 
# 
# From -- ./inp_files/30577.got.cif
#   From: 2010.05.17/outbox.cif.g08.bks.cpg/sg64_16_cif.got.tgz:30577.got - 2010.06.03 16:29:19.
