data_PCOD9476926
_publ_section_title
;
Structure prediction by ZEFSAII (Michael W. Deem and Ramdas Pophale) SiO2 
 PCOD9476926
Probable space group: C M C A
;
_chemical_formula_sum "Si O2"
_cell_formula_units_Z 104
_cell_length_a 19.682358
_cell_length_b 18.330686
_cell_length_c 15.633814
_cell_angle_alpha 90.000000
_cell_angle_beta 90.000000
_cell_angle_gamma 90.000000
_cell_volume 5640.541329
_symmetry_space_group_name_H-M "C M C A"
_symmetry_group_IT_number 64
_symmetry_cell_setting 'orthorhombic'
loop_
_space_group_symop_operation_xyz
x,y,z
-x,1/2-y,1/2+z
x,-y,-z
-x,1/2+y,1/2-z
-x,-y,-z
x,1/2+y,1/2-z
-x,y,z
x,1/2-y,1/2+z
1/2+x,1/2+y,z
1/2-x,-y,1/2+z
1/2+x,1/2-y,-z
1/2-x,y,1/2-z
1/2-x,1/2-y,-z
1/2+x,y,1/2-z
1/2-x,1/2+y,z
1/2+x,-y,1/2+z
loop_
_atom_site_type_symbol
_atom_site_label
_atom_site_fract_x
_atom_site_fract_y
_atom_site_fract_z
Si Si1 0.201548 0.084970 0.498739
Si Si2 0.170873 0.928733 0.124020
Si Si3 0.250000 0.841922 0.250000
Si Si4 0.643317 0.239718 0.303089
Si Si5 0.078662 0.702547 0.627065
Si Si6 0.077634 0.808331 0.464294
Si Si7 0.209264 0.586031 0.335620
O O1 0.265446 0.090020 0.563178
O O2 0.136684 0.132118 0.523995
O O3 0.234222 0.104814 0.407141
O O4 0.181722 0.000000 0.500000
O O5 0.193277 0.895907 0.214883
O O6 0.107784 0.877324 0.102521
O O7 0.167353 0.015870 0.129958
O O8 0.287324 0.786892 0.185398
O O9 0.617240 0.260462 0.207941
O O10 0.591855 0.266331 0.375644
O O11 0.662937 0.155617 0.315050
O O12 0.085197 0.753263 0.543984
O O13 0.000000 0.696502 0.650758
O O14 0.000000 0.836696 0.465010
O O15 0.250000 0.565185 0.250000
#
# Coordination Sequence:
#
# PCOD9476926 Si02
#       7
#    16  16   8  16  16  16  16
#     4  10  22  36  57  87 118 145 191 242 287 345
#     4  10  20  37  57  83 116 147 187 236 286 343
#     4  10  18  32  58  86 110 142 184 232 282 326
#     4  11  21  36  60  87 113 150 190 238 289 340
#     4  10  23  40  58  84 116 153 198 240 282 345
#     4  11  23  39  59  82 116 158 195 235 288 346
#     4  11  21  34  56  90 117 144 184 241 296 339
#
# _framework density 18.437947000000001
#
# number of rings (size 3 to 8) (size 9 to 14) (size 15 to 20)
#    0.000    1.538    3.077    2.308    2.154    1.538 
#    0.000    1.538    0.000    8.769    0.000    0.000 
#    0.000    0.000    0.000    0.000    0.000    0.000 
#
# Total GULP energy -289890.165095 kJ/mol
# GULP energy per Si atom -5574.810867 kJ/mol
# Density = 1.839598 g / cm^3
# Si number density = 18.437947 Si / 1000 Ang^3
#
#
#
# Elastic Constant Matrix: (Units=GPa)
#
#
# Indices 1 2 3 4 5 6 
#
# 1 84.5727 64.7127 22.3763 0.0000 0.0000 0.0000
# 2 64.7127 107.5842 30.2575 0.0000 0.0000 0.0000
# 3 22.3763 30.2575 73.8494 0.0000 0.0000 0.0000
# 4 0.0000 0.0000 0.0000 21.0511 0.0000 0.0000
# 5 0.0000 0.0000 0.0000 0.0000 26.5469 0.0000
# 6 0.0000 0.0000 0.0000 0.0000 0.0000 16.9305
#
#
#
# Elastic Compliance Matrix: (Units=1/GPa)
#
#
# Indices 1 2 3 4 5 6 
#
# 1 0.022036 -0.012859 -0.001408 0.000000 0.000000 0.000000
# 2 -0.012859 0.018009 -0.003483 0.000000 0.000000 0.000000
# 3 -0.001408 -0.003483 0.015395 0.000000 0.000000 0.000000
# 4 0.000000 0.000000 0.000000 0.047503 0.000000 0.000000
# 5 0.000000 0.000000 0.000000 0.000000 0.037669 0.000000
# 6 0.000000 0.000000 0.000000 0.000000 0.000000 0.059065
#
#
# Mechanical properties :
#
#
# Convention : Reuss Voigt Hill
#
# Bulk Modulus (GPa) = 50.14925 55.63328 52.89126
# Shear Modulus (GPa) = 20.67627 22.81635 21.74631
#
# Velocity S-wave (km/s) = 3.35236 3.52158 3.43801
# Velocity P-wave (km/s) = 6.49942 6.83916 6.67145
#
# Compressibility (1/GPa) = 0.01994048
#
# Stress axis : x y z
#
# Youngs Moduli (GPa) = 45.38066 55.52774 64.95761
#
# Poissons Ratio (x) = 0.71401 0.09149
# Poissons Ratio (y) = 0.58353 0.22622
# Poissons Ratio (z) = 0.06391 0.19338
#
# Static dielectric constant tensor:
#      x y z
#    x 1.640200 0.000000 0.000000 
#    y 0.000000 1.633180 0.000000 
#    z 0.000000 0.000000 1.695970 
# 
# From -- ./inp_files/26545.got.cif
#   From: 2010.05.17/outbox.cif.g08.bks.cpg/sg64_14_cif.got.tgz:26545.got - 2010.06.03 16:29:19.
