data_PCOD9476969
_publ_section_title
;
Structure prediction by ZEFSAII (Michael W. Deem and Ramdas Pophale) SiO2 
 PCOD9476969
Probable space group: C M C A
;
_chemical_formula_sum "Si O2"
_cell_formula_units_Z 80
_cell_length_a 24.036619
_cell_length_b 11.267472
_cell_length_c 12.524601
_cell_angle_alpha 90.000000
_cell_angle_beta 90.000000
_cell_angle_gamma 90.000000
_cell_volume 3392.061881
_symmetry_space_group_name_H-M "C M C A"
_symmetry_group_IT_number 64
_symmetry_cell_setting 'orthorhombic'
loop_
_space_group_symop_operation_xyz
x,y,z
-x,1/2-y,1/2+z
x,-y,-z
-x,1/2+y,1/2-z
-x,-y,-z
x,1/2+y,1/2-z
-x,y,z
x,1/2-y,1/2+z
1/2+x,1/2+y,z
1/2-x,-y,1/2+z
1/2+x,1/2-y,-z
1/2-x,y,1/2-z
1/2-x,1/2-y,-z
1/2+x,y,1/2-z
1/2-x,1/2+y,z
1/2+x,-y,1/2+z
loop_
_atom_site_type_symbol
_atom_site_label
_atom_site_fract_x
_atom_site_fract_y
_atom_site_fract_z
Si Si1 0.872290 0.250093 0.082530
Si Si2 0.937936 0.111693 0.419095
Si Si3 0.834883 0.500662 0.663183
Si Si4 0.211944 0.052662 0.612603
Si Si5 0.563541 0.907292 0.246091
O O1 0.857357 0.114527 0.102420
O O2 0.816140 0.319298 0.116252
O O3 0.919399 0.304008 0.162694
O O4 0.893752 0.297267 0.967854
O O5 0.931443 0.038804 0.309170
O O6 0.000000 0.164864 0.420666
O O7 0.938010 0.000000 0.500000
O O8 0.813374 0.481419 0.786519
O O9 0.778385 0.553873 0.615080
O O10 0.887109 0.588213 0.669491
O O11 0.193743 0.000000 0.500000
O O12 0.500000 0.893627 0.279731
#
# Coordination Sequence:
#
# PCOD9476969 Si02
#       5
#    16  16  16  16  16
#     4  10  18  33  56  82 114 144 185 242 291 341
#     4   8  14  28  53  81 106 140 182 223 276 338
#     4  10  22  35  57  89 112 146 200 245 291 352
#     4  10  22  41  59  80 114 154 195 246 301 354
#     4   9  18  34  56  83 118 153 186 230 284 347
#
# _framework density 23.584475999999999
#
# number of rings (size 3 to 8) (size 9 to 14) (size 15 to 20)
#    0.000    2.600    0.000    4.800    0.000    8.800 
#    0.000    6.000    0.000    0.600    0.000    0.000 
#    0.000    0.000    0.000    0.000    0.000    0.000 
#
# Total GULP energy -223205.119365 kJ/mol
# GULP energy per Si atom -5580.127984 kJ/mol
# Density = 2.353080 g / cm^3
# Si number density = 23.584476 Si / 1000 Ang^3
#
#
#
# Elastic Constant Matrix: (Units=GPa)
#
#
# Indices 1 2 3 4 5 6 
#
# 1 217.5812 48.7591 21.6613 0.0000 0.0000 0.0000
# 2 48.7591 78.6315 38.8819 0.0000 0.0000 0.0000
# 3 21.6613 38.8819 64.6646 0.0000 0.0000 0.0000
# 4 0.0000 0.0000 0.0000 29.1921 0.0000 0.0000
# 5 0.0000 0.0000 0.0000 0.0000 20.8539 0.0000
# 6 0.0000 0.0000 0.0000 0.0000 0.0000 -13.6521
#
#
#
# Elastic Compliance Matrix: (Units=1/GPa)
#
#
# Indices 1 2 3 4 5 6 
#
# 1 0.005341 -0.003455 0.000288 0.000000 0.000000 0.000000
# 2 -0.003455 0.020333 -0.011069 0.000000 0.000000 0.000000
# 3 0.000288 -0.011069 0.022023 0.000000 0.000000 0.000000
# 4 0.000000 0.000000 0.000000 0.034256 0.000000 0.000000
# 5 0.000000 0.000000 0.000000 0.000000 0.047953 0.000000
# 6 0.000000 0.000000 0.000000 0.000000 0.000000 -0.073249
#
#
# Mechanical properties :
#
#
# Convention : Reuss Voigt Hill
#
# Bulk Modulus (GPa) = 52.00991 64.38690 58.19840
# Shear Modulus (GPa) = 54.62247 24.05046 39.33646
#
# Velocity S-wave (km/s) = 4.81774 3.19683 4.08842
# Velocity P-wave (km/s) = 7.28340 6.40204 6.85690
#
# Compressibility (1/GPa) = 0.01922710
#
# Stress axis : x y z
#
# Youngs Moduli (GPa) = 187.21384 49.18103 45.40610
#
# Poissons Ratio (x) = 0.16990 -0.01307
# Poissons Ratio (y) = 0.64675 0.50259
# Poissons Ratio (z) = -0.05390 0.54437
#
# Static dielectric constant tensor:
#      x y z
#    x 1.892270 0.000000 0.000000 
#    y 0.000000 1.865560 0.000000 
#    z 0.000000 0.000000 2.018270 
# 
# From -- ./inp_files/27263.got.cif
#   From: 2010.05.17/outbox.cif.g08.bks.cpg/sg64_14_cif.got.tgz:27263.got - 2010.06.03 16:29:19.
