data_PCOD9476225
_publ_section_title
;
Structure prediction by ZEFSAII (Michael W. Deem and Ramdas Pophale) SiO2 
 PCOD9476225
Probable space group: C M C M
;
_chemical_formula_sum "Si O2"
_cell_formula_units_Z 40
_cell_length_a 9.000000
_cell_length_b 27.000000
_cell_length_c 18.000000
_cell_angle_alpha 90.000000
_cell_angle_beta 90.000000
_cell_angle_gamma 90.000000
_cell_volume 4374.000000
_symmetry_space_group_name_H-M "C M C M"
_symmetry_group_IT_number 63
_symmetry_cell_setting 'orthorhombic'
loop_
_space_group_symop_operation_xyz
x,y,z
-x,-y,1/2+z
x,-y,-z
-x,y,1/2-z
-x,-y,-z
x,y,1/2-z
-x,y,z
x,-y,1/2+z
1/2+x,1/2+y,z
1/2-x,1/2-y,1/2+z
1/2+x,1/2-y,-z
1/2-x,1/2+y,1/2-z
1/2-x,1/2-y,-z
1/2+x,1/2+y,1/2-z
1/2-x,1/2+y,z
1/2+x,1/2-y,1/2+z
loop_
_atom_site_type_symbol
_atom_site_label
_atom_site_fract_x
_atom_site_fract_y
_atom_site_fract_z
Si Si1 0.322927 0.885345 0.064512
Si Si2 0.173739 0.013911 0.588179
Si Si3 0.677946 0.405994 0.906020
Si Si4 0.333742 0.699501 0.162919
Si Si5 0.176120 0.221782 0.929816
O O1 0.500000 0.881603 0.071289
O O2 0.263941 0.935837 0.104192
O O3 0.247936 0.832455 0.084133
O O4 0.271962 0.894935 0.979638
O O5 0.000000 0.024037 0.602626
O O6 0.187876 0.000000 0.500000
O O7 0.215508 0.960878 0.624857
O O8 0.500000 0.408177 0.924435
O O9 0.700473 0.357640 0.856152
O O10 0.342716 0.704138 0.250000
O O11 0.500000 0.710015 0.130810
O O12 0.216884 0.739219 0.133972
O O13 0.000000 0.215980 0.940022
O O14 0.250000 0.250000 0.000000
#
# Coordination Sequence:
#
# PCOD9476225 Si02
#       5
#    16  16  16  16  16
#     4  11  20  30  49  78 107 139 176 224 275 318
#     4   8  15  28  46  71 103 139 172 210 260 314
#     4   9  17  31  51  74 106 142 175 215 266 322
#     4  10  21  37  57  81 110 145 182 221 271 333
#     4  12  23  36  55  79 108 143 184 231 278 327
#
# _framework density 9.1449470000000002
#
# number of rings (size 3 to 8) (size 9 to 14) (size 15 to 20)
#    0.000    2.000    2.000    4.800    0.000    4.000 
#    0.000    0.000    0.000    1.200    0.000    2.800 
#    0.000    0.000    0.000    0.000    0.000    0.000 
#
# Total GULP energy -222825.897313 kJ/mol
# GULP energy per Si atom -5570.647433 kJ/mol
# Density = 0.912413 g / cm^3
# Si number density = 9.144947 Si / 1000 Ang^3
#
#
#
# Elastic Constant Matrix: (Units=GPa)
#
#
# Indices 1 2 3 4 5 6 
#
# 1 123.2133 87.4885 19.0458 0.0000 0.0000 0.0000
# 2 87.4885 196.7719 27.9800 0.0000 0.0000 0.0000
# 3 19.0458 27.9800 32.7221 0.0000 0.0000 0.0000
# 4 0.0000 0.0000 0.0000 12.1095 0.0000 0.0000
# 5 0.0000 0.0000 0.0000 0.0000 12.5076 0.0000
# 6 0.0000 0.0000 0.0000 0.0000 0.0000 38.2547
#
#
#
# Elastic Compliance Matrix: (Units=1/GPa)
#
#
# Indices 1 2 3 4 5 6 
#
# 1 0.012078 -0.004975 -0.002776 0.000000 0.000000 0.000000
# 2 -0.004975 0.007835 -0.003804 0.000000 0.000000 0.000000
# 3 -0.002776 -0.003804 0.035428 0.000000 0.000000 0.000000
# 4 0.000000 0.000000 0.000000 0.082580 0.000000 0.000000
# 5 0.000000 0.000000 0.000000 0.000000 0.079951 0.000000
# 6 0.000000 0.000000 0.000000 0.000000 0.000000 0.026141
#
#
# Mechanical properties :
#
#
# Convention : Reuss Voigt Hill
#
# Bulk Modulus (GPa) = 31.02504 69.08177 50.05341
# Shear Modulus (GPa) = 17.99429 27.12056 22.55742
#
# Velocity S-wave (km/s) = 3.14002 3.85491 3.51569
# Velocity P-wave (km/s) = 5.49054 7.59383 6.62617
#
# Compressibility (1/GPa) = 0.03223203
#
# Stress axis : x y z
#
# Youngs Moduli (GPa) = 82.79628 127.63186 28.22601
#
# Poissons Ratio (x) = 0.63502 0.07834
# Poissons Ratio (y) = 0.41194 0.10736
# Poissons Ratio (z) = 0.22980 0.48547
#
# Static dielectric constant tensor:
#      x y z
#    x 1.677800 0.000000 0.000000 
#    y 0.000000 1.651600 0.000000 
#    z 0.000000 0.000000 1.632570 
# 
# From -- ./inp_files/40540.got.cif
#   From: 2010.05.17/outbox.ucp.g08.bks.cvg/sg63_21_cif.got.tgz:40540.got - 2010.06.11 16:32:19.
