data_PCOD9476097
_publ_section_title
;
Structure prediction by ZEFSAII (Michael W. Deem and Ramdas Pophale) SiO2 
 PCOD9476097
Probable space group: C M C M
;
_chemical_formula_sum "Si O2"
_cell_formula_units_Z 48
_cell_length_a 27.000000
_cell_length_b 21.000000
_cell_length_c 9.000000
_cell_angle_alpha 90.000000
_cell_angle_beta 90.000000
_cell_angle_gamma 90.000000
_cell_volume 5103.000000
_symmetry_space_group_name_H-M "C M C M"
_symmetry_group_IT_number 63
_symmetry_cell_setting 'orthorhombic'
loop_
_space_group_symop_operation_xyz
x,y,z
-x,-y,1/2+z
x,-y,-z
-x,y,1/2-z
-x,-y,-z
x,y,1/2-z
-x,y,z
x,-y,1/2+z
1/2+x,1/2+y,z
1/2-x,1/2-y,1/2+z
1/2+x,1/2-y,-z
1/2-x,1/2+y,1/2-z
1/2-x,1/2-y,-z
1/2+x,1/2+y,1/2-z
1/2-x,1/2+y,z
1/2+x,1/2-y,1/2+z
loop_
_atom_site_type_symbol
_atom_site_label
_atom_site_fract_x
_atom_site_fract_y
_atom_site_fract_z
Si Si1 0.231708 0.685124 0.928169
Si Si2 0.054357 0.202066 0.430247
Si Si3 0.381623 0.180533 0.929591
Si Si4 0.091695 0.064573 0.070722
Si Si5 0.440893 0.933733 0.925048
Si Si6 0.700757 0.564402 0.570874
O O1 0.232532 0.692182 0.750000
O O2 0.175221 0.673361 0.973951
O O3 0.266351 0.625543 0.965580
O O4 0.250000 0.750000 0.000000
O O5 0.054703 0.202900 0.250000
O O6 0.096273 0.251322 0.478667
O O7 0.063723 0.129133 0.471950
O O8 0.000000 0.223503 0.480388
O O9 0.384634 0.177443 0.750000
O O10 0.414020 0.124878 0.998352
O O11 0.093336 0.059278 0.250000
O O12 0.146944 0.071266 0.004276
O O13 0.070469 0.000000 0.000000
O O14 0.430587 0.935403 0.750000
O O15 0.500000 0.927317 0.945771
O O16 0.425373 0.000000 0.000000
O O17 0.722649 0.500000 0.500000
O O18 0.696209 0.558429 0.750000
#
# Coordination Sequence:
#
# PCOD9476097 Si02
#       6
#    16  16  16  16  16  16
#     4  10  22  37  55  81 110 142 181 223 267 319
#     4   9  18  32  52  77 104 137 175 214 259 312
#     4  10  20  36  57  80 107 140 181 225 268 317
#     4  10  19  33  54  78 105 137 175 215 258 311
#     4  10  21  37  57  82 111 143 179 219 267 323
#     4  10  20  35  54  77 106 138 175 216 261 312
#
# _framework density 9.4062319999999993
#
# number of rings (size 3 to 8) (size 9 to 14) (size 15 to 20)
#    0.000    2.167    0.000    4.000    0.000    6.000 
#    0.000    3.333    0.000    3.500    0.000    0.000 
#    0.000    0.000    0.000    0.000    0.000    0.000 
#
# Total GULP energy -267901.943321 kJ/mol
# GULP energy per Si atom -5581.290486 kJ/mol
# Density = 0.938482 g / cm^3
# Si number density = 9.406232 Si / 1000 Ang^3
#
#
#
# Elastic Constant Matrix: (Units=GPa)
#
#
# Indices 1 2 3 4 5 6 
#
# 1 33.4742 17.0323 13.7519 0.0000 0.0000 0.0000
# 2 17.0323 98.3510 20.0072 0.0000 0.0000 0.0000
# 3 13.7519 20.0072 31.5579 0.0000 0.0000 0.0000
# 4 0.0000 0.0000 0.0000 34.2052 0.0000 0.0000
# 5 0.0000 0.0000 0.0000 0.0000 9.3623 0.0000
# 6 0.0000 0.0000 0.0000 0.0000 0.0000 35.0599
#
#
#
# Elastic Compliance Matrix: (Units=1/GPa)
#
#
# Indices 1 2 3 4 5 6 
#
# 1 0.037489 -0.003638 -0.014030 0.000000 0.000000 0.000000
# 2 -0.003638 0.012026 -0.006039 0.000000 0.000000 0.000000
# 3 -0.014030 -0.006039 0.041630 0.000000 0.000000 0.000000
# 4 0.000000 0.000000 0.000000 0.029235 0.000000 0.000000
# 5 0.000000 0.000000 0.000000 0.000000 0.106811 0.000000
# 6 0.000000 0.000000 0.000000 0.000000 0.000000 0.028523
#
#
# Mechanical properties :
#
#
# Convention : Reuss Voigt Hill
#
# Bulk Modulus (GPa) = 22.86707 29.44067 26.15387
# Shear Modulus (GPa) = 15.73787 23.23159 19.48473
#
# Velocity S-wave (km/s) = 2.89548 3.51793 3.22178
# Velocity P-wave (km/s) = 4.83323 5.67315 5.26995
#
# Compressibility (1/GPa) = 0.04373101
#
# Stress axis : x y z
#
# Youngs Moduli (GPa) = 26.67471 83.15167 24.02105
#
# Poissons Ratio (x) = 0.30252 0.33701
# Poissons Ratio (y) = 0.09705 0.14506
# Poissons Ratio (z) = 0.37424 0.50215
#
# Static dielectric constant tensor:
#      x y z
#    x 1.646830 0.000000 0.000000 
#    y 0.000000 1.643330 0.000000 
#    z 0.000000 0.000000 1.621500 
# 
# From -- ./inp_files/12402.got.cif
#   From: 2010.05.17/outbox.ucp.g08.bks.cvg/sg63_7_cif.got.tgz:12402.got - 2010.06.11 16:32:19.
