data_PCOD9476596
_publ_section_title
;
Structure prediction by ZEFSAII (Michael W. Deem and Ramdas Pophale) SiO2 
 PCOD9476596
Probable space group: C M C A
;
_chemical_formula_sum "Si O2"
_cell_formula_units_Z 88
_cell_length_a 14.237508
_cell_length_b 21.793978
_cell_length_c 16.018277
_cell_angle_alpha 90.000000
_cell_angle_beta 90.000000
_cell_angle_gamma 90.000000
_cell_volume 4970.342184
_symmetry_space_group_name_H-M "C M C A"
_symmetry_group_IT_number 64
_symmetry_cell_setting 'orthorhombic'
loop_
_space_group_symop_operation_xyz
x,y,z
-x,1/2-y,1/2+z
x,-y,-z
-x,1/2+y,1/2-z
-x,-y,-z
x,1/2+y,1/2-z
-x,y,z
x,1/2-y,1/2+z
1/2+x,1/2+y,z
1/2-x,-y,1/2+z
1/2+x,1/2-y,-z
1/2-x,y,1/2-z
1/2-x,1/2-y,-z
1/2+x,y,1/2-z
1/2-x,1/2+y,z
1/2+x,-y,1/2+z
loop_
_atom_site_type_symbol
_atom_site_label
_atom_site_fract_x
_atom_site_fract_y
_atom_site_fract_z
Si Si1 0.000000 0.213340 0.495731
Si Si2 0.607415 0.035538 0.392553
Si Si3 0.288383 0.318905 0.514748
Si Si4 0.500000 0.247671 0.310305
Si Si5 0.827459 0.845620 0.819304
Si Si6 0.500000 0.824569 0.362149
Si Si7 0.663569 0.909674 0.427064
O O1 0.900521 0.181445 0.475759
O O2 0.000000 0.224261 0.595929
O O3 0.000000 0.274716 0.438048
O O4 0.500000 0.013849 0.388002
O O5 0.626493 0.087353 0.324562
O O6 0.621073 0.069127 0.482527
O O7 0.674106 0.976318 0.385094
O O8 0.250000 0.250000 0.500000
O O9 0.231635 0.337582 0.596486
O O10 0.253647 0.367359 0.445057
O O11 0.591950 0.204723 0.308235
O O12 0.500000 0.291863 0.228782
O O13 0.750000 0.839894 0.750000
O O14 0.590389 0.867348 0.377620
#
# Coordination Sequence:
#
# PCOD9476596 Si02
#       7
#     8  16  16   8  16   8  16
#     4  12  22  40  54  85 129 160 191 232 309 370
#     4  10  17  35  63  85 111 151 200 259 291 333
#     4  11  21  36  62  84 120 157 188 244 303 360
#     4  12  24  35  60  87 121 158 200 246 298 368
#     4  11  23  38  56  87 118 156 201 242 300 361
#     4  12  20  32  60  92 122 156 197 245 297 362
#     4  10  19  33  60  93 113 145 202 248 297 350
#
# _framework density 17.705017999999999
#
# number of rings (size 3 to 8) (size 9 to 14) (size 15 to 20)
#    0.000    1.091    6.364    2.727    0.000    0.000 
#    0.000    1.818    0.000    9.818    0.000    0.000 
#    0.000    0.000    0.000    0.000    0.000    0.000 
#
# Total GULP energy -245220.506323 kJ/mol
# GULP energy per Si atom -5573.193326 kJ/mol
# Density = 1.766472 g / cm^3
# Si number density = 17.705018 Si / 1000 Ang^3
#
#
#
# Elastic Constant Matrix: (Units=GPa)
#
#
# Indices 1 2 3 4 5 6 
#
# 1 99.6591 48.7635 16.1846 0.0000 0.0000 0.0000
# 2 48.7635 103.1379 34.8040 0.0000 0.0000 0.0000
# 3 16.1846 34.8040 66.5887 0.0000 0.0000 0.0000
# 4 0.0000 0.0000 0.0000 28.8690 0.0000 0.0000
# 5 0.0000 0.0000 0.0000 0.0000 21.5664 0.0000
# 6 0.0000 0.0000 0.0000 0.0000 0.0000 263.9880
#
#
#
# Elastic Compliance Matrix: (Units=1/GPa)
#
#
# Indices 1 2 3 4 5 6 
#
# 1 0.013054 -0.006194 0.000064 0.000000 0.000000 0.000000
# 2 -0.006194 0.014711 -0.006184 0.000000 0.000000 0.000000
# 3 0.000064 -0.006184 0.018234 0.000000 0.000000 0.000000
# 4 0.000000 0.000000 0.000000 0.034639 0.000000 0.000000
# 5 0.000000 0.000000 0.000000 0.000000 0.046368 0.000000
# 6 0.000000 0.000000 0.000000 0.000000 0.000000 0.003788
#
#
# Mechanical properties :
#
#
# Convention : Reuss Voigt Hill
#
# Bulk Modulus (GPa) = 46.78745 52.09888 49.44316
# Shear Modulus (GPa) = 30.76070 74.19359 52.47715
#
# Velocity S-wave (km/s) = 4.17274 6.48046 5.45014
# Velocity P-wave (km/s) = 7.04976 9.24582 8.22144
#
# Compressibility (1/GPa) = 0.02137325
#
# Stress axis : x y z
#
# Youngs Moduli (GPa) = 76.60248 67.97713 54.84307
#
# Poissons Ratio (x) = 0.42104 -0.00353
# Poissons Ratio (y) = 0.47446 0.33912
# Poissons Ratio (z) = -0.00494 0.42034
#
# Static dielectric constant tensor:
#      x y z
#    x 1.588170 0.000000 0.000000 
#    y 0.000000 1.641470 0.000000 
#    z 0.000000 0.000000 1.604000 
# 
# From -- ./inp_files/32339.got.cif
#   From: 2010.05.17/outbox.cif.g08.bks.cpg/sg64_17_cif.got.tgz:32339.got - 2010.06.03 16:29:19.
