data_PCOD9476789
_publ_section_title
;
Structure prediction by ZEFSAII (Michael W. Deem and Ramdas Pophale) SiO2 
 PCOD9476789
Probable space group: C M C A
;
_chemical_formula_sum "Si O2"
_cell_formula_units_Z 112
_cell_length_a 18.524141
_cell_length_b 15.618664
_cell_length_c 21.478335
_cell_angle_alpha 90.000000
_cell_angle_beta 90.000000
_cell_angle_gamma 90.000000
_cell_volume 6214.162016
_symmetry_space_group_name_H-M "C M C A"
_symmetry_group_IT_number 64
_symmetry_cell_setting 'orthorhombic'
loop_
_space_group_symop_operation_xyz
x,y,z
-x,1/2-y,1/2+z
x,-y,-z
-x,1/2+y,1/2-z
-x,-y,-z
x,1/2+y,1/2-z
-x,y,z
x,1/2-y,1/2+z
1/2+x,1/2+y,z
1/2-x,-y,1/2+z
1/2+x,1/2-y,-z
1/2-x,y,1/2-z
1/2-x,1/2-y,-z
1/2+x,y,1/2-z
1/2-x,1/2+y,z
1/2+x,-y,1/2+z
loop_
_atom_site_type_symbol
_atom_site_label
_atom_site_fract_x
_atom_site_fract_y
_atom_site_fract_z
Si Si1 0.083166 0.119441 0.779628
Si Si2 0.822861 0.282404 0.633853
Si Si3 0.288341 0.913357 0.817968
Si Si4 0.915961 0.818219 0.741749
Si Si5 0.913245 0.635314 0.465383
Si Si6 0.087290 0.051174 0.908548
Si Si7 0.797201 0.101760 0.687275
O O1 0.087601 0.222065 0.786128
O O2 0.115880 0.075068 0.840773
O O3 0.123452 0.094137 0.717294
O O4 0.000000 0.095091 0.774962
O O5 0.755317 0.346252 0.640438
O O6 0.877229 0.308636 0.690827
O O7 0.867132 0.294602 0.570624
O O8 0.795948 0.186146 0.645920
O O9 0.250000 0.914599 0.750000
O O10 0.368510 0.880273 0.801433
O O11 0.282077 0.009973 0.842503
O O12 0.000000 0.842787 0.748405
O O13 0.898523 0.545787 0.429042
O O14 0.890973 0.615609 0.536368
O O15 0.000000 0.650650 0.462973
O O16 0.000000 0.058415 0.906012
O O17 0.750000 0.117205 0.750000
#
# Coordination Sequence:
#
# PCOD9476789 Si02
#       7
#    16  16  16  16  16  16  16
#     4   9  17  29  47  70  96 125 158 198 235 285
#     4  10  18  31  47  69  96 126 158 197 242 288
#     4   9  19  31  44  67  91 128 159 190 240 284
#     4   9  17  29  45  68  95 123 158 194 234 285
#     4   9  17  29  47  72  99 124 157 201 240 285
#     4   8  16  29  45  72  99 123 159 196 241 286
#     4  10  20  32  46  67  98 131 161 194 238 288
#
# _framework density 18.023347999999999
#
# number of rings (size 3 to 8) (size 9 to 14) (size 15 to 20)
#    0.000    2.857    0.000    3.429    6.000    1.143 
#    0.000    0.000    0.000    3.429    0.000    0.000 
#    0.000    4.571    0.000    0.000    0.000    0.000 
#
# Total GULP energy -312201.448597 kJ/mol
# GULP energy per Si atom -5575.025868 kJ/mol
# Density = 1.798233 g / cm^3
# Si number density = 18.023348 Si / 1000 Ang^3
#
#
#
# Elastic Constant Matrix: (Units=GPa)
#
#
# Indices 1 2 3 4 5 6 
#
# 1 65.7762 26.1182 -9.6395 0.0000 0.0000 0.0000
# 2 26.1182 73.0457 12.4031 0.0000 0.0000 0.0000
# 3 -9.6395 12.4031 14.7154 0.0000 0.0000 0.0000
# 4 0.0000 0.0000 0.0000 15.9697 0.0000 0.0000
# 5 0.0000 0.0000 0.0000 0.0000 15.3323 0.0000
# 6 0.0000 0.0000 0.0000 0.0000 0.0000 16.3893
#
#
#
# Elastic Compliance Matrix: (Units=1/GPa)
#
#
# Indices 1 2 3 4 5 6 
#
# 1 0.024553 -0.013433 0.027406 0.000000 0.000000 0.000000
# 2 -0.013433 0.023325 -0.028459 0.000000 0.000000 0.000000
# 3 0.027406 -0.028459 0.109896 0.000000 0.000000 0.000000
# 4 0.000000 0.000000 0.000000 0.062619 0.000000 0.000000
# 5 0.000000 0.000000 0.000000 0.000000 0.065222 0.000000
# 6 0.000000 0.000000 0.000000 0.000000 0.000000 0.061015
#
#
# Mechanical properties :
#
#
# Convention : Reuss Voigt Hill
#
# Bulk Modulus (GPa) = 7.76389 23.47792 15.62090
# Shear Modulus (GPa) = 11.94638 17.84863 14.89750
#
# Velocity S-wave (km/s) = 2.57734 3.15033 2.87813
# Velocity P-wave (km/s) = 3.62959 5.12712 4.44192
#
# Compressibility (1/GPa) = 0.12880145
#
# Stress axis : x y z
#
# Youngs Moduli (GPa) = 40.72791 42.87159 9.09954
#
# Poissons Ratio (x) = 0.57588 -0.24938
# Poissons Ratio (y) = 0.54709 0.25897
# Poissons Ratio (z) = -1.11618 1.22010
#
# Static dielectric constant tensor:
#      x y z
#    x 1.672180 0.000000 0.000000 
#    y 0.000000 1.646000 0.000000 
#    z 0.000000 0.000000 1.602590 
# 
# From -- ./inp_files/40385.got.cif
#   From: 2010.05.17/outbox.cif.g08.bks.cpg/sg64_21_cif.got.tgz:40385.got - 2010.06.03 16:29:19.
