data_PCOD9476233
_publ_section_title
;
Structure prediction by ZEFSAII (Michael W. Deem and Ramdas Pophale) SiO2 
 PCOD9476233
Probable space group: C M C M
;
_chemical_formula_sum "Si O2"
_cell_formula_units_Z 40
_cell_length_a 27.000000
_cell_length_b 18.000000
_cell_length_c 9.000000
_cell_angle_alpha 90.000000
_cell_angle_beta 90.000000
_cell_angle_gamma 90.000000
_cell_volume 4374.000000
_symmetry_space_group_name_H-M "C M C M"
_symmetry_group_IT_number 63
_symmetry_cell_setting 'orthorhombic'
loop_
_space_group_symop_operation_xyz
x,y,z
-x,-y,1/2+z
x,-y,-z
-x,y,1/2-z
-x,-y,-z
x,y,1/2-z
-x,y,z
x,-y,1/2+z
1/2+x,1/2+y,z
1/2-x,1/2-y,1/2+z
1/2+x,1/2-y,-z
1/2-x,1/2+y,1/2-z
1/2-x,1/2-y,-z
1/2+x,1/2+y,1/2-z
1/2-x,1/2+y,z
1/2+x,1/2-y,1/2+z
loop_
_atom_site_type_symbol
_atom_site_label
_atom_site_fract_x
_atom_site_fract_y
_atom_site_fract_z
Si Si1 0.555905 0.825452 0.427085
Si Si2 0.154818 0.418579 0.070898
Si Si3 0.943396 0.163773 0.928030
Si Si4 0.247605 0.668624 0.428717
Si Si5 0.649936 0.580670 0.427879
O O1 0.558598 0.809235 0.250000
O O2 0.500000 0.855665 0.455950
O O3 0.602245 0.878316 0.462215
O O4 0.560678 0.748711 0.516272
O O5 0.160234 0.421999 0.250000
O O6 0.154452 0.500000 0.000000
O O7 0.201122 0.374190 0.001136
O O8 0.938108 0.160083 0.750000
O O9 0.000000 0.138866 0.965487
O O10 0.899333 0.118441 0.005046
O O11 0.241407 0.672505 0.250000
O O12 0.250000 0.750000 0.500000
O O13 0.299990 0.627502 0.458723
O O14 0.655698 0.500000 0.500000
O O15 0.644772 0.575125 0.250000
#
# Coordination Sequence:
#
# PCOD9476233 Si02
#       5
#    16  16  16  16  16
#     4   9  19  37  59  83 114 152 193 236 281 333
#     4  11  23  38  58  85 117 153 192 235 287 341
#     4  10  21  37  59  87 116 148 188 233 281 334
#     4  11  24  41  62  87 115 149 190 235 284 339
#     4  11  24  40  59  84 114 150 189 231 282 336
#
# _framework density 9.1449470000000002
#
# number of rings (size 3 to 8) (size 9 to 14) (size 15 to 20)
#    0.000    1.600    0.000    4.200    0.000   13.200 
#    0.000    0.000    0.000    0.000    0.000    0.000 
#    0.000    0.000    0.000    0.000    0.000    0.000 
#
# Total GULP energy -223510.920449 kJ/mol
# GULP energy per Si atom -5587.773011 kJ/mol
# Density = 0.912413 g / cm^3
# Si number density = 9.144947 Si / 1000 Ang^3
#
#
#
# Elastic Constant Matrix: (Units=GPa)
#
#
# Indices 1 2 3 4 5 6 
#
# 1 213.7851 119.2981 100.8651 0.0000 0.0000 0.0000
# 2 119.2981 150.7007 77.0227 0.0000 0.0000 0.0000
# 3 100.8651 77.0227 99.8552 0.0000 0.0000 0.0000
# 4 0.0000 0.0000 0.0000 37.1707 0.0000 0.0000
# 5 0.0000 0.0000 0.0000 0.0000 36.3878 0.0000
# 6 0.0000 0.0000 0.0000 0.0000 0.0000 20.9803
#
#
#
# Elastic Compliance Matrix: (Units=1/GPa)
#
#
# Indices 1 2 3 4 5 6 
#
# 1 0.010748 -0.004886 -0.007088 0.000000 0.000000 0.000000
# 2 -0.004886 0.013175 -0.005227 0.000000 0.000000 0.000000
# 3 -0.007088 -0.005227 0.021207 0.000000 0.000000 0.000000
# 4 0.000000 0.000000 0.000000 0.026903 0.000000 0.000000
# 5 0.000000 0.000000 0.000000 0.000000 0.027482 0.000000
# 6 0.000000 0.000000 0.000000 0.000000 0.000000 0.047664
#
#
# Mechanical properties :
#
#
# Convention : Reuss Voigt Hill
#
# Bulk Modulus (GPa) = 93.22243 117.63475 105.42859
# Shear Modulus (GPa) = 27.00408 30.05143 28.52776
#
# Velocity S-wave (km/s) = 3.84663 4.05787 3.95366
# Velocity P-wave (km/s) = 8.41479 9.29578 8.86623
#
# Compressibility (1/GPa) = 0.01072703
#
# Stress axis : x y z
#
# Youngs Moduli (GPa) = 93.03746 75.90129 47.15488
#
# Poissons Ratio (x) = 0.37083 0.33426
# Poissons Ratio (y) = 0.45456 0.24649
# Poissons Ratio (z) = 0.65949 0.39676
#
# Static dielectric constant tensor:
#      x y z
#    x 1.622900 0.000000 0.000000 
#    y 0.000000 1.602110 0.000000 
#    z 0.000000 0.000000 1.608200 
# 
# From -- ./inp_files/12062.got.cif
#   From: 2010.05.17/outbox.ucp.g08.bks.cvg/sg63_7_cif.got.tgz:12062.got - 2010.06.11 16:32:19.
