data_PCOD9476728
_publ_section_title
;
Structure prediction by ZEFSAII (Michael W. Deem and Ramdas Pophale) SiO2 
 PCOD9476728
Probable space group: C M C A
;
_chemical_formula_sum "Si O2"
_cell_formula_units_Z 80
_cell_length_a 14.079653
_cell_length_b 5.340844
_cell_length_c 43.363317
_cell_angle_alpha 90.000000
_cell_angle_beta 90.000000
_cell_angle_gamma 90.000000
_cell_volume 3260.801333
_symmetry_space_group_name_H-M "C M C A"
_symmetry_group_IT_number 64
_symmetry_cell_setting 'orthorhombic'
loop_
_space_group_symop_operation_xyz
x,y,z
-x,1/2-y,1/2+z
x,-y,-z
-x,1/2+y,1/2-z
-x,-y,-z
x,1/2+y,1/2-z
-x,y,z
x,1/2-y,1/2+z
1/2+x,1/2+y,z
1/2-x,-y,1/2+z
1/2+x,1/2-y,-z
1/2-x,y,1/2-z
1/2-x,1/2-y,-z
1/2+x,y,1/2-z
1/2-x,1/2+y,z
1/2+x,-y,1/2+z
loop_
_atom_site_type_symbol
_atom_site_label
_atom_site_fract_x
_atom_site_fract_y
_atom_site_fract_z
Si Si1 0.884820 0.046441 0.373201
Si Si2 0.115859 0.447698 0.267776
Si Si3 0.615336 0.045657 0.337106
Si Si4 0.863013 0.593703 0.534425
Si Si5 0.349950 0.095189 0.941279
O O1 0.857915 0.314420 0.359128
O O2 0.839375 0.992987 0.406286
O O3 0.000000 0.043795 0.377423
O O4 0.860177 0.817587 0.350446
O O5 0.143171 0.678404 0.245764
O O6 0.150241 0.497059 0.302462
O O7 0.000000 0.447795 0.268771
O O8 0.500000 0.040828 0.335807
O O9 0.879158 0.500000 0.500000
O O10 0.750947 0.628285 0.541696
O O11 0.900754 0.868614 0.541278
O O12 0.895262 0.369294 0.556670
#
# Coordination Sequence:
#
# PCOD9476728 Si02
#       5
#    16  16  16  16  16
#     4  10  19  30  44  63  92 127 153 174 210 267
#     4   9  15  23  37  56  78 110 153 192 218 244
#     4   9  17  28  40  58  87 123 156 181 214 260
#     4  10  19  33  53  71  88 111 141 186 236 269
#     4  10  18  30  49  70  89 115 148 181 217 269
#
# _framework density 24.533846
#
# number of rings (size 3 to 8) (size 9 to 14) (size 15 to 20)
#    0.000    2.400    0.000    5.400    0.000    4.800 
#    0.000    0.000    0.000    6.600    0.000    0.000 
#    0.000    0.000    0.000  252.000    0.000  112.000 
#
# Total GULP energy -223810.066047 kJ/mol
# GULP energy per Si atom -5595.251651 kJ/mol
# Density = 2.447801 g / cm^3
# Si number density = 24.533846 Si / 1000 Ang^3
#
#
#
# Elastic Constant Matrix: (Units=GPa)
#
#
# Indices 1 2 3 4 5 6 
#
# 1 101.3256 -6.1531 -9.6506 0.0000 0.0000 0.0000
# 2 -6.1531 115.1014 -36.2576 0.0000 0.0000 0.0000
# 3 -9.6506 -36.2576 69.5907 0.0000 0.0000 0.0000
# 4 0.0000 0.0000 0.0000 49.3518 0.0000 0.0000
# 5 0.0000 0.0000 0.0000 0.0000 25.4183 0.0000
# 6 0.0000 0.0000 0.0000 0.0000 0.0000 -14.3528
#
#
#
# Elastic Compliance Matrix: (Units=1/GPa)
#
#
# Indices 1 2 3 4 5 6 
#
# 1 0.010133 0.001178 0.002019 0.000000 0.000000 0.000000
# 2 0.001178 0.010531 0.005650 0.000000 0.000000 0.000000
# 3 0.002019 0.005650 0.017593 0.000000 0.000000 0.000000
# 4 0.000000 0.000000 0.000000 0.020263 0.000000 0.000000
# 5 0.000000 0.000000 0.000000 0.000000 0.039342 0.000000
# 6 0.000000 0.000000 0.000000 0.000000 0.000000 -0.069673
#
#
# Mechanical properties :
#
#
# Convention : Reuss Voigt Hill
#
# Bulk Modulus (GPa) = 17.87321 20.21055 19.04188
# Shear Modulus (GPa) = 171.55074 34.62207 103.08641
#
# Velocity S-wave (km/s) = 8.37114 3.76066 6.48916
# Velocity P-wave (km/s) = 10.03671 5.20697 7.99525
#
# Compressibility (1/GPa) = 0.05594965
#
# Stress axis : x y z
#
# Youngs Moduli (GPa) = 98.68781 94.96038 56.83958
#
# Poissons Ratio (x) = -0.11183 -0.11475
# Poissons Ratio (y) = -0.11622 -0.32114
# Poissons Ratio (z) = -0.19923 -0.53652
#
# Static dielectric constant tensor:
#      x y z
#    x 1.828770 0.000000 0.000000 
#    y 0.000000 1.947030 0.000000 
#    z 0.000000 0.000000 1.866800 
# 
# From -- ./inp_files/53851.got.cif
#   From: 2010.05.17/outbox.cif.g08.bks.cpg/sg64_27_cif.got.tgz:53851.got - 2010.06.03 16:29:19.
