data_PCOD9476445
_publ_section_title
;
Structure prediction by ZEFSAII (Michael W. Deem and Ramdas Pophale) SiO2 
 PCOD9476445
Probable space group: C M C A
;
_chemical_formula_sum "Si O2"
_cell_formula_units_Z 80
_cell_length_a 8.834305
_cell_length_b 17.939491
_cell_length_c 26.995647
_cell_angle_alpha 90.000000
_cell_angle_beta 90.000000
_cell_angle_gamma 90.000000
_cell_volume 4278.349370
_symmetry_space_group_name_H-M "C M C A"
_symmetry_group_IT_number 64
_symmetry_cell_setting 'orthorhombic'
loop_
_space_group_symop_operation_xyz
x,y,z
-x,1/2-y,1/2+z
x,-y,-z
-x,1/2+y,1/2-z
-x,-y,-z
x,1/2+y,1/2-z
-x,y,z
x,1/2-y,1/2+z
1/2+x,1/2+y,z
1/2-x,-y,1/2+z
1/2+x,1/2-y,-z
1/2-x,y,1/2-z
1/2-x,1/2-y,-z
1/2+x,y,1/2-z
1/2-x,1/2+y,z
1/2+x,-y,1/2+z
loop_
_atom_site_type_symbol
_atom_site_label
_atom_site_fract_x
_atom_site_fract_y
_atom_site_fract_z
Si Si1 0.678626 0.412141 0.596980
Si Si2 0.320819 0.168342 0.497584
Si Si3 0.680715 0.081498 0.300409
Si Si4 0.822603 0.591434 0.909107
Si Si5 0.318276 0.914253 0.200811
O O1 0.500000 0.396787 0.600138
O O2 0.749516 0.374469 0.549015
O O3 0.758581 0.386547 0.647811
O O4 0.695948 0.501801 0.591868
O O5 0.500000 0.172326 0.491843
O O6 0.250000 0.250000 0.500000
O O7 0.277505 0.126348 0.548212
O O8 0.500000 0.082613 0.298394
O O9 0.750000 0.115267 0.250000
O O10 0.741062 0.995937 0.300993
O O11 0.788450 0.619912 0.853353
O O12 0.000000 0.606726 0.919562
O O13 0.500000 0.923138 0.205477
O O14 0.250000 0.876693 0.250000
#
# Coordination Sequence:
#
# PCOD9476445 Si02
#       5
#    16  16  16  16  16
#     4  10  20  36  57  81 110 141 175 219 268 315
#     4  12  25  39  56  77 104 140 180 222 269 321
#     4  10  17  27  46  75 109 141 175 214 259 310
#     4   9  19  35  55  80 110 142 175 217 266 313
#     4   9  16  27  46  74 108 141 172 212 261 309
#
# _framework density 18.698801
#
# number of rings (size 3 to 8) (size 9 to 14) (size 15 to 20)
#    0.000    2.000    0.000    7.800    0.000    7.200 
#    0.000    0.000    0.000    1.200    0.000    5.600 
#    0.000    0.000    0.000    0.000    0.000    0.000 
#
# Total GULP energy -223192.180099 kJ/mol
# GULP energy per Si atom -5579.804502 kJ/mol
# Density = 1.865624 g / cm^3
# Si number density = 18.698801 Si / 1000 Ang^3
#
#
#
# Elastic Constant Matrix: (Units=GPa)
#
#
# Indices 1 2 3 4 5 6 
#
# 1 153.1888 37.7978 104.7221 0.0000 0.0000 0.0000
# 2 37.7978 16.3977 33.5481 0.0000 0.0000 0.0000
# 3 104.7221 33.5481 190.1474 0.0000 0.0000 0.0000
# 4 0.0000 0.0000 0.0000 -9.6619 0.0000 0.0000
# 5 0.0000 0.0000 0.0000 0.0000 42.1551 0.0000
# 6 0.0000 0.0000 0.0000 0.0000 0.0000 20.7803
#
#
#
# Elastic Compliance Matrix: (Units=1/GPa)
#
#
# Indices 1 2 3 4 5 6 
#
# 1 0.016698 -0.030789 -0.003764 0.000000 0.000000 0.000000
# 2 -0.030789 0.152203 -0.009897 0.000000 0.000000 0.000000
# 3 -0.003764 -0.009897 0.009078 0.000000 0.000000 0.000000
# 4 0.000000 0.000000 0.000000 -0.103500 0.000000 0.000000
# 5 0.000000 0.000000 0.000000 0.000000 0.023722 0.000000
# 6 0.000000 0.000000 0.000000 0.000000 0.000000 0.048123
#
#
# Mechanical properties :
#
#
# Convention : Reuss Voigt Hill
#
# Bulk Modulus (GPa) = 11.22593 79.09665 45.16129
# Shear Modulus (GPa) = 18.87387 22.89909 20.88648
#
# Velocity S-wave (km/s) = 3.18049 3.50327 3.34577
# Velocity P-wave (km/s) = 4.41633 7.66525 6.25540
#
# Compressibility (1/GPa) = 0.08907948
#
# Stress axis : x y z
#
# Youngs Moduli (GPa) = 59.88748 6.57018 110.15384
#
# Poissons Ratio (x) = 0.20229 0.41463
# Poissons Ratio (y) = 1.84388 1.09015
# Poissons Ratio (z) = 0.22542 0.06502
#
# Static dielectric constant tensor:
#      x y z
#    x 1.618050 0.000000 0.000000 
#    y 0.000000 1.480720 0.000000 
#    z 0.000000 0.000000 1.695010 
# 
# From -- ./inp_files/47859.got.cif
#   From: 2010.05.17/outbox.cif.g08.bks.cpg/sg64_24_cif.got.tgz:47859.got - 2010.06.03 16:29:19.
