data_PCOD9476752
_publ_section_title
;
Structure prediction by ZEFSAII (Michael W. Deem and Ramdas Pophale) SiO2 
 PCOD9476752
Probable space group: C M C A
;
_chemical_formula_sum "Si O2"
_cell_formula_units_Z 112
_cell_length_a 13.397785
_cell_length_b 23.634331
_cell_length_c 16.576964
_cell_angle_alpha 90.000000
_cell_angle_beta 90.000000
_cell_angle_gamma 90.000000
_cell_volume 5249.057281
_symmetry_space_group_name_H-M "C M C A"
_symmetry_group_IT_number 64
_symmetry_cell_setting 'orthorhombic'
loop_
_space_group_symop_operation_xyz
x,y,z
-x,1/2-y,1/2+z
x,-y,-z
-x,1/2+y,1/2-z
-x,-y,-z
x,1/2+y,1/2-z
-x,y,z
x,1/2-y,1/2+z
1/2+x,1/2+y,z
1/2-x,-y,1/2+z
1/2+x,1/2-y,-z
1/2-x,y,1/2-z
1/2-x,1/2-y,-z
1/2+x,y,1/2-z
1/2-x,1/2+y,z
1/2+x,-y,1/2+z
loop_
_atom_site_type_symbol
_atom_site_label
_atom_site_fract_x
_atom_site_fract_y
_atom_site_fract_z
Si Si1 0.619823 0.489231 0.205084
Si Si2 0.878767 0.296835 0.616319
Si Si3 0.621947 0.734358 0.943609
Si Si4 0.880275 0.191461 0.294518
Si Si5 0.882190 0.566004 0.150833
Si Si6 0.310635 0.576847 0.069714
Si Si7 0.120129 0.607731 0.599851
O O1 0.500000 0.486799 0.210279
O O2 0.650222 0.514727 0.291127
O O3 0.643974 0.533622 0.134148
O O4 0.655289 0.427462 0.177246
O O5 0.850026 0.259422 0.538062
O O6 0.846812 0.284106 0.708146
O O7 0.843294 0.360387 0.597050
O O8 0.000000 0.297776 0.617005
O O9 0.500000 0.735057 0.943382
O O10 0.655405 0.780041 0.877651
O O11 0.654258 0.672186 0.912485
O O12 0.863469 0.124191 0.299673
O O13 0.000000 0.198880 0.295267
O O14 0.808555 0.569599 0.075596
O O15 0.000000 0.563164 0.132306
O O16 0.348742 0.572361 0.979052
O O17 0.000000 0.610129 0.601457
#
# Coordination Sequence:
#
# PCOD9476752 Si02
#       7
#    16  16  16  16  16  16  16
#     4  10  18  30  50  81 111 132 166 220 275 324
#     4   9  16  27  47  77 110 137 173 221 266 316
#     4   8  15  28  47  76 109 142 173 209 261 321
#     4   9  16  29  48  72 109 145 178 217 261 314
#     4  10  21  33  49  79 108 138 182 225 262 314
#     4  11  18  29  50  79 105 139 170 215 275 321
#     4   9  18  31  51  81 113 136 169 221 275 328
#
# _framework density 21.337164999999999
#
# number of rings (size 3 to 8) (size 9 to 14) (size 15 to 20)
#    0.000    2.571    1.429    3.000    0.000    1.143 
#    0.000    2.857    0.000    1.714   18.571    0.000 
#    0.000    0.000    0.000    0.000    0.000    0.000 
#
# Total GULP energy -312534.077790 kJ/mol
# GULP energy per Si atom -5580.965675 kJ/mol
# Density = 2.128860 g / cm^3
# Si number density = 21.337165 Si / 1000 Ang^3
#
#
#
# Elastic Constant Matrix: (Units=GPa)
#
#
# Indices 1 2 3 4 5 6 
#
# 1 50.6584 3.2993 21.3342 0.0000 0.0000 0.0000
# 2 3.2993 50.2290 41.4130 0.0000 0.0000 0.0000
# 3 21.3342 41.4130 103.9424 0.0000 0.0000 0.0000
# 4 0.0000 0.0000 0.0000 31.9138 0.0000 0.0000
# 5 0.0000 0.0000 0.0000 0.0000 36.7078 0.0000
# 6 0.0000 0.0000 0.0000 0.0000 0.0000 13.7655
#
#
#
# Elastic Compliance Matrix: (Units=1/GPa)
#
#
# Indices 1 2 3 4 5 6 
#
# 1 0.021989 0.003390 -0.005864 0.000000 0.000000 0.000000
# 2 0.003390 0.030171 -0.012717 0.000000 0.000000 0.000000
# 3 -0.005864 -0.012717 0.015891 0.000000 0.000000 0.000000
# 4 0.000000 0.000000 0.000000 0.031334 0.000000 0.000000
# 5 0.000000 0.000000 0.000000 0.000000 0.027242 0.000000
# 6 0.000000 0.000000 0.000000 0.000000 0.000000 0.072645
#
#
# Mechanical properties :
#
#
# Convention : Reuss Voigt Hill
#
# Bulk Modulus (GPa) = 26.54628 37.43587 31.99108
# Shear Modulus (GPa) = 20.64331 25.72965 23.18648
#
# Velocity S-wave (km/s) = 3.11381 3.47632 3.30005
# Velocity P-wave (km/s) = 5.03945 5.80483 5.43563
#
# Compressibility (1/GPa) = 0.03767007
#
# Stress axis : x y z
#
# Youngs Moduli (GPa) = 45.47764 33.14477 62.92926
#
# Poissons Ratio (x) = -0.11238 0.36902
# Poissons Ratio (y) = -0.15419 0.80024
# Poissons Ratio (z) = 0.26668 0.42149
#
# Static dielectric constant tensor:
#      x y z
#    x 1.822140 0.000000 0.000000 
#    y 0.000000 1.758100 0.000000 
#    z 0.000000 0.000000 1.788950 
# 
# From -- ./inp_files/24417.got.cif
#   From: 2010.05.17/outbox.cif.g08.bks.cpg/sg64_13_cif.got.tgz:24417.got - 2010.06.03 16:29:19.
