data_PCOD9476687
_publ_section_title
;
Structure prediction by ZEFSAII (Michael W. Deem and Ramdas Pophale) SiO2 
 PCOD9476687
Probable space group: C M C A
;
_chemical_formula_sum "Si O2"
_cell_formula_units_Z 128
_cell_length_a 23.365432
_cell_length_b 18.712961
_cell_length_c 17.540229
_cell_angle_alpha 90.000000
_cell_angle_beta 90.000000
_cell_angle_gamma 90.000000
_cell_volume 7669.226895
_symmetry_space_group_name_H-M "C M C A"
_symmetry_group_IT_number 64
_symmetry_cell_setting 'orthorhombic'
loop_
_space_group_symop_operation_xyz
x,y,z
-x,1/2-y,1/2+z
x,-y,-z
-x,1/2+y,1/2-z
-x,-y,-z
x,1/2+y,1/2-z
-x,y,z
x,1/2-y,1/2+z
1/2+x,1/2+y,z
1/2-x,-y,1/2+z
1/2+x,1/2-y,-z
1/2-x,y,1/2-z
1/2-x,1/2-y,-z
1/2+x,y,1/2-z
1/2-x,1/2+y,z
1/2+x,-y,1/2+z
loop_
_atom_site_type_symbol
_atom_site_label
_atom_site_fract_x
_atom_site_fract_y
_atom_site_fract_z
Si Si1 0.565384 0.835200 0.053076
Si Si2 0.712070 0.383490 0.853444
Si Si3 0.780182 0.192425 0.892077
Si Si4 0.065992 0.124134 0.373288
Si Si5 0.757296 0.027703 0.911641
Si Si6 0.823034 0.685690 0.193721
Si Si7 0.623030 0.979234 0.089641
Si Si8 0.166829 0.267089 0.547510
O O1 0.500000 0.822588 0.074581
O O2 0.591108 0.903870 0.096159
O O3 0.606461 0.768023 0.064269
O O4 0.567222 0.854387 0.962739
O O5 0.711898 0.468068 0.860222
O O6 0.778617 0.358140 0.860972
O O7 0.689390 0.348709 0.775691
O O8 0.676386 0.345681 0.919326
O O9 0.780868 0.107163 0.897909
O O10 0.802281 0.232545 0.816321
O O11 0.716017 0.218238 0.913381
O O12 0.819482 0.226987 0.958366
O O13 0.111909 0.172940 0.329796
O O14 0.000000 0.128677 0.347954
O O15 0.090534 0.043409 0.368113
O O16 0.689838 0.027647 0.891058
O O17 0.761897 0.000000 0.000000
O O18 0.621194 0.000000 0.000000
#
# Coordination Sequence:
#
# PCOD9476687 Si02
#       8
#    16  16  16  16  16  16  16  16
#     4  10  18  29  47  77 109 136 177 227 269 314
#     4  10  21  34  52  75 114 140 174 226 274 312
#     4  10  19  30  54  76 108 140 180 219 267 321
#     4  10  18  30  50  73 103 145 180 211 265 328
#     4  11  18  30  53  85 106 140 177 220 271 328
#     4  10  20  36  49  76 110 143 174 223 265 323
#     4   9  17  26  44  74 109 134 169 215 268 322
#     4  10  18  31  50  78 100 143 179 220 265 314
#
# _framework density 16.690078
#
# number of rings (size 3 to 8) (size 9 to 14) (size 15 to 20)
#    0.000    2.000    5.000    0.375    0.000    1.500 
#    0.000    6.875    0.000    0.000    0.000    4.375 
#    0.000    0.000    0.000    0.000    0.000    0.000 
#
# Total GULP energy -356700.822810 kJ/mol
# GULP energy per Si atom -5573.450356 kJ/mol
# Density = 1.665209 g / cm^3
# Si number density = 16.690078 Si / 1000 Ang^3
#
#
#
# Elastic Constant Matrix: (Units=GPa)
#
#
# Indices 1 2 3 4 5 6 
#
# 1 100.6308 54.2248 24.6993 0.0000 0.0000 0.0000
# 2 54.2248 123.3001 22.4044 0.0000 0.0000 0.0000
# 3 24.6993 22.4044 38.8132 0.0000 0.0000 0.0000
# 4 0.0000 0.0000 0.0000 14.5893 0.0000 0.0000
# 5 0.0000 0.0000 0.0000 0.0000 12.2936 0.0000
# 6 0.0000 0.0000 0.0000 0.0000 0.0000 21.9792
#
#
#
# Elastic Compliance Matrix: (Units=1/GPa)
#
#
# Indices 1 2 3 4 5 6 
#
# 1 0.014197 -0.005141 -0.006067 0.000000 0.000000 0.000000
# 2 -0.005141 0.010922 -0.003033 0.000000 0.000000 0.000000
# 3 -0.006067 -0.003033 0.031376 0.000000 0.000000 0.000000
# 4 0.000000 0.000000 0.000000 0.068543 0.000000 0.000000
# 5 0.000000 0.000000 0.000000 0.000000 0.081343 0.000000
# 6 0.000000 0.000000 0.000000 0.000000 0.000000 0.045498
#
#
# Mechanical properties :
#
#
# Convention : Reuss Voigt Hill
#
# Bulk Modulus (GPa) = 35.69755 51.71124 43.70439
# Shear Modulus (GPa) = 17.25936 20.53348 18.89642
#
# Velocity S-wave (km/s) = 3.21925 3.51134 3.36846
# Velocity P-wave (km/s) = 5.93742 6.89129 6.43206
#
# Compressibility (1/GPa) = 0.02801313
#
# Stress axis : x y z
#
# Youngs Moduli (GPa) = 70.43965 91.55530 31.87161
#
# Poissons Ratio (x) = 0.47069 0.19335
# Poissons Ratio (y) = 0.36213 0.09667
# Poissons Ratio (z) = 0.42733 0.27771
#
# Static dielectric constant tensor:
#      x y z
#    x 1.544920 0.000000 0.000000 
#    y 0.000000 1.581600 0.000000 
#    z 0.000000 0.000000 1.601440 
# 
# From -- ./inp_files/41654.got.cif
#   From: 2010.05.17/outbox.cif.g08.bks.cpg/sg64_21_cif.got.tgz:41654.got - 2010.06.03 16:29:19.
