data_PCOD9476379
_publ_section_title
;
Structure prediction by ZEFSAII (Michael W. Deem and Ramdas Pophale) SiO2 
 PCOD9476379
Probable space group: C M C A
;
_chemical_formula_sum "Si O2"
_cell_formula_units_Z 104
_cell_length_a 24.119338
_cell_length_b 12.227676
_cell_length_c 17.201805
_cell_angle_alpha 90.000000
_cell_angle_beta 90.000000
_cell_angle_gamma 90.000000
_cell_volume 5073.215684
_symmetry_space_group_name_H-M "C M C A"
_symmetry_group_IT_number 64
_symmetry_cell_setting 'orthorhombic'
loop_
_space_group_symop_operation_xyz
x,y,z
-x,1/2-y,1/2+z
x,-y,-z
-x,1/2+y,1/2-z
-x,-y,-z
x,1/2+y,1/2-z
-x,y,z
x,1/2-y,1/2+z
1/2+x,1/2+y,z
1/2-x,-y,1/2+z
1/2+x,1/2-y,-z
1/2-x,y,1/2-z
1/2-x,1/2-y,-z
1/2+x,y,1/2-z
1/2-x,1/2+y,z
1/2+x,-y,1/2+z
loop_
_atom_site_type_symbol
_atom_site_label
_atom_site_fract_x
_atom_site_fract_y
_atom_site_fract_z
Si Si1 0.303462 0.567841 0.396512
Si Si2 0.000000 0.312591 0.504748
Si Si3 0.619151 0.933228 0.328281
Si Si4 0.750000 0.666099 0.250000
Si Si5 0.000000 0.498184 0.627298
Si Si6 0.802651 0.628823 0.803748
Si Si7 0.618696 0.755201 0.961557
Si Si8 0.680196 0.091095 0.437028
O O1 0.292519 0.608873 0.308081
O O2 0.306541 0.437967 0.383056
O O3 0.354082 0.631951 0.433919
O O4 0.246288 0.595990 0.439053
O O5 0.055277 0.244079 0.489064
O O6 0.000000 0.379268 0.586086
O O7 0.000000 0.410916 0.441342
O O8 0.556718 0.978435 0.327233
O O9 0.643055 0.891336 0.247134
O O10 0.657739 0.032664 0.359346
O O11 0.623181 0.831175 0.388975
O O12 0.786216 0.744501 0.307118
O O13 0.750000 0.589734 0.750000
O O14 0.652495 0.701018 0.032562
O O15 0.661464 0.000000 0.500000
#
# Coordination Sequence:
#
# PCOD9476379 Si02
#       8
#    16   8  16   8   8  16  16  16
#     4  12  20  33  50  75 104 140 170 201 261 307
#     4   9  16  30  47  74  97 132 161 206 257 300
#     4  10  16  32  49  74  99 129 164 213 249 302
#     4  10  18  34  52  66 100 144 168 206 248 302
#     4   9  16  26  53  72  96 128 166 202 263 294
#     4  10  19  31  49  70 100 135 167 206 246 303
#     4  10  19  30  49  74 104 129 165 209 257 302
#     4  10  19  30  49  76 110 128 162 210 255 305
#
# _framework density 20.499818000000001
#
# number of rings (size 3 to 8) (size 9 to 14) (size 15 to 20)
#    0.462    1.385    5.385    0.462    2.154    0.000 
#    0.000    0.769    0.000    0.000    0.000    1.615 
#    0.000    0.000    0.000    0.000    0.000    0.000 
#
# Total GULP energy -290020.091914 kJ/mol
# GULP energy per Si atom -5577.309460 kJ/mol
# Density = 2.045316 g / cm^3
# Si number density = 20.499818 Si / 1000 Ang^3
#
#
#
# Elastic Constant Matrix: (Units=GPa)
#
#
# Indices 1 2 3 4 5 6 
#
# 1 103.9164 5.6025 9.6168 0.0000 0.0000 0.0000
# 2 5.6025 53.0505 2.0639 0.0000 0.0000 0.0000
# 3 9.6168 2.0639 35.4336 0.0000 0.0000 0.0000
# 4 0.0000 0.0000 0.0000 29.8430 0.0000 0.0000
# 5 0.0000 0.0000 0.0000 0.0000 28.5588 0.0000
# 6 0.0000 0.0000 0.0000 0.0000 0.0000 22.3216
#
#
#
# Elastic Compliance Matrix: (Units=1/GPa)
#
#
# Indices 1 2 3 4 5 6 
#
# 1 0.009918 -0.000945 -0.002637 0.000000 0.000000 0.000000
# 2 -0.000945 0.018983 -0.000849 0.000000 0.000000 0.000000
# 3 -0.002637 -0.000849 0.028987 0.000000 0.000000 0.000000
# 4 0.000000 0.000000 0.000000 0.033509 0.000000 0.000000
# 5 0.000000 0.000000 0.000000 0.000000 0.035015 0.000000
# 6 0.000000 0.000000 0.000000 0.000000 0.000000 0.044800
#
#
# Mechanical properties :
#
#
# Convention : Reuss Voigt Hill
#
# Bulk Modulus (GPa) = 20.39733 25.21855 22.80794
# Shear Modulus (GPa) = 25.45629 27.81919 26.63774
#
# Velocity S-wave (km/s) = 3.52771 3.68781 3.60865
# Velocity P-wave (km/s) = 5.15409 5.51922 5.33978
#
# Compressibility (1/GPa) = 0.04902602
#
# Stress axis : x y z
#
# Youngs Moduli (GPa) = 100.82599 52.67935 34.49835
#
# Poissons Ratio (x) = 0.04977 0.09096
# Poissons Ratio (y) = 0.09526 0.02930
# Poissons Ratio (z) = 0.26585 0.04474
#
# Static dielectric constant tensor:
#      x y z
#    x 1.698250 0.000000 0.000000 
#    y 0.000000 1.805050 0.000000 
#    z 0.000000 0.000000 1.764310 
# 
# From -- ./inp_files/41024.got.cif
#   From: 2010.05.17/outbox.cif.g08.bks.cpg/sg64_21_cif.got.tgz:41024.got - 2010.06.03 16:29:19.
