data_PCOD9476875
_publ_section_title
;
Structure prediction by ZEFSAII (Michael W. Deem and Ramdas Pophale) SiO2 
 PCOD9476875
Probable space group: C M C A
;
_chemical_formula_sum "Si O2"
_cell_formula_units_Z 88
_cell_length_a 7.543144
_cell_length_b 24.859618
_cell_length_c 20.257960
_cell_angle_alpha 90.000000
_cell_angle_beta 90.000000
_cell_angle_gamma 90.000000
_cell_volume 3798.766143
_symmetry_space_group_name_H-M "C M C A"
_symmetry_group_IT_number 64
_symmetry_cell_setting 'orthorhombic'
loop_
_space_group_symop_operation_xyz
x,y,z
-x,1/2-y,1/2+z
x,-y,-z
-x,1/2+y,1/2-z
-x,-y,-z
x,1/2+y,1/2-z
-x,y,z
x,1/2-y,1/2+z
1/2+x,1/2+y,z
1/2-x,-y,1/2+z
1/2+x,1/2-y,-z
1/2-x,y,1/2-z
1/2-x,1/2-y,-z
1/2+x,y,1/2-z
1/2-x,1/2+y,z
1/2+x,-y,1/2+z
loop_
_atom_site_type_symbol
_atom_site_label
_atom_site_fract_x
_atom_site_fract_y
_atom_site_fract_z
Si Si1 0.708924 0.273736 0.849424
Si Si2 0.714479 0.657537 0.877822
Si Si3 0.783998 0.161455 0.028074
Si Si4 0.286915 0.042423 0.673202
Si Si5 0.250000 0.140842 0.250000
Si Si6 0.797613 0.432227 0.622065
O O1 0.500000 0.288825 0.840827
O O2 0.729478 0.210753 0.838687
O O3 0.761830 0.288667 0.924443
O O4 0.816056 0.313208 0.801756
O O5 0.500000 0.657140 0.877585
O O6 0.778065 0.600839 0.849200
O O7 0.778093 0.663177 0.953363
O O8 0.720999 0.108585 0.068109
O O9 0.000000 0.159869 0.025915
O O10 0.500000 0.042511 0.664698
O O11 0.250000 0.034496 0.750000
O O12 0.215543 0.990664 0.633746
O O13 0.192859 0.098622 0.192830
O O14 0.000000 0.441093 0.600372
#
# Coordination Sequence:
#
# PCOD9476875 Si02
#       6
#    16  16  16  16   8  16
#     4  10  21  35  55  79 109 144 179 223 272 314
#     4  10  21  35  54  80 111 143 181 217 260 324
#     4   8  16  33  55  81 107 137 177 225 268 311
#     4  10  21  36  54  80 109 143 179 218 265 318
#     4  10  18  32  52  76 104 134 180 216 266 316
#     4   9  17  32  55  79 107 137 175 224 274 315
#
# _framework density 23.165417000000001
#
# number of rings (size 3 to 8) (size 9 to 14) (size 15 to 20)
#    0.000    2.545    0.909    2.182    1.273    2.909 
#    0.000    3.636    0.000    3.273    0.000    2.545 
#    0.000    0.000    0.000    0.000    0.000    0.000 
#
# Total GULP energy -245093.126836 kJ/mol
# GULP energy per Si atom -5570.298337 kJ/mol
# Density = 2.311269 g / cm^3
# Si number density = 23.165417 Si / 1000 Ang^3
#
#
#
# Elastic Constant Matrix: (Units=GPa)
#
#
# Indices 1 2 3 4 5 6 
#
# 1 69.0366 4.1498 -3.3703 0.0000 0.0000 0.0000
# 2 4.1498 185.5786 0.5199 0.0000 0.0000 0.0000
# 3 -3.3703 0.5199 29.6538 0.0000 0.0000 0.0000
# 4 0.0000 0.0000 0.0000 23.5205 0.0000 0.0000
# 5 0.0000 0.0000 0.0000 0.0000 -13.7966 0.0000
# 6 0.0000 0.0000 0.0000 0.0000 0.0000 48.1520
#
#
#
# Elastic Compliance Matrix: (Units=1/GPa)
#
#
# Indices 1 2 3 4 5 6 
#
# 1 0.014586 -0.000331 0.001664 0.000000 0.000000 0.000000
# 2 -0.000331 0.005396 -0.000132 0.000000 0.000000 0.000000
# 3 0.001664 -0.000132 0.033914 0.000000 0.000000 0.000000
# 4 0.000000 0.000000 0.000000 0.042516 0.000000 0.000000
# 5 0.000000 0.000000 0.000000 0.000000 -0.072482 0.000000
# 6 0.000000 0.000000 0.000000 0.000000 0.000000 0.020768
#
#
# Mechanical properties :
#
#
# Convention : Reuss Voigt Hill
#
# Bulk Modulus (GPa) = 17.76278 31.87420 24.81849
# Shear Modulus (GPa) = 81.88260 30.43982 56.16121
#
# Velocity S-wave (km/s) = 5.95178 3.62887 4.92912
# Velocity P-wave (km/s) = 7.41053 5.59889 6.56748
#
# Compressibility (1/GPa) = 0.05629748
#
# Stress axis : x y z
#
# Youngs Moduli (GPa) = 68.55805 185.31144 29.48643
#
# Poissons Ratio (x) = 0.06131 -0.04905
# Poissons Ratio (y) = 0.02268 0.00390
# Poissons Ratio (z) = -0.11405 0.02450
#
# Static dielectric constant tensor:
#      x y z
#    x 1.951490 0.000000 0.000000 
#    y 0.000000 1.864040 0.000000 
#    z 0.000000 0.000000 1.839600 
# 
# From -- ./inp_files/36794.got.cif
#   From: 2010.05.17/outbox.cif.g08.bks.cpg/sg64_19_cif.got.tgz:36794.got - 2010.06.03 16:29:19.
