data_PCOD9476113
_publ_section_title
;
Structure prediction by ZEFSAII (Michael W. Deem and Ramdas Pophale) SiO2 
 PCOD9476113
Probable space group: C M C M
;
_chemical_formula_sum "Si O2"
_cell_formula_units_Z 36
_cell_length_a 15.000000
_cell_length_b 15.000000
_cell_length_c 18.000000
_cell_angle_alpha 90.000000
_cell_angle_beta 90.000000
_cell_angle_gamma 90.000000
_cell_volume 4050.000000
_symmetry_space_group_name_H-M "C M C M"
_symmetry_group_IT_number 63
_symmetry_cell_setting 'orthorhombic'
loop_
_space_group_symop_operation_xyz
x,y,z
-x,-y,1/2+z
x,-y,-z
-x,y,1/2-z
-x,-y,-z
x,y,1/2-z
-x,y,z
x,-y,1/2+z
1/2+x,1/2+y,z
1/2-x,1/2-y,1/2+z
1/2+x,1/2-y,-z
1/2-x,1/2+y,1/2-z
1/2-x,1/2-y,-z
1/2+x,1/2+y,1/2-z
1/2-x,1/2+y,z
1/2+x,1/2-y,1/2+z
loop_
_atom_site_type_symbol
_atom_site_label
_atom_site_fract_x
_atom_site_fract_y
_atom_site_fract_z
Si Si1 0.816256 0.991397 0.333698
Si Si2 0.500000 0.613133 0.830882
Si Si3 0.684957 0.656455 0.057101
Si Si4 0.000000 0.595573 0.960053
Si Si5 0.692819 0.146394 0.912583
Si Si6 0.000000 0.211014 0.520107
O O1 0.798627 0.021409 0.250000
O O2 0.748806 0.914151 0.357711
O O3 0.913873 0.948600 0.337500
O O4 0.812497 0.072011 0.390587
O O5 0.500000 0.656078 0.750000
O O6 0.500000 0.684007 0.895212
O O7 0.697946 0.748086 0.102654
O O8 0.760064 0.642353 0.993980
O O9 0.588907 0.670830 0.017720
O O10 0.092078 0.610243 0.915803
O O11 0.000000 0.500000 0.000000
O O12 0.000000 0.682461 0.013158
#
# Coordination Sequence:
#
# PCOD9476113 Si02
#       6
#    16   8  16   8  16   8
#     4  11  22  36  56  82 114 148 179 228 290 340
#     4  10  21  35  54  87 122 144 172 222 289 352
#     4  10  20  35  58  84 108 145 190 229 280 338
#     4  10  20  35  58  80 109 144 192 238 268 318
#     4  10  21  36  56  82 110 145 191 236 274 322
#     4  10  19  34  60  87 111 150 183 233 289 325
#
# _framework density 8.8888890000000007
#
# number of rings (size 3 to 8) (size 9 to 14) (size 15 to 20)
#    0.000    1.778    2.222    2.667    0.000    1.778 
#    0.000    0.556    0.000    4.000    0.000    0.000 
#    0.000    0.000    0.000    0.000    0.000    0.000 
#
# Total GULP energy -200813.399353 kJ/mol
# GULP energy per Si atom -5578.149982 kJ/mol
# Density = 0.886866 g / cm^3
# Si number density = 8.888889 Si / 1000 Ang^3
#
#
#
# Elastic Constant Matrix: (Units=GPa)
#
#
# Indices 1 2 3 4 5 6 
#
# 1 114.6924 18.2412 11.3681 0.0000 0.0000 0.0000
# 2 18.2412 16.6232 25.0493 0.0000 0.0000 0.0000
# 3 11.3681 25.0493 43.1945 0.0000 0.0000 0.0000
# 4 0.0000 0.0000 0.0000 -23.3172 0.0000 0.0000
# 5 0.0000 0.0000 0.0000 0.0000 203.4385 0.0000
# 6 0.0000 0.0000 0.0000 0.0000 0.0000 -34.9150
#
#
#
# Elastic Compliance Matrix: (Units=1/GPa)
#
#
# Indices 1 2 3 4 5 6 
#
# 1 0.021283 -0.118244 0.062970 0.000000 0.000000 0.000000
# 2 -0.118244 1.133863 -0.626428 0.000000 0.000000 0.000000
# 3 0.062970 -0.626428 0.369855 0.000000 0.000000 0.000000
# 4 0.000000 0.000000 0.000000 -0.042887 0.000000 0.000000
# 5 0.000000 0.000000 0.000000 0.000000 0.004915 0.000000
# 6 0.000000 0.000000 0.000000 0.000000 0.000000 -0.028641
#
#
# Mechanical properties :
#
#
# Convention : Reuss Voigt Hill
#
# Bulk Modulus (GPa) = 6.18816 31.53638 18.86227
# Shear Modulus (GPa) = 1.73873 37.03134 19.38504
#
# Velocity S-wave (km/s) = 0.99003 4.56896 3.30572
# Velocity P-wave (km/s) = 2.18981 6.75363 5.02030
#
# Compressibility (1/GPa) = 0.16159885
#
# Stress axis : x y z
#
# Youngs Moduli (GPa) = 46.98493 0.88194 2.70376
#
# Poissons Ratio (x) = 0.10428 -0.17026
# Poissons Ratio (y) = 5.55567 1.69371
# Poissons Ratio (z) = -2.95865 0.55247
#
# Static dielectric constant tensor:
#      x y z
#    x 1.606660 0.000000 0.000000 
#    y 0.000000 1.590880 0.000000 
#    z 0.000000 0.000000 1.585890 
# 
# From -- ./inp_files/43781.got.cif
#   From: 2010.05.17/outbox.ucp.g08.bks.cvg/sg63_22_cif.got.tgz:43781.got - 2010.06.11 16:32:19.
