data_PCOD9476989
_publ_section_title
;
Structure prediction by ZEFSAII (Michael W. Deem and Ramdas Pophale) SiO2 
 PCOD9476989
Probable space group: C M C A
;
_chemical_formula_sum "Si O2"
_cell_formula_units_Z 112
_cell_length_a 16.047492
_cell_length_b 16.747411
_cell_length_c 18.462688
_cell_angle_alpha 90.000000
_cell_angle_beta 90.000000
_cell_angle_gamma 90.000000
_cell_volume 4961.920218
_symmetry_space_group_name_H-M "C M C A"
_symmetry_group_IT_number 64
_symmetry_cell_setting 'orthorhombic'
loop_
_space_group_symop_operation_xyz
x,y,z
-x,1/2-y,1/2+z
x,-y,-z
-x,1/2+y,1/2-z
-x,-y,-z
x,1/2+y,1/2-z
-x,y,z
x,1/2-y,1/2+z
1/2+x,1/2+y,z
1/2-x,-y,1/2+z
1/2+x,1/2-y,-z
1/2-x,y,1/2-z
1/2-x,1/2-y,-z
1/2+x,y,1/2-z
1/2-x,1/2+y,z
1/2+x,-y,1/2+z
loop_
_atom_site_type_symbol
_atom_site_label
_atom_site_fract_x
_atom_site_fract_y
_atom_site_fract_z
Si Si1 0.337116 0.682581 0.771372
Si Si2 0.910746 0.931875 0.732201
Si Si3 0.277306 0.930288 0.396814
Si Si4 0.689838 0.885028 0.631028
Si Si5 0.095274 0.592321 0.854484
Si Si6 0.840017 0.793830 0.998779
Si Si7 0.625652 0.310873 0.618710
O O1 0.250000 0.723354 0.750000
O O2 0.304968 0.606629 0.818978
O O3 0.387502 0.666515 0.698576
O O4 0.385926 0.737861 0.826153
O O5 0.844507 0.896404 0.788080
O O6 0.917202 0.883953 0.657303
O O7 0.000000 0.930828 0.770781
O O8 0.894788 0.020032 0.703089
O O9 0.176950 0.916822 0.405085
O O10 0.324867 0.873707 0.453394
O O11 0.299079 0.023836 0.398458
O O12 0.634720 0.827862 0.579136
O O13 0.778958 0.842196 0.623463
O O14 0.000000 0.591386 0.882792
O O15 0.894167 0.727393 0.040918
O O16 0.750000 0.750000 0.000000
#
# Coordination Sequence:
#
# PCOD9476989 Si02
#       7
#    16  16  16  16  16  16  16
#     4   9  17  30  49  79 111 143 189 240 289 344
#     4  11  22  35  56  88 121 155 197 247 301 359
#     4  10  18  33  59  84 111 152 199 241 298 352
#     4  11  19  35  61  86 115 153 200 248 301 352
#     4  10  20  33  53  85 121 151 190 244 299 357
#     4   9  21  37  57  87 115 147 199 251 289 352
#     4  10  20  35  57  84 116 153 193 249 298 347
#
# _framework density 22.571905999999998
#
# number of rings (size 3 to 8) (size 9 to 14) (size 15 to 20)
#    0.000    2.000    2.857    1.714    0.000    1.714 
#    0.000    0.714    0.000    7.714    0.000    0.000 
#    0.000    0.000    0.000    0.000    0.000    0.000 
#
# Total GULP energy -311947.603684 kJ/mol
# GULP energy per Si atom -5570.492923 kJ/mol
# Density = 2.252053 g / cm^3
# Si number density = 22.571906 Si / 1000 Ang^3
#
#
#
# Elastic Constant Matrix: (Units=GPa)
#
#
# Indices 1 2 3 4 5 6 
#
# 1 51.4578 1.3661 3.3100 0.0000 0.0000 0.0000
# 2 1.3661 72.3518 12.1881 0.0000 0.0000 0.0000
# 3 3.3100 12.1881 33.9624 0.0000 0.0000 0.0000
# 4 0.0000 0.0000 0.0000 28.2798 0.0000 0.0000
# 5 0.0000 0.0000 0.0000 0.0000 6.1352 0.0000
# 6 0.0000 0.0000 0.0000 0.0000 0.0000 53.6136
#
#
#
# Elastic Compliance Matrix: (Units=1/GPa)
#
#
# Indices 1 2 3 4 5 6 
#
# 1 0.019556 -0.000051 -0.001888 0.000000 0.000000 0.000000
# 2 -0.000051 0.014711 -0.005274 0.000000 0.000000 0.000000
# 3 -0.001888 -0.005274 0.031521 0.000000 0.000000 0.000000
# 4 0.000000 0.000000 0.000000 0.035361 0.000000 0.000000
# 5 0.000000 0.000000 0.000000 0.000000 0.162994 0.000000
# 6 0.000000 0.000000 0.000000 0.000000 0.000000 0.018652
#
#
# Mechanical properties :
#
#
# Convention : Reuss Voigt Hill
#
# Bulk Modulus (GPa) = 19.46969 21.27782 20.37375
# Shear Modulus (GPa) = 15.90623 26.99958 21.45290
#
# Velocity S-wave (km/s) = 2.65748 3.46230 3.08624
# Velocity P-wave (km/s) = 4.24978 5.04287 4.66322
#
# Compressibility (1/GPa) = 0.05136188
#
# Stress axis : x y z
#
# Youngs Moduli (GPa) = 51.13476 67.97720 31.72478
#
# Poissons Ratio (x) = 0.00349 0.05988
# Poissons Ratio (y) = 0.00262 0.16733
# Poissons Ratio (z) = 0.09652 0.35853
#
# Static dielectric constant tensor:
#      x y z
#    x 1.817390 0.000000 0.000000 
#    y 0.000000 1.860880 0.000000 
#    z 0.000000 0.000000 1.927900 
# 
# From -- ./inp_files/40380.got.cif
#   From: 2010.05.17/outbox.cif.g08.bks.cpg/sg64_21_cif.got.tgz:40380.got - 2010.06.03 16:29:19.
