data_PCOD9476725
_publ_section_title
;
Structure prediction by ZEFSAII (Michael W. Deem and Ramdas Pophale) SiO2 
 PCOD9476725
Probable space group: C M C A
;
_chemical_formula_sum "Si O2"
_cell_formula_units_Z 64
_cell_length_a 30.788785
_cell_length_b 19.416459
_cell_length_c 5.169868
_cell_angle_alpha 90.000000
_cell_angle_beta 90.000000
_cell_angle_gamma 90.000000
_cell_volume 3090.594558
_symmetry_space_group_name_H-M "C M C A"
_symmetry_group_IT_number 64
_symmetry_cell_setting 'orthorhombic'
loop_
_space_group_symop_operation_xyz
x,y,z
-x,1/2-y,1/2+z
x,-y,-z
-x,1/2+y,1/2-z
-x,-y,-z
x,1/2+y,1/2-z
-x,y,z
x,1/2-y,1/2+z
1/2+x,1/2+y,z
1/2-x,-y,1/2+z
1/2+x,1/2-y,-z
1/2-x,y,1/2-z
1/2-x,1/2-y,-z
1/2+x,y,1/2-z
1/2-x,1/2+y,z
1/2+x,-y,1/2+z
loop_
_atom_site_type_symbol
_atom_site_label
_atom_site_fract_x
_atom_site_fract_y
_atom_site_fract_z
Si Si1 0.500000 0.451608 0.246800
Si Si2 0.750000 0.450991 0.250000
Si Si3 0.000000 0.704980 0.197808
Si Si4 0.428445 0.605584 0.085803
Si Si5 0.898035 0.000000 0.500000
Si Si6 0.157571 0.923562 0.131482
O O1 0.500000 0.500000 0.500000
O O2 0.456908 0.406397 0.178384
O O3 0.500000 0.500000 0.000000
O O4 0.740048 0.500000 0.500000
O O5 0.792458 0.406428 0.322235
O O6 0.042420 0.658750 0.255359
O O7 0.000000 0.764375 0.413296
O O8 0.423262 0.537118 0.265272
O O9 0.378354 0.621937 0.016347
O O10 0.866571 0.940320 0.397624
O O11 0.159570 0.000000 0.000000
#
# Coordination Sequence:
#
# PCOD9476725 Si02
#       6
#     8   8   8  16   8  16
#     4  11  24  32  49  80 114 144 183 225 291 349
#     4  10  18  30  48  80 126 170 188 214 270 366
#     4  11  28  49  61  80 109 158 215 256 299 353
#     4  10  24  37  62  83 122 153 199 248 302 358
#     4  10  18  35  58  94 120 150 186 237 302 360
#     4   9  18  31  52  85 123 160 188 225 285 358
#
# _framework density 20.707991
#
# number of rings (size 3 to 8) (size 9 to 14) (size 15 to 20)
#    0.000    2.000    1.250    2.250   10.500    3.500 
#    0.000    0.000    0.000    0.000    0.000    1.750 
#    0.000    0.000    0.000    0.000    0.000    0.000 
#
# Total GULP energy -178204.053367 kJ/mol
# GULP energy per Si atom -5568.876668 kJ/mol
# Density = 2.066086 g / cm^3
# Si number density = 20.707991 Si / 1000 Ang^3
#
#
#
# Elastic Constant Matrix: (Units=GPa)
#
#
# Indices 1 2 3 4 5 6 
#
# 1 217.8668 26.4459 24.1619 0.0000 0.0000 0.0000
# 2 26.4459 40.3232 12.9075 0.0000 0.0000 0.0000
# 3 24.1619 12.9075 111.7723 0.0000 0.0000 0.0000
# 4 0.0000 0.0000 0.0000 32.9298 0.0000 0.0000
# 5 0.0000 0.0000 0.0000 0.0000 22.2572 0.0000
# 6 0.0000 0.0000 0.0000 0.0000 0.0000 8.7359
#
#
#
# Elastic Compliance Matrix: (Units=1/GPa)
#
#
# Indices 1 2 3 4 5 6 
#
# 1 0.005045 -0.003073 -0.000736 0.000000 0.000000 0.000000
# 2 -0.003073 0.027623 -0.002526 0.000000 0.000000 0.000000
# 3 -0.000736 -0.002526 0.009397 0.000000 0.000000 0.000000
# 4 0.000000 0.000000 0.000000 0.030368 0.000000 0.000000
# 5 0.000000 0.000000 0.000000 0.000000 0.044929 0.000000
# 6 0.000000 0.000000 0.000000 0.000000 0.000000 0.114470
#
#
# Mechanical properties :
#
#
# Convention : Reuss Voigt Hill
#
# Bulk Modulus (GPa) = 34.01719 55.22145 44.61932
# Shear Modulus (GPa) = 19.66186 33.21441 26.43813
#
# Velocity S-wave (km/s) = 3.08471 4.00927 3.57699
# Velocity P-wave (km/s) = 5.39907 6.93952 6.21719
#
# Compressibility (1/GPa) = 0.02939690
#
# Stress axis : x y z
#
# Youngs Moduli (GPa) = 198.23342 36.20108 106.41190
#
# Poissons Ratio (x) = 0.11125 0.07828
# Poissons Ratio (y) = 0.60917 0.26876
# Poissons Ratio (z) = 0.14582 0.09143
#
# Static dielectric constant tensor:
#      x y z
#    x 1.900130 0.000000 0.000000 
#    y 0.000000 1.762420 0.000000 
#    z 0.000000 0.000000 1.868280 
# 
# From -- ./inp_files/3168.got.cif
#   From: 2010.05.17/outbox.cif.g08.bks.cpg/sg64_2_cif.got.tgz:3168.got - 2010.06.03 16:29:19.
