data_PCOD9476238
_publ_section_title
;
Structure prediction by ZEFSAII (Michael W. Deem and Ramdas Pophale) SiO2 
 PCOD9476238
Probable space group: C M C M
;
_chemical_formula_sum "Si O2"
_cell_formula_units_Z 40
_cell_length_a 15.000000
_cell_length_b 12.000000
_cell_length_c 24.000000
_cell_angle_alpha 90.000000
_cell_angle_beta 90.000000
_cell_angle_gamma 90.000000
_cell_volume 4320.000000
_symmetry_space_group_name_H-M "C M C M"
_symmetry_group_IT_number 63
_symmetry_cell_setting 'orthorhombic'
loop_
_space_group_symop_operation_xyz
x,y,z
-x,-y,1/2+z
x,-y,-z
-x,y,1/2-z
-x,-y,-z
x,y,1/2-z
-x,y,z
x,-y,1/2+z
1/2+x,1/2+y,z
1/2-x,1/2-y,1/2+z
1/2+x,1/2-y,-z
1/2-x,1/2+y,1/2-z
1/2-x,1/2-y,-z
1/2+x,1/2+y,1/2-z
1/2-x,1/2+y,z
1/2+x,1/2-y,1/2+z
loop_
_atom_site_type_symbol
_atom_site_label
_atom_site_fract_x
_atom_site_fract_y
_atom_site_fract_z
Si Si1 0.105498 0.678076 0.133884
Si Si2 0.609183 0.585497 0.414228
Si Si3 0.106870 0.156384 0.963127
Si Si4 0.603015 0.057087 0.685552
Si Si5 0.790721 0.216061 0.315128
O O1 0.125826 0.733972 0.073747
O O2 0.114191 0.544906 0.142754
O O3 0.184694 0.722456 0.173313
O O4 0.000000 0.704046 0.146822
O O5 0.500000 0.593461 0.406507
O O6 0.635746 0.649735 0.472052
O O7 0.632366 0.456104 0.428908
O O8 0.661490 0.634695 0.360667
O O9 0.000000 0.148933 0.967036
O O10 0.616312 0.016970 0.750000
O O11 0.500000 0.094864 0.681742
O O12 0.666228 0.161973 0.676286
O O13 0.806445 0.184001 0.250000
#
# Coordination Sequence:
#
# PCOD9476238 Si02
#       5
#    16  16  16  16  16
#     4  10  21  38  59  82 114 156 197 236 284 346
#     4   9  18  36  61  89 121 151 186 244 304 347
#     4   8  17  36  61  86 115 153 193 239 298 351
#     4   9  19  37  56  77 114 156 187 230 293 343
#     4  11  23  35  57  87 116 153 198 238 285 351
#
# _framework density 9.2592590000000001
#
# number of rings (size 3 to 8) (size 9 to 14) (size 15 to 20)
#    0.000    2.600    0.000    2.400    2.800    3.200 
#    0.000    2.000    0.000   12.000    0.000    0.000 
#    0.000    0.000    0.000    0.000    0.000    0.000 
#
# Total GULP energy -222838.598234 kJ/mol
# GULP energy per Si atom -5570.964956 kJ/mol
# Density = 0.923818 g / cm^3
# Si number density = 9.259259 Si / 1000 Ang^3
#
#
#
# Elastic Constant Matrix: (Units=GPa)
#
#
# Indices 1 2 3 4 5 6 
#
# 1 88.1101 38.5647 38.4820 0.0000 0.0000 0.0000
# 2 38.5647 71.7032 54.1985 0.0000 0.0000 0.0000
# 3 38.4820 54.1985 144.4441 0.0000 0.0000 0.0000
# 4 0.0000 0.0000 0.0000 41.4004 0.0000 0.0000
# 5 0.0000 0.0000 0.0000 0.0000 28.1145 0.0000
# 6 0.0000 0.0000 0.0000 0.0000 0.0000 24.3707
#
#
#
# Elastic Compliance Matrix: (Units=1/GPa)
#
#
# Indices 1 2 3 4 5 6 
#
# 1 0.015032 -0.007060 -0.001356 0.000000 0.000000 0.000000
# 2 -0.007060 0.022784 -0.006668 0.000000 0.000000 0.000000
# 3 -0.001356 -0.006668 0.009786 0.000000 0.000000 0.000000
# 4 0.000000 0.000000 0.000000 0.024154 0.000000 0.000000
# 5 0.000000 0.000000 0.000000 0.000000 0.035569 0.000000
# 6 0.000000 0.000000 0.000000 0.000000 0.000000 0.041033
#
#
# Mechanical properties :
#
#
# Convention : Reuss Voigt Hill
#
# Bulk Modulus (GPa) = 57.35801 62.97198 60.16499
# Shear Modulus (GPa) = 27.12439 30.31127 28.71783
#
# Velocity S-wave (km/s) = 3.83131 4.05014 3.94224
# Velocity P-wave (km/s) = 7.11425 7.47999 7.29941
#
# Compressibility (1/GPa) = 0.01743436
#
# Stress axis : x y z
#
# Youngs Moduli (GPa) = 66.52686 43.89114 102.18433
#
# Poissons Ratio (x) = 0.30987 0.13852
# Poissons Ratio (y) = 0.46967 0.68137
# Poissons Ratio (z) = 0.09018 0.29267
#
# Static dielectric constant tensor:
#      x y z
#    x 1.659960 0.000000 0.000000 
#    y 0.000000 1.650710 0.000000 
#    z 0.000000 0.000000 1.651600 
# 
# From -- ./inp_files/62562.got.cif
#   From: 2010.05.17/outbox.ucp.g08.bks.cvg/sg63_32_cif.got.tgz:62562.got - 2010.06.11 16:32:19.
