data_PCOD9476561
_publ_section_title
;
Structure prediction by ZEFSAII (Michael W. Deem and Ramdas Pophale) SiO2 
 PCOD9476561
Probable space group: C M C A
;
_chemical_formula_sum "Si O2"
_cell_formula_units_Z 72
_cell_length_a 15.103389
_cell_length_b 14.811356
_cell_length_c 18.953834
_cell_angle_alpha 90.000000
_cell_angle_beta 90.000000
_cell_angle_gamma 90.000000
_cell_volume 4240.004343
_symmetry_space_group_name_H-M "C M C A"
_symmetry_group_IT_number 64
_symmetry_cell_setting 'orthorhombic'
loop_
_space_group_symop_operation_xyz
x,y,z
-x,1/2-y,1/2+z
x,-y,-z
-x,1/2+y,1/2-z
-x,-y,-z
x,1/2+y,1/2-z
-x,y,z
x,1/2-y,1/2+z
1/2+x,1/2+y,z
1/2-x,-y,1/2+z
1/2+x,1/2-y,-z
1/2-x,y,1/2-z
1/2-x,1/2-y,-z
1/2+x,y,1/2-z
1/2-x,1/2+y,z
1/2+x,-y,1/2+z
loop_
_atom_site_type_symbol
_atom_site_label
_atom_site_fract_x
_atom_site_fract_y
_atom_site_fract_z
Si Si1 0.000000 0.599288 0.220949
Si Si2 0.803516 0.847017 0.677011
Si Si3 0.686123 0.641238 0.813189
Si Si4 0.000000 0.406812 0.275956
Si Si5 0.808984 0.525712 0.420562
Si Si6 0.000000 0.934922 0.879274
O O1 0.907685 0.632654 0.188588
O O2 0.000000 0.489093 0.220389
O O3 0.000000 0.620605 0.305571
O O4 0.750000 0.866412 0.750000
O O5 0.789954 0.741100 0.661189
O O6 0.760552 0.908327 0.616867
O O7 0.750000 0.612213 0.750000
O O8 0.589428 0.648140 0.777253
O O9 0.687817 0.564823 0.872711
O O10 0.000000 0.462502 0.349547
O O11 0.786427 0.500000 0.500000
O O12 0.906789 0.572702 0.418672
#
# Coordination Sequence:
#
# PCOD9476561 Si02
#       6
#     8  16  16   8  16   8
#     4  10  17  32  60  78 108 133 181 232 272 324
#     4  11  20  34  56  82 107 142 182 231 278 323
#     4  10  20  33  54  81 107 138 186 227 273 324
#     4   8  15  30  50  75 103 129 166 221 272 307
#     4  11  21  36  55  79 114 147 182 226 277 335
#     4   8  17  32  57  77  99 138 180 225 270 311
#
# _framework density 16.981114000000002
#
# number of rings (size 3 to 8) (size 9 to 14) (size 15 to 20)
#    0.667    1.333    2.222    3.000    0.000    0.889 
#    0.000    0.556    0.000    0.000    0.000    0.000 
#    0.000    0.000    0.000    0.000    0.000    0.000 
#
# Total GULP energy -200432.195308 kJ/mol
# GULP energy per Si atom -5567.560981 kJ/mol
# Density = 1.694246 g / cm^3
# Si number density = 16.981114 Si / 1000 Ang^3
#
#
#
# Elastic Constant Matrix: (Units=GPa)
#
#
# Indices 1 2 3 4 5 6 
#
# 1 118.5703 27.9035 47.0712 0.0000 0.0000 0.0000
# 2 27.9035 78.3983 44.8102 0.0000 0.0000 0.0000
# 3 47.0712 44.8102 82.6200 0.0000 0.0000 0.0000
# 4 0.0000 0.0000 0.0000 5.4949 0.0000 0.0000
# 5 0.0000 0.0000 0.0000 0.0000 14.7508 0.0000
# 6 0.0000 0.0000 0.0000 0.0000 0.0000 26.0363
#
#
#
# Elastic Compliance Matrix: (Units=1/GPa)
#
#
# Indices 1 2 3 4 5 6 
#
# 1 0.010911 -0.000479 -0.005957 0.000000 0.000000 0.000000
# 2 -0.000479 0.018507 -0.009765 0.000000 0.000000 0.000000
# 3 -0.005957 -0.009765 0.020793 0.000000 0.000000 0.000000
# 4 0.000000 0.000000 0.000000 0.181986 0.000000 0.000000
# 5 0.000000 0.000000 0.000000 0.000000 0.067793 0.000000
# 6 0.000000 0.000000 0.000000 0.000000 0.000000 0.038408
#
#
# Mechanical properties :
#
#
# Convention : Reuss Voigt Hill
#
# Bulk Modulus (GPa) = 56.14508 57.68428 56.91468
# Shear Modulus (GPa) = 13.27188 19.90998 16.59093
#
# Velocity S-wave (km/s) = 2.79869 3.42786 3.12913
# Velocity P-wave (km/s) = 6.60140 7.05056 6.82968
#
# Compressibility (1/GPa) = 0.01781100
#
# Stress axis : x y z
#
# Youngs Moduli (GPa) = 91.64814 54.03344 48.09203
#
# Poissons Ratio (x) = 0.02587 0.28648
# Poissons Ratio (y) = 0.04388 0.46961
# Poissons Ratio (z) = 0.54593 0.52762
#
# Static dielectric constant tensor:
#      x y z
#    x 1.608440 0.000000 0.000000 
#    y 0.000000 1.579210 0.000000 
#    z 0.000000 0.000000 1.544220 
# 
# From -- ./inp_files/31957.got.cif
#   From: 2010.05.17/outbox.cif.g08.bks.cpg/sg64_16_cif.got.tgz:31957.got - 2010.06.03 16:29:19.
