data_PCOD9476353
_publ_section_title
;
Structure prediction by ZEFSAII (Michael W. Deem and Ramdas Pophale) SiO2 
 PCOD9476353
Probable space group: C M C A
;
_chemical_formula_sum "Si O2"
_cell_formula_units_Z 88
_cell_length_a 9.275012
_cell_length_b 20.683239
_cell_length_c 25.379529
_cell_angle_alpha 90.000000
_cell_angle_beta 90.000000
_cell_angle_gamma 90.000000
_cell_volume 4868.740063
_symmetry_space_group_name_H-M "C M C A"
_symmetry_group_IT_number 64
_symmetry_cell_setting 'orthorhombic'
loop_
_space_group_symop_operation_xyz
x,y,z
-x,1/2-y,1/2+z
x,-y,-z
-x,1/2+y,1/2-z
-x,-y,-z
x,1/2+y,1/2-z
-x,y,z
x,1/2-y,1/2+z
1/2+x,1/2+y,z
1/2-x,-y,1/2+z
1/2+x,1/2-y,-z
1/2-x,y,1/2-z
1/2-x,1/2-y,-z
1/2+x,y,1/2-z
1/2-x,1/2+y,z
1/2+x,-y,1/2+z
loop_
_atom_site_type_symbol
_atom_site_label
_atom_site_fract_x
_atom_site_fract_y
_atom_site_fract_z
Si Si1 0.334220 0.028782 0.616240
Si Si2 0.675020 0.083943 0.305973
Si Si3 0.338033 0.145853 0.010731
Si Si4 0.326499 0.831246 0.406102
Si Si5 0.826956 0.308750 0.871529
Si Si6 0.244390 0.500000 0.000000
O O1 0.500000 0.035452 0.632204
O O2 0.270051 0.101032 0.617933
O O3 0.328520 0.007540 0.555043
O O4 0.275212 0.973087 0.653878
O O5 0.500000 0.085192 0.302549
O O6 0.750000 0.073183 0.250000
O O7 0.735414 0.150320 0.330460
O O8 0.500000 0.170511 0.002384
O O9 0.294149 0.164935 0.069619
O O10 0.236280 0.172778 0.965028
O O11 0.337630 0.067867 0.005810
O O12 0.500000 0.834969 0.410402
O O13 0.292478 0.767354 0.373234
O O14 0.000000 0.316951 0.862858
#
# Coordination Sequence:
#
# PCOD9476353 Si02
#       6
#    16  16  16  16  16   8
#     4   9  18  33  55  82 110 142 183 227 275 331
#     4  11  23  40  60  82 106 141 186 233 277 327
#     4  10  19  29  47  79 117 151 182 220 273 328
#     4   9  19  34  54  79 112 148 182 222 272 330
#     4  10  20  36  55  79 111 148 185 227 274 323
#     4  10  16  30  50  80 115 146 185 222 281 332
#
# _framework density 18.074491999999999
#
# number of rings (size 3 to 8) (size 9 to 14) (size 15 to 20)
#    0.000    2.182    1.818    1.636    0.000    2.182 
#    0.000    1.818    0.000    2.182    0.000    0.000 
#    0.000    0.000    0.000    0.000    0.000    0.000 
#
# Total GULP energy -245191.977479 kJ/mol
# GULP energy per Si atom -5572.544943 kJ/mol
# Density = 1.803335 g / cm^3
# Si number density = 18.074492 Si / 1000 Ang^3
#
#
#
# Elastic Constant Matrix: (Units=GPa)
#
#
# Indices 1 2 3 4 5 6 
#
# 1 36.2273 27.9763 29.6824 0.0000 0.0000 0.0000
# 2 27.9763 114.0526 63.3062 0.0000 0.0000 0.0000
# 3 29.6824 63.3062 98.7483 0.0000 0.0000 0.0000
# 4 0.0000 0.0000 0.0000 22.1666 0.0000 0.0000
# 5 0.0000 0.0000 0.0000 0.0000 26.1760 0.0000
# 6 0.0000 0.0000 0.0000 0.0000 0.0000 20.1822
#
#
#
# Elastic Compliance Matrix: (Units=1/GPa)
#
#
# Indices 1 2 3 4 5 6 
#
# 1 0.038145 -0.004646 -0.008488 0.000000 0.000000 0.000000
# 2 -0.004646 0.014177 -0.007692 0.000000 0.000000 0.000000
# 3 -0.008488 -0.007692 0.017610 0.000000 0.000000 0.000000
# 4 0.000000 0.000000 0.000000 0.045113 0.000000 0.000000
# 5 0.000000 0.000000 0.000000 0.000000 0.038203 0.000000
# 6 0.000000 0.000000 0.000000 0.000000 0.000000 0.049549
#
#
# Mechanical properties :
#
#
# Convention : Reuss Voigt Hill
#
# Bulk Modulus (GPa) = 35.35989 54.55090 44.95539
# Shear Modulus (GPa) = 19.69474 22.24251 20.96862
#
# Velocity S-wave (km/s) = 3.30455 3.51180 3.40975
# Velocity P-wave (km/s) = 5.84517 6.83303 6.35831
#
# Compressibility (1/GPa) = 0.02828063
#
# Stress axis : x y z
#
# Youngs Moduli (GPa) = 26.21549 70.53599 56.78736
#
# Poissons Ratio (x) = 0.32768 0.48200
# Poissons Ratio (y) = 0.12179 0.43683
# Poissons Ratio (z) = 0.22251 0.54259
#
# Static dielectric constant tensor:
#      x y z
#    x 1.624490 0.000000 0.000000 
#    y 0.000000 1.670300 0.000000 
#    z 0.000000 0.000000 1.592420 
# 
# From -- ./inp_files/42823.got.cif
#   From: 2010.05.17/outbox.cif.g08.bks.cpg/sg64_22_cif.got.tgz:42823.got - 2010.06.03 16:29:19.
