data_PCOD9476633
_publ_section_title
;
Structure prediction by ZEFSAII (Michael W. Deem and Ramdas Pophale) SiO2 
 PCOD9476633
Probable space group: C M C A
;
_chemical_formula_sum "Si O2"
_cell_formula_units_Z 128
_cell_length_a 26.127624
_cell_length_b 10.293168
_cell_length_c 24.133271
_cell_angle_alpha 90.000000
_cell_angle_beta 90.000000
_cell_angle_gamma 90.000000
_cell_volume 6490.305931
_symmetry_space_group_name_H-M "C M C A"
_symmetry_group_IT_number 64
_symmetry_cell_setting 'orthorhombic'
loop_
_space_group_symop_operation_xyz
x,y,z
-x,1/2-y,1/2+z
x,-y,-z
-x,1/2+y,1/2-z
-x,-y,-z
x,1/2+y,1/2-z
-x,y,z
x,1/2-y,1/2+z
1/2+x,1/2+y,z
1/2-x,-y,1/2+z
1/2+x,1/2-y,-z
1/2-x,y,1/2-z
1/2-x,1/2-y,-z
1/2+x,y,1/2-z
1/2-x,1/2+y,z
1/2+x,-y,1/2+z
loop_
_atom_site_type_symbol
_atom_site_label
_atom_site_fract_x
_atom_site_fract_y
_atom_site_fract_z
Si Si1 0.685168 0.125912 0.868950
Si Si2 0.361054 0.915771 0.946383
Si Si3 0.117567 0.241256 0.717503
Si Si4 0.441386 0.965571 0.771047
Si Si5 0.559322 0.731720 0.375088
Si Si6 0.272145 0.267930 0.592101
Si Si7 0.262965 0.046332 0.309439
Si Si8 0.850256 0.135778 0.825512
O O1 0.649101 0.229598 0.838925
O O2 0.723057 0.177864 0.917015
O O3 0.722823 0.071709 0.820706
O O4 0.651424 0.012125 0.895100
O O5 0.407509 0.823770 0.926480
O O6 0.306726 0.839718 0.953067
O O7 0.373607 0.000000 0.000000
O O8 0.082210 0.366227 0.726041
O O9 0.152079 0.232445 0.773033
O O10 0.087785 0.102059 0.722297
O O11 0.500000 0.994730 0.757580
O O12 0.440024 0.880878 0.827798
O O13 0.500000 0.761196 0.387200
O O14 0.591988 0.850671 0.348424
O O15 0.248955 0.366931 0.637403
O O16 0.314871 0.187193 0.625073
O O17 0.250000 0.104497 0.250000
O O18 0.320950 0.994361 0.308323
#
# Coordination Sequence:
#
# PCOD9476633 Si02
#       8
#    16  16  16  16  16  16  16  16
#     4  10  20  32  47  77 105 142 180 222 273 329
#     4  10  20  37  55  75 103 137 185 243 292 334
#     4  11  20  31  53  76 111 149 185 221 265 331
#     4  10  21  35  51  75 111 150 185 222 274 330
#     4   9  18  35  54  73 103 135 177 234 280 327
#     4   9  21  32  48  75 109 140 181 217 278 326
#     4  10  18  27  46  71 108 142 174 210 252 322
#     4   9  19  30  45  75 106 143 171 214 258 324
#
# _framework density 19.721720000000001
#
# number of rings (size 3 to 8) (size 9 to 14) (size 15 to 20)
#    0.000    2.250    2.500    0.375    5.250    1.250 
#    0.000    0.000    0.000    0.000    0.000    0.000 
#    0.000    1.000    0.000    0.000    0.000    0.000 
#
# Total GULP energy -356603.115968 kJ/mol
# GULP energy per Si atom -5571.923687 kJ/mol
# Density = 1.967683 g / cm^3
# Si number density = 19.721720 Si / 1000 Ang^3
#
#
#
# Elastic Constant Matrix: (Units=GPa)
#
#
# Indices 1 2 3 4 5 6 
#
# 1 136.7508 40.2274 20.4819 0.0000 0.0000 0.0000
# 2 40.2274 51.4632 -6.0698 0.0000 0.0000 0.0000
# 3 20.4819 -6.0698 36.6650 0.0000 0.0000 0.0000
# 4 0.0000 0.0000 0.0000 10.1495 0.0000 0.0000
# 5 0.0000 0.0000 0.0000 0.0000 13.0918 0.0000
# 6 0.0000 0.0000 0.0000 0.0000 0.0000 9.0531
#
#
#
# Elastic Compliance Matrix: (Units=1/GPa)
#
#
# Indices 1 2 3 4 5 6 
#
# 1 0.011415 -0.009868 -0.008010 0.000000 0.000000 0.000000
# 2 -0.009868 0.028348 0.010205 0.000000 0.000000 0.000000
# 3 -0.008010 0.010205 0.033438 0.000000 0.000000 0.000000
# 4 0.000000 0.000000 0.000000 0.098527 0.000000 0.000000
# 5 0.000000 0.000000 0.000000 0.000000 0.076384 0.000000
# 6 0.000000 0.000000 0.000000 0.000000 0.000000 0.110459
#
#
# Mechanical properties :
#
#
# Convention : Reuss Voigt Hill
#
# Bulk Modulus (GPa) = 17.28422 37.12865 27.20643
# Shear Modulus (GPa) = 12.71613 17.80819 15.26216
#
# Velocity S-wave (km/s) = 2.54200 3.00821 2.78488
# Velocity P-wave (km/s) = 4.17118 5.56174 4.91588
#
# Compressibility (1/GPa) = 0.05785625
#
# Stress axis : x y z
#
# Youngs Moduli (GPa) = 87.60396 35.27559 29.90597
#
# Poissons Ratio (x) = 0.34808 0.23955
# Poissons Ratio (y) = 0.86444 -0.30520
# Poissons Ratio (z) = 0.70173 -0.36000
#
# Static dielectric constant tensor:
#      x y z
#    x 1.740830 0.000000 0.000000 
#    y 0.000000 1.780210 0.000000 
#    z 0.000000 0.000000 1.708230 
# 
# From -- ./inp_files/46758.got.cif
#   From: 2010.05.17/outbox.cif.g08.bks.cpg/sg64_24_cif.got.tgz:46758.got - 2010.06.03 16:29:19.
