data_PCOD9476662
_publ_section_title
;
Structure prediction by ZEFSAII (Michael W. Deem and Ramdas Pophale) SiO2 
 PCOD9476662
Probable space group: C M C A
;
_chemical_formula_sum "Si O2"
_cell_formula_units_Z 120
_cell_length_a 18.389119
_cell_length_b 18.732782
_cell_length_c 20.376958
_cell_angle_alpha 90.000000
_cell_angle_beta 90.000000
_cell_angle_gamma 90.000000
_cell_volume 7019.441398
_symmetry_space_group_name_H-M "C M C A"
_symmetry_group_IT_number 64
_symmetry_cell_setting 'orthorhombic'
loop_
_space_group_symop_operation_xyz
x,y,z
-x,1/2-y,1/2+z
x,-y,-z
-x,1/2+y,1/2-z
-x,-y,-z
x,1/2+y,1/2-z
-x,y,z
x,1/2-y,1/2+z
1/2+x,1/2+y,z
1/2-x,-y,1/2+z
1/2+x,1/2-y,-z
1/2-x,y,1/2-z
1/2-x,1/2-y,-z
1/2+x,y,1/2-z
1/2-x,1/2+y,z
1/2+x,-y,1/2+z
loop_
_atom_site_type_symbol
_atom_site_label
_atom_site_fract_x
_atom_site_fract_y
_atom_site_fract_z
Si Si1 0.413983 0.900769 0.258421
Si Si2 0.916591 0.082483 0.511251
Si Si3 0.702093 0.112104 0.081999
Si Si4 0.768683 0.741718 0.923156
Si Si5 0.800481 0.000000 0.000000
Si Si6 0.311026 0.096949 0.620014
Si Si7 0.915832 0.181849 0.628780
Si Si8 0.303684 0.494277 0.693979
O O1 0.500000 0.911748 0.264849
O O2 0.374496 0.888823 0.327647
O O3 0.402900 0.837780 0.204684
O O4 0.372263 0.968161 0.227036
O O5 0.864102 0.129221 0.466639
O O6 0.910414 0.108534 0.585934
O O7 0.000000 0.090547 0.491294
O O8 0.896364 0.000000 0.500000
O O9 0.740885 0.183477 0.105699
O O10 0.674804 0.065454 0.142454
O O11 0.754194 0.060019 0.039262
O O12 0.724810 0.671468 0.901155
O O13 0.852580 0.730193 0.902042
O O14 0.750000 0.750000 0.000000
O O15 0.836106 0.047728 0.941781
O O16 0.246487 0.052947 0.656549
O O17 0.000000 0.206641 0.620942
O O18 0.250000 0.464582 0.750000
#
# Coordination Sequence:
#
# PCOD9476662 Si02
#       8
#    16  16  16  16   8  16  16  16
#     4  10  20  37  62  85 114 156 197 237 288 357
#     4  10  18  28  48  82 117 143 176 233 298 346
#     4  11  20  32  55  83 114 147 192 240 297 346
#     4  12  21  35  56  86 113 153 195 244 296 357
#     4  10  18  34  58  80 116 140 188 250 288 338
#     4  10  20  36  58  87 113 148 195 240 290 351
#     4  10  20  35  54  82 115 149 192 239 294 354
#     4   9  19  36  56  82 111 144 190 245 287 343
#
# _framework density 17.095378
#
# number of rings (size 3 to 8) (size 9 to 14) (size 15 to 20)
#    0.000    1.733    4.667    0.800    0.000    1.600 
#    2.400    1.667    0.000    7.200    0.000    0.000 
#    0.000    0.000    0.000    0.000    0.000    0.000 
#
# Total GULP energy -334297.751377 kJ/mol
# GULP energy per Si atom -5571.629190 kJ/mol
# Density = 1.705647 g / cm^3
# Si number density = 17.095378 Si / 1000 Ang^3
#
#
#
# Elastic Constant Matrix: (Units=GPa)
#
#
# Indices 1 2 3 4 5 6 
#
# 1 110.8555 31.1822 51.4894 0.0000 0.0000 0.0000
# 2 31.1822 68.9266 25.9800 0.0000 0.0000 0.0000
# 3 51.4894 25.9800 106.9709 0.0000 0.0000 0.0000
# 4 0.0000 0.0000 0.0000 19.6217 0.0000 0.0000
# 5 0.0000 0.0000 0.0000 0.0000 25.5983 0.0000
# 6 0.0000 0.0000 0.0000 0.0000 0.0000 20.9674
#
#
#
# Elastic Compliance Matrix: (Units=1/GPa)
#
#
# Indices 1 2 3 4 5 6 
#
# 1 0.012422 -0.003705 -0.005079 0.000000 0.000000 0.000000
# 2 -0.003705 0.017075 -0.002364 0.000000 0.000000 0.000000
# 3 -0.005079 -0.002364 0.012367 0.000000 0.000000 0.000000
# 4 0.000000 0.000000 0.000000 0.050964 0.000000 0.000000
# 5 0.000000 0.000000 0.000000 0.000000 0.039065 0.000000
# 6 0.000000 0.000000 0.000000 0.000000 0.000000 0.047693
#
#
# Mechanical properties :
#
#
# Convention : Reuss Voigt Hill
#
# Bulk Modulus (GPa) = 51.10294 56.00623 53.55458
# Shear Modulus (GPa) = 23.99161 25.11093 24.55127
#
# Velocity S-wave (km/s) = 3.75026 3.83674 3.79375
# Velocity P-wave (km/s) = 6.97928 7.24290 7.11231
#
# Compressibility (1/GPa) = 0.01956835
#
# Stress axis : x y z
#
# Youngs Moduli (GPa) = 80.50071 58.56410 80.85824
#
# Poissons Ratio (x) = 0.21699 0.41071
# Poissons Ratio (y) = 0.29827 0.19112
# Poissons Ratio (z) = 0.40890 0.13842
#
# Static dielectric constant tensor:
#      x y z
#    x 1.577620 0.000000 0.000000 
#    y 0.000000 1.599130 0.000000 
#    z 0.000000 0.000000 1.626320 
# 
# From -- ./inp_files/40440.got.cif
#   From: 2010.05.17/outbox.cif.g08.bks.cpg/sg64_21_cif.got.tgz:40440.got - 2010.06.03 16:29:19.
