data_PCOD9476141
_publ_section_title
;
Structure prediction by ZEFSAII (Michael W. Deem and Ramdas Pophale) SiO2 
 PCOD9476141
Probable space group: C M C M
;
_chemical_formula_sum "Si O2"
_cell_formula_units_Z 48
_cell_length_a 24.000000
_cell_length_b 24.000000
_cell_length_c 9.000000
_cell_angle_alpha 90.000000
_cell_angle_beta 90.000000
_cell_angle_gamma 90.000000
_cell_volume 5184.000000
_symmetry_space_group_name_H-M "C M C M"
_symmetry_group_IT_number 63
_symmetry_cell_setting 'orthorhombic'
loop_
_space_group_symop_operation_xyz
x,y,z
-x,-y,1/2+z
x,-y,-z
-x,y,1/2-z
-x,-y,-z
x,y,1/2-z
-x,y,z
x,-y,1/2+z
1/2+x,1/2+y,z
1/2-x,1/2-y,1/2+z
1/2+x,1/2-y,-z
1/2-x,1/2+y,1/2-z
1/2-x,1/2-y,-z
1/2+x,1/2+y,1/2-z
1/2-x,1/2+y,z
1/2+x,1/2-y,1/2+z
loop_
_atom_site_type_symbol
_atom_site_label
_atom_site_fract_x
_atom_site_fract_y
_atom_site_fract_z
Si Si1 0.860299 0.160789 0.068918
Si Si2 0.333742 0.947273 0.578637
Si Si3 0.563548 0.108630 0.929413
Si Si4 0.627988 0.218600 0.928267
Si Si5 0.732946 0.832546 0.923417
Si Si6 0.935421 0.940888 0.928964
O O1 0.859375 0.158193 0.250000
O O2 0.888309 0.219287 0.026174
O O3 0.795980 0.163594 0.020786
O O4 0.894542 0.107621 0.017567
O O5 0.344489 0.959340 0.750000
O O6 0.391707 0.933107 0.497887
O O7 0.294468 0.893670 0.568447
O O8 0.306968 0.000000 0.500000
O O9 0.565669 0.105523 0.750000
O O10 0.500000 0.099406 0.976357
O O11 0.585913 0.169939 0.975675
O O12 0.630189 0.216730 0.750000
O O13 0.689814 0.205680 0.988014
O O14 0.733823 0.815242 0.750000
O O15 0.931558 0.944886 0.750000
O O16 0.000000 0.928054 0.965177
O O17 0.921225 0.000000 0.000000
#
# Coordination Sequence:
#
# PCOD9476141 Si02
#       6
#    16  16  16  16  16  16
#     4   9  17  30  50  74  97 124 158 192 229 278
#     4  10  20  33  49  68  92 124 160 197 237 279
#     4   9  18  32  49  70  96 124 155 193 235 278
#     4   9  17  30  49  72  97 124 155 192 232 275
#     4   9  18  32  48  68  97 128 155 189 235 281
#     4   9  18  33  51  70  95 126 158 194 235 276
#
# _framework density 9.2592590000000001
#
# number of rings (size 3 to 8) (size 9 to 14) (size 15 to 20)
#    0.000    2.833    0.000    1.000    0.000    2.667 
#    0.000    5.000    0.000    0.000    0.000    2.333 
#    0.000    0.000    0.000    0.000    0.000    0.000 
#
# Total GULP energy -267519.822646 kJ/mol
# GULP energy per Si atom -5573.329638 kJ/mol
# Density = 0.923818 g / cm^3
# Si number density = 9.259259 Si / 1000 Ang^3
#
#
#
# Elastic Constant Matrix: (Units=GPa)
#
#
# Indices 1 2 3 4 5 6 
#
# 1 8.5774 10.9353 5.4516 0.0000 0.0000 0.0000
# 2 10.9353 82.2594 19.9335 0.0000 0.0000 0.0000
# 3 5.4516 19.9335 5.9240 0.0000 0.0000 0.0000
# 4 0.0000 0.0000 0.0000 17.2451 0.0000 0.0000
# 5 0.0000 0.0000 0.0000 0.0000 14.4626 0.0000
# 6 0.0000 0.0000 0.0000 0.0000 0.0000 6.4503
#
#
#
# Elastic Compliance Matrix: (Units=1/GPa)
#
#
# Indices 1 2 3 4 5 6 
#
# 1 -18.601716 -9.074876 47.653961 0.000000 0.000000 0.000000
# 2 -9.074876 -4.361343 23.026486 0.000000 0.000000 0.000000
# 3 47.653961 23.026486********** 0.000000 0.000000 0.000000
# 4 0.000000 0.000000 0.000000 0.057988 0.000000 0.000000
# 5 0.000000 0.000000 0.000000 0.000000 0.069144 0.000000
# 6 0.000000 0.000000 0.000000 0.000000 0.000000 0.155031
#
#
# Mechanical properties :
#
#
# Convention : Reuss Voigt Hill
#
# Bulk Modulus (GPa) = -0.04781 18.82242 9.38731
# Shear Modulus (GPa) = -0.01825 11.66096 5.82136
#
# Velocity S-wave (km/s) = -0.09937 2.51209 1.77492
# Velocity P-wave (km/s) = 0.19758 4.31281 3.04641
#
# Compressibility (1/GPa) = -20.91768638
#
# Stress axis : x y z
#
# Youngs Moduli (GPa) = -0.05376 -0.22929 -0.00825
#
# Poissons Ratio (x) = -2.08075 0.39330
# Poissons Ratio (y) = -0.48785 0.19004
# Poissons Ratio (z) = 2.56180 5.27968
#
# Static dielectric constant tensor:
#      x y z
#    x 1.613780 0.000000 0.000000 
#    y 0.000000 1.665470 0.000000 
#    z 0.000000 0.000000 1.630760 
# 
# From -- ./inp_files/10464.got.cif
#   From: 2010.05.17/outbox.ucp.g08.bks.cvg/sg63_6_cif.got.tgz:10464.got - 2010.06.11 16:32:19.
