data_PCOD9476293
_publ_section_title
;
Structure prediction by ZEFSAII (Michael W. Deem and Ramdas Pophale) SiO2 
 PCOD9476293
Probable space group: C M C A
;
_chemical_formula_sum "Si O2"
_cell_formula_units_Z 104
_cell_length_a 20.999969
_cell_length_b 15.008181
_cell_length_c 14.944835
_cell_angle_alpha 90.000000
_cell_angle_beta 90.000000
_cell_angle_gamma 90.000000
_cell_volume 4710.183609
_symmetry_space_group_name_H-M "C M C A"
_symmetry_group_IT_number 64
_symmetry_cell_setting 'orthorhombic'
loop_
_space_group_symop_operation_xyz
x,y,z
-x,1/2-y,1/2+z
x,-y,-z
-x,1/2+y,1/2-z
-x,-y,-z
x,1/2+y,1/2-z
-x,y,z
x,1/2-y,1/2+z
1/2+x,1/2+y,z
1/2-x,-y,1/2+z
1/2+x,1/2-y,-z
1/2-x,y,1/2-z
1/2-x,1/2-y,-z
1/2+x,y,1/2-z
1/2-x,1/2+y,z
1/2+x,-y,1/2+z
loop_
_atom_site_type_symbol
_atom_site_label
_atom_site_fract_x
_atom_site_fract_y
_atom_site_fract_z
Si Si1 0.000000 0.250002 0.597261
Si Si2 0.103303 0.611005 0.339330
Si Si3 0.205092 0.749999 0.368619
Si Si4 0.396698 0.888993 0.160667
Si Si5 0.842370 0.749999 0.072172
Si Si6 0.926185 0.914517 0.631875
Si Si7 0.573815 0.585486 0.868122
O O1 0.055523 0.326960 0.605997
O O2 0.055523 0.173044 0.605995
O O3 0.170549 0.661514 0.332039
O O4 0.075687 0.603859 0.238781
O O5 0.103682 0.512313 0.379911
O O6 0.170549 0.838484 0.332041
O O7 0.185634 0.749998 0.473131
O O8 0.281001 0.749999 0.362463
O O9 0.424313 0.896139 0.261217
O O10 0.396319 0.987684 0.120086
O O11 0.885480 0.663548 0.088267
O O12 0.885481 0.836448 0.088270
O O13 0.000000 0.912997 0.603035
O O14 0.500000 0.587003 0.896963
#
# Coordination Sequence:
#
# PCOD9476293 Si02
#       7
#     8  16  16  16  16  16  16
#     4  10  14  32  58  90 116 150 172 238 282 372
#     4  10  20  37  67  87 123 151 200 238 314 352
#     4  10  25  44  57  85 114 181 199 249 291 355
#     4  10  20  37  67  87 123 151 200 238 314 352
#     4  11  25  42  59  80 132 158 216 239 296 349
#     4  11  21  39  61  99 119 155 189 261 299 364
#     4  11  21  39  61  99 119 155 189 261 299 364
#
# _framework density 22.079819000000001
#
# number of rings (size 3 to 8) (size 9 to 14) (size 15 to 20)
#    0.000    1.538    3.077    3.231    0.000    4.923 
#   11.077    7.692    0.000    0.000    0.000    0.000 
#    0.000    0.000    0.000    0.000    0.000    0.000 
#
# Total GULP energy -289945.806526 kJ/mol
# GULP energy per Si atom -5575.880895 kJ/mol
# Density = 2.202956 g / cm^3
# Si number density = 22.079819 Si / 1000 Ang^3
#
#
#
# Elastic Constant Matrix: (Units=GPa)
#
#
# Indices 1 2 3 4 5 6 
#
# 1 119.1054 85.4186 17.0391 0.0000 0.0000 0.0000
# 2 85.4186 227.0530 29.6760 0.0000 0.0000 0.0000
# 3 17.0391 29.6760 45.3280 0.0000 0.0000 0.0000
# 4 0.0000 0.0000 0.0000 41.9526 0.0000 0.0000
# 5 0.0000 0.0000 0.0000 0.0000 21.7252 0.0000
# 6 0.0000 0.0000 0.0000 0.0000 0.0000 9.6109
#
#
#
# Elastic Compliance Matrix: (Units=1/GPa)
#
#
# Indices 1 2 3 4 5 6 
#
# 1 0.011609 -0.004152 -0.001645 0.000000 0.000000 0.000000
# 2 -0.004152 0.006302 -0.002565 0.000000 0.000000 0.000000
# 3 -0.001645 -0.002565 0.024359 0.000000 0.000000 0.000000
# 4 0.000000 0.000000 0.000000 0.023836 0.000000 0.000000
# 5 0.000000 0.000000 0.000000 0.000000 0.046030 0.000000
# 6 0.000000 0.000000 0.000000 0.000000 0.000000 0.104048
#
#
# Mechanical properties :
#
#
# Convention : Reuss Voigt Hill
#
# Bulk Modulus (GPa) = 39.14687 72.86154 56.00420
# Shear Modulus (GPa) = 20.71044 31.94794 26.32919
#
# Velocity S-wave (km/s) = 3.06597 3.80798 3.45694
# Velocity P-wave (km/s) = 5.50470 7.23913 6.43066
#
# Compressibility (1/GPa) = 0.02554483
#
# Stress axis : x y z
#
# Youngs Moduli (GPa) = 86.13777 158.68896 41.05248
#
# Poissons Ratio (x) = 0.65894 0.06755
# Poissons Ratio (y) = 0.35768 0.10529
# Poissons Ratio (z) = 0.14173 0.40699
#
# Static dielectric constant tensor:
#      x y z
#    x 1.796520 0.000000 0.000000 
#    y 0.000000 1.784120 0.000000 
#    z 0.000000 0.000000 1.902400 
# 
# From -- ./inp_files/34352.got.cif
#   From: 2010.05.17/outbox.cif.g08.bks.cpg/sg64_18_cif.got.tgz:34352.got - 2010.06.03 16:29:19.
