data_PCOD9476333
_publ_section_title
;
Structure prediction by ZEFSAII (Michael W. Deem and Ramdas Pophale) SiO2 
 PCOD9476333
Probable space group: C M C A
;
_chemical_formula_sum "Si O2"
_cell_formula_units_Z 80
_cell_length_a 20.791899
_cell_length_b 8.035261
_cell_length_c 20.756136
_cell_angle_alpha 90.000000
_cell_angle_beta 90.000000
_cell_angle_gamma 90.000000
_cell_volume 3467.693086
_symmetry_space_group_name_H-M "C M C A"
_symmetry_group_IT_number 64
_symmetry_cell_setting 'orthorhombic'
loop_
_space_group_symop_operation_xyz
x,y,z
-x,1/2-y,1/2+z
x,-y,-z
-x,1/2+y,1/2-z
-x,-y,-z
x,1/2+y,1/2-z
-x,y,z
x,1/2-y,1/2+z
1/2+x,1/2+y,z
1/2-x,-y,1/2+z
1/2+x,1/2-y,-z
1/2-x,y,1/2-z
1/2-x,1/2-y,-z
1/2+x,y,1/2-z
1/2-x,1/2+y,z
1/2+x,-y,1/2+z
loop_
_atom_site_type_symbol
_atom_site_label
_atom_site_fract_x
_atom_site_fract_y
_atom_site_fract_z
Si Si1 0.617419 0.323389 0.583404
Si Si2 0.000000 0.473348 0.225429
Si Si3 0.381043 0.255437 0.814482
Si Si4 0.000000 0.178729 0.849388
Si Si5 0.077238 0.795444 0.445904
Si Si6 0.312729 0.935264 0.794101
O O1 0.563923 0.198783 0.610139
O O2 0.622264 0.272705 0.508582
O O3 0.587207 0.510693 0.575992
O O4 0.672655 0.337855 0.638550
O O5 0.940335 0.361822 0.203585
O O6 0.000000 0.651978 0.193247
O O7 0.000000 0.477485 0.302599
O O8 0.395975 0.312320 0.886600
O O9 0.367479 0.383286 0.757669
O O10 0.320844 0.127777 0.813167
O O11 0.000000 0.770995 0.457577
O O12 0.250000 0.914885 0.750000
#
# Coordination Sequence:
#
# PCOD9476333 Si02
#       6
#    16   8  16   8  16  16
#     4  10  17  30  52  80 109 140 176 228 272 313
#     4  12  18  31  52  91 110 133 173 231 293 319
#     4  11  20  35  57  85 110 138 180 233 278 321
#     4  12  18  30  53  86 117 133 171 229 289 329
#     4  10  16  28  54  86 112 126 176 235 283 316
#     4  11  23  37  53  77 111 153 188 215 260 323
#
# _framework density 23.070091000000001
#
# number of rings (size 3 to 8) (size 9 to 14) (size 15 to 20)
#    0.000    1.200    9.000    1.200    0.000    0.000 
#    0.000    1.000    0.000    3.600    0.000    4.200 
#    0.000    0.000    0.000    0.000    0.000    0.000 
#
# Total GULP energy -223171.643337 kJ/mol
# GULP energy per Si atom -5579.291083 kJ/mol
# Density = 2.301758 g / cm^3
# Si number density = 23.070091 Si / 1000 Ang^3
#
#
#
# Elastic Constant Matrix: (Units=GPa)
#
#
# Indices 1 2 3 4 5 6 
#
# 1 96.5501 12.0901 53.7254 0.0000 0.0000 0.0000
# 2 12.0901 49.7347 30.7920 0.0000 0.0000 0.0000
# 3 53.7254 30.7920 212.3963 0.0000 0.0000 0.0000
# 4 0.0000 0.0000 0.0000 28.2744 0.0000 0.0000
# 5 0.0000 0.0000 0.0000 0.0000 34.3929 0.0000
# 6 0.0000 0.0000 0.0000 0.0000 0.0000 7.5934
#
#
#
# Elastic Compliance Matrix: (Units=1/GPa)
#
#
# Indices 1 2 3 4 5 6 
#
# 1 0.012114 -0.001151 -0.002897 0.000000 0.000000 0.000000
# 2 -0.001151 0.022199 -0.002927 0.000000 0.000000 0.000000
# 3 -0.002897 -0.002927 0.005865 0.000000 0.000000 0.000000
# 4 0.000000 0.000000 0.000000 0.035368 0.000000 0.000000
# 5 0.000000 0.000000 0.000000 0.000000 0.029076 0.000000
# 6 0.000000 0.000000 0.000000 0.000000 0.000000 0.131694
#
#
# Mechanical properties :
#
#
# Convention : Reuss Voigt Hill
#
# Bulk Modulus (GPa) = 38.12850 61.32178 49.72514
# Shear Modulus (GPa) = 19.30441 31.52370 25.41405
#
# Velocity S-wave (km/s) = 2.89584 3.70054 3.32264
# Velocity P-wave (km/s) = 5.26729 6.70052 6.02666
#
# Compressibility (1/GPa) = 0.02622710
#
# Stress axis : x y z
#
# Youngs Moduli (GPa) = 82.55165 45.04760 170.49142
#
# Poissons Ratio (x) = 0.05185 0.49396
# Poissons Ratio (y) = 0.09501 0.49905
# Poissons Ratio (z) = 0.23917 0.13186
#
# Static dielectric constant tensor:
#      x y z
#    x 1.979390 0.000000 0.000000 
#    y 0.000000 1.876690 0.000000 
#    z 0.000000 0.000000 1.995530 
# 
# From -- ./inp_files/34075.got.cif
#   From: 2010.05.17/outbox.cif.g08.bks.cpg/sg64_18_cif.got.tgz:34075.got - 2010.06.03 16:29:19.
