data_PCOD9476936
_publ_section_title
;
Structure prediction by ZEFSAII (Michael W. Deem and Ramdas Pophale) SiO2 
 PCOD9476936
Probable space group: C M C A
;
_chemical_formula_sum "Si O2"
_cell_formula_units_Z 96
_cell_length_a 19.184053
_cell_length_b 11.750564
_cell_length_c 22.877835
_cell_angle_alpha 90.000000
_cell_angle_beta 90.000000
_cell_angle_gamma 90.000000
_cell_volume 5157.200324
_symmetry_space_group_name_H-M "C M C A"
_symmetry_group_IT_number 64
_symmetry_cell_setting 'orthorhombic'
loop_
_space_group_symop_operation_xyz
x,y,z
-x,1/2-y,1/2+z
x,-y,-z
-x,1/2+y,1/2-z
-x,-y,-z
x,1/2+y,1/2-z
-x,y,z
x,1/2-y,1/2+z
1/2+x,1/2+y,z
1/2-x,-y,1/2+z
1/2+x,1/2-y,-z
1/2-x,y,1/2-z
1/2-x,1/2-y,-z
1/2+x,y,1/2-z
1/2-x,1/2+y,z
1/2+x,-y,1/2+z
loop_
_atom_site_type_symbol
_atom_site_label
_atom_site_fract_x
_atom_site_fract_y
_atom_site_fract_z
Si Si1 0.324176 0.243657 0.075998
Si Si2 0.196793 0.979555 0.634762
Si Si3 0.830144 0.842652 0.263644
Si Si4 0.641863 0.457226 0.143070
Si Si5 0.334915 0.322013 0.445533
Si Si6 0.079952 0.804165 0.848040
O O1 0.361388 0.360846 0.093385
O O2 0.241534 0.269963 0.069300
O O3 0.329019 0.148438 0.126405
O O4 0.348033 0.195839 0.013677
O O5 0.171789 0.051920 0.690440
O O6 0.280759 0.986852 0.637637
O O7 0.171660 0.049663 0.577808
O O8 0.750000 0.809136 0.250000
O O9 0.861603 0.889486 0.203902
O O10 0.872061 0.742192 0.295056
O O11 0.589461 0.561470 0.142763
O O12 0.390918 0.257976 0.405735
O O13 0.000000 0.774654 0.837176
#
# Coordination Sequence:
#
# PCOD9476936 Si02
#       6
#    16  16  16  16  16  16
#     4  10  18  32  59  85 117 144 191 256 293 337
#     4   9  17  33  56  87 114 144 189 254 300 330
#     4   9  21  36  61  85 112 150 197 255 286 346
#     4  10  21  33  54  87 114 149 195 240 299 351
#     4   9  19  34  54  86 115 152 194 237 297 351
#     4  11  23  40  58  80 124 163 194 238 304 369
#
# _framework density 18.614750999999998
#
# number of rings (size 3 to 8) (size 9 to 14) (size 15 to 20)
#    0.000    2.333    1.667    1.500    2.333    2.000 
#    0.000    1.667    0.000    9.000    0.000    0.000 
#    0.000    0.000    0.000    0.000    0.000    0.000 
#
# Total GULP energy -267794.145424 kJ/mol
# GULP energy per Si atom -5579.044696 kJ/mol
# Density = 1.857238 g / cm^3
# Si number density = 18.614751 Si / 1000 Ang^3
#
#
#
# Elastic Constant Matrix: (Units=GPa)
#
#
# Indices 1 2 3 4 5 6 
#
# 1 56.2983 29.1022 30.1528 0.0000 0.0000 0.0000
# 2 29.1022 86.6979 26.1946 0.0000 0.0000 0.0000
# 3 30.1528 26.1946 75.1364 0.0000 0.0000 0.0000
# 4 0.0000 0.0000 0.0000 10.6174 0.0000 0.0000
# 5 0.0000 0.0000 0.0000 0.0000 12.1823 0.0000
# 6 0.0000 0.0000 0.0000 0.0000 0.0000 10.2533
#
#
#
# Elastic Compliance Matrix: (Units=1/GPa)
#
#
# Indices 1 2 3 4 5 6 
#
# 1 0.025162 -0.006031 -0.007995 0.000000 0.000000 0.000000
# 2 -0.006031 0.014338 -0.002578 0.000000 0.000000 0.000000
# 3 -0.007995 -0.002578 0.017417 0.000000 0.000000 0.000000
# 4 0.000000 0.000000 0.000000 0.094185 0.000000 0.000000
# 5 0.000000 0.000000 0.000000 0.000000 0.082087 0.000000
# 6 0.000000 0.000000 0.000000 0.000000 0.000000 0.097529
#
#
# Mechanical properties :
#
#
# Convention : Reuss Voigt Hill
#
# Bulk Modulus (GPa) = 42.18021 43.22575 42.70298
# Shear Modulus (GPa) = 13.44708 15.45614 14.45161
#
# Velocity S-wave (km/s) = 2.69064 2.88465 2.78933
# Velocity P-wave (km/s) = 5.68872 5.86230 5.77616
#
# Compressibility (1/GPa) = 0.02370780
#
# Stress axis : x y z
#
# Youngs Moduli (GPa) = 39.74223 69.74647 57.41646
#
# Poissons Ratio (x) = 0.42061 0.45906
# Poissons Ratio (y) = 0.23967 0.14804
# Poissons Ratio (z) = 0.31775 0.17983
#
# Static dielectric constant tensor:
#      x y z
#    x 1.620490 0.000000 0.000000 
#    y 0.000000 1.660510 0.000000 
#    z 0.000000 0.000000 1.653440 
# 
# From -- ./inp_files/45745.got.cif
#   From: 2010.05.17/outbox.cif.g08.bks.cpg/sg64_23_cif.got.tgz:45745.got - 2010.06.03 16:29:19.
