data_PCOD9476201
_publ_section_title
;
Structure prediction by ZEFSAII (Michael W. Deem and Ramdas Pophale) SiO2 
 PCOD9476201
Probable space group: C M C M
;
_chemical_formula_sum "Si O2"
_cell_formula_units_Z 56
_cell_length_a 24.000000
_cell_length_b 15.000000
_cell_length_c 15.000000
_cell_angle_alpha 90.000000
_cell_angle_beta 90.000000
_cell_angle_gamma 90.000000
_cell_volume 5400.000000
_symmetry_space_group_name_H-M "C M C M"
_symmetry_group_IT_number 63
_symmetry_cell_setting 'orthorhombic'
loop_
_space_group_symop_operation_xyz
x,y,z
-x,-y,1/2+z
x,-y,-z
-x,y,1/2-z
-x,-y,-z
x,y,1/2-z
-x,y,z
x,-y,1/2+z
1/2+x,1/2+y,z
1/2-x,1/2-y,1/2+z
1/2+x,1/2-y,-z
1/2-x,1/2+y,1/2-z
1/2-x,1/2-y,-z
1/2+x,1/2+y,1/2-z
1/2-x,1/2+y,z
1/2+x,1/2-y,1/2+z
loop_
_atom_site_type_symbol
_atom_site_label
_atom_site_fract_x
_atom_site_fract_y
_atom_site_fract_z
Si Si1 0.266334 0.555349 0.147829
Si Si2 0.308728 0.708717 0.021715
Si Si3 0.159799 0.886611 0.348840
Si Si4 0.888854 0.637184 0.956010
Si Si5 0.064212 0.218263 0.152184
Si Si6 0.867199 0.548629 0.142757
Si Si7 0.064541 0.979835 0.895051
O O1 0.279529 0.579987 0.250000
O O2 0.289267 0.455438 0.134634
O O3 0.199821 0.557784 0.136611
O O4 0.295949 0.622704 0.081098
O O5 0.339984 0.680912 0.930819
O O6 0.250000 0.750000 0.000000
O O7 0.339829 0.792153 0.065067
O O8 0.165852 0.845981 0.250000
O O9 0.105402 0.949064 0.350744
O O10 0.936059 0.701338 0.918020
O O11 0.883207 0.549179 0.895422
O O12 0.890113 0.611926 0.061457
O O13 0.088033 0.242555 0.250000
O O14 0.085814 0.121279 0.121024
O O15 0.000000 0.197738 0.164028
O O16 0.881777 0.560242 0.250000
O O17 0.000000 0.990228 0.866574
O O18 0.066671 0.000000 0.000000
#
# Coordination Sequence:
#
# PCOD9476201 Si02
#       7
#    16  16  16  16  16  16  16
#     4  10  21  37  56  79 114 155 196 240 293 360
#     4  12  23  36  57  83 120 153 198 250 296 350
#     4  11  23  36  56  86 120 163 206 246 297 361
#     4  11  22  37  62  85 112 155 195 247 302 361
#     4  10  21  38  62  93 125 157 201 254 302 355
#     4  10  22  40  58  81 114 154 197 244 306 370
#     4  10  20  37  61  89 125 166 205 249 302 357
#
# _framework density 10.370369999999999
#
# number of rings (size 3 to 8) (size 9 to 14) (size 15 to 20)
#    0.000    1.429    1.429    4.714    2.000    4.286 
#    0.000    1.429    0.000    1.286    0.000    0.000 
#    0.000    0.000    0.000    0.000    0.000    0.000 
#
# Total GULP energy -312167.161607 kJ/mol
# GULP energy per Si atom -5574.413600 kJ/mol
# Density = 1.034677 g / cm^3
# Si number density = 10.370370 Si / 1000 Ang^3
#
#
#
# Elastic Constant Matrix: (Units=GPa)
#
#
# Indices 1 2 3 4 5 6 
#
# 1 61.9009 17.6691 24.5671 0.0000 0.0000 0.0000
# 2 17.6691 75.0812 32.8017 0.0000 0.0000 0.0000
# 3 24.5671 32.8017 119.6816 0.0000 0.0000 0.0000
# 4 0.0000 0.0000 0.0000 18.6535 0.0000 0.0000
# 5 0.0000 0.0000 0.0000 0.0000 21.1065 0.0000
# 6 0.0000 0.0000 0.0000 0.0000 0.0000 31.0508
#
#
#
# Elastic Compliance Matrix: (Units=1/GPa)
#
#
# Indices 1 2 3 4 5 6 
#
# 1 0.018166 -0.003006 -0.002905 0.000000 0.000000 0.000000
# 2 -0.003006 0.015628 -0.003666 0.000000 0.000000 0.000000
# 3 -0.002905 -0.003666 0.009957 0.000000 0.000000 0.000000
# 4 0.000000 0.000000 0.000000 0.053609 0.000000 0.000000
# 5 0.000000 0.000000 0.000000 0.000000 0.047379 0.000000
# 6 0.000000 0.000000 0.000000 0.000000 0.000000 0.032205
#
#
# Mechanical properties :
#
#
# Convention : Reuss Voigt Hill
#
# Bulk Modulus (GPa) = 40.65676 45.19329 42.92502
# Shear Modulus (GPa) = 24.47420 26.27056 25.37238
#
# Velocity S-wave (km/s) = 3.43885 3.56282 3.50138
# Velocity P-wave (km/s) = 5.95084 6.22590 6.08992
#
# Compressibility (1/GPa) = 0.02459616
#
# Stress axis : x y z
#
# Youngs Moduli (GPa) = 55.04845 63.98769 100.43541
#
# Poissons Ratio (x) = 0.19234 0.29177
# Poissons Ratio (y) = 0.16547 0.36822
# Poissons Ratio (z) = 0.15992 0.23459
#
# Static dielectric constant tensor:
#      x y z
#    x 1.770780 0.000000 0.000000 
#    y 0.000000 1.710990 0.000000 
#    z 0.000000 0.000000 1.790090 
# 
# From -- ./inp_files/36887.got.cif
#   From: 2010.05.17/outbox.ucp.g08.bks.cvg/sg63_19_cif.got.tgz:36887.got - 2010.06.11 16:32:19.
