data_PCOD9476328
_publ_section_title
;
Structure prediction by ZEFSAII (Michael W. Deem and Ramdas Pophale) SiO2 
 PCOD9476328
Probable space group: C M C A
;
_chemical_formula_sum "Si O2"
_cell_formula_units_Z 80
_cell_length_a 12.852179
_cell_length_b 20.870280
_cell_length_c 18.942440
_cell_angle_alpha 90.000000
_cell_angle_beta 90.000000
_cell_angle_gamma 90.000000
_cell_volume 5080.903676
_symmetry_space_group_name_H-M "C M C A"
_symmetry_group_IT_number 64
_symmetry_cell_setting 'orthorhombic'
loop_
_space_group_symop_operation_xyz
x,y,z
-x,1/2-y,1/2+z
x,-y,-z
-x,1/2+y,1/2-z
-x,-y,-z
x,1/2+y,1/2-z
-x,y,z
x,1/2-y,1/2+z
1/2+x,1/2+y,z
1/2-x,-y,1/2+z
1/2+x,1/2-y,-z
1/2-x,y,1/2-z
1/2-x,1/2-y,-z
1/2+x,y,1/2-z
1/2-x,1/2+y,z
1/2+x,-y,1/2+z
loop_
_atom_site_type_symbol
_atom_site_label
_atom_site_fract_x
_atom_site_fract_y
_atom_site_fract_z
Si Si1 0.884473 0.268918 0.051231
Si Si2 0.500000 0.091209 0.565758
Si Si3 0.666404 0.301531 0.092389
Si Si4 0.618696 0.811855 0.813108
Si Si5 0.000000 0.945658 0.900226
Si Si6 0.662573 0.150547 0.347388
O O1 0.788568 0.311581 0.077854
O O2 0.872831 0.203270 0.095775
O O3 0.000000 0.295288 0.060993
O O4 0.868779 0.247169 0.970356
O O5 0.401138 0.134943 0.585646
O O6 0.500000 0.077120 0.481931
O O7 0.500000 0.022071 0.602060
O O8 0.644356 0.261066 0.163164
O O9 0.500000 0.826647 0.833742
O O10 0.630711 0.823085 0.729585
O O11 0.712075 0.852829 0.848052
O O12 0.899127 0.913942 0.863999
#
# Coordination Sequence:
#
# PCOD9476328 Si02
#       6
#    16   8  16  16   8  16
#     4  10  16  28  48  70 108 127 151 207 255 297
#     4  11  20  33  50  72 102 132 171 203 239 304
#     4  10  18  28  46  77 103 126 161 202 256 297
#     4  10  18  28  50  76 102 124 158 218 257 292
#     4  11  20  33  52  68 100 140 168 206 236 289
#     4  10  18  30  48  76  99 131 169 199 254 297
#
# _framework density 15.745229999999999
#
# number of rings (size 3 to 8) (size 9 to 14) (size 15 to 20)
#    0.000    1.800    6.000    0.000    0.000    0.000 
#    0.000    0.000    0.000   10.800    0.000    2.800 
#    0.000    0.000    0.000    0.000    0.000    0.000 
#
# Total GULP energy -222849.364187 kJ/mol
# GULP energy per Si atom -5571.234105 kJ/mol
# Density = 1.570939 g / cm^3
# Si number density = 15.745230 Si / 1000 Ang^3
#
#
#
# Elastic Constant Matrix: (Units=GPa)
#
#
# Indices 1 2 3 4 5 6 
#
# 1 176.8296 52.1474 15.2203 0.0000 0.0000 0.0000
# 2 52.1474 98.0803 32.2567 0.0000 0.0000 0.0000
# 3 15.2203 32.2567 63.3713 0.0000 0.0000 0.0000
# 4 0.0000 0.0000 0.0000 19.3895 0.0000 0.0000
# 5 0.0000 0.0000 0.0000 0.0000 14.0335 0.0000
# 6 0.0000 0.0000 0.0000 0.0000 0.0000 15.0174
#
#
#
# Elastic Compliance Matrix: (Units=1/GPa)
#
#
# Indices 1 2 3 4 5 6 
#
# 1 0.006710 -0.003648 0.000245 0.000000 0.000000 0.000000
# 2 -0.003648 0.014229 -0.006367 0.000000 0.000000 0.000000
# 3 0.000245 -0.006367 0.018962 0.000000 0.000000 0.000000
# 4 0.000000 0.000000 0.000000 0.051574 0.000000 0.000000
# 5 0.000000 0.000000 0.000000 0.000000 0.071258 0.000000
# 6 0.000000 0.000000 0.000000 0.000000 0.000000 0.066589
#
#
# Mechanical properties :
#
#
# Convention : Reuss Voigt Hill
#
# Bulk Modulus (GPa) = 49.11099 59.72557 54.41828
# Shear Modulus (GPa) = 19.55804 25.59852 22.57828
#
# Velocity S-wave (km/s) = 3.52825 4.03649 3.79090
# Velocity P-wave (km/s) = 6.91786 7.72911 7.33471
#
# Compressibility (1/GPa) = 0.02036204
#
# Stress axis : x y z
#
# Youngs Moduli (GPa) = 149.03324 70.27757 52.73776
#
# Poissons Ratio (x) = 0.25639 -0.01294
# Poissons Ratio (y) = 0.54371 0.33576
# Poissons Ratio (z) = -0.03658 0.44743
#
# Static dielectric constant tensor:
#      x y z
#    x 1.587310 0.000000 0.000000 
#    y 0.000000 1.478830 0.000000 
#    z 0.000000 0.000000 1.552100 
# 
# From -- ./inp_files/39352.got.cif
#   From: 2010.05.17/outbox.cif.g08.bks.cpg/sg64_20_cif.got.tgz:39352.got - 2010.06.03 16:29:19.
