data_PCOD9476905
_publ_section_title
;
Structure prediction by ZEFSAII (Michael W. Deem and Ramdas Pophale) SiO2 
 PCOD9476905
Probable space group: C M C A
;
_chemical_formula_sum "Si O2"
_cell_formula_units_Z 96
_cell_length_a 13.738018
_cell_length_b 10.518372
_cell_length_c 32.735043
_cell_angle_alpha 90.000000
_cell_angle_beta 90.000000
_cell_angle_gamma 90.000000
_cell_volume 4730.265561
_symmetry_space_group_name_H-M "C M C A"
_symmetry_group_IT_number 64
_symmetry_cell_setting 'orthorhombic'
loop_
_space_group_symop_operation_xyz
x,y,z
-x,1/2-y,1/2+z
x,-y,-z
-x,1/2+y,1/2-z
-x,-y,-z
x,1/2+y,1/2-z
-x,y,z
x,1/2-y,1/2+z
1/2+x,1/2+y,z
1/2-x,-y,1/2+z
1/2+x,1/2-y,-z
1/2-x,y,1/2-z
1/2-x,1/2-y,-z
1/2+x,y,1/2-z
1/2-x,1/2+y,z
1/2+x,-y,1/2+z
loop_
_atom_site_type_symbol
_atom_site_label
_atom_site_fract_x
_atom_site_fract_y
_atom_site_fract_z
Si Si1 0.000000 0.182306 0.284145
Si Si2 0.000000 0.534283 0.716761
Si Si3 0.666374 0.822151 0.851598
Si Si4 0.671720 0.033314 0.651549
Si Si5 0.106910 0.932649 0.561845
Si Si6 0.138023 0.214962 0.997870
Si Si7 0.161254 0.484538 0.560902
O O1 0.000000 0.073262 0.250723
O O2 0.090279 0.173213 0.314928
O O3 0.000000 0.323347 0.264964
O O4 0.906727 0.524420 0.687235
O O5 0.708018 0.679013 0.852004
O O6 0.744467 0.930604 0.842949
O O7 0.618795 0.852391 0.895885
O O8 0.629170 0.000716 0.607104
O O9 0.097398 0.842108 0.522259
O O10 0.217817 0.991525 0.558678
O O11 0.000000 0.001158 0.564996
O O12 0.123193 0.101163 0.965834
O O13 0.250000 0.250000 0.000000
O O14 0.121832 0.146829 0.041347
#
# Coordination Sequence:
#
# PCOD9476905 Si02
#       7
#     8   8  16  16  16  16  16
#     4  10  22  42  64  89 118 149 192 238 300 358
#     4  10  24  42  64  88 119 153 187 245 296 366
#     4  10  20  37  62  88 117 154 195 240 291 358
#     4  10  21  38  61  87 119 157 196 236 294 351
#     4  10  18  32  55  82 109 151 200 239 284 340
#     4   9  17  31  51  75 109 153 190 233 281 326
#     4   9  18  33  52  77 115 154 192 236 287 336
#
# _framework density 20.294844000000001
#
# number of rings (size 3 to 8) (size 9 to 14) (size 15 to 20)
#    0.000    2.333    2.500    0.000    0.000    2.000 
#    1.500   10.833    0.000    0.000    0.000    0.000 
#    0.000    0.000    0.000    0.000    0.000    0.000 
#
# Total GULP energy -267386.780518 kJ/mol
# GULP energy per Si atom -5570.557927 kJ/mol
# Density = 2.024865 g / cm^3
# Si number density = 20.294844 Si / 1000 Ang^3
#
#
#
# Elastic Constant Matrix: (Units=GPa)
#
#
# Indices 1 2 3 4 5 6 
#
# 1 79.2278 24.9899 8.1513 0.0000 0.0000 0.0000
# 2 24.9899 97.7181 48.6070 0.0000 0.0000 0.0000
# 3 8.1513 48.6070 84.2967 0.0000 0.0000 0.0000
# 4 0.0000 0.0000 0.0000 32.5565 0.0000 0.0000
# 5 0.0000 0.0000 0.0000 0.0000 15.4241 0.0000
# 6 0.0000 0.0000 0.0000 0.0000 0.0000 14.7716
#
#
#
# Elastic Compliance Matrix: (Units=1/GPa)
#
#
# Indices 1 2 3 4 5 6 
#
# 1 0.013787 -0.004014 0.000981 0.000000 0.000000 0.000000
# 2 -0.004014 0.015518 -0.008560 0.000000 0.000000 0.000000
# 3 0.000981 -0.008560 0.016704 0.000000 0.000000 0.000000
# 4 0.000000 0.000000 0.000000 0.030716 0.000000 0.000000
# 5 0.000000 0.000000 0.000000 0.000000 0.064834 0.000000
# 6 0.000000 0.000000 0.000000 0.000000 0.000000 0.067697
#
#
# Mechanical properties :
#
#
# Convention : Reuss Voigt Hill
#
# Bulk Modulus (GPa) = 43.81396 47.19324 45.50360
# Shear Modulus (GPa) = 20.82919 24.51673 22.67296
#
# Velocity S-wave (km/s) = 3.20711 3.47944 3.34605
# Velocity P-wave (km/s) = 5.94556 6.28063 6.11539
#
# Compressibility (1/GPa) = 0.02282378
#
# Stress axis : x y z
#
# Youngs Moduli (GPa) = 72.53244 64.44209 59.86711
#
# Poissons Ratio (x) = 0.25867 -0.05875
# Poissons Ratio (y) = 0.29114 0.51245
# Poissons Ratio (z) = -0.07118 0.55161
#
# Static dielectric constant tensor:
#      x y z
#    x 1.780400 0.000000 0.000000 
#    y 0.000000 1.748410 0.000000 
#    z 0.000000 0.000000 1.707460 
# 
# From -- ./inp_files/53206.got.cif
#   From: 2010.05.17/outbox.cif.g08.bks.cpg/sg64_27_cif.got.tgz:53206.got - 2010.06.03 16:29:19.
