data_PCOD9476295
_publ_section_title
;
Structure prediction by ZEFSAII (Michael W. Deem and Ramdas Pophale) SiO2 
 PCOD9476295
Probable space group: C M C A
;
_chemical_formula_sum "Si O2"
_cell_formula_units_Z 64
_cell_length_a 30.635172
_cell_length_b 5.407297
_cell_length_c 18.521905
_cell_angle_alpha 90.000000
_cell_angle_beta 90.000000
_cell_angle_gamma 90.000000
_cell_volume 3068.217902
_symmetry_space_group_name_H-M "C M C A"
_symmetry_group_IT_number 64
_symmetry_cell_setting 'orthorhombic'
loop_
_space_group_symop_operation_xyz
x,y,z
-x,1/2-y,1/2+z
x,-y,-z
-x,1/2+y,1/2-z
-x,-y,-z
x,1/2+y,1/2-z
-x,y,z
x,1/2-y,1/2+z
1/2+x,1/2+y,z
1/2-x,-y,1/2+z
1/2+x,1/2-y,-z
1/2-x,y,1/2-z
1/2-x,1/2-y,-z
1/2+x,y,1/2-z
1/2-x,1/2+y,z
1/2+x,-y,1/2+z
loop_
_atom_site_type_symbol
_atom_site_label
_atom_site_fract_x
_atom_site_fract_y
_atom_site_fract_z
Si Si1 0.052339 0.700723 0.712398
Si Si2 0.231764 0.740395 0.416310
Si Si3 0.867087 0.245781 0.047090
Si Si4 0.048443 0.961565 0.414204
O O1 0.068871 0.440005 0.742456
O O2 0.000000 0.685582 0.721539
O O3 0.058083 0.787091 0.629513
O O4 0.250000 0.750000 0.500000
O O5 0.253232 0.497981 0.383106
O O6 0.179811 0.717452 0.416191
O O7 0.909961 0.287030 0.095328
O O8 0.863022 0.500000 0.000000
O O9 0.873597 0.000000 0.000000
O O10 0.000000 0.870929 0.390587
O O11 0.045643 0.000000 0.500000
#
# Coordination Sequence:
#
# PCOD9476295 Si02
#       4
#    16  16  16  16
#     4   9  18  34  54  71  93 133 180 215 247 298
#     4  10  15  26  43  62  89 128 158 201 246 298
#     4  11  19  29  45  68  98 135 163 199 252 309
#     4   9  20  35  51  76 110 141 170 213 264 311
#
# _framework density 20.859013000000001
#
# number of rings (size 3 to 8) (size 9 to 14) (size 15 to 20)
#    0.000    2.250    5.000    0.000    0.000    4.500 
#    0.000    7.500    0.000    0.000    0.000    0.000 
#    0.000    6.000    0.000    0.000    0.000    0.000 
#
# Total GULP energy -178300.106904 kJ/mol
# GULP energy per Si atom -5571.878341 kJ/mol
# Density = 2.081154 g / cm^3
# Si number density = 20.859013 Si / 1000 Ang^3
#
#
#
# Elastic Constant Matrix: (Units=GPa)
#
#
# Indices 1 2 3 4 5 6 
#
# 1 139.8222 8.1409 -12.5252 0.0000 0.0000 0.0000
# 2 8.1409 134.2902 11.8322 0.0000 0.0000 0.0000
# 3 -12.5252 11.8322 77.0982 0.0000 0.0000 0.0000
# 4 0.0000 0.0000 0.0000 26.5199 0.0000 0.0000
# 5 0.0000 0.0000 0.0000 0.0000 1.7426 0.0000
# 6 0.0000 0.0000 0.0000 0.0000 0.0000 -24.4355
#
#
#
# Elastic Compliance Matrix: (Units=1/GPa)
#
#
# Indices 1 2 3 4 5 6 
#
# 1 0.007298 -0.000554 0.001271 0.000000 0.000000 0.000000
# 2 -0.000554 0.007591 -0.001255 0.000000 0.000000 0.000000
# 3 0.001271 -0.001255 0.013370 0.000000 0.000000 0.000000
# 4 0.000000 0.000000 0.000000 0.037708 0.000000 0.000000
# 5 0.000000 0.000000 0.000000 0.000000 0.573862 0.000000
# 6 0.000000 0.000000 0.000000 0.000000 0.000000 -0.040924
#
#
# Mechanical properties :
#
#
# Convention : Reuss Voigt Hill
#
# Bulk Modulus (GPa) = 36.79051 40.67850 38.73451
# Shear Modulus (GPa) = 8.20963 23.68290 15.94626
#
# Velocity S-wave (km/s) = 1.98603 3.37320 2.76792
# Velocity P-wave (km/s) = 4.78906 5.89196 5.36891
#
# Compressibility (1/GPa) = 0.02718092
#
# Stress axis : x y z
#
# Youngs Moduli (GPa) = 137.02298 131.73933 74.79706
#
# Poissons Ratio (x) = 0.07303 -0.09504
# Poissons Ratio (y) = 0.07596 0.09387
# Poissons Ratio (z) = -0.17412 0.16533
#
# Static dielectric constant tensor:
#      x y z
#    x 1.764360 0.000000 0.000000 
#    y 0.000000 2.009330 0.000000 
#    z 0.000000 0.000000 1.901020 
# 
# From -- ./inp_files/35615.got.cif
#   From: 2010.05.17/outbox.cif.g08.bks.cpg/sg64_18_cif.got.tgz:35615.got - 2010.06.03 16:29:19.
