data_PCOD9476431
_publ_section_title
;
Structure prediction by ZEFSAII (Michael W. Deem and Ramdas Pophale) SiO2 
 PCOD9476431
Probable space group: C M C A
;
_chemical_formula_sum "Si O2"
_cell_formula_units_Z 128
_cell_length_a 22.503570
_cell_length_b 25.596282
_cell_length_c 12.329493
_cell_angle_alpha 90.000000
_cell_angle_beta 90.000000
_cell_angle_gamma 90.000000
_cell_volume 7101.883198
_symmetry_space_group_name_H-M "C M C A"
_symmetry_group_IT_number 64
_symmetry_cell_setting 'orthorhombic'
loop_
_space_group_symop_operation_xyz
x,y,z
-x,1/2-y,1/2+z
x,-y,-z
-x,1/2+y,1/2-z
-x,-y,-z
x,1/2+y,1/2-z
-x,y,z
x,1/2-y,1/2+z
1/2+x,1/2+y,z
1/2-x,-y,1/2+z
1/2+x,1/2-y,-z
1/2-x,y,1/2-z
1/2-x,1/2-y,-z
1/2+x,y,1/2-z
1/2-x,1/2+y,z
1/2+x,-y,1/2+z
loop_
_atom_site_type_symbol
_atom_site_label
_atom_site_fract_x
_atom_site_fract_y
_atom_site_fract_z
Si Si1 0.603542 0.801025 0.436448
Si Si2 0.317601 0.243949 0.241864
Si Si3 0.436714 0.868335 0.245738
Si Si4 0.393781 0.293036 0.431724
Si Si5 0.178735 0.448197 0.745583
Si Si6 0.318045 0.357890 0.605365
Si Si7 0.815494 0.112610 0.032967
Si Si8 0.816990 0.569365 0.708365
O O1 0.651404 0.774727 0.355715
O O2 0.563969 0.835698 0.357512
O O3 0.575052 0.752446 0.498983
O O4 0.640039 0.839587 0.513679
O O5 0.250000 0.260750 0.250000
O O6 0.349837 0.261138 0.351475
O O7 0.318210 0.183224 0.205888
O O8 0.500000 0.897938 0.239765
O O9 0.433264 0.828202 0.146129
O O10 0.373084 0.897778 0.246942
O O11 0.357138 0.331070 0.511925
O O12 0.250000 0.442530 0.750000
O O13 0.157809 0.412786 0.846676
O O14 0.161226 0.422369 0.631880
O O15 0.168630 0.509829 0.741851
O O16 0.250989 0.366885 0.561283
O O17 0.814339 0.079715 0.920964
O O18 0.750000 0.582615 0.750000
#
# Coordination Sequence:
#
# PCOD9476431 Si02
#       8
#    16  16  16  16  16  16  16  16
#     4   9  19  30  48  73 100 135 174 209 245 306
#     4  10  17  26  43  74 113 144 170 206 256 309
#     4  10  22  38  55  76 103 135 171 212 259 312
#     4  10  19  32  49  72 101 139 176 207 252 309
#     4   9  18  30  48  75 104 136 175 220 264 305
#     4  10  18  28  47  76 110 141 174 216 259 308
#     4  10  17  29  48  74 108 142 171 211 265 311
#     4  10  20  35  55  78 103 134 177 222 262 308
#
# _framework density 18.023388000000001
#
# number of rings (size 3 to 8) (size 9 to 14) (size 15 to 20)
#    0.000    2.250    0.000    4.500    0.000    6.000 
#    0.000    1.875    0.000    7.500    0.000    0.000 
#    0.000    0.000    0.000    0.000    0.000    0.000 
#
# Total GULP energy -356559.216166 kJ/mol
# GULP energy per Si atom -5571.237753 kJ/mol
# Density = 1.798237 g / cm^3
# Si number density = 18.023388 Si / 1000 Ang^3
#
#
#
# Elastic Constant Matrix: (Units=GPa)
#
#
# Indices 1 2 3 4 5 6 
#
# 1 86.5588 42.6665 29.5922 0.0000 0.0000 0.0000
# 2 42.6665 98.5577 42.7207 0.0000 0.0000 0.0000
# 3 29.5922 42.7207 90.4095 0.0000 0.0000 0.0000
# 4 0.0000 0.0000 0.0000 22.1841 0.0000 0.0000
# 5 0.0000 0.0000 0.0000 0.0000 -20.1373 0.0000
# 6 0.0000 0.0000 0.0000 0.0000 0.0000 -4.9923
#
#
#
# Elastic Compliance Matrix: (Units=1/GPa)
#
#
# Indices 1 2 3 4 5 6 
#
# 1 0.015066 -0.005514 -0.002326 0.000000 0.000000 0.000000
# 2 -0.005514 0.014778 -0.005178 0.000000 0.000000 0.000000
# 3 -0.002326 -0.005178 0.014269 0.000000 0.000000 0.000000
# 4 0.000000 0.000000 0.000000 0.045077 0.000000 0.000000
# 5 0.000000 0.000000 0.000000 0.000000 -0.049659 0.000000
# 6 0.000000 0.000000 0.000000 0.000000 0.000000 -0.200307
#
#
# Mechanical properties :
#
#
# Convention : Reuss Voigt Hill
#
# Bulk Modulus (GPa) = 55.31939 56.16498 55.74218
# Shear Modulus (GPa) = -38.84553 10.11399 -14.36577
#
# Velocity S-wave (km/s) = -4.64754 2.37145 -2.82629
# Velocity P-wave (km/s) = 1.40008 6.22321 4.51046
#
# Compressibility (1/GPa) = 0.01807684
#
# Stress axis : x y z
#
# Youngs Moduli (GPa) = 66.37485 67.66851 70.08294
#
# Poissons Ratio (x) = 0.37313 0.16300
# Poissons Ratio (y) = 0.36600 0.36290
# Poissons Ratio (z) = 0.15437 0.35039
#
# Static dielectric constant tensor:
#      x y z
#    x 1.594650 0.000000 0.000000 
#    y 0.000000 1.693620 0.000000 
#    z 0.000000 0.000000 1.643990 
# 
# From -- ./inp_files/18713.got.cif
#   From: 2010.05.17/outbox.cif.g08.bks.cpg/sg64_10_cif.got.tgz:18713.got - 2010.06.03 16:29:19.
