data_PCOD9476887
_publ_section_title
;
Structure prediction by ZEFSAII (Michael W. Deem and Ramdas Pophale) SiO2 
 PCOD9476887
Probable space group: C M C A
;
_chemical_formula_sum "Si O2"
_cell_formula_units_Z 80
_cell_length_a 16.067847
_cell_length_b 27.190865
_cell_length_c 8.533432
_cell_angle_alpha 90.000000
_cell_angle_beta 90.000000
_cell_angle_gamma 90.000000
_cell_volume 3728.244994
_symmetry_space_group_name_H-M "C M C A"
_symmetry_group_IT_number 64
_symmetry_cell_setting 'orthorhombic'
loop_
_space_group_symop_operation_xyz
x,y,z
-x,1/2-y,1/2+z
x,-y,-z
-x,1/2+y,1/2-z
-x,-y,-z
x,1/2+y,1/2-z
-x,y,z
x,1/2-y,1/2+z
1/2+x,1/2+y,z
1/2-x,-y,1/2+z
1/2+x,1/2-y,-z
1/2-x,y,1/2-z
1/2-x,1/2-y,-z
1/2+x,y,1/2-z
1/2-x,1/2+y,z
1/2+x,-y,1/2+z
loop_
_atom_site_type_symbol
_atom_site_label
_atom_site_fract_x
_atom_site_fract_y
_atom_site_fract_z
Si Si1 0.405272 0.700240 0.003577
Si Si2 0.102004 0.198026 0.356451
Si Si3 0.250000 0.457542 0.750000
Si Si4 0.371772 0.598056 0.856489
Si Si5 0.869739 0.000000 0.000000
Si Si6 0.818060 0.106315 0.521355
O O1 0.500000 0.715020 0.038849
O O2 0.369177 0.690334 0.176252
O O3 0.371858 0.747277 0.910715
O O4 0.407262 0.651140 0.901007
O O5 0.146259 0.158566 0.467568
O O6 0.000000 0.191939 0.365784
O O7 0.190266 0.490163 0.645821
O O8 0.309171 0.426242 0.634860
O O9 0.409178 0.552267 0.953791
O O10 0.276311 0.605058 0.914719
O O11 0.372267 0.588796 0.670205
#
# Coordination Sequence:
#
# PCOD9476887 Si02
#       6
#    16  16   8  16   8  16
#     4  10  21  37  56  79 108 141 176 215 263 318
#     4  10  20  35  56  79 106 141 175 212 264 321
#     4  10  18  32  54  78 108 138 174 220 262 312
#     4  10  21  35  54  80 107 140 179 220 263 309
#     4  10  18  32  53  78 105 140 178 216 266 310
#     4  10  20  34  54  82 109 138 176 218 263 313
#
# _framework density 21.457816999999999
#
# number of rings (size 3 to 8) (size 9 to 14) (size 15 to 20)
#    0.000    2.000    0.000    6.000    0.000    3.200 
#    0.000    2.500    0.000    1.200    0.000   22.400 
#    0.000    0.000    0.000    0.000    0.000    0.000 
#
# Total GULP energy -223026.523568 kJ/mol
# GULP energy per Si atom -5575.663089 kJ/mol
# Density = 2.140898 g / cm^3
# Si number density = 21.457817 Si / 1000 Ang^3
#
#
#
# Elastic Constant Matrix: (Units=GPa)
#
#
# Indices 1 2 3 4 5 6 
#
# 1 42.9440 25.8867 19.1007 0.0000 0.0000 0.0000
# 2 25.8867 140.4321 48.2655 0.0000 0.0000 0.0000
# 3 19.1007 48.2655 138.2430 0.0000 0.0000 0.0000
# 4 0.0000 0.0000 0.0000 44.5463 0.0000 0.0000
# 5 0.0000 0.0000 0.0000 0.0000 11.1976 0.0000
# 6 0.0000 0.0000 0.0000 0.0000 0.0000 14.6229
#
#
#
# Elastic Compliance Matrix: (Units=1/GPa)
#
#
# Indices 1 2 3 4 5 6 
#
# 1 0.026798 -0.004167 -0.002248 0.000000 0.000000 0.000000
# 2 -0.004167 0.008740 -0.002476 0.000000 0.000000 0.000000
# 3 -0.002248 -0.002476 0.008409 0.000000 0.000000 0.000000
# 4 0.000000 0.000000 0.000000 0.022449 0.000000 0.000000
# 5 0.000000 0.000000 0.000000 0.000000 0.089304 0.000000
# 6 0.000000 0.000000 0.000000 0.000000 0.000000 0.068386
#
#
# Mechanical properties :
#
#
# Convention : Reuss Voigt Hill
#
# Bulk Modulus (GPa) = 38.21872 56.45832 47.33852
# Shear Modulus (GPa) = 19.95305 29.29778 24.62542
#
# Velocity S-wave (km/s) = 3.05269 3.69910 3.39133
# Velocity P-wave (km/s) = 5.50227 6.67928 6.11914
#
# Compressibility (1/GPa) = 0.02616519
#
# Stress axis : x y z
#
# Youngs Moduli (GPa) = 37.31632 114.41742 118.92703
#
# Poissons Ratio (x) = 0.47682 0.26730
# Poissons Ratio (y) = 0.15551 0.29442
# Poissons Ratio (z) = 0.08387 0.28326
#
# Static dielectric constant tensor:
#      x y z
#    x 1.792050 0.000000 0.000000 
#    y 0.000000 1.779990 0.000000 
#    z 0.000000 0.000000 1.879440 
# 
# From -- ./inp_files/7151.got.cif
#   From: 2010.05.17/outbox.cif.g08.bks.cpg/sg64_4_cif.got.tgz:7151.got - 2010.06.03 16:29:19.
