data_PCOD9476864
_publ_section_title
;
Structure prediction by ZEFSAII (Michael W. Deem and Ramdas Pophale) SiO2 
 PCOD9476864
Probable space group: C M C A
;
_chemical_formula_sum "Si O2"
_cell_formula_units_Z 96
_cell_length_a 26.339520
_cell_length_b 26.187290
_cell_length_c 8.865977
_cell_angle_alpha 90.000000
_cell_angle_beta 90.000000
_cell_angle_gamma 90.000000
_cell_volume 6115.402047
_symmetry_space_group_name_H-M "C M C A"
_symmetry_group_IT_number 64
_symmetry_cell_setting 'orthorhombic'
loop_
_space_group_symop_operation_xyz
x,y,z
-x,1/2-y,1/2+z
x,-y,-z
-x,1/2+y,1/2-z
-x,-y,-z
x,1/2+y,1/2-z
-x,y,z
x,1/2-y,1/2+z
1/2+x,1/2+y,z
1/2-x,-y,1/2+z
1/2+x,1/2-y,-z
1/2-x,y,1/2-z
1/2-x,1/2-y,-z
1/2+x,y,1/2-z
1/2-x,1/2+y,z
1/2+x,-y,1/2+z
loop_
_atom_site_type_symbol
_atom_site_label
_atom_site_fract_x
_atom_site_fract_y
_atom_site_fract_z
Si Si1 0.396602 0.414716 0.338016
Si Si2 0.400419 0.014850 0.325416
Si Si3 0.695952 0.980774 0.171687
Si Si4 0.438478 0.184852 0.681303
Si Si5 0.939818 0.610849 0.163290
Si Si6 0.438494 0.289244 0.838850
O O1 0.421380 0.467006 0.272696
O O2 0.336913 0.428483 0.328639
O O3 0.413335 0.366768 0.239777
O O4 0.412902 0.404899 0.508812
O O5 0.341956 0.017633 0.267105
O O6 0.402377 0.000000 0.500000
O O7 0.428493 0.066898 0.285408
O O8 0.750000 0.976589 0.250000
O O9 0.699899 0.000000 0.000000
O O10 0.500000 0.179453 0.689225
O O11 0.423205 0.233215 0.783897
O O12 0.424129 0.197646 0.509514
O O13 0.922151 0.665503 0.226882
O O14 0.000000 0.613972 0.135088
O O15 0.500000 0.289377 0.835276
#
# Coordination Sequence:
#
# PCOD9476864 Si02
#       6
#    16  16  16  16  16  16
#     4  10  20  33  50  78 103 135 177 214 266 321
#     4  10  20  34  50  76 107 134 179 214 260 326
#     4  10  20  38  56  79 101 134 171 223 272 317
#     4  10  18  32  50  75 108 141 182 217 253 301
#     4  11  20  33  50  73 112 147 177 215 256 311
#     4   9  19  31  49  73 102 147 187 214 247 298
#
# _framework density 15.698067999999999
#
# number of rings (size 3 to 8) (size 9 to 14) (size 15 to 20)
#    1.000    1.000    1.667    3.500    0.000    5.000 
#    0.000    0.000    0.000    0.000    0.000    5.833 
#    0.000    0.000    0.000    0.000    0.000    0.000 
#
# Total GULP energy -267354.369711 kJ/mol
# GULP energy per Si atom -5569.882702 kJ/mol
# Density = 1.566234 g / cm^3
# Si number density = 15.698068 Si / 1000 Ang^3
#
#
#
# Elastic Constant Matrix: (Units=GPa)
#
#
# Indices 1 2 3 4 5 6 
#
# 1 36.8372 19.2512 10.4837 0.0000 0.0000 0.0000
# 2 19.2512 77.5089 -2.4476 0.0000 0.0000 0.0000
# 3 10.4837 -2.4476 54.7283 0.0000 0.0000 0.0000
# 4 0.0000 0.0000 0.0000 31.4858 0.0000 0.0000
# 5 0.0000 0.0000 0.0000 0.0000 -23.2405 0.0000
# 6 0.0000 0.0000 0.0000 0.0000 0.0000 -2.7426
#
#
#
# Elastic Compliance Matrix: (Units=1/GPa)
#
#
# Indices 1 2 3 4 5 6 
#
# 1 0.033552 -0.008548 -0.006810 0.000000 0.000000 0.000000
# 2 -0.008548 0.015098 0.002313 0.000000 0.000000 0.000000
# 3 -0.006810 0.002313 0.019680 0.000000 0.000000 0.000000
# 4 0.000000 0.000000 0.000000 0.031760 0.000000 0.000000
# 5 0.000000 0.000000 0.000000 0.000000 -0.043028 0.000000
# 6 0.000000 0.000000 0.000000 0.000000 0.000000 -0.364623
#
#
# Mechanical properties :
#
#
# Convention : Reuss Voigt Hill
#
# Bulk Modulus (GPa) = 23.67457 24.84991 24.26224
# Shear Modulus (GPa) = -18.69920 10.55301 -4.07310
#
# Velocity S-wave (km/s) = -3.45509 2.59559 -1.61254
# Velocity P-wave (km/s) = 0.89606 4.98468 3.46728
#
# Compressibility (1/GPa) = 0.04223942
#
# Stress axis : x y z
#
# Youngs Moduli (GPa) = 29.80460 66.23397 50.81313
#
# Poissons Ratio (x) = 0.56620 0.34601
# Poissons Ratio (y) = 0.25478 -0.11752
# Poissons Ratio (z) = 0.20295 -0.15318
#
# Static dielectric constant tensor:
#      x y z
#    x 1.504590 0.000000 0.000000 
#    y 0.000000 1.521770 0.000000 
#    z 0.000000 0.000000 1.534040 
# 
# From -- ./inp_files/10536.got.cif
#   From: 2010.05.17/outbox.cif.g08.bks.cpg/sg64_6_cif.got.tgz:10536.got - 2010.06.03 16:29:19.
