data_PCOD9476253
_publ_section_title
;
Structure prediction by ZEFSAII (Michael W. Deem and Ramdas Pophale) SiO2 
 PCOD9476253
Probable space group: C M C M
;
_chemical_formula_sum "Si O2"
_cell_formula_units_Z 42
_cell_length_a 12.000000
_cell_length_b 15.000000
_cell_length_c 24.000000
_cell_angle_alpha 90.000000
_cell_angle_beta 90.000000
_cell_angle_gamma 90.000000
_cell_volume 4320.000000
_symmetry_space_group_name_H-M "C M C M"
_symmetry_group_IT_number 63
_symmetry_cell_setting 'orthorhombic'
loop_
_space_group_symop_operation_xyz
x,y,z
-x,-y,1/2+z
x,-y,-z
-x,y,1/2-z
-x,-y,-z
x,y,1/2-z
-x,y,z
x,-y,1/2+z
1/2+x,1/2+y,z
1/2-x,1/2-y,1/2+z
1/2+x,1/2-y,-z
1/2-x,1/2+y,1/2-z
1/2-x,1/2-y,-z
1/2+x,1/2+y,1/2-z
1/2-x,1/2+y,z
1/2+x,1/2-y,1/2+z
loop_
_atom_site_type_symbol
_atom_site_label
_atom_site_fract_x
_atom_site_fract_y
_atom_site_fract_z
Si Si1 0.757629 0.674638 0.862260
Si Si2 0.703766 0.400668 0.250000
Si Si3 0.500000 0.775996 0.179386
Si Si4 0.000000 0.970273 0.750000
Si Si5 0.632530 0.940125 0.750000
Si Si6 0.220421 0.003998 0.067271
Si Si7 0.365452 0.856431 0.870343
Si Si8 0.500000 0.409097 0.623812
O O1 0.690663 0.655321 0.805538
O O2 0.884239 0.677666 0.838462
O O3 0.738212 0.593824 0.905279
O O4 0.706950 0.768032 0.883319
O O5 0.609485 0.472945 0.250000
O O6 0.813945 0.462032 0.250000
O O7 0.500000 0.761663 0.250000
O O8 0.500000 0.697000 0.131547
O O9 0.000000 0.925416 0.690222
O O10 0.500000 0.948938 0.750000
O O11 0.663761 0.888602 0.693014
O O12 0.322098 0.066029 0.088608
O O13 0.108547 0.048598 0.094087
O O14 0.213262 0.000000 0.000000
O O15 0.500000 0.843194 0.873755
#
# Coordination Sequence:
#
# PCOD9476253 Si02
#       8
#    16   8   8   4   8  16  16   8
#     4  12  26  44  69 103 141 179 230 283 349 417
#     4  12  23  36  69 100 141 178 222 274 355 418
#     4  12  26  41  74 111 143 173 223 288 357 415
#     4  12  22  36  74 102 134 180 210 280 354 424
#     4  10  21  40  67  99 137 175 214 279 353 415
#     4  12  28  49  70  95 138 192 239 287 336 403
#     4  11  25  45  70 101 139 178 228 286 350 420
#     4  12  23  48  69 106 141 177 225 288 354 411
#
# _framework density 9.7222220000000004
#
# number of rings (size 3 to 8) (size 9 to 14) (size 15 to 20)
#    0.000    0.381    7.143    0.857    5.333    1.143 
#    0.000    0.000    0.000    0.000    0.000    0.000 
#    0.000    0.000    0.000    0.000    0.000    0.000 
#
# Total GULP energy -234292.767916 kJ/mol
# GULP energy per Si atom -5578.399236 kJ/mol
# Density = 0.970009 g / cm^3
# Si number density = 9.722222 Si / 1000 Ang^3
#
#
#
# Elastic Constant Matrix: (Units=GPa)
#
#
# Indices 1 2 3 4 5 6 
#
# 1 82.1202 22.4692 29.0603 0.0000 0.0000 0.0000
# 2 22.4692 114.5495 46.0028 0.0000 0.0000 0.0000
# 3 29.0603 46.0028 147.4026 0.0000 0.0000 0.0000
# 4 0.0000 0.0000 0.0000 19.3917 0.0000 0.0000
# 5 0.0000 0.0000 0.0000 0.0000 29.1246 0.0000
# 6 0.0000 0.0000 0.0000 0.0000 0.0000 -107.4437
#
#
#
# Elastic Compliance Matrix: (Units=1/GPa)
#
#
# Indices 1 2 3 4 5 6 
#
# 1 0.013405 -0.001793 -0.002083 0.000000 0.000000 0.000000
# 2 -0.001793 0.010221 -0.002836 0.000000 0.000000 0.000000
# 3 -0.002083 -0.002836 0.008080 0.000000 0.000000 0.000000
# 4 0.000000 0.000000 0.000000 0.051569 0.000000 0.000000
# 5 0.000000 0.000000 0.000000 0.000000 0.034335 0.000000
# 6 0.000000 0.000000 0.000000 0.000000 0.000000 -0.009307
#
#
# Mechanical properties :
#
#
# Convention : Reuss Voigt Hill
#
# Bulk Modulus (GPa) = 54.70186 59.90408 57.30297
# Shear Modulus (GPa) = 39.11735 4.65051 21.88393
#
# Velocity S-wave (km/s) = 4.49012 1.54819 3.35843
# Velocity P-wave (km/s) = 7.42125 5.83700 6.67628
#
# Compressibility (1/GPa) = 0.01828091
#
# Stress axis : x y z
#
# Youngs Moduli (GPa) = 74.59893 97.84203 123.76191
#
# Poissons Ratio (x) = 0.17541 0.25783
# Poissons Ratio (y) = 0.13374 0.35102
# Poissons Ratio (z) = 0.15541 0.27751
#
# Static dielectric constant tensor:
#      x y z
#    x 1.689650 0.000000 0.000000 
#    y 0.000000 1.777620 0.000000 
#    z 0.000000 0.000000 1.648940 
# 
# From -- ./inp_files/61340.got.cif
#   From: 2010.05.17/outbox.ucp.g08.bks.cvg/sg63_31_cif.got.tgz:61340.got - 2010.06.11 16:32:19.
