data_PCOD9476829
_publ_section_title
;
Structure prediction by ZEFSAII (Michael W. Deem and Ramdas Pophale) SiO2 
 PCOD9476829
Probable space group: C M C A
;
_chemical_formula_sum "Si O2"
_cell_formula_units_Z 80
_cell_length_a 16.704630
_cell_length_b 26.583038
_cell_length_c 10.020815
_cell_angle_alpha 90.000000
_cell_angle_beta 90.000000
_cell_angle_gamma 90.000000
_cell_volume 4449.841246
_symmetry_space_group_name_H-M "C M C A"
_symmetry_group_IT_number 64
_symmetry_cell_setting 'orthorhombic'
loop_
_space_group_symop_operation_xyz
x,y,z
-x,1/2-y,1/2+z
x,-y,-z
-x,1/2+y,1/2-z
-x,-y,-z
x,1/2+y,1/2-z
-x,y,z
x,1/2-y,1/2+z
1/2+x,1/2+y,z
1/2-x,-y,1/2+z
1/2+x,1/2-y,-z
1/2-x,y,1/2-z
1/2-x,1/2-y,-z
1/2+x,y,1/2-z
1/2-x,1/2+y,z
1/2+x,-y,1/2+z
loop_
_atom_site_type_symbol
_atom_site_label
_atom_site_fract_x
_atom_site_fract_y
_atom_site_fract_z
Si Si1 0.097022 0.442123 0.511441
Si Si2 0.597052 0.283198 0.987061
Si Si3 0.902782 0.863028 0.207564
Si Si4 0.096100 0.332285 0.007348
Si Si5 0.843819 0.136372 0.224950
O O1 0.121683 0.500000 0.500000
O O2 0.122935 0.410401 0.381086
O O3 0.128925 0.411954 0.639550
O O4 0.000000 0.440381 0.517808
O O5 0.500000 0.283963 0.974851
O O6 0.631005 0.315357 0.864170
O O7 0.617858 0.313287 0.122213
O O8 0.624583 0.225710 0.992390
O O9 0.873063 0.859132 0.358522
O O10 0.000000 0.864883 0.211958
O O11 0.116939 0.359107 0.869966
O O12 0.000000 0.330054 0.016379
O O13 0.750000 0.135775 0.250000
#
# Coordination Sequence:
#
# PCOD9476829 Si02
#       5
#    16  16  16  16  16
#     4   9  18  37  60  74  92 132 182 225 268 320
#     4   9  17  32  53  74 102 142 177 203 243 307
#     4   8  15  28  49  76  97 119 164 217 257 296
#     4  10  18  31  53  78 102 132 175 221 255 295
#     4  11  22  34  49  77 113 141 169 210 267 325
#
# _framework density 17.978169000000001
#
# number of rings (size 3 to 8) (size 9 to 14) (size 15 to 20)
#    0.000    2.600    0.000    4.200    0.000    4.000 
#    0.000    7.000    0.000    4.800    0.000    0.000 
#    0.000    0.000    0.000    0.000    0.000    0.000 
#
# Total GULP energy -223080.542832 kJ/mol
# GULP energy per Si atom -5577.013571 kJ/mol
# Density = 1.793725 g / cm^3
# Si number density = 17.978169 Si / 1000 Ang^3
#
#
#
# Elastic Constant Matrix: (Units=GPa)
#
#
# Indices 1 2 3 4 5 6 
#
# 1 10.7818 18.8551 13.8420 0.0000 0.0000 0.0000
# 2 18.8551 142.8009 89.7694 0.0000 0.0000 0.0000
# 3 13.8420 89.7694 186.8016 0.0000 0.0000 0.0000
# 4 0.0000 0.0000 0.0000 7.5949 0.0000 0.0000
# 5 0.0000 0.0000 0.0000 0.0000 -0.1361 0.0000
# 6 0.0000 0.0000 0.0000 0.0000 0.0000 -5.4259
#
#
#
# Elastic Compliance Matrix: (Units=1/GPa)
#
#
# Indices 1 2 3 4 5 6 
#
# 1 0.121037 -0.014821 -0.001847 0.000000 0.000000 0.000000
# 2 -0.014821 0.011849 -0.004596 0.000000 0.000000 0.000000
# 3 -0.001847 -0.004596 0.007699 0.000000 0.000000 0.000000
# 4 0.000000 0.000000 0.000000 0.131666 0.000000 0.000000
# 5 0.000000 0.000000 0.000000 0.000000 -7.348725 0.000000
# 6 0.000000 0.000000 0.000000 0.000000 0.000000 -0.184303
#
#
# Mechanical properties :
#
#
# Convention : Reuss Voigt Hill
#
# Bulk Modulus (GPa) = 10.19799 65.03528 37.61663
# Shear Modulus (GPa) = -0.69584 14.93446 7.11931
#
# Velocity S-wave (km/s) = -0.62281 2.88531 1.99213
# Velocity P-wave (km/s) = 2.27323 6.88136 5.12449
#
# Compressibility (1/GPa) = 0.09805857
#
# Stress axis : x y z
#
# Youngs Moduli (GPa) = 8.26190 84.39730 129.89251
#
# Poissons Ratio (x) = 1.25082 0.23987
# Poissons Ratio (y) = 0.12245 0.59696
# Poissons Ratio (z) = 0.01526 0.38787
#
# Static dielectric constant tensor:
#      x y z
#    x 1.656690 0.000000 0.000000 
#    y 0.000000 1.600950 0.000000 
#    z 0.000000 0.000000 1.627540 
# 
# From -- ./inp_files/7019.got.cif
#   From: 2010.05.17/outbox.cif.g08.bks.cpg/sg64_4_cif.got.tgz:7019.got - 2010.06.03 16:29:19.
