data_PCOD9476404
_publ_section_title
;
Structure prediction by ZEFSAII (Michael W. Deem and Ramdas Pophale) SiO2 
 PCOD9476404
Probable space group: C M C A
;
_chemical_formula_sum "Si O2"
_cell_formula_units_Z 64
_cell_length_a 17.961188
_cell_length_b 11.783999
_cell_length_c 14.502664
_cell_angle_alpha 90.000000
_cell_angle_beta 90.000000
_cell_angle_gamma 90.000000
_cell_volume 3069.555859
_symmetry_space_group_name_H-M "C M C A"
_symmetry_group_IT_number 64
_symmetry_cell_setting 'orthorhombic'
loop_
_space_group_symop_operation_xyz
x,y,z
-x,1/2-y,1/2+z
x,-y,-z
-x,1/2+y,1/2-z
-x,-y,-z
x,1/2+y,1/2-z
-x,y,z
x,1/2-y,1/2+z
1/2+x,1/2+y,z
1/2-x,-y,1/2+z
1/2+x,1/2-y,-z
1/2-x,y,1/2-z
1/2-x,1/2-y,-z
1/2+x,y,1/2-z
1/2-x,1/2+y,z
1/2+x,-y,1/2+z
loop_
_atom_site_type_symbol
_atom_site_label
_atom_site_fract_x
_atom_site_fract_y
_atom_site_fract_z
Si Si1 0.250000 0.558971 0.250000
Si Si2 0.121502 0.707297 0.341007
Si Si3 0.000000 0.035833 0.141211
Si Si4 0.000000 0.285392 0.309760
Si Si5 0.000000 0.046857 0.364073
Si Si6 0.841432 0.440622 0.090767
O O1 0.188777 0.640391 0.295110
O O2 0.207863 0.480738 0.176439
O O3 0.150313 0.805444 0.408036
O O4 0.070595 0.610515 0.387852
O O5 0.070731 0.768853 0.260476
O O6 0.000000 0.040835 0.253237
O O7 0.000000 0.901049 0.131726
O O8 0.000000 0.180932 0.380880
O O9 0.925142 0.988961 0.397701
O O10 0.809827 0.500000 0.000000
#
# Coordination Sequence:
#
# PCOD9476404 Si02
#       6
#     8  16   8   8   8  16
#     4  12  22  40  62  94 124 180 210 256 336 386
#     4  10  20  35  60  88 122 162 214 256 313 385
#     4  10  17  34  64  91 117 162 217 252 319 384
#     4  10  16  34  61  91 119 161 211 259 304 398
#     4  10  18  36  61  95 119 161 211 261 324 374
#     4  12  24  40  65  97 130 167 219 275 321 386
#
# _framework density 20.849920999999998
#
# number of rings (size 3 to 8) (size 9 to 14) (size 15 to 20)
#    0.000    1.500    7.500    1.875    0.000    1.000 
#    0.000    0.000    0.000    1.500    0.000    0.875 
#    0.000    0.000    0.000    0.000    0.000    0.000 
#
# Total GULP energy -178678.045443 kJ/mol
# GULP energy per Si atom -5583.688920 kJ/mol
# Density = 2.080247 g / cm^3
# Si number density = 20.849921 Si / 1000 Ang^3
#
#
#
# Elastic Constant Matrix: (Units=GPa)
#
#
# Indices 1 2 3 4 5 6 
#
# 1 101.1463 15.5438 0.9275 0.0000 0.0000 0.0000
# 2 15.5438 119.5658 -19.2818 0.0000 0.0000 0.0000
# 3 0.9275 -19.2818 27.6195 0.0000 0.0000 0.0000
# 4 0.0000 0.0000 0.0000 4.6137 0.0000 0.0000
# 5 0.0000 0.0000 0.0000 0.0000 9.1149 0.0000
# 6 0.0000 0.0000 0.0000 0.0000 0.0000 -13.9056
#
#
#
# Elastic Compliance Matrix: (Units=1/GPa)
#
#
# Indices 1 2 3 4 5 6 
#
# 1 0.010137 -0.001547 -0.001420 0.000000 0.000000 0.000000
# 2 -0.001547 0.009661 0.006796 0.000000 0.000000 0.000000
# 3 -0.001420 0.006796 0.040999 0.000000 0.000000 0.000000
# 4 0.000000 0.000000 0.000000 0.216745 0.000000 0.000000
# 5 0.000000 0.000000 0.000000 0.000000 0.109711 0.000000
# 6 0.000000 0.000000 0.000000 0.000000 0.000000 -0.071913
#
#
# Mechanical properties :
#
#
# Convention : Reuss Voigt Hill
#
# Bulk Modulus (GPa) = 14.60819 26.96786 20.78803
# Shear Modulus (GPa) = 15.12862 16.70740 15.91801
#
# Velocity S-wave (km/s) = 2.69661 2.83383 2.76607
# Velocity P-wave (km/s) = 4.08866 4.86516 4.49372
#
# Compressibility (1/GPa) = 0.06845476
#
# Stress axis : x y z
#
# Youngs Moduli (GPa) = 98.64441 103.51209 24.39101
#
# Poissons Ratio (x) = 0.16013 0.03465
# Poissons Ratio (y) = 0.15260 -0.16577
# Poissons Ratio (z) = 0.14011 -0.70350
#
# Static dielectric constant tensor:
#      x y z
#    x 1.843040 0.000000 0.000000 
#    y 0.000000 1.808530 0.000000 
#    z 0.000000 0.000000 1.768500 
# 
# From -- ./inp_files/24943.got.cif
#   From: 2010.05.17/outbox.cif.g08.bks.cpg/sg64_13_cif.got.tgz:24943.got - 2010.06.03 16:29:19.
