data_PCOD9476949
_publ_section_title
;
Structure prediction by ZEFSAII (Michael W. Deem and Ramdas Pophale) SiO2 
 PCOD9476949
Probable space group: C M C A
;
_chemical_formula_sum "Si O2"
_cell_formula_units_Z 128
_cell_length_a 25.492601
_cell_length_b 11.670992
_cell_length_c 20.526681
_cell_angle_alpha 90.000000
_cell_angle_beta 90.000000
_cell_angle_gamma 90.000000
_cell_volume 6107.179054
_symmetry_space_group_name_H-M "C M C A"
_symmetry_group_IT_number 64
_symmetry_cell_setting 'orthorhombic'
loop_
_space_group_symop_operation_xyz
x,y,z
-x,1/2-y,1/2+z
x,-y,-z
-x,1/2+y,1/2-z
-x,-y,-z
x,1/2+y,1/2-z
-x,y,z
x,1/2-y,1/2+z
1/2+x,1/2+y,z
1/2-x,-y,1/2+z
1/2+x,1/2-y,-z
1/2-x,y,1/2-z
1/2-x,1/2-y,-z
1/2+x,y,1/2-z
1/2-x,1/2+y,z
1/2+x,-y,1/2+z
loop_
_atom_site_type_symbol
_atom_site_label
_atom_site_fract_x
_atom_site_fract_y
_atom_site_fract_z
Si Si1 0.300184 0.079347 0.636871
Si Si2 0.230434 0.620048 0.446361
Si Si3 0.336815 0.239392 0.040585
Si Si4 0.060812 0.742858 0.742096
Si Si5 0.439096 0.352490 0.599158
Si Si6 0.294609 0.288544 0.331071
Si Si7 0.612821 0.941367 0.167009
Si Si8 0.849507 0.899575 0.767296
O O1 0.329313 0.189000 0.607824
O O2 0.250419 0.119711 0.677933
O O3 0.276754 0.009549 0.575454
O O4 0.334782 0.992005 0.678326
O O5 0.289359 0.648189 0.470133
O O6 0.180494 0.667416 0.486634
O O7 0.227091 0.696930 0.381532
O O8 0.394601 0.186178 0.047350
O O9 0.065560 0.772201 0.664776
O O10 0.083788 0.625858 0.773591
O O11 0.092875 0.846129 0.775633
O O12 0.000000 0.746900 0.757994
O O13 0.500000 0.346216 0.577956
O O14 0.424915 0.482939 0.622063
O O15 0.346721 0.348483 0.360877
O O16 0.312888 0.212178 0.270332
O O17 0.650715 0.036396 0.199209
#
# Coordination Sequence:
#
# PCOD9476949 Si02
#       8
#    16  16  16  16  16  16  16  16
#     4  10  18  33  52  75 103 136 172 212 268 323
#     4   9  19  34  54  77  98 131 175 222 268 315
#     4  10  19  33  54  77 102 130 172 224 271 317
#     4   9  18  33  53  77 106 143 184 221 259 310
#     4  10  20  33  52  78 107 138 174 219 265 314
#     4   9  19  33  51  75 105 135 171 217 261 315
#     4  10  18  33  52  74 106 144 178 210 257 317
#     4   9  19  32  48  75 107 137 174 215 259 314
#
# _framework density 20.958939999999998
#
# number of rings (size 3 to 8) (size 9 to 14) (size 15 to 20)
#    0.000    2.500    0.000    2.250    0.000    1.000 
#    0.000   11.250    0.000    9.750    0.000    0.000 
#    0.000    0.000    0.000    0.000    0.000    0.000 
#
# Total GULP energy -356595.637948 kJ/mol
# GULP energy per Si atom -5571.806843 kJ/mol
# Density = 2.091124 g / cm^3
# Si number density = 20.958940 Si / 1000 Ang^3
#
#
#
# Elastic Constant Matrix: (Units=GPa)
#
#
# Indices 1 2 3 4 5 6 
#
# 1 113.5032 39.4798 14.9144 0.0000 0.0000 0.0000
# 2 39.4798 81.3011 2.7517 0.0000 0.0000 0.0000
# 3 14.9144 2.7517 16.8611 0.0000 0.0000 0.0000
# 4 0.0000 0.0000 0.0000 7.4445 0.0000 0.0000
# 5 0.0000 0.0000 0.0000 0.0000 32.0553 0.0000
# 6 0.0000 0.0000 0.0000 0.0000 0.0000 23.4892
#
#
#
# Elastic Compliance Matrix: (Units=1/GPa)
#
#
# Indices 1 2 3 4 5 6 
#
# 1 0.012000 -0.005498 -0.009717 0.000000 0.000000 0.000000
# 2 -0.005498 0.014887 0.002434 0.000000 0.000000 0.000000
# 3 -0.009717 0.002434 0.067506 0.000000 0.000000 0.000000
# 4 0.000000 0.000000 0.000000 0.134327 0.000000 0.000000
# 5 0.000000 0.000000 0.000000 0.000000 0.031196 0.000000
# 6 0.000000 0.000000 0.000000 0.000000 0.000000 0.042573
#
#
# Mechanical properties :
#
#
# Convention : Reuss Voigt Hill
#
# Bulk Modulus (GPa) = 14.52844 36.21747 25.37295
# Shear Modulus (GPa) = 14.24522 22.89910 18.57216
#
# Velocity S-wave (km/s) = 2.60988 3.30899 2.98001
# Velocity P-wave (km/s) = 4.00361 5.64951 4.89621
#
# Compressibility (1/GPa) = 0.06883053
#
# Stress axis : x y z
#
# Youngs Moduli (GPa) = 83.33669 67.17066 14.81349
#
# Poissons Ratio (x) = 0.36931 0.14394
# Poissons Ratio (y) = 0.45819 -0.03605
# Poissons Ratio (z) = 0.80977 -0.16347
#
# Static dielectric constant tensor:
#      x y z
#    x 1.766500 0.000000 0.000000 
#    y 0.000000 1.797730 0.000000 
#    z 0.000000 0.000000 1.838300 
# 
# From -- ./inp_files/46763.got.cif
#   From: 2010.05.17/outbox.cif.g08.bks.cpg/sg64_24_cif.got.tgz:46763.got - 2010.06.03 16:29:19.
