data_PCOD9476326
_publ_section_title
;
Structure prediction by ZEFSAII (Michael W. Deem and Ramdas Pophale) SiO2 
 PCOD9476326
Probable space group: C M C A
;
_chemical_formula_sum "Si O2"
_cell_formula_units_Z 80
_cell_length_a 10.752115
_cell_length_b 20.188242
_cell_length_c 20.859527
_cell_angle_alpha 90.000000
_cell_angle_beta 90.000000
_cell_angle_gamma 90.000000
_cell_volume 4527.900338
_symmetry_space_group_name_H-M "C M C A"
_symmetry_group_IT_number 64
_symmetry_cell_setting 'orthorhombic'
loop_
_space_group_symop_operation_xyz
x,y,z
-x,1/2-y,1/2+z
x,-y,-z
-x,1/2+y,1/2-z
-x,-y,-z
x,1/2+y,1/2-z
-x,y,z
x,1/2-y,1/2+z
1/2+x,1/2+y,z
1/2-x,-y,1/2+z
1/2+x,1/2-y,-z
1/2-x,y,1/2-z
1/2-x,1/2-y,-z
1/2+x,y,1/2-z
1/2-x,1/2+y,z
1/2+x,-y,1/2+z
loop_
_atom_site_type_symbol
_atom_site_label
_atom_site_fract_x
_atom_site_fract_y
_atom_site_fract_z
Si Si1 0.258429 0.591172 0.677823
Si Si2 0.500000 0.330761 0.167132
Si Si3 0.500000 0.284865 0.564566
Si Si4 0.500000 0.686700 0.687337
Si Si5 0.245985 0.175362 0.471722
Si Si6 0.500000 0.289107 0.928037
Si Si7 0.351693 0.557104 0.551915
O O1 0.250000 0.563942 0.750000
O O2 0.373736 0.643786 0.677124
O O3 0.295536 0.541365 0.621366
O O4 0.126173 0.626117 0.664146
O O5 0.500000 0.278603 0.109694
O O6 0.500000 0.295784 0.237147
O O7 0.625297 0.326098 0.573458
O O8 0.500000 0.260755 0.489932
O O9 0.500000 0.745826 0.636230
O O10 0.250000 0.250000 0.500000
O O11 0.376006 0.167777 0.436084
O O12 0.219136 0.122436 0.526763
O O13 0.333021 0.500000 0.500000
O O14 0.500000 0.569982 0.556175
#
# Coordination Sequence:
#
# PCOD9476326 Si02
#       7
#    16   8   8   8  16   8  16
#     4  10  19  33  54  80 114 149 189 237 286 339
#     4  10  20  30  50  85 116 149 185 241 289 327
#     4  10  16  28  46  73 107 139 185 221 268 341
#     4  10  18  32  52  81 118 151 191 231 281 341
#     4  10  19  31  53  82 111 147 183 230 284 330
#     4  10  18  28  50  75 109 147 175 223 286 333
#     4  11  22  38  60  87 116 151 200 243 280 342
#
# _framework density 17.668233000000001
#
# number of rings (size 3 to 8) (size 9 to 14) (size 15 to 20)
#    0.000    1.800    2.000    6.000    0.000    0.000 
#    0.000    2.000    0.000    2.400    0.000    0.000 
#    0.000    0.000    0.000    0.000    0.000    0.000 
#
# Total GULP energy -222895.890973 kJ/mol
# GULP energy per Si atom -5572.397274 kJ/mol
# Density = 1.762802 g / cm^3
# Si number density = 17.668233 Si / 1000 Ang^3
#
#
#
# Elastic Constant Matrix: (Units=GPa)
#
#
# Indices 1 2 3 4 5 6 
#
# 1 157.0112 12.0485 38.8810 0.0000 0.0000 0.0000
# 2 12.0485 30.6283 37.5097 0.0000 0.0000 0.0000
# 3 38.8810 37.5097 132.9038 0.0000 0.0000 0.0000
# 4 0.0000 0.0000 0.0000 25.8981 0.0000 0.0000
# 5 0.0000 0.0000 0.0000 0.0000 26.6670 0.0000
# 6 0.0000 0.0000 0.0000 0.0000 0.0000 11.9198
#
#
#
# Elastic Compliance Matrix: (Units=1/GPa)
#
#
# Indices 1 2 3 4 5 6 
#
# 1 0.006869 -0.000368 -0.001906 0.000000 0.000000 0.000000
# 2 -0.000368 0.049915 -0.013980 0.000000 0.000000 0.000000
# 3 -0.001906 -0.013980 0.012027 0.000000 0.000000 0.000000
# 4 0.000000 0.000000 0.000000 0.038613 0.000000 0.000000
# 5 0.000000 0.000000 0.000000 0.000000 0.037500 0.000000
# 6 0.000000 0.000000 0.000000 0.000000 0.000000 0.083894
#
#
# Mechanical properties :
#
#
# Convention : Reuss Voigt Hill
#
# Bulk Modulus (GPa) = 27.54529 55.26908 41.40719
# Shear Modulus (GPa) = 18.28640 28.37058 23.32849
#
# Velocity S-wave (km/s) = 3.22061 4.01152 3.63762
# Velocity P-wave (km/s) = 5.42715 7.26676 6.41326
#
# Compressibility (1/GPa) = 0.03630385
#
# Stress axis : x y z
#
# Youngs Moduli (GPa) = 145.57890 20.03394 83.14427
#
# Poissons Ratio (x) = 0.00738 0.15844
# Poissons Ratio (y) = 0.05364 1.16235
# Poissons Ratio (z) = 0.27741 0.28007
#
# Static dielectric constant tensor:
#      x y z
#    x 1.767350 0.000000 0.000000 
#    y 0.000000 1.433590 0.000000 
#    z 0.000000 0.000000 1.611190 
# 
# From -- ./inp_files/31046.got.cif
#   From: 2010.05.17/outbox.cif.g08.bks.cpg/sg64_16_cif.got.tgz:31046.got - 2010.06.03 16:29:19.
