data_PCOD9476947
_publ_section_title
;
Structure prediction by ZEFSAII (Michael W. Deem and Ramdas Pophale) SiO2 
 PCOD9476947
Probable space group: C M C A
;
_chemical_formula_sum "Si O2"
_cell_formula_units_Z 96
_cell_length_a 24.678238
_cell_length_b 22.518921
_cell_length_c 7.916527
_cell_angle_alpha 90.000000
_cell_angle_beta 90.000000
_cell_angle_gamma 90.000000
_cell_volume 4399.430111
_symmetry_space_group_name_H-M "C M C A"
_symmetry_group_IT_number 64
_symmetry_cell_setting 'orthorhombic'
loop_
_space_group_symop_operation_xyz
x,y,z
-x,1/2-y,1/2+z
x,-y,-z
-x,1/2+y,1/2-z
-x,-y,-z
x,1/2+y,1/2-z
-x,y,z
x,1/2-y,1/2+z
1/2+x,1/2+y,z
1/2-x,-y,1/2+z
1/2+x,1/2-y,-z
1/2-x,y,1/2-z
1/2-x,1/2-y,-z
1/2+x,y,1/2-z
1/2-x,1/2+y,z
1/2+x,-y,1/2+z
loop_
_atom_site_type_symbol
_atom_site_label
_atom_site_fract_x
_atom_site_fract_y
_atom_site_fract_z
Si Si1 0.231733 0.429850 0.502179
Si Si2 0.690326 0.776389 0.670846
Si Si3 0.438154 0.911857 0.368550
Si Si4 0.937979 0.956876 0.742612
Si Si5 0.166732 0.840727 0.180355
Si Si6 0.336766 0.889005 0.830903
O O1 0.238487 0.500000 0.500000
O O2 0.200900 0.400854 0.344443
O O3 0.289767 0.399845 0.533973
O O4 0.192022 0.415682 0.661205
O O5 0.750000 0.784779 0.750000
O O6 0.676806 0.707163 0.675263
O O7 0.685296 0.802158 0.483451
O O8 0.653367 0.820370 0.783676
O O9 0.500000 0.894400 0.333672
O O10 0.434756 0.928813 0.567924
O O11 0.394880 0.861753 0.327518
O O12 0.426982 0.973276 0.269113
O O13 0.891799 0.924283 0.636365
O O14 0.000000 0.949667 0.682361
#
# Coordination Sequence:
#
# PCOD9476947 Si02
#       6
#    16  16  16  16  16  16
#     4  10  19  33  51  75 108 136 173 232 277 329
#     4  11  21  37  53  75 111 156 183 220 269 332
#     4   9  17  31  54  82 107 136 182 236 274 318
#     4   9  16  30  55  80 103 135 179 225 280 325
#     4  11  21  36  56  79 113 148 189 225 276 331
#     4  10  18  33  51  75 107 140 176 224 276 320
#
# _framework density 21.821010000000001
#
# number of rings (size 3 to 8) (size 9 to 14) (size 15 to 20)
#    0.000    2.000    6.667    2.500    0.000    0.000 
#    6.000    1.667    0.000    0.500    0.000    0.000 
#    0.000    0.000    0.000    0.000    0.000    0.000 
#
# Total GULP energy -268338.460678 kJ/mol
# GULP energy per Si atom -5590.384597 kJ/mol
# Density = 2.177134 g / cm^3
# Si number density = 21.821010 Si / 1000 Ang^3
#
#
#
# Elastic Constant Matrix: (Units=GPa)
#
#
# Indices 1 2 3 4 5 6 
#
# 1 143.4451 45.7481 10.0113 0.0000 0.0000 0.0000
# 2 45.7481 126.1887 10.0237 0.0000 0.0000 0.0000
# 3 10.0113 10.0237 44.4718 0.0000 0.0000 0.0000
# 4 0.0000 0.0000 0.0000 16.9203 0.0000 0.0000
# 5 0.0000 0.0000 0.0000 0.0000 4.2023 0.0000
# 6 0.0000 0.0000 0.0000 0.0000 0.0000 36.2626
#
#
#
# Elastic Compliance Matrix: (Units=1/GPa)
#
#
# Indices 1 2 3 4 5 6 
#
# 1 0.007941 -0.002787 -0.001160 0.000000 0.000000 0.000000
# 2 -0.002787 0.009047 -0.001412 0.000000 0.000000 0.000000
# 3 -0.001160 -0.001412 0.023065 0.000000 0.000000 0.000000
# 4 0.000000 0.000000 0.000000 0.059101 0.000000 0.000000
# 5 0.000000 0.000000 0.000000 0.000000 0.237966 0.000000
# 6 0.000000 0.000000 0.000000 0.000000 0.000000 0.027577
#
#
# Mechanical properties :
#
#
# Convention : Reuss Voigt Hill
#
# Bulk Modulus (GPa) = 34.08635 49.51910 41.80273
# Shear Modulus (GPa) = 12.98053 28.03187 20.50620
#
# Velocity S-wave (km/s) = 2.44163 3.58806 3.06885
# Velocity P-wave (km/s) = 4.85835 6.31729 5.63523
#
# Compressibility (1/GPa) = 0.02933726
#
# Stress axis : x y z
#
# Youngs Moduli (GPa) = 125.92848 110.53257 43.35494
#
# Poissons Ratio (x) = 0.30803 0.05027
# Poissons Ratio (y) = 0.35094 0.06121
# Poissons Ratio (z) = 0.14602 0.15605
#
# Static dielectric constant tensor:
#      x y z
#    x 1.770280 0.000000 0.000000 
#    y 0.000000 1.798500 0.000000 
#    z 0.000000 0.000000 1.960350 
# 
# From -- ./inp_files/18479.got.cif
#   From: 2010.05.17/outbox.cif.g08.bks.cpg/sg64_10_cif.got.tgz:18479.got - 2010.06.03 16:29:19.
