data_PCOD9476280
_publ_section_title
;
Structure prediction by ZEFSAII (Michael W. Deem and Ramdas Pophale) SiO2 
 PCOD9476280
Probable space group: C M C M
;
_chemical_formula_sum "Si O2"
_cell_formula_units_Z 40
_cell_length_a 12.000000
_cell_length_b 18.000000
_cell_length_c 21.000000
_cell_angle_alpha 90.000000
_cell_angle_beta 90.000000
_cell_angle_gamma 90.000000
_cell_volume 4536.000000
_symmetry_space_group_name_H-M "C M C M"
_symmetry_group_IT_number 63
_symmetry_cell_setting 'orthorhombic'
loop_
_space_group_symop_operation_xyz
x,y,z
-x,-y,1/2+z
x,-y,-z
-x,y,1/2-z
-x,-y,-z
x,y,1/2-z
-x,y,z
x,-y,1/2+z
1/2+x,1/2+y,z
1/2-x,1/2-y,1/2+z
1/2+x,1/2-y,-z
1/2-x,1/2+y,1/2-z
1/2-x,1/2-y,-z
1/2+x,1/2+y,1/2-z
1/2-x,1/2+y,z
1/2+x,1/2-y,1/2+z
loop_
_atom_site_type_symbol
_atom_site_label
_atom_site_fract_x
_atom_site_fract_y
_atom_site_fract_z
Si Si1 0.632585 0.165770 0.750000
Si Si2 0.632403 0.910118 0.498937
Si Si3 0.367280 0.342501 0.750000
Si Si4 0.000000 0.327056 0.824556
Si Si5 0.242576 0.088984 0.867130
Si Si6 0.500000 0.347039 0.171174
Si Si7 0.776137 0.589658 0.135491
O O1 0.500000 0.153576 0.750000
O O2 0.654048 0.254042 0.750000
O O3 0.688342 0.128712 0.688603
O O4 0.500000 0.884679 0.502066
O O5 0.698523 0.889301 0.434329
O O6 0.709861 0.890076 0.560141
O O7 0.625300 0.000000 0.500000
O O8 0.500000 0.355694 0.750000
O O9 0.312913 0.375630 0.685136
O O10 0.893509 0.377108 0.840837
O O11 0.000000 0.315661 0.750000
O O12 0.000000 0.241059 0.848821
O O13 0.113365 0.114383 0.856254
O O14 0.258198 0.999482 0.861014
O O15 0.500000 0.352933 0.250000
#
# Coordination Sequence:
#
# PCOD9476280 Si02
#       7
#     8  16   8   8  16   8  16
#     4  11  23  39  61  89 125 159 203 261 313 355
#     4   9  19  38  61  93 124 152 201 269 313 347
#     4  11  25  41  57  87 133 165 195 253 311 365
#     4  11  22  38  65  92 122 157 214 267 304 352
#     4  11  23  38  65  91 123 163 205 253 308 373
#     4  11  24  42  59  88 134 169 200 253 314 370
#     4  11  22  38  67  92 117 162 212 254 302 368
#
# _framework density 8.8183419999999995
#
# number of rings (size 3 to 8) (size 9 to 14) (size 15 to 20)
#    0.000    1.400    3.000    2.400    4.200    0.000 
#    1.800    5.500    0.000    0.000    0.000    0.000 
#    0.000    0.000    0.000    0.000    0.000    0.000 
#
# Total GULP energy -222901.258732 kJ/mol
# GULP energy per Si atom -5572.531468 kJ/mol
# Density = 0.879827 g / cm^3
# Si number density = 8.818342 Si / 1000 Ang^3
#
#
#
# Elastic Constant Matrix: (Units=GPa)
#
#
# Indices 1 2 3 4 5 6 
#
# 1 145.3157 65.0268 78.3396 0.0000 0.0000 0.0000
# 2 65.0268 89.7057 39.7331 0.0000 0.0000 0.0000
# 3 78.3396 39.7331 170.1429 0.0000 0.0000 0.0000
# 4 0.0000 0.0000 0.0000 7.9152 0.0000 0.0000
# 5 0.0000 0.0000 0.0000 0.0000 33.5595 0.0000
# 6 0.0000 0.0000 0.0000 0.0000 0.0000 46.4751
#
#
#
# Elastic Compliance Matrix: (Units=1/GPa)
#
#
# Indices 1 2 3 4 5 6 
#
# 1 0.012182 -0.007078 -0.003956 0.000000 0.000000 0.000000
# 2 -0.007078 0.016546 -0.000605 0.000000 0.000000 0.000000
# 3 -0.003956 -0.000605 0.007840 0.000000 0.000000 0.000000
# 4 0.000000 0.000000 0.000000 0.126339 0.000000 0.000000
# 5 0.000000 0.000000 0.000000 0.000000 0.029798 0.000000
# 6 0.000000 0.000000 0.000000 0.000000 0.000000 0.021517
#
#
# Mechanical properties :
#
#
# Convention : Reuss Voigt Hill
#
# Bulk Modulus (GPa) = 75.24436 85.70703 80.47569
# Shear Modulus (GPa) = 20.66717 32.39428 26.53073
#
# Velocity S-wave (km/s) = 3.42691 4.29039 3.88273
# Velocity P-wave (km/s) = 7.64294 8.55831 8.11354
#
# Compressibility (1/GPa) = 0.01329003
#
# Stress axis : x y z
#
# Youngs Moduli (GPa) = 82.09143 60.43600 127.54914
#
# Poissons Ratio (x) = 0.42777 0.50457
# Poissons Ratio (y) = 0.58105 0.07717
# Poissons Ratio (z) = 0.32474 0.03657
#
# Static dielectric constant tensor:
#      x y z
#    x 1.597710 0.000000 0.000000 
#    y 0.000000 1.599000 0.000000 
#    z 0.000000 0.000000 1.634240 
# 
# From -- ./inp_files/52494.got.cif
#   From: 2010.05.17/outbox.ucp.g08.bks.cvg/sg63_27_cif.got.tgz:52494.got - 2010.06.11 16:32:19.
