data_PCOD9476841
_publ_section_title
;
Structure prediction by ZEFSAII (Michael W. Deem and Ramdas Pophale) SiO2 
 PCOD9476841
Probable space group: C M C A
;
_chemical_formula_sum "Si O2"
_cell_formula_units_Z 72
_cell_length_a 14.172220
_cell_length_b 17.750044
_cell_length_c 18.203897
_cell_angle_alpha 90.000000
_cell_angle_beta 90.000000
_cell_angle_gamma 90.000000
_cell_volume 4579.327340
_symmetry_space_group_name_H-M "C M C A"
_symmetry_group_IT_number 64
_symmetry_cell_setting 'orthorhombic'
loop_
_space_group_symop_operation_xyz
x,y,z
-x,1/2-y,1/2+z
x,-y,-z
-x,1/2+y,1/2-z
-x,-y,-z
x,1/2+y,1/2-z
-x,y,z
x,1/2-y,1/2+z
1/2+x,1/2+y,z
1/2-x,-y,1/2+z
1/2+x,1/2-y,-z
1/2-x,y,1/2-z
1/2-x,1/2-y,-z
1/2+x,y,1/2-z
1/2-x,1/2+y,z
1/2+x,-y,1/2+z
loop_
_atom_site_type_symbol
_atom_site_label
_atom_site_fract_x
_atom_site_fract_y
_atom_site_fract_z
Si Si1 0.710395 0.816678 0.396448
Si Si2 0.608996 0.243312 0.968922
Si Si3 0.250000 0.227476 0.250000
Si Si4 0.613074 0.975603 0.415754
Si Si5 0.890755 0.630940 0.344518
O O1 0.646360 0.765860 0.450894
O O2 0.815765 0.812613 0.431360
O O3 0.713470 0.779564 0.316343
O O4 0.668589 0.900115 0.396781
O O5 0.500000 0.218506 0.969360
O O6 0.614496 0.318966 0.918976
O O7 0.170721 0.173765 0.215272
O O8 0.500000 0.962726 0.409220
O O9 0.639329 0.046477 0.364686
O O10 0.630631 0.000000 0.500000
O O11 0.000000 0.629121 0.322277
#
# Coordination Sequence:
#
# PCOD9476841 Si02
#       5
#    16  16   8  16  16
#     4  10  19  31  52  79 103 136 168 211 256 303
#     4   9  17  32  53  77 101 131 174 213 248 293
#     4  10  22  34  48  76 108 140 162 198 264 320
#     4  10  18  31  55  80  98 126 174 223 253 286
#     4   9  18  33  52  75 103 132 168 215 255 293
#
# _framework density 15.722833
#
# number of rings (size 3 to 8) (size 9 to 14) (size 15 to 20)
#    0.000    2.444    2.222    0.667    0.000    2.667 
#    0.000    0.000    0.000    2.000    0.000    0.000 
#    0.000    0.000    0.000    0.000    0.000    0.000 
#
# Total GULP energy -200653.527170 kJ/mol
# GULP energy per Si atom -5573.709088 kJ/mol
# Density = 1.568705 g / cm^3
# Si number density = 15.722833 Si / 1000 Ang^3
#
#
#
# Elastic Constant Matrix: (Units=GPa)
#
#
# Indices 1 2 3 4 5 6 
#
# 1 94.2741 65.4720 56.8926 0.0000 0.0000 0.0000
# 2 65.4720 132.7272 63.4314 0.0000 0.0000 0.0000
# 3 56.8926 63.4314 123.0057 0.0000 0.0000 0.0000
# 4 0.0000 0.0000 0.0000 12.7967 0.0000 0.0000
# 5 0.0000 0.0000 0.0000 0.0000 14.0453 0.0000
# 6 0.0000 0.0000 0.0000 0.0000 0.0000 29.8847
#
#
#
# Elastic Compliance Matrix: (Units=1/GPa)
#
#
# Indices 1 2 3 4 5 6 
#
# 1 0.018213 -0.006580 -0.005031 0.000000 0.000000 0.000000
# 2 -0.006580 0.012375 -0.003338 0.000000 0.000000 0.000000
# 3 -0.005031 -0.003338 0.012178 0.000000 0.000000 0.000000
# 4 0.000000 0.000000 0.000000 0.078145 0.000000 0.000000
# 5 0.000000 0.000000 0.000000 0.000000 0.071198 0.000000
# 6 0.000000 0.000000 0.000000 0.000000 0.000000 0.033462
#
#
# Mechanical properties :
#
#
# Convention : Reuss Voigt Hill
#
# Bulk Modulus (GPa) = 77.71000 80.17770 78.94385
# Shear Modulus (GPa) = 19.24855 22.29272 20.77064
#
# Velocity S-wave (km/s) = 3.50271 3.76953 3.63857
# Velocity P-wave (km/s) = 8.11732 8.36964 8.24445
#
# Compressibility (1/GPa) = 0.01286836
#
# Stress axis : x y z
#
# Youngs Moduli (GPa) = 54.90590 80.80507 82.11479
#
# Poissons Ratio (x) = 0.53169 0.41310
# Poissons Ratio (y) = 0.36128 0.27413
# Poissons Ratio (z) = 0.27622 0.26976
#
# Static dielectric constant tensor:
#      x y z
#    x 1.527620 0.000000 0.000000 
#    y 0.000000 1.504350 0.000000 
#    z 0.000000 0.000000 1.517420 
# 
# From -- ./inp_files/23482.got.cif
#   From: 2010.05.17/outbox.cif.g08.bks.cpg/sg64_12_cif.got.tgz:23482.got - 2010.06.03 16:29:19.
