data_PCOD9476415
_publ_section_title
;
Structure prediction by ZEFSAII (Michael W. Deem and Ramdas Pophale) SiO2 
 PCOD9476415
Probable space group: C M C A
;
_chemical_formula_sum "Si O2"
_cell_formula_units_Z 60
_cell_length_a 16.549960
_cell_length_b 17.860419
_cell_length_c 7.708580
_cell_angle_alpha 90.000000
_cell_angle_beta 90.000000
_cell_angle_gamma 90.000000
_cell_volume 2278.573150
_symmetry_space_group_name_H-M "C M C A"
_symmetry_group_IT_number 64
_symmetry_cell_setting 'orthorhombic'
loop_
_space_group_symop_operation_xyz
x,y,z
-x,1/2-y,1/2+z
x,-y,-z
-x,1/2+y,1/2-z
-x,-y,-z
x,1/2+y,1/2-z
-x,y,z
x,1/2-y,1/2+z
1/2+x,1/2+y,z
1/2-x,-y,1/2+z
1/2+x,1/2-y,-z
1/2-x,y,1/2-z
1/2-x,1/2-y,-z
1/2+x,y,1/2-z
1/2-x,1/2+y,z
1/2+x,-y,1/2+z
loop_
_atom_site_type_symbol
_atom_site_label
_atom_site_fract_x
_atom_site_fract_y
_atom_site_fract_z
Si Si1 0.000000 0.632752 0.532630
Si Si2 0.000000 0.000000 0.500000
Si Si3 0.130292 0.061367 0.781306
Si Si4 0.500000 0.225362 0.892457
Si Si5 0.681778 0.684029 0.528397
Si Si6 0.750000 0.431414 0.750000
O O1 0.079301 0.585037 0.552017
O O2 0.000000 0.682217 0.710703
O O3 0.000000 0.685351 0.368272
O O4 0.930534 0.035415 0.629314
O O5 0.172997 0.136589 0.707263
O O6 0.186106 0.991579 0.815865
O O7 0.412871 0.210696 0.987110
O O8 0.750000 0.750000 0.500000
O O9 0.707713 0.622191 0.388676
#
# Coordination Sequence:
#
# PCOD9476415 Si02
#       6
#     8   4  16   8  16   8
#     4   9  22  42  70  97 137 184 231 293 348 437
#     4  10  16  44  64  90 130 184 230 280 356 438
#     4  10  22  41  67  96 132 179 235 287 349 431
#     4  10  24  45  69 101 146 185 233 291 376 421
#     4  11  26  43  67 101 139 180 235 296 359 426
#     4  12  24  38  70  96 132 180 232 292 358 414
#
# _framework density 26.332267999999999
#
# number of rings (size 3 to 8) (size 9 to 14) (size 15 to 20)
#    0.000    1.600    2.667    0.800   11.200    0.000 
#    0.000    2.667    0.000    1.600    0.000    0.000 
#    0.000    0.000    0.000    0.000    0.000    0.000 
#
# Total GULP energy -167225.009907 kJ/mol
# GULP energy per Si atom -5574.166997 kJ/mol
# Density = 2.627233 g / cm^3
# Si number density = 26.332268 Si / 1000 Ang^3
#
#
#
# Elastic Constant Matrix: (Units=GPa)
#
#
# Indices 1 2 3 4 5 6 
#
# 1 246.1112 96.7953 54.8622 0.0000 0.0000 0.0000
# 2 96.7953 171.9899 44.1369 0.0000 0.0000 0.0000
# 3 54.8622 44.1369 42.0978 0.0000 0.0000 0.0000
# 4 0.0000 0.0000 0.0000 38.2918 0.0000 0.0000
# 5 0.0000 0.0000 0.0000 0.0000 26.3777 0.0000
# 6 0.0000 0.0000 0.0000 0.0000 0.0000 20.3668
#
#
#
# Elastic Compliance Matrix: (Units=1/GPa)
#
#
# Indices 1 2 3 4 5 6 
#
# 1 0.006160 -0.001924 -0.006010 0.000000 0.000000 0.000000
# 2 -0.001924 0.008556 -0.006462 0.000000 0.000000 0.000000
# 3 -0.006010 -0.006462 0.038361 0.000000 0.000000 0.000000
# 4 0.000000 0.000000 0.000000 0.026115 0.000000 0.000000
# 5 0.000000 0.000000 0.000000 0.000000 0.037911 0.000000
# 6 0.000000 0.000000 0.000000 0.000000 0.000000 0.049099
#
#
# Mechanical properties :
#
#
# Convention : Reuss Voigt Hill
#
# Bulk Modulus (GPa) = 41.17927 94.64305 67.91116
# Shear Modulus (GPa) = 24.61963 34.63425 29.62694
#
# Velocity S-wave (km/s) = 3.06103 3.63061 3.35792
# Velocity P-wave (km/s) = 5.30712 7.32086 6.39377
#
# Compressibility (1/GPa) = 0.02428406
#
# Stress axis : x y z
#
# Youngs Moduli (GPa) = 162.34394 116.88091 26.06782
#
# Poissons Ratio (x) = 0.22493 0.15666
# Poissons Ratio (y) = 0.31242 0.16846
# Poissons Ratio (z) = 0.97566 0.75531
#
# Static dielectric constant tensor:
#      x y z
#    x 3.094580 0.000000 0.000000 
#    y 0.000000 2.115580 0.000000 
#    z 0.000000 0.000000 2.155250 
# 
# From -- ./inp_files/6500.got.cif
#   From: 2010.05.17/outbox.cif.g08.bks.cpg/sg64_4_cif.got.tgz:6500.got - 2010.06.03 16:29:19.
