data_PCOD9476389
_publ_section_title
;
Structure prediction by ZEFSAII (Michael W. Deem and Ramdas Pophale) SiO2 
 PCOD9476389
Probable space group: C M C A
;
_chemical_formula_sum "Si O2"
_cell_formula_units_Z 112
_cell_length_a 19.831491
_cell_length_b 13.115873
_cell_length_c 23.604400
_cell_angle_alpha 90.000000
_cell_angle_beta 90.000000
_cell_angle_gamma 90.000000
_cell_volume 6139.677162
_symmetry_space_group_name_H-M "C M C A"
_symmetry_group_IT_number 64
_symmetry_cell_setting 'orthorhombic'
loop_
_space_group_symop_operation_xyz
x,y,z
-x,1/2-y,1/2+z
x,-y,-z
-x,1/2+y,1/2-z
-x,-y,-z
x,1/2+y,1/2-z
-x,y,z
x,1/2-y,1/2+z
1/2+x,1/2+y,z
1/2-x,-y,1/2+z
1/2+x,1/2-y,-z
1/2-x,y,1/2-z
1/2-x,1/2-y,-z
1/2+x,y,1/2-z
1/2-x,1/2+y,z
1/2+x,-y,1/2+z
loop_
_atom_site_type_symbol
_atom_site_label
_atom_site_fract_x
_atom_site_fract_y
_atom_site_fract_z
Si Si1 0.823156 0.748736 0.230640
Si Si2 0.860684 0.442986 0.337904
Si Si3 0.852240 0.724501 0.425249
Si Si4 0.575125 0.647716 0.180175
Si Si5 0.319803 0.053269 0.944566
Si Si6 0.837596 0.100940 0.966332
Si Si7 0.760974 0.403151 0.859287
O O1 0.750000 0.788550 0.250000
O O2 0.858139 0.843200 0.200083
O O3 0.868802 0.702721 0.280671
O O4 0.801344 0.658984 0.187583
O O5 0.915088 0.525805 0.318557
O O6 0.866386 0.405510 0.403133
O O7 0.791853 0.512039 0.336064
O O8 0.909208 0.678126 0.384808
O O9 0.854322 0.845705 0.421781
O O10 0.854656 0.692051 0.491012
O O11 0.783859 0.674241 0.398133
O O12 0.500000 0.676887 0.197190
O O13 0.243588 0.091578 0.960073
O O14 0.311177 0.966101 0.898362
O O15 0.349571 0.000000 0.000000
O O16 0.859688 0.000000 0.000000
#
# Coordination Sequence:
#
# PCOD9476389 Si02
#       7
#    16  16  16  16  16  16  16
#     4  12  24  37  63  92 122 159 204 264 307 357
#     4  10  22  36  60  91 125 155 202 252 307 359
#     4  11  19  35  57  86 124 160 199 245 306 367
#     4  11  26  45  61  83 121 168 211 250 305 371
#     4  10  19  27  52  89 130 154 179 237 314 366
#     4  10  16  32  56  90 126 152 188 248 310 364
#     4  10  19  34  52  91 120 155 191 248 305 361
#
# _framework density 18.242001999999999
#
# number of rings (size 3 to 8) (size 9 to 14) (size 15 to 20)
#    0.000    1.429    8.571    2.143    4.000    0.571 
#    0.000    1.429    0.000    0.429    0.000    0.000 
#    0.000    0.000    0.000    0.000    0.000    0.000 
#
# Total GULP energy -312293.612200 kJ/mol
# GULP energy per Si atom -5576.671646 kJ/mol
# Density = 1.820048 g / cm^3
# Si number density = 18.242002 Si / 1000 Ang^3
#
#
#
# Elastic Constant Matrix: (Units=GPa)
#
#
# Indices 1 2 3 4 5 6 
#
# 1 43.8748 8.7134 17.0128 0.0000 0.0000 0.0000
# 2 8.7134 74.5377 39.0299 0.0000 0.0000 0.0000
# 3 17.0128 39.0299 74.4930 0.0000 0.0000 0.0000
# 4 0.0000 0.0000 0.0000 24.9414 0.0000 0.0000
# 5 0.0000 0.0000 0.0000 0.0000 5.0972 0.0000
# 6 0.0000 0.0000 0.0000 0.0000 0.0000 5.0272
#
#
#
# Elastic Compliance Matrix: (Units=1/GPa)
#
#
# Indices 1 2 3 4 5 6 
#
# 1 0.025007 0.000093 -0.005760 0.000000 0.000000 0.000000
# 2 0.000093 0.018489 -0.009708 0.000000 0.000000 0.000000
# 3 -0.005760 -0.009708 0.019826 0.000000 0.000000 0.000000
# 4 0.000000 0.000000 0.000000 0.040094 0.000000 0.000000
# 5 0.000000 0.000000 0.000000 0.000000 0.196187 0.000000
# 6 0.000000 0.000000 0.000000 0.000000 0.000000 0.198918
#
#
# Mechanical properties :
#
#
# Convention : Reuss Voigt Hill
#
# Bulk Modulus (GPa) = 30.70182 35.82418 33.26300
# Shear Modulus (GPa) = 9.25706 15.55645 12.40675
#
# Velocity S-wave (km/s) = 2.25513 2.92341 2.61074
# Velocity P-wave (km/s) = 4.86288 5.57459 5.23085
#
# Compressibility (1/GPa) = 0.03257136
#
# Stress axis : x y z
#
# Youngs Moduli (GPa) = 39.98869 54.08737 50.43897
#
# Poissons Ratio (x) = -0.00501 0.29051
# Poissons Ratio (y) = -0.00370 0.48967
# Poissons Ratio (z) = 0.23032 0.52508
#
# Static dielectric constant tensor:
#      x y z
#    x 1.627870 0.000000 0.000000 
#    y 0.000000 1.632530 0.000000 
#    z 0.000000 0.000000 1.662890 
# 
# From -- ./inp_files/46356.got.cif
#   From: 2010.05.17/outbox.cif.g08.bks.cpg/sg64_24_cif.got.tgz:46356.got - 2010.06.03 16:29:19.
