data_PCOD9476720
_publ_section_title
;
Structure prediction by ZEFSAII (Michael W. Deem and Ramdas Pophale) SiO2 
 PCOD9476720
Probable space group: C M C A
;
_chemical_formula_sum "Si O2"
_cell_formula_units_Z 96
_cell_length_a 8.552708
_cell_length_b 24.326451
_cell_length_c 26.641607
_cell_angle_alpha 90.000000
_cell_angle_beta 90.000000
_cell_angle_gamma 90.000000
_cell_volume 5542.973682
_symmetry_space_group_name_H-M "C M C A"
_symmetry_group_IT_number 64
_symmetry_cell_setting 'orthorhombic'
loop_
_space_group_symop_operation_xyz
x,y,z
-x,1/2-y,1/2+z
x,-y,-z
-x,1/2+y,1/2-z
-x,-y,-z
x,1/2+y,1/2-z
-x,y,z
x,1/2-y,1/2+z
1/2+x,1/2+y,z
1/2-x,-y,1/2+z
1/2+x,1/2-y,-z
1/2-x,y,1/2-z
1/2-x,1/2-y,-z
1/2+x,y,1/2-z
1/2-x,1/2+y,z
1/2+x,-y,1/2+z
loop_
_atom_site_type_symbol
_atom_site_label
_atom_site_fract_x
_atom_site_fract_y
_atom_site_fract_z
Si Si1 0.811397 0.753847 0.122528
Si Si2 0.815111 0.859598 0.070544
Si Si3 0.686321 0.480828 0.443815
Si Si4 0.184799 0.326578 0.967393
Si Si5 0.186137 0.162944 0.194377
Si Si6 0.813644 0.083661 0.104163
O O1 0.763311 0.816921 0.113840
O O2 0.765429 0.719389 0.072702
O O3 0.746143 0.719343 0.168939
O O4 0.000000 0.752375 0.124873
O O5 0.729629 0.917732 0.066486
O O6 0.000000 0.869254 0.075408
O O7 0.781405 0.828272 0.018258
O O8 0.737393 0.500000 0.500000
O O9 0.500000 0.487717 0.441238
O O10 0.768147 0.520656 0.403572
O O11 0.219817 0.383470 0.938666
O O12 0.000000 0.321444 0.977893
O O13 0.250000 0.155532 0.250000
O O14 0.230087 0.113125 0.156498
O O15 0.000000 0.164903 0.196164
O O16 0.000000 0.091006 0.096747
#
# Coordination Sequence:
#
# PCOD9476720 Si02
#       6
#    16  16  16  16  16  16
#     4   9  20  35  51  75 106 138 174 217 264 312
#     4  11  21  32  49  73 105 145 181 214 256 307
#     4  11  22  34  50  74 106 146 185 219 261 309
#     4  10  18  30  48  72 105 141 175 214 257 306
#     4  10  21  37  60  85 106 133 170 217 272 321
#     4  10  20  34  53  78 105 137 179 221 262 310
#
# _framework density 17.319223999999998
#
# number of rings (size 3 to 8) (size 9 to 14) (size 15 to 20)
#    0.000    1.833    1.667    3.000    0.000    4.667 
#    0.000    0.000    0.000    1.000    0.000    4.667 
#    0.000    0.000    0.000    0.000    0.000    0.000 
#
# Total GULP energy -267862.697270 kJ/mol
# GULP energy per Si atom -5580.472860 kJ/mol
# Density = 1.727980 g / cm^3
# Si number density = 17.319224 Si / 1000 Ang^3
#
#
#
# Elastic Constant Matrix: (Units=GPa)
#
#
# Indices 1 2 3 4 5 6 
#
# 1 23.9798 18.7896 16.0336 0.0000 0.0000 0.0000
# 2 18.7896 86.6406 37.6473 0.0000 0.0000 0.0000
# 3 16.0336 37.6473 88.1005 0.0000 0.0000 0.0000
# 4 0.0000 0.0000 0.0000 11.5744 0.0000 0.0000
# 5 0.0000 0.0000 0.0000 0.0000 24.1037 0.0000
# 6 0.0000 0.0000 0.0000 0.0000 0.0000 20.5557
#
#
#
# Elastic Compliance Matrix: (Units=1/GPa)
#
#
# Indices 1 2 3 4 5 6 
#
# 1 0.052516 -0.008886 -0.005760 0.000000 0.000000 0.000000
# 2 -0.008886 0.015677 -0.005082 0.000000 0.000000 0.000000
# 3 -0.005760 -0.005082 0.014571 0.000000 0.000000 0.000000
# 4 0.000000 0.000000 0.000000 0.086397 0.000000 0.000000
# 5 0.000000 0.000000 0.000000 0.000000 0.041487 0.000000
# 6 0.000000 0.000000 0.000000 0.000000 0.000000 0.048648
#
#
# Mechanical properties :
#
#
# Convention : Reuss Voigt Hill
#
# Bulk Modulus (GPa) = 23.09090 38.18466 30.63778
# Shear Modulus (GPa) = 15.96477 19.66346 17.81411
#
# Velocity S-wave (km/s) = 3.03940 3.37316 3.21062
# Velocity P-wave (km/s) = 5.06742 6.10462 5.61004
#
# Compressibility (1/GPa) = 0.04330710
#
# Stress axis : x y z
#
# Youngs Moduli (GPa) = 19.04184 63.78638 68.63106
#
# Poissons Ratio (x) = 0.56681 0.39533
# Poissons Ratio (y) = 0.16921 0.34879
# Poissons Ratio (z) = 0.10969 0.32417
#
# Static dielectric constant tensor:
#      x y z
#    x 1.576440 0.000000 0.000000 
#    y 0.000000 1.623160 0.000000 
#    z 0.000000 0.000000 1.578460 
# 
# From -- ./inp_files/42951.got.cif
#   From: 2010.05.17/outbox.cif.g08.bks.cpg/sg64_22_cif.got.tgz:42951.got - 2010.06.03 16:29:19.
