data_PCOD9476748
_publ_section_title
;
Structure prediction by ZEFSAII (Michael W. Deem and Ramdas Pophale) SiO2 
 PCOD9476748
Probable space group: C M C A
;
_chemical_formula_sum "Si O2"
_cell_formula_units_Z 96
_cell_length_a 8.859886
_cell_length_b 23.450123
_cell_length_c 26.295221
_cell_angle_alpha 90.000000
_cell_angle_beta 90.000000
_cell_angle_gamma 90.000000
_cell_volume 5463.237542
_symmetry_space_group_name_H-M "C M C A"
_symmetry_group_IT_number 64
_symmetry_cell_setting 'orthorhombic'
loop_
_space_group_symop_operation_xyz
x,y,z
-x,1/2-y,1/2+z
x,-y,-z
-x,1/2+y,1/2-z
-x,-y,-z
x,1/2+y,1/2-z
-x,y,z
x,1/2-y,1/2+z
1/2+x,1/2+y,z
1/2-x,-y,1/2+z
1/2+x,1/2-y,-z
1/2-x,y,1/2-z
1/2-x,1/2-y,-z
1/2+x,y,1/2-z
1/2-x,1/2+y,z
1/2+x,-y,1/2+z
loop_
_atom_site_type_symbol
_atom_site_label
_atom_site_fract_x
_atom_site_fract_y
_atom_site_fract_z
Si Si1 0.818563 0.812876 0.499791
Si Si2 0.664659 0.006750 0.440077
Si Si3 0.324196 0.387817 0.597221
Si Si4 0.817462 0.568196 0.694732
Si Si5 0.180034 0.065312 0.194851
Si Si6 0.825623 0.876936 0.095572
O O1 0.750000 0.750000 0.500000
O O2 0.770058 0.846363 0.551537
O O3 0.763338 0.844001 0.448216
O O4 0.000000 0.811385 0.500028
O O5 0.500000 0.031363 0.423785
O O6 0.796193 0.048857 0.424644
O O7 0.664083 0.000000 0.500000
O O8 0.673049 0.943362 0.419606
O O9 0.500000 0.376408 0.605997
O O10 0.239471 0.392280 0.651142
O O11 0.750000 0.579680 0.750000
O O12 0.778294 0.501449 0.682450
O O13 0.766965 0.615454 0.653313
O O14 0.000000 0.570208 0.695656
O O15 0.250000 0.077710 0.250000
O O16 0.000000 0.067899 0.198116
O O17 0.000000 0.856303 0.095787
#
# Coordination Sequence:
#
# PCOD9476748 Si02
#       6
#    16  16  16  16  16  16
#     4  11  25  41  57  79 105 140 185 231 280 326
#     4  10  18  30  50  77 109 146 179 211 267 333
#     4  11  22  34  52  80 112 143 179 225 273 325
#     4   9  18  31  49  77 112 148 181 213 256 314
#     4  10  19  33  52  79 114 151 185 216 262 321
#     4  10  19  34  55  79 110 145 181 221 268 324
#
# _framework density 17.571997
#
# number of rings (size 3 to 8) (size 9 to 14) (size 15 to 20)
#    0.000    1.833    3.333    1.500    0.000    4.333 
#    0.000    0.000    0.000    1.000    0.000    4.667 
#    0.000    0.000    0.000    0.000    0.000    0.000 
#
# Total GULP energy -267431.249880 kJ/mol
# GULP energy per Si atom -5571.484373 kJ/mol
# Density = 1.753200 g / cm^3
# Si number density = 17.571997 Si / 1000 Ang^3
#
#
#
# Elastic Constant Matrix: (Units=GPa)
#
#
# Indices 1 2 3 4 5 6 
#
# 1 47.7385 26.9442 51.5403 0.0000 0.0000 0.0000
# 2 26.9442 63.0122 56.7803 0.0000 0.0000 0.0000
# 3 51.5403 56.7803 165.4205 0.0000 0.0000 0.0000
# 4 0.0000 0.0000 0.0000 9.2427 0.0000 0.0000
# 5 0.0000 0.0000 0.0000 0.0000 27.7071 0.0000
# 6 0.0000 0.0000 0.0000 0.0000 0.0000 18.2093
#
#
#
# Elastic Compliance Matrix: (Units=1/GPa)
#
#
# Indices 1 2 3 4 5 6 
#
# 1 0.033656 -0.007155 -0.008030 0.000000 0.000000 0.000000
# 2 -0.007155 0.024498 -0.006179 0.000000 0.000000 0.000000
# 3 -0.008030 -0.006179 0.010668 0.000000 0.000000 0.000000
# 4 0.000000 0.000000 0.000000 0.108193 0.000000 0.000000
# 5 0.000000 0.000000 0.000000 0.000000 0.036092 0.000000
# 6 0.000000 0.000000 0.000000 0.000000 0.000000 0.054917
#
#
# Mechanical properties :
#
#
# Convention : Reuss Voigt Hill
#
# Bulk Modulus (GPa) = 38.32594 60.74455 49.53524
# Shear Modulus (GPa) = 15.65185 20.42557 18.03871
#
# Velocity S-wave (km/s) = 2.98774 3.41309 3.20747
# Velocity P-wave (km/s) = 5.81036 7.08352 6.47829
#
# Compressibility (1/GPa) = 0.02609199
#
# Stress axis : x y z
#
# Youngs Moduli (GPa) = 29.71280 40.81981 93.73624
#
# Poissons Ratio (x) = 0.29208 0.75271
# Poissons Ratio (y) = 0.21260 0.57924
# Poissons Ratio (z) = 0.23860 0.25225
#
# Static dielectric constant tensor:
#      x y z
#    x 1.630660 0.000000 0.000000 
#    y 0.000000 1.575680 0.000000 
#    z 0.000000 0.000000 1.866450 
# 
# From -- ./inp_files/48354.got.cif
#   From: 2010.05.17/outbox.cif.g08.bks.cpg/sg64_25_cif.got.tgz:48354.got - 2010.06.03 16:29:19.
