data_PCOD9476871
_publ_section_title
;
Structure prediction by ZEFSAII (Michael W. Deem and Ramdas Pophale) SiO2 
 PCOD9476871
Probable space group: C M C A
;
_chemical_formula_sum "Si O2"
_cell_formula_units_Z 96
_cell_length_a 8.645335
_cell_length_b 25.969006
_cell_length_c 25.493672
_cell_angle_alpha 90.000000
_cell_angle_beta 90.000000
_cell_angle_gamma 90.000000
_cell_volume 5723.603586
_symmetry_space_group_name_H-M "C M C A"
_symmetry_group_IT_number 64
_symmetry_cell_setting 'orthorhombic'
loop_
_space_group_symop_operation_xyz
x,y,z
-x,1/2-y,1/2+z
x,-y,-z
-x,1/2+y,1/2-z
-x,-y,-z
x,1/2+y,1/2-z
-x,y,z
x,1/2-y,1/2+z
1/2+x,1/2+y,z
1/2-x,-y,1/2+z
1/2+x,1/2-y,-z
1/2-x,y,1/2-z
1/2-x,1/2-y,-z
1/2+x,y,1/2-z
1/2-x,1/2+y,z
1/2+x,-y,1/2+z
loop_
_atom_site_type_symbol
_atom_site_label
_atom_site_fract_x
_atom_site_fract_y
_atom_site_fract_z
Si Si1 0.686788 0.939673 0.611953
Si Si2 0.684349 0.859636 0.308958
Si Si3 0.317192 0.555340 0.614283
Si Si4 0.814912 0.252414 0.190509
Si Si5 0.314870 0.355257 0.690760
Si Si6 0.677356 0.437707 0.004647
O O1 0.500000 0.941414 0.614216
O O2 0.754218 0.901700 0.655250
O O3 0.729548 0.920525 0.553094
O O4 0.751181 0.997395 0.618990
O O5 0.500000 0.855335 0.306152
O O6 0.750000 0.866244 0.250000
O O7 0.735637 0.907162 0.344546
O O8 0.754098 0.806345 0.331923
O O9 0.500000 0.554875 0.623013
O O10 0.278927 0.574325 0.555197
O O11 0.750000 0.252981 0.250000
O O12 0.748706 0.199101 0.168316
O O13 0.000000 0.251318 0.190983
O O14 0.500000 0.354049 0.692752
O O15 0.250000 0.360792 0.750000
O O16 0.500000 0.421044 0.014002
O O17 0.674914 0.500000 0.000000
#
# Coordination Sequence:
#
# PCOD9476871 Si02
#       6
#    16  16  16  16  16  16
#     4  10  20  35  53  75 103 135 170 208 252 299
#     4  11  21  35  53  75 103 134 169 208 252 299
#     4  11  21  33  51  77 105 134 169 207 250 300
#     4  10  18  32  52  74  99 130 169 208 247 293
#     4  11  21  34  52  76 104 135 170 207 251 299
#     4   8  16  32  52  72  97 131 169 207 247 293
#
# _framework density 16.772649000000001
#
# number of rings (size 3 to 8) (size 9 to 14) (size 15 to 20)
#    0.000    1.833    0.000    9.500    0.000    4.333 
#    0.000    3.333    0.000    1.000    0.000    0.000 
#    0.000    0.000    0.000    0.000    0.000    0.000 
#
# Total GULP energy -267760.047214 kJ/mol
# GULP energy per Si atom -5578.334317 kJ/mol
# Density = 1.673447 g / cm^3
# Si number density = 16.772649 Si / 1000 Ang^3
#
#
#
# Elastic Constant Matrix: (Units=GPa)
#
#
# Indices 1 2 3 4 5 6 
#
# 1 148.4300 50.8008 44.1587 0.0000 0.0000 0.0000
# 2 50.8008 105.7509 54.7374 0.0000 0.0000 0.0000
# 3 44.1587 54.7374 80.9839 0.0000 0.0000 0.0000
# 4 0.0000 0.0000 0.0000 -5.2036 0.0000 0.0000
# 5 0.0000 0.0000 0.0000 0.0000 24.1068 0.0000
# 6 0.0000 0.0000 0.0000 0.0000 0.0000 26.6702
#
#
#
# Elastic Compliance Matrix: (Units=1/GPa)
#
#
# Indices 1 2 3 4 5 6 
#
# 1 0.008477 -0.002584 -0.002876 0.000000 0.000000 0.000000
# 2 -0.002584 0.015332 -0.008954 0.000000 0.000000 0.000000
# 3 -0.002876 -0.008954 0.019969 0.000000 0.000000 0.000000
# 4 0.000000 0.000000 0.000000 -0.192173 0.000000 0.000000
# 5 0.000000 0.000000 0.000000 0.000000 0.041482 0.000000
# 6 0.000000 0.000000 0.000000 0.000000 0.000000 0.037495
#
#
# Mechanical properties :
#
#
# Convention : Reuss Voigt Hill
#
# Bulk Modulus (GPa) = 66.88999 70.50651 68.69825
# Shear Modulus (GPa) = -140.42192 21.47920 -59.47136
#
# Velocity S-wave (km/s) = -9.15983 3.58244 -5.96107
# Velocity P-wave (km/s) = 8.47957 7.69673 2.51628
#
# Compressibility (1/GPa) = 0.01494992
#
# Stress axis : x y z
#
# Youngs Moduli (GPa) = 117.96526 65.22290 50.07849
#
# Poissons Ratio (x) = 0.16850 0.14403
# Poissons Ratio (y) = 0.30477 0.44842
# Poissons Ratio (z) = 0.33928 0.58402
#
# Static dielectric constant tensor:
#      x y z
#    x 1.558150 0.000000 0.000000 
#    y 0.000000 1.577760 0.000000 
#    z 0.000000 0.000000 1.578810 
# 
# From -- ./inp_files/48345.got.cif
#   From: 2010.05.17/outbox.cif.g08.bks.cpg/sg64_25_cif.got.tgz:48345.got - 2010.06.03 16:29:19.
