data_PCOD9476793
_publ_section_title
;
Structure prediction by ZEFSAII (Michael W. Deem and Ramdas Pophale) SiO2 
 PCOD9476793
Probable space group: C M C A
;
_chemical_formula_sum "Si O2"
_cell_formula_units_Z 72
_cell_length_a 19.728099
_cell_length_b 10.875517
_cell_length_c 17.121829
_cell_angle_alpha 90.000000
_cell_angle_beta 90.000000
_cell_angle_gamma 90.000000
_cell_volume 3673.544504
_symmetry_space_group_name_H-M "C M C A"
_symmetry_group_IT_number 64
_symmetry_cell_setting 'orthorhombic'
loop_
_space_group_symop_operation_xyz
x,y,z
-x,1/2-y,1/2+z
x,-y,-z
-x,1/2+y,1/2-z
-x,-y,-z
x,1/2+y,1/2-z
-x,y,z
x,1/2-y,1/2+z
1/2+x,1/2+y,z
1/2-x,-y,1/2+z
1/2+x,1/2-y,-z
1/2-x,y,1/2-z
1/2-x,1/2-y,-z
1/2+x,y,1/2-z
1/2-x,1/2+y,z
1/2+x,-y,1/2+z
loop_
_atom_site_type_symbol
_atom_site_label
_atom_site_fract_x
_atom_site_fract_y
_atom_site_fract_z
Si Si1 0.857738 0.092154 0.161711
Si Si2 0.230097 0.378059 0.407139
Si Si3 0.250000 0.778531 0.750000
Si Si4 0.142677 0.213657 0.526734
Si Si5 0.500000 0.283180 0.012307
Si Si6 0.000000 0.491890 0.626692
O O1 0.815644 0.136295 0.236158
O O2 0.868198 0.208928 0.106114
O O3 0.930339 0.029069 0.173374
O O4 0.808676 0.002281 0.112855
O O5 0.238981 0.304395 0.326141
O O6 0.183264 0.298190 0.464897
O O7 0.303918 0.389754 0.446867
O O8 0.067318 0.200459 0.493361
O O9 0.500000 0.373542 0.087258
O O10 0.500000 0.387260 0.942383
#
# Coordination Sequence:
#
# PCOD9476793 Si02
#       6
#    16  16   8  16   8   8
#     4  10  18  33  50  71 100 131 163 209 249 297
#     4  10  18  31  48  74  99 128 164 203 248 297
#     4  10  22  32  46  68 102 138 168 198 240 296
#     4   9  18  29  52  79  96 120 165 210 255 293
#     4   9  14  28  47  77 101 114 153 214 252 291
#     4   9  16  26  51  73  94 125 162 200 253 286
#
# _framework density 19.599601
#
# number of rings (size 3 to 8) (size 9 to 14) (size 15 to 20)
#    0.000    2.444    2.222    1.333    0.000    0.000 
#    0.000    2.222    0.000    6.667    0.000   21.778 
#    0.000    0.000    0.000    0.000    0.000    0.000 
#
# Total GULP energy -200594.837603 kJ/mol
# GULP energy per Si atom -5572.078822 kJ/mol
# Density = 1.955499 g / cm^3
# Si number density = 19.599601 Si / 1000 Ang^3
#
#
#
# Elastic Constant Matrix: (Units=GPa)
#
#
# Indices 1 2 3 4 5 6 
#
# 1 184.4691 29.6202 24.1135 0.0000 0.0000 0.0000
# 2 29.6202 28.3716 1.4948 0.0000 0.0000 0.0000
# 3 24.1135 1.4948 51.0115 0.0000 0.0000 0.0000
# 4 0.0000 0.0000 0.0000 18.0093 0.0000 0.0000
# 5 0.0000 0.0000 0.0000 0.0000 17.2663 0.0000
# 6 0.0000 0.0000 0.0000 0.0000 0.0000 -12.3984
#
#
#
# Elastic Compliance Matrix: (Units=1/GPa)
#
#
# Indices 1 2 3 4 5 6 
#
# 1 0.006966 -0.007110 -0.003084 0.000000 0.000000 0.000000
# 2 -0.007110 0.042558 0.002114 0.000000 0.000000 0.000000
# 3 -0.003084 0.002114 0.020999 0.000000 0.000000 0.000000
# 4 0.000000 0.000000 0.000000 0.055527 0.000000 0.000000
# 5 0.000000 0.000000 0.000000 0.000000 0.057916 0.000000
# 6 0.000000 0.000000 0.000000 0.000000 0.000000 -0.080655
#
#
# Mechanical properties :
#
#
# Convention : Reuss Voigt Hill
#
# Bulk Modulus (GPa) = 18.39512 41.58991 29.99252
# Shear Modulus (GPa) = 36.33915 18.48368 27.41142
#
# Velocity S-wave (km/s) = 4.31057 3.07427 3.74380
# Velocity P-wave (km/s) = 5.84641 5.81956 5.83300
#
# Compressibility (1/GPa) = 0.05436223
#
# Stress axis : x y z
#
# Youngs Moduli (GPa) = 143.55895 23.49739 47.62019
#
# Poissons Ratio (x) = 0.16706 0.14688
# Poissons Ratio (y) = 1.02068 -0.10066
# Poissons Ratio (z) = 0.44280 -0.04967
#
# Static dielectric constant tensor:
#      x y z
#    x 1.732060 0.000000 0.000000 
#    y 0.000000 1.690290 0.000000 
#    z 0.000000 0.000000 1.683860 
# 
# From -- ./inp_files/32884.got.cif
#   From: 2010.05.17/outbox.cif.g08.bks.cpg/sg64_17_cif.got.tgz:32884.got - 2010.06.03 16:29:19.
