data_PCOD9476146
_publ_section_title
;
Structure prediction by ZEFSAII (Michael W. Deem and Ramdas Pophale) SiO2 
 PCOD9476146
Probable space group: C M C M
;
_chemical_formula_sum "Si O2"
_cell_formula_units_Z 40
_cell_length_a 18.000000
_cell_length_b 27.000000
_cell_length_c 9.000000
_cell_angle_alpha 90.000000
_cell_angle_beta 90.000000
_cell_angle_gamma 90.000000
_cell_volume 4374.000000
_symmetry_space_group_name_H-M "C M C M"
_symmetry_group_IT_number 63
_symmetry_cell_setting 'orthorhombic'
loop_
_space_group_symop_operation_xyz
x,y,z
-x,-y,1/2+z
x,-y,-z
-x,y,1/2-z
-x,-y,-z
x,y,1/2-z
-x,y,z
x,-y,1/2+z
1/2+x,1/2+y,z
1/2-x,1/2-y,1/2+z
1/2+x,1/2-y,-z
1/2-x,1/2+y,1/2-z
1/2-x,1/2-y,-z
1/2+x,1/2+y,1/2-z
1/2-x,1/2+y,z
1/2+x,1/2-y,1/2+z
loop_
_atom_site_type_symbol
_atom_site_label
_atom_site_fract_x
_atom_site_fract_y
_atom_site_fract_z
Si Si1 0.914593 0.841323 0.078568
Si Si2 0.136297 0.050612 0.574177
Si Si3 0.716930 0.298047 0.925012
Si Si4 0.215702 0.394862 0.073908
Si Si5 0.414066 0.052949 0.421352
O O1 0.886156 0.838768 0.250000
O O2 0.904626 0.898587 0.029854
O O3 0.000000 0.828375 0.079049
O O4 0.867744 0.805995 0.974527
O O5 0.126611 0.045399 0.750000
O O6 0.222977 0.062482 0.542632
O O7 0.111837 0.000000 0.500000
O O8 0.725148 0.296219 0.750000
O O9 0.750000 0.250000 0.000000
O O10 0.756809 0.345994 0.992573
O O11 0.214162 0.387477 0.250000
O O12 0.137268 0.410225 0.010571
O O13 0.390091 0.049120 0.250000
O O14 0.500000 0.067878 0.424596
O O15 0.408077 0.000000 0.500000
#
# Coordination Sequence:
#
# PCOD9476146 Si02
#       5
#    16  16  16  16  16
#     4   9  19  37  57  78 109 145 178 216 263 310
#     4   9  18  30  47  74 106 141 177 212 252 300
#     4  11  22  38  60  83 107 135 173 219 268 322
#     4  10  20  35  54  76 104 138 179 224 269 317
#     4  10  20  33  50  75 108 145 182 220 267 321
#
# _framework density 9.1449470000000002
#
# number of rings (size 3 to 8) (size 9 to 14) (size 15 to 20)
#    0.000    2.200    0.000    4.800    0.000    7.600 
#    0.000    1.000    0.000    6.000    0.000    0.000 
#    0.000    0.000    0.000    0.000    0.000    0.000 
#
# Total GULP energy -223103.518370 kJ/mol
# GULP energy per Si atom -5577.587959 kJ/mol
# Density = 0.912413 g / cm^3
# Si number density = 9.144947 Si / 1000 Ang^3
#
#
#
# Elastic Constant Matrix: (Units=GPa)
#
#
# Indices 1 2 3 4 5 6 
#
# 1 60.8902 52.1822 63.6905 0.0000 0.0000 0.0000
# 2 52.1822 21.7180 13.8546 0.0000 0.0000 0.0000
# 3 63.6905 13.8546 78.2763 0.0000 0.0000 0.0000
# 4 0.0000 0.0000 0.0000 29.6474 0.0000 0.0000
# 5 0.0000 0.0000 0.0000 0.0000 24.7066 0.0000
# 6 0.0000 0.0000 0.0000 0.0000 0.0000 -7.3101
#
#
#
# Elastic Compliance Matrix: (Units=1/GPa)
#
#
# Indices 1 2 3 4 5 6 
#
# 1 -0.012854 0.027293 0.005628 0.000000 0.000000 0.000000
# 2 0.027293 -0.006050 -0.021137 0.000000 0.000000 0.000000
# 3 0.005628 -0.021137 0.011937 0.000000 0.000000 0.000000
# 4 0.000000 0.000000 0.000000 0.033730 0.000000 0.000000
# 5 0.000000 0.000000 0.000000 0.000000 0.040475 0.000000
# 6 0.000000 0.000000 0.000000 0.000000 0.000000 -0.136796
#
#
# Mechanical properties :
#
#
# Convention : Reuss Voigt Hill
#
# Bulk Modulus (GPa) = 60.23171 46.70435 53.46803
# Shear Modulus (GPa) = -57.08322 11.48592 -22.79865
#
# Velocity S-wave (km/s) = -5.59267 2.50870 -3.53443
# Velocity P-wave (km/s) = 2.94972 5.82945 3.55539
#
# Compressibility (1/GPa) = 0.01660255
#
# Stress axis : x y z
#
# Youngs Moduli (GPa) = -77.79948 -165.29873 83.77026
#
# Poissons Ratio (x) = 4.51156 -0.47143
# Poissons Ratio (y) = 2.12341 1.77064
# Poissons Ratio (z) = 0.43783 -3.49389
#
# Static dielectric constant tensor:
#      x y z
#    x 1.658800 0.000000 0.000000 
#    y 0.000000 1.592510 0.000000 
#    z 0.000000 0.000000 1.626630 
# 
# From -- ./inp_files/6392.got.cif
#   From: 2010.05.17/outbox.ucp.g08.bks.cvg/sg63_4_cif.got.tgz:6392.got - 2010.06.11 16:32:19.
