data_PCOD9476359
_publ_section_title
;
Structure prediction by ZEFSAII (Michael W. Deem and Ramdas Pophale) SiO2 
 PCOD9476359
Probable space group: C M C A
;
_chemical_formula_sum "Si O2"
_cell_formula_units_Z 68
_cell_length_a 9.033343
_cell_length_b 18.671815
_cell_length_c 19.539794
_cell_angle_alpha 90.000000
_cell_angle_beta 90.000000
_cell_angle_gamma 90.000000
_cell_volume 3295.755742
_symmetry_space_group_name_H-M "C M C A"
_symmetry_group_IT_number 64
_symmetry_cell_setting 'orthorhombic'
loop_
_space_group_symop_operation_xyz
x,y,z
-x,1/2-y,1/2+z
x,-y,-z
-x,1/2+y,1/2-z
-x,-y,-z
x,1/2+y,1/2-z
-x,y,z
x,1/2-y,1/2+z
1/2+x,1/2+y,z
1/2-x,-y,1/2+z
1/2+x,1/2-y,-z
1/2-x,y,1/2-z
1/2-x,1/2-y,-z
1/2+x,y,1/2-z
1/2-x,1/2+y,z
1/2+x,-y,1/2+z
loop_
_atom_site_type_symbol
_atom_site_label
_atom_site_fract_x
_atom_site_fract_y
_atom_site_fract_z
Si Si1 0.500000 0.651427 0.463330
Si Si2 0.500000 0.013534 0.276054
Si Si3 0.246698 0.394115 0.444686
Si Si4 0.250000 0.888301 0.750000
Si Si5 0.500000 0.502974 0.612402
Si Si6 0.500000 0.000000 0.500000
Si Si7 0.500000 0.794080 0.818658
Si Si8 0.000000 0.643278 0.657957
O O1 0.353634 0.654865 0.509651
O O2 0.500000 0.571816 0.428473
O O3 0.500000 0.705516 0.400627
O O4 0.354900 0.059545 0.294892
O O5 0.500000 0.009428 0.193648
O O6 0.500000 0.935033 0.307257
O O7 0.357659 0.450676 0.408754
O O8 0.148311 0.354987 0.387675
O O9 0.129364 0.438829 0.488679
O O10 0.358384 0.838117 0.792911
O O11 0.500000 0.712356 0.793725
#
# Coordination Sequence:
#
# PCOD9476359 Si02
#       8
#     8   8  16   8   8   4   8   8
#     4  11  20  41  63  86 130 170 207 255 315 382
#     4  11  22  39  66  91 124 160 220 265 301 373
#     4  10  21  34  62  92 127 162 211 255 322 360
#     4  10  22  42  66  92 118 174 212 258 316 368
#     4  11  18  37  64  96 116 165 210 274 306 364
#     4  10  16  30  52  92 124 154 192 270 298 348
#     4  11  26  43  64  90 138 165 206 260 324 382
#     4  11  26  41  59 101 132 159 208 268 317 374
#
# _framework density 20.632598000000002
#
# number of rings (size 3 to 8) (size 9 to 14) (size 15 to 20)
#    0.000    1.412    4.706    2.118    0.000    3.765 
#    0.000    7.059    0.000    0.000    0.000    0.000 
#    0.000    0.000    0.000    0.000    0.000    0.000 
#
# Total GULP energy -189442.313734 kJ/mol
# GULP energy per Si atom -5571.832757 kJ/mol
# Density = 2.058564 g / cm^3
# Si number density = 20.632598 Si / 1000 Ang^3
#
#
#
# Elastic Constant Matrix: (Units=GPa)
#
#
# Indices 1 2 3 4 5 6 
#
# 1 170.5217 51.8537 30.8480 0.0000 0.0000 0.0000
# 2 51.8537 125.0134 17.3655 0.0000 0.0000 0.0000
# 3 30.8480 17.3655 56.5841 0.0000 0.0000 0.0000
# 4 0.0000 0.0000 0.0000 10.8024 0.0000 0.0000
# 5 0.0000 0.0000 0.0000 0.0000 7.3941 0.0000
# 6 0.0000 0.0000 0.0000 0.0000 0.0000 341.9281
#
#
#
# Elastic Compliance Matrix: (Units=1/GPa)
#
#
# Indices 1 2 3 4 5 6 
#
# 1 0.007210 -0.002554 -0.003147 0.000000 0.000000 0.000000
# 2 -0.002554 0.009260 -0.001450 0.000000 0.000000 0.000000
# 3 -0.003147 -0.001450 0.019833 0.000000 0.000000 0.000000
# 4 0.000000 0.000000 0.000000 0.092572 0.000000 0.000000
# 5 0.000000 0.000000 0.000000 0.000000 0.135242 0.000000
# 6 0.000000 0.000000 0.000000 0.000000 0.000000 0.002925
#
#
# Mechanical properties :
#
#
# Convention : Reuss Voigt Hill
#
# Bulk Modulus (GPa) = 45.44896 61.36150 53.40523
# Shear Modulus (GPa) = 17.32040 88.82840 53.07440
#
# Velocity S-wave (km/s) = 2.90050 6.56856 5.07734
# Velocity P-wave (km/s) = 5.76999 9.34519 7.76612
#
# Compressibility (1/GPa) = 0.02200270
#
# Stress axis : x y z
#
# Youngs Moduli (GPa) = 138.69295 107.99516 50.41991
#
# Poissons Ratio (x) = 0.27577 0.15868
# Poissons Ratio (y) = 0.35415 0.07309
# Poissons Ratio (z) = 0.43648 0.15656
#
# Static dielectric constant tensor:
#      x y z
#    x 1.728730 0.000000 0.000000 
#    y 0.000000 1.745170 0.000000 
#    z 0.000000 0.000000 1.770800 
# 
# From -- ./inp_files/29412.got.cif
#   From: 2010.05.17/outbox.cif.g08.bks.cpg/sg64_15_cif.got.tgz:29412.got - 2010.06.03 16:29:19.
