data_PCOD9476530
_publ_section_title
;
Structure prediction by ZEFSAII (Michael W. Deem and Ramdas Pophale) SiO2 
 PCOD9476530
Probable space group: C M C A
;
_chemical_formula_sum "Si O2"
_cell_formula_units_Z 96
_cell_length_a 8.624863
_cell_length_b 23.490985
_cell_length_c 26.515434
_cell_angle_alpha 90.000000
_cell_angle_beta 90.000000
_cell_angle_gamma 90.000000
_cell_volume 5372.200004
_symmetry_space_group_name_H-M "C M C A"
_symmetry_group_IT_number 64
_symmetry_cell_setting 'orthorhombic'
loop_
_space_group_symop_operation_xyz
x,y,z
-x,1/2-y,1/2+z
x,-y,-z
-x,1/2+y,1/2-z
-x,-y,-z
x,1/2+y,1/2-z
-x,y,z
x,1/2-y,1/2+z
1/2+x,1/2+y,z
1/2-x,-y,1/2+z
1/2+x,1/2-y,-z
1/2-x,y,1/2-z
1/2-x,1/2-y,-z
1/2+x,y,1/2-z
1/2-x,1/2+y,z
1/2+x,-y,1/2+z
loop_
_atom_site_type_symbol
_atom_site_label
_atom_site_fract_x
_atom_site_fract_y
_atom_site_fract_z
Si Si1 0.687040 0.813788 0.501706
Si Si2 0.670141 0.008665 0.440711
Si Si3 0.321728 0.383656 0.595770
Si Si4 0.811901 0.565113 0.694396
Si Si5 0.185237 0.067870 0.194465
Si Si6 0.820757 0.880139 0.097494
O O1 0.500000 0.815375 0.501407
O O2 0.750000 0.750000 0.500000
O O3 0.742712 0.844826 0.552874
O O4 0.744028 0.845429 0.450176
O O5 0.500000 0.033464 0.425996
O O6 0.800926 0.052184 0.425072
O O7 0.671433 0.000000 0.500000
O O8 0.678495 0.946061 0.418779
O O9 0.500000 0.367157 0.600256
O O10 0.246444 0.389931 0.651128
O O11 0.750000 0.577159 0.750000
O O12 0.769100 0.498605 0.683012
O O13 0.753060 0.611675 0.653644
O O14 0.000000 0.566695 0.693654
O O15 0.250000 0.080970 0.250000
O O16 0.000000 0.069674 0.195891
O O17 0.000000 0.860776 0.102881
#
# Coordination Sequence:
#
# PCOD9476530 Si02
#       6
#    16  16  16  16  16  16
#     4  11  23  41  60  79 104 141 187 236 286 337
#     4  10  17  31  52  76 106 146 182 214 270 336
#     4  12  23  34  52  82 115 147 182 225 275 331
#     4   9  17  30  49  76 109 145 179 211 256 318
#     4  10  19  33  53  79 114 151 185 220 264 324
#     4   9  17  32  55  77 105 145 181 214 268 336
#
# _framework density 17.869775000000001
#
# number of rings (size 3 to 8) (size 9 to 14) (size 15 to 20)
#    0.000    1.833    3.333    2.500    0.000    1.000 
#    0.000    1.667    0.000    1.000    0.000    4.667 
#    0.000    0.000    0.000    0.000    0.000    0.000 
#
# Total GULP energy -267391.670877 kJ/mol
# GULP energy per Si atom -5570.659810 kJ/mol
# Density = 1.782910 g / cm^3
# Si number density = 17.869775 Si / 1000 Ang^3
#
#
#
# Elastic Constant Matrix: (Units=GPa)
#
#
# Indices 1 2 3 4 5 6 
#
# 1 53.3521 21.4920 42.2534 0.0000 0.0000 0.0000
# 2 21.4920 65.2487 60.5822 0.0000 0.0000 0.0000
# 3 42.2534 60.5822 179.0923 0.0000 0.0000 0.0000
# 4 0.0000 0.0000 0.0000 9.5984 0.0000 0.0000
# 5 0.0000 0.0000 0.0000 0.0000 26.6171 0.0000
# 6 0.0000 0.0000 0.0000 0.0000 0.0000 18.1951
#
#
#
# Elastic Compliance Matrix: (Units=1/GPa)
#
#
# Indices 1 2 3 4 5 6 
#
# 1 0.023682 -0.003809 -0.004299 0.000000 0.000000 0.000000
# 2 -0.003809 0.022956 -0.006867 0.000000 0.000000 0.000000
# 3 -0.004299 -0.006867 0.008921 0.000000 0.000000 0.000000
# 4 0.000000 0.000000 0.000000 0.104184 0.000000 0.000000
# 5 0.000000 0.000000 0.000000 0.000000 0.037570 0.000000
# 6 0.000000 0.000000 0.000000 0.000000 0.000000 0.054960
#
#
# Mechanical properties :
#
#
# Convention : Reuss Voigt Hill
#
# Bulk Modulus (GPa) = 39.04750 60.70532 49.87641
# Shear Modulus (GPa) = 17.19632 22.43983 19.81807
#
# Velocity S-wave (km/s) = 3.10548 3.54749 3.33382
# Velocity P-wave (km/s) = 5.89553 7.12911 6.54147
#
# Compressibility (1/GPa) = 0.02560983
#
# Stress axis : x y z
#
# Youngs Moduli (GPa) = 42.22529 43.56079 112.09745
#
# Poissons Ratio (x) = 0.16593 0.48189
# Poissons Ratio (y) = 0.16085 0.76975
# Poissons Ratio (z) = 0.18152 0.29912
#
# Static dielectric constant tensor:
#      x y z
#    x 1.714040 0.000000 0.000000 
#    y 0.000000 1.591240 0.000000 
#    z 0.000000 0.000000 2.160680 
# 
# From -- ./inp_files/48353.got.cif
#   From: 2010.05.17/outbox.cif.g08.bks.cpg/sg64_25_cif.got.tgz:48353.got - 2010.06.03 16:29:19.
