data_PCOD9476427
_publ_section_title
;
Structure prediction by ZEFSAII (Michael W. Deem and Ramdas Pophale) SiO2 
 PCOD9476427
Probable space group: C M C A
;
_chemical_formula_sum "Si O2"
_cell_formula_units_Z 112
_cell_length_a 16.444193
_cell_length_b 17.168842
_cell_length_c 15.629973
_cell_angle_alpha 90.000000
_cell_angle_beta 90.000000
_cell_angle_gamma 90.000000
_cell_volume 4412.775132
_symmetry_space_group_name_H-M "C M C A"
_symmetry_group_IT_number 64
_symmetry_cell_setting 'orthorhombic'
loop_
_space_group_symop_operation_xyz
x,y,z
-x,1/2-y,1/2+z
x,-y,-z
-x,1/2+y,1/2-z
-x,-y,-z
x,1/2+y,1/2-z
-x,y,z
x,1/2-y,1/2+z
1/2+x,1/2+y,z
1/2-x,-y,1/2+z
1/2+x,1/2-y,-z
1/2-x,y,1/2-z
1/2-x,1/2-y,-z
1/2+x,y,1/2-z
1/2-x,1/2+y,z
1/2+x,-y,1/2+z
loop_
_atom_site_type_symbol
_atom_site_label
_atom_site_fract_x
_atom_site_fract_y
_atom_site_fract_z
Si Si1 0.201058 0.135074 0.661955
Si Si2 0.907731 0.772332 0.225293
Si Si3 0.097482 0.558508 0.332319
Si Si4 0.400248 0.328450 0.563430
Si Si5 0.865166 0.603636 0.596024
Si Si6 0.093812 0.699559 0.435137
Si Si7 0.403736 0.013238 0.135244
O O1 0.250000 0.111763 0.750000
O O2 0.148136 0.208670 0.693347
O O3 0.274846 0.139616 0.596498
O O4 0.142014 0.067634 0.631405
O O5 0.875708 0.714285 0.152205
O O6 0.909606 0.855810 0.176586
O O7 0.000000 0.749324 0.244154
O O8 0.135760 0.487982 0.386561
O O9 0.127593 0.643443 0.360649
O O10 0.109997 0.544256 0.231896
O O11 0.000000 0.555553 0.346374
O O12 0.500000 0.326360 0.563065
O O13 0.371706 0.276163 0.483747
O O14 0.376332 0.418305 0.571287
O O15 0.907417 0.635121 0.512037
O O16 0.000000 0.719511 0.416224
O O17 0.500000 0.000911 0.123035
#
# Coordination Sequence:
#
# PCOD9476427 Si02
#       7
#    16  16  16  16  16  16  16
#     4  10  18  27  42  66  94 126 158 194 237 287
#     4   9  15  27  45  65  92 122 157 203 241 280
#     4  10  17  26  47  74  99 124 155 194 251 304
#     4   8  16  29  46  68  96 126 160 199 243 284
#     4  10  17  26  42  67 102 126 152 189 241 293
#     4   9  17  29  47  74  99 126 155 194 246 304
#     4  10  18  30  47  71  98 128 161 203 242 285
#
# _framework density 25.380853999999999
#
# number of rings (size 3 to 8) (size 9 to 14) (size 15 to 20)
#    0.000    2.571    2.857    3.000    0.000    1.143 
#    0.000    3.571    0.000    0.857    3.714    0.000 
#    0.000    4.571    0.000    0.000    0.000    0.000 
#
# Total GULP energy -313112.989180 kJ/mol
# GULP energy per Si atom -5591.303378 kJ/mol
# Density = 2.532309 g / cm^3
# Si number density = 25.380854 Si / 1000 Ang^3
#
#
#
# Elastic Constant Matrix: (Units=GPa)
#
#
# Indices 1 2 3 4 5 6 
#
# 1 59.1380 21.5523 17.6471 0.0000 0.0000 0.0000
# 2 21.5523 131.6405 3.0808 0.0000 0.0000 0.0000
# 3 17.6471 3.0808 84.1272 0.0000 0.0000 0.0000
# 4 0.0000 0.0000 0.0000 30.8689 0.0000 0.0000
# 5 0.0000 0.0000 0.0000 0.0000 0.2394 0.0000
# 6 0.0000 0.0000 0.0000 0.0000 0.0000 -0.0932
#
#
#
# Elastic Compliance Matrix: (Units=1/GPa)
#
#
# Indices 1 2 3 4 5 6 
#
# 1 0.019189 -0.003050 -0.003914 0.000000 0.000000 0.000000
# 2 -0.003050 0.008088 0.000344 0.000000 0.000000 0.000000
# 3 -0.003914 0.000344 0.012695 0.000000 0.000000 0.000000
# 4 0.000000 0.000000 0.000000 0.032395 0.000000 0.000000
# 5 0.000000 0.000000 0.000000 0.000000 4.177001 0.000000
# 6 0.000000 0.000000 0.000000 0.000000 0.000000-10.725321
#
#
# Mechanical properties :
#
#
# Convention : Reuss Voigt Hill
#
# Bulk Modulus (GPa) = 37.40843 39.94070 38.67457
# Shear Modulus (GPa) = -0.77474 21.71138 10.46832
#
# Velocity S-wave (km/s) = -0.55309 2.92794 2.03309
# Velocity P-wave (km/s) = 3.78985 5.21547 4.55873
#
# Compressibility (1/GPa) = 0.02673194
#
# Stress axis : x y z
#
# Youngs Moduli (GPa) = 52.11328 123.64356 78.77057
#
# Poissons Ratio (x) = 0.37712 0.30827
# Poissons Ratio (y) = 0.15895 -0.02707
# Poissons Ratio (z) = 0.20395 -0.04249
#
# Static dielectric constant tensor:
#      x y z
#    x 2.023810 0.000000 0.000000 
#    y 0.000000 1.988520 0.000000 
#    z 0.000000 0.000000 2.069700 
# 
# From -- ./inp_files/33606.got.cif
#   From: 2010.05.17/outbox.cif.g08.bks.cpg/sg64_17_cif.got.tgz:33606.got - 2010.06.03 16:29:19.
