data_PCOD9476245
_publ_section_title
;
Structure prediction by ZEFSAII (Michael W. Deem and Ramdas Pophale) SiO2 
 PCOD9476245
Probable space group: C M C M
;
_chemical_formula_sum "Si O2"
_cell_formula_units_Z 48
_cell_length_a 21.000000
_cell_length_b 9.000000
_cell_length_c 27.000000
_cell_angle_alpha 90.000000
_cell_angle_beta 90.000000
_cell_angle_gamma 90.000000
_cell_volume 5103.000000
_symmetry_space_group_name_H-M "C M C M"
_symmetry_group_IT_number 63
_symmetry_cell_setting 'orthorhombic'
loop_
_space_group_symop_operation_xyz
x,y,z
-x,-y,1/2+z
x,-y,-z
-x,y,1/2-z
-x,-y,-z
x,y,1/2-z
-x,y,z
x,-y,1/2+z
1/2+x,1/2+y,z
1/2-x,1/2-y,1/2+z
1/2+x,1/2-y,-z
1/2-x,1/2+y,1/2-z
1/2-x,1/2-y,-z
1/2+x,1/2+y,1/2-z
1/2-x,1/2+y,z
1/2+x,1/2-y,1/2+z
loop_
_atom_site_type_symbol
_atom_site_label
_atom_site_fract_x
_atom_site_fract_y
_atom_site_fract_z
Si Si1 0.926636 0.663632 0.524085
Si Si2 0.309855 0.651082 0.856548
Si Si3 0.073379 0.976157 0.809217
Si Si4 0.426574 0.149715 0.857899
Si Si5 0.190160 0.162875 0.523510
Si Si6 0.809912 0.522897 0.190066
O O1 0.923669 0.500000 0.500000
O O2 0.912299 0.657672 0.583106
O O3 0.874990 0.761276 0.495395
O O4 0.000000 0.717328 0.519045
O O5 0.374797 0.573666 0.837840
O O6 0.306853 0.658975 0.916502
O O7 0.249735 0.562530 0.834280
O O8 0.307605 0.812105 0.831652
O O9 0.086904 0.971215 0.750000
O O10 0.076744 0.812120 0.832967
O O11 0.000000 0.028661 0.815184
O O12 0.500000 0.096454 0.853038
O O13 0.375162 0.050463 0.829643
O O14 0.250000 0.250000 0.500000
O O15 0.192309 0.000000 0.500000
O O16 0.806592 0.519846 0.250000
#
# Coordination Sequence:
#
# PCOD9476245 Si02
#       6
#    16  16  16  16  16  16
#     4  10  21  39  62  89 123 159 196 243 297 351
#     4  12  25  41  61  88 121 156 199 247 298 353
#     4  10  21  39  61  85 117 155 195 243 298 354
#     4  10  21  39  63  90 120 157 200 243 293 354
#     4  12  24  40  63  89 120 157 199 246 297 354
#     4  12  24  39  60  85 117 156 199 246 296 352
#
# _framework density 9.4062319999999993
#
# number of rings (size 3 to 8) (size 9 to 14) (size 15 to 20)
#    0.000    1.000    0.000    7.500    0.000    2.667 
#    0.000    0.000    0.000    0.000    0.000    0.000 
#    0.000    0.000    0.000    0.000    0.000    0.000 
#
# Total GULP energy -268425.496513 kJ/mol
# GULP energy per Si atom -5592.197844 kJ/mol
# Density = 0.938482 g / cm^3
# Si number density = 9.406232 Si / 1000 Ang^3
#
#
#
# Elastic Constant Matrix: (Units=GPa)
#
#
# Indices 1 2 3 4 5 6 
#
# 1 149.2377 93.4893 98.3403 0.0000 0.0000 0.0000
# 2 93.4893 126.7599 70.0300 0.0000 0.0000 0.0000
# 3 98.3403 70.0300 232.4564 0.0000 0.0000 0.0000
# 4 0.0000 0.0000 0.0000 37.9614 0.0000 0.0000
# 5 0.0000 0.0000 0.0000 0.0000 44.0225 0.0000
# 6 0.0000 0.0000 0.0000 0.0000 0.0000 38.4380
#
#
#
# Elastic Compliance Matrix: (Units=1/GPa)
#
#
# Indices 1 2 3 4 5 6 
#
# 1 0.014485 -0.008755 -0.003490 0.000000 0.000000 0.000000
# 2 -0.008755 0.014756 -0.000742 0.000000 0.000000 0.000000
# 3 -0.003490 -0.000742 0.006002 0.000000 0.000000 0.000000
# 4 0.000000 0.000000 0.000000 0.026343 0.000000 0.000000
# 5 0.000000 0.000000 0.000000 0.000000 0.022716 0.000000
# 6 0.000000 0.000000 0.000000 0.000000 0.000000 0.026016
#
#
# Mechanical properties :
#
#
# Convention : Reuss Voigt Hill
#
# Bulk Modulus (GPa) = 107.88722 114.68591 111.28657
# Shear Modulus (GPa) = 35.87302 40.52400 38.19851
#
# Velocity S-wave (km/s) = 4.37152 4.64627 4.51098
# Velocity P-wave (km/s) = 9.10788 9.48044 9.29603
#
# Compressibility (1/GPa) = 0.00926894
#
# Stress axis : x y z
#
# Youngs Moduli (GPa) = 69.03565 67.77058 166.61403
#
# Poissons Ratio (x) = 0.59333 0.58156
# Poissons Ratio (y) = 0.60441 0.12355
# Poissons Ratio (z) = 0.24096 0.05025
#
# Static dielectric constant tensor:
#      x y z
#    x 1.652500 0.000000 0.000000 
#    y 0.000000 1.661930 0.000000 
#    z 0.000000 0.000000 1.613850 
# 
# From -- ./inp_files/70303.got.cif
#   From: 2010.05.17/outbox.ucp.g08.bks.cvg/sg63_36_cif.got.tgz:70303.got - 2010.06.11 16:32:19.
