data_PCOD9476478
_publ_section_title
;
Structure prediction by ZEFSAII (Michael W. Deem and Ramdas Pophale) SiO2 
 PCOD9476478
Probable space group: C M C A
;
_chemical_formula_sum "Si O2"
_cell_formula_units_Z 96
_cell_length_a 7.710462
_cell_length_b 25.133766
_cell_length_c 26.189661
_cell_angle_alpha 90.000000
_cell_angle_beta 90.000000
_cell_angle_gamma 90.000000
_cell_volume 5075.371603
_symmetry_space_group_name_H-M "C M C A"
_symmetry_group_IT_number 64
_symmetry_cell_setting 'orthorhombic'
loop_
_space_group_symop_operation_xyz
x,y,z
-x,1/2-y,1/2+z
x,-y,-z
-x,1/2+y,1/2-z
-x,-y,-z
x,1/2+y,1/2-z
-x,y,z
x,1/2-y,1/2+z
1/2+x,1/2+y,z
1/2-x,-y,1/2+z
1/2+x,1/2-y,-z
1/2-x,y,1/2-z
1/2-x,1/2-y,-z
1/2+x,y,1/2-z
1/2-x,1/2+y,z
1/2+x,-y,1/2+z
loop_
_atom_site_type_symbol
_atom_site_label
_atom_site_fract_x
_atom_site_fract_y
_atom_site_fract_z
Si Si1 0.797278 0.910378 0.394037
Si Si2 0.698098 0.365583 0.579385
Si Si3 0.711785 0.517821 0.443043
Si Si4 0.801377 0.322361 0.473155
Si Si5 0.712934 0.243339 0.112589
Si Si6 0.206357 0.666744 0.690757
O O1 0.701837 0.870826 0.432747
O O2 0.775455 0.885575 0.338129
O O3 0.000000 0.907561 0.408037
O O4 0.741119 0.970654 0.404225
O O5 0.500000 0.373088 0.596914
O O6 0.777800 0.424133 0.573594
O O7 0.698218 0.340857 0.522430
O O8 0.774600 0.317507 0.612970
O O9 0.767126 0.500000 0.500000
O O10 0.500000 0.521680 0.445178
O O11 0.733923 0.272703 0.440067
O O12 0.000000 0.312570 0.488325
O O13 0.500000 0.242799 0.111978
O O14 0.769094 0.281582 0.158757
O O15 0.250000 0.669215 0.750000
O O16 0.000000 0.665533 0.685254
#
# Coordination Sequence:
#
# PCOD9476478 Si02
#       6
#    16  16  16  16  16  16
#     4  10  18  31  50  72  97 130 167 202 240 279
#     4  10  17  29  47  65  93 134 168 196 232 279
#     4   9  16  27  45  71  98 129 172 205 225 274
#     4  10  18  28  41  66 100 130 162 201 237 280
#     4   8  17  30  46  68  94 122 157 198 240 286
#     4  10  20  36  55  77  97 117 154 201 251 299
#
# _framework density 18.914871999999999
#
# number of rings (size 3 to 8) (size 9 to 14) (size 15 to 20)
#    0.000    2.500    1.667    3.000    0.000    0.000 
#    0.000    6.667    0.000    1.000    0.000    2.333 
#    0.000    0.000    0.000    0.000    0.000    0.000 
#
# Total GULP energy -267672.351550 kJ/mol
# GULP energy per Si atom -5576.507324 kJ/mol
# Density = 1.887182 g / cm^3
# Si number density = 18.914872 Si / 1000 Ang^3
#
#
#
# Elastic Constant Matrix: (Units=GPa)
#
#
# Indices 1 2 3 4 5 6 
#
# 1 44.7740 6.7917 -1.9341 0.0000 0.0000 0.0000
# 2 6.7917 201.1248 58.9247 0.0000 0.0000 0.0000
# 3 -1.9341 58.9247 85.7422 0.0000 0.0000 0.0000
# 4 0.0000 0.0000 0.0000 12.7339 0.0000 0.0000
# 5 0.0000 0.0000 0.0000 0.0000 12.1962 0.0000
# 6 0.0000 0.0000 0.0000 0.0000 0.0000 6.9782
#
#
#
# Elastic Compliance Matrix: (Units=1/GPa)
#
#
# Indices 1 2 3 4 5 6 
#
# 1 0.022563 -0.001141 0.001293 0.000000 0.000000 0.000000
# 2 -0.001141 0.006283 -0.004344 0.000000 0.000000 0.000000
# 3 0.001293 -0.004344 0.014677 0.000000 0.000000 0.000000
# 4 0.000000 0.000000 0.000000 0.078530 0.000000 0.000000
# 5 0.000000 0.000000 0.000000 0.000000 0.081993 0.000000
# 6 0.000000 0.000000 0.000000 0.000000 0.000000 0.143303
#
#
# Mechanical properties :
#
#
# Convention : Reuss Voigt Hill
#
# Bulk Modulus (GPa) = 28.45718 51.02287 39.74002
# Shear Modulus (GPa) = 13.60741 24.23891 18.92316
#
# Velocity S-wave (km/s) = 2.68508 3.58365 3.16640
# Velocity P-wave (km/s) = 4.96894 6.64507 5.86717
#
# Compressibility (1/GPa) = 0.03514052
#
# Stress axis : x y z
#
# Youngs Moduli (GPa) = 44.31981 159.15556 68.13303
#
# Poissons Ratio (x) = 0.18155 -0.08809
# Poissons Ratio (y) = 0.05056 0.29595
# Poissons Ratio (z) = -0.05730 0.69133
#
# Static dielectric constant tensor:
#      x y z
#    x 1.718050 0.000000 0.000000 
#    y 0.000000 1.712070 0.000000 
#    z 0.000000 0.000000 1.631780 
# 
# From -- ./inp_files/43211.got.cif
#   From: 2010.05.17/outbox.cif.g08.bks.cpg/sg64_22_cif.got.tgz:43211.got - 2010.06.03 16:29:19.
