data_PCOD9476418
_publ_section_title
;
Structure prediction by ZEFSAII (Michael W. Deem and Ramdas Pophale) SiO2 
 PCOD9476418
Probable space group: C M C A
;
_chemical_formula_sum "Si O2"
_cell_formula_units_Z 64
_cell_length_a 35.834515
_cell_length_b 5.351118
_cell_length_c 14.234254
_cell_angle_alpha 90.000000
_cell_angle_beta 90.000000
_cell_angle_gamma 90.000000
_cell_volume 2729.485365
_symmetry_space_group_name_H-M "C M C A"
_symmetry_group_IT_number 64
_symmetry_cell_setting 'orthorhombic'
loop_
_space_group_symop_operation_xyz
x,y,z
-x,1/2-y,1/2+z
x,-y,-z
-x,1/2+y,1/2-z
-x,-y,-z
x,1/2+y,1/2-z
-x,y,z
x,1/2-y,1/2+z
1/2+x,1/2+y,z
1/2-x,-y,1/2+z
1/2+x,1/2-y,-z
1/2-x,y,1/2-z
1/2-x,1/2-y,-z
1/2+x,y,1/2-z
1/2-x,1/2+y,z
1/2+x,-y,1/2+z
loop_
_atom_site_type_symbol
_atom_site_label
_atom_site_fract_x
_atom_site_fract_y
_atom_site_fract_z
Si Si1 0.264490 0.719460 0.608221
Si Si2 0.541583 0.162801 0.688036
Si Si3 0.118734 0.531779 0.609269
Si Si4 0.151072 0.968307 0.389691
O O1 0.250000 0.750000 0.500000
O O2 0.239373 0.496502 0.648893
O O3 0.306532 0.623478 0.613549
O O4 0.544244 0.432924 0.737882
O O5 0.500000 0.145981 0.645044
O O6 0.576379 0.121623 0.620020
O O7 0.128827 0.500000 0.500000
O O8 0.125525 0.255077 0.649725
O O9 0.144370 0.754461 0.649337
O O10 0.141316 0.000000 0.500000
#
# Coordination Sequence:
#
# PCOD9476418 Si02
#       4
#    16  16  16  16
#     4  10  17  24  41  64 100 151 174 211 253 325
#     4  10  21  39  61  81 105 141 187 228 264 322
#     4  10  21  33  52  80 114 145 169 226 276 331
#     4  10  18  29  44  71 112 148 170 211 276 321
#
# _framework density 23.447645999999999
#
# number of rings (size 3 to 8) (size 9 to 14) (size 15 to 20)
#    0.000    2.000    2.500    3.000    7.000    0.500 
#    0.000    0.000    0.000    9.000    0.000    0.000 
#    0.000   70.000    0.000    0.000    0.000    0.000 
#
# Total GULP energy -178688.546538 kJ/mol
# GULP energy per Si atom -5584.017079 kJ/mol
# Density = 2.339428 g / cm^3
# Si number density = 23.447646 Si / 1000 Ang^3
#
#
#
# Elastic Constant Matrix: (Units=GPa)
#
#
# Indices 1 2 3 4 5 6 
#
# 1 106.5735 48.3088 -13.4851 0.0000 0.0000 0.0000
# 2 48.3088 203.7479 0.3155 0.0000 0.0000 0.0000
# 3 -13.4851 0.3155 63.7225 0.0000 0.0000 0.0000
# 4 0.0000 0.0000 0.0000 -6.0252 0.0000 0.0000
# 5 0.0000 0.0000 0.0000 0.0000 -9.4970 0.0000
# 6 0.0000 0.0000 0.0000 0.0000 0.0000 45.1602
#
#
#
# Elastic Compliance Matrix: (Units=1/GPa)
#
#
# Indices 1 2 3 4 5 6 
#
# 1 0.010842 -0.002574 0.002307 0.000000 0.000000 0.000000
# 2 -0.002574 0.005519 -0.000572 0.000000 0.000000 0.000000
# 3 0.002307 -0.000572 0.016184 0.000000 0.000000 0.000000
# 4 0.000000 0.000000 0.000000 -0.165968 0.000000 0.000000
# 5 0.000000 0.000000 0.000000 0.000000 -0.105296 0.000000
# 6 0.000000 0.000000 0.000000 0.000000 0.000000 0.022143
#
#
# Mechanical properties :
#
#
# Convention : Reuss Voigt Hill
#
# Bulk Modulus (GPa) = 32.39698 49.36915 40.88307
# Shear Modulus (GPa) = -24.43691 28.52122 2.04216
#
# Velocity S-wave (km/s) = -3.23180 3.49145 0.93426
# Velocity P-wave (km/s) = 0.28163 6.11182 4.31712
#
# Compressibility (1/GPa) = 0.03086707
#
# Stress axis : x y z
#
# Youngs Moduli (GPa) = 92.23393 181.18368 61.78893
#
# Poissons Ratio (x) = 0.46641 -0.14256
# Poissons Ratio (y) = 0.23743 0.03535
# Poissons Ratio (z) = -0.21280 0.10365
#
# Static dielectric constant tensor:
#      x y z
#    x 1.880700 0.000000 0.000000 
#    y 0.000000 1.971480 0.000000 
#    z 0.000000 0.000000 1.744140 
# 
# From -- ./inp_files/35627.got.cif
#   From: 2010.05.17/outbox.cif.g08.bks.cpg/sg64_18_cif.got.tgz:35627.got - 2010.06.03 16:29:19.
