data_PCOD9476838
_publ_section_title
;
Structure prediction by ZEFSAII (Michael W. Deem and Ramdas Pophale) SiO2 
 PCOD9476838
Probable space group: C M C A
;
_chemical_formula_sum "Si O2"
_cell_formula_units_Z 104
_cell_length_a 19.580731
_cell_length_b 25.010692
_cell_length_c 11.848677
_cell_angle_alpha 90.000000
_cell_angle_beta 90.000000
_cell_angle_gamma 90.000000
_cell_volume 5802.624532
_symmetry_space_group_name_H-M "C M C A"
_symmetry_group_IT_number 64
_symmetry_cell_setting 'orthorhombic'
loop_
_space_group_symop_operation_xyz
x,y,z
-x,1/2-y,1/2+z
x,-y,-z
-x,1/2+y,1/2-z
-x,-y,-z
x,1/2+y,1/2-z
-x,y,z
x,1/2-y,1/2+z
1/2+x,1/2+y,z
1/2-x,-y,1/2+z
1/2+x,1/2-y,-z
1/2-x,y,1/2-z
1/2-x,1/2-y,-z
1/2+x,y,1/2-z
1/2-x,1/2+y,z
1/2+x,-y,1/2+z
loop_
_atom_site_type_symbol
_atom_site_label
_atom_site_fract_x
_atom_site_fract_y
_atom_site_fract_z
Si Si1 0.209458 0.405673 0.025346
Si Si2 0.240817 0.799048 0.122245
Si Si3 0.169845 0.539583 0.400394
Si Si4 0.367003 0.759305 0.525727
Si Si5 0.750000 0.967287 0.250000
Si Si6 0.079523 0.648294 0.064999
Si Si7 0.419851 0.141547 0.331350
O O1 0.243060 0.347281 0.037837
O O2 0.221106 0.433102 0.146050
O O3 0.255847 0.438863 0.939768
O O4 0.132372 0.394584 0.987045
O O5 0.250000 0.816712 0.250000
O O6 0.299320 0.755501 0.098099
O O7 0.165605 0.778874 0.092581
O O8 0.144039 0.500000 0.500000
O O9 0.187372 0.503070 0.294070
O O10 0.123171 0.590383 0.373556
O O11 0.407622 0.704959 0.498736
O O12 0.404635 0.806566 0.591387
O O13 0.095469 0.653276 0.199024
O O14 0.000000 0.633657 0.053292
O O15 0.500000 0.129175 0.339039
#
# Coordination Sequence:
#
# PCOD9476838 Si02
#       7
#    16  16  16  16   8  16  16
#     4  10  19  36  59  83 112 146 184 239 291 336
#     4  10  18  31  54  84 114 140 183 232 277 333
#     4  10  21  37  58  84 108 142 198 243 287 336
#     4  10  20  34  54  83 114 155 185 224 274 341
#     4  10  20  36  62  82 108 142 190 246 294 340
#     4  10  22  37  56  87 120 151 187 228 281 349
#     4  11  22  38  57  79 117 157 190 233 286 338
#
# _framework density 17.922923000000001
#
# number of rings (size 3 to 8) (size 9 to 14) (size 15 to 20)
#    0.000    1.846    2.308    2.308    0.000    0.308 
#    1.385    0.769    0.000   15.231    0.000    0.000 
#    0.000    0.000    0.000    0.000    0.000    0.000 
#
# Total GULP energy -289894.008080 kJ/mol
# GULP energy per Si atom -5574.884771 kJ/mol
# Density = 1.788213 g / cm^3
# Si number density = 17.922923 Si / 1000 Ang^3
#
#
#
# Elastic Constant Matrix: (Units=GPa)
#
#
# Indices 1 2 3 4 5 6 
#
# 1 97.5795 47.7961 46.0947 0.0000 0.0000 0.0000
# 2 47.7961 99.7350 37.0922 0.0000 0.0000 0.0000
# 3 46.0947 37.0922 75.5646 0.0000 0.0000 0.0000
# 4 0.0000 0.0000 0.0000 21.2832 0.0000 0.0000
# 5 0.0000 0.0000 0.0000 0.0000 17.7147 0.0000
# 6 0.0000 0.0000 0.0000 0.0000 0.0000 19.4832
#
#
#
# Elastic Compliance Matrix: (Units=1/GPa)
#
#
# Indices 1 2 3 4 5 6 
#
# 1 0.016210 -0.005004 -0.007432 0.000000 0.000000 0.000000
# 2 -0.005004 0.013811 -0.003727 0.000000 0.000000 0.000000
# 3 -0.007432 -0.003727 0.019596 0.000000 0.000000 0.000000
# 4 0.000000 0.000000 0.000000 0.046985 0.000000 0.000000
# 5 0.000000 0.000000 0.000000 0.000000 0.056450 0.000000
# 6 0.000000 0.000000 0.000000 0.000000 0.000000 0.051326
#
#
# Mechanical properties :
#
#
# Convention : Reuss Voigt Hill
#
# Bulk Modulus (GPa) = 57.83087 59.42723 58.62905
# Shear Modulus (GPa) = 20.62131 21.15597 20.88864
#
# Velocity S-wave (km/s) = 3.39566 3.43940 3.41760
# Velocity P-wave (km/s) = 6.90728 7.00012 6.95386
#
# Compressibility (1/GPa) = 0.01729180
#
# Stress axis : x y z
#
# Youngs Moduli (GPa) = 61.69107 72.40733 51.03020
#
# Poissons Ratio (x) = 0.36235 0.37923
# Poissons Ratio (y) = 0.30873 0.19017
# Poissons Ratio (z) = 0.45846 0.26983
#
# Static dielectric constant tensor:
#      x y z
#    x 1.596980 0.000000 0.000000 
#    y 0.000000 1.634670 0.000000 
#    z 0.000000 0.000000 1.630870 
# 
# From -- ./inp_files/16437.got.cif
#   From: 2010.05.17/outbox.cif.g08.bks.cpg/sg64_9_cif.got.tgz:16437.got - 2010.06.03 16:29:19.
