data_PCOD9476814
_publ_section_title
;
Structure prediction by ZEFSAII (Michael W. Deem and Ramdas Pophale) SiO2 
 PCOD9476814
Probable space group: C M C A
;
_chemical_formula_sum "Si O2"
_cell_formula_units_Z 80
_cell_length_a 9.140256
_cell_length_b 25.997042
_cell_length_c 19.939539
_cell_angle_alpha 90.000000
_cell_angle_beta 90.000000
_cell_angle_gamma 90.000000
_cell_volume 4738.025663
_symmetry_space_group_name_H-M "C M C A"
_symmetry_group_IT_number 64
_symmetry_cell_setting 'orthorhombic'
loop_
_space_group_symop_operation_xyz
x,y,z
-x,1/2-y,1/2+z
x,-y,-z
-x,1/2+y,1/2-z
-x,-y,-z
x,1/2+y,1/2-z
-x,y,z
x,1/2-y,1/2+z
1/2+x,1/2+y,z
1/2-x,-y,1/2+z
1/2+x,1/2-y,-z
1/2-x,y,1/2-z
1/2-x,1/2-y,-z
1/2+x,y,1/2-z
1/2-x,1/2+y,z
1/2+x,-y,1/2+z
loop_
_atom_site_type_symbol
_atom_site_label
_atom_site_fract_x
_atom_site_fract_y
_atom_site_fract_z
Si Si1 0.172454 0.593897 0.602316
Si Si2 0.324810 0.313087 0.321360
Si Si3 0.668109 0.490530 0.580664
Si Si4 0.172638 0.887971 0.942505
Si Si5 0.324506 0.771619 0.566832
O O1 0.259626 0.635408 0.645466
O O2 0.237660 0.536866 0.611184
O O3 0.190036 0.608133 0.523390
O O4 0.000000 0.595287 0.617625
O O5 0.500000 0.317253 0.314911
O O6 0.250000 0.304846 0.250000
O O7 0.291247 0.266008 0.371646
O O8 0.670041 0.500000 0.500000
O O9 0.500000 0.492766 0.602837
O O10 0.738017 0.434491 0.590092
O O11 0.219546 0.830821 0.921511
O O12 0.000000 0.894824 0.928521
O O13 0.500000 0.771718 0.556562
O O14 0.250000 0.750000 0.500000
#
# Coordination Sequence:
#
# PCOD9476814 Si02
#       5
#    16  16  16  16  16
#     4  10  18  31  52  75 104 138 173 217 269 320
#     4  11  23  37  54  77 108 144 182 222 269 324
#     4   9  17  28  45  73 106 136 169 211 258 311
#     4   9  17  30  49  76 106 136 172 217 269 319
#     4  10  20  34  54  79 107 140 179 225 272 323
#
# _framework density 16.884668999999999
#
# number of rings (size 3 to 8) (size 9 to 14) (size 15 to 20)
#    0.000    2.200    2.000    1.800    0.000    4.800 
#    0.000    0.000    0.000    1.200    0.000    5.600 
#    0.000    0.000    0.000    0.000    0.000    0.000 
#
# Total GULP energy -223159.933259 kJ/mol
# GULP energy per Si atom -5578.998331 kJ/mol
# Density = 1.684624 g / cm^3
# Si number density = 16.884669 Si / 1000 Ang^3
#
#
#
# Elastic Constant Matrix: (Units=GPa)
#
#
# Indices 1 2 3 4 5 6 
#
# 1 90.0558 78.4121 54.6143 0.0000 0.0000 0.0000
# 2 78.4121 186.6893 60.2689 0.0000 0.0000 0.0000
# 3 54.6143 60.2689 62.4637 0.0000 0.0000 0.0000
# 4 0.0000 0.0000 0.0000 11.6506 0.0000 0.0000
# 5 0.0000 0.0000 0.0000 0.0000 21.7183 0.0000
# 6 0.0000 0.0000 0.0000 0.0000 0.0000 30.5768
#
#
#
# Elastic Compliance Matrix: (Units=1/GPa)
#
#
# Indices 1 2 3 4 5 6 
#
# 1 0.026911 -0.005384 -0.018335 0.000000 0.000000 0.000000
# 2 -0.005384 0.008857 -0.003838 0.000000 0.000000 0.000000
# 3 -0.018335 -0.003838 0.035743 0.000000 0.000000 0.000000
# 4 0.000000 0.000000 0.000000 0.085832 0.000000 0.000000
# 5 0.000000 0.000000 0.000000 0.000000 0.046044 0.000000
# 6 0.000000 0.000000 0.000000 0.000000 0.000000 0.032705
#
#
# Mechanical properties :
#
#
# Convention : Reuss Voigt Hill
#
# Bulk Modulus (GPa) = 60.98434 80.64437 70.81435
# Shear Modulus (GPa) = 16.85363 22.51672 19.68518
#
# Velocity S-wave (km/s) = 3.16280 3.65576 3.41817
# Velocity P-wave (km/s) = 7.03806 8.10463 7.59010
#
# Compressibility (1/GPa) = 0.01639765
#
# Stress axis : x y z
#
# Youngs Moduli (GPa) = 37.15922 112.90491 27.97732
#
# Poissons Ratio (x) = 0.60790 0.51295
# Poissons Ratio (y) = 0.20007 0.10738
# Poissons Ratio (z) = 0.68130 0.43335
#
# Static dielectric constant tensor:
#      x y z
#    x 1.563850 0.000000 0.000000 
#    y 0.000000 1.569840 0.000000 
#    z 0.000000 0.000000 1.543590 
# 
# From -- ./inp_files/29787.got.cif
#   From: 2010.05.17/outbox.cif.g08.bks.cpg/sg64_15_cif.got.tgz:29787.got - 2010.06.03 16:29:19.
