data_PCOD9476049
_publ_section_title
;
Structure prediction by ZEFSAII (Michael W. Deem and Ramdas Pophale) SiO2 
 PCOD9476049
Probable space group: C M C M
;
_chemical_formula_sum "Si O2"
_cell_formula_units_Z 28
_cell_length_a 21.000000
_cell_length_b 15.000000
_cell_length_c 9.000000
_cell_angle_alpha 90.000000
_cell_angle_beta 90.000000
_cell_angle_gamma 90.000000
_cell_volume 2835.000000
_symmetry_space_group_name_H-M "C M C M"
_symmetry_group_IT_number 63
_symmetry_cell_setting 'orthorhombic'
loop_
_space_group_symop_operation_xyz
x,y,z
-x,-y,1/2+z
x,-y,-z
-x,y,1/2-z
-x,-y,-z
x,y,1/2-z
-x,y,z
x,-y,1/2+z
1/2+x,1/2+y,z
1/2-x,1/2-y,1/2+z
1/2+x,1/2-y,-z
1/2-x,1/2+y,1/2-z
1/2-x,1/2-y,-z
1/2+x,1/2+y,1/2-z
1/2-x,1/2+y,z
1/2+x,1/2-y,1/2+z
loop_
_atom_site_type_symbol
_atom_site_label
_atom_site_fract_x
_atom_site_fract_y
_atom_site_fract_z
Si Si1 0.133198 0.088606 0.928786
Si Si2 0.226466 0.590478 0.430173
Si Si3 0.500000 0.095712 0.070057
Si Si4 0.115681 0.282984 0.570284
O O1 0.135575 0.080545 0.750000
O O2 0.102146 0.181917 0.973760
O O3 0.204529 0.096530 0.994966
O O4 0.104221 0.000000 0.000000
O O5 0.197086 0.500000 0.500000
O O6 0.230912 0.583388 0.250000
O O7 0.183483 0.675151 0.471747
O O8 0.500000 0.090313 0.250000
O O9 0.438438 0.150254 0.020626
O O10 0.500000 0.000000 0.000000
O O11 0.115389 0.282543 0.750000
#
# Coordination Sequence:
#
# PCOD9476049 Si02
#       4
#    16  16   8  16
#     4  10  19  33  50  73 100 131 165 203 245 292
#     4  10  18  30  48  75 103 131 162 200 245 295
#     4  10  20  38  57  76 100 130 163 202 243 290
#     4   9  19  33  52  73  99 132 167 200 244 294
#
# _framework density 9.8765429999999999
#
# number of rings (size 3 to 8) (size 9 to 14) (size 15 to 20)
#    0.000    2.286    0.000    5.143    0.000    0.000 
#    0.000    9.286    0.000    0.000    0.000    0.000 
#    0.000    0.000    0.000    0.000    0.000    0.000 
#
# Total GULP energy -156099.361281 kJ/mol
# GULP energy per Si atom -5574.977189 kJ/mol
# Density = 0.985406 g / cm^3
# Si number density = 9.876543 Si / 1000 Ang^3
#
#
#
# Elastic Constant Matrix: (Units=GPa)
#
#
# Indices 1 2 3 4 5 6 
#
# 1 29.2222 38.4176 6.1261 0.0000 0.0000 0.0000
# 2 38.4176 196.7195 33.7766 0.0000 0.0000 0.0000
# 3 6.1261 33.7766 62.5948 0.0000 0.0000 0.0000
# 4 0.0000 0.0000 0.0000 30.6821 0.0000 0.0000
# 5 0.0000 0.0000 0.0000 0.0000 11.0067 0.0000
# 6 0.0000 0.0000 0.0000 0.0000 0.0000 25.7041
#
#
#
# Elastic Compliance Matrix: (Units=1/GPa)
#
#
# Indices 1 2 3 4 5 6 
#
# 1 0.046050 -0.009059 0.000381 0.000000 0.000000 0.000000
# 2 -0.009059 0.007384 -0.003098 0.000000 0.000000 0.000000
# 3 0.000381 -0.003098 0.017610 0.000000 0.000000 0.000000
# 4 0.000000 0.000000 0.000000 0.032592 0.000000 0.000000
# 5 0.000000 0.000000 0.000000 0.000000 0.090854 0.000000
# 6 0.000000 0.000000 0.000000 0.000000 0.000000 0.038904
#
#
# Mechanical properties :
#
#
# Convention : Reuss Voigt Hill
#
# Bulk Modulus (GPa) = 21.05556 49.46415 35.25985
# Shear Modulus (GPa) = 18.33001 27.49298 22.91150
#
# Velocity S-wave (km/s) = 3.04954 3.73477 3.40942
# Velocity P-wave (km/s) = 4.80439 6.61012 5.77823
#
# Compressibility (1/GPa) = 0.04749340
#
# Stress axis : x y z
#
# Youngs Moduli (GPa) = 21.71566 135.42088 56.78519
#
# Poissons Ratio (x) = 1.22672 -0.02165
# Poissons Ratio (y) = 0.19671 0.17593
# Poissons Ratio (z) = -0.00828 0.41955
#
# Static dielectric constant tensor:
#      x y z
#    x 1.709250 0.000000 0.000000 
#    y 0.000000 1.766690 0.000000 
#    z 0.000000 0.000000 1.661310 
# 
# From -- ./inp_files/7310.got.cif
#   From: 2010.05.17/outbox.ucp.g08.bks.cvg/sg63_4_cif.got.tgz:7310.got - 2010.06.11 16:32:19.
