data_PCOD9476610
_publ_section_title
;
Structure prediction by ZEFSAII (Michael W. Deem and Ramdas Pophale) SiO2 
 PCOD9476610
Probable space group: C M C A
;
_chemical_formula_sum "Si O2"
_cell_formula_units_Z 88
_cell_length_a 14.435243
_cell_length_b 23.924149
_cell_length_c 13.569702
_cell_angle_alpha 90.000000
_cell_angle_beta 90.000000
_cell_angle_gamma 90.000000
_cell_volume 4686.308858
_symmetry_space_group_name_H-M "C M C A"
_symmetry_group_IT_number 64
_symmetry_cell_setting 'orthorhombic'
loop_
_space_group_symop_operation_xyz
x,y,z
-x,1/2-y,1/2+z
x,-y,-z
-x,1/2+y,1/2-z
-x,-y,-z
x,1/2+y,1/2-z
-x,y,z
x,1/2-y,1/2+z
1/2+x,1/2+y,z
1/2-x,-y,1/2+z
1/2+x,1/2-y,-z
1/2-x,y,1/2-z
1/2-x,1/2-y,-z
1/2+x,y,1/2-z
1/2-x,1/2+y,z
1/2+x,-y,1/2+z
loop_
_atom_site_type_symbol
_atom_site_label
_atom_site_fract_x
_atom_site_fract_y
_atom_site_fract_z
Si Si1 0.831761 0.603311 0.826355
Si Si2 0.500000 0.911673 0.447137
Si Si3 0.665950 0.671236 0.180490
Si Si4 0.000000 0.031808 0.731054
Si Si5 0.393643 0.285010 0.216879
Si Si6 0.190811 0.658902 0.542928
Si Si7 0.000000 0.916809 0.830742
O O1 0.750000 0.587561 0.750000
O O2 0.909725 0.556070 0.824177
O O3 0.877900 0.660130 0.783888
O O4 0.777363 0.620537 0.925047
O O5 0.500000 0.943244 0.342920
O O6 0.594640 0.875689 0.447462
O O7 0.500000 0.939865 0.555904
O O8 0.750000 0.653924 0.250000
O O9 0.626825 0.729099 0.223438
O O10 0.697507 0.679209 0.067954
O O11 0.588332 0.623342 0.180446
O O12 0.000000 0.966007 0.751113
O O13 0.500000 0.283713 0.182816
O O14 0.323766 0.293277 0.125345
#
# Coordination Sequence:
#
# PCOD9476610 Si02
#       7
#    16   8  16   8  16  16   8
#     4  10  19  33  60  92 120 151 197 261 302 348
#     4  10  17  37  62  89 117 152 202 265 292 347
#     4  11  24  42  60  86 126 164 197 246 310 376
#     4  12  19  37  63  93 120 156 207 260 302 357
#     4  11  19  35  62  88 119 155 198 249 306 361
#     4  10  20  38  61  93 121 152 205 251 301 369
#     4  10  25  38  61  86 123 162 203 246 313 357
#
# _framework density 18.778105
#
# number of rings (size 3 to 8) (size 9 to 14) (size 15 to 20)
#    0.000    1.455    6.364    1.909    0.000    3.636 
#    0.000    0.909    0.000    1.091    0.000    0.000 
#    0.000    0.000    0.000    0.000    0.000    0.000 
#
# Total GULP energy -245541.345965 kJ/mol
# GULP energy per Si atom -5580.485136 kJ/mol
# Density = 1.873536 g / cm^3
# Si number density = 18.778105 Si / 1000 Ang^3
#
#
#
# Elastic Constant Matrix: (Units=GPa)
#
#
# Indices 1 2 3 4 5 6 
#
# 1 86.7815 34.2700 23.5217 0.0000 0.0000 0.0000
# 2 34.2700 87.7529 39.2930 0.0000 0.0000 0.0000
# 3 23.5217 39.2930 93.8937 0.0000 0.0000 0.0000
# 4 0.0000 0.0000 0.0000 26.2483 0.0000 0.0000
# 5 0.0000 0.0000 0.0000 0.0000 5.3688 0.0000
# 6 0.0000 0.0000 0.0000 0.0000 0.0000 1.4860
#
#
#
# Elastic Compliance Matrix: (Units=1/GPa)
#
#
# Indices 1 2 3 4 5 6 
#
# 1 0.013789 -0.004723 -0.001478 0.000000 0.000000 0.000000
# 2 -0.004723 0.015641 -0.005362 0.000000 0.000000 0.000000
# 3 -0.001478 -0.005362 0.013265 0.000000 0.000000 0.000000
# 4 0.000000 0.000000 0.000000 0.038098 0.000000 0.000000
# 5 0.000000 0.000000 0.000000 0.000000 0.186263 0.000000
# 6 0.000000 0.000000 0.000000 0.000000 0.000000 0.672968
#
#
# Mechanical properties :
#
#
# Convention : Reuss Voigt Hill
#
# Bulk Modulus (GPa) = 51.10363 51.39973 51.25168
# Shear Modulus (GPa) = 5.15638 18.04350 11.59994
#
# Velocity S-wave (km/s) = 1.65889 3.10317 2.48813
# Velocity P-wave (km/s) = 5.56262 6.34595 5.96716
#
# Compressibility (1/GPa) = 0.01956808
#
# Stress axis : x y z
#
# Youngs Moduli (GPa) = 72.52189 63.93317 75.38861
#
# Poissons Ratio (x) = 0.30198 0.11140
# Poissons Ratio (y) = 0.34254 0.40426
# Poissons Ratio (z) = 0.10717 0.34283
#
# Static dielectric constant tensor:
#      x y z
#    x 1.663010 0.000000 0.000000 
#    y 0.000000 1.654010 0.000000 
#    z 0.000000 0.000000 1.663570 
# 
# From -- ./inp_files/14642.got.cif
#   From: 2010.05.17/outbox.cif.g08.bks.cpg/sg64_8_cif.got.tgz:14642.got - 2010.06.03 16:29:19.
