data_PCOD9476369
_publ_section_title
;
Structure prediction by ZEFSAII (Michael W. Deem and Ramdas Pophale) SiO2 
 PCOD9476369
Probable space group: C M C A
;
_chemical_formula_sum "Si O2"
_cell_formula_units_Z 80
_cell_length_a 36.024860
_cell_length_b 5.198277
_cell_length_c 25.065241
_cell_angle_alpha 90.000000
_cell_angle_beta 90.000000
_cell_angle_gamma 90.000000
_cell_volume 4693.897529
_symmetry_space_group_name_H-M "C M C A"
_symmetry_group_IT_number 64
_symmetry_cell_setting 'orthorhombic'
loop_
_space_group_symop_operation_xyz
x,y,z
-x,1/2-y,1/2+z
x,-y,-z
-x,1/2+y,1/2-z
-x,-y,-z
x,1/2+y,1/2-z
-x,y,z
x,1/2-y,1/2+z
1/2+x,1/2+y,z
1/2-x,-y,1/2+z
1/2+x,1/2-y,-z
1/2-x,y,1/2-z
1/2-x,1/2-y,-z
1/2+x,y,1/2-z
1/2-x,1/2+y,z
1/2+x,-y,1/2+z
loop_
_atom_site_type_symbol
_atom_site_label
_atom_site_fract_x
_atom_site_fract_y
_atom_site_fract_z
Si Si1 0.707983 0.687992 0.727284
Si Si2 0.416695 0.975392 0.564793
Si Si3 0.725707 0.078884 0.894648
Si Si4 0.957659 0.022071 0.435132
Si Si5 0.656918 0.752414 0.034832
O O1 0.690020 0.463077 0.762058
O O2 0.750000 0.726536 0.750000
O O3 0.711555 0.610465 0.666073
O O4 0.445280 0.758800 0.583694
O O5 0.375665 0.859034 0.572708
O O6 0.418517 0.000000 0.500000
O O7 0.429297 0.256194 0.583358
O O8 0.757379 0.295975 0.902200
O O9 0.692249 0.141979 0.933965
O O10 0.000000 0.086468 0.420983
O O11 0.956409 0.000000 0.500000
O O12 0.667269 0.500000 0.000000
O O13 0.642910 0.000000 0.000000
#
# Coordination Sequence:
#
# PCOD9476369 Si02
#       5
#    16  16  16  16  16
#     4  10  16  31  51  70  87 102 125 180 235 290
#     4   9  16  28  41  53  80 115 143 175 216 256
#     4  12  22  33  51  69  84 111 154 194 224 267
#     4   9  15  23  40  63  79  98 139 188 219 244
#     4  11  23  36  45  59  88 127 159 184 218 256
#
# _framework density 17.043405
#
# number of rings (size 3 to 8) (size 9 to 14) (size 15 to 20)
#    0.000    1.800    4.000    4.800    0.000    4.800 
#    0.000    0.000    0.000    0.000    0.000    0.000 
#    0.000    0.000    0.000    0.000    0.000   20.000 
#
# Total GULP energy -222782.700058 kJ/mol
# GULP energy per Si atom -5569.567501 kJ/mol
# Density = 1.700461 g / cm^3
# Si number density = 17.043405 Si / 1000 Ang^3
#
#
#
# Elastic Constant Matrix: (Units=GPa)
#
#
# Indices 1 2 3 4 5 6 
#
# 1 43.0984 -2.1317 8.8423 0.0000 0.0000 0.0000
# 2 -2.1317 85.1200 -3.4332 0.0000 0.0000 0.0000
# 3 8.8423 -3.4332 15.0071 0.0000 0.0000 0.0000
# 4 0.0000 0.0000 0.0000 7.2368 0.0000 0.0000
# 5 0.0000 0.0000 0.0000 0.0000 -2.7930 0.0000
# 6 0.0000 0.0000 0.0000 0.0000 0.0000 15.7342
#
#
#
# Elastic Compliance Matrix: (Units=1/GPa)
#
#
# Indices 1 2 3 4 5 6 
#
# 1 0.026393 0.000034 -0.015543 0.000000 0.000000 0.000000
# 2 0.000034 0.011858 0.002693 0.000000 0.000000 0.000000
# 3 -0.015543 0.002693 0.076409 0.000000 0.000000 0.000000
# 4 0.000000 0.000000 0.000000 0.138183 0.000000 0.000000
# 5 0.000000 0.000000 0.000000 0.000000 -0.358043 0.000000
# 6 0.000000 0.000000 0.000000 0.000000 0.000000 0.063556
#
#
# Mechanical properties :
#
#
# Convention : Reuss Voigt Hill
#
# Bulk Modulus (GPa) = 11.23254 16.64223 13.93739
# Shear Modulus (GPa) = 365.91161 13.36549 189.63855
#
# Velocity S-wave (km/s) = 14.66833 2.80340 10.55981
# Velocity P-wave (km/s) = 17.13140 4.50162 12.52496
#
# Compressibility (1/GPa) = 0.08902702
#
# Stress axis : x y z
#
# Youngs Moduli (GPa) = 37.88831 84.33424 13.08741
#
# Poissons Ratio (x) = -0.00287 0.20342
# Poissons Ratio (y) = -0.00129 -0.03524
# Poissons Ratio (z) = 0.58891 -0.22708
#
# Static dielectric constant tensor:
#      x y z
#    x 1.632710 0.000000 0.000000 
#    y 0.000000 1.649840 0.000000 
#    z 0.000000 0.000000 1.563160 
# 
# From -- ./inp_files/51276.got.cif
#   From: 2010.05.17/outbox.cif.g08.bks.cpg/sg64_26_cif.got.tgz:51276.got - 2010.06.03 16:29:19.
