data_PCOD9476842
_publ_section_title
;
Structure prediction by ZEFSAII (Michael W. Deem and Ramdas Pophale) SiO2 
 PCOD9476842
Probable space group: C M C A
;
_chemical_formula_sum "Si O2"
_cell_formula_units_Z 112
_cell_length_a 14.798327
_cell_length_b 23.736057
_cell_length_c 15.786488
_cell_angle_alpha 90.000000
_cell_angle_beta 90.000000
_cell_angle_gamma 90.000000
_cell_volume 5545.066001
_symmetry_space_group_name_H-M "C M C A"
_symmetry_group_IT_number 64
_symmetry_cell_setting 'orthorhombic'
loop_
_space_group_symop_operation_xyz
x,y,z
-x,1/2-y,1/2+z
x,-y,-z
-x,1/2+y,1/2-z
-x,-y,-z
x,1/2+y,1/2-z
-x,y,z
x,1/2-y,1/2+z
1/2+x,1/2+y,z
1/2-x,-y,1/2+z
1/2+x,1/2-y,-z
1/2-x,y,1/2-z
1/2-x,1/2-y,-z
1/2+x,y,1/2-z
1/2-x,1/2+y,z
1/2+x,-y,1/2+z
loop_
_atom_site_type_symbol
_atom_site_label
_atom_site_fract_x
_atom_site_fract_y
_atom_site_fract_z
Si Si1 0.606040 0.503474 0.204904
Si Si2 0.104225 0.304151 0.599168
Si Si3 0.607653 0.729488 0.920593
Si Si4 0.848182 0.185285 0.280452
Si Si5 0.899225 0.572109 0.131796
Si Si6 0.294155 0.579677 0.067659
Si Si7 0.893038 0.597986 0.599075
O O1 0.500000 0.515714 0.186340
O O2 0.620174 0.522472 0.300995
O O3 0.665645 0.540265 0.140991
O O4 0.622121 0.438114 0.183601
O O5 0.126744 0.262990 0.520938
O O6 0.110059 0.285916 0.696674
O O7 0.168075 0.358061 0.588576
O O8 0.000000 0.321750 0.583494
O O9 0.500000 0.738608 0.907450
O O10 0.657245 0.771696 0.858093
O O11 0.628440 0.664323 0.898310
O O12 0.750000 0.166774 0.250000
O O13 0.898359 0.129564 0.312284
O O14 0.814148 0.576903 0.069761
O O15 0.000000 0.565403 0.095261
O O16 0.336426 0.568808 0.975738
O O17 0.000000 0.594000 0.578669
#
# Coordination Sequence:
#
# PCOD9476842 Si02
#       7
#    16  16  16  16  16  16  16
#     4  10  18  31  55  85 114 142 180 236 291 340
#     4  10  19  34  56  84 118 150 187 239 293 342
#     4   9  20  36  56  84 118 154 190 236 291 349
#     4  12  21  36  56  83 118 156 198 245 293 341
#     4  11  22  35  54  84 117 150 192 240 288 339
#     4  11  18  32  52  87 113 141 183 234 289 341
#     4   9  19  35  57  86 117 148 184 233 293 348
#
# _framework density 20.198136000000002
#
# number of rings (size 3 to 8) (size 9 to 14) (size 15 to 20)
#    0.000    1.714    2.857    4.286    0.000    1.714 
#    0.000    1.429    0.000    1.714    0.000    0.000 
#    0.000    0.000    0.000    0.000    0.000    0.000 
#
# Total GULP energy -312494.354523 kJ/mol
# GULP energy per Si atom -5580.256331 kJ/mol
# Density = 2.015216 g / cm^3
# Si number density = 20.198136 Si / 1000 Ang^3
#
#
#
# Elastic Constant Matrix: (Units=GPa)
#
#
# Indices 1 2 3 4 5 6 
#
# 1 77.3865 3.0172 9.4839 0.0000 0.0000 0.0000
# 2 3.0172 32.9472 27.8974 0.0000 0.0000 0.0000
# 3 9.4839 27.8974 66.6081 0.0000 0.0000 0.0000
# 4 0.0000 0.0000 0.0000 29.5621 0.0000 0.0000
# 5 0.0000 0.0000 0.0000 0.0000 12.9802 0.0000
# 6 0.0000 0.0000 0.0000 0.0000 0.0000 4.8045
#
#
#
# Elastic Compliance Matrix: (Units=1/GPa)
#
#
# Indices 1 2 3 4 5 6 
#
# 1 0.013159 0.000591 -0.002121 0.000000 0.000000 0.000000
# 2 0.000591 0.047057 -0.019793 0.000000 0.000000 0.000000
# 3 -0.002121 -0.019793 0.023605 0.000000 0.000000 0.000000
# 4 0.000000 0.000000 0.000000 0.033827 0.000000 0.000000
# 5 0.000000 0.000000 0.000000 0.000000 0.077041 0.000000
# 6 0.000000 0.000000 0.000000 0.000000 0.000000 0.208138
#
#
# Mechanical properties :
#
#
# Convention : Reuss Voigt Hill
#
# Bulk Modulus (GPa) = 24.28674 28.63764 26.46219
# Shear Modulus (GPa) = 10.88856 18.57224 14.73040
#
# Velocity S-wave (km/s) = 2.32434 3.03562 2.70348
# Velocity P-wave (km/s) = 4.38791 5.14741 4.78276
#
# Compressibility (1/GPa) = 0.04117473
#
# Stress axis : x y z
#
# Youngs Moduli (GPa) = 75.99328 21.25102 42.36389
#
# Poissons Ratio (x) = -0.01256 0.08986
# Poissons Ratio (y) = -0.04491 0.83850
# Poissons Ratio (z) = 0.16119 0.42062
#
# Static dielectric constant tensor:
#      x y z
#    x 1.754880 0.000000 0.000000 
#    y 0.000000 1.707500 0.000000 
#    z 0.000000 0.000000 1.762670 
# 
# From -- ./inp_files/24418.got.cif
#   From: 2010.05.17/outbox.cif.g08.bks.cpg/sg64_13_cif.got.tgz:24418.got - 2010.06.03 16:29:19.
