data_PCOD9476436
_publ_section_title
;
Structure prediction by ZEFSAII (Michael W. Deem and Ramdas Pophale) SiO2 
 PCOD9476436
Probable space group: C M C A
;
_chemical_formula_sum "Si O2"
_cell_formula_units_Z 80
_cell_length_a 7.505985
_cell_length_b 20.070901
_cell_length_c 26.674133
_cell_angle_alpha 90.000000
_cell_angle_beta 90.000000
_cell_angle_gamma 90.000000
_cell_volume 4018.508333
_symmetry_space_group_name_H-M "C M C A"
_symmetry_group_IT_number 64
_symmetry_cell_setting 'orthorhombic'
loop_
_space_group_symop_operation_xyz
x,y,z
-x,1/2-y,1/2+z
x,-y,-z
-x,1/2+y,1/2-z
-x,-y,-z
x,1/2+y,1/2-z
-x,y,z
x,1/2-y,1/2+z
1/2+x,1/2+y,z
1/2-x,-y,1/2+z
1/2+x,1/2-y,-z
1/2-x,y,1/2-z
1/2-x,1/2-y,-z
1/2+x,y,1/2-z
1/2-x,1/2+y,z
1/2+x,-y,1/2+z
loop_
_atom_site_type_symbol
_atom_site_label
_atom_site_fract_x
_atom_site_fract_y
_atom_site_fract_z
Si Si1 0.716838 0.639924 0.531607
Si Si2 0.214516 0.240779 0.615308
Si Si3 0.213113 0.129688 0.691411
Si Si4 0.782811 0.473485 0.110321
Si Si5 0.710899 0.617877 0.419552
O O1 0.500000 0.642825 0.530564
O O2 0.776726 0.703324 0.564418
O O3 0.764112 0.574112 0.563485
O O4 0.783206 0.635077 0.474959
O O5 0.277611 0.195486 0.661744
O O6 0.266093 0.317517 0.614752
O O7 0.000000 0.238682 0.615018
O O8 0.250000 0.128869 0.750000
O O9 0.278052 0.065360 0.660189
O O10 0.000000 0.129911 0.686014
O O11 0.718158 0.548491 0.102224
O O12 0.000000 0.475093 0.112044
O O13 0.500000 0.607499 0.426317
#
# Coordination Sequence:
#
# PCOD9476436 Si02
#       5
#    16  16  16  16  16
#     4   8  14  26  45  67  92 125 157 180 209 257
#     4   9  18  31  45  65  95 124 148 180 226 270
#     4   9  18  34  53  67  83 114 153 191 229 269
#     4   8  15  28  46  69  93 116 148 188 226 262
#     4  10  17  26  46  73  96 119 150 185 216 258
#
# _framework density 19.907886000000001
#
# number of rings (size 3 to 8) (size 9 to 14) (size 15 to 20)
#    0.000    3.200    0.000    3.600    0.000    3.200 
#    0.000    2.000    0.000    9.600    0.000    0.000 
#    0.000    0.000    0.000    0.000    0.000    0.000 
#
# Total GULP energy -223074.844979 kJ/mol
# GULP energy per Si atom -5576.871124 kJ/mol
# Density = 1.986257 g / cm^3
# Si number density = 19.907886 Si / 1000 Ang^3
#
#
#
# Elastic Constant Matrix: (Units=GPa)
#
#
# Indices 1 2 3 4 5 6 
#
# 1 47.0513 -4.9415 -1.7797 0.0000 0.0000 0.0000
# 2 -4.9415 156.4054 52.8197 0.0000 0.0000 0.0000
# 3 -1.7797 52.8197 117.8997 0.0000 0.0000 0.0000
# 4 0.0000 0.0000 0.0000 7.2453 0.0000 0.0000
# 5 0.0000 0.0000 0.0000 0.0000 10.3926 0.0000
# 6 0.0000 0.0000 0.0000 0.0000 0.0000 24.4689
#
#
#
# Elastic Compliance Matrix: (Units=1/GPa)
#
#
# Indices 1 2 3 4 5 6 
#
# 1 0.021324 0.000666 0.000024 0.000000 0.000000 0.000000
# 2 0.000666 0.007554 -0.003374 0.000000 0.000000 0.000000
# 3 0.000024 -0.003374 0.009994 0.000000 0.000000 0.000000
# 4 0.000000 0.000000 0.000000 0.138020 0.000000 0.000000
# 5 0.000000 0.000000 0.000000 0.000000 0.096222 0.000000
# 6 0.000000 0.000000 0.000000 0.000000 0.000000 0.040868
#
#
# Mechanical properties :
#
#
# Convention : Reuss Voigt Hill
#
# Bulk Modulus (GPa) = 29.84857 45.95037 37.89947
# Shear Modulus (GPa) = 15.12766 26.77189 20.94978
#
# Velocity S-wave (km/s) = 2.75959 3.67111 3.24749
# Velocity P-wave (km/s) = 5.01793 6.41101 5.75677
#
# Compressibility (1/GPa) = 0.03350244
#
# Stress axis : x y z
#
# Youngs Moduli (GPa) = 46.89507 132.37665 100.06167
#
# Poissons Ratio (x) = -0.08813 -0.00236
# Poissons Ratio (y) = -0.03122 0.33764
# Poissons Ratio (z) = -0.00111 0.44668
#
# Static dielectric constant tensor:
#      x y z
#    x 1.786650 0.000000 0.000000 
#    y 0.000000 1.701720 0.000000 
#    z 0.000000 0.000000 1.683610 
# 
# From -- ./inp_files/43930.got.cif
#   From: 2010.05.17/outbox.cif.g08.bks.cpg/sg64_22_cif.got.tgz:43930.got - 2010.06.03 16:29:19.
