data_PCOD9476524
_publ_section_title
;
Structure prediction by ZEFSAII (Michael W. Deem and Ramdas Pophale) SiO2 
 PCOD9476524
Probable space group: C M C A
;
_chemical_formula_sum "Si O2"
_cell_formula_units_Z 60
_cell_length_a 13.975344
_cell_length_b 15.766000
_cell_length_c 11.519276
_cell_angle_alpha 90.000000
_cell_angle_beta 90.000000
_cell_angle_gamma 90.000000
_cell_volume 2538.102828
_symmetry_space_group_name_H-M "C M C A"
_symmetry_group_IT_number 64
_symmetry_cell_setting 'orthorhombic'
loop_
_space_group_symop_operation_xyz
x,y,z
-x,1/2-y,1/2+z
x,-y,-z
-x,1/2+y,1/2-z
-x,-y,-z
x,1/2+y,1/2-z
-x,y,z
x,1/2-y,1/2+z
1/2+x,1/2+y,z
1/2-x,-y,1/2+z
1/2+x,1/2-y,-z
1/2-x,y,1/2-z
1/2-x,1/2-y,-z
1/2+x,y,1/2-z
1/2-x,1/2+y,z
1/2+x,-y,1/2+z
loop_
_atom_site_type_symbol
_atom_site_label
_atom_site_fract_x
_atom_site_fract_y
_atom_site_fract_z
Si Si1 0.160222 0.206094 0.057537
Si Si2 0.846156 0.456567 0.704153
Si Si3 0.500000 0.310465 0.123498
Si Si4 0.000000 0.500000 0.500000
Si Si5 0.500000 0.663274 0.628378
Si Si6 0.500000 0.894494 0.880277
O O1 0.090548 0.170444 0.957026
O O2 0.250000 0.250000 0.000000
O O3 0.186544 0.132840 0.146179
O O4 0.093102 0.277073 0.115950
O O5 0.750000 0.503029 0.750000
O O6 0.915744 0.490818 0.603319
O O7 0.909249 0.434460 0.817055
O O8 0.500000 0.363915 0.239848
O O9 0.500000 0.208368 0.144098
O O10 0.500000 0.600612 0.519746
#
# Coordination Sequence:
#
# PCOD9476524 Si02
#       6
#    16  16   8   4   8   8
#     4  10  20  31  55  88 124 163 207 253 324 398
#     4  11  20  39  67  88 121 168 226 271 328 386
#     4  10  17  31  47  82 135 160 190 246 307 400
#     4  10  24  42  72  92 120 170 228 288 306 364
#     4  10  18  29  48  82 137 161 201 241 319 398
#     4   9  17  32  53  89 120 172 207 260 318 386
#
# _framework density 23.639703999999998
#
# number of rings (size 3 to 8) (size 9 to 14) (size 15 to 20)
#    0.000    2.133    2.667    5.600    0.000    0.000 
#    0.000    0.000   23.467    1.600    0.000    0.000 
#    0.000    0.000    0.000    0.000    0.000    0.000 
#
# Total GULP energy -167217.271812 kJ/mol
# GULP energy per Si atom -5573.909060 kJ/mol
# Density = 2.358590 g / cm^3
# Si number density = 23.639704 Si / 1000 Ang^3
#
#
#
# Elastic Constant Matrix: (Units=GPa)
#
#
# Indices 1 2 3 4 5 6 
#
# 1 174.8670 22.0950 67.1840 0.0000 0.0000 0.0000
# 2 22.0950 58.8854 29.6851 0.0000 0.0000 0.0000
# 3 67.1840 29.6851 220.0858 0.0000 0.0000 0.0000
# 4 0.0000 0.0000 0.0000 47.3629 0.0000 0.0000
# 5 0.0000 0.0000 0.0000 0.0000 26.8930 0.0000
# 6 0.0000 0.0000 0.0000 0.0000 0.0000 359.3990
#
#
#
# Elastic Compliance Matrix: (Units=1/GPa)
#
#
# Indices 1 2 3 4 5 6 
#
# 1 0.006611 -0.001570 -0.001806 0.000000 0.000000 0.000000
# 2 -0.001570 0.018594 -0.002029 0.000000 0.000000 0.000000
# 3 -0.001806 -0.002029 0.005369 0.000000 0.000000 0.000000
# 4 0.000000 0.000000 0.000000 0.021114 0.000000 0.000000
# 5 0.000000 0.000000 0.000000 0.000000 0.037184 0.000000
# 6 0.000000 0.000000 0.000000 0.000000 0.000000 0.002782
#
#
# Mechanical properties :
#
#
# Convention : Reuss Voigt Hill
#
# Bulk Modulus (GPa) = 50.59797 76.86292 63.73044
# Shear Modulus (GPa) = 45.84973 109.05592 77.45283
#
# Velocity S-wave (km/s) = 4.40878 6.79946 5.73018
# Velocity P-wave (km/s) = 6.88235 9.70714 8.41413
#
# Compressibility (1/GPa) = 0.01976364
#
# Stress axis : x y z
#
# Youngs Moduli (GPa) = 151.26307 53.78106 186.26432
#
# Poissons Ratio (x) = 0.08444 0.33646
# Poissons Ratio (y) = 0.23748 0.37787
# Poissons Ratio (z) = 0.27323 0.10910
#
# Static dielectric constant tensor:
#      x y z
#    x 1.926440 0.000000 0.000000 
#    y 0.000000 2.092050 0.000000 
#    z 0.000000 0.000000 1.861820 
# 
# From -- ./inp_files/12862.got.cif
#   From: 2010.05.17/outbox.cif.g08.bks.cpg/sg64_7_cif.got.tgz:12862.got - 2010.06.03 16:29:19.
