data_PCOD9476954
_publ_section_title
;
Structure prediction by ZEFSAII (Michael W. Deem and Ramdas Pophale) SiO2 
 PCOD9476954
Probable space group: C M C A
;
_chemical_formula_sum "Si O2"
_cell_formula_units_Z 88
_cell_length_a 12.644611
_cell_length_b 26.662524
_cell_length_c 14.702497
_cell_angle_alpha 90.000000
_cell_angle_beta 90.000000
_cell_angle_gamma 90.000000
_cell_volume 4956.759322
_symmetry_space_group_name_H-M "C M C A"
_symmetry_group_IT_number 64
_symmetry_cell_setting 'orthorhombic'
loop_
_space_group_symop_operation_xyz
x,y,z
-x,1/2-y,1/2+z
x,-y,-z
-x,1/2+y,1/2-z
-x,-y,-z
x,1/2+y,1/2-z
-x,y,z
x,1/2-y,1/2+z
1/2+x,1/2+y,z
1/2-x,-y,1/2+z
1/2+x,1/2-y,-z
1/2-x,y,1/2-z
1/2-x,1/2-y,-z
1/2+x,y,1/2-z
1/2-x,1/2+y,z
1/2+x,-y,1/2+z
loop_
_atom_site_type_symbol
_atom_site_label
_atom_site_fract_x
_atom_site_fract_y
_atom_site_fract_z
Si Si1 0.624028 0.125068 0.596452
Si Si2 0.623779 0.502320 0.625315
Si Si3 0.795395 0.083413 0.476514
Si Si4 0.269232 0.226836 0.640892
Si Si5 0.377945 0.693930 0.481972
Si Si6 0.750000 0.565690 0.750000
O O1 0.500000 0.114439 0.602089
O O2 0.678912 0.102089 0.505996
O O3 0.646507 0.184020 0.610816
O O4 0.695802 0.100203 0.674751
O O5 0.500000 0.491421 0.617587
O O6 0.691390 0.451852 0.610729
O O7 0.657086 0.544946 0.551669
O O8 0.656519 0.529717 0.716797
O O9 0.862003 0.134276 0.474126
O O10 0.250000 0.227770 0.750000
O O11 0.311313 0.278363 0.596926
O O12 0.167026 0.211165 0.580549
O O13 0.500000 0.707115 0.473705
#
# Coordination Sequence:
#
# PCOD9476954 Si02
#       6
#    16  16  16  16  16   8
#     4  10  19  34  54  78 108 137 172 229 280 317
#     4  10  18  33  54  75 106 141 179 228 269 315
#     4   9  19  34  53  78 101 137 186 220 265 330
#     4  10  21  37  53  84 113 142 186 227 273 340
#     4  10  20  35  57  80 109 145 183 229 277 328
#     4  10  20  32  48  82 106 134 184 220 266 330
#
# _framework density 17.753534999999999
#
# number of rings (size 3 to 8) (size 9 to 14) (size 15 to 20)
#    0.000    2.182    0.909    3.273    0.000    1.455 
#    1.636    8.182    0.000    0.000    0.000    0.000 
#    0.000    0.000    0.000    0.000    0.000    0.000 
#
# Total GULP energy -244935.701858 kJ/mol
# GULP energy per Si atom -5566.720497 kJ/mol
# Density = 1.771313 g / cm^3
# Si number density = 17.753535 Si / 1000 Ang^3
#
#
#
# Elastic Constant Matrix: (Units=GPa)
#
#
# Indices 1 2 3 4 5 6 
#
# 1 88.9850 21.7833 1.5075 0.0000 0.0000 0.0000
# 2 21.7833 114.6481 29.8055 0.0000 0.0000 0.0000
# 3 1.5075 29.8055 34.2414 0.0000 0.0000 0.0000
# 4 0.0000 0.0000 0.0000 15.2788 0.0000 0.0000
# 5 0.0000 0.0000 0.0000 0.0000 16.2344 0.0000
# 6 0.0000 0.0000 0.0000 0.0000 0.0000 12.1166
#
#
#
# Elastic Compliance Matrix: (Units=1/GPa)
#
#
# Indices 1 2 3 4 5 6 
#
# 1 0.011877 -0.002741 0.001863 0.000000 0.000000 0.000000
# 2 -0.002741 0.011906 -0.010243 0.000000 0.000000 0.000000
# 3 0.001863 -0.010243 0.038039 0.000000 0.000000 0.000000
# 4 0.000000 0.000000 0.000000 0.065450 0.000000 0.000000
# 5 0.000000 0.000000 0.000000 0.000000 0.061598 0.000000
# 6 0.000000 0.000000 0.000000 0.000000 0.000000 0.082531
#
#
# Mechanical properties :
#
#
# Convention : Reuss Voigt Hill
#
# Bulk Modulus (GPa) = 25.26539 38.22970 31.74754
# Shear Modulus (GPa) = 16.29532 21.04449 18.66991
#
# Velocity S-wave (km/s) = 3.03291 3.44665 3.24638
# Velocity P-wave (km/s) = 5.15042 6.11715 5.65448
#
# Compressibility (1/GPa) = 0.03957983
#
# Stress axis : x y z
#
# Youngs Moduli (GPa) = 84.19435 83.99087 26.28915
#
# Poissons Ratio (x) = 0.23022 -0.04898
# Poissons Ratio (y) = 0.23078 0.26928
# Poissons Ratio (z) = -0.15686 0.86032
#
# Static dielectric constant tensor:
#      x y z
#    x 1.586320 0.000000 0.000000 
#    y 0.000000 1.613580 0.000000 
#    z 0.000000 0.000000 1.678310 
# 
# From -- ./inp_files/22584.got.cif
#   From: 2010.05.17/outbox.cif.g08.bks.cpg/sg64_12_cif.got.tgz:22584.got - 2010.06.03 16:29:19.
