data_PCOD9476054
_publ_section_title
;
Structure prediction by ZEFSAII (Michael W. Deem and Ramdas Pophale) SiO2 
 PCOD9476054
Probable space group: C M C M
;
_chemical_formula_sum "Si O2"
_cell_formula_units_Z 48
_cell_length_a 9.000000
_cell_length_b 24.000000
_cell_length_c 27.000000
_cell_angle_alpha 90.000000
_cell_angle_beta 90.000000
_cell_angle_gamma 90.000000
_cell_volume 5832.000000
_symmetry_space_group_name_H-M "C M C M"
_symmetry_group_IT_number 63
_symmetry_cell_setting 'orthorhombic'
loop_
_space_group_symop_operation_xyz
x,y,z
-x,-y,1/2+z
x,-y,-z
-x,y,1/2-z
-x,-y,-z
x,y,1/2-z
-x,y,z
x,-y,1/2+z
1/2+x,1/2+y,z
1/2-x,1/2-y,1/2+z
1/2+x,1/2-y,-z
1/2-x,1/2+y,1/2-z
1/2-x,1/2-y,-z
1/2+x,1/2+y,1/2-z
1/2-x,1/2+y,z
1/2+x,1/2-y,1/2+z
loop_
_atom_site_type_symbol
_atom_site_label
_atom_site_fract_x
_atom_site_fract_y
_atom_site_fract_z
Si Si1 0.678439 0.259334 0.381847
Si Si2 0.821568 0.356142 0.434718
Si Si3 0.819545 0.022791 0.944415
Si Si4 0.827895 0.918238 0.884643
Si Si5 0.679549 0.673672 0.308597
Si Si6 0.173813 0.819696 0.963299
O O1 0.500000 0.261461 0.382025
O O2 0.750550 0.319817 0.390418
O O3 0.740452 0.226232 0.334136
O O4 0.740609 0.223408 0.428293
O O5 0.760885 0.419014 0.435061
O O6 0.757325 0.329589 0.485525
O O7 0.000000 0.353743 0.433810
O O8 0.000000 0.029525 0.941258
O O9 0.766942 0.976614 0.904446
O O10 0.789458 0.000000 0.000000
O O11 0.767867 0.881461 0.838977
O O12 0.825782 0.877030 0.931961
O O13 0.000000 0.929205 0.872069
O O14 0.705599 0.669830 0.250000
O O15 0.500000 0.678808 0.316872
O O16 0.000000 0.803829 0.970642
#
# Coordination Sequence:
#
# PCOD9476054 Si02
#       6
#    16  16  16  16  16  16
#     4  11  22  35  51  75 104 136 175 219 265 314
#     4  12  23  33  47  72 106 144 182 218 260 309
#     4  10  18  32  51  72 102 145 184 216 253 301
#     4   8  15  29  51  76 102 134 173 212 255 307
#     4   9  18  35  59  83 105 132 167 213 269 325
#     4  10  18  33  52  73 103 140 176 213 259 312
#
# _framework density 8.2304530000000007
#
# number of rings (size 3 to 8) (size 9 to 14) (size 15 to 20)
#    0.000    2.000    1.667    5.000    0.000    0.667 
#    0.000    0.833    0.000    1.000    0.000    2.333 
#    0.000    0.000    0.000    0.000    0.000    0.000 
#
# Total GULP energy -267701.678076 kJ/mol
# GULP energy per Si atom -5577.118293 kJ/mol
# Density = 0.821172 g / cm^3
# Si number density = 8.230453 Si / 1000 Ang^3
#
#
#
# Elastic Constant Matrix: (Units=GPa)
#
#
# Indices 1 2 3 4 5 6 
#
# 1 102.1646 44.1811 40.7189 0.0000 0.0000 0.0000
# 2 44.1811 100.2799 50.8888 0.0000 0.0000 0.0000
# 3 40.7189 50.8888 99.4163 0.0000 0.0000 0.0000
# 4 0.0000 0.0000 0.0000 11.0638 0.0000 0.0000
# 5 0.0000 0.0000 0.0000 0.0000 21.0267 0.0000
# 6 0.0000 0.0000 0.0000 0.0000 0.0000 25.4618
#
#
#
# Elastic Compliance Matrix: (Units=1/GPa)
#
#
# Indices 1 2 3 4 5 6 
#
# 1 0.012796 -0.004023 -0.003182 0.000000 0.000000 0.000000
# 2 -0.004023 0.014736 -0.005895 0.000000 0.000000 0.000000
# 3 -0.003182 -0.005895 0.014380 0.000000 0.000000 0.000000
# 4 0.000000 0.000000 0.000000 0.090385 0.000000 0.000000
# 5 0.000000 0.000000 0.000000 0.000000 0.047559 0.000000
# 6 0.000000 0.000000 0.000000 0.000000 0.000000 0.039274
#
#
# Mechanical properties :
#
#
# Convention : Reuss Voigt Hill
#
# Bulk Modulus (GPa) = 63.64714 63.71537 63.68126
# Shear Modulus (GPa) = 19.95475 22.58193 21.26834
#
# Velocity S-wave (km/s) = 3.48552 3.70787 3.59841
# Velocity P-wave (km/s) = 7.41269 7.55792 7.48566
#
# Compressibility (1/GPa) = 0.01571162
#
# Stress axis : x y z
#
# Youngs Moduli (GPa) = 78.14951 67.85979 69.54305
#
# Poissons Ratio (x) = 0.27300 0.22126
# Poissons Ratio (y) = 0.31440 0.40998
# Poissons Ratio (z) = 0.24865 0.40006
#
# Static dielectric constant tensor:
#      x y z
#    x 1.544930 0.000000 0.000000 
#    y 0.000000 1.593190 0.000000 
#    z 0.000000 0.000000 1.545470 
# 
# From -- ./inp_files/67262.got.cif
#   From: 2010.05.17/outbox.ucp.g08.bks.cvg/sg63_34_cif.got.tgz:67262.got - 2010.06.11 16:32:19.
