data_PCOD9476844
_publ_section_title
;
Structure prediction by ZEFSAII (Michael W. Deem and Ramdas Pophale) SiO2 
 PCOD9476844
Probable space group: C M C A
;
_chemical_formula_sum "Si O2"
_cell_formula_units_Z 88
_cell_length_a 16.681050
_cell_length_b 28.251104
_cell_length_c 10.159102
_cell_angle_alpha 90.000000
_cell_angle_beta 90.000000
_cell_angle_gamma 90.000000
_cell_volume 4787.558887
_symmetry_space_group_name_H-M "C M C A"
_symmetry_group_IT_number 64
_symmetry_cell_setting 'orthorhombic'
loop_
_space_group_symop_operation_xyz
x,y,z
-x,1/2-y,1/2+z
x,-y,-z
-x,1/2+y,1/2-z
-x,-y,-z
x,1/2+y,1/2-z
-x,y,z
x,1/2-y,1/2+z
1/2+x,1/2+y,z
1/2-x,-y,1/2+z
1/2+x,1/2-y,-z
1/2-x,y,1/2-z
1/2-x,1/2-y,-z
1/2+x,y,1/2-z
1/2-x,1/2+y,z
1/2+x,-y,1/2+z
loop_
_atom_site_type_symbol
_atom_site_label
_atom_site_fract_x
_atom_site_fract_y
_atom_site_fract_z
Si Si1 0.905047 0.044244 0.598693
Si Si2 0.305060 0.160597 0.591947
Si Si3 0.750000 0.428622 0.250000
Si Si4 0.912109 0.861610 0.564831
Si Si5 0.664234 0.190984 0.302554
Si Si6 0.364810 0.294765 0.340708
O O1 0.830338 0.043770 0.702027
O O2 0.888384 0.091463 0.513344
O O3 0.000000 0.047076 0.645647
O O4 0.900666 0.000000 0.500000
O O5 0.278947 0.108186 0.636255
O O6 0.331344 0.165521 0.442722
O O7 0.368618 0.178980 0.699980
O O8 0.226956 0.194484 0.610623
O O9 0.862081 0.844228 0.688079
O O10 0.912746 0.820421 0.455422
O O11 0.000000 0.870701 0.617900
O O12 0.750000 0.208353 0.250000
O O13 0.616318 0.239840 0.322199
#
# Coordination Sequence:
#
# PCOD9476844 Si02
#       6
#    16  16   8  16  16  16
#     4  10  21  41  66  87 114 158 200 241 300 363
#     4  10  18  31  55  86 108 148 202 239 283 342
#     4  10  18  40  60  90 116 148 198 248 288 362
#     4  11  23  38  54  80 119 154 190 238 291 354
#     4  12  19  31  55  84 113 149 192 241 287 336
#     4  10  18  33  54  78 110 153 198 237 278 350
#
# _framework density 18.380976
#
# number of rings (size 3 to 8) (size 9 to 14) (size 15 to 20)
#    0.000    1.636    7.273    1.636    0.000    0.727 
#    4.909    1.818    0.000    0.545    0.000    0.000 
#    0.000    0.000    0.000    0.000    0.000    0.000 
#
# Total GULP energy -244976.597767 kJ/mol
# GULP energy per Si atom -5567.649949 kJ/mol
# Density = 1.833914 g / cm^3
# Si number density = 18.380976 Si / 1000 Ang^3
#
#
#
# Elastic Constant Matrix: (Units=GPa)
#
#
# Indices 1 2 3 4 5 6 
#
# 1 77.1678 29.6310 42.6802 0.0000 0.0000 0.0000
# 2 29.6310 45.2754 16.5138 0.0000 0.0000 0.0000
# 3 42.6802 16.5138 113.8047 0.0000 0.0000 0.0000
# 4 0.0000 0.0000 0.0000 -3.0423 0.0000 0.0000
# 5 0.0000 0.0000 0.0000 0.0000 -12.0387 0.0000
# 6 0.0000 0.0000 0.0000 0.0000 0.0000 15.0186
#
#
#
# Elastic Compliance Matrix: (Units=1/GPa)
#
#
# Indices 1 2 3 4 5 6 
#
# 1 0.020682 -0.011305 -0.006116 0.000000 0.000000 0.000000
# 2 -0.011305 0.029501 -0.000041 0.000000 0.000000 0.000000
# 3 -0.006116 -0.000041 0.011087 0.000000 0.000000 0.000000
# 4 0.000000 0.000000 0.000000 -0.328701 0.000000 0.000000
# 5 0.000000 0.000000 0.000000 0.000000 -0.083065 0.000000
# 6 0.000000 0.000000 0.000000 0.000000 0.000000 0.066584
#
#
# Mechanical properties :
#
#
# Convention : Reuss Voigt Hill
#
# Bulk Modulus (GPa) = 37.95718 45.98865 41.97292
# Shear Modulus (GPa) = -20.81540 9.81571 -5.49985
#
# Velocity S-wave (km/s) = -3.36883 2.31338 -1.73166
# Velocity P-wave (km/s) = 2.35862 5.67536 4.34584
#
# Compressibility (1/GPa) = 0.02634548
#
# Stress axis : x y z
#
# Youngs Moduli (GPa) = 48.35026 33.89746 90.19852
#
# Poissons Ratio (x) = 0.38321 0.55166
# Poissons Ratio (y) = 0.54660 0.00370
# Poissons Ratio (z) = 0.29571 0.00139
#
# Static dielectric constant tensor:
#      x y z
#    x 1.740720 0.000000 0.000000 
#    y 0.000000 1.648230 0.000000 
#    z 0.000000 0.000000 1.646880 
# 
# From -- ./inp_files/7321.got.cif
#   From: 2010.05.17/outbox.cif.g08.bks.cpg/sg64_4_cif.got.tgz:7321.got - 2010.06.03 16:29:19.
