data_PCOD9476739
_publ_section_title
;
Structure prediction by ZEFSAII (Michael W. Deem and Ramdas Pophale) SiO2 
 PCOD9476739
Probable space group: C M C A
;
_chemical_formula_sum "Si O2"
_cell_formula_units_Z 80
_cell_length_a 24.152347
_cell_length_b 7.964893
_cell_length_c 21.453220
_cell_angle_alpha 90.000000
_cell_angle_beta 90.000000
_cell_angle_gamma 90.000000
_cell_volume 4126.974372
_symmetry_space_group_name_H-M "C M C A"
_symmetry_group_IT_number 64
_symmetry_cell_setting 'orthorhombic'
loop_
_space_group_symop_operation_xyz
x,y,z
-x,1/2-y,1/2+z
x,-y,-z
-x,1/2+y,1/2-z
-x,-y,-z
x,1/2+y,1/2-z
-x,y,z
x,1/2-y,1/2+z
1/2+x,1/2+y,z
1/2-x,-y,1/2+z
1/2+x,1/2-y,-z
1/2-x,y,1/2-z
1/2-x,1/2-y,-z
1/2+x,y,1/2-z
1/2-x,1/2+y,z
1/2+x,-y,1/2+z
loop_
_atom_site_type_symbol
_atom_site_label
_atom_site_fract_x
_atom_site_fract_y
_atom_site_fract_z
Si Si1 0.712215 0.562026 0.071020
Si Si2 0.938359 0.351568 0.124299
Si Si3 0.000000 0.018906 0.727062
Si Si4 0.094076 0.484059 0.424515
Si Si5 0.000000 0.323642 0.351884
Si Si6 0.173491 0.947327 0.428768
O O1 0.658442 0.460011 0.094233
O O2 0.773273 0.543128 0.099275
O O3 0.692980 0.753629 0.071429
O O4 0.719664 0.500000 0.000000
O O5 0.947931 0.379619 0.197919
O O6 0.946713 0.846303 0.104080
O O7 0.885692 0.458656 0.103832
O O8 0.925988 0.162724 0.102861
O O9 0.000000 0.840776 0.691575
O O10 0.000000 0.026102 0.800671
O O11 0.091306 0.500000 0.500000
O O12 0.000000 0.897483 0.401659
O O13 0.164276 0.000000 0.500000
#
# Coordination Sequence:
#
# PCOD9476739 Si02
#       6
#    16  16   8  16   8  16
#     4   9  18  30  47  74 106 143 180 214 266 325
#     4   9  20  37  49  76 111 141 178 224 265 320
#     4  10  24  37  54  80 102 149 187 224 269 320
#     4  10  20  35  56  82 114 146 176 222 278 326
#     4  12  21  37  59  76 109 143 184 228 269 324
#     4  10  18  30  50  72 107 146 177 223 264 317
#
# _framework density 19.384658999999999
#
# number of rings (size 3 to 8) (size 9 to 14) (size 15 to 20)
#    0.600    1.600    1.000    3.900    0.000    6.800 
#    0.000    0.000    0.000    1.200    0.000    8.400 
#    0.000    0.000    0.000    0.000    0.000    0.000 
#
# Total GULP energy -222687.125105 kJ/mol
# GULP energy per Si atom -5567.178128 kJ/mol
# Density = 1.934054 g / cm^3
# Si number density = 19.384659 Si / 1000 Ang^3
#
#
#
# Elastic Constant Matrix: (Units=GPa)
#
#
# Indices 1 2 3 4 5 6 
#
# 1 176.0601 15.5343 30.3262 0.0000 0.0000 0.0000
# 2 15.5343 47.4651 7.3387 0.0000 0.0000 0.0000
# 3 30.3262 7.3387 57.7715 0.0000 0.0000 0.0000
# 4 0.0000 0.0000 0.0000 25.6976 0.0000 0.0000
# 5 0.0000 0.0000 0.0000 0.0000 -2.6792 0.0000
# 6 0.0000 0.0000 0.0000 0.0000 0.0000 27.5284
#
#
#
# Elastic Compliance Matrix: (Units=1/GPa)
#
#
# Indices 1 2 3 4 5 6 
#
# 1 0.006361 -0.001597 -0.003136 0.000000 0.000000 0.000000
# 2 -0.001597 0.021891 -0.001943 0.000000 0.000000 0.000000
# 3 -0.003136 -0.001943 0.019203 0.000000 0.000000 0.000000
# 4 0.000000 0.000000 0.000000 0.038914 0.000000 0.000000
# 5 0.000000 0.000000 0.000000 0.000000 -0.373239 0.000000
# 6 0.000000 0.000000 0.000000 0.000000 0.000000 0.036326
#
#
# Mechanical properties :
#
#
# Convention : Reuss Voigt Hill
#
# Bulk Modulus (GPa) = 29.32265 43.07723 36.19994
# Shear Modulus (GPa) = -22.14101 25.31586 1.58742
#
# Velocity S-wave (km/s) = -3.38330 3.61775 0.90592
# Velocity P-wave (km/s) = 0.32051 6.30249 4.45077
#
# Compressibility (1/GPa) = 0.03410332
#
# Stress axis : x y z
#
# Youngs Moduli (GPa) = 157.20822 45.68065 52.07618
#
# Poissons Ratio (x) = 0.07295 0.16332
# Poissons Ratio (y) = 0.25105 0.10116
# Poissons Ratio (z) = 0.49304 0.08874
#
# Static dielectric constant tensor:
#      x y z
#    x 1.749030 0.000000 0.000000 
#    y 0.000000 1.774730 0.000000 
#    z 0.000000 0.000000 1.659560 
# 
# From -- ./inp_files/46152.got.cif
#   From: 2010.05.17/outbox.cif.g08.bks.cpg/sg64_24_cif.got.tgz:46152.got - 2010.06.03 16:29:19.
