data_PCOD9476516
_publ_section_title
;
Structure prediction by ZEFSAII (Michael W. Deem and Ramdas Pophale) SiO2 
 PCOD9476516
Probable space group: C M C A
;
_chemical_formula_sum "Si O2"
_cell_formula_units_Z 104
_cell_length_a 24.925482
_cell_length_b 13.141664
_cell_length_c 16.462283
_cell_angle_alpha 90.000000
_cell_angle_beta 90.000000
_cell_angle_gamma 90.000000
_cell_volume 5392.423439
_symmetry_space_group_name_H-M "C M C A"
_symmetry_group_IT_number 64
_symmetry_cell_setting 'orthorhombic'
loop_
_space_group_symop_operation_xyz
x,y,z
-x,1/2-y,1/2+z
x,-y,-z
-x,1/2+y,1/2-z
-x,-y,-z
x,1/2+y,1/2-z
-x,y,z
x,1/2-y,1/2+z
1/2+x,1/2+y,z
1/2-x,-y,1/2+z
1/2+x,1/2-y,-z
1/2-x,y,1/2-z
1/2-x,1/2-y,-z
1/2+x,y,1/2-z
1/2-x,1/2+y,z
1/2+x,-y,1/2+z
loop_
_atom_site_type_symbol
_atom_site_label
_atom_site_fract_x
_atom_site_fract_y
_atom_site_fract_z
Si Si1 0.000000 0.686583 0.487812
Si Si2 0.500000 0.142568 0.673183
Si Si3 0.613145 0.152832 0.410416
Si Si4 0.206498 0.892429 0.482041
Si Si5 0.881038 0.557818 0.677881
Si Si6 0.686188 0.202455 0.563456
Si Si7 0.615538 0.616387 0.644404
Si Si8 0.000000 0.364327 0.141671
O O1 0.000000 0.700412 0.585634
O O2 0.055936 0.635703 0.457290
O O3 0.000000 0.789328 0.435001
O O4 0.444757 0.079898 0.671435
O O5 0.500000 0.187021 0.766661
O O6 0.658825 0.170458 0.477916
O O7 0.610066 0.259362 0.360175
O O8 0.627219 0.054557 0.357538
O O9 0.252005 0.830659 0.434167
O O10 0.188037 0.824775 0.558622
O O11 0.154848 0.911865 0.427403
O O12 0.232329 0.000000 0.500000
O O13 0.849161 0.644105 0.628501
O O14 0.864111 0.574181 0.770608
O O15 0.555194 0.575260 0.635478
#
# Coordination Sequence:
#
# PCOD9476516 Si02
#       8
#     8   8  16  16  16  16  16   8
#     4  10  17  30  55  81 116 149 184 230 286 337
#     4  10  19  30  53  89 111 146 190 228 286 334
#     4  10  19  33  53  81 112 142 180 233 280 322
#     4  10  21  39  57  76 108 146 183 222 272 330
#     4  11  20  33  55  82 113 140 183 232 277 332
#     4  10  21  35  56  83 106 137 184 232 272 326
#     4   9  21  36  53  78 110 146 179 224 280 329
#     4   8  18  36  51  76 120 145 179 239 275 325
#
# _framework density 19.286318999999999
#
# number of rings (size 3 to 8) (size 9 to 14) (size 15 to 20)
#    0.000    2.154    1.538    1.846    0.000    2.462 
#    0.000    0.385    0.000    7.385    0.000    0.000 
#    0.000    0.000    0.000    0.000    0.000    0.000 
#
# Total GULP energy -289511.785856 kJ/mol
# GULP energy per Si atom -5567.534343 kJ/mol
# Density = 1.924242 g / cm^3
# Si number density = 19.286319 Si / 1000 Ang^3
#
#
#
# Elastic Constant Matrix: (Units=GPa)
#
#
# Indices 1 2 3 4 5 6 
#
# 1 69.8983 -7.9188 -2.3852 0.0000 0.0000 0.0000
# 2 -7.9188 35.1818 -7.7141 0.0000 0.0000 0.0000
# 3 -2.3852 -7.7141 42.9614 0.0000 0.0000 0.0000
# 4 0.0000 0.0000 0.0000 13.4228 0.0000 0.0000
# 5 0.0000 0.0000 0.0000 0.0000 -46.0237 0.0000
# 6 0.0000 0.0000 0.0000 0.0000 0.0000 10.6009
#
#
#
# Elastic Compliance Matrix: (Units=1/GPa)
#
#
# Indices 1 2 3 4 5 6 
#
# 1 0.014770 0.003648 0.001475 0.000000 0.000000 0.000000
# 2 0.003648 0.030490 0.005677 0.000000 0.000000 0.000000
# 3 0.001475 0.005677 0.024378 0.000000 0.000000 0.000000
# 4 0.000000 0.000000 0.000000 0.074500 0.000000 0.000000
# 5 0.000000 0.000000 0.000000 0.000000 -0.021728 0.000000
# 6 0.000000 0.000000 0.000000 0.000000 0.000000 0.094332
#
#
# Mechanical properties :
#
#
# Convention : Reuss Voigt Hill
#
# Bulk Modulus (GPa) = 10.96031 12.44501 11.70266
# Shear Modulus (GPa) = 22.16767 6.67065 14.41916
#
# Velocity S-wave (km/s) = 3.39396 1.86179 2.73726
# Velocity P-wave (km/s) = 4.58845 3.32993 4.00889
#
# Compressibility (1/GPa) = 0.09123827
#
# Stress axis : x y z
#
# Youngs Moduli (GPa) = 67.70427 32.79798 41.02056
#
# Poissons Ratio (x) = -0.11964 -0.06051
# Poissons Ratio (y) = -0.24698 -0.23288
# Poissons Ratio (z) = -0.09987 -0.18620
#
# Static dielectric constant tensor:
#      x y z
#    x 1.696910 0.000000 0.000000 
#    y 0.000000 1.705840 0.000000 
#    z 0.000000 0.000000 1.673600 
# 
# From -- ./inp_files/35093.got.cif
#   From: 2010.05.17/outbox.cif.g08.bks.cpg/sg64_18_cif.got.tgz:35093.got - 2010.06.03 16:29:19.
