data_PCOD9476099
_publ_section_title
;
Structure prediction by ZEFSAII (Michael W. Deem and Ramdas Pophale) SiO2 
 PCOD9476099
Probable space group: C M C M
;
_chemical_formula_sum "Si O2"
_cell_formula_units_Z 40
_cell_length_a 9.000000
_cell_length_b 27.000000
_cell_length_c 18.000000
_cell_angle_alpha 90.000000
_cell_angle_beta 90.000000
_cell_angle_gamma 90.000000
_cell_volume 4374.000000
_symmetry_space_group_name_H-M "C M C M"
_symmetry_group_IT_number 63
_symmetry_cell_setting 'orthorhombic'
loop_
_space_group_symop_operation_xyz
x,y,z
-x,-y,1/2+z
x,-y,-z
-x,y,1/2-z
-x,-y,-z
x,y,1/2-z
-x,y,z
x,-y,1/2+z
1/2+x,1/2+y,z
1/2-x,1/2-y,1/2+z
1/2+x,1/2-y,-z
1/2-x,1/2+y,1/2-z
1/2-x,1/2-y,-z
1/2+x,1/2+y,1/2-z
1/2-x,1/2+y,z
1/2+x,1/2-y,1/2+z
loop_
_atom_site_type_symbol
_atom_site_label
_atom_site_fract_x
_atom_site_fract_y
_atom_site_fract_z
Si Si1 0.823948 0.856594 0.558883
Si Si2 0.325340 0.802886 0.418507
Si Si3 0.676173 0.902535 0.330830
Si Si4 0.827399 0.442728 0.016191
Si Si5 0.823544 0.712199 0.336287
O O1 0.751856 0.824040 0.492182
O O2 0.770271 0.911629 0.540397
O O3 0.754311 0.837355 0.634991
O O4 0.000000 0.851486 0.558013
O O5 0.500000 0.793685 0.432306
O O6 0.311757 0.845655 0.356175
O O7 0.244836 0.755280 0.386621
O O8 0.743168 0.911148 0.250000
O O9 0.500000 0.913578 0.326214
O O10 0.732961 0.933090 0.400928
O O11 0.000000 0.424026 0.013070
O O12 0.828729 0.500000 0.000000
O O13 0.792717 0.721849 0.250000
O O14 0.000000 0.709295 0.346848
#
# Coordination Sequence:
#
# PCOD9476099 Si02
#       5
#    16  16  16  16  16
#     4  11  22  36  55  77 104 138 178 220 262 314
#     4  10  19  33  54  78 106 138 175 217 263 316
#     4   8  14  26  47  75 102 129 165 210 258 308
#     4   9  18  34  55  77 103 135 174 221 271 322
#     4  11  23  37  53  76 108 143 179 218 259 306
#
# _framework density 9.1449470000000002
#
# number of rings (size 3 to 8) (size 9 to 14) (size 15 to 20)
#    0.000    2.200    0.000    5.400    0.000    2.800 
#    0.000    1.000    0.000    9.000    0.000    0.000 
#    0.000    0.000    0.000    0.000    0.000    0.000 
#
# Total GULP energy -223066.438088 kJ/mol
# GULP energy per Si atom -5576.660952 kJ/mol
# Density = 0.912413 g / cm^3
# Si number density = 9.144947 Si / 1000 Ang^3
#
#
#
# Elastic Constant Matrix: (Units=GPa)
#
#
# Indices 1 2 3 4 5 6 
#
# 1 76.5914 25.6606 15.4979 0.0000 0.0000 0.0000
# 2 25.6606 61.8369 17.6310 0.0000 0.0000 0.0000
# 3 15.4979 17.6310 -5.8927 0.0000 0.0000 0.0000
# 4 0.0000 0.0000 0.0000 -17.4710 0.0000 0.0000
# 5 0.0000 0.0000 0.0000 0.0000 27.3857 0.0000
# 6 0.0000 0.0000 0.0000 0.0000 0.0000 22.8603
#
#
#
# Elastic Compliance Matrix: (Units=1/GPa)
#
#
# Indices 1 2 3 4 5 6 
#
# 1 0.013875 -0.008722 0.010396 0.000000 0.000000 0.000000
# 2 -0.008722 0.014209 0.019576 0.000000 0.000000 0.000000
# 3 0.010396 0.019576 -0.083789 0.000000 0.000000 0.000000
# 4 0.000000 0.000000 0.000000 -0.057238 0.000000 0.000000
# 5 0.000000 0.000000 0.000000 0.000000 0.036515 0.000000
# 6 0.000000 0.000000 0.000000 0.000000 0.000000 0.043744
#
#
# Mechanical properties :
#
#
# Convention : Reuss Voigt Hill
#
# Bulk Modulus (GPa) = -75.72984 27.79049 -23.96968
# Shear Modulus (GPa) = -62.82574 11.47141 -25.67716
#
# Velocity S-wave (km/s) = -5.86724 2.50711 -3.75093
# Velocity P-wave (km/s) = 9.34851 4.85883 5.64740
#
# Compressibility (1/GPa) = -0.01320483
#
# Stress axis : x y z
#
# Youngs Moduli (GPa) = 72.07292 70.37654 -11.93472
#
# Poissons Ratio (x) = 0.61380 0.12407
# Poissons Ratio (y) = 0.62860 0.23364
# Poissons Ratio (z) = -0.74925 -1.37770
#
# Static dielectric constant tensor:
#      x y z
#    x 1.612070 0.000000 0.000000 
#    y 0.000000 1.660040 0.000000 
#    z 0.000000 0.000000 1.675550 
# 
# From -- ./inp_files/40423.got.cif
#   From: 2010.05.17/outbox.ucp.g08.bks.cvg/sg63_21_cif.got.tgz:40423.got - 2010.06.11 16:32:19.
