data_PCOD9476059
_publ_section_title
;
Structure prediction by ZEFSAII (Michael W. Deem and Ramdas Pophale) SiO2 
 PCOD9476059
Probable space group: C M C M
;
_chemical_formula_sum "Si O2"
_cell_formula_units_Z 56
_cell_length_a 18.000000
_cell_length_b 21.000000
_cell_length_c 18.000000
_cell_angle_alpha 90.000000
_cell_angle_beta 90.000000
_cell_angle_gamma 90.000000
_cell_volume 6804.000000
_symmetry_space_group_name_H-M "C M C M"
_symmetry_group_IT_number 63
_symmetry_cell_setting 'orthorhombic'
loop_
_space_group_symop_operation_xyz
x,y,z
-x,-y,1/2+z
x,-y,-z
-x,y,1/2-z
-x,-y,-z
x,y,1/2-z
-x,y,z
x,-y,1/2+z
1/2+x,1/2+y,z
1/2-x,1/2-y,1/2+z
1/2+x,1/2-y,-z
1/2-x,1/2+y,1/2-z
1/2-x,1/2-y,-z
1/2+x,1/2+y,1/2-z
1/2-x,1/2+y,z
1/2+x,1/2-y,1/2+z
loop_
_atom_site_type_symbol
_atom_site_label
_atom_site_fract_x
_atom_site_fract_y
_atom_site_fract_z
Si Si1 0.716456 0.469624 0.079435
Si Si2 0.091334 0.337347 0.576293
Si Si3 0.914724 0.907470 0.162837
Si Si4 0.302203 0.835388 0.429752
Si Si5 0.172770 0.774030 0.338346
Si Si6 0.920263 0.400129 0.161873
Si Si7 0.350981 0.963653 0.839902
O O1 0.639556 0.455066 0.120251
O O2 0.757019 0.401875 0.063851
O O3 0.770237 0.514560 0.129150
O O4 0.703997 0.500000 0.000000
O O5 0.144217 0.327133 0.502383
O O6 0.120989 0.283296 0.633077
O O7 0.114967 0.404602 0.614499
O O8 0.000000 0.334745 0.565412
O O9 0.914693 0.923717 0.250000
O O10 0.876539 0.838144 0.156530
O O11 0.000000 0.906592 0.136623
O O12 0.242873 0.784575 0.395552
O O13 0.359921 0.850740 0.364776
O O14 0.193668 0.766576 0.250000
O O15 0.923497 0.397386 0.250000
O O16 0.899103 0.472855 0.144040
O O17 0.000000 0.385114 0.128162
O O18 0.349952 0.952825 0.750000
#
# Coordination Sequence:
#
# PCOD9476059 Si02
#       7
#    16  16  16  16  16  16  16
#     4  10  18  33  52  75 104 137 175 213 254 308
#     4  12  23  34  52  79 110 140 170 213 265 315
#     4   9  18  33  54  78 101 128 167 218 268 307
#     4  10  20  35  52  74 104 137 173 215 260 307
#     4  10  21  37  56  75 100 136 178 218 257 310
#     4   9  17  30  50  75 103 137 177 216 254 302
#     4  10  20  33  49  74 108 146 177 208 253 311
#
# _framework density 8.2304530000000007
#
# number of rings (size 3 to 8) (size 9 to 14) (size 15 to 20)
#    0.000    2.000    1.429    3.000    0.000    6.000 
#    0.000    2.143    0.000    0.000    0.000    0.000 
#    0.000    4.571    0.000    0.000    0.000    0.000 
#
# Total GULP energy -311748.451925 kJ/mol
# GULP energy per Si atom -5566.936642 kJ/mol
# Density = 0.821172 g / cm^3
# Si number density = 8.230453 Si / 1000 Ang^3
#
#
#
# Elastic Constant Matrix: (Units=GPa)
#
#
# Indices 1 2 3 4 5 6 
#
# 1 133.8720 34.6379 45.4030 0.0000 0.0000 0.0000
# 2 34.6379 46.1651 20.3557 0.0000 0.0000 0.0000
# 3 45.4030 20.3557 66.6766 0.0000 0.0000 0.0000
# 4 0.0000 0.0000 0.0000 25.4936 0.0000 0.0000
# 5 0.0000 0.0000 0.0000 0.0000 30.7826 0.0000
# 6 0.0000 0.0000 0.0000 0.0000 0.0000 20.1274
#
#
#
# Elastic Compliance Matrix: (Units=1/GPa)
#
#
# Indices 1 2 3 4 5 6 
#
# 1 0.010852 -0.005644 -0.005667 0.000000 0.000000 0.000000
# 2 -0.005644 0.027966 -0.004695 0.000000 0.000000 0.000000
# 3 -0.005667 -0.004695 0.020290 0.000000 0.000000 0.000000
# 4 0.000000 0.000000 0.000000 0.039226 0.000000 0.000000
# 5 0.000000 0.000000 0.000000 0.000000 0.032486 0.000000
# 6 0.000000 0.000000 0.000000 0.000000 0.000000 0.049684
#
#
# Mechanical properties :
#
#
# Convention : Reuss Voigt Hill
#
# Bulk Modulus (GPa) = 36.90367 49.72299 43.31333
# Shear Modulus (GPa) = 22.56880 25.03518 23.80199
#
# Velocity S-wave (km/s) = 3.70679 3.90409 3.80672
# Velocity P-wave (km/s) = 6.38655 7.11300 6.75954
#
# Compressibility (1/GPa) = 0.02709758
#
# Stress axis : x y z
#
# Youngs Moduli (GPa) = 92.14994 35.75784 49.28631
#
# Poissons Ratio (x) = 0.20180 0.27928
# Poissons Ratio (y) = 0.52006 0.23138
# Poissons Ratio (z) = 0.52217 0.16787
#
# Static dielectric constant tensor:
#      x y z
#    x 1.570180 0.000000 0.000000 
#    y 0.000000 1.544740 0.000000 
#    z 0.000000 0.000000 1.566410 
# 
# From -- ./inp_files/46110.got.cif
#   From: 2010.05.17/outbox.ucp.g08.bks.cvg/sg63_24_cif.got.tgz:46110.got - 2010.06.11 16:32:19.
