data_PCOD9476457
_publ_section_title
;
Structure prediction by ZEFSAII (Michael W. Deem and Ramdas Pophale) SiO2 
 PCOD9476457
Probable space group: C M C A
;
_chemical_formula_sum "Si O2"
_cell_formula_units_Z 96
_cell_length_a 7.596829
_cell_length_b 24.242182
_cell_length_c 27.019796
_cell_angle_alpha 90.000000
_cell_angle_beta 90.000000
_cell_angle_gamma 90.000000
_cell_volume 4976.065908
_symmetry_space_group_name_H-M "C M C A"
_symmetry_group_IT_number 64
_symmetry_cell_setting 'orthorhombic'
loop_
_space_group_symop_operation_xyz
x,y,z
-x,1/2-y,1/2+z
x,-y,-z
-x,1/2+y,1/2-z
-x,-y,-z
x,1/2+y,1/2-z
-x,y,z
x,1/2-y,1/2+z
1/2+x,1/2+y,z
1/2-x,-y,1/2+z
1/2+x,1/2-y,-z
1/2-x,y,1/2-z
1/2-x,1/2-y,-z
1/2+x,y,1/2-z
1/2-x,1/2+y,z
1/2+x,-y,1/2+z
loop_
_atom_site_type_symbol
_atom_site_label
_atom_site_fract_x
_atom_site_fract_y
_atom_site_fract_z
Si Si1 0.211057 0.921018 0.604154
Si Si2 0.800023 0.755021 0.131943
Si Si3 0.216745 0.151906 0.934052
Si Si4 0.291422 0.027836 0.550245
Si Si5 0.295954 0.818528 0.541380
Si Si6 0.288735 0.344951 0.692905
O O1 0.283774 0.881507 0.560839
O O2 0.271785 0.893086 0.655540
O O3 0.000000 0.918153 0.602110
O O4 0.265273 0.983269 0.593411
O O5 0.721342 0.812400 0.112803
O O6 0.802910 0.717644 0.082020
O O7 0.718079 0.713842 0.172323
O O8 0.000000 0.766722 0.147920
O O9 0.276466 0.088660 0.936947
O O10 0.000000 0.152966 0.933579
O O11 0.270332 0.181458 0.985379
O O12 0.500000 0.035036 0.542174
O O13 0.217551 0.000000 0.500000
O O14 0.500000 0.801917 0.542316
O O15 0.500000 0.342460 0.687355
O O16 0.250000 0.354215 0.750000
#
# Coordination Sequence:
#
# PCOD9476457 Si02
#       6
#    16  16  16  16  16  16
#     4  10  20  33  48  72 101 129 162 205 250 288
#     4   9  18  32  47  69  98 126 157 197 244 292
#     4   9  17  29  46  67  99 136 164 192 232 280
#     4  10  18  31  49  71 100 136 175 202 226 281
#     4  10  17  28  46  69  97 131 165 198 230 279
#     4   9  19  34  53  73  93 118 156 205 254 300
#
# _framework density 19.292348
#
# number of rings (size 3 to 8) (size 9 to 14) (size 15 to 20)
#    0.000    2.500    1.667    2.500    0.000    3.667 
#    0.000    1.667    0.000    1.000    0.000    4.667 
#    0.000    0.000    0.000    0.000    0.000    0.000 
#
# Total GULP energy -267698.395073 kJ/mol
# GULP energy per Si atom -5577.049897 kJ/mol
# Density = 1.924844 g / cm^3
# Si number density = 19.292348 Si / 1000 Ang^3
#
#
#
# Elastic Constant Matrix: (Units=GPa)
#
#
# Indices 1 2 3 4 5 6 
#
# 1 43.5320 -2.3770 -11.2958 0.0000 0.0000 0.0000
# 2 -2.3770 102.2143 31.6814 0.0000 0.0000 0.0000
# 3 -11.2958 31.6814 88.7334 0.0000 0.0000 0.0000
# 4 0.0000 0.0000 0.0000 17.7085 0.0000 0.0000
# 5 0.0000 0.0000 0.0000 0.0000 8.1237 0.0000
# 6 0.0000 0.0000 0.0000 0.0000 0.0000 -15.1896
#
#
#
# Elastic Compliance Matrix: (Units=1/GPa)
#
#
# Indices 1 2 3 4 5 6 
#
# 1 0.023773 -0.000433 0.003181 0.000000 0.000000 0.000000
# 2 -0.000433 0.011009 -0.003986 0.000000 0.000000 0.000000
# 3 0.003181 -0.003986 0.013098 0.000000 0.000000 0.000000
# 4 0.000000 0.000000 0.000000 0.056470 0.000000 0.000000
# 5 0.000000 0.000000 0.000000 0.000000 0.123097 0.000000
# 6 0.000000 0.000000 0.000000 0.000000 0.000000 -0.065834
#
#
# Mechanical properties :
#
#
# Convention : Reuss Voigt Hill
#
# Bulk Modulus (GPa) = 22.02442 30.05523 26.03982
# Shear Modulus (GPa) = 27.89832 16.55992 22.22912
#
# Velocity S-wave (km/s) = 3.80686 2.93297 3.39813
# Velocity P-wave (km/s) = 5.54652 5.20408 5.37802
#
# Compressibility (1/GPa) = 0.04540415
#
# Stress axis : x y z
#
# Youngs Moduli (GPa) = 42.06387 90.83765 76.34934
#
# Poissons Ratio (x) = 0.03934 -0.24287
# Poissons Ratio (y) = 0.01822 0.30430
# Poissons Ratio (z) = -0.13380 0.36205
#
# Static dielectric constant tensor:
#      x y z
#    x 1.791290 0.000000 0.000000 
#    y 0.000000 1.718200 0.000000 
#    z 0.000000 0.000000 1.660220 
# 
# From -- ./inp_files/43014.got.cif
#   From: 2010.05.17/outbox.cif.g08.bks.cpg/sg64_22_cif.got.tgz:43014.got - 2010.06.03 16:29:19.
