data_PCOD9476290
_publ_section_title
;
Structure prediction by ZEFSAII (Michael W. Deem and Ramdas Pophale) SiO2 
 PCOD9476290
Probable space group: C M C A
;
_chemical_formula_sum "Si O2"
_cell_formula_units_Z 104
_cell_length_a 20.735190
_cell_length_b 7.384627
_cell_length_c 29.408461
_cell_angle_alpha 90.000000
_cell_angle_beta 90.000000
_cell_angle_gamma 90.000000
_cell_volume 4503.071894
_symmetry_space_group_name_H-M "C M C A"
_symmetry_group_IT_number 64
_symmetry_cell_setting 'orthorhombic'
loop_
_space_group_symop_operation_xyz
x,y,z
-x,1/2-y,1/2+z
x,-y,-z
-x,1/2+y,1/2-z
-x,-y,-z
x,1/2+y,1/2-z
-x,y,z
x,1/2-y,1/2+z
1/2+x,1/2+y,z
1/2-x,-y,1/2+z
1/2+x,1/2-y,-z
1/2-x,y,1/2-z
1/2-x,1/2-y,-z
1/2+x,y,1/2-z
1/2-x,1/2+y,z
1/2+x,-y,1/2+z
loop_
_atom_site_type_symbol
_atom_site_label
_atom_site_fract_x
_atom_site_fract_y
_atom_site_fract_z
Si Si1 0.926122 0.234087 0.035181
Si Si2 0.705680 0.527140 0.373148
Si Si3 0.889227 0.097393 0.297049
Si Si4 0.500000 0.249115 0.644631
Si Si5 0.074364 0.180633 0.200307
Si Si6 0.347024 0.621271 0.115547
Si Si7 0.399572 0.851172 0.935190
O O1 0.879202 0.115536 0.066299
O O2 0.921968 0.440947 0.054498
O O3 0.000000 0.173265 0.039607
O O4 0.906615 0.248809 0.982736
O O5 0.676293 0.606106 0.326272
O O6 0.677568 0.326163 0.377095
O O7 0.782001 0.512900 0.376371
O O8 0.672500 0.634256 0.414968
O O9 0.943029 0.232215 0.316173
O O10 0.882865 0.125172 0.243339
O O11 0.919312 0.897320 0.304996
O O12 0.555816 0.272911 0.604395
O O13 0.098664 0.094108 0.153522
O O14 0.000000 0.132803 0.207981
#
# Coordination Sequence:
#
# PCOD9476290 Si02
#       7
#    16  16  16   8  16  16  16
#     4  10  16  28  52  89 105 138 172 231 265 315
#     4   9  21  37  51  80 105 153 176 220 263 317
#     4  10  21  33  57  77 113 134 181 220 275 313
#     4  10  14  29  48  78 104 137 158 225 258 318
#     4  11  20  36  55  84 106 141 172 233 269 322
#     4  10  22  35  55  75 117 141 183 216 267 315
#     4   9  16  27  53  79 114 128 178 218 271 308
#
# _framework density 23.095344999999998
#
# number of rings (size 3 to 8) (size 9 to 14) (size 15 to 20)
#    0.000    2.154    3.077    1.846    0.000    2.462 
#    0.000    3.077    0.000    0.000    2.000    1.077 
#    0.000    0.000    0.000    0.000    0.000    0.000 
#
# Total GULP energy -289947.025007 kJ/mol
# GULP energy per Si atom -5575.904327 kJ/mol
# Density = 2.304278 g / cm^3
# Si number density = 23.095345 Si / 1000 Ang^3
#
#
#
# Elastic Constant Matrix: (Units=GPa)
#
#
# Indices 1 2 3 4 5 6 
#
# 1 44.9557 31.6275 14.3938 0.0000 0.0000 0.0000
# 2 31.6275 56.5979 6.7627 0.0000 0.0000 0.0000
# 3 14.3938 6.7627 91.3628 0.0000 0.0000 0.0000
# 4 0.0000 0.0000 0.0000 24.3378 0.0000 0.0000
# 5 0.0000 0.0000 0.0000 0.0000 22.8214 0.0000
# 6 0.0000 0.0000 0.0000 0.0000 0.0000 11.8286
#
#
#
# Elastic Compliance Matrix: (Units=1/GPa)
#
#
# Indices 1 2 3 4 5 6 
#
# 1 0.038406 -0.020924 -0.004502 0.000000 0.000000 0.000000
# 2 -0.020924 0.029226 0.001133 0.000000 0.000000 0.000000
# 3 -0.004502 0.001133 0.011571 0.000000 0.000000 0.000000
# 4 0.000000 0.000000 0.000000 0.041088 0.000000 0.000000
# 5 0.000000 0.000000 0.000000 0.000000 0.043818 0.000000
# 6 0.000000 0.000000 0.000000 0.000000 0.000000 0.084541
#
#
# Mechanical properties :
#
#
# Convention : Reuss Voigt Hill
#
# Bulk Modulus (GPa) = 32.66132 33.16492 32.91312
# Shear Modulus (GPa) = 16.26328 21.13971 18.70149
#
# Velocity S-wave (km/s) = 2.65652 3.02871 2.84870
# Velocity P-wave (km/s) = 4.85614 5.15965 5.01019
#
# Compressibility (1/GPa) = 0.03061726
#
# Stress axis : x y z
#
# Youngs Moduli (GPa) = 26.03758 34.21659 86.42486
#
# Poissons Ratio (x) = 0.71594 0.38908
# Poissons Ratio (y) = 0.54481 -0.09793
# Poissons Ratio (z) = 0.11722 -0.03877
#
# Static dielectric constant tensor:
#      x y z
#    x 1.821800 0.000000 0.000000 
#    y 0.000000 1.995630 0.000000 
#    z 0.000000 0.000000 1.809190 
# 
# From -- ./inp_files/50427.got.cif
#   From: 2010.05.17/outbox.cif.g08.bks.cpg/sg64_26_cif.got.tgz:50427.got - 2010.06.03 16:29:19.
