data_PCOD9476708
_publ_section_title
;
Structure prediction by ZEFSAII (Michael W. Deem and Ramdas Pophale) SiO2 
 PCOD9476708
Probable space group: C M C A
;
_chemical_formula_sum "Si O2"
_cell_formula_units_Z 116
_cell_length_a 14.493081
_cell_length_b 24.812059
_cell_length_c 17.914025
_cell_angle_alpha 90.000000
_cell_angle_beta 90.000000
_cell_angle_gamma 90.000000
_cell_volume 6441.940372
_symmetry_space_group_name_H-M "C M C A"
_symmetry_group_IT_number 64
_symmetry_cell_setting 'orthorhombic'
loop_
_space_group_symop_operation_xyz
x,y,z
-x,1/2-y,1/2+z
x,-y,-z
-x,1/2+y,1/2-z
-x,-y,-z
x,1/2+y,1/2-z
-x,y,z
x,1/2-y,1/2+z
1/2+x,1/2+y,z
1/2-x,-y,1/2+z
1/2+x,1/2-y,-z
1/2-x,y,1/2-z
1/2-x,1/2-y,-z
1/2+x,y,1/2-z
1/2-x,1/2+y,z
1/2+x,-y,1/2+z
loop_
_atom_site_type_symbol
_atom_site_label
_atom_site_fract_x
_atom_site_fract_y
_atom_site_fract_z
Si Si1 0.599321 0.894400 0.173892
Si Si2 0.739327 0.044792 0.604464
Si Si3 0.603941 0.286905 0.425563
Si Si4 0.103888 0.130560 0.847607
Si Si5 0.891042 0.324408 0.904539
Si Si6 0.000000 0.000000 0.500000
Si Si7 0.817751 0.937935 0.557992
Si Si8 0.777190 0.766023 0.163621
O O1 0.500000 0.921884 0.157988
O O2 0.684494 0.933016 0.161581
O O3 0.605257 0.844569 0.117168
O O4 0.600208 0.872730 0.257648
O O5 0.644118 0.073675 0.624398
O O6 0.771149 0.066784 0.523536
O O7 0.752706 0.980685 0.600890
O O8 0.500000 0.264660 0.415430
O O9 0.619105 0.298091 0.512761
O O10 0.686538 0.255142 0.386291
O O11 0.173735 0.179119 0.865256
O O12 0.000000 0.140926 0.874839
O O13 0.836210 0.380540 0.905492
O O14 0.848698 0.282330 0.846639
O O15 0.000000 0.333256 0.892778
O O16 0.082577 0.965050 0.542212
O O17 0.750000 0.773285 0.250000
#
# Coordination Sequence:
#
# PCOD9476708 Si02
#       8
#    16  16  16  16  16   4  16  16
#     4  10  18  29  54  83 108 134 176 240 300 329
#     4  10  19  32  55  82 109 141 183 240 297 344
#     4  10  20  34  57  82 113 143 191 245 287 333
#     4  11  21  36  54  81 112 149 191 238 287 349
#     4  11  22  36  56  87 116 150 191 238 284 350
#     4   8  16  28  56  80 106 140 180 244 278 318
#     4  10  20  32  55  82 114 143 187 237 298 337
#     4  12  22  37  56  81 119 160 192 230 288 353
#
# _framework density 18.006996999999998
#
# number of rings (size 3 to 8) (size 9 to 14) (size 15 to 20)
#    0.000    1.655    4.828    1.241    3.862    0.552 
#    0.000    2.759    0.000    0.828    0.000    0.000 
#    0.000    0.000    0.000    0.000    0.000    0.000 
#
# Total GULP energy -323003.418274 kJ/mol
# GULP energy per Si atom -5569.024453 kJ/mol
# Density = 1.796601 g / cm^3
# Si number density = 18.006997 Si / 1000 Ang^3
#
#
#
# Elastic Constant Matrix: (Units=GPa)
#
#
# Indices 1 2 3 4 5 6 
#
# 1 85.3309 24.3336 19.3049 0.0000 0.0000 0.0000
# 2 24.3336 64.8968 7.6385 0.0000 0.0000 0.0000
# 3 19.3049 7.6385 19.7366 0.0000 0.0000 0.0000
# 4 0.0000 0.0000 0.0000 22.9188 0.0000 0.0000
# 5 0.0000 0.0000 0.0000 0.0000 -39.8572 0.0000
# 6 0.0000 0.0000 0.0000 0.0000 0.0000 18.4632
#
#
#
# Elastic Compliance Matrix: (Units=1/GPa)
#
#
# Indices 1 2 3 4 5 6 
#
# 1 0.016166 -0.004401 -0.014109 0.000000 0.000000 0.000000
# 2 -0.004401 0.017343 -0.002407 0.000000 0.000000 0.000000
# 3 -0.014109 -0.002407 0.065400 0.000000 0.000000 0.000000
# 4 0.000000 0.000000 0.000000 0.043632 0.000000 0.000000
# 5 0.000000 0.000000 0.000000 0.000000 -0.025090 0.000000
# 6 0.000000 0.000000 0.000000 0.000000 0.000000 0.054162
#
#
# Mechanical properties :
#
#
# Convention : Reuss Voigt Hill
#
# Bulk Modulus (GPa) = 17.52131 30.27981 23.90056
# Shear Modulus (GPa) = 21.50791 8.21743 14.86267
#
# Velocity S-wave (km/s) = 3.45979 2.13854 2.87607
# Velocity P-wave (km/s) = 5.07066 4.79061 4.93262
#
# Compressibility (1/GPa) = 0.05707337
#
# Stress axis : x y z
#
# Youngs Moduli (GPa) = 61.85774 57.66148 15.29058
#
# Poissons Ratio (x) = 0.25376 0.21574
# Poissons Ratio (y) = 0.27223 0.03681
# Poissons Ratio (z) = 0.87277 0.13881
#
# Static dielectric constant tensor:
#      x y z
#    x 1.645290 0.000000 0.000000 
#    y 0.000000 1.600390 0.000000 
#    z 0.000000 0.000000 1.735950 
# 
# From -- ./inp_files/32584.got.cif
#   From: 2010.05.17/outbox.cif.g08.bks.cpg/sg64_17_cif.got.tgz:32584.got - 2010.06.03 16:29:19.
