data_PCOD9476450
_publ_section_title
;
Structure prediction by ZEFSAII (Michael W. Deem and Ramdas Pophale) SiO2 
 PCOD9476450
Probable space group: C M C A
;
_chemical_formula_sum "Si O2"
_cell_formula_units_Z 80
_cell_length_a 8.739497
_cell_length_b 14.895189
_cell_length_c 31.069427
_cell_angle_alpha 90.000000
_cell_angle_beta 90.000000
_cell_angle_gamma 90.000000
_cell_volume 4044.508008
_symmetry_space_group_name_H-M "C M C A"
_symmetry_group_IT_number 64
_symmetry_cell_setting 'orthorhombic'
loop_
_space_group_symop_operation_xyz
x,y,z
-x,1/2-y,1/2+z
x,-y,-z
-x,1/2+y,1/2-z
-x,-y,-z
x,1/2+y,1/2-z
-x,y,z
x,1/2-y,1/2+z
1/2+x,1/2+y,z
1/2-x,-y,1/2+z
1/2+x,1/2-y,-z
1/2-x,y,1/2-z
1/2-x,1/2-y,-z
1/2+x,y,1/2-z
1/2-x,1/2+y,z
1/2+x,-y,1/2+z
loop_
_atom_site_type_symbol
_atom_site_label
_atom_site_fract_x
_atom_site_fract_y
_atom_site_fract_z
Si Si1 0.183978 0.391489 0.617167
Si Si2 0.317616 0.397801 0.706441
Si Si3 0.816236 0.899411 0.206302
Si Si4 0.682424 0.755017 0.047489
Si Si5 0.816327 0.398045 0.388962
O O1 0.263916 0.358584 0.660977
O O2 0.227664 0.330310 0.576872
O O3 0.222972 0.496110 0.609279
O O4 0.000000 0.387036 0.623363
O O5 0.500000 0.400459 0.709115
O O6 0.250000 0.355644 0.750000
O O7 0.248066 0.498741 0.705439
O O8 0.750000 0.857542 0.250000
O O9 0.773959 0.863093 0.159077
O O10 0.000000 0.901852 0.209147
O O11 0.500000 0.755753 0.044582
O O12 0.738554 0.841516 0.073834
O O13 0.750000 0.750000 0.000000
O O14 0.000000 0.390855 0.392951
#
# Coordination Sequence:
#
# PCOD9476450 Si02
#       5
#    16  16  16  16  16
#     4   9  20  39  59  81 112 151 186 222 274 333
#     4  10  17  27  49  80 113 148 185 226 268 319
#     4   9  16  28  49  78 113 151 186 223 268 323
#     4  11  24  41  61  83 110 142 182 232 284 335
#     4   9  19  37  59  82 112 148 187 227 273 326
#
# _framework density 19.779910000000001
#
# number of rings (size 3 to 8) (size 9 to 14) (size 15 to 20)
#    0.000    2.400    0.000    5.400    0.000    6.400 
#    0.000    5.000    0.000    2.400    0.000    0.000 
#    0.000    0.000    0.000    0.000    0.000    0.000 
#
# Total GULP energy -223250.301318 kJ/mol
# GULP energy per Si atom -5581.257533 kJ/mol
# Density = 1.973489 g / cm^3
# Si number density = 19.779910 Si / 1000 Ang^3
#
#
#
# Elastic Constant Matrix: (Units=GPa)
#
#
# Indices 1 2 3 4 5 6 
#
# 1 55.1613 23.6247 70.0276 0.0000 0.0000 0.0000
# 2 23.6247 84.5877 69.8287 0.0000 0.0000 0.0000
# 3 70.0276 69.8287 236.6513 0.0000 0.0000 0.0000
# 4 0.0000 0.0000 0.0000 37.2584 0.0000 0.0000
# 5 0.0000 0.0000 0.0000 0.0000 41.9060 0.0000
# 6 0.0000 0.0000 0.0000 0.0000 0.0000 16.2045
#
#
#
# Elastic Compliance Matrix: (Units=1/GPa)
#
#
# Indices 1 2 3 4 5 6 
#
# 1 0.029153 -0.001349 -0.008228 0.000000 0.000000 0.000000
# 2 -0.001349 0.015692 -0.004231 0.000000 0.000000 0.000000
# 3 -0.008228 -0.004231 0.007909 0.000000 0.000000 0.000000
# 4 0.000000 0.000000 0.000000 0.026840 0.000000 0.000000
# 5 0.000000 0.000000 0.000000 0.000000 0.023863 0.000000
# 6 0.000000 0.000000 0.000000 0.000000 0.000000 0.061711
#
#
# Mechanical properties :
#
#
# Convention : Reuss Voigt Hill
#
# Bulk Modulus (GPa) = 39.78392 78.15136 58.96764
# Shear Modulus (GPa) = 24.85551 33.26839 29.06195
#
# Velocity S-wave (km/s) = 3.54871 4.10558 3.83726
# Velocity P-wave (km/s) = 6.07849 7.87849 7.03629
#
# Compressibility (1/GPa) = 0.02513579
#
# Stress axis : x y z
#
# Youngs Moduli (GPa) = 34.30229 63.72869 126.44040
#
# Poissons Ratio (x) = 0.08600 1.04040
# Poissons Ratio (y) = 0.04629 0.53494
# Poissons Ratio (z) = 0.28225 0.26962
#
# Static dielectric constant tensor:
#      x y z
#    x 1.655380 0.000000 0.000000 
#    y 0.000000 1.741140 0.000000 
#    z 0.000000 0.000000 1.712980 
# 
# From -- ./inp_files/47779.got.cif
#   From: 2010.05.17/outbox.cif.g08.bks.cpg/sg64_24_cif.got.tgz:47779.got - 2010.06.03 16:29:19.
