data_PCOD9476850
_publ_section_title
;
Structure prediction by ZEFSAII (Michael W. Deem and Ramdas Pophale) SiO2 
 PCOD9476850
Probable space group: C M C A
;
_chemical_formula_sum "Si O2"
_cell_formula_units_Z 112
_cell_length_a 22.355248
_cell_length_b 19.340517
_cell_length_c 12.602915
_cell_angle_alpha 90.000000
_cell_angle_beta 90.000000
_cell_angle_gamma 90.000000
_cell_volume 5449.022216
_symmetry_space_group_name_H-M "C M C A"
_symmetry_group_IT_number 64
_symmetry_cell_setting 'orthorhombic'
loop_
_space_group_symop_operation_xyz
x,y,z
-x,1/2-y,1/2+z
x,-y,-z
-x,1/2+y,1/2-z
-x,-y,-z
x,1/2+y,1/2-z
-x,y,z
x,1/2-y,1/2+z
1/2+x,1/2+y,z
1/2-x,-y,1/2+z
1/2+x,1/2-y,-z
1/2-x,y,1/2-z
1/2-x,1/2-y,-z
1/2+x,y,1/2-z
1/2-x,1/2+y,z
1/2+x,-y,1/2+z
loop_
_atom_site_type_symbol
_atom_site_label
_atom_site_fract_x
_atom_site_fract_y
_atom_site_fract_z
Si Si1 0.566455 0.432468 0.926441
Si Si2 0.355014 0.826322 0.457589
Si Si3 0.430505 0.117713 0.067780
Si Si4 0.931496 0.489075 0.206123
Si Si5 0.930531 0.254498 0.785367
Si Si6 0.649274 0.798595 0.095175
Si Si7 0.312304 0.097097 0.742354
O O1 0.500000 0.403304 0.946955
O O2 0.568154 0.461108 0.808297
O O3 0.573952 0.500000 0.000000
O O4 0.614992 0.376483 0.957106
O O5 0.405467 0.793662 0.379890
O O6 0.325935 0.761388 0.518320
O O7 0.318311 0.873007 0.375933
O O8 0.500000 0.241704 0.731324
O O9 0.421341 0.039516 0.106401
O O10 0.422412 0.168412 0.169075
O O11 0.387012 0.147045 0.977914
O O12 0.875178 0.439290 0.226997
O O13 0.000000 0.459178 0.199430
O O14 0.895783 0.238153 0.677918
O O15 0.000000 0.374947 0.965428
O O16 0.692736 0.840470 0.172632
O O17 0.250000 0.055392 0.750000
#
# Coordination Sequence:
#
# PCOD9476850 Si02
#       7
#    16  16  16  16  16  16  16
#     4  10  18  31  57  91 121 154 193 240 293 341
#     4  10  20  36  58  84 112 150 196 243 289 347
#     4   9  18  33  55  87 122 158 196 239 290 344
#     4  10  21  38  60  86 122 159 197 240 285 343
#     4   9  17  30  53  87 125 155 189 241 292 340
#     4  10  21  36  57  83 114 153 195 238 296 355
#     4  11  25  43  61  84 115 151 193 245 295 354
#
# _framework density 20.554145999999999
#
# number of rings (size 3 to 8) (size 9 to 14) (size 15 to 20)
#    0.000    2.143    1.429    1.714    0.000    6.857 
#    0.000    4.286    0.000    8.571    0.000    0.000 
#    0.000    0.000    0.000    0.000    0.000    0.000 
#
# Total GULP energy -312457.181826 kJ/mol
# GULP energy per Si atom -5579.592533 kJ/mol
# Density = 2.050736 g / cm^3
# Si number density = 20.554146 Si / 1000 Ang^3
#
#
#
# Elastic Constant Matrix: (Units=GPa)
#
#
# Indices 1 2 3 4 5 6 
#
# 1 91.2931 30.7405 17.1433 0.0000 0.0000 0.0000
# 2 30.7405 39.9323 34.0023 0.0000 0.0000 0.0000
# 3 17.1433 34.0023 90.4573 0.0000 0.0000 0.0000
# 4 0.0000 0.0000 0.0000 31.7771 0.0000 0.0000
# 5 0.0000 0.0000 0.0000 0.0000 3.2586 0.0000
# 6 0.0000 0.0000 0.0000 0.0000 0.0000 0.1000
#
#
#
# Elastic Compliance Matrix: (Units=1/GPa)
#
#
# Indices 1 2 3 4 5 6 
#
# 1 0.015082 -0.013497 0.002215 0.000000 0.000000 0.000000
# 2 -0.013497 0.048909 -0.015827 0.000000 0.000000 0.000000
# 3 0.002215 -0.015827 0.016584 0.000000 0.000000 0.000000
# 4 0.000000 0.000000 0.000000 0.031469 0.000000 0.000000
# 5 0.000000 0.000000 0.000000 0.000000 0.306879 0.000000
# 6 0.000000 0.000000 0.000000 0.000000 0.000000 9.998385
#
#
# Mechanical properties :
#
#
# Convention : Reuss Voigt Hill
#
# Bulk Modulus (GPa) = 37.93819 42.82833 40.38326
# Shear Modulus (GPa) = 0.47709 16.34691 8.41200
#
# Velocity S-wave (km/s) = 0.48230 2.82318 2.02521
# Velocity P-wave (km/s) = 4.33681 5.61331 5.01583
#
# Compressibility (1/GPa) = 0.02635866
#
# Stress axis : x y z
#
# Youngs Moduli (GPa) = 66.30204 20.44622 60.29798
#
# Poissons Ratio (x) = 0.27596 -0.13356
# Poissons Ratio (y) = 0.89486 0.95431
# Poissons Ratio (z) = -0.14686 0.32359
#
# Static dielectric constant tensor:
#      x y z
#    x 1.731490 0.000000 0.000000 
#    y 0.000000 1.761100 0.000000 
#    z 0.000000 0.000000 1.734740 
# 
# From -- ./inp_files/18523.got.cif
#   From: 2010.05.17/outbox.cif.g08.bks.cpg/sg64_10_cif.got.tgz:18523.got - 2010.06.03 16:29:19.
