data_PCOD9476781
_publ_section_title
;
Structure prediction by ZEFSAII (Michael W. Deem and Ramdas Pophale) SiO2 
 PCOD9476781
Probable space group: C M C A
;
_chemical_formula_sum "Si O2"
_cell_formula_units_Z 72
_cell_length_a 18.958544
_cell_length_b 10.578750
_cell_length_c 21.552597
_cell_angle_alpha 90.000000
_cell_angle_beta 90.000000
_cell_angle_gamma 90.000000
_cell_volume 4322.539226
_symmetry_space_group_name_H-M "C M C A"
_symmetry_group_IT_number 64
_symmetry_cell_setting 'orthorhombic'
loop_
_space_group_symop_operation_xyz
x,y,z
-x,1/2-y,1/2+z
x,-y,-z
-x,1/2+y,1/2-z
-x,-y,-z
x,1/2+y,1/2-z
-x,y,z
x,1/2-y,1/2+z
1/2+x,1/2+y,z
1/2-x,-y,1/2+z
1/2+x,1/2-y,-z
1/2-x,y,1/2-z
1/2-x,1/2-y,-z
1/2+x,y,1/2-z
1/2-x,1/2+y,z
1/2+x,-y,1/2+z
loop_
_atom_site_type_symbol
_atom_site_label
_atom_site_fract_x
_atom_site_fract_y
_atom_site_fract_z
Si Si1 0.500000 0.537191 0.191353
Si Si2 0.250000 0.628392 0.250000
Si Si3 0.256123 0.875112 0.958757
Si Si4 0.152202 0.233827 0.356453
Si Si5 0.000000 0.258025 0.800195
Si Si6 0.345398 0.025379 0.359466
O O1 0.500000 0.645338 0.243193
O O2 0.500000 0.392002 0.217230
O O3 0.572365 0.550091 0.152990
O O4 0.199323 0.707801 0.204672
O O5 0.301016 0.550945 0.203648
O O6 0.320467 0.856624 0.910678
O O7 0.250000 0.750000 0.000000
O O8 0.188191 0.108001 0.085897
O O9 0.263841 0.000000 0.000000
O O10 0.070861 0.218198 0.338956
O O11 0.163668 0.378548 0.376233
#
# Coordination Sequence:
#
# PCOD9476781 Si02
#       6
#     8   8  16  16   8  16
#     4  10  20  38  56  85 122 149 186 231 286 351
#     4  10  18  30  56  86 118 144 190 230 286 338
#     4  11  22  41  60  82 113 149 200 241 278 333
#     4  10  20  35  58  84 115 151 187 236 287 337
#     4  10  20  38  56  84 122 149 184 230 290 347
#     4  10  20  35  58  85 115 150 192 232 288 334
#
# _framework density 16.656874999999999
#
# number of rings (size 3 to 8) (size 9 to 14) (size 15 to 20)
#    0.000    1.778    4.444    0.667    0.000    0.000 
#    4.000    2.222    0.000    0.000    0.000    0.000 
#    0.000    0.000    0.000    0.000    0.000    0.000 
#
# Total GULP energy -200734.474977 kJ/mol
# GULP energy per Si atom -5575.957638 kJ/mol
# Density = 1.661896 g / cm^3
# Si number density = 16.656875 Si / 1000 Ang^3
#
#
#
# Elastic Constant Matrix: (Units=GPa)
#
#
# Indices 1 2 3 4 5 6 
#
# 1 136.3209 54.4444 53.1018 0.0000 0.0000 0.0000
# 2 54.4444 106.3446 64.5610 0.0000 0.0000 0.0000
# 3 53.1018 64.5610 105.6811 0.0000 0.0000 0.0000
# 4 0.0000 0.0000 0.0000 39.4071 0.0000 0.0000
# 5 0.0000 0.0000 0.0000 0.0000 15.0134 0.0000
# 6 0.0000 0.0000 0.0000 0.0000 0.0000 26.1970
#
#
#
# Elastic Compliance Matrix: (Units=1/GPa)
#
#
# Indices 1 2 3 4 5 6 
#
# 1 0.009765 -0.003212 -0.002945 0.000000 0.000000 0.000000
# 2 -0.003212 0.016003 -0.008163 0.000000 0.000000 0.000000
# 3 -0.002945 -0.008163 0.015929 0.000000 0.000000 0.000000
# 4 0.000000 0.000000 0.000000 0.025376 0.000000 0.000000
# 5 0.000000 0.000000 0.000000 0.000000 0.066607 0.000000
# 6 0.000000 0.000000 0.000000 0.000000 0.000000 0.038172
#
#
# Mechanical properties :
#
#
# Convention : Reuss Voigt Hill
#
# Bulk Modulus (GPa) = 76.57555 76.95123 76.76339
# Shear Modulus (GPa) = 24.40882 27.87279 26.14081
#
# Velocity S-wave (km/s) = 3.83219 4.09510 3.96583
# Velocity P-wave (km/s) = 8.10266 8.28601 8.19485
#
# Compressibility (1/GPa) = 0.01305900
#
# Stress axis : x y z
#
# Youngs Moduli (GPa) = 102.40165 62.48779 62.78004
#
# Poissons Ratio (x) = 0.20070 0.18487
# Poissons Ratio (y) = 0.32889 0.51244
# Poissons Ratio (z) = 0.30155 0.51006
#
# Static dielectric constant tensor:
#      x y z
#    x 1.548440 0.000000 0.000000 
#    y 0.000000 1.559520 0.000000 
#    z 0.000000 0.000000 1.549320 
# 
# From -- ./inp_files/32885.got.cif
#   From: 2010.05.17/outbox.cif.g08.bks.cpg/sg64_17_cif.got.tgz:32885.got - 2010.06.03 16:29:19.
