data_PCOD9476816
_publ_section_title
;
Structure prediction by ZEFSAII (Michael W. Deem and Ramdas Pophale) SiO2 
 PCOD9476816
Probable space group: C M C A
;
_chemical_formula_sum "Si O2"
_cell_formula_units_Z 64
_cell_length_a 16.445940
_cell_length_b 22.548858
_cell_length_c 8.096753
_cell_angle_alpha 90.000000
_cell_angle_beta 90.000000
_cell_angle_gamma 90.000000
_cell_volume 3002.576934
_symmetry_space_group_name_H-M "C M C A"
_symmetry_group_IT_number 64
_symmetry_cell_setting 'orthorhombic'
loop_
_space_group_symop_operation_xyz
x,y,z
-x,1/2-y,1/2+z
x,-y,-z
-x,1/2+y,1/2-z
-x,-y,-z
x,1/2+y,1/2-z
-x,y,z
x,1/2-y,1/2+z
1/2+x,1/2+y,z
1/2-x,-y,1/2+z
1/2+x,1/2-y,-z
1/2-x,y,1/2-z
1/2-x,1/2-y,-z
1/2+x,y,1/2-z
1/2-x,1/2+y,z
1/2+x,-y,1/2+z
loop_
_atom_site_type_symbol
_atom_site_label
_atom_site_fract_x
_atom_site_fract_y
_atom_site_fract_z
Si Si1 0.094486 0.562619 0.668820
Si Si2 0.845055 0.311979 0.697278
Si Si3 0.155835 0.685686 0.696551
Si Si4 0.344422 0.439746 0.796716
O O1 0.116150 0.624337 0.756951
O O2 0.144070 0.561649 0.495962
O O3 0.114859 0.501107 0.759928
O O4 0.000000 0.562831 0.624462
O O5 0.750000 0.310638 0.750000
O O6 0.880936 0.248718 0.748938
O O7 0.848689 0.313658 0.500550
O O8 0.877741 0.375450 0.761610
O O9 0.250000 0.683950 0.750000
O O10 0.250000 0.442531 0.750000
#
# Coordination Sequence:
#
# PCOD9476816 Si02
#       4
#    16  16  16  16
#     4  10  20  34  51  78 110 139 171 218 271 321
#     4   9  17  29  50  79 104 130 173 225 264 300
#     4  10  18  31  52  78 104 137 176 218 260 312
#     4   9  17  31  52  77  99 133 179 221 260 311
#
# _framework density 21.315024999999999
#
# number of rings (size 3 to 8) (size 9 to 14) (size 15 to 20)
#    0.000    2.500    0.000    5.250    0.000    0.000 
#    0.000    6.250    0.000    0.000    0.000  166.250 
#    0.000    0.000    0.000    0.000    0.000    0.000 
#
# Total GULP energy -178240.493722 kJ/mol
# GULP energy per Si atom -5570.015429 kJ/mol
# Density = 2.126651 g / cm^3
# Si number density = 21.315025 Si / 1000 Ang^3
#
#
#
# Elastic Constant Matrix: (Units=GPa)
#
#
# Indices 1 2 3 4 5 6 
#
# 1 62.4704 36.5026 14.8299 0.0000 0.0000 0.0000
# 2 36.5026 294.0492 31.8990 0.0000 0.0000 0.0000
# 3 14.8299 31.8990 28.6539 0.0000 0.0000 0.0000
# 4 0.0000 0.0000 0.0000 24.1794 0.0000 0.0000
# 5 0.0000 0.0000 0.0000 0.0000 -170.3306 0.0000
# 6 0.0000 0.0000 0.0000 0.0000 0.0000 -16.9473
#
#
#
# Elastic Compliance Matrix: (Units=1/GPa)
#
#
# Indices 1 2 3 4 5 6 
#
# 1 0.018780 -0.001452 -0.008103 0.000000 0.000000 0.000000
# 2 -0.001452 0.003980 -0.003679 0.000000 0.000000 0.000000
# 3 -0.008103 -0.003679 0.043189 0.000000 0.000000 0.000000
# 4 0.000000 0.000000 0.000000 0.041358 0.000000 0.000000
# 5 0.000000 0.000000 0.000000 0.000000 -0.005871 0.000000
# 6 0.000000 0.000000 0.000000 0.000000 0.000000 -0.059007
#
#
# Mechanical properties :
#
#
# Convention : Reuss Voigt Hill
#
# Bulk Modulus (GPa) = 25.32921 61.29293 43.31107
# Shear Modulus (GPa) = 60.93270 -12.49023 24.22124
#
# Velocity S-wave (km/s) = 5.35246 -2.42333 3.37463
# Velocity P-wave (km/s) = 7.07866 4.58128 5.96220
#
# Compressibility (1/GPa) = 0.03948010
#
# Stress axis : x y z
#
# Youngs Moduli (GPa) = 53.24902 251.24268 23.15404
#
# Poissons Ratio (x) = 0.36487 0.18761
# Poissons Ratio (y) = 0.07733 0.08519
# Poissons Ratio (z) = 0.43147 0.92441
#
# Static dielectric constant tensor:
#      x y z
#    x 1.599000 0.000000 0.000000 
#    y 0.000000 1.927760 0.000000 
#    z 0.000000 0.000000 1.775900 
# 
# From -- ./inp_files/5560.got.cif
#   From: 2010.05.17/outbox.cif.g08.bks.cpg/sg64_3_cif.got.tgz:5560.got - 2010.06.03 16:29:19.
