data_PCOD9476792
_publ_section_title
;
Structure prediction by ZEFSAII (Michael W. Deem and Ramdas Pophale) SiO2 
 PCOD9476792
Probable space group: C M C A
;
_chemical_formula_sum "Si O2"
_cell_formula_units_Z 96
_cell_length_a 8.219344
_cell_length_b 24.594798
_cell_length_c 26.398265
_cell_angle_alpha 90.000000
_cell_angle_beta 90.000000
_cell_angle_gamma 90.000000
_cell_volume 5336.491246
_symmetry_space_group_name_H-M "C M C A"
_symmetry_group_IT_number 64
_symmetry_cell_setting 'orthorhombic'
loop_
_space_group_symop_operation_xyz
x,y,z
-x,1/2-y,1/2+z
x,-y,-z
-x,1/2+y,1/2-z
-x,-y,-z
x,1/2+y,1/2-z
-x,y,z
x,1/2-y,1/2+z
1/2+x,1/2+y,z
1/2-x,-y,1/2+z
1/2+x,1/2-y,-z
1/2-x,y,1/2-z
1/2-x,1/2-y,-z
1/2+x,y,1/2-z
1/2-x,1/2+y,z
1/2+x,-y,1/2+z
loop_
_atom_site_type_symbol
_atom_site_label
_atom_site_fract_x
_atom_site_fract_y
_atom_site_fract_z
Si Si1 0.801576 0.741822 0.613217
Si Si2 0.310835 0.868270 0.425264
Si Si3 0.311701 0.408370 0.892132
Si Si4 0.810604 0.324273 0.971180
Si Si5 0.308335 0.511982 0.557704
Si Si6 0.804849 0.333244 0.807669
O O1 0.748374 0.679245 0.612139
O O2 0.751116 0.772889 0.561585
O O3 0.751387 0.780105 0.659797
O O4 0.000000 0.741557 0.612276
O O5 0.500000 0.879091 0.414719
O O6 0.292592 0.840647 0.480424
O O7 0.220629 0.925465 0.428108
O O8 0.500000 0.396012 0.902349
O O9 0.203574 0.374115 0.931676
O O10 0.278187 0.471082 0.903691
O O11 0.266262 0.385391 0.837132
O O12 0.000000 0.317193 0.985363
O O13 0.249258 0.500000 0.500000
O O14 0.500000 0.500287 0.558494
O O15 0.750000 0.330242 0.750000
O O16 0.000000 0.335835 0.810271
#
# Coordination Sequence:
#
# PCOD9476792 Si02
#       6
#    16  16  16  16  16  16
#     4   8  18  33  50  74 106 138 171 216 265 312
#     4  11  20  31  49  74 104 142 184 219 256 312
#     4  11  21  34  54  80 106 138 182 226 266 313
#     4  10  18  31  48  71 106 144 175 213 262 311
#     4  11  22  35  51  72 107 149 184 222 270 318
#     4  10  20  38  61  84 109 136 171 218 273 322
#
# _framework density 17.989349000000001
#
# number of rings (size 3 to 8) (size 9 to 14) (size 15 to 20)
#    0.000    1.833    1.667    5.000    0.000    0.667 
#    0.000    9.167    0.000    1.000    0.000    4.667 
#    0.000    0.000    0.000    0.000    0.000    0.000 
#
# Total GULP energy -267902.327398 kJ/mol
# GULP energy per Si atom -5581.298487 kJ/mol
# Density = 1.794840 g / cm^3
# Si number density = 17.989349 Si / 1000 Ang^3
#
#
#
# Elastic Constant Matrix: (Units=GPa)
#
#
# Indices 1 2 3 4 5 6 
#
# 1 45.3659 8.5798 3.6313 0.0000 0.0000 0.0000
# 2 8.5798 130.5972 44.4741 0.0000 0.0000 0.0000
# 3 3.6313 44.4741 81.6598 0.0000 0.0000 0.0000
# 4 0.0000 0.0000 0.0000 10.0073 0.0000 0.0000
# 5 0.0000 0.0000 0.0000 0.0000 20.3197 0.0000
# 6 0.0000 0.0000 0.0000 0.0000 0.0000 9.1312
#
#
#
# Elastic Compliance Matrix: (Units=1/GPa)
#
#
# Indices 1 2 3 4 5 6 
#
# 1 0.022324 -0.001386 -0.000238 0.000000 0.000000 0.000000
# 2 -0.001386 0.009487 -0.005105 0.000000 0.000000 0.000000
# 3 -0.000238 -0.005105 0.015037 0.000000 0.000000 0.000000
# 4 0.000000 0.000000 0.000000 0.099927 0.000000 0.000000
# 5 0.000000 0.000000 0.000000 0.000000 0.049213 0.000000
# 6 0.000000 0.000000 0.000000 0.000000 0.000000 0.109515
#
#
# Mechanical properties :
#
#
# Convention : Reuss Voigt Hill
#
# Bulk Modulus (GPa) = 29.94896 41.22149 35.58522
# Shear Modulus (GPa) = 15.14736 21.28748 18.21742
#
# Velocity S-wave (km/s) = 2.90490 3.44370 3.18571
# Velocity P-wave (km/s) = 5.28541 6.22706 5.77546
#
# Compressibility (1/GPa) = 0.03339014
#
# Stress axis : x y z
#
# Youngs Moduli (GPa) = 44.79469 105.41126 66.50322
#
# Poissons Ratio (x) = 0.14605 0.01584
# Poissons Ratio (y) = 0.06206 0.33950
# Poissons Ratio (z) = 0.01067 0.53813
#
# Static dielectric constant tensor:
#      x y z
#    x 1.616220 0.000000 0.000000 
#    y 0.000000 1.652090 0.000000 
#    z 0.000000 0.000000 1.597390 
# 
# From -- ./inp_files/43021.got.cif
#   From: 2010.05.17/outbox.cif.g08.bks.cpg/sg64_22_cif.got.tgz:43021.got - 2010.06.03 16:29:19.
