data_PCOD9476983
_publ_section_title
;
Structure prediction by ZEFSAII (Michael W. Deem and Ramdas Pophale) SiO2 
 PCOD9476983
Probable space group: C M C A
;
_chemical_formula_sum "Si O2"
_cell_formula_units_Z 80
_cell_length_a 18.586826
_cell_length_b 14.179755
_cell_length_c 13.489169
_cell_angle_alpha 90.000000
_cell_angle_beta 90.000000
_cell_angle_gamma 90.000000
_cell_volume 3555.160043
_symmetry_space_group_name_H-M "C M C A"
_symmetry_group_IT_number 64
_symmetry_cell_setting 'orthorhombic'
loop_
_space_group_symop_operation_xyz
x,y,z
-x,1/2-y,1/2+z
x,-y,-z
-x,1/2+y,1/2-z
-x,-y,-z
x,1/2+y,1/2-z
-x,y,z
x,1/2-y,1/2+z
1/2+x,1/2+y,z
1/2-x,-y,1/2+z
1/2+x,1/2-y,-z
1/2-x,y,1/2-z
1/2-x,1/2-y,-z
1/2+x,y,1/2-z
1/2-x,1/2+y,z
1/2+x,-y,1/2+z
loop_
_atom_site_type_symbol
_atom_site_label
_atom_site_fract_x
_atom_site_fract_y
_atom_site_fract_z
Si Si1 0.331947 0.277998 0.222196
Si Si2 0.416019 0.443308 0.300946
Si Si3 0.414346 0.869786 0.893735
Si Si4 0.832091 0.781453 0.003389
Si Si5 0.918534 0.935140 0.901165
O O1 0.250000 0.256753 0.250000
O O2 0.366908 0.351949 0.295970
O O3 0.378952 0.185350 0.199819
O O4 0.336713 0.326954 0.113358
O O5 0.500000 0.417136 0.311955
O O6 0.396416 0.520664 0.383405
O O7 0.409944 0.501464 0.196897
O O8 0.500000 0.860529 0.890784
O O9 0.381818 0.811224 0.984600
O O10 0.750000 0.750000 0.000000
O O11 0.860515 0.852973 0.921471
O O12 0.000000 0.894223 0.897015
O O13 0.916081 0.000000 0.000000
#
# Coordination Sequence:
#
# PCOD9476983 Si02
#       5
#    16  16  16  16  16
#     4  10  22  35  53  83 118 147 181 234 287 340
#     4  10  20  35  59  83 107 149 195 235 285 340
#     4   9  20  38  58  81 112 152 194 233 280 341
#     4  10  22  34  54  81 118 146 179 231 299 338
#     4  10  18  33  58  85 108 140 194 246 281 328
#
# _framework density 22.502502
#
# number of rings (size 3 to 8) (size 9 to 14) (size 15 to 20)
#    1.200    1.000    2.000    1.200    2.800    2.400 
#    0.000    0.000    0.000    0.000    0.000    2.800 
#    0.000    0.000    0.000    0.000    0.000    0.000 
#
# Total GULP energy -223225.847486 kJ/mol
# GULP energy per Si atom -5580.646187 kJ/mol
# Density = 2.245129 g / cm^3
# Si number density = 22.502502 Si / 1000 Ang^3
#
#
#
# Elastic Constant Matrix: (Units=GPa)
#
#
# Indices 1 2 3 4 5 6 
#
# 1 104.3205 64.9618 0.4636 0.0000 0.0000 0.0000
# 2 64.9618 87.7986 0.3286 0.0000 0.0000 0.0000
# 3 0.4636 0.3286 90.5089 0.0000 0.0000 0.0000
# 4 0.0000 0.0000 0.0000 15.9196 0.0000 0.0000
# 5 0.0000 0.0000 0.0000 0.0000 20.2842 0.0000
# 6 0.0000 0.0000 0.0000 0.0000 0.0000 -53.0901
#
#
#
# Elastic Compliance Matrix: (Units=1/GPa)
#
#
# Indices 1 2 3 4 5 6 
#
# 1 0.017776 -0.013152 -0.000043 0.000000 0.000000 0.000000
# 2 -0.013152 0.021121 -0.000009 0.000000 0.000000 0.000000
# 3 -0.000043 -0.000009 0.011049 0.000000 0.000000 0.000000
# 4 0.000000 0.000000 0.000000 0.062816 0.000000 0.000000
# 5 0.000000 0.000000 0.000000 0.000000 0.049299 0.000000
# 6 0.000000 0.000000 0.000000 0.000000 0.000000 -0.018836
#
#
# Mechanical properties :
#
#
# Convention : Reuss Voigt Hill
#
# Bulk Modulus (GPa) = 42.48766 46.01510 44.25138
# Shear Modulus (GPa) = 28.17206 11.08101 19.62654
#
# Velocity S-wave (km/s) = 3.54213 2.22149 2.95650
# Velocity P-wave (km/s) = 5.97087 5.20320 5.60020
#
# Compressibility (1/GPa) = 0.02353625
#
# Stress axis : x y z
#
# Youngs Moduli (GPa) = 56.25501 47.34598 90.50685
#
# Poissons Ratio (x) = 0.62271 0.00392
# Poissons Ratio (y) = 0.73989 0.00084
# Poissons Ratio (z) = 0.00244 0.00044
#
# Static dielectric constant tensor:
#      x y z
#    x 1.772610 0.000000 0.000000 
#    y 0.000000 1.830390 0.000000 
#    z 0.000000 0.000000 1.995510 
# 
# From -- ./inp_files/32999.got.cif
#   From: 2010.05.17/outbox.cif.g08.bks.cpg/sg64_17_cif.got.tgz:32999.got - 2010.06.03 16:29:19.
