data_PCOD9476694
_publ_section_title
;
Structure prediction by ZEFSAII (Michael W. Deem and Ramdas Pophale) SiO2 
 PCOD9476694
Probable space group: C M C A
;
_chemical_formula_sum "Si O2"
_cell_formula_units_Z 80
_cell_length_a 9.155707
_cell_length_b 25.682069
_cell_length_c 21.151121
_cell_angle_alpha 90.000000
_cell_angle_beta 90.000000
_cell_angle_gamma 90.000000
_cell_volume 4973.421691
_symmetry_space_group_name_H-M "C M C A"
_symmetry_group_IT_number 64
_symmetry_cell_setting 'orthorhombic'
loop_
_space_group_symop_operation_xyz
x,y,z
-x,1/2-y,1/2+z
x,-y,-z
-x,1/2+y,1/2-z
-x,-y,-z
x,1/2+y,1/2-z
-x,y,z
x,1/2-y,1/2+z
1/2+x,1/2+y,z
1/2-x,-y,1/2+z
1/2+x,1/2-y,-z
1/2-x,y,1/2-z
1/2-x,1/2-y,-z
1/2+x,y,1/2-z
1/2-x,1/2+y,z
1/2+x,-y,1/2+z
loop_
_atom_site_type_symbol
_atom_site_label
_atom_site_fract_x
_atom_site_fract_y
_atom_site_fract_z
Si Si1 0.824866 0.622175 0.817972
Si Si2 0.326240 0.180869 0.055555
Si Si3 0.325259 0.459584 0.091967
Si Si4 0.325892 0.784205 0.087787
Si Si5 0.174087 0.425915 0.552703
O O1 0.750000 0.624359 0.750000
O O2 0.762998 0.573387 0.857366
O O3 0.788941 0.673835 0.858807
O O4 0.000000 0.618811 0.812527
O O5 0.500000 0.180220 0.062369
O O6 0.257695 0.229692 0.092300
O O7 0.258160 0.125515 0.073295
O O8 0.291203 0.191451 0.981225
O O9 0.500000 0.454688 0.102514
O O10 0.288688 0.520929 0.089528
O O11 0.295349 0.437553 0.021444
O O12 0.500000 0.774812 0.089159
O O13 0.000000 0.417870 0.558171
#
# Coordination Sequence:
#
# PCOD9476694 Si02
#       5
#    16  16  16  16  16
#     4  11  22  36  53  74 102 136 173 211 249 295
#     4  10  18  29  49  76 103 131 165 207 254 302
#     4   9  18  32  50  74 102 135 171 205 249 300
#     4   9  19  33  47  70 102 134 168 205 252 302
#     4   9  17  30  50  75 105 135 163 203 255 305
#
# _framework density 16.085505000000001
#
# number of rings (size 3 to 8) (size 9 to 14) (size 15 to 20)
#    0.000    2.400    2.000    2.400    0.000    3.200 
#    0.000    2.000    0.000    1.200    0.000    5.600 
#    0.000    0.000    0.000    0.000    0.000    0.000 
#
# Total GULP energy -223084.271141 kJ/mol
# GULP energy per Si atom -5577.106779 kJ/mol
# Density = 1.604889 g / cm^3
# Si number density = 16.085505 Si / 1000 Ang^3
#
#
#
# Elastic Constant Matrix: (Units=GPa)
#
#
# Indices 1 2 3 4 5 6 
#
# 1 49.7913 76.1675 47.9791 0.0000 0.0000 0.0000
# 2 76.1675 172.6230 63.6751 0.0000 0.0000 0.0000
# 3 47.9791 63.6751 86.3921 0.0000 0.0000 0.0000
# 4 0.0000 0.0000 0.0000 16.3535 0.0000 0.0000
# 5 0.0000 0.0000 0.0000 0.0000 19.0304 0.0000
# 6 0.0000 0.0000 0.0000 0.0000 0.0000 32.5779
#
#
#
# Elastic Compliance Matrix: (Units=1/GPa)
#
#
# Indices 1 2 3 4 5 6 
#
# 1 0.101026 -0.032797 -0.031933 0.000000 0.000000 0.000000
# 2 -0.032797 0.018603 0.004503 0.000000 0.000000 0.000000
# 3 -0.031933 0.004503 0.025991 0.000000 0.000000 0.000000
# 4 0.000000 0.000000 0.000000 0.061149 0.000000 0.000000
# 5 0.000000 0.000000 0.000000 0.000000 0.052547 0.000000
# 6 0.000000 0.000000 0.000000 0.000000 0.000000 0.030696
#
#
# Mechanical properties :
#
#
# Convention : Reuss Voigt Hill
#
# Bulk Modulus (GPa) = 39.73757 76.04999 57.89378
# Shear Modulus (GPa) = 11.93732 21.65801 16.79766
#
# Velocity S-wave (km/s) = 2.72714 3.67335 3.23503
# Velocity P-wave (km/s) = 5.88846 8.08533 7.07271
#
# Compressibility (1/GPa) = 0.02516510
#
# Stress axis : x y z
#
# Youngs Moduli (GPa) = 9.89849 53.75395 38.47516
#
# Poissons Ratio (x) = 1.76297 1.22863
# Poissons Ratio (y) = 0.32464 -0.17325
# Poissons Ratio (z) = 0.31609 -0.24204
#
# Static dielectric constant tensor:
#      x y z
#    x 1.526610 0.000000 0.000000 
#    y 0.000000 1.535210 0.000000 
#    z 0.000000 0.000000 1.512880 
# 
# From -- ./inp_files/29767.got.cif
#   From: 2010.05.17/outbox.cif.g08.bks.cpg/sg64_15_cif.got.tgz:29767.got - 2010.06.03 16:29:19.
