data_PCOD9476623
_publ_section_title
;
Structure prediction by ZEFSAII (Michael W. Deem and Ramdas Pophale) SiO2 
 PCOD9476623
Probable space group: C M C A
;
_chemical_formula_sum "Si O2"
_cell_formula_units_Z 96
_cell_length_a 7.679917
_cell_length_b 25.102783
_cell_length_c 26.503631
_cell_angle_alpha 90.000000
_cell_angle_beta 90.000000
_cell_angle_gamma 90.000000
_cell_volume 5109.563193
_symmetry_space_group_name_H-M "C M C A"
_symmetry_group_IT_number 64
_symmetry_cell_setting 'orthorhombic'
loop_
_space_group_symop_operation_xyz
x,y,z
-x,1/2-y,1/2+z
x,-y,-z
-x,1/2+y,1/2-z
-x,-y,-z
x,1/2+y,1/2-z
-x,y,z
x,1/2-y,1/2+z
1/2+x,1/2+y,z
1/2-x,-y,1/2+z
1/2+x,1/2-y,-z
1/2-x,y,1/2-z
1/2-x,1/2-y,-z
1/2+x,y,1/2-z
1/2-x,1/2+y,z
1/2+x,-y,1/2+z
loop_
_atom_site_type_symbol
_atom_site_label
_atom_site_fract_x
_atom_site_fract_y
_atom_site_fract_z
Si Si1 0.206241 0.165699 0.808590
Si Si2 0.204733 0.825323 0.470937
Si Si3 0.713319 0.519905 0.055787
Si Si4 0.788842 0.415154 0.390990
Si Si5 0.198994 0.862692 0.921525
Si Si6 0.291501 0.744387 0.113077
O O1 0.250000 0.165344 0.750000
O O2 0.273960 0.114647 0.840393
O O3 0.261646 0.218984 0.838264
O O4 0.000000 0.163810 0.812763
O O5 0.227451 0.877754 0.436700
O O6 0.299616 0.835777 0.523128
O O7 0.274187 0.777713 0.435566
O O8 0.000000 0.817148 0.481062
O O9 0.500000 0.522290 0.053778
O O10 0.764976 0.475121 0.096335
O O11 0.777665 0.578751 0.070572
O O12 0.768014 0.500000 0.000000
O O13 0.000000 0.414870 0.391381
O O14 0.277799 0.815938 0.886859
O O15 0.000000 0.871545 0.904613
O O16 0.500000 0.740880 0.106832
#
# Coordination Sequence:
#
# PCOD9476623 Si02
#       6
#    16  16  16  16  16  16
#     4  10  20  34  55  75  93 117 151 198 248 293
#     4  10  18  27  41  65  98 130 159 197 235 274
#     4   9  15  26  47  70  94 127 167 199 221 267
#     4   9  17  31  49  70  93 124 163 197 233 280
#     4  10  18  29  46  66  94 133 167 194 226 274
#     4   9  19  32  46  68  96 125 160 197 238 282
#
# _framework density 18.7883
#
# number of rings (size 3 to 8) (size 9 to 14) (size 15 to 20)
#    0.000    2.500    1.667    1.500    0.000    2.000 
#    0.000    1.667    0.000    1.000    0.000    2.333 
#    0.000    0.000    0.000    0.000    0.000    0.000 
#
# Total GULP energy -267593.597411 kJ/mol
# GULP energy per Si atom -5574.866613 kJ/mol
# Density = 1.874554 g / cm^3
# Si number density = 18.788300 Si / 1000 Ang^3
#
#
#
# Elastic Constant Matrix: (Units=GPa)
#
#
# Indices 1 2 3 4 5 6 
#
# 1 37.1534 10.2769 -0.6427 0.0000 0.0000 0.0000
# 2 10.2769 181.3085 69.3679 0.0000 0.0000 0.0000
# 3 -0.6427 69.3679 94.0276 0.0000 0.0000 0.0000
# 4 0.0000 0.0000 0.0000 11.0634 0.0000 0.0000
# 5 0.0000 0.0000 0.0000 0.0000 11.8009 0.0000
# 6 0.0000 0.0000 0.0000 0.0000 0.0000 7.7139
#
#
#
# Elastic Compliance Matrix: (Units=1/GPa)
#
#
# Indices 1 2 3 4 5 6 
#
# 1 0.027578 -0.002278 0.001869 0.000000 0.000000 0.000000
# 2 -0.002278 0.007873 -0.005824 0.000000 0.000000 0.000000
# 3 0.001869 -0.005824 0.014944 0.000000 0.000000 0.000000
# 4 0.000000 0.000000 0.000000 0.090388 0.000000 0.000000
# 5 0.000000 0.000000 0.000000 0.000000 0.084740 0.000000
# 6 0.000000 0.000000 0.000000 0.000000 0.000000 0.129636
#
#
# Mechanical properties :
#
#
# Convention : Reuss Voigt Hill
#
# Bulk Modulus (GPa) = 26.36454 52.27707 39.32080
# Shear Modulus (GPa) = 13.14865 21.68145 17.41505
#
# Velocity S-wave (km/s) = 2.64830 3.40072 3.04782
# Velocity P-wave (km/s) = 4.83883 6.58062 5.77576
#
# Compressibility (1/GPa) = 0.03792974
#
# Stress axis : x y z
#
# Youngs Moduli (GPa) = 36.26077 127.02162 66.91549
#
# Poissons Ratio (x) = 0.28940 -0.12509
# Poissons Ratio (y) = 0.08262 0.38969
# Poissons Ratio (z) = -0.06778 0.73972
#
# Static dielectric constant tensor:
#      x y z
#    x 1.720100 0.000000 0.000000 
#    y 0.000000 1.714650 0.000000 
#    z 0.000000 0.000000 1.545140 
# 
# From -- ./inp_files/43005.got.cif
#   From: 2010.05.17/outbox.cif.g08.bks.cpg/sg64_22_cif.got.tgz:43005.got - 2010.06.03 16:29:19.
