data_PCOD9476955
_publ_section_title
;
Structure prediction by ZEFSAII (Michael W. Deem and Ramdas Pophale) SiO2 
 PCOD9476955
Probable space group: C M C A
;
_chemical_formula_sum "Si O2"
_cell_formula_units_Z 116
_cell_length_a 20.245964
_cell_length_b 22.638056
_cell_length_c 14.601676
_cell_angle_alpha 90.000000
_cell_angle_beta 90.000000
_cell_angle_gamma 90.000000
_cell_volume 6692.375455
_symmetry_space_group_name_H-M "C M C A"
_symmetry_group_IT_number 64
_symmetry_cell_setting 'orthorhombic'
loop_
_space_group_symop_operation_xyz
x,y,z
-x,1/2-y,1/2+z
x,-y,-z
-x,1/2+y,1/2-z
-x,-y,-z
x,1/2+y,1/2-z
-x,y,z
x,1/2-y,1/2+z
1/2+x,1/2+y,z
1/2-x,-y,1/2+z
1/2+x,1/2-y,-z
1/2-x,y,1/2-z
1/2-x,1/2-y,-z
1/2+x,y,1/2-z
1/2-x,1/2+y,z
1/2+x,-y,1/2+z
loop_
_atom_site_type_symbol
_atom_site_label
_atom_site_fract_x
_atom_site_fract_y
_atom_site_fract_z
Si Si1 0.574715 0.865332 0.787397
Si Si2 0.698563 0.212936 0.164609
Si Si3 0.000000 0.500000 0.500000
Si Si4 0.748232 0.887637 0.969964
Si Si5 0.829171 0.960668 0.235534
Si Si6 0.206928 0.153635 0.840356
Si Si7 0.883658 0.435406 0.608617
Si Si8 0.372274 0.970461 0.909158
O O1 0.500000 0.843916 0.794295
O O2 0.629768 0.816327 0.805837
O O3 0.588819 0.892511 0.687531
O O4 0.586657 0.918632 0.860012
O O5 0.750000 0.210011 0.250000
O O6 0.727939 0.171153 0.085321
O O7 0.686171 0.280294 0.133458
O O8 0.941877 0.457592 0.544595
O O9 0.822307 0.906019 0.943321
O O10 0.696630 0.938565 0.939833
O O11 0.750340 0.874423 0.077744
O O12 0.750000 0.964626 0.250000
O O13 0.844530 0.896294 0.193273
O O14 0.853047 0.008836 0.162985
O O15 0.860066 0.979618 0.332325
O O16 0.250000 0.162632 0.750000
O O17 0.401358 0.000000 0.000000
#
# Coordination Sequence:
#
# PCOD9476955 Si02
#       8
#    16  16   4  16  16  16  16  16
#     4  10  21  38  58  79 114 151 191 238 281 345
#     4  10  20  37  60  85 107 148 200 243 280 331
#     4  12  24  32  48  84 118 152 178 224 292 364
#     4  11  20  34  59  85 113 149 186 244 282 342
#     4  10  18  33  54  83 118 143 181 235 295 343
#     4  10  21  33  52  86 119 145 180 240 292 331
#     4  11  21  34  55  82 114 149 191 227 294 350
#     4  10  20  31  56  89 113 147 186 226 293 345
#
# _framework density 17.333158000000001
#
# number of rings (size 3 to 8) (size 9 to 14) (size 15 to 20)
#    0.000    1.655    3.448    2.897    0.966    0.276 
#    0.000    0.000    6.069    0.000    0.000    0.000 
#    0.000    0.000    0.000    0.000    0.000    0.000 
#
# Total GULP energy -322883.082111 kJ/mol
# GULP energy per Si atom -5566.949692 kJ/mol
# Density = 1.729371 g / cm^3
# Si number density = 17.333158 Si / 1000 Ang^3
#
#
#
# Elastic Constant Matrix: (Units=GPa)
#
#
# Indices 1 2 3 4 5 6 
#
# 1 104.2447 26.3969 19.9844 0.0000 0.0000 0.0000
# 2 26.3969 100.0101 29.4643 0.0000 0.0000 0.0000
# 3 19.9844 29.4643 82.8118 0.0000 0.0000 0.0000
# 4 0.0000 0.0000 0.0000 -45.9368 0.0000 0.0000
# 5 0.0000 0.0000 0.0000 0.0000 12.5632 0.0000
# 6 0.0000 0.0000 0.0000 0.0000 0.0000 8.5574
#
#
#
# Elastic Compliance Matrix: (Units=1/GPa)
#
#
# Indices 1 2 3 4 5 6 
#
# 1 0.010497 -0.002261 -0.001729 0.000000 0.000000 0.000000
# 2 -0.002261 0.011657 -0.003602 0.000000 0.000000 0.000000
# 3 -0.001729 -0.003602 0.013774 0.000000 0.000000 0.000000
# 4 0.000000 0.000000 0.000000 -0.021769 0.000000 0.000000
# 5 0.000000 0.000000 0.000000 0.000000 0.079597 0.000000
# 6 0.000000 0.000000 0.000000 0.000000 0.000000 0.116858
#
#
# Mechanical properties :
#
#
# Convention : Reuss Voigt Hill
#
# Bulk Modulus (GPa) = 48.20517 48.75086 48.47802
# Shear Modulus (GPa) = 21.48571 9.11817 15.30194
#
# Velocity S-wave (km/s) = 3.52458 2.29607 2.97444
# Velocity P-wave (km/s) = 6.66595 5.93432 6.31074
#
# Compressibility (1/GPa) = 0.02074466
#
# Stress axis : x y z
#
# Youngs Moduli (GPa) = 95.26715 85.78545 72.59937
#
# Poissons Ratio (x) = 0.19399 0.12549
# Poissons Ratio (y) = 0.21543 0.26149
# Poissons Ratio (z) = 0.16467 0.30898
#
# Static dielectric constant tensor:
#      x y z
#    x 1.561490 0.000000 0.000000 
#    y 0.000000 1.616880 0.000000 
#    z 0.000000 0.000000 1.601320 
# 
# From -- ./inp_files/25744.got.cif
#   From: 2010.05.17/outbox.cif.g08.bks.cpg/sg64_13_cif.got.tgz:25744.got - 2010.06.03 16:29:19.
