data_PCOD9476491
_publ_section_title
;
Structure prediction by ZEFSAII (Michael W. Deem and Ramdas Pophale) SiO2 
 PCOD9476491
Probable space group: C M C A
;
_chemical_formula_sum "Si O2"
_cell_formula_units_Z 88
_cell_length_a 15.755822
_cell_length_b 20.775884
_cell_length_c 12.532956
_cell_angle_alpha 90.000000
_cell_angle_beta 90.000000
_cell_angle_gamma 90.000000
_cell_volume 4102.551982
_symmetry_space_group_name_H-M "C M C A"
_symmetry_group_IT_number 64
_symmetry_cell_setting 'orthorhombic'
loop_
_space_group_symop_operation_xyz
x,y,z
-x,1/2-y,1/2+z
x,-y,-z
-x,1/2+y,1/2-z
-x,-y,-z
x,1/2+y,1/2-z
-x,y,z
x,1/2-y,1/2+z
1/2+x,1/2+y,z
1/2-x,-y,1/2+z
1/2+x,1/2-y,-z
1/2-x,y,1/2-z
1/2-x,1/2-y,-z
1/2+x,y,1/2-z
1/2-x,1/2+y,z
1/2+x,-y,1/2+z
loop_
_atom_site_type_symbol
_atom_site_label
_atom_site_fract_x
_atom_site_fract_y
_atom_site_fract_z
Si Si1 0.403158 0.440666 0.250757
Si Si2 0.599997 0.040771 0.100141
Si Si3 0.128302 0.351930 0.044536
Si Si4 0.405438 0.294650 0.893610
Si Si5 0.820599 0.657873 0.596784
Si Si6 0.750000 0.767836 0.750000
O O1 0.500000 0.445026 0.210462
O O2 0.368238 0.509751 0.290231
O O3 0.403315 0.396647 0.358146
O O4 0.345875 0.402213 0.168816
O O5 0.500000 0.025144 0.104559
O O6 0.604682 0.114775 0.066843
O O7 0.637308 0.000000 0.000000
O O8 0.098142 0.280537 0.070886
O O9 0.229352 0.352100 0.045427
O O10 0.500000 0.308544 0.850219
O O11 0.323703 0.303913 0.816381
O O12 0.388080 0.331477 0.003917
O O13 0.803962 0.720467 0.671444
#
# Coordination Sequence:
#
# PCOD9476491 Si02
#       6
#    16  16  16  16  16   8
#     4  10  17  29  51  82 118 153 194 247 302 356
#     4   8  15  26  47  79 110 143 194 249 292 346
#     4  10  17  31  50  79 117 159 200 246 297 354
#     4  11  22  34  55  86 124 169 208 251 309 368
#     4  11  20  33  52  85 123 158 201 252 302 368
#     4  10  20  36  52  78 122 166 210 248 290 356
#
# _framework density 21.450064000000001
#
# number of rings (size 3 to 8) (size 9 to 14) (size 15 to 20)
#    0.000    2.000    3.636    5.455    0.000    0.727 
#    0.000    0.000    0.000    0.000   56.727    0.000 
#    0.000   37.818    0.000    0.000    0.000    0.000 
#
# Total GULP energy -245326.831042 kJ/mol
# GULP energy per Si atom -5575.609796 kJ/mol
# Density = 2.140124 g / cm^3
# Si number density = 21.450064 Si / 1000 Ang^3
#
#
#
# Elastic Constant Matrix: (Units=GPa)
#
#
# Indices 1 2 3 4 5 6 
#
# 1 98.9561 3.0507 31.3734 0.0000 0.0000 0.0000
# 2 3.0507 20.6074 21.2203 0.0000 0.0000 0.0000
# 3 31.3734 21.2203 73.8861 0.0000 0.0000 0.0000
# 4 0.0000 0.0000 0.0000 36.7816 0.0000 0.0000
# 5 0.0000 0.0000 0.0000 0.0000 54.2870 0.0000
# 6 0.0000 0.0000 0.0000 0.0000 0.0000 14.0341
#
#
#
# Elastic Compliance Matrix: (Units=1/GPa)
#
#
# Indices 1 2 3 4 5 6 
#
# 1 0.012021 0.004937 -0.006522 0.000000 0.000000 0.000000
# 2 0.004937 0.070932 -0.022468 0.000000 0.000000 0.000000
# 3 -0.006522 -0.022468 0.022757 0.000000 0.000000 0.000000
# 4 0.000000 0.000000 0.000000 0.027187 0.000000 0.000000
# 5 0.000000 0.000000 0.000000 0.000000 0.018421 0.000000
# 6 0.000000 0.000000 0.000000 0.000000 0.000000 0.071255
#
#
# Mechanical properties :
#
#
# Convention : Reuss Voigt Hill
#
# Bulk Modulus (GPa) = 17.36037 33.85982 25.61009
# Shear Modulus (GPa) = 17.24845 30.20756 23.72801
#
# Velocity S-wave (km/s) = 2.83878 3.75677 3.32956
# Velocity P-wave (km/s) = 4.34233 5.88536 5.17172
#
# Compressibility (1/GPa) = 0.05760247
#
# Stress axis : x y z
#
# Youngs Moduli (GPa) = 83.18678 14.09803 43.94305
#
# Poissons Ratio (x) = -0.06960 0.28661
# Poissons Ratio (y) = -0.41067 0.98732
# Poissons Ratio (z) = 0.54256 0.31676
#
# Static dielectric constant tensor:
#      x y z
#    x 1.783470 0.000000 0.000000 
#    y 0.000000 1.825170 0.000000 
#    z 0.000000 0.000000 1.821110 
# 
# From -- ./inp_files/23747.got.cif
#   From: 2010.05.17/outbox.cif.g08.bks.cpg/sg64_12_cif.got.tgz:23747.got - 2010.06.03 16:29:19.
