data_PCOD9476986
_publ_section_title
;
Structure prediction by ZEFSAII (Michael W. Deem and Ramdas Pophale) SiO2 
 PCOD9476986
Probable space group: C M C A
;
_chemical_formula_sum "Si O2"
_cell_formula_units_Z 80
_cell_length_a 25.256592
_cell_length_b 15.297505
_cell_length_c 9.508908
_cell_angle_alpha 90.000000
_cell_angle_beta 90.000000
_cell_angle_gamma 90.000000
_cell_volume 3673.888723
_symmetry_space_group_name_H-M "C M C A"
_symmetry_group_IT_number 64
_symmetry_cell_setting 'orthorhombic'
loop_
_space_group_symop_operation_xyz
x,y,z
-x,1/2-y,1/2+z
x,-y,-z
-x,1/2+y,1/2-z
-x,-y,-z
x,1/2+y,1/2-z
-x,y,z
x,1/2-y,1/2+z
1/2+x,1/2+y,z
1/2-x,-y,1/2+z
1/2+x,1/2-y,-z
1/2-x,y,1/2-z
1/2-x,1/2-y,-z
1/2+x,y,1/2-z
1/2-x,1/2+y,z
1/2+x,-y,1/2+z
loop_
_atom_site_type_symbol
_atom_site_label
_atom_site_fract_x
_atom_site_fract_y
_atom_site_fract_z
Si Si1 0.310086 0.361500 0.763003
Si Si2 0.058408 0.131389 0.896842
Si Si3 0.356211 0.239039 0.004641
Si Si4 0.439774 0.101856 0.002493
Si Si5 0.417417 0.446199 0.799072
O O1 0.250000 0.392254 0.750000
O O2 0.321641 0.315456 0.613950
O O3 0.353908 0.436264 0.790195
O O4 0.323167 0.292138 0.888286
O O5 0.107505 0.196431 0.901226
O O6 0.000000 0.170526 0.875909
O O7 0.065678 0.047267 0.796824
O O8 0.061654 0.092103 0.055074
O O9 0.398960 0.171002 0.939765
O O10 0.500000 0.111428 0.954064
O O11 0.438769 0.112631 0.172336
O O12 0.422660 0.000000 0.000000
#
# Coordination Sequence:
#
# PCOD9476986 Si02
#       5
#    16  16  16  16  16
#     4  10  21  40  60  79 113 149 194 244 284 324
#     4  10  18  33  58  86 116 147 183 227 282 349
#     4  10  22  36  59  86 114 148 196 235 286 346
#     4  10  20  34  53  81 121 155 183 229 293 351
#     4   9  19  34  55  80 112 148 189 231 280 341
#
# _framework density 21.775292
#
# number of rings (size 3 to 8) (size 9 to 14) (size 15 to 20)
#    0.000    2.200    0.000    3.600    2.800    0.000 
#    0.000    3.000   35.200    0.000    0.000    0.000 
#    0.000    0.000    0.000    0.000    0.000    0.000 
#
# Total GULP energy -223322.245454 kJ/mol
# GULP energy per Si atom -5583.056136 kJ/mol
# Density = 2.172573 g / cm^3
# Si number density = 21.775292 Si / 1000 Ang^3
#
#
#
# Elastic Constant Matrix: (Units=GPa)
#
#
# Indices 1 2 3 4 5 6 
#
# 1 152.9415 11.6403 10.9456 0.0000 0.0000 0.0000
# 2 11.6403 34.7281 -0.0795 0.0000 0.0000 0.0000
# 3 10.9456 -0.0795 68.5275 0.0000 0.0000 0.0000
# 4 0.0000 0.0000 0.0000 29.3478 0.0000 0.0000
# 5 0.0000 0.0000 0.0000 0.0000 22.7097 0.0000
# 6 0.0000 0.0000 0.0000 0.0000 0.0000 21.7609
#
#
#
# Elastic Compliance Matrix: (Units=1/GPa)
#
#
# Indices 1 2 3 4 5 6 
#
# 1 0.006790 -0.002278 -0.001087 0.000000 0.000000 0.000000
# 2 -0.002278 0.029560 0.000398 0.000000 0.000000 0.000000
# 3 -0.001087 0.000398 0.014767 0.000000 0.000000 0.000000
# 4 0.000000 0.000000 0.000000 0.034074 0.000000 0.000000
# 5 0.000000 0.000000 0.000000 0.000000 0.044034 0.000000
# 6 0.000000 0.000000 0.000000 0.000000 0.000000 0.045954
#
#
# Mechanical properties :
#
#
# Convention : Reuss Voigt Hill
#
# Bulk Modulus (GPa) = 22.13283 33.46776 27.80029
# Shear Modulus (GPa) = 25.48765 30.34304 27.91534
#
# Velocity S-wave (km/s) = 3.42495 3.73696 3.58435
# Velocity P-wave (km/s) = 5.08199 5.83291 5.47035
#
# Compressibility (1/GPa) = 0.04518176
#
# Stress axis : x y z
#
# Youngs Moduli (GPa) = 147.28303 33.82984 67.71952
#
# Poissons Ratio (x) = 0.07707 0.07362
# Poissons Ratio (y) = 0.33555 -0.02697
# Poissons Ratio (z) = 0.16011 -0.01347
#
# Static dielectric constant tensor:
#      x y z
#    x 1.771180 0.000000 0.000000 
#    y 0.000000 1.802780 0.000000 
#    z 0.000000 0.000000 1.879880 
# 
# From -- ./inp_files/18064.got.cif
#   From: 2010.05.17/outbox.cif.g08.bks.cpg/sg64_10_cif.got.tgz:18064.got - 2010.06.03 16:29:19.
