data_PCOD9476749
_publ_section_title
;
Structure prediction by ZEFSAII (Michael W. Deem and Ramdas Pophale) SiO2 
 PCOD9476749
Probable space group: C M C A
;
_chemical_formula_sum "Si O2"
_cell_formula_units_Z 88
_cell_length_a 9.341169
_cell_length_b 23.819230
_cell_length_c 23.392377
_cell_angle_alpha 90.000000
_cell_angle_beta 90.000000
_cell_angle_gamma 90.000000
_cell_volume 5204.791084
_symmetry_space_group_name_H-M "C M C A"
_symmetry_group_IT_number 64
_symmetry_cell_setting 'orthorhombic'
loop_
_space_group_symop_operation_xyz
x,y,z
-x,1/2-y,1/2+z
x,-y,-z
-x,1/2+y,1/2-z
-x,-y,-z
x,1/2+y,1/2-z
-x,y,z
x,1/2-y,1/2+z
1/2+x,1/2+y,z
1/2-x,-y,1/2+z
1/2+x,1/2-y,-z
1/2-x,y,1/2-z
1/2-x,1/2-y,-z
1/2+x,y,1/2-z
1/2-x,1/2+y,z
1/2+x,-y,1/2+z
loop_
_atom_site_type_symbol
_atom_site_label
_atom_site_fract_x
_atom_site_fract_y
_atom_site_fract_z
Si Si1 0.671560 0.439504 0.188260
Si Si2 0.250000 0.249308 0.250000
Si Si3 0.170526 0.547514 0.189187
Si Si4 0.335084 0.243571 0.441660
Si Si5 0.341914 0.164280 0.845511
Si Si6 0.339329 0.672371 0.354367
O O1 0.500000 0.444478 0.192764
O O2 0.750000 0.435284 0.250000
O O3 0.745734 0.494927 0.161561
O O4 0.719541 0.382187 0.158283
O O5 0.332841 0.291883 0.292411
O O6 0.326923 0.207785 0.204905
O O7 0.250000 0.555115 0.250000
O O8 0.183597 0.606828 0.157654
O O9 0.000000 0.535772 0.196356
O O10 0.500000 0.231739 0.453880
O O11 0.250000 0.250000 0.500000
O O12 0.327374 0.299604 0.402866
O O13 0.269934 0.196319 0.400316
O O14 0.500000 0.137499 0.843270
O O15 0.500000 0.680926 0.376374
#
# Coordination Sequence:
#
# PCOD9476749 Si02
#       6
#    16   8  16  16  16  16
#     4  11  21  32  49  73 106 143 177 214 256 309
#     4  10  18  30  50  78 108 138 172 210 256 316
#     4  10  19  32  50  74 107 143 176 213 256 310
#     4  10  22  38  57  79 105 138 177 220 265 315
#     4  10  20  33  52  77 106 138 173 214 260 310
#     4  10  20  33  53  79 108 141 175 216 262 314
#
# _framework density 16.907499000000001
#
# number of rings (size 3 to 8) (size 9 to 14) (size 15 to 20)
#    0.000    1.818    1.818    4.364    0.000    5.818 
#    0.000    0.000    0.000    1.091    0.000    7.636 
#    0.000    0.000    0.000    0.000    0.000    0.000 
#
# Total GULP energy -245220.368130 kJ/mol
# GULP energy per Si atom -5573.190185 kJ/mol
# Density = 1.686902 g / cm^3
# Si number density = 16.907499 Si / 1000 Ang^3
#
#
#
# Elastic Constant Matrix: (Units=GPa)
#
#
# Indices 1 2 3 4 5 6 
#
# 1 163.6210 65.7178 49.2986 0.0000 0.0000 0.0000
# 2 65.7178 94.7836 20.3010 0.0000 0.0000 0.0000
# 3 49.2986 20.3010 79.6187 0.0000 0.0000 0.0000
# 4 0.0000 0.0000 0.0000 8.1538 0.0000 0.0000
# 5 0.0000 0.0000 0.0000 0.0000 21.8029 0.0000
# 6 0.0000 0.0000 0.0000 0.0000 0.0000 23.4458
#
#
#
# Elastic Compliance Matrix: (Units=1/GPa)
#
#
# Indices 1 2 3 4 5 6 
#
# 1 0.009845 -0.005839 -0.004607 0.000000 0.000000 0.000000
# 2 -0.005839 0.014623 -0.000113 0.000000 0.000000 0.000000
# 3 -0.004607 -0.000113 0.015441 0.000000 0.000000 0.000000
# 4 0.000000 0.000000 0.000000 0.122642 0.000000 0.000000
# 5 0.000000 0.000000 0.000000 0.000000 0.045866 0.000000
# 6 0.000000 0.000000 0.000000 0.000000 0.000000 0.042652
#
#
# Mechanical properties :
#
#
# Convention : Reuss Voigt Hill
#
# Bulk Modulus (GPa) = 53.21718 67.62868 60.42293
# Shear Modulus (GPa) = 17.95647 24.19422 21.07534
#
# Velocity S-wave (km/s) = 3.26243 3.78693 3.53442
# Velocity P-wave (km/s) = 6.76277 7.69462 7.24370
#
# Compressibility (1/GPa) = 0.01879093
#
# Stress axis : x y z
#
# Youngs Moduli (GPa) = 101.57316 68.38444 64.76146
#
# Poissons Ratio (x) = 0.39932 0.29836
# Poissons Ratio (y) = 0.59312 0.00732
# Poissons Ratio (z) = 0.46795 0.00773
#
# Static dielectric constant tensor:
#      x y z
#    x 1.570270 0.000000 0.000000 
#    y 0.000000 1.606400 0.000000 
#    z 0.000000 0.000000 1.538230 
# 
# From -- ./inp_files/36825.got.cif
#   From: 2010.05.17/outbox.cif.g08.bks.cpg/sg64_19_cif.got.tgz:36825.got - 2010.06.03 16:29:19.
