data_PCOD9476244
_publ_section_title
;
Structure prediction by ZEFSAII (Michael W. Deem and Ramdas Pophale) SiO2 
 PCOD9476244
Probable space group: C M C M
;
_chemical_formula_sum "Si O2"
_cell_formula_units_Z 32
_cell_length_a 9.000000
_cell_length_b 21.000000
_cell_length_c 18.000000
_cell_angle_alpha 90.000000
_cell_angle_beta 90.000000
_cell_angle_gamma 90.000000
_cell_volume 3402.000000
_symmetry_space_group_name_H-M "C M C M"
_symmetry_group_IT_number 63
_symmetry_cell_setting 'orthorhombic'
loop_
_space_group_symop_operation_xyz
x,y,z
-x,-y,1/2+z
x,-y,-z
-x,y,1/2-z
-x,-y,-z
x,y,1/2-z
-x,y,z
x,-y,1/2+z
1/2+x,1/2+y,z
1/2-x,1/2-y,1/2+z
1/2+x,1/2-y,-z
1/2-x,1/2+y,1/2-z
1/2-x,1/2-y,-z
1/2+x,1/2+y,1/2-z
1/2-x,1/2+y,z
1/2+x,1/2-y,1/2+z
loop_
_atom_site_type_symbol
_atom_site_label
_atom_site_fract_x
_atom_site_fract_y
_atom_site_fract_z
Si Si1 0.321840 0.769263 0.916229
Si Si2 0.824892 0.586721 0.458506
Si Si3 0.671524 0.082755 0.750000
Si Si4 0.174140 0.734969 0.750000
Si Si5 0.322533 0.458975 0.400200
O O1 0.500000 0.751619 0.916862
O O2 0.310576 0.845900 0.918960
O O3 0.250280 0.751065 0.833217
O O4 0.250000 0.750000 0.000000
O O5 0.753171 0.588344 0.540336
O O6 0.737000 0.529400 0.419677
O O7 0.000000 0.571182 0.463754
O O8 0.500000 0.060142 0.750000
O O9 0.670214 0.158783 0.750000
O O10 0.759992 0.058987 0.679007
O O11 0.000000 0.758033 0.750000
O O12 0.500000 0.456262 0.405384
#
# Coordination Sequence:
#
# PCOD9476244 Si02
#       5
#    16  16   8   8  16
#     4  11  24  41  64  91 123 163 204 248 302 358
#     4  10  21  39  60  84 117 157 194 233 291 359
#     4  11  23  40  59  82 115 154 192 235 294 359
#     4  11  25  42  63  90 121 160 206 251 300 359
#     4  11  22  36  59  89 115 147 192 245 294 341
#
# _framework density 9.4062319999999993
#
# number of rings (size 3 to 8) (size 9 to 14) (size 15 to 20)
#    0.000    1.250    0.000    7.500    0.000   13.000 
#    0.000    1.250    0.000    0.000    0.000    0.000 
#    0.000    0.000    0.000    0.000    0.000    0.000 
#
# Total GULP energy -178268.493942 kJ/mol
# GULP energy per Si atom -5570.890436 kJ/mol
# Density = 0.938482 g / cm^3
# Si number density = 9.406232 Si / 1000 Ang^3
#
#
#
# Elastic Constant Matrix: (Units=GPa)
#
#
# Indices 1 2 3 4 5 6 
#
# 1 162.1973 21.6344 68.6790 0.0000 0.0000 0.0000
# 2 21.6344 35.0257 35.4521 0.0000 0.0000 0.0000
# 3 68.6790 35.4521 176.5992 0.0000 0.0000 0.0000
# 4 0.0000 0.0000 0.0000 16.0839 0.0000 0.0000
# 5 0.0000 0.0000 0.0000 0.0000 42.2321 0.0000
# 6 0.0000 0.0000 0.0000 0.0000 0.0000 30.1350
#
#
#
# Elastic Compliance Matrix: (Units=1/GPa)
#
#
# Indices 1 2 3 4 5 6 
#
# 1 0.007503 -0.002110 -0.002494 0.000000 0.000000 0.000000
# 2 -0.002110 0.036424 -0.006492 0.000000 0.000000 0.000000
# 3 -0.002494 -0.006492 0.007936 0.000000 0.000000 0.000000
# 4 0.000000 0.000000 0.000000 0.062174 0.000000 0.000000
# 5 0.000000 0.000000 0.000000 0.000000 0.023679 0.000000
# 6 0.000000 0.000000 0.000000 0.000000 0.000000 0.033184
#
#
# Mechanical properties :
#
#
# Convention : Reuss Voigt Hill
#
# Bulk Modulus (GPa) = 33.70229 69.48369 51.59299
# Shear Modulus (GPa) = 24.63282 34.22732 29.43007
#
# Velocity S-wave (km/s) = 3.62247 4.27007 3.95953
# Velocity P-wave (km/s) = 5.95401 7.83112 6.95617
#
# Compressibility (1/GPa) = 0.02967158
#
# Stress axis : x y z
#
# Youngs Moduli (GPa) = 133.28178 27.45427 126.01137
#
# Poissons Ratio (x) = 0.05792 0.31432
# Poissons Ratio (y) = 0.28117 0.81803
# Poissons Ratio (z) = 0.33245 0.17822
#
# Static dielectric constant tensor:
#      x y z
#    x 1.660380 0.000000 0.000000 
#    y 0.000000 1.656900 0.000000 
#    z 0.000000 0.000000 1.616590 
# 
# From -- ./inp_files/39863.got.cif
#   From: 2010.05.17/outbox.ucp.g08.bks.cvg/sg63_20_cif.got.tgz:39863.got - 2010.06.11 16:32:19.
