data_PCOD9476005
_publ_section_title
;
Structure prediction by ZEFSAII (Michael W. Deem and Ramdas Pophale) SiO2 
 PCOD9476005
Probable space group: C M C M
;
_chemical_formula_sum "Si O2"
_cell_formula_units_Z 80
_cell_length_a 19.554803
_cell_length_b 27.627681
_cell_length_c 7.484642
_cell_angle_alpha 90.000000
_cell_angle_beta 90.000000
_cell_angle_gamma 90.000000
_cell_volume 4043.606726
_symmetry_space_group_name_H-M "C M C M"
_symmetry_group_IT_number 63
_symmetry_cell_setting 'orthorhombic'
loop_
_space_group_symop_operation_xyz
x,y,z
-x,-y,1/2+z
x,-y,-z
-x,y,1/2-z
-x,-y,-z
x,y,1/2-z
-x,y,z
x,-y,1/2+z
1/2+x,1/2+y,z
1/2-x,1/2-y,1/2+z
1/2+x,1/2-y,-z
1/2-x,1/2+y,1/2-z
1/2-x,1/2-y,-z
1/2+x,1/2+y,1/2-z
1/2-x,1/2+y,z
1/2+x,1/2-y,1/2+z
loop_
_atom_site_type_symbol
_atom_site_label
_atom_site_fract_x
_atom_site_fract_y
_atom_site_fract_z
Si Si1 0.923658 0.346055 0.968544
Si Si2 0.425072 0.442918 0.535960
Si Si3 0.643906 0.054497 0.037086
Si Si4 0.784223 0.301215 0.963224
Si Si5 0.283666 0.400112 0.968712
O O1 0.924689 0.345570 0.750000
O O2 0.902559 0.400657 0.025462
O O3 0.861847 0.310960 0.027278
O O4 0.000000 0.333744 0.028698
O O5 0.417874 0.500000 0.500000
O O6 0.426163 0.436460 0.750000
O O7 0.500000 0.427632 0.467223
O O8 0.357917 0.416113 0.466911
O O9 0.645641 0.059322 0.250000
O O10 0.721664 0.064614 0.973782
O O11 0.621173 0.000000 0.000000
O O12 0.787543 0.305944 0.750000
O O13 0.738361 0.346389 0.025994
O O14 0.750000 0.250000 0.000000
O O15 0.285204 0.401154 0.750000
#
# Coordination Sequence:
#
# PCOD9476005 Si02
#       5
#    16  16  16  16  16
#     4   8  15  29  47  64  85 117 150 173 203 256
#     4   9  16  26  41  60  83 112 142 170 203 246
#     4   9  16  26  42  63  86 113 143 173 204 243
#     4   9  17  31  50  67  84 109 143 182 219 257
#     4   8  15  28  43  59  82 112 142 169 205 257
#
# _framework density 19.784317999999999
#
# number of rings (size 3 to 8) (size 9 to 14) (size 15 to 20)
#    0.000    3.400    0.000    3.000    0.000    0.400 
#    0.000    6.000    0.000    3.000    0.000    0.000 
#    0.000    0.000    0.000    0.000    0.000    0.000 
#
# Total GULP energy -222903.826788 kJ/mol
# GULP energy per Si atom -5572.595670 kJ/mol
# Density = 1.973929 g / cm^3
# Si number density = 19.784318 Si / 1000 Ang^3
#
#
#
# Elastic Constant Matrix: (Units=GPa)
#
#
# Indices 1 2 3 4 5 6 
#
# 1 195.4276 73.7394 7.9866 0.0000 0.0000 0.0000
# 2 73.7394 104.1984 -4.4635 0.0000 0.0000 0.0000
# 3 7.9866 -4.4635 51.8066 0.0000 0.0000 0.0000
# 4 0.0000 0.0000 0.0000 22.2250 0.0000 0.0000
# 5 0.0000 0.0000 0.0000 0.0000 1.5651 0.0000
# 6 0.0000 0.0000 0.0000 0.0000 0.0000 16.1335
#
#
#
# Elastic Compliance Matrix: (Units=1/GPa)
#
#
# Indices 1 2 3 4 5 6 
#
# 1 0.007100 -0.005091 -0.001533 0.000000 0.000000 0.000000
# 2 -0.005091 0.013282 0.001929 0.000000 0.000000 0.000000
# 3 -0.001533 0.001929 0.019705 0.000000 0.000000 0.000000
# 4 0.000000 0.000000 0.000000 0.044994 0.000000 0.000000
# 5 0.000000 0.000000 0.000000 0.000000 0.638956 0.000000
# 6 0.000000 0.000000 0.000000 0.000000 0.000000 0.061983
#
#
# Mechanical properties :
#
#
# Convention : Reuss Voigt Hill
#
# Bulk Modulus (GPa) = 32.57483 56.21749 44.39616
# Shear Modulus (GPa) = 6.20622 26.26270 16.23446
#
# Velocity S-wave (km/s) = 1.77306 3.64737 2.86767
# Velocity P-wave (km/s) = 4.54889 6.79813 5.78390
#
# Compressibility (1/GPa) = 0.03069855
#
# Stress axis : x y z
#
# Youngs Moduli (GPa) = 140.83691 75.28886 50.74818
#
# Poissons Ratio (x) = 0.38326 0.07781
# Poissons Ratio (y) = 0.71693 -0.09790
# Poissons Ratio (z) = 0.21593 -0.14524
#
# Static dielectric constant tensor:
#      x y z
#    x 1.719050 0.000000 0.000000 
#    y 0.000000 1.675740 0.000000 
#    z 0.000000 0.000000 1.754010 
# 
# From -- ./inp_files/6415.got.cif
#   From: 2010.05.17/outbox.cif.g08.bks.cpg/sg63_4_cif.got.tgz:6415.got - 2010.06.03 15:47:04.
