data_PCOD9476284
_publ_section_title
;
Structure prediction by ZEFSAII (Michael W. Deem and Ramdas Pophale) SiO2 
 PCOD9476284
Probable space group: C M C M
;
_chemical_formula_sum "Si O2"
_cell_formula_units_Z 44
_cell_length_a 18.000000
_cell_length_b 30.000000
_cell_length_c 9.000000
_cell_angle_alpha 90.000000
_cell_angle_beta 90.000000
_cell_angle_gamma 90.000000
_cell_volume 4860.000000
_symmetry_space_group_name_H-M "C M C M"
_symmetry_group_IT_number 63
_symmetry_cell_setting 'orthorhombic'
loop_
_space_group_symop_operation_xyz
x,y,z
-x,-y,1/2+z
x,-y,-z
-x,y,1/2-z
-x,-y,-z
x,y,1/2-z
-x,y,z
x,-y,1/2+z
1/2+x,1/2+y,z
1/2-x,1/2-y,1/2+z
1/2+x,1/2-y,-z
1/2-x,1/2+y,1/2-z
1/2-x,1/2-y,-z
1/2+x,1/2+y,1/2-z
1/2-x,1/2+y,z
1/2+x,1/2-y,1/2+z
loop_
_atom_site_type_symbol
_atom_site_label
_atom_site_fract_x
_atom_site_fract_y
_atom_site_fract_z
Si Si1 0.357974 0.099920 0.429960
Si Si2 0.090196 0.210097 0.421678
Si Si3 0.000000 0.549445 0.931114
Si Si4 0.410866 0.189536 0.929343
Si Si5 0.085718 0.882007 0.071902
Si Si6 0.716099 0.549584 0.569414
O O1 0.359721 0.096849 0.250000
O O2 0.427886 0.074542 0.504526
O O3 0.367301 0.151044 0.484267
O O4 0.284721 0.076544 0.496885
O O5 0.112835 0.205280 0.250000
O O6 0.112333 0.259898 0.472461
O O7 0.112704 0.165824 0.509550
O O8 0.000000 0.210891 0.425712
O O9 0.000000 0.549168 0.750000
O O10 0.000000 0.500000 0.000000
O O11 0.401228 0.185050 0.750000
O O12 0.500000 0.184657 0.957412
O O13 0.084448 0.878796 0.250000
O O14 0.141567 0.922055 0.033764
O O15 0.000000 0.889453 0.021257
O O16 0.713479 0.500000 0.500000
O O17 0.724195 0.547268 0.750000
#
# Coordination Sequence:
#
# PCOD9476284 Si02
#       6
#    16  16   8  16  16  16
#     4  12  24  38  57  85 116 150 196 240 284 337
#     4   8  15  29  53  85 117 150 187 228 280 337
#     4  12  24  40  60  82 112 150 194 242 289 338
#     4   9  17  32  55  83 117 156 193 233 283 334
#     4   9  19  37  61  88 116 147 186 234 288 347
#     4  11  24  42  61  82 113 151 189 236 296 348
#
# _framework density 9.0534979999999994
#
# number of rings (size 3 to 8) (size 9 to 14) (size 15 to 20)
#    0.000    2.000    0.909    4.636    0.000    2.545 
#    0.000    2.727    0.000    0.000    0.000    0.000 
#    0.000    0.000    0.000    0.000    0.000    0.000 
#
# Total GULP energy -245561.949179 kJ/mol
# GULP energy per Si atom -5580.953390 kJ/mol
# Density = 0.903289 g / cm^3
# Si number density = 9.053498 Si / 1000 Ang^3
#
#
#
# Elastic Constant Matrix: (Units=GPa)
#
#
# Indices 1 2 3 4 5 6 
#
# 1 95.7801 78.4661 46.7605 0.0000 0.0000 0.0000
# 2 78.4661 183.9611 66.4833 0.0000 0.0000 0.0000
# 3 46.7605 66.4833 102.1555 0.0000 0.0000 0.0000
# 4 0.0000 0.0000 0.0000 41.4766 0.0000 0.0000
# 5 0.0000 0.0000 0.0000 0.0000 21.0764 0.0000
# 6 0.0000 0.0000 0.0000 0.0000 0.0000 29.5763
#
#
#
# Elastic Compliance Matrix: (Units=1/GPa)
#
#
# Indices 1 2 3 4 5 6 
#
# 1 0.017248 -0.005889 -0.004063 0.000000 0.000000 0.000000
# 2 -0.005889 0.009118 -0.003239 0.000000 0.000000 0.000000
# 3 -0.004063 -0.003239 0.013756 0.000000 0.000000 0.000000
# 4 0.000000 0.000000 0.000000 0.024110 0.000000 0.000000
# 5 0.000000 0.000000 0.000000 0.000000 0.047446 0.000000
# 6 0.000000 0.000000 0.000000 0.000000 0.000000 0.033811
#
#
# Mechanical properties :
#
#
# Convention : Reuss Voigt Hill
#
# Bulk Modulus (GPa) = 72.76676 85.03513 78.90095
# Shear Modulus (GPa) = 28.33644 31.10499 29.72071
#
# Velocity S-wave (km/s) = 3.96023 4.14918 4.05581
# Velocity P-wave (km/s) = 7.82212 8.36773 8.09952
#
# Compressibility (1/GPa) = 0.01374254
#
# Stress axis : x y z
#
# Youngs Moduli (GPa) = 57.97672 109.67166 72.69350
#
# Poissons Ratio (x) = 0.64583 0.29534
# Poissons Ratio (y) = 0.34141 0.23543
# Poissons Ratio (z) = 0.23555 0.35518
#
# Static dielectric constant tensor:
#      x y z
#    x 1.625570 0.000000 0.000000 
#    y 0.000000 1.628920 0.000000 
#    z 0.000000 0.000000 1.607770 
# 
# From -- ./inp_files/6895.got.cif
#   From: 2010.05.17/outbox.ucp.g08.bks.cvg/sg63_4_cif.got.tgz:6895.got - 2010.06.11 16:32:19.
