data_PCOD9476738
_publ_section_title
;
Structure prediction by ZEFSAII (Michael W. Deem and Ramdas Pophale) SiO2 
 PCOD9476738
Probable space group: C M C A
;
_chemical_formula_sum "Si O2"
_cell_formula_units_Z 112
_cell_length_a 20.568193
_cell_length_b 19.458534
_cell_length_c 16.289078
_cell_angle_alpha 90.000000
_cell_angle_beta 90.000000
_cell_angle_gamma 90.000000
_cell_volume 6519.326912
_symmetry_space_group_name_H-M "C M C A"
_symmetry_group_IT_number 64
_symmetry_cell_setting 'orthorhombic'
loop_
_space_group_symop_operation_xyz
x,y,z
-x,1/2-y,1/2+z
x,-y,-z
-x,1/2+y,1/2-z
-x,-y,-z
x,1/2+y,1/2-z
-x,y,z
x,1/2-y,1/2+z
1/2+x,1/2+y,z
1/2-x,-y,1/2+z
1/2+x,1/2-y,-z
1/2-x,y,1/2-z
1/2-x,1/2-y,-z
1/2+x,y,1/2-z
1/2-x,1/2+y,z
1/2+x,-y,1/2+z
loop_
_atom_site_type_symbol
_atom_site_label
_atom_site_fract_x
_atom_site_fract_y
_atom_site_fract_z
Si Si1 0.268718 0.947502 0.069700
Si Si2 0.705311 0.314991 0.986419
Si Si3 0.676519 0.366645 0.285368
Si Si4 0.072562 0.364224 0.485590
Si Si5 0.317517 0.293012 0.799299
Si Si6 0.131085 0.538917 0.645878
Si Si7 0.926109 0.105493 0.181762
O O1 0.319109 0.917149 0.136084
O O2 0.204913 0.978035 0.116302
O O3 0.239448 0.880923 0.024632
O O4 0.292347 0.000000 0.000000
O O5 0.698446 0.320348 0.889611
O O6 0.750000 0.250000 0.000000
O O7 0.633113 0.312243 0.025753
O O8 0.750000 0.364853 0.250000
O O9 0.660925 0.287137 0.304031
O O10 0.634842 0.400747 0.213366
O O11 0.091756 0.431135 0.432035
O O12 0.072728 0.379826 0.582989
O O13 0.000000 0.341137 0.463006
O O14 0.250000 0.297157 0.750000
O O15 0.377071 0.341952 0.773459
O O16 0.099595 0.472083 0.685452
O O17 0.000000 0.111932 0.211307
#
# Coordination Sequence:
#
# PCOD9476738 Si02
#       7
#    16  16  16  16  16  16  16
#     4  10  18  30  49  78 105 136 176 219 259 314
#     4  10  18  31  53  76 105 136 175 213 261 311
#     4   9  19  32  48  72 107 139 174 218 264 311
#     4   9  18  31  51  78 104 131 168 214 266 318
#     4  10  20  34  53  76 107 144 173 217 269 313
#     4  10  18  30  51  74 105 137 170 213 270 321
#     4  10  20  34  52  77 108 137 174 220 267 318
#
# _framework density 17.179686
#
# number of rings (size 3 to 8) (size 9 to 14) (size 15 to 20)
#    0.000    2.286    1.429    3.429    2.000    4.000 
#    0.000    1.429    0.000    0.000    0.000    0.000 
#    0.000    4.571    0.000    0.000    0.000    0.000 
#
# Total GULP energy -311901.045125 kJ/mol
# GULP energy per Si atom -5569.661520 kJ/mol
# Density = 1.714058 g / cm^3
# Si number density = 17.179686 Si / 1000 Ang^3
#
#
#
# Elastic Constant Matrix: (Units=GPa)
#
#
# Indices 1 2 3 4 5 6 
#
# 1 86.0695 54.4132 11.8727 0.0000 0.0000 0.0000
# 2 54.4132 69.2679 10.7826 0.0000 0.0000 0.0000
# 3 11.8727 10.7826 45.4110 0.0000 0.0000 0.0000
# 4 0.0000 0.0000 0.0000 21.5065 0.0000 0.0000
# 5 0.0000 0.0000 0.0000 0.0000 14.7648 0.0000
# 6 0.0000 0.0000 0.0000 0.0000 0.0000 18.6784
#
#
#
# Elastic Compliance Matrix: (Units=1/GPa)
#
#
# Indices 1 2 3 4 5 6 
#
# 1 0.023223 -0.017962 -0.001807 0.000000 0.000000 0.000000
# 2 -0.017962 0.028883 -0.002162 0.000000 0.000000 0.000000
# 3 -0.001807 -0.002162 0.023007 0.000000 0.000000 0.000000
# 4 0.000000 0.000000 0.000000 0.046497 0.000000 0.000000
# 5 0.000000 0.000000 0.000000 0.000000 0.067729 0.000000
# 6 0.000000 0.000000 0.000000 0.000000 0.000000 0.053538
#
#
# Mechanical properties :
#
#
# Convention : Reuss Voigt Hill
#
# Bulk Modulus (GPa) = 31.99792 39.43171 35.71482
# Shear Modulus (GPa) = 16.82624 19.23527 18.03075
#
# Velocity S-wave (km/s) = 3.13297 3.34975 3.24317
# Velocity P-wave (km/s) = 5.63500 6.16145 5.90410
#
# Compressibility (1/GPa) = 0.03125203
#
# Stress axis : x y z
#
# Youngs Moduli (GPa) = 43.06064 34.62255 43.46535
#
# Poissons Ratio (x) = 0.62188 0.07853
# Poissons Ratio (y) = 0.77344 0.09397
# Poissons Ratio (z) = 0.07780 0.07485
#
# Static dielectric constant tensor:
#      x y z
#    x 1.623190 0.000000 0.000000 
#    y 0.000000 1.585640 0.000000 
#    z 0.000000 0.000000 1.617280 
# 
# From -- ./inp_files/34520.got.cif
#   From: 2010.05.17/outbox.cif.g08.bks.cpg/sg64_18_cif.got.tgz:34520.got - 2010.06.03 16:29:19.
