data_PCOD9476489
_publ_section_title
;
Structure prediction by ZEFSAII (Michael W. Deem and Ramdas Pophale) SiO2 
 PCOD9476489
Probable space group: C M C A
;
_chemical_formula_sum "Si O2"
_cell_formula_units_Z 128
_cell_length_a 15.030315
_cell_length_b 18.993922
_cell_length_c 22.137690
_cell_angle_alpha 90.000000
_cell_angle_beta 90.000000
_cell_angle_gamma 90.000000
_cell_volume 6319.970255
_symmetry_space_group_name_H-M "C M C A"
_symmetry_group_IT_number 64
_symmetry_cell_setting 'orthorhombic'
loop_
_space_group_symop_operation_xyz
x,y,z
-x,1/2-y,1/2+z
x,-y,-z
-x,1/2+y,1/2-z
-x,-y,-z
x,1/2+y,1/2-z
-x,y,z
x,1/2-y,1/2+z
1/2+x,1/2+y,z
1/2-x,-y,1/2+z
1/2+x,1/2-y,-z
1/2-x,y,1/2-z
1/2-x,1/2-y,-z
1/2+x,y,1/2-z
1/2-x,1/2+y,z
1/2+x,-y,1/2+z
loop_
_atom_site_type_symbol
_atom_site_label
_atom_site_fract_x
_atom_site_fract_y
_atom_site_fract_z
Si Si1 0.607715 0.567360 0.240198
Si Si2 0.105843 0.700158 0.620064
Si Si3 0.342744 0.070133 0.683411
Si Si4 0.107390 0.682575 0.039033
Si Si5 0.854374 0.132199 0.693963
Si Si6 0.399489 0.415008 0.434880
Si Si7 0.108258 0.229246 0.252484
Si Si8 0.107363 0.551970 0.122285
O O1 0.500000 0.563988 0.236707
O O2 0.646145 0.513251 0.190787
O O3 0.633721 0.649356 0.237353
O O4 0.635783 0.544751 0.308287
O O5 0.123199 0.617183 0.627997
O O6 0.141919 0.742031 0.561875
O O7 0.135098 0.741588 0.681200
O O8 0.000000 0.708665 0.619013
O O9 0.241736 0.096606 0.687582
O O10 0.392423 0.099505 0.743965
O O11 0.122926 0.628085 0.094065
O O12 0.000000 0.689727 0.030111
O O13 0.142322 0.641739 0.980017
O O14 0.903701 0.116287 0.632341
O O15 0.851853 0.215029 0.705810
O O16 0.500000 0.427907 0.458114
O O17 0.356952 0.491417 0.422438
O O18 0.000000 0.232631 0.249886
O O19 0.000000 0.543390 0.123855
#
# Coordination Sequence:
#
# PCOD9476489 Si02
#       8
#    16  16  16  16  16  16  16  16
#     4  10  17  29  51  77  99 127 166 206 250 297
#     4   9  16  29  48  69  93 125 164 204 244 296
#     4  10  20  32  46  67 101 133 163 200 248 295
#     4   9  16  27  44  71  99 123 159 203 252 301
#     4  10  20  33  44  67 100 132 166 201 245 297
#     4  10  18  28  47  69  95 130 164 205 250 300
#     4   9  17  30  51  72  97 129 165 210 250 290
#     4   9  15  25  42  69 100 123 150 193 245 301
#
# _framework density 20.253260000000001
#
# number of rings (size 3 to 8) (size 9 to 14) (size 15 to 20)
#    0.000    2.500    2.500    1.125    0.000    2.500 
#    0.000    6.875    0.000    0.000    0.000    0.875 
#    0.000    5.000    0.000    0.000    0.000    0.250 
#
# Total GULP energy -356495.571204 kJ/mol
# GULP energy per Si atom -5570.243300 kJ/mol
# Density = 2.020716 g / cm^3
# Si number density = 20.253260 Si / 1000 Ang^3
#
#
#
# Elastic Constant Matrix: (Units=GPa)
#
#
# Indices 1 2 3 4 5 6 
#
# 1 39.5458 15.4509 -1.0475 0.0000 0.0000 0.0000
# 2 15.4509 82.4452 2.0048 0.0000 0.0000 0.0000
# 3 -1.0475 2.0048 24.0626 0.0000 0.0000 0.0000
# 4 0.0000 0.0000 0.0000 28.9062 0.0000 0.0000
# 5 0.0000 0.0000 0.0000 0.0000 3.4124 0.0000
# 6 0.0000 0.0000 0.0000 0.0000 0.0000 12.9452
#
#
#
# Elastic Compliance Matrix: (Units=1/GPa)
#
#
# Indices 1 2 3 4 5 6 
#
# 1 0.027348 -0.005165 0.001621 0.000000 0.000000 0.000000
# 2 -0.005165 0.013129 -0.001319 0.000000 0.000000 0.000000
# 3 0.001621 -0.001319 0.041739 0.000000 0.000000 0.000000
# 4 0.000000 0.000000 0.000000 0.034595 0.000000 0.000000
# 5 0.000000 0.000000 0.000000 0.000000 0.293049 0.000000
# 6 0.000000 0.000000 0.000000 0.000000 0.000000 0.077249
#
#
# Mechanical properties :
#
#
# Convention : Reuss Voigt Hill
#
# Bulk Modulus (GPa) = 13.79484 19.87443 16.83464
# Shear Modulus (GPa) = 9.59698 17.69579 13.64638
#
# Velocity S-wave (km/s) = 2.17917 2.95909 2.59856
# Velocity P-wave (km/s) = 3.62735 4.63780 4.16334
#
# Compressibility (1/GPa) = 0.07249085
#
# Stress axis : x y z
#
# Youngs Moduli (GPa) = 36.56579 76.16589 23.95862
#
# Poissons Ratio (x) = 0.39337 -0.03883
# Poissons Ratio (y) = 0.18885 0.03159
# Poissons Ratio (z) = -0.05927 0.10044
#
# Static dielectric constant tensor:
#      x y z
#    x 1.779510 0.000000 0.000000 
#    y 0.000000 1.800300 0.000000 
#    z 0.000000 0.000000 1.753820 
# 
# From -- ./inp_files/46496.got.cif
#   From: 2010.05.17/outbox.cif.g08.bks.cpg/sg64_24_cif.got.tgz:46496.got - 2010.06.03 16:29:19.
