data_PCOD9476158
_publ_section_title
;
Structure prediction by ZEFSAII (Michael W. Deem and Ramdas Pophale) SiO2 
 PCOD9476158
Probable space group: C M C M
;
_chemical_formula_sum "Si O2"
_cell_formula_units_Z 52
_cell_length_a 27.000000
_cell_length_b 24.000000
_cell_length_c 9.000000
_cell_angle_alpha 90.000000
_cell_angle_beta 90.000000
_cell_angle_gamma 90.000000
_cell_volume 5832.000000
_symmetry_space_group_name_H-M "C M C M"
_symmetry_group_IT_number 63
_symmetry_cell_setting 'orthorhombic'
loop_
_space_group_symop_operation_xyz
x,y,z
-x,-y,1/2+z
x,-y,-z
-x,y,1/2-z
-x,-y,-z
x,y,1/2-z
-x,y,z
x,-y,1/2+z
1/2+x,1/2+y,z
1/2-x,1/2-y,1/2+z
1/2+x,1/2-y,-z
1/2-x,1/2+y,1/2-z
1/2-x,1/2-y,-z
1/2+x,1/2+y,1/2-z
1/2-x,1/2+y,z
1/2+x,1/2-y,1/2+z
loop_
_atom_site_type_symbol
_atom_site_label
_atom_site_fract_x
_atom_site_fract_y
_atom_site_fract_z
Si Si1 0.297164 0.124266 0.575954
Si Si2 0.859098 0.261635 0.076840
Si Si3 0.000000 0.061047 0.571838
Si Si4 0.617442 0.940941 0.572596
Si Si5 0.557252 0.829942 0.571220
Si Si6 0.107145 0.060888 0.571151
Si Si7 0.186381 0.847429 0.429704
O O1 0.296897 0.107626 0.750000
O O2 0.324396 0.183808 0.565263
O O3 0.328996 0.079949 0.484327
O O4 0.241399 0.134720 0.524441
O O5 0.866748 0.249198 0.250000
O O6 0.909944 0.281416 0.000760
O O7 0.832666 0.210041 0.998143
O O8 0.053021 0.085903 0.530253
O O9 0.000000 0.055773 0.750000
O O10 0.000000 0.000000 0.500000
O O11 0.617156 0.946166 0.750000
O O12 0.580385 0.890299 0.530123
O O13 0.604635 0.000000 0.500000
O O14 0.560918 0.825487 0.750000
O O15 0.500000 0.826889 0.528176
O O16 0.109045 0.054779 0.750000
O O17 0.149263 0.103449 0.525920
O O18 0.112303 0.000000 0.500000
O O19 0.186280 0.842069 0.250000
#
# Coordination Sequence:
#
# PCOD9476158 Si02
#       7
#    16  16   8  16  16  16  16
#     4   9  19  35  53  73 102 139 176 217 262 308
#     4  10  20  34  53  77 104 135 173 217 264 312
#     4   8  14  28  48  66  86 116 152 186 229 280
#     4  10  20  34  54  80 109 141 179 219 264 321
#     4   9  19  37  58  78 104 141 180 219 266 319
#     4   9  18  32  50  71  96 126 161 203 248 297
#     4  10  20  34  52  76 104 135 174 215 259 314
#
# _framework density 8.9163239999999995
#
# number of rings (size 3 to 8) (size 9 to 14) (size 15 to 20)
#    0.000    2.615    0.000    1.385    0.000    3.692 
#    1.385    1.538    0.000    0.000    0.000    0.000 
#    0.000    0.000    0.000    0.000    0.000    0.000 
#
# Total GULP energy -289869.778473 kJ/mol
# GULP energy per Si atom -5574.418817 kJ/mol
# Density = 0.889603 g / cm^3
# Si number density = 8.916324 Si / 1000 Ang^3
#
#
#
# Elastic Constant Matrix: (Units=GPa)
#
#
# Indices 1 2 3 4 5 6 
#
# 1 119.8137 -17.1157 14.4991 0.0000 0.0000 0.0000
# 2 -17.1157 -33.0903 -9.0856 0.0000 0.0000 0.0000
# 3 14.4991 -9.0856 12.6871 0.0000 0.0000 0.0000
# 4 0.0000 0.0000 0.0000 31.1915 0.0000 0.0000
# 5 0.0000 0.0000 0.0000 0.0000 20.9593 0.0000
# 6 0.0000 0.0000 0.0000 0.0000 0.0000 12.0963
#
#
#
# Elastic Compliance Matrix: (Units=1/GPa)
#
#
# Indices 1 2 3 4 5 6 
#
# 1 0.009580 -0.001629 -0.012114 0.000000 0.000000 0.000000
# 2 -0.001629 -0.024978 -0.016026 0.000000 0.000000 0.000000
# 3 -0.012114 -0.016026 0.081188 0.000000 0.000000 0.000000
# 4 0.000000 0.000000 0.000000 0.032060 0.000000 0.000000
# 5 0.000000 0.000000 0.000000 0.000000 0.047712 0.000000
# 6 0.000000 0.000000 0.000000 0.000000 0.000000 0.082670
#
#
# Mechanical properties :
#
#
# Convention : Reuss Voigt Hill
#
# Bulk Modulus (GPa) = 159.93551 8.44513 84.19032
# Shear Modulus (GPa) = 17.25012 20.25692 18.75352
#
# Velocity S-wave (km/s) = 3.11357 3.37404 3.24642
# Velocity P-wave (km/s) = 10.13940 4.46373 7.83365
#
# Compressibility (1/GPa) = 0.00625252
#
# Stress axis : x y z
#
# Youngs Moduli (GPa) = 104.38871 -40.03571 12.31711
#
# Poissons Ratio (x) = -0.06521 0.14921
# Poissons Ratio (y) = 0.17003 0.19739
# Poissons Ratio (z) = 1.26458 -0.64160
#
# Static dielectric constant tensor:
#      x y z
#    x 1.632050 0.000000 0.000000 
#    y 0.000000 1.563600 0.000000 
#    z 0.000000 0.000000 1.599520 
# 
# From -- ./inp_files/12545.got.cif
#   From: 2010.05.17/outbox.ucp.g08.bks.cvg/sg63_7_cif.got.tgz:12545.got - 2010.06.11 16:32:19.
