data_PCOD9476345
_publ_section_title
;
Structure prediction by ZEFSAII (Michael W. Deem and Ramdas Pophale) SiO2 
 PCOD9476345
Probable space group: C M C A
;
_chemical_formula_sum "Si O2"
_cell_formula_units_Z 104
_cell_length_a 9.282824
_cell_length_b 29.323089
_cell_length_c 21.417946
_cell_angle_alpha 90.000000
_cell_angle_beta 90.000000
_cell_angle_gamma 90.000000
_cell_volume 5829.987911
_symmetry_space_group_name_H-M "C M C A"
_symmetry_group_IT_number 64
_symmetry_cell_setting 'orthorhombic'
loop_
_space_group_symop_operation_xyz
x,y,z
-x,1/2-y,1/2+z
x,-y,-z
-x,1/2+y,1/2-z
-x,-y,-z
x,1/2+y,1/2-z
-x,y,z
x,1/2-y,1/2+z
1/2+x,1/2+y,z
1/2-x,-y,1/2+z
1/2+x,1/2-y,-z
1/2-x,y,1/2-z
1/2-x,1/2-y,-z
1/2+x,y,1/2-z
1/2-x,1/2+y,z
1/2+x,-y,1/2+z
loop_
_atom_site_type_symbol
_atom_site_label
_atom_site_fract_x
_atom_site_fract_y
_atom_site_fract_z
Si Si1 0.336064 0.189398 0.856280
Si Si2 0.674396 0.371668 0.907184
Si Si3 0.664608 0.947480 0.354996
Si Si4 0.675125 0.953351 0.684869
Si Si5 0.824985 0.873697 0.050283
Si Si6 0.673841 0.291271 0.815063
Si Si7 0.750000 0.878588 0.250000
O O1 0.500000 0.192324 0.879348
O O2 0.235326 0.168079 0.909228
O O3 0.289711 0.239575 0.834681
O O4 0.332431 0.155172 0.796980
O O5 0.500000 0.370836 0.909701
O O6 0.713014 0.416530 0.867870
O O7 0.718425 0.327127 0.868221
O O8 0.723519 0.372390 0.978745
O O9 0.500000 0.957605 0.372138
O O10 0.727259 0.919190 0.413080
O O11 0.666961 0.912671 0.296551
O O12 0.727167 0.996059 0.335287
O O13 0.500000 0.953627 0.692567
O O14 0.750000 0.941267 0.750000
O O15 0.000000 0.873082 0.052681
O O16 0.500000 0.293753 0.807595
O O17 0.750000 0.302383 0.750000
#
# Coordination Sequence:
#
# PCOD9476345 Si02
#       7
#    16  16  16  16  16  16   8
#     4  10  20  32  51  77 105 132 165 210 254 298
#     4   9  19  35  54  72 101 136 172 211 246 295
#     4   9  17  28  48  75 100 126 165 205 248 301
#     4  10  19  33  52  77 101 130 167 210 256 298
#     4   9  19  35  52  74 102 138 171 203 250 302
#     4  10  20  35  53  77 102 132 170 210 255 298
#     4  10  16  30  48  72 104 134 160 198 256 302
#
# _framework density 17.838802999999999
#
# number of rings (size 3 to 8) (size 9 to 14) (size 15 to 20)
#    0.000    2.462    1.538    0.923    0.000    2.462 
#    0.000    4.615    0.000    0.000    0.000    3.231 
#    0.000    0.000    0.000    0.000    0.000    0.000 
#
# Total GULP energy -289687.056966 kJ/mol
# GULP energy per Si atom -5570.904942 kJ/mol
# Density = 1.779820 g / cm^3
# Si number density = 17.838803 Si / 1000 Ang^3
#
#
#
# Elastic Constant Matrix: (Units=GPa)
#
#
# Indices 1 2 3 4 5 6 
#
# 1 17.5582 11.7475 25.1541 0.0000 0.0000 0.0000
# 2 11.7475 110.4011 70.3597 0.0000 0.0000 0.0000
# 3 25.1541 70.3597 168.9872 0.0000 0.0000 0.0000
# 4 0.0000 0.0000 0.0000 13.8659 0.0000 0.0000
# 5 0.0000 0.0000 0.0000 0.0000 24.0766 0.0000
# 6 0.0000 0.0000 0.0000 0.0000 0.0000 10.7759
#
#
#
# Elastic Compliance Matrix: (Units=1/GPa)
#
#
# Indices 1 2 3 4 5 6 
#
# 1 0.072496 -0.001139 -0.010317 0.000000 0.000000 0.000000
# 2 -0.001139 0.012347 -0.004971 0.000000 0.000000 0.000000
# 3 -0.010317 -0.004971 0.009523 0.000000 0.000000 0.000000
# 4 0.000000 0.000000 0.000000 0.072120 0.000000 0.000000
# 5 0.000000 0.000000 0.000000 0.000000 0.041534 0.000000
# 6 0.000000 0.000000 0.000000 0.000000 0.000000 0.092799
#
#
# Mechanical properties :
#
#
# Convention : Reuss Voigt Hill
#
# Bulk Modulus (GPa) = 16.25706 56.82988 36.54347
# Shear Modulus (GPa) = 14.11719 22.38935 18.25327
#
# Velocity S-wave (km/s) = 2.81619 3.54657 3.20227
# Velocity P-wave (km/s) = 4.43933 6.97836 5.84830
#
# Compressibility (1/GPa) = 0.06151174
#
# Stress axis : x y z
#
# Youngs Moduli (GPa) = 13.79390 80.98849 105.00645
#
# Poissons Ratio (x) = 0.09225 1.08334
# Poissons Ratio (y) = 0.01571 0.52203
# Poissons Ratio (z) = 0.14231 0.40263
#
# Static dielectric constant tensor:
#      x y z
#    x 1.616690 0.000000 0.000000 
#    y 0.000000 1.623070 0.000000 
#    z 0.000000 0.000000 1.594910 
# 
# From -- ./inp_files/37222.got.cif
#   From: 2010.05.17/outbox.cif.g08.bks.cpg/sg64_19_cif.got.tgz:37222.got - 2010.06.03 16:29:19.
