data_PCOD9476062
_publ_section_title
;
Structure prediction by ZEFSAII (Michael W. Deem and Ramdas Pophale) SiO2 
 PCOD9476062
Probable space group: C M C M
;
_chemical_formula_sum "Si O2"
_cell_formula_units_Z 36
_cell_length_a 24.000000
_cell_length_b 21.000000
_cell_length_c 9.000000
_cell_angle_alpha 90.000000
_cell_angle_beta 90.000000
_cell_angle_gamma 90.000000
_cell_volume 4536.000000
_symmetry_space_group_name_H-M "C M C M"
_symmetry_group_IT_number 63
_symmetry_cell_setting 'orthorhombic'
loop_
_space_group_symop_operation_xyz
x,y,z
-x,-y,1/2+z
x,-y,-z
-x,y,1/2-z
-x,-y,-z
x,y,1/2-z
-x,y,z
x,-y,1/2+z
1/2+x,1/2+y,z
1/2-x,1/2-y,1/2+z
1/2+x,1/2-y,-z
1/2-x,1/2+y,1/2-z
1/2-x,1/2-y,-z
1/2+x,1/2+y,1/2-z
1/2-x,1/2+y,z
1/2+x,1/2-y,1/2+z
loop_
_atom_site_type_symbol
_atom_site_label
_atom_site_fract_x
_atom_site_fract_y
_atom_site_fract_z
Si Si1 0.267430 0.347053 0.080449
Si Si2 0.091707 0.348317 0.916060
Si Si3 0.696225 0.059207 0.414215
Si Si4 0.839773 0.748926 0.580250
Si Si5 0.500000 0.069286 0.574656
O O1 0.283233 0.356386 0.250000
O O2 0.213400 0.299714 0.078828
O O3 0.246973 0.411113 0.003959
O O4 0.315775 0.312537 0.990842
O O5 0.068495 0.341762 0.750000
O O6 0.148660 0.388143 0.904044
O O7 0.110644 0.282182 0.987093
O O8 0.052130 0.389332 0.020032
O O9 0.713335 0.040116 0.250000
O O10 0.671446 0.000000 0.500000
O O11 0.856322 0.757160 0.750000
O O12 0.500000 0.060983 0.750000
O O13 0.500000 0.000000 0.500000
#
# Coordination Sequence:
#
# PCOD9476062 Si02
#       5
#    16  16  16  16   8
#     4   9  16  26  41  60  82 107 135 168 206 249
#     4  10  20  33  47  62  81 108 143 181 219 256
#     4  10  19  29  42  60  83 111 142 175 211 253
#     4   9  16  27  43  62  82 104 134 171 210 251
#     4  12  24  36  48  62  82 110 145 184 223 258
#
# _framework density 7.9365079999999999
#
# number of rings (size 3 to 8) (size 9 to 14) (size 15 to 20)
#    0.000    2.222    0.000    4.333    0.000    9.778 
#    0.000    0.000    0.000    0.000    0.000    0.000 
#    0.000    0.000    0.000    1.000    0.000   14.000 
#
# Total GULP energy -200440.464162 kJ/mol
# GULP energy per Si atom -5567.790671 kJ/mol
# Density = 0.791844 g / cm^3
# Si number density = 7.936508 Si / 1000 Ang^3
#
#
#
# Elastic Constant Matrix: (Units=GPa)
#
#
# Indices 1 2 3 4 5 6 
#
# 1 31.9869 19.4512 23.4312 0.0000 0.0000 0.0000
# 2 19.4512 4.3247 23.9082 0.0000 0.0000 0.0000
# 3 23.4312 23.9082 122.0444 0.0000 0.0000 0.0000
# 4 0.0000 0.0000 0.0000 18.9395 0.0000 0.0000
# 5 0.0000 0.0000 0.0000 0.0000 28.3969 0.0000
# 6 0.0000 0.0000 0.0000 0.0000 0.0000 8.4908
#
#
#
# Elastic Compliance Matrix: (Units=1/GPa)
#
#
# Indices 1 2 3 4 5 6 
#
# 1 0.001556 0.064413 -0.012917 0.000000 0.000000 0.000000
# 2 0.064413 -0.119143 0.010973 0.000000 0.000000 0.000000
# 3 -0.012917 0.010973 0.008524 0.000000 0.000000 0.000000
# 4 0.000000 0.000000 0.000000 0.052800 0.000000 0.000000
# 5 0.000000 0.000000 0.000000 0.000000 0.035215 0.000000
# 6 0.000000 0.000000 0.000000 0.000000 0.000000 0.117774
#
#
# Mechanical properties :
#
#
# Convention : Reuss Voigt Hill
#
# Bulk Modulus (GPa) = 62.99372 32.43747 47.71559
# Shear Modulus (GPa) = -218.14499 17.26979 -100.43760
#
# Velocity S-wave (km/s) = -11.73583 3.30206 -7.96323
# Velocity P-wave (km/s) = 11.99447 5.91761 7.37731
#
# Compressibility (1/GPa) = 0.01587460
#
# Stress axis : x y z
#
# Youngs Moduli (GPa) = 642.87435 -8.39329 117.31590
#
# Poissons Ratio (x) = 0.54063 1.51536
# Poissons Ratio (y) = -41.40919 -1.28735
# Poissons Ratio (z) = 8.30396 0.09210
#
# Static dielectric constant tensor:
#      x y z
#    x 1.519660 0.000000 0.000000 
#    y 0.000000 1.514120 0.000000 
#    z 0.000000 0.000000 1.553720 
# 
# From -- ./inp_files/6084.got.cif
#   From: 2010.05.17/outbox.ucp.g08.bks.cvg/sg63_4_cif.got.tgz:6084.got - 2010.06.11 16:32:19.
