data_PCOD9476250
_publ_section_title
;
Structure prediction by ZEFSAII (Michael W. Deem and Ramdas Pophale) SiO2 
 PCOD9476250
Probable space group: C M C M
;
_chemical_formula_sum "Si O2"
_cell_formula_units_Z 52
_cell_length_a 27.000000
_cell_length_b 21.000000
_cell_length_c 9.000000
_cell_angle_alpha 90.000000
_cell_angle_beta 90.000000
_cell_angle_gamma 90.000000
_cell_volume 5103.000000
_symmetry_space_group_name_H-M "C M C M"
_symmetry_group_IT_number 63
_symmetry_cell_setting 'orthorhombic'
loop_
_space_group_symop_operation_xyz
x,y,z
-x,-y,1/2+z
x,-y,-z
-x,y,1/2-z
-x,-y,-z
x,y,1/2-z
-x,y,z
x,-y,1/2+z
1/2+x,1/2+y,z
1/2-x,1/2-y,1/2+z
1/2+x,1/2-y,-z
1/2-x,1/2+y,1/2-z
1/2-x,1/2-y,-z
1/2+x,1/2+y,1/2-z
1/2-x,1/2+y,z
1/2+x,1/2-y,1/2+z
loop_
_atom_site_type_symbol
_atom_site_label
_atom_site_fract_x
_atom_site_fract_y
_atom_site_fract_z
Si Si1 0.785493 0.650110 0.428402
Si Si2 0.443241 0.842674 0.918564
Si Si3 0.643096 0.262202 0.079469
Si Si4 0.873326 0.568142 0.925541
Si Si5 0.000000 0.930307 0.928651
Si Si6 0.294674 0.434846 0.072997
Si Si7 0.609945 0.386918 0.925737
O O1 0.780917 0.643173 0.250000
O O2 0.807945 0.720662 0.456337
O O3 0.828523 0.604830 0.493312
O O4 0.735949 0.625245 0.507853
O O5 0.440335 0.869805 0.750000
O O6 0.500000 0.823237 0.944613
O O7 0.403967 0.785345 0.921027
O O8 0.423065 0.893019 0.036255
O O9 0.648250 0.287001 0.250000
O O10 0.628821 0.316387 0.964342
O O11 0.864393 0.564990 0.750000
O O12 0.877077 0.500000 0.000000
O O13 0.052245 0.896601 0.968816
O O14 0.000000 0.935613 0.750000
O O15 0.000000 0.000000 0.000000
O O16 0.290555 0.437385 0.250000
O O17 0.274245 0.500000 0.000000
O O18 0.351551 0.428767 0.020199
O O19 0.615080 0.400503 0.750000
#
# Coordination Sequence:
#
# PCOD9476250 Si02
#       7
#    16  16  16  16   8  16  16
#     4  10  21  40  63  88 122 161 203 250 302 362
#     4   9  19  36  56  79 111 151 198 253 306 364
#     4   9  20  38  61  90 121 158 204 250 304 364
#     4  11  21  34  53  79 112 152 199 249 305 366
#     4  10  24  44  66  94 126 164 207 256 309 366
#     4  12  25  42  65  94 126 161 206 253 308 369
#     4  11  24  42  64  93 128 164 206 254 309 367
#
# _framework density 10.190084000000001
#
# number of rings (size 3 to 8) (size 9 to 14) (size 15 to 20)
#    0.000    1.692    0.000    5.538    1.077    6.769 
#    0.000    0.000    0.000    0.000    0.000    0.000 
#    0.000    0.000    0.000    0.000    0.000    0.000 
#
# Total GULP energy -290492.239801 kJ/mol
# GULP energy per Si atom -5586.389227 kJ/mol
# Density = 1.016689 g / cm^3
# Si number density = 10.190084 Si / 1000 Ang^3
#
#
#
# Elastic Constant Matrix: (Units=GPa)
#
#
# Indices 1 2 3 4 5 6 
#
# 1 135.8656 30.1598 42.3082 0.0000 0.0000 0.0000
# 2 30.1598 80.0080 43.5919 0.0000 0.0000 0.0000
# 3 42.3082 43.5919 112.6255 0.0000 0.0000 0.0000
# 4 0.0000 0.0000 0.0000 32.7526 0.0000 0.0000
# 5 0.0000 0.0000 0.0000 0.0000 31.8502 0.0000
# 6 0.0000 0.0000 0.0000 0.0000 0.0000 22.9154
#
#
#
# Elastic Compliance Matrix: (Units=1/GPa)
#
#
# Indices 1 2 3 4 5 6 
#
# 1 0.008550 -0.001867 -0.002489 0.000000 0.000000 0.000000
# 2 -0.001867 0.016246 -0.005587 0.000000 0.000000 0.000000
# 3 -0.002489 -0.005587 0.011977 0.000000 0.000000 0.000000
# 4 0.000000 0.000000 0.000000 0.030532 0.000000 0.000000
# 5 0.000000 0.000000 0.000000 0.000000 0.031397 0.000000
# 6 0.000000 0.000000 0.000000 0.000000 0.000000 0.043639
#
#
# Mechanical properties :
#
#
# Convention : Reuss Voigt Hill
#
# Bulk Modulus (GPa) = 59.21745 62.29098 60.75422
# Shear Modulus (GPa) = 29.78758 31.66625 30.72691
#
# Velocity S-wave (km/s) = 3.82723 3.94607 3.88711
# Velocity P-wave (km/s) = 6.97494 7.16888 7.07257
#
# Compressibility (1/GPa) = 0.01688691
#
# Stress axis : x y z
#
# Youngs Moduli (GPa) = 116.96282 61.55193 83.49655
#
# Poissons Ratio (x) = 0.11490 0.20784
# Poissons Ratio (y) = 0.21833 0.46650
# Poissons Ratio (z) = 0.29115 0.34389
#
# Static dielectric constant tensor:
#      x y z
#    x 1.736200 0.000000 0.000000 
#    y 0.000000 1.774180 0.000000 
#    z 0.000000 0.000000 1.687090 
# 
# From -- ./inp_files/12612.got.cif
#   From: 2010.05.17/outbox.ucp.g08.bks.cvg/sg63_7_cif.got.tgz:12612.got - 2010.06.11 16:32:19.
