data_PCOD9476746
_publ_section_title
;
Structure prediction by ZEFSAII (Michael W. Deem and Ramdas Pophale) SiO2 
 PCOD9476746
Probable space group: C M C A
;
_chemical_formula_sum "Si O2"
_cell_formula_units_Z 96
_cell_length_a 16.966282
_cell_length_b 19.532891
_cell_length_c 13.980281
_cell_angle_alpha 90.000000
_cell_angle_beta 90.000000
_cell_angle_gamma 90.000000
_cell_volume 4633.072631
_symmetry_space_group_name_H-M "C M C A"
_symmetry_group_IT_number 64
_symmetry_cell_setting 'orthorhombic'
loop_
_space_group_symop_operation_xyz
x,y,z
-x,1/2-y,1/2+z
x,-y,-z
-x,1/2+y,1/2-z
-x,-y,-z
x,1/2+y,1/2-z
-x,y,z
x,1/2-y,1/2+z
1/2+x,1/2+y,z
1/2-x,-y,1/2+z
1/2+x,1/2-y,-z
1/2-x,y,1/2-z
1/2-x,1/2-y,-z
1/2+x,y,1/2-z
1/2-x,1/2+y,z
1/2+x,-y,1/2+z
loop_
_atom_site_type_symbol
_atom_site_label
_atom_site_fract_x
_atom_site_fract_y
_atom_site_fract_z
Si Si1 0.756434 0.577407 0.605134
Si Si2 0.737556 0.731688 0.640392
Si Si3 0.290659 0.569527 0.122303
Si Si4 0.409020 0.311017 0.826138
Si Si5 0.915668 0.573564 0.948668
Si Si6 0.146135 0.840641 0.620929
O O1 0.770113 0.655096 0.635902
O O2 0.776619 0.573110 0.492554
O O3 0.796919 0.510385 0.649560
O O4 0.661796 0.571913 0.615590
O O5 0.750000 0.755549 0.750000
O O6 0.645219 0.750053 0.629634
O O7 0.794459 0.782205 0.582099
O O8 0.363687 0.619022 0.143999
O O9 0.207555 0.601214 0.158459
O O10 0.500000 0.308182 0.855348
O O11 0.403356 0.312497 0.709993
O O12 0.902271 0.627624 0.034231
O O13 0.000000 0.585257 0.900667
O O14 0.917042 0.500000 0.000000
#
# Coordination Sequence:
#
# PCOD9476746 Si02
#       6
#    16  16  16  16  16  16
#     4  10  18  35  51  76 107 136 172 219 254 312
#     4   9  20  34  54  74 102 140 178 210 259 315
#     4   9  18  33  55  77 101 137 178 211 258 305
#     4  10  20  34  53  78 104 135 176 217 260 308
#     4  10  18  30  50  77 104 129 162 211 270 306
#     4   9  17  34  52  73  99 138 173 211 250 314
#
# _framework density 20.720590000000001
#
# number of rings (size 3 to 8) (size 9 to 14) (size 15 to 20)
#    0.000    2.500    3.333    2.000    0.000    8.000 
#    0.000    1.667    0.000   11.000    0.000    0.000 
#    0.000    0.000    0.000    0.000    0.000    0.000 
#
# Total GULP energy -267472.699401 kJ/mol
# GULP energy per Si atom -5572.347904 kJ/mol
# Density = 2.067343 g / cm^3
# Si number density = 20.720590 Si / 1000 Ang^3
#
#
#
# Elastic Constant Matrix: (Units=GPa)
#
#
# Indices 1 2 3 4 5 6 
#
# 1 102.0913 15.3097 1.8986 0.0000 0.0000 0.0000
# 2 15.3097 129.1150 3.6793 0.0000 0.0000 0.0000
# 3 1.8986 3.6793 38.6492 0.0000 0.0000 0.0000
# 4 0.0000 0.0000 0.0000 18.3450 0.0000 0.0000
# 5 0.0000 0.0000 0.0000 0.0000 13.9720 0.0000
# 6 0.0000 0.0000 0.0000 0.0000 0.0000 0.3222
#
#
#
# Elastic Compliance Matrix: (Units=1/GPa)
#
#
# Indices 1 2 3 4 5 6 
#
# 1 0.009978 -0.001172 -0.000379 0.000000 0.000000 0.000000
# 2 -0.001172 0.007904 -0.000695 0.000000 0.000000 0.000000
# 3 -0.000379 -0.000695 0.025958 0.000000 0.000000 0.000000
# 4 0.000000 0.000000 0.000000 0.054511 0.000000 0.000000
# 5 0.000000 0.000000 0.000000 0.000000 0.071571 0.000000
# 6 0.000000 0.000000 0.000000 0.000000 0.000000 3.103393
#
#
# Mechanical properties :
#
#
# Convention : Reuss Voigt Hill
#
# Bulk Modulus (GPa) = 25.41369 34.62562 30.01966
# Shear Modulus (GPa) = 1.51933 23.12573 12.32253
#
# Velocity S-wave (km/s) = 0.85723 3.34439 2.44129
# Velocity P-wave (km/s) = 3.64299 5.62675 4.73981
#
# Compressibility (1/GPa) = 0.03934887
#
# Stress axis : x y z
#
# Youngs Moduli (GPa) = 100.22051 126.52071 38.52304
#
# Poissons Ratio (x) = 0.14833 0.01458
# Poissons Ratio (y) = 0.11749 0.02677
# Poissons Ratio (z) = 0.03794 0.08791
#
# Static dielectric constant tensor:
#      x y z
#    x 1.753770 0.000000 0.000000 
#    y 0.000000 1.808380 0.000000 
#    z 0.000000 0.000000 1.823740 
# 
# From -- ./inp_files/33295.got.cif
#   From: 2010.05.17/outbox.cif.g08.bks.cpg/sg64_17_cif.got.tgz:33295.got - 2010.06.03 16:29:19.
