data_PCOD9476166
_publ_section_title
;
Structure prediction by ZEFSAII (Michael W. Deem and Ramdas Pophale) SiO2 
 PCOD9476166
Probable space group: C M C M
;
_chemical_formula_sum "Si O2"
_cell_formula_units_Z 48
_cell_length_a 21.000000
_cell_length_b 15.000000
_cell_length_c 15.000000
_cell_angle_alpha 90.000000
_cell_angle_beta 90.000000
_cell_angle_gamma 90.000000
_cell_volume 4725.000000
_symmetry_space_group_name_H-M "C M C M"
_symmetry_group_IT_number 63
_symmetry_cell_setting 'orthorhombic'
loop_
_space_group_symop_operation_xyz
x,y,z
-x,-y,1/2+z
x,-y,-z
-x,y,1/2-z
-x,-y,-z
x,y,1/2-z
-x,y,z
x,-y,1/2+z
1/2+x,1/2+y,z
1/2-x,1/2-y,1/2+z
1/2+x,1/2-y,-z
1/2-x,1/2+y,1/2-z
1/2-x,1/2-y,-z
1/2+x,1/2+y,1/2-z
1/2-x,1/2+y,z
1/2+x,1/2-y,1/2+z
loop_
_atom_site_type_symbol
_atom_site_label
_atom_site_fract_x
_atom_site_fract_y
_atom_site_fract_z
Si Si1 0.074822 0.306074 0.148363
Si Si2 0.600014 0.437096 0.145077
Si Si3 0.233415 0.833981 0.149167
Si Si4 0.164414 0.539169 0.593216
Si Si5 0.886307 0.123005 0.056683
Si Si6 0.751055 0.872850 0.854190
O O1 0.086231 0.276700 0.250000
O O2 0.108715 0.401922 0.136279
O O3 0.097864 0.223444 0.087410
O O4 0.000000 0.317216 0.133843
O O5 0.575816 0.422384 0.250000
O O6 0.671007 0.395460 0.151482
O O7 0.590238 0.541520 0.120663
O O8 0.586568 0.393612 0.044426
O O9 0.261301 0.838761 0.250000
O O10 0.281989 0.883585 0.084257
O O11 0.224048 0.728379 0.131133
O O12 0.141795 0.500000 0.500000
O O13 0.200002 0.453710 0.637687
O O14 0.809689 0.114274 0.076538
O O15 0.774084 0.875450 0.750000
#
# Coordination Sequence:
#
# PCOD9476166 Si02
#       6
#    16  16  16  16  16  16
#     4  11  25  46  69  91 123 172 229 280 318 372
#     4  10  21  36  56  93 138 169 199 257 333 401
#     4  10  20  34  55  88 131 168 204 253 321 396
#     4  12  24  36  59  94 131 172 213 269 325 392
#     4  11  21  36  65  94 126 170 218 264 322 390
#     4  11  21  34  58  93 132 169 210 263 327 394
#
# _framework density 10.15873
#
# number of rings (size 3 to 8) (size 9 to 14) (size 15 to 20)
#    0.000    1.167    3.333    4.000    2.333    1.667 
#    0.000    1.667    0.000    1.500    0.000    0.000 
#    0.000    0.000    0.000    0.000    0.000    0.000 
#
# Total GULP energy -267235.829193 kJ/mol
# GULP energy per Si atom -5567.413108 kJ/mol
# Density = 1.013561 g / cm^3
# Si number density = 10.158730 Si / 1000 Ang^3
#
#
#
# Elastic Constant Matrix: (Units=GPa)
#
#
# Indices 1 2 3 4 5 6 
#
# 1 63.7784 27.3755 21.1041 0.0000 0.0000 0.0000
# 2 27.3755 139.2917 30.5240 0.0000 0.0000 0.0000
# 3 21.1041 30.5240 114.5497 0.0000 0.0000 0.0000
# 4 0.0000 0.0000 0.0000 43.2662 0.0000 0.0000
# 5 0.0000 0.0000 0.0000 0.0000 2.4034 0.0000
# 6 0.0000 0.0000 0.0000 0.0000 0.0000 13.7339
#
#
#
# Elastic Compliance Matrix: (Units=1/GPa)
#
#
# Indices 1 2 3 4 5 6 
#
# 1 0.017767 -0.002947 -0.002488 0.000000 0.000000 0.000000
# 2 -0.002947 0.008113 -0.001619 0.000000 0.000000 0.000000
# 3 -0.002488 -0.001619 0.009620 0.000000 0.000000 0.000000
# 4 0.000000 0.000000 0.000000 0.023113 0.000000 0.000000
# 5 0.000000 0.000000 0.000000 0.000000 0.416082 0.000000
# 6 0.000000 0.000000 0.000000 0.000000 0.000000 0.072813
#
#
# Mechanical properties :
#
#
# Convention : Reuss Voigt Hill
#
# Bulk Modulus (GPa) = 46.74545 52.84745 49.79645
# Shear Modulus (GPa) = 8.79128 27.78844 18.28986
#
# Velocity S-wave (km/s) = 2.08239 3.70227 3.00359
# Velocity P-wave (km/s) = 5.37022 6.65906 6.04906
#
# Compressibility (1/GPa) = 0.02139246
#
# Stress axis : x y z
#
# Youngs Moduli (GPa) = 56.28282 123.25778 103.95369
#
# Poissons Ratio (x) = 0.36320 0.25866
# Poissons Ratio (y) = 0.16584 0.16830
# Poissons Ratio (z) = 0.14004 0.19956
#
# Static dielectric constant tensor:
#      x y z
#    x 1.762650 0.000000 0.000000 
#    y 0.000000 1.690740 0.000000 
#    z 0.000000 0.000000 1.796680 
# 
# From -- ./inp_files/35297.got.cif
#   From: 2010.05.17/outbox.ucp.g08.bks.cvg/sg63_18_cif.got.tgz:35297.got - 2010.06.11 16:32:19.
