data_PCOD9476329
_publ_section_title
;
Structure prediction by ZEFSAII (Michael W. Deem and Ramdas Pophale) SiO2 
 PCOD9476329
Probable space group: C M C A
;
_chemical_formula_sum "Si O2"
_cell_formula_units_Z 40
_cell_length_a 12.349757
_cell_length_b 27.500059
_cell_length_c 5.364153
_cell_angle_alpha 90.000000
_cell_angle_beta 90.000000
_cell_angle_gamma 90.000000
_cell_volume 1821.768525
_symmetry_space_group_name_H-M "C M C A"
_symmetry_group_IT_number 64
_symmetry_cell_setting 'orthorhombic'
loop_
_space_group_symop_operation_xyz
x,y,z
-x,1/2-y,1/2+z
x,-y,-z
-x,1/2+y,1/2-z
-x,-y,-z
x,1/2+y,1/2-z
-x,y,z
x,1/2-y,1/2+z
1/2+x,1/2+y,z
1/2-x,-y,1/2+z
1/2+x,1/2-y,-z
1/2-x,y,1/2-z
1/2-x,1/2-y,-z
1/2+x,y,1/2-z
1/2-x,1/2+y,z
1/2+x,-y,1/2+z
loop_
_atom_site_type_symbol
_atom_site_label
_atom_site_fract_x
_atom_site_fract_y
_atom_site_fract_z
Si Si1 0.679728 0.000000 0.000000
Si Si2 0.625343 0.268505 0.110682
Si Si3 0.500000 0.418043 0.449798
Si Si4 0.500000 0.643598 0.051424
O O1 0.603516 0.952794 0.019551
O O2 0.750000 0.996716 0.750000
O O3 0.500000 0.250849 0.157127
O O4 0.667779 0.267141 0.393590
O O5 0.604947 0.321757 0.996616
O O6 0.500000 0.394500 0.175523
O O7 0.500000 0.379180 0.675130
#
# Coordination Sequence:
#
# PCOD9476329 Si02
#       4
#     8  16   8   8
#     4  11  24  43  58  76 112 143 174 227 286 334
#     4   8  13  22  38  66 112 144 160 210 263 296
#     4  11  22  35  60  85 102 143 186 221 274 321
#     4  10  16  28  48  81 114 131 182 232 244 314
#
# _framework density 21.956686000000001
#
# number of rings (size 3 to 8) (size 9 to 14) (size 15 to 20)
#    1.200    1.200    0.000    4.800    0.000    3.200 
#    0.000    0.000    0.000    0.000    0.000    0.000 
#    0.000  448.000    0.000    0.000    0.000    0.000 
#
# Total GULP energy -111498.636192 kJ/mol
# GULP energy per Si atom -5574.931810 kJ/mol
# Density = 2.190671 g / cm^3
# Si number density = 21.956686 Si / 1000 Ang^3
#
#
#
# Elastic Constant Matrix: (Units=GPa)
#
#
# Indices 1 2 3 4 5 6 
#
# 1 26.5646 -1.5414 10.9185 0.0000 0.0000 0.0000
# 2 -1.5414 55.7176 -19.7307 0.0000 0.0000 0.0000
# 3 10.9185 -19.7307 86.6265 0.0000 0.0000 0.0000
# 4 0.0000 0.0000 0.0000 55.7008 0.0000 0.0000
# 5 0.0000 0.0000 0.0000 0.0000 61.8695 0.0000
# 6 0.0000 0.0000 0.0000 0.0000 0.0000 -0.6010
#
#
#
# Elastic Compliance Matrix: (Units=1/GPa)
#
#
# Indices 1 2 3 4 5 6 
#
# 1 0.039728 -0.000733 -0.005174 0.000000 0.000000 0.000000
# 2 -0.000733 0.019536 0.004542 0.000000 0.000000 0.000000
# 3 -0.005174 0.004542 0.013231 0.000000 0.000000 0.000000
# 4 0.000000 0.000000 0.000000 0.017953 0.000000 0.000000
# 5 0.000000 0.000000 0.000000 0.000000 0.016163 0.000000
# 6 0.000000 0.000000 0.000000 0.000000 0.000000 -1.663987
#
#
# Mechanical properties :
#
#
# Convention : Reuss Voigt Hill
#
# Bulk Modulus (GPa) = 14.33420 16.46684 15.40052
# Shear Modulus (GPa) = -3.26501 35.34469 16.03984
#
# Velocity S-wave (km/s) = -1.22076 4.01652 2.70575
# Velocity P-wave (km/s) = 2.13438 5.38756 4.09765
#
# Compressibility (1/GPa) = 0.06976322
#
# Stress axis : x y z
#
# Youngs Moduli (GPa) = 25.17101 51.18807 75.58278
#
# Poissons Ratio (x) = 0.03754 0.39110
# Poissons Ratio (y) = 0.01846 -0.34330
# Poissons Ratio (z) = 0.13024 -0.23250
#
# Static dielectric constant tensor:
#      x y z
#    x 2.048330 0.000000 0.000000 
#    y 0.000000 1.795500 0.000000 
#    z 0.000000 0.000000 1.804490 
# 
# From -- ./inp_files/786.got.cif
#   From: 2010.05.17/outbox.cif.g08.bks.cpg/sg64_1_cif.got.tgz:786.got - 2010.06.03 16:29:19.
