data_PCOD9476378
_publ_section_title
;
Structure prediction by ZEFSAII (Michael W. Deem and Ramdas Pophale) SiO2 
 PCOD9476378
Probable space group: C M C A
;
_chemical_formula_sum "Si O2"
_cell_formula_units_Z 56
_cell_length_a 5.590107
_cell_length_b 24.125591
_cell_length_c 20.113031
_cell_angle_alpha 90.000000
_cell_angle_beta 90.000000
_cell_angle_gamma 90.000000
_cell_volume 2712.536587
_symmetry_space_group_name_H-M "C M C A"
_symmetry_group_IT_number 64
_symmetry_cell_setting 'orthorhombic'
loop_
_space_group_symop_operation_xyz
x,y,z
-x,1/2-y,1/2+z
x,-y,-z
-x,1/2+y,1/2-z
-x,-y,-z
x,1/2+y,1/2-z
-x,y,z
x,1/2-y,1/2+z
1/2+x,1/2+y,z
1/2-x,-y,1/2+z
1/2+x,1/2-y,-z
1/2-x,y,1/2-z
1/2-x,1/2-y,-z
1/2+x,y,1/2-z
1/2-x,1/2+y,z
1/2+x,-y,1/2+z
loop_
_atom_site_type_symbol
_atom_site_label
_atom_site_fract_x
_atom_site_fract_y
_atom_site_fract_z
Si Si1 0.000000 0.801392 0.208219
Si Si2 0.500000 0.824625 0.827046
Si Si3 0.750336 0.434633 0.517399
Si Si4 0.000000 0.402002 0.394040
Si Si5 0.000000 0.629638 0.325029
Si Si6 0.500000 0.000127 0.710550
O O1 0.750000 0.805184 0.250000
O O2 0.000000 0.741754 0.172732
O O3 0.000000 0.851096 0.155326
O O4 0.249370 0.847891 0.855057
O O5 0.500000 0.843113 0.749555
O O6 0.751649 0.500000 0.500000
O O7 0.500000 0.422803 0.550470
O O8 0.000000 0.422544 0.553493
O O9 0.780595 0.404324 0.446381
O O10 0.000000 0.458389 0.351688
O O11 0.000000 0.564172 0.309620
O O12 0.250000 0.010433 0.750000
#
# Coordination Sequence:
#
# PCOD9476378 Si02
#       6
#     8   8  16   8   8   8
#     4  12  22  31  44  64  97 131 152 185 217 264
#     4  10  16  32  47  57  76 120 169 195 210 236
#     4   8  16  32  49  63  86 115 147 187 221 271
#     4  10  23  30  46  70 100 118 151 174 238 282
#     4  10  16  32  47  57  76 120 169 195 210 236
#     4  12  22  31  44  64  97 131 152 185 217 264
#
# _framework density 20.644884000000001
#
# number of rings (size 3 to 8) (size 9 to 14) (size 15 to 20)
#    0.857    1.143    5.714    0.857    4.000    0.000 
#    0.000    0.000    0.000    0.000    0.000    0.000 
#    0.000    9.143    0.000    0.000    0.000    0.000 
#
# Total GULP energy -155973.202821 kJ/mol
# GULP energy per Si atom -5570.471529 kJ/mol
# Density = 2.059790 g / cm^3
# Si number density = 20.644884 Si / 1000 Ang^3
#
#
#
# Elastic Constant Matrix: (Units=GPa)
#
#
# Indices 1 2 3 4 5 6 
#
# 1 231.6529 23.5063 23.5775 0.0000 0.0000 0.0000
# 2 23.5063 111.1227 10.8645 0.0000 0.0000 0.0000
# 3 23.5775 10.8645 27.6562 0.0000 0.0000 0.0000
# 4 0.0000 0.0000 0.0000 11.9460 0.0000 0.0000
# 5 0.0000 0.0000 0.0000 0.0000 28.5928 0.0000
# 6 0.0000 0.0000 0.0000 0.0000 0.0000 53.5314
#
#
#
# Elastic Compliance Matrix: (Units=1/GPa)
#
#
# Indices 1 2 3 4 5 6 
#
# 1 0.004770 -0.000636 -0.003817 0.000000 0.000000 0.000000
# 2 -0.000636 0.009443 -0.003168 0.000000 0.000000 0.000000
# 3 -0.003817 -0.003168 0.040656 0.000000 0.000000 0.000000
# 4 0.000000 0.000000 0.000000 0.083710 0.000000 0.000000
# 5 0.000000 0.000000 0.000000 0.000000 0.034974 0.000000
# 6 0.000000 0.000000 0.000000 0.000000 0.000000 0.018681
#
#
# Mechanical properties :
#
#
# Convention : Reuss Voigt Hill
#
# Bulk Modulus (GPa) = 25.23387 54.03651 39.63519
# Shear Modulus (GPa) = 22.65689 39.64627 31.15158
#
# Velocity S-wave (km/s) = 3.31638 4.38698 3.88870
# Velocity P-wave (km/s) = 5.18786 7.20360 6.27717
#
# Compressibility (1/GPa) = 0.03962928
#
# Stress axis : x y z
#
# Youngs Moduli (GPa) = 209.65372 105.89563 24.59643
#
# Poissons Ratio (x) = 0.06733 0.09387
# Poissons Ratio (y) = 0.13330 0.07791
# Poissons Ratio (z) = 0.80016 0.33544
#
# Static dielectric constant tensor:
#      x y z
#    x 1.835740 0.000000 0.000000 
#    y 0.000000 1.679570 0.000000 
#    z 0.000000 0.000000 1.739790 
# 
# From -- ./inp_files/2176.got.cif
#   From: 2010.05.17/outbox.cif.g08.bks.cpg/sg64_2_cif.got.tgz:2176.got - 2010.06.03 16:29:19.
