data_PCOD9476335
_publ_section_title
;
Structure prediction by ZEFSAII (Michael W. Deem and Ramdas Pophale) SiO2 
 PCOD9476335
Probable space group: C M C A
;
_chemical_formula_sum "Si O2"
_cell_formula_units_Z 112
_cell_length_a 16.153847
_cell_length_b 20.251077
_cell_length_c 14.902481
_cell_angle_alpha 90.000000
_cell_angle_beta 90.000000
_cell_angle_gamma 90.000000
_cell_volume 4875.090328
_symmetry_space_group_name_H-M "C M C A"
_symmetry_group_IT_number 64
_symmetry_cell_setting 'orthorhombic'
loop_
_space_group_symop_operation_xyz
x,y,z
-x,1/2-y,1/2+z
x,-y,-z
-x,1/2+y,1/2-z
-x,-y,-z
x,1/2+y,1/2-z
-x,y,z
x,1/2-y,1/2+z
1/2+x,1/2+y,z
1/2-x,-y,1/2+z
1/2+x,1/2-y,-z
1/2-x,y,1/2-z
1/2-x,1/2-y,-z
1/2+x,y,1/2-z
1/2-x,1/2+y,z
1/2+x,-y,1/2+z
loop_
_atom_site_type_symbol
_atom_site_label
_atom_site_fract_x
_atom_site_fract_y
_atom_site_fract_z
Si Si1 0.901613 0.597066 0.673964
Si Si2 0.404174 0.613297 0.613631
Si Si3 0.159285 0.536419 0.295595
Si Si4 0.819229 0.319039 0.671456
Si Si5 0.818219 0.833682 0.545271
Si Si6 0.402993 0.261971 0.179474
Si Si7 0.406753 0.461046 0.604308
O O1 0.888631 0.607505 0.781085
O O2 0.856029 0.529768 0.647333
O O3 0.868618 0.668122 0.642486
O O4 0.000000 0.589326 0.656366
O O5 0.500000 0.633493 0.601975
O O6 0.343909 0.660196 0.557700
O O7 0.395501 0.537706 0.577634
O O8 0.250000 0.530775 0.250000
O O9 0.144450 0.607561 0.339760
O O10 0.096264 0.535301 0.212419
O O11 0.750000 0.327518 0.750000
O O12 0.769869 0.306800 0.579394
O O13 0.873874 0.264448 0.722359
O O14 0.882394 0.791945 0.604786
O O15 0.835393 0.908829 0.580057
O O16 0.500000 0.271707 0.187555
O O17 0.500000 0.438704 0.579635
#
# Coordination Sequence:
#
# PCOD9476335 Si02
#       7
#    16  16  16  16  16  16  16
#     4   9  20  34  49  73 103 134 172 211 255 309
#     4   9  18  30  47  74 106 133 157 204 266 316
#     4  10  16  29  46  68  98 134 161 196 247 296
#     4   9  18  30  45  70 101 127 163 209 245 296
#     4  11  18  29  48  75 104 129 163 205 255 312
#     4  10  19  32  50  71  98 135 175 214 250 295
#     4  10  17  27  46  75 105 130 158 198 255 314
#
# _framework density 22.973932999999999
#
# number of rings (size 3 to 8) (size 9 to 14) (size 15 to 20)
#    0.000    2.286    4.286    3.000    0.000    3.429 
#    0.000    0.714    0.000    0.000    0.000    0.000 
#    0.000    6.857    0.000    0.571    0.000    0.000 
#
# Total GULP energy -312162.750929 kJ/mol
# GULP energy per Si atom -5574.334838 kJ/mol
# Density = 2.292164 g / cm^3
# Si number density = 22.973933 Si / 1000 Ang^3
#
#
#
# Elastic Constant Matrix: (Units=GPa)
#
#
# Indices 1 2 3 4 5 6 
#
# 1 38.0242 15.2227 -9.8520 0.0000 0.0000 0.0000
# 2 15.2227 101.8753 -18.3509 0.0000 0.0000 0.0000
# 3 -9.8520 -18.3509 19.1138 0.0000 0.0000 0.0000
# 4 0.0000 0.0000 0.0000 20.5729 0.0000 0.0000
# 5 0.0000 0.0000 0.0000 0.0000 13.8701 0.0000
# 6 0.0000 0.0000 0.0000 0.0000 0.0000 14.7808
#
#
#
# Elastic Compliance Matrix: (Units=1/GPa)
#
#
# Indices 1 2 3 4 5 6 
#
# 1 0.030720 -0.002102 0.013817 0.000000 0.000000 0.000000
# 2 -0.002102 0.012012 0.010450 0.000000 0.000000 0.000000
# 3 0.013817 0.010450 0.069472 0.000000 0.000000 0.000000
# 4 0.000000 0.000000 0.000000 0.048608 0.000000 0.000000
# 5 0.000000 0.000000 0.000000 0.000000 0.072097 0.000000
# 6 0.000000 0.000000 0.000000 0.000000 0.000000 0.067655
#
#
# Mechanical properties :
#
#
# Convention : Reuss Voigt Hill
#
# Bulk Modulus (GPa) = 6.38839 14.78366 10.58602
# Shear Modulus (GPa) = 16.21200 21.31101 18.76151
#
# Velocity S-wave (km/s) = 2.65933 3.04898 2.86080
# Velocity P-wave (km/s) = 3.49515 4.34097 3.94082
#
# Compressibility (1/GPa) = 0.15653408
#
# Stress axis : x y z
#
# Youngs Moduli (GPa) = 32.55179 83.24847 14.39425
#
# Poissons Ratio (x) = 0.17495 -0.19888
# Poissons Ratio (y) = 0.06841 -0.15041
# Poissons Ratio (z) = -0.44976 -0.86991
#
# Static dielectric constant tensor:
#      x y z
#    x 1.819630 0.000000 0.000000 
#    y 0.000000 1.958690 0.000000 
#    z 0.000000 0.000000 1.938770 
# 
# From -- ./inp_files/33584.got.cif
#   From: 2010.05.17/outbox.cif.g08.bks.cpg/sg64_17_cif.got.tgz:33584.got - 2010.06.03 16:29:19.
