data_PCOD9476438
_publ_section_title
;
Structure prediction by ZEFSAII (Michael W. Deem and Ramdas Pophale) SiO2 
 PCOD9476438
Probable space group: C M C A
;
_chemical_formula_sum "Si O2"
_cell_formula_units_Z 112
_cell_length_a 16.973182
_cell_length_b 22.025816
_cell_length_c 18.410988
_cell_angle_alpha 90.000000
_cell_angle_beta 90.000000
_cell_angle_gamma 90.000000
_cell_volume 6882.914423
_symmetry_space_group_name_H-M "C M C A"
_symmetry_group_IT_number 64
_symmetry_cell_setting 'orthorhombic'
loop_
_space_group_symop_operation_xyz
x,y,z
-x,1/2-y,1/2+z
x,-y,-z
-x,1/2+y,1/2-z
-x,-y,-z
x,1/2+y,1/2-z
-x,y,z
x,1/2-y,1/2+z
1/2+x,1/2+y,z
1/2-x,-y,1/2+z
1/2+x,1/2-y,-z
1/2-x,y,1/2-z
1/2-x,1/2-y,-z
1/2+x,y,1/2-z
1/2-x,1/2+y,z
1/2+x,-y,1/2+z
loop_
_atom_site_type_symbol
_atom_site_label
_atom_site_fract_x
_atom_site_fract_y
_atom_site_fract_z
Si Si1 0.095030 0.840894 0.373647
Si Si2 0.093491 0.929538 0.506335
Si Si3 0.908971 0.826092 0.218768
Si Si4 0.839864 0.667165 0.111673
Si Si5 0.589837 0.817205 0.739876
Si Si6 0.662277 0.290556 0.909723
Si Si7 0.092958 0.293012 0.434525
O O1 0.105235 0.894682 0.430324
O O2 0.122409 0.857212 0.291745
O O3 0.140331 0.780714 0.400460
O O4 0.000000 0.826589 0.370925
O O5 0.142459 0.892474 0.565688
O O6 0.000000 0.925323 0.524460
O O7 0.114206 0.000000 0.500000
O O8 0.908159 0.755108 0.242383
O O9 0.874242 0.826937 0.137722
O O10 0.000000 0.845055 0.210799
O O11 0.856804 0.655605 0.196531
O O12 0.753652 0.694745 0.099704
O O13 0.896868 0.721190 0.082760
O O14 0.500000 0.837864 0.747844
O O15 0.618458 0.823372 0.657426
O O16 0.634541 0.308280 0.990136
O O17 0.000000 0.304948 0.441498
#
# Coordination Sequence:
#
# PCOD9476438 Si02
#       7
#    16  16  16  16  16  16  16
#     4   9  16  29  47  68 103 135 165 206 247 302
#     4  10  20  33  51  72  94 133 180 212 247 297
#     4   7  13  24  40  62  89 126 159 190 231 279
#     4  11  20  30  45  72 105 130 158 212 259 296
#     4   9  17  30  46  67  97 132 164 190 240 309
#     4  11  19  27  45  75 102 133 158 196 256 314
#     4  10  17  27  43  66 101 136 164 191 237 305
#
# _framework density 16.272176999999999
#
# number of rings (size 3 to 8) (size 9 to 14) (size 15 to 20)
#    0.000    2.429    1.429    5.143    0.000    0.000 
#    0.000    0.000    0.000    0.000    7.429    0.000 
#    0.000    4.000    0.000    0.000    0.000    0.000 
#
# Total GULP energy -311818.675089 kJ/mol
# GULP energy per Si atom -5568.190627 kJ/mol
# Density = 1.623514 g / cm^3
# Si number density = 16.272177 Si / 1000 Ang^3
#
#
#
# Elastic Constant Matrix: (Units=GPa)
#
#
# Indices 1 2 3 4 5 6 
#
# 1 51.1463 28.2895 34.8059 0.0000 0.0000 0.0000
# 2 28.2895 63.7453 39.9966 0.0000 0.0000 0.0000
# 3 34.8059 39.9966 155.0451 0.0000 0.0000 0.0000
# 4 0.0000 0.0000 0.0000 7.7995 0.0000 0.0000
# 5 0.0000 0.0000 0.0000 0.0000 18.3070 0.0000
# 6 0.0000 0.0000 0.0000 0.0000 0.0000 11.6097
#
#
#
# Elastic Compliance Matrix: (Units=1/GPa)
#
#
# Indices 1 2 3 4 5 6 
#
# 1 0.027508 -0.009942 -0.003610 0.000000 0.000000 0.000000
# 2 -0.009942 0.022311 -0.003523 0.000000 0.000000 0.000000
# 3 -0.003610 -0.003523 0.008169 0.000000 0.000000 0.000000
# 4 0.000000 0.000000 0.000000 0.128213 0.000000 0.000000
# 5 0.000000 0.000000 0.000000 0.000000 0.054624 0.000000
# 6 0.000000 0.000000 0.000000 0.000000 0.000000 0.086135
#
#
# Mechanical properties :
#
#
# Convention : Reuss Voigt Hill
#
# Bulk Modulus (GPa) = 41.95489 52.90232 47.42860
# Shear Modulus (GPa) = 13.54804 18.66622 16.10713
#
# Velocity S-wave (km/s) = 2.88859 3.39060 3.14961
# Velocity P-wave (km/s) = 6.07984 6.92168 6.51437
#
# Compressibility (1/GPa) = 0.02383512
#
# Stress axis : x y z
#
# Youngs Moduli (GPa) = 36.35316 44.82187 122.41152
#
# Poissons Ratio (x) = 0.44564 0.44195
# Poissons Ratio (y) = 0.36144 0.43131
# Poissons Ratio (z) = 0.13125 0.15793
#
# Static dielectric constant tensor:
#      x y z
#    x 1.560130 0.000000 0.000000 
#    y 0.000000 1.504930 0.000000 
#    z 0.000000 0.000000 1.613530 
# 
# From -- ./inp_files/33603.got.cif
#   From: 2010.05.17/outbox.cif.g08.bks.cpg/sg64_17_cif.got.tgz:33603.got - 2010.06.03 16:29:19.
