data_PCOD9476776
_publ_section_title
;
Structure prediction by ZEFSAII (Michael W. Deem and Ramdas Pophale) SiO2 
 PCOD9476776
Probable space group: C M C A
;
_chemical_formula_sum "Si O2"
_cell_formula_units_Z 128
_cell_length_a 21.509335
_cell_length_b 18.924515
_cell_length_c 19.045054
_cell_angle_alpha 90.000000
_cell_angle_beta 90.000000
_cell_angle_gamma 90.000000
_cell_volume 7752.360323
_symmetry_space_group_name_H-M "C M C A"
_symmetry_group_IT_number 64
_symmetry_cell_setting 'orthorhombic'
loop_
_space_group_symop_operation_xyz
x,y,z
-x,1/2-y,1/2+z
x,-y,-z
-x,1/2+y,1/2-z
-x,-y,-z
x,1/2+y,1/2-z
-x,y,z
x,1/2-y,1/2+z
1/2+x,1/2+y,z
1/2-x,-y,1/2+z
1/2+x,1/2-y,-z
1/2-x,y,1/2-z
1/2-x,1/2-y,-z
1/2+x,y,1/2-z
1/2-x,1/2+y,z
1/2+x,-y,1/2+z
loop_
_atom_site_type_symbol
_atom_site_label
_atom_site_fract_x
_atom_site_fract_y
_atom_site_fract_z
Si Si1 0.742635 0.302080 0.334077
Si Si2 0.931494 0.259804 0.991625
Si Si3 0.571554 0.210140 0.213969
Si Si4 0.830348 0.320121 0.896777
Si Si5 0.193379 0.427545 0.405261
Si Si6 0.430757 0.853394 0.367735
Si Si7 0.123701 0.711889 0.366615
Si Si8 0.289294 0.408824 0.928576
O O1 0.750000 0.296847 0.250000
O O2 0.791585 0.249801 0.373406
O O3 0.757906 0.379861 0.362231
O O4 0.675173 0.272559 0.353532
O O5 0.873485 0.305382 0.964128
O O6 0.930653 0.192463 0.939491
O O7 0.000000 0.292980 0.983538
O O8 0.920195 0.235387 0.070253
O O9 0.500000 0.192063 0.198076
O O10 0.620774 0.168092 0.166193
O O11 0.579010 0.292886 0.191429
O O12 0.587378 0.200175 0.294740
O O13 0.779152 0.378922 0.911625
O O14 0.125734 0.407157 0.374446
O O15 0.204376 0.510955 0.403101
O O16 0.198296 0.406355 0.487634
O O17 0.500000 0.884179 0.358774
O O18 0.161846 0.642752 0.390645
#
# Coordination Sequence:
#
# PCOD9476776 Si02
#       8
#    16  16  16  16  16  16  16  16
#     4  11  19  32  54  76 104 141 175 220 267 316
#     4  10  18  30  54  81 103 134 178 217 262 314
#     4  10  19  33  56  78 106 136 175 220 268 317
#     4  10  18  36  52  79 104 139 174 218 266 316
#     4  11  19  38  49  79 107 146 183 213 266 326
#     4   9  17  32  53  74 102 143 177 212 253 321
#     4  11  19  33  50  83 109 135 171 233 270 305
#     4  10  23  32  54  75 112 141 174 224 269 315
#
# _framework density 16.511099999999999
#
# number of rings (size 3 to 8) (size 9 to 14) (size 15 to 20)
#    0.000    1.750    5.000    2.250    0.000    2.000 
#    2.250    2.500    0.000    0.000    0.000   17.500 
#    0.000    0.000    0.000    0.000    0.000    0.000 
#
# Total GULP energy -356851.723812 kJ/mol
# GULP energy per Si atom -5575.808185 kJ/mol
# Density = 1.647352 g / cm^3
# Si number density = 16.511100 Si / 1000 Ang^3
#
#
#
# Elastic Constant Matrix: (Units=GPa)
#
#
# Indices 1 2 3 4 5 6 
#
# 1 96.7452 39.2282 22.0846 0.0000 0.0000 0.0000
# 2 39.2282 76.4067 31.9600 0.0000 0.0000 0.0000
# 3 22.0846 31.9600 91.8275 0.0000 0.0000 0.0000
# 4 0.0000 0.0000 0.0000 11.7350 0.0000 0.0000
# 5 0.0000 0.0000 0.0000 0.0000 20.5151 0.0000
# 6 0.0000 0.0000 0.0000 0.0000 0.0000 19.5211
#
#
#
# Elastic Compliance Matrix: (Units=1/GPa)
#
#
# Indices 1 2 3 4 5 6 
#
# 1 0.013124 -0.006341 -0.000949 0.000000 0.000000 0.000000
# 2 -0.006341 0.018382 -0.004873 0.000000 0.000000 0.000000
# 3 -0.000949 -0.004873 0.012814 0.000000 0.000000 0.000000
# 4 0.000000 0.000000 0.000000 0.085215 0.000000 0.000000
# 5 0.000000 0.000000 0.000000 0.000000 0.048745 0.000000
# 6 0.000000 0.000000 0.000000 0.000000 0.000000 0.051227
#
#
# Mechanical properties :
#
#
# Convention : Reuss Voigt Hill
#
# Bulk Modulus (GPa) = 50.01512 50.16945 50.09229
# Shear Modulus (GPa) = 19.19407 21.80135 20.49771
#
# Velocity S-wave (km/s) = 3.41324 3.63768 3.52724
# Velocity P-wave (km/s) = 6.77430 6.93505 6.85515
#
# Compressibility (1/GPa) = 0.01999395
#
# Stress axis : x y z
#
# Youngs Moduli (GPa) = 76.19436 54.40231 78.03848
#
# Poissons Ratio (x) = 0.34497 0.07409
# Poissons Ratio (y) = 0.48315 0.38025
# Poissons Ratio (z) = 0.07234 0.26508
#
# Static dielectric constant tensor:
#      x y z
#    x 1.577220 0.000000 0.000000 
#    y 0.000000 1.527300 0.000000 
#    z 0.000000 0.000000 1.561170 
# 
# From -- ./inp_files/41153.got.cif
#   From: 2010.05.17/outbox.cif.g08.bks.cpg/sg64_21_cif.got.tgz:41153.got - 2010.06.03 16:29:19.
