data_PCOD9476302
_publ_section_title
;
Structure prediction by ZEFSAII (Michael W. Deem and Ramdas Pophale) SiO2 
 PCOD9476302
Probable space group: C M C A
;
_chemical_formula_sum "Si O2"
_cell_formula_units_Z 80
_cell_length_a 30.746027
_cell_length_b 25.571414
_cell_length_c 5.395531
_cell_angle_alpha 90.000000
_cell_angle_beta 90.000000
_cell_angle_gamma 90.000000
_cell_volume 4242.071066
_symmetry_space_group_name_H-M "C M C A"
_symmetry_group_IT_number 64
_symmetry_cell_setting 'orthorhombic'
loop_
_space_group_symop_operation_xyz
x,y,z
-x,1/2-y,1/2+z
x,-y,-z
-x,1/2+y,1/2-z
-x,-y,-z
x,1/2+y,1/2-z
-x,y,z
x,1/2-y,1/2+z
1/2+x,1/2+y,z
1/2-x,-y,1/2+z
1/2+x,1/2-y,-z
1/2-x,y,1/2-z
1/2-x,1/2-y,-z
1/2+x,y,1/2-z
1/2-x,1/2+y,z
1/2+x,-y,1/2+z
loop_
_atom_site_type_symbol
_atom_site_label
_atom_site_fract_x
_atom_site_fract_y
_atom_site_fract_z
Si Si1 0.935164 0.776980 0.333678
Si Si2 0.949538 0.391340 0.953896
Si Si3 0.052760 0.439334 0.450464
Si Si4 0.166078 0.801766 0.323928
Si Si5 0.700703 0.314251 0.819034
O O1 0.948876 0.736189 0.551156
O O2 0.948885 0.831956 0.451700
O O3 0.882942 0.781257 0.306288
O O4 0.929141 0.422767 0.183311
O O5 0.000000 0.408008 0.933923
O O6 0.931426 0.403843 0.681251
O O7 0.061322 0.500000 0.500000
O O8 0.000000 0.432820 0.433940
O O9 0.171788 0.830607 0.584246
O O10 0.195247 0.749041 0.339983
O O11 0.182423 0.832511 0.083286
O O12 0.750000 0.327080 0.750000
#
# Coordination Sequence:
#
# PCOD9476302 Si02
#       5
#    16  16  16  16  16
#     4  12  21  33  45  58  92 133 162 192 212 255
#     4  10  21  33  48  71  89 114 160 194 228 278
#     4   9  17  33  54  72  89 105 133 194 258 295
#     4  10  16  27  37  56  78 111 151 185 216 261
#     4  10  16  25  41  58  76 101 153 205 220 248
#
# _framework density 18.858712000000001
#
# number of rings (size 3 to 8) (size 9 to 14) (size 15 to 20)
#    0.000    1.800    4.000    4.800    0.000    3.200 
#    0.000    0.000    0.000    0.000    0.000    0.000 
#    0.000    0.000    0.000    0.000    0.000   90.000 
#
# Total GULP energy -222752.712441 kJ/mol
# GULP energy per Si atom -5568.817811 kJ/mol
# Density = 1.881579 g / cm^3
# Si number density = 18.858712 Si / 1000 Ang^3
#
#
#
# Elastic Constant Matrix: (Units=GPa)
#
#
# Indices 1 2 3 4 5 6 
#
# 1 39.5695 -9.4524 -1.6446 0.0000 0.0000 0.0000
# 2 -9.4524 14.6061 -0.3910 0.0000 0.0000 0.0000
# 3 -1.6446 -0.3910 86.3507 0.0000 0.0000 0.0000
# 4 0.0000 0.0000 0.0000 23.2219 0.0000 0.0000
# 5 0.0000 0.0000 0.0000 0.0000 8.1238 0.0000
# 6 0.0000 0.0000 0.0000 0.0000 0.0000 -5.0842
#
#
#
# Elastic Compliance Matrix: (Units=1/GPa)
#
#
# Indices 1 2 3 4 5 6 
#
# 1 0.029931 0.019387 0.000658 0.000000 0.000000 0.000000
# 2 0.019387 0.081031 0.000736 0.000000 0.000000 0.000000
# 3 0.000658 0.000736 0.011597 0.000000 0.000000 0.000000
# 4 0.000000 0.000000 0.000000 0.043063 0.000000 0.000000
# 5 0.000000 0.000000 0.000000 0.000000 0.123094 0.000000
# 6 0.000000 0.000000 0.000000 0.000000 0.000000 -0.196687
#
#
# Mechanical properties :
#
#
# Convention : Reuss Voigt Hill
#
# Bulk Modulus (GPa) = 6.09309 13.06115 9.57712
# Shear Modulus (GPa) = 47.54128 15.38661 31.46394
#
# Velocity S-wave (km/s) = 5.02632 2.85948 4.08904
# Velocity P-wave (km/s) = 6.07644 4.22409 5.23288
#
# Compressibility (1/GPa) = 0.16412024
#
# Stress axis : x y z
#
# Youngs Moduli (GPa) = 33.41065 12.34102 86.23263
#
# Poissons Ratio (x) = -0.23926 -0.05673
# Poissons Ratio (y) = -0.64774 -0.06348
# Poissons Ratio (z) = -0.02198 -0.00909
#
# Static dielectric constant tensor:
#      x y z
#    x 1.696390 0.000000 0.000000 
#    y 0.000000 1.650210 0.000000 
#    z 0.000000 0.000000 1.792340 
# 
# From -- ./inp_files/3263.got.cif
#   From: 2010.05.17/outbox.cif.g08.bks.cpg/sg64_2_cif.got.tgz:3263.got - 2010.06.03 16:29:19.
