data_PCOD9476170
_publ_section_title
;
Structure prediction by ZEFSAII (Michael W. Deem and Ramdas Pophale) SiO2 
 PCOD9476170
Probable space group: C M C M
;
_chemical_formula_sum "Si O2"
_cell_formula_units_Z 48
_cell_length_a 9.000000
_cell_length_b 27.000000
_cell_length_c 24.000000
_cell_angle_alpha 90.000000
_cell_angle_beta 90.000000
_cell_angle_gamma 90.000000
_cell_volume 5832.000000
_symmetry_space_group_name_H-M "C M C M"
_symmetry_group_IT_number 63
_symmetry_cell_setting 'orthorhombic'
loop_
_space_group_symop_operation_xyz
x,y,z
-x,-y,1/2+z
x,-y,-z
-x,y,1/2-z
-x,-y,-z
x,y,1/2-z
-x,y,z
x,-y,1/2+z
1/2+x,1/2+y,z
1/2-x,1/2-y,1/2+z
1/2+x,1/2-y,-z
1/2-x,1/2+y,1/2-z
1/2-x,1/2-y,-z
1/2+x,1/2+y,1/2-z
1/2-x,1/2+y,z
1/2+x,1/2-y,1/2+z
loop_
_atom_site_type_symbol
_atom_site_label
_atom_site_fract_x
_atom_site_fract_y
_atom_site_fract_z
Si Si1 0.822068 0.002860 0.683554
Si Si2 0.820540 0.403865 0.119201
Si Si3 0.820888 0.099690 0.379866
Si Si4 0.679440 0.440721 0.003531
Si Si5 0.179418 0.693568 0.184281
Si Si6 0.320672 0.690328 0.683665
O O1 0.796686 0.001456 0.750000
O O2 0.737505 0.049172 0.655743
O O3 0.000000 0.009721 0.673999
O O4 0.781104 0.949867 0.655788
O O5 0.758126 0.415202 0.056740
O O6 0.756882 0.352642 0.146650
O O7 0.000000 0.402265 0.118808
O O8 0.783676 0.086178 0.444515
O O9 0.749287 0.149758 0.353739
O O10 0.000000 0.105086 0.376732
O O11 0.500000 0.437902 0.011008
O O12 0.716039 0.500000 0.000000
O O13 0.218706 0.685711 0.250000
O O14 0.219230 0.751573 0.170589
O O15 0.000000 0.690547 0.180130
O O16 0.288395 0.682700 0.750000
O O17 0.500000 0.685987 0.677070
#
# Coordination Sequence:
#
# PCOD9476170 Si02
#       6
#    16  16  16  16  16  16
#     4  10  20  35  55  79 110 147 184 221 268 332
#     4  12  24  35  53  83 115 142 180 233 284 326
#     4  10  20  35  58  84 107 140 187 231 269 319
#     4  10  20  39  61  77 104 149 194 228 267 326
#     4   9  19  36  58  84 114 147 180 221 277 333
#     4   9  19  38  61  81 107 149 192 223 265 331
#
# _framework density 8.2304530000000007
#
# number of rings (size 3 to 8) (size 9 to 14) (size 15 to 20)
#    0.000    2.000    1.667    3.500    0.000    6.000 
#    0.000    2.500    0.000    0.000    0.000    0.000 
#    0.000    0.000    0.000    0.000    0.000    0.000 
#
# Total GULP energy -267790.545267 kJ/mol
# GULP energy per Si atom -5578.969693 kJ/mol
# Density = 0.821172 g / cm^3
# Si number density = 8.230453 Si / 1000 Ang^3
#
#
#
# Elastic Constant Matrix: (Units=GPa)
#
#
# Indices 1 2 3 4 5 6 
#
# 1 68.3872 62.6775 56.7650 0.0000 0.0000 0.0000
# 2 62.6775 186.6640 99.4500 0.0000 0.0000 0.0000
# 3 56.7650 99.4500 151.5727 0.0000 0.0000 0.0000
# 4 0.0000 0.0000 0.0000 40.2895 0.0000 0.0000
# 5 0.0000 0.0000 0.0000 0.0000 27.1434 0.0000
# 6 0.0000 0.0000 0.0000 0.0000 0.0000 37.3152
#
#
#
# Elastic Compliance Matrix: (Units=1/GPa)
#
#
# Indices 1 2 3 4 5 6 
#
# 1 0.023923 -0.005011 -0.005671 0.000000 0.000000 0.000000
# 2 -0.005011 0.009286 -0.004216 0.000000 0.000000 0.000000
# 3 -0.005671 -0.004216 0.011488 0.000000 0.000000 0.000000
# 4 0.000000 0.000000 0.000000 0.024820 0.000000 0.000000
# 5 0.000000 0.000000 0.000000 0.000000 0.036841 0.000000
# 6 0.000000 0.000000 0.000000 0.000000 0.000000 0.026799
#
#
# Mechanical properties :
#
#
# Convention : Reuss Voigt Hill
#
# Bulk Modulus (GPa) = 67.11637 93.82319 80.46978
# Shear Modulus (GPa) = 29.77590 33.46503 31.62047
#
# Velocity S-wave (km/s) = 4.25771 4.51377 4.38761
# Velocity P-wave (km/s) = 8.06428 9.18079 8.64058
#
# Compressibility (1/GPa) = 0.01489949
#
# Stress axis : x y z
#
# Youngs Moduli (GPa) = 41.80083 107.68807 87.04968
#
# Poissons Ratio (x) = 0.53965 0.49369
# Poissons Ratio (y) = 0.20947 0.36701
# Poissons Ratio (z) = 0.23707 0.45402
#
# Static dielectric constant tensor:
#      x y z
#    x 1.556490 0.000000 0.000000 
#    y 0.000000 1.543410 0.000000 
#    z 0.000000 0.000000 1.555830 
# 
# From -- ./inp_files/60178.got.cif
#   From: 2010.05.17/outbox.ucp.g08.bks.cvg/sg63_31_cif.got.tgz:60178.got - 2010.06.11 16:32:19.
