data_PCOD9476381
_publ_section_title
;
Structure prediction by ZEFSAII (Michael W. Deem and Ramdas Pophale) SiO2 
 PCOD9476381
Probable space group: C M C A
;
_chemical_formula_sum "Si O2"
_cell_formula_units_Z 128
_cell_length_a 20.794451
_cell_length_b 16.009857
_cell_length_c 21.246300
_cell_angle_alpha 90.000000
_cell_angle_beta 90.000000
_cell_angle_gamma 90.000000
_cell_volume 7073.237182
_symmetry_space_group_name_H-M "C M C A"
_symmetry_group_IT_number 64
_symmetry_cell_setting 'orthorhombic'
loop_
_space_group_symop_operation_xyz
x,y,z
-x,1/2-y,1/2+z
x,-y,-z
-x,1/2+y,1/2-z
-x,-y,-z
x,1/2+y,1/2-z
-x,y,z
x,1/2-y,1/2+z
1/2+x,1/2+y,z
1/2-x,-y,1/2+z
1/2+x,1/2-y,-z
1/2-x,y,1/2-z
1/2-x,1/2-y,-z
1/2+x,y,1/2-z
1/2-x,1/2+y,z
1/2+x,-y,1/2+z
loop_
_atom_site_type_symbol
_atom_site_label
_atom_site_fract_x
_atom_site_fract_y
_atom_site_fract_z
Si Si1 0.333699 0.397052 0.111630
Si Si2 0.751027 0.824089 0.910825
Si Si3 0.571750 0.715193 0.202908
Si Si4 0.312168 0.247852 0.705391
Si Si5 0.427734 0.330166 0.420164
Si Si6 0.571990 0.667339 0.991449
Si Si7 0.382417 0.578375 0.112370
Si Si8 0.707552 0.636236 0.547367
O O1 0.323573 0.341904 0.173289
O O2 0.373407 0.342708 0.060597
O O3 0.372740 0.481143 0.122818
O O4 0.264290 0.415842 0.080296
O O5 0.704112 0.809917 0.852207
O O6 0.812265 0.878751 0.891929
O O7 0.778177 0.731617 0.928901
O O8 0.717927 0.861597 0.972667
O O9 0.500000 0.722217 0.229218
O O10 0.626676 0.726308 0.254026
O O11 0.578768 0.784413 0.147426
O O12 0.580193 0.627511 0.166591
O O13 0.250000 0.245397 0.750000
O O14 0.500000 0.366511 0.423883
O O15 0.424012 0.255540 0.471974
O O16 0.364853 0.385422 0.432701
O O17 0.500000 0.658346 0.965500
O O18 0.584303 0.598607 0.045643
#
# Coordination Sequence:
#
# PCOD9476381 Si02
#       8
#    16  16  16  16  16  16  16  16
#     4  11  23  31  54  82 116 137 173 226 284 322
#     4  10  18  30  57  74 107 143 175 218 264 320
#     4  10  20  36  57  75 103 149 193 218 255 322
#     4  11  21  38  54  77 104 145 186 233 258 298
#     4   9  16  30  55  79 103 143 185 219 261 318
#     4  10  19  32  52  82 117 143 165 206 273 341
#     4  11  19  36  52  83 107 144 177 212 277 338
#     4  10  16  32  51  84 110 135 173 226 266 322
#
# _framework density 18.096381000000001
#
# number of rings (size 3 to 8) (size 9 to 14) (size 15 to 20)
#    0.000    1.750    5.000    3.750    0.000    2.000 
#    2.250    0.625    0.000    0.000    0.000    1.750 
#    0.000    0.000    0.000    0.000    0.000    0.000 
#
# Total GULP energy -357225.719869 kJ/mol
# GULP energy per Si atom -5581.651873 kJ/mol
# Density = 1.805519 g / cm^3
# Si number density = 18.096381 Si / 1000 Ang^3
#
#
#
# Elastic Constant Matrix: (Units=GPa)
#
#
# Indices 1 2 3 4 5 6 
#
# 1 147.2190 -3.5573 47.4244 0.0000 0.0000 0.0000
# 2 -3.5573 10.0697 7.0389 0.0000 0.0000 0.0000
# 3 47.4244 7.0389 87.5308 0.0000 0.0000 0.0000
# 4 0.0000 0.0000 0.0000 4.6849 0.0000 0.0000
# 5 0.0000 0.0000 0.0000 0.0000 27.1677 0.0000
# 6 0.0000 0.0000 0.0000 0.0000 0.0000 17.1702
#
#
#
# Elastic Compliance Matrix: (Units=1/GPa)
#
#
# Indices 1 2 3 4 5 6 
#
# 1 0.008635 0.006697 -0.005217 0.000000 0.000000 0.000000
# 2 0.006697 0.110417 -0.012508 0.000000 0.000000 0.000000
# 3 -0.005217 -0.012508 0.015257 0.000000 0.000000 0.000000
# 4 0.000000 0.000000 0.000000 0.213454 0.000000 0.000000
# 5 0.000000 0.000000 0.000000 0.000000 0.036808 0.000000
# 6 0.000000 0.000000 0.000000 0.000000 0.000000 0.058241
#
#
# Mechanical properties :
#
#
# Convention : Reuss Voigt Hill
#
# Bulk Modulus (GPa) = 8.90837 38.51459 23.71148
# Shear Modulus (GPa) = 9.95450 22.73211 16.34330
#
# Velocity S-wave (km/s) = 2.34793 3.54809 3.00846
# Velocity P-wave (km/s) = 3.50482 6.17370 5.01987
#
# Compressibility (1/GPa) = 0.11225400
#
# Stress axis : x y z
#
# Youngs Moduli (GPa) = 115.80739 9.05655 65.54369
#
# Poissons Ratio (x) = -0.06065 0.34194
# Poissons Ratio (y) = -0.77560 0.81982
# Poissons Ratio (z) = 0.60417 0.11328
#
# Static dielectric constant tensor:
#      x y z
#    x 1.653640 0.000000 0.000000 
#    y 0.000000 1.615190 0.000000 
#    z 0.000000 0.000000 1.608100 
# 
# From -- ./inp_files/41164.got.cif
#   From: 2010.05.17/outbox.cif.g08.bks.cpg/sg64_21_cif.got.tgz:41164.got - 2010.06.03 16:29:19.
