data_PCOD9476709
_publ_section_title
;
Structure prediction by ZEFSAII (Michael W. Deem and Ramdas Pophale) SiO2 
 PCOD9476709
Probable space group: C M C A
;
_chemical_formula_sum "Si O2"
_cell_formula_units_Z 80
_cell_length_a 17.591395
_cell_length_b 26.267286
_cell_length_c 7.182672
_cell_angle_alpha 90.000000
_cell_angle_beta 90.000000
_cell_angle_gamma 90.000000
_cell_volume 3318.956175
_symmetry_space_group_name_H-M "C M C A"
_symmetry_group_IT_number 64
_symmetry_cell_setting 'orthorhombic'
loop_
_space_group_symop_operation_xyz
x,y,z
-x,1/2-y,1/2+z
x,-y,-z
-x,1/2+y,1/2-z
-x,-y,-z
x,1/2+y,1/2-z
-x,y,z
x,1/2-y,1/2+z
1/2+x,1/2+y,z
1/2-x,-y,1/2+z
1/2+x,1/2-y,-z
1/2-x,y,1/2-z
1/2-x,1/2-y,-z
1/2+x,y,1/2-z
1/2-x,1/2+y,z
1/2+x,-y,1/2+z
loop_
_atom_site_type_symbol
_atom_site_label
_atom_site_fract_x
_atom_site_fract_y
_atom_site_fract_z
Si Si1 0.340146 0.038970 0.761499
Si Si2 0.088986 0.175340 0.364506
Si Si3 0.812783 0.273841 0.369933
Si Si4 0.588350 0.141930 0.695769
Si Si5 0.591430 0.437960 0.671279
O O1 0.250000 0.033940 0.750000
O O2 0.369017 0.089326 0.659507
O O3 0.378216 0.985127 0.709054
O O4 0.369190 0.052032 0.971152
O O5 0.140505 0.223388 0.309549
O O6 0.095875 0.163839 0.589913
O O7 0.108876 0.120315 0.276928
O O8 0.000000 0.186506 0.329288
O O9 0.750000 0.305448 0.250000
O O10 0.750000 0.250000 0.500000
O O11 0.876220 0.313435 0.426069
O O12 0.500000 0.133705 0.662709
O O13 0.500000 0.441414 0.650055
#
# Coordination Sequence:
#
# PCOD9476709 Si02
#       5
#    16  16  16  16  16
#     4  10  18  29  55  87 112 139 191 243 295 340
#     4   9  19  36  58  81 114 155 198 239 288 354
#     4  12  23  37  56  86 121 153 195 248 295 347
#     4  10  20  36  57  82 116 156 198 241 292 356
#     4   9  18  35  56  82 113 151 193 235 289 360
#
# _framework density 24.103964999999999
#
# number of rings (size 3 to 8) (size 9 to 14) (size 15 to 20)
#    0.000    2.000    2.000    4.800    2.800    0.800 
#    0.000    0.000    0.000    0.000    0.000   19.600 
#    0.000    0.000    0.000    0.000    0.000    0.000 
#
# Total GULP energy -223224.516810 kJ/mol
# GULP energy per Si atom -5580.612920 kJ/mol
# Density = 2.404910 g / cm^3
# Si number density = 24.103965 Si / 1000 Ang^3
#
#
#
# Elastic Constant Matrix: (Units=GPa)
#
#
# Indices 1 2 3 4 5 6 
#
# 1 162.8385 105.0962 14.3969 0.0000 0.0000 0.0000
# 2 105.0962 235.2052 28.7408 0.0000 0.0000 0.0000
# 3 14.3969 28.7408 49.3838 0.0000 0.0000 0.0000
# 4 0.0000 0.0000 0.0000 22.7691 0.0000 0.0000
# 5 0.0000 0.0000 0.0000 0.0000 11.0628 0.0000
# 6 0.0000 0.0000 0.0000 0.0000 0.0000 272.4798
#
#
#
# Elastic Compliance Matrix: (Units=1/GPa)
#
#
# Indices 1 2 3 4 5 6 
#
# 1 0.008634 -0.003822 -0.000293 0.000000 0.000000 0.000000
# 2 -0.003822 0.006269 -0.002534 0.000000 0.000000 0.000000
# 3 -0.000293 -0.002534 0.021810 0.000000 0.000000 0.000000
# 4 0.000000 0.000000 0.000000 0.043919 0.000000 0.000000
# 5 0.000000 0.000000 0.000000 0.000000 0.090393 0.000000
# 6 0.000000 0.000000 0.000000 0.000000 0.000000 0.003670
#
#
# Mechanical properties :
#
#
# Convention : Reuss Voigt Hill
#
# Bulk Modulus (GPa) = 42.70824 82.65503 62.68164
# Shear Modulus (GPa) = 25.53662 81.20858 53.37260
#
# Velocity S-wave (km/s) = 3.25843 5.81069 4.71070
# Velocity P-wave (km/s) = 5.64919 8.90979 7.45981
#
# Compressibility (1/GPa) = 0.02341469
#
# Stress axis : x y z
#
# Youngs Moduli (GPa) = 115.82586 159.51364 45.85098
#
# Poissons Ratio (x) = 0.60966 0.01342
# Poissons Ratio (y) = 0.44269 0.11620
# Poissons Ratio (z) = 0.03389 0.40425
#
# Static dielectric constant tensor:
#      x y z
#    x 1.951950 0.000000 0.000000 
#    y 0.000000 1.964220 0.000000 
#    z 0.000000 0.000000 1.550770 
# 
# From -- ./inp_files/14724.got.cif
#   From: 2010.05.17/outbox.cif.g08.bks.cpg/sg64_8_cif.got.tgz:14724.got - 2010.06.03 16:29:19.
