data_PCOD9476977
_publ_section_title
;
Structure prediction by ZEFSAII (Michael W. Deem and Ramdas Pophale) SiO2 
 PCOD9476977
Probable space group: C M C A
;
_chemical_formula_sum "Si O2"
_cell_formula_units_Z 72
_cell_length_a 16.509184
_cell_length_b 13.165384
_cell_length_c 15.218531
_cell_angle_alpha 90.000000
_cell_angle_beta 90.000000
_cell_angle_gamma 90.000000
_cell_volume 3307.743861
_symmetry_space_group_name_H-M "C M C A"
_symmetry_group_IT_number 64
_symmetry_cell_setting 'orthorhombic'
loop_
_space_group_symop_operation_xyz
x,y,z
-x,1/2-y,1/2+z
x,-y,-z
-x,1/2+y,1/2-z
-x,-y,-z
x,1/2+y,1/2-z
-x,y,z
x,1/2-y,1/2+z
1/2+x,1/2+y,z
1/2-x,-y,1/2+z
1/2+x,1/2-y,-z
1/2-x,y,1/2-z
1/2-x,1/2-y,-z
1/2+x,y,1/2-z
1/2-x,1/2+y,z
1/2+x,-y,1/2+z
loop_
_atom_site_type_symbol
_atom_site_label
_atom_site_fract_x
_atom_site_fract_y
_atom_site_fract_z
Si Si1 0.500000 0.066202 0.623519
Si Si2 0.338606 0.323792 0.412551
Si Si3 0.664784 0.832057 0.749319
Si Si4 0.841404 0.314319 0.416770
Si Si5 0.000000 0.870136 0.330087
Si Si6 0.500000 0.373119 0.802805
O O1 0.417883 0.112520 0.586386
O O2 0.500000 0.090986 0.729570
O O3 0.500000 0.945118 0.613572
O O4 0.332099 0.236123 0.338404
O O5 0.247171 0.367975 0.419868
O O6 0.351846 0.264191 0.503208
O O7 0.415899 0.391004 0.382763
O O8 0.750000 0.890307 0.750000
O O9 0.657745 0.753262 0.828738
O O10 0.583066 0.895447 0.747652
O O11 0.000000 0.746415 0.321943
#
# Coordination Sequence:
#
# PCOD9476977 Si02
#       6
#     8  16  16  16   8   8
#     4  12  21  33  58  85 109 149 189 225 279 334
#     4   9  18  32  59  82 107 145 182 227 280 330
#     4   9  17  35  54  75 111 146 177 228 285 329
#     4  10  18  33  57  84 106 147 186 224 277 333
#     4  10  19  38  54  78 114 143 180 230 280 328
#     4  10  20  35  53  84 107 146 185 225 277 333
#
# _framework density 21.767102999999999
#
# number of rings (size 3 to 8) (size 9 to 14) (size 15 to 20)
#    0.000    2.222    4.444    0.667    0.000    0.000 
#    4.000    8.889    0.000    2.667    0.000    0.000 
#    0.000    0.000    0.000    0.000    0.000    0.000 
#
# Total GULP energy -200663.011987 kJ/mol
# GULP energy per Si atom -5573.972555 kJ/mol
# Density = 2.171756 g / cm^3
# Si number density = 21.767103 Si / 1000 Ang^3
#
#
#
# Elastic Constant Matrix: (Units=GPa)
#
#
# Indices 1 2 3 4 5 6 
#
# 1 209.3913 12.1522 -14.2395 0.0000 0.0000 0.0000
# 2 12.1522 41.5544 -1.4602 0.0000 0.0000 0.0000
# 3 -14.2395 -1.4602 130.0367 0.0000 0.0000 0.0000
# 4 0.0000 0.0000 0.0000 -16.8165 0.0000 0.0000
# 5 0.0000 0.0000 0.0000 0.0000 20.7918 0.0000
# 6 0.0000 0.0000 0.0000 0.0000 0.0000 -13.0804
#
#
#
# Elastic Compliance Matrix: (Units=1/GPa)
#
#
# Indices 1 2 3 4 5 6 
#
# 1 0.004893 -0.001413 0.000520 0.000000 0.000000 0.000000
# 2 -0.001413 0.024482 0.000120 0.000000 0.000000 0.000000
# 3 0.000520 0.000120 0.007748 0.000000 0.000000 0.000000
# 4 0.000000 0.000000 0.000000 -0.059465 0.000000 0.000000
# 5 0.000000 0.000000 0.000000 0.000000 0.048096 0.000000
# 6 0.000000 0.000000 0.000000 0.000000 0.000000 -0.076451
#
#
# Mechanical properties :
#
#
# Convention : Reuss Voigt Hill
#
# Bulk Modulus (GPa) = 28.10669 41.54305 34.82487
# Shear Modulus (GPa) = -134.07816 23.81431 -55.13193
#
# Velocity S-wave (km/s) = -7.85687 3.31123 -5.03816
# Velocity P-wave (km/s) = 8.32867 5.80910 4.22025
#
# Compressibility (1/GPa) = 0.03557871
#
# Stress axis : x y z
#
# Youngs Moduli (GPa) = 204.36976 40.84600 129.05855
#
# Poissons Ratio (x) = 0.05770 -0.06710
# Poissons Ratio (y) = 0.28871 -0.01552
# Poissons Ratio (z) = -0.10626 -0.00491
#
# Static dielectric constant tensor:
#      x y z
#    x 1.947650 0.000000 0.000000 
#    y 0.000000 1.745860 0.000000 
#    z 0.000000 0.000000 1.794990 
# 
# From -- ./inp_files/25151.got.cif
#   From: 2010.05.17/outbox.cif.g08.bks.cpg/sg64_13_cif.got.tgz:25151.got - 2010.06.03 16:29:19.
