data_PCOD9476337
_publ_section_title
;
Structure prediction by ZEFSAII (Michael W. Deem and Ramdas Pophale) SiO2 
 PCOD9476337
Probable space group: C M C A
;
_chemical_formula_sum "Si O2"
_cell_formula_units_Z 72
_cell_length_a 22.500796
_cell_length_b 11.768650
_cell_length_c 10.384971
_cell_angle_alpha 90.000000
_cell_angle_beta 90.000000
_cell_angle_gamma 90.000000
_cell_volume 2749.981786
_symmetry_space_group_name_H-M "C M C A"
_symmetry_group_IT_number 64
_symmetry_cell_setting 'orthorhombic'
loop_
_space_group_symop_operation_xyz
x,y,z
-x,1/2-y,1/2+z
x,-y,-z
-x,1/2+y,1/2-z
-x,-y,-z
x,1/2+y,1/2-z
-x,y,z
x,1/2-y,1/2+z
1/2+x,1/2+y,z
1/2-x,-y,1/2+z
1/2+x,1/2-y,-z
1/2-x,y,1/2-z
1/2-x,1/2-y,-z
1/2+x,y,1/2-z
1/2-x,1/2+y,z
1/2+x,-y,1/2+z
loop_
_atom_site_type_symbol
_atom_site_label
_atom_site_fract_x
_atom_site_fract_y
_atom_site_fract_z
Si Si1 0.117783 0.130852 0.956130
Si Si2 0.500000 0.244549 0.126296
Si Si3 0.867084 0.956612 0.307306
Si Si4 0.000000 0.380942 0.124556
Si Si5 0.775047 0.000000 0.500000
Si Si6 0.194977 0.840109 0.819977
O O1 0.056757 0.189251 0.924965
O O2 0.148322 0.119390 0.817259
O O3 0.151467 0.198776 0.066633
O O4 0.108319 0.000000 0.000000
O O5 0.500000 0.264954 0.282356
O O6 0.500000 0.136196 0.030314
O O7 0.936800 0.939606 0.337509
O O8 0.820677 0.926417 0.417281
O O9 0.849191 0.087724 0.273390
O O10 0.733549 0.067885 0.402926
O O11 0.250000 0.778121 0.750000
#
# Coordination Sequence:
#
# PCOD9476337 Si02
#       6
#    16   8  16   8   8  16
#     4   9  16  32  55  82 104 139 182 232 289 325
#     4  10  21  38  58  72 111 151 195 230 270 332
#     4   9  18  31  53  77 115 141 172 226 286 332
#     4  10  22  41  52  76 109 159 193 222 278 329
#     4  10  16  29  52  85 106 134 172 226 280 336
#     4   9  16  28  50  85 108 132 170 225 284 330
#
# _framework density 26.181991
#
# number of rings (size 3 to 8) (size 9 to 14) (size 15 to 20)
#    0.000    2.667    3.333    0.333    0.000    3.111 
#   12.000    0.000    0.000    5.333    0.000    0.000 
#    0.000    0.000    0.000    0.000    0.000    0.000 
#
# Total GULP energy -200943.836157 kJ/mol
# GULP energy per Si atom -5581.773227 kJ/mol
# Density = 2.612240 g / cm^3
# Si number density = 26.181991 Si / 1000 Ang^3
#
#
#
# Elastic Constant Matrix: (Units=GPa)
#
#
# Indices 1 2 3 4 5 6 
#
# 1 108.5625 3.4160 10.6277 0.0000 0.0000 0.0000
# 2 3.4160 49.4121 4.3925 0.0000 0.0000 0.0000
# 3 10.6277 4.3925 95.0408 0.0000 0.0000 0.0000
# 4 0.0000 0.0000 0.0000 6.5106 0.0000 0.0000
# 5 0.0000 0.0000 0.0000 0.0000 50.1998 0.0000
# 6 0.0000 0.0000 0.0000 0.0000 0.0000 36.5962
#
#
#
# Elastic Compliance Matrix: (Units=1/GPa)
#
#
# Indices 1 2 3 4 5 6 
#
# 1 0.009328 -0.000554 -0.001017 0.000000 0.000000 0.000000
# 2 -0.000554 0.020354 -0.000879 0.000000 0.000000 0.000000
# 3 -0.001017 -0.000879 0.010676 0.000000 0.000000 0.000000
# 4 0.000000 0.000000 0.000000 0.153596 0.000000 0.000000
# 5 0.000000 0.000000 0.000000 0.000000 0.019920 0.000000
# 6 0.000000 0.000000 0.000000 0.000000 0.000000 0.027325
#
#
# Mechanical properties :
#
#
# Convention : Reuss Voigt Hill
#
# Bulk Modulus (GPa) = 28.20271 32.20977 30.20624
# Shear Modulus (GPa) = 19.38576 34.29991 26.84284
#
# Velocity S-wave (km/s) = 2.72402 3.62340 3.20541
# Velocity P-wave (km/s) = 4.54851 5.46208 5.02609
#
# Compressibility (1/GPa) = 0.03545758
#
# Stress axis : x y z
#
# Youngs Moduli (GPa) = 107.20020 49.12944 93.66639
#
# Poissons Ratio (x) = 0.02724 0.09531
# Poissons Ratio (y) = 0.05944 0.08231
# Poissons Ratio (z) = 0.10908 0.04317
#
# Static dielectric constant tensor:
#      x y z
#    x 1.978610 0.000000 0.000000 
#    y 0.000000 2.305850 0.000000 
#    z 0.000000 0.000000 2.200280 
# 
# From -- ./inp_files/17052.got.cif
#   From: 2010.05.17/outbox.cif.g08.bks.cpg/sg64_9_cif.got.tgz:17052.got - 2010.06.03 16:29:19.
