data_PCOD9476422
_publ_section_title
;
Structure prediction by ZEFSAII (Michael W. Deem and Ramdas Pophale) SiO2 
 PCOD9476422
Probable space group: C M C A
;
_chemical_formula_sum "Si O2"
_cell_formula_units_Z 104
_cell_length_a 18.118821
_cell_length_b 8.656819
_cell_length_c 30.697986
_cell_angle_alpha 90.000000
_cell_angle_beta 90.000000
_cell_angle_gamma 90.000000
_cell_volume 4815.020666
_symmetry_space_group_name_H-M "C M C A"
_symmetry_group_IT_number 64
_symmetry_cell_setting 'orthorhombic'
loop_
_space_group_symop_operation_xyz
x,y,z
-x,1/2-y,1/2+z
x,-y,-z
-x,1/2+y,1/2-z
-x,-y,-z
x,1/2+y,1/2-z
-x,y,z
x,1/2-y,1/2+z
1/2+x,1/2+y,z
1/2-x,-y,1/2+z
1/2+x,1/2-y,-z
1/2-x,y,1/2-z
1/2-x,1/2-y,-z
1/2+x,y,1/2-z
1/2-x,1/2+y,z
1/2+x,-y,1/2+z
loop_
_atom_site_type_symbol
_atom_site_label
_atom_site_fract_x
_atom_site_fract_y
_atom_site_fract_z
Si Si1 0.107208 0.075595 0.307977
Si Si2 0.862734 0.124429 0.400308
Si Si3 0.335594 0.500000 0.000000
Si Si4 0.416281 0.327081 0.507803
Si Si5 0.230834 0.427602 0.404930
Si Si6 0.866733 0.310765 0.242208
Si Si7 0.786433 0.545265 0.309574
O O1 0.084279 0.913272 0.289352
O O2 0.197768 0.058928 0.306660
O O3 0.091203 0.121128 0.356514
O O4 0.086850 0.201842 0.273198
O O5 0.912935 0.172739 0.440084
O O6 0.796816 0.251806 0.399920
O O7 0.818374 0.962524 0.403683
O O8 0.378120 0.334581 0.994479
O O9 0.293904 0.480706 0.046534
O O10 0.382552 0.500000 0.500000
O O11 0.500000 0.328939 0.490734
O O12 0.198260 0.507183 0.360534
O O13 0.820776 0.415562 0.277272
O O14 0.817974 0.203601 0.210246
#
# Coordination Sequence:
#
# PCOD9476422 Si02
#       7
#    16  16   8  16  16  16  16
#     4  10  17  26  40  66 100 141 177 211 255 317
#     4  10  22  34  52  79 115 143 179 221 275 333
#     4  10  23  40  62  84 113 150 180 230 282 330
#     4  10  23  42  63  83 104 140 191 237 273 319
#     4  10  22  33  50  80 115 149 177 217 277 343
#     4  10  17  25  41  62 100 148 177 211 256 314
#     4  10  17  26  39  64 102 142 182 208 251 325
#
# _framework density 21.599077000000001
#
# number of rings (size 3 to 8) (size 9 to 14) (size 15 to 20)
#    0.000    2.000    1.538    3.923    9.692    1.231 
#    0.000    0.000    0.000    0.000    0.000    1.077 
#    0.000    0.000    0.000    0.000    0.000    0.000 
#
# Total GULP energy -289656.704012 kJ/mol
# GULP energy per Si atom -5570.321231 kJ/mol
# Density = 2.154992 g / cm^3
# Si number density = 21.599077 Si / 1000 Ang^3
#
#
#
# Elastic Constant Matrix: (Units=GPa)
#
#
# Indices 1 2 3 4 5 6 
#
# 1 54.7660 16.0314 4.3034 0.0000 0.0000 0.0000
# 2 16.0314 110.7740 21.2127 0.0000 0.0000 0.0000
# 3 4.3034 21.2127 128.0315 0.0000 0.0000 0.0000
# 4 0.0000 0.0000 0.0000 29.9986 0.0000 0.0000
# 5 0.0000 0.0000 0.0000 0.0000 -5.9278 0.0000
# 6 0.0000 0.0000 0.0000 0.0000 0.0000 -7.0975
#
#
#
# Elastic Compliance Matrix: (Units=1/GPa)
#
#
# Indices 1 2 3 4 5 6 
#
# 1 0.019072 -0.002724 -0.000190 0.000000 0.000000 0.000000
# 2 -0.002724 0.009712 -0.001518 0.000000 0.000000 0.000000
# 3 -0.000190 -0.001518 0.008068 0.000000 0.000000 0.000000
# 4 0.000000 0.000000 0.000000 0.033335 0.000000 0.000000
# 5 0.000000 0.000000 0.000000 0.000000 -0.168697 0.000000
# 6 0.000000 0.000000 0.000000 0.000000 0.000000 -0.140895
#
#
# Mechanical properties :
#
#
# Convention : Reuss Voigt Hill
#
# Bulk Modulus (GPa) = 35.72692 41.85183 38.78937
# Shear Modulus (GPa) = -22.60264 20.19629 -1.20318
#
# Velocity S-wave (km/s) = -3.23842 3.06118 -0.74717
# Velocity P-wave (km/s) = 1.61050 5.64918 4.15373
#
# Compressibility (1/GPa) = 0.02799010
#
# Stress axis : x y z
#
# Youngs Moduli (GPa) = 52.43364 102.96343 123.94041
#
# Poissons Ratio (x) = 0.28045 0.02352
# Poissons Ratio (y) = 0.14282 0.18809
# Poissons Ratio (z) = 0.00995 0.15626
#
# Static dielectric constant tensor:
#      x y z
#    x 1.816000 0.000000 0.000000 
#    y 0.000000 1.866690 0.000000 
#    z 0.000000 0.000000 1.817580 
# 
# From -- ./inp_files/53743.got.cif
#   From: 2010.05.17/outbox.cif.g08.bks.cpg/sg64_27_cif.got.tgz:53743.got - 2010.06.03 16:29:19.
