data_PCOD9476339
_publ_section_title
;
Structure prediction by ZEFSAII (Michael W. Deem and Ramdas Pophale) SiO2 
 PCOD9476339
Probable space group: C M C A
;
_chemical_formula_sum "Si O2"
_cell_formula_units_Z 88
_cell_length_a 13.998757
_cell_length_b 21.782409
_cell_length_c 16.895262
_cell_angle_alpha 90.000000
_cell_angle_beta 90.000000
_cell_angle_gamma 90.000000
_cell_volume 5151.815650
_symmetry_space_group_name_H-M "C M C A"
_symmetry_group_IT_number 64
_symmetry_cell_setting 'orthorhombic'
loop_
_space_group_symop_operation_xyz
x,y,z
-x,1/2-y,1/2+z
x,-y,-z
-x,1/2+y,1/2-z
-x,-y,-z
x,1/2+y,1/2-z
-x,y,z
x,1/2-y,1/2+z
1/2+x,1/2+y,z
1/2-x,-y,1/2+z
1/2+x,1/2-y,-z
1/2-x,y,1/2-z
1/2-x,1/2-y,-z
1/2+x,y,1/2-z
1/2-x,1/2+y,z
1/2+x,-y,1/2+z
loop_
_atom_site_type_symbol
_atom_site_label
_atom_site_fract_x
_atom_site_fract_y
_atom_site_fract_z
Si Si1 0.000000 0.203356 0.427410
Si Si2 0.608356 0.037342 0.397100
Si Si3 0.288748 0.317839 0.518935
Si Si4 0.500000 0.225138 0.252687
Si Si5 0.824798 0.844517 0.820226
Si Si6 0.500000 0.833038 0.361606
Si Si7 0.666002 0.911679 0.432166
O O1 0.902157 0.181843 0.467112
O O2 0.000000 0.189175 0.332558
O O3 0.000000 0.277864 0.426325
O O4 0.500000 0.014025 0.390453
O O5 0.627659 0.088979 0.332316
O O6 0.618824 0.070487 0.482672
O O7 0.679180 0.979156 0.394730
O O8 0.250000 0.250000 0.500000
O O9 0.235259 0.332860 0.600757
O O10 0.254039 0.367865 0.454670
O O11 0.592897 0.205013 0.301574
O O12 0.500000 0.295388 0.221030
O O13 0.750000 0.843856 0.750000
O O14 0.593112 0.873210 0.378498
#
# Coordination Sequence:
#
# PCOD9476339 Si02
#       7
#     8  16  16   8  16   8  16
#     4  10  20  33  49  83 118 144 175 215 286 337
#     4  10  18  30  55  79 104 137 188 243 269 313
#     4  11  21  33  58  83 112 146 179 230 281 336
#     4  10  20  33  52  82 110 149 182 227 274 343
#     4  11  21  35  54  80 109 145 193 227 277 336
#     4  10  16  29  55  77 123 138 175 229 286 325
#     4  10  18  31  52  85 107 136 181 232 283 314
#
# _framework density 17.081356
#
# number of rings (size 3 to 8) (size 9 to 14) (size 15 to 20)
#    0.545    1.091    6.364    0.545    0.000    0.727 
#    0.000    0.000    4.000    9.818    0.000    0.000 
#    0.000    0.000    0.000    0.000    0.000    0.000 
#
# Total GULP energy -244996.886958 kJ/mol
# GULP energy per Si atom -5568.111067 kJ/mol
# Density = 1.704248 g / cm^3
# Si number density = 17.081356 Si / 1000 Ang^3
#
#
#
# Elastic Constant Matrix: (Units=GPa)
#
#
# Indices 1 2 3 4 5 6 
#
# 1 104.1070 31.6329 17.8409 0.0000 0.0000 0.0000
# 2 31.6329 96.1133 20.3293 0.0000 0.0000 0.0000
# 3 17.8409 20.3293 28.1205 0.0000 0.0000 0.0000
# 4 0.0000 0.0000 0.0000 33.2780 0.0000 0.0000
# 5 0.0000 0.0000 0.0000 0.0000 12.5766 0.0000
# 6 0.0000 0.0000 0.0000 0.0000 0.0000 19.4542
#
#
#
# Elastic Compliance Matrix: (Units=1/GPa)
#
#
# Indices 1 2 3 4 5 6 
#
# 1 0.011302 -0.002601 -0.005290 0.000000 0.000000 0.000000
# 2 -0.002601 0.012881 -0.007662 0.000000 0.000000 0.000000
# 3 -0.005290 -0.007662 0.044457 0.000000 0.000000 0.000000
# 4 0.000000 0.000000 0.000000 0.030050 0.000000 0.000000
# 5 0.000000 0.000000 0.000000 0.000000 0.079513 0.000000
# 6 0.000000 0.000000 0.000000 0.000000 0.000000 0.051403
#
#
# Mechanical properties :
#
#
# Convention : Reuss Voigt Hill
#
# Bulk Modulus (GPa) = 26.64284 40.88299 33.76291
# Shear Modulus (GPa) = 18.30003 23.63094 20.96549
#
# Velocity S-wave (km/s) = 3.27669 3.72349 3.50721
# Velocity P-wave (km/s) = 5.47239 6.51706 6.01744
#
# Compressibility (1/GPa) = 0.03753354
#
# Stress axis : x y z
#
# Youngs Moduli (GPa) = 88.47683 77.63371 22.49373
#
# Poissons Ratio (x) = 0.20191 0.11900
# Poissons Ratio (y) = 0.23011 0.17235
# Poissons Ratio (z) = 0.46809 0.59483
#
# Static dielectric constant tensor:
#      x y z
#    x 1.526240 0.000000 0.000000 
#    y 0.000000 1.614560 0.000000 
#    z 0.000000 0.000000 1.514980 
# 
# From -- ./inp_files/32344.got.cif
#   From: 2010.05.17/outbox.cif.g08.bks.cpg/sg64_17_cif.got.tgz:32344.got - 2010.06.03 16:29:19.
