data_PCOD9476224
_publ_section_title
;
Structure prediction by ZEFSAII (Michael W. Deem and Ramdas Pophale) SiO2 
 PCOD9476224
Probable space group: C M C M
;
_chemical_formula_sum "Si O2"
_cell_formula_units_Z 40
_cell_length_a 27.000000
_cell_length_b 9.000000
_cell_length_c 18.000000
_cell_angle_alpha 90.000000
_cell_angle_beta 90.000000
_cell_angle_gamma 90.000000
_cell_volume 4374.000000
_symmetry_space_group_name_H-M "C M C M"
_symmetry_group_IT_number 63
_symmetry_cell_setting 'orthorhombic'
loop_
_space_group_symop_operation_xyz
x,y,z
-x,-y,1/2+z
x,-y,-z
-x,y,1/2-z
-x,-y,-z
x,y,1/2-z
-x,y,z
x,-y,1/2+z
1/2+x,1/2+y,z
1/2-x,1/2-y,1/2+z
1/2+x,1/2-y,-z
1/2-x,1/2+y,1/2-z
1/2-x,1/2-y,-z
1/2+x,1/2+y,1/2-z
1/2-x,1/2+y,z
1/2+x,1/2-y,1/2+z
loop_
_atom_site_type_symbol
_atom_site_label
_atom_site_fract_x
_atom_site_fract_y
_atom_site_fract_z
Si Si1 0.359033 0.904901 0.925037
Si Si2 0.678765 0.581685 0.925442
Si Si3 0.719705 0.090407 0.662910
Si Si4 0.558290 0.064572 0.839414
Si Si5 0.366868 0.672780 0.336864
O O1 0.348095 0.735311 0.943025
O O2 0.313446 0.962801 0.874652
O O3 0.409797 0.938510 0.880869
O O4 0.359569 0.000000 0.000000
O O5 0.727486 0.606583 0.875682
O O6 0.640318 0.473885 0.884084
O O7 0.695599 0.500000 0.000000
O O8 0.726288 0.060226 0.750000
O O9 0.684489 0.234804 0.654812
O O10 0.562646 0.045703 0.750000
O O11 0.500000 0.068340 0.858245
O O12 0.588181 0.216858 0.857908
O O13 0.372669 0.637117 0.250000
#
# Coordination Sequence:
#
# PCOD9476224 Si02
#       5
#    16  16  16  16  16
#     4  11  23  38  56  80 111 148 188 225 265 320
#     4  12  23  34  52  80 114 148 182 224 271 318
#     4  10  21  37  56  79 110 148 185 221 267 324
#     4   9  19  39  64  84 105 138 179 223 273 328
#     4   9  19  35  55  81 110 139 175 221 274 327
#
# _framework density 9.1449470000000002
#
# number of rings (size 3 to 8) (size 9 to 14) (size 15 to 20)
#    0.000    1.800    0.000    6.600    0.000    7.600 
#    0.000    1.000    0.000    4.800    0.000    0.000 
#    0.000    0.000    0.000    0.000    0.000    0.000 
#
# Total GULP energy -223449.880101 kJ/mol
# GULP energy per Si atom -5586.247003 kJ/mol
# Density = 0.912413 g / cm^3
# Si number density = 9.144947 Si / 1000 Ang^3
#
#
#
# Elastic Constant Matrix: (Units=GPa)
#
#
# Indices 1 2 3 4 5 6 
#
# 1 136.8612 38.3866 49.9006 0.0000 0.0000 0.0000
# 2 38.3866 92.8470 54.7310 0.0000 0.0000 0.0000
# 3 49.9006 54.7310 86.7423 0.0000 0.0000 0.0000
# 4 0.0000 0.0000 0.0000 28.6387 0.0000 0.0000
# 5 0.0000 0.0000 0.0000 0.0000 10.5567 0.0000
# 6 0.0000 0.0000 0.0000 0.0000 0.0000 3.7920
#
#
#
# Elastic Compliance Matrix: (Units=1/GPa)
#
#
# Indices 1 2 3 4 5 6 
#
# 1 0.009316 -0.001103 -0.004664 0.000000 0.000000 0.000000
# 2 -0.001103 0.017279 -0.010268 0.000000 0.000000 0.000000
# 3 -0.004664 -0.010268 0.020690 0.000000 0.000000 0.000000
# 4 0.000000 0.000000 0.000000 0.034918 0.000000 0.000000
# 5 0.000000 0.000000 0.000000 0.000000 0.094726 0.000000
# 6 0.000000 0.000000 0.000000 0.000000 0.000000 0.263716
#
#
# Mechanical properties :
#
#
# Convention : Reuss Voigt Hill
#
# Bulk Modulus (GPa) = 65.71770 66.94299 66.33034
# Shear Modulus (GPa) = 10.46493 20.15964 15.31228
#
# Velocity S-wave (km/s) = 2.39460 3.32358 2.89658
# Velocity P-wave (km/s) = 6.60717 7.16999 6.89433
#
# Compressibility (1/GPa) = 0.01521660
#
# Stress axis : x y z
#
# Youngs Moduli (GPa) = 107.33790 57.87359 48.33223
#
# Poissons Ratio (x) = 0.06381 0.22541
# Poissons Ratio (y) = 0.11835 0.49628
# Poissons Ratio (z) = 0.50060 0.59425
#
# Static dielectric constant tensor:
#      x y z
#    x 1.586120 0.000000 0.000000 
#    y 0.000000 1.656980 0.000000 
#    z 0.000000 0.000000 1.653930 
# 
# From -- ./inp_files/48767.got.cif
#   From: 2010.05.17/outbox.ucp.g08.bks.cvg/sg63_25_cif.got.tgz:48767.got - 2010.06.11 16:32:19.
