data_PCOD9476583
_publ_section_title
;
Structure prediction by ZEFSAII (Michael W. Deem and Ramdas Pophale) SiO2 
 PCOD9476583
Probable space group: C M C A
;
_chemical_formula_sum "Si O2"
_cell_formula_units_Z 96
_cell_length_a 15.364233
_cell_length_b 15.113886
_cell_length_c 19.336402
_cell_angle_alpha 90.000000
_cell_angle_beta 90.000000
_cell_angle_gamma 90.000000
_cell_volume 4490.169062
_symmetry_space_group_name_H-M "C M C A"
_symmetry_group_IT_number 64
_symmetry_cell_setting 'orthorhombic'
loop_
_space_group_symop_operation_xyz
x,y,z
-x,1/2-y,1/2+z
x,-y,-z
-x,1/2+y,1/2-z
-x,-y,-z
x,1/2+y,1/2-z
-x,y,z
x,1/2-y,1/2+z
1/2+x,1/2+y,z
1/2-x,-y,1/2+z
1/2+x,1/2-y,-z
1/2-x,y,1/2-z
1/2-x,1/2-y,-z
1/2+x,y,1/2-z
1/2-x,1/2+y,z
1/2+x,-y,1/2+z
loop_
_atom_site_type_symbol
_atom_site_label
_atom_site_fract_x
_atom_site_fract_y
_atom_site_fract_z
Si Si1 0.686414 0.648316 0.405051
Si Si2 0.816298 0.665149 0.650259
Si Si3 0.500000 0.373378 0.149044
Si Si4 0.837262 0.396292 0.506213
Si Si5 0.186181 0.484807 0.190380
Si Si6 0.500000 0.926486 0.604857
Si Si7 0.000000 0.940701 0.730971
Si Si8 0.000000 0.819666 0.596909
O O1 0.692405 0.728925 0.350036
O O2 0.760948 0.659340 0.459755
O O3 0.699220 0.552225 0.372450
O O4 0.589766 0.651108 0.436524
O O5 0.906479 0.635739 0.688114
O O6 0.840774 0.638006 0.571847
O O7 0.730405 0.610384 0.672212
O O8 0.500000 0.465733 0.107499
O O9 0.500000 0.285068 0.103237
O O10 0.816054 0.500000 0.500000
O O11 0.918036 0.393628 0.559850
O O12 0.250000 0.519173 0.250000
O O13 0.086784 0.502907 0.213441
O O14 0.500000 0.908889 0.688362
O O15 0.000000 0.861154 0.674798
#
# Coordination Sequence:
#
# PCOD9476583 Si02
#       8
#    16  16   8  16  16   8   8   8
#     4  10  21  39  60  87 122 163 204 253 313 375
#     4  11  22  37  62  91 124 161 204 261 312 369
#     4  10  17  34  58  88 112 154 203 248 306 361
#     4  12  21  37  60  91 120 154 204 259 317 364
#     4  11  22  40  62  88 123 162 209 251 305 373
#     4  12  22  38  64  89 118 158 205 268 317 366
#     4  10  22  40  60  87 121 164 198 249 311 372
#     4   8  20  37  58  82 119 159 205 244 301 382
#
# _framework density 21.380042
#
# number of rings (size 3 to 8) (size 9 to 14) (size 15 to 20)
#    0.000    1.333    3.333    3.250    0.000    0.667 
#    0.000    7.083    0.000    0.000    0.000    0.000 
#    0.000    0.000    0.000    0.000    0.000    0.000 
#
# Total GULP energy -267463.966158 kJ/mol
# GULP energy per Si atom -5572.165962 kJ/mol
# Density = 2.133138 g / cm^3
# Si number density = 21.380042 Si / 1000 Ang^3
#
#
#
# Elastic Constant Matrix: (Units=GPa)
#
#
# Indices 1 2 3 4 5 6 
#
# 1 171.0749 37.8896 35.9393 0.0000 0.0000 0.0000
# 2 37.8896 43.6220 0.0826 0.0000 0.0000 0.0000
# 3 35.9393 0.0826 63.7683 0.0000 0.0000 0.0000
# 4 0.0000 0.0000 0.0000 16.7383 0.0000 0.0000
# 5 0.0000 0.0000 0.0000 0.0000 8.7440 0.0000
# 6 0.0000 0.0000 0.0000 0.0000 0.0000 30.5044
#
#
#
# Elastic Compliance Matrix: (Units=1/GPa)
#
#
# Indices 1 2 3 4 5 6 
#
# 1 0.008475 -0.007353 -0.004767 0.000000 0.000000 0.000000
# 2 -0.007353 0.029303 0.004106 0.000000 0.000000 0.000000
# 3 -0.004767 0.004106 0.018363 0.000000 0.000000 0.000000
# 4 0.000000 0.000000 0.000000 0.059743 0.000000 0.000000
# 5 0.000000 0.000000 0.000000 0.000000 0.114364 0.000000
# 6 0.000000 0.000000 0.000000 0.000000 0.000000 0.032782
#
#
# Mechanical properties :
#
#
# Convention : Reuss Voigt Hill
#
# Bulk Modulus (GPa) = 24.92914 47.36534 36.14724
# Shear Modulus (GPa) = 17.09814 24.83426 20.96620
#
# Velocity S-wave (km/s) = 2.83101 3.41187 3.13492
# Velocity P-wave (km/s) = 4.72985 6.14192 5.48155
#
# Compressibility (1/GPa) = 0.04011370
#
# Stress axis : x y z
#
# Youngs Moduli (GPa) = 117.99013 34.12652 54.45692
#
# Poissons Ratio (x) = 0.25092 0.25960
# Poissons Ratio (y) = 0.86752 -0.22359
# Poissons Ratio (z) = 0.56247 -0.14012
#
# Static dielectric constant tensor:
#      x y z
#    x 1.859890 0.000000 0.000000 
#    y 0.000000 1.783500 0.000000 
#    z 0.000000 0.000000 1.881000 
# 
# From -- ./inp_files/39306.got.cif
#   From: 2010.05.17/outbox.cif.g08.bks.cpg/sg64_20_cif.got.tgz:39306.got - 2010.06.03 16:29:19.
