data_PCOD9476459
_publ_section_title
;
Structure prediction by ZEFSAII (Michael W. Deem and Ramdas Pophale) SiO2 
 PCOD9476459
Probable space group: C M C A
;
_chemical_formula_sum "Si O2"
_cell_formula_units_Z 64
_cell_length_a 8.517062
_cell_length_b 23.731583
_cell_length_c 17.938988
_cell_angle_alpha 90.000000
_cell_angle_beta 90.000000
_cell_angle_gamma 90.000000
_cell_volume 3625.888597
_symmetry_space_group_name_H-M "C M C A"
_symmetry_group_IT_number 64
_symmetry_cell_setting 'orthorhombic'
loop_
_space_group_symop_operation_xyz
x,y,z
-x,1/2-y,1/2+z
x,-y,-z
-x,1/2+y,1/2-z
-x,-y,-z
x,1/2+y,1/2-z
-x,y,z
x,1/2-y,1/2+z
1/2+x,1/2+y,z
1/2-x,-y,1/2+z
1/2+x,1/2-y,-z
1/2-x,y,1/2-z
1/2-x,1/2-y,-z
1/2+x,y,1/2-z
1/2-x,1/2+y,z
1/2+x,-y,1/2+z
loop_
_atom_site_type_symbol
_atom_site_label
_atom_site_fract_x
_atom_site_fract_y
_atom_site_fract_z
Si Si1 0.812835 0.922200 0.543218
Si Si2 0.686364 0.473574 0.111511
Si Si3 0.813373 0.862074 0.328648
Si Si4 0.187515 0.687885 0.516396
O O1 0.728386 0.947094 0.469494
O O2 0.761180 0.857366 0.541514
O O3 0.000000 0.926731 0.534305
O O4 0.756895 0.963514 0.609139
O O5 0.500000 0.475085 0.121583
O O6 0.764399 0.427894 0.165255
O O7 0.750000 0.839813 0.250000
O O8 0.739897 0.831243 0.400547
O O9 0.000000 0.857412 0.332791
O O10 0.250000 0.750000 0.500000
O O11 0.000000 0.685506 0.511465
#
# Coordination Sequence:
#
# PCOD9476459 Si02
#       4
#    16  16  16  16
#     4  10  17  28  46  71  99 129 162 204 250 298
#     4  10  17  28  46  71  99 129 161 201 249 302
#     4  11  21  35  53  77 105 137 173 217 267 320
#     4  11  21  35  53  77 105 139 180 224 265 312
#
# _framework density 17.650846000000001
#
# number of rings (size 3 to 8) (size 9 to 14) (size 15 to 20)
#    0.000    1.500    0.000   13.500    0.000    0.000 
#    0.000    0.000    0.000    1.500    0.000   10.500 
#    0.000    0.000    0.000    0.000    0.000    0.000 
#
# Total GULP energy -178487.213353 kJ/mol
# GULP energy per Si atom -5577.725417 kJ/mol
# Density = 1.761067 g / cm^3
# Si number density = 17.650846 Si / 1000 Ang^3
#
#
#
# Elastic Constant Matrix: (Units=GPa)
#
#
# Indices 1 2 3 4 5 6 
#
# 1 107.4532 20.2000 5.1681 0.0000 0.0000 0.0000
# 2 20.2000 131.5173 24.5676 0.0000 0.0000 0.0000
# 3 5.1681 24.5676 50.9293 0.0000 0.0000 0.0000
# 4 0.0000 0.0000 0.0000 15.7595 0.0000 0.0000
# 5 0.0000 0.0000 0.0000 0.0000 20.1078 0.0000
# 6 0.0000 0.0000 0.0000 0.0000 0.0000 33.0258
#
#
#
# Elastic Compliance Matrix: (Units=1/GPa)
#
#
# Indices 1 2 3 4 5 6 
#
# 1 0.009587 -0.001419 -0.000289 0.000000 0.000000 0.000000
# 2 -0.001419 0.008566 -0.003988 0.000000 0.000000 0.000000
# 3 -0.000289 -0.003988 0.021588 0.000000 0.000000 0.000000
# 4 0.000000 0.000000 0.000000 0.063454 0.000000 0.000000
# 5 0.000000 0.000000 0.000000 0.000000 0.049732 0.000000
# 6 0.000000 0.000000 0.000000 0.000000 0.000000 0.030279
#
#
# Mechanical properties :
#
#
# Convention : Reuss Voigt Hill
#
# Bulk Modulus (GPa) = 35.27253 43.30792 39.29022
# Shear Modulus (GPa) = 24.50402 29.77622 27.14012
#
# Velocity S-wave (km/s) = 3.72998 4.11171 3.92549
# Velocity P-wave (km/s) = 6.21106 6.86518 6.54630
#
# Compressibility (1/GPa) = 0.02835068
#
# Stress axis : x y z
#
# Youngs Moduli (GPa) = 104.30866 116.73401 46.32135
#
# Poissons Ratio (x) = 0.16560 0.01337
# Poissons Ratio (y) = 0.14797 0.18475
# Poissons Ratio (z) = 0.03010 0.46558
#
# Static dielectric constant tensor:
#      x y z
#    x 1.580280 0.000000 0.000000 
#    y 0.000000 1.655500 0.000000 
#    z 0.000000 0.000000 1.678360 
# 
# From -- ./inp_files/29437.got.cif
#   From: 2010.05.17/outbox.cif.g08.bks.cpg/sg64_15_cif.got.tgz:29437.got - 2010.06.03 16:29:19.
