data_PCOD9476277
_publ_section_title
;
Structure prediction by ZEFSAII (Michael W. Deem and Ramdas Pophale) SiO2 
 PCOD9476277
Probable space group: C M C M
;
_chemical_formula_sum "Si O2"
_cell_formula_units_Z 36
_cell_length_a 21.000000
_cell_length_b 21.000000
_cell_length_c 9.000000
_cell_angle_alpha 90.000000
_cell_angle_beta 90.000000
_cell_angle_gamma 90.000000
_cell_volume 3969.000000
_symmetry_space_group_name_H-M "C M C M"
_symmetry_group_IT_number 63
_symmetry_cell_setting 'orthorhombic'
loop_
_space_group_symop_operation_xyz
x,y,z
-x,-y,1/2+z
x,-y,-z
-x,y,1/2-z
-x,-y,-z
x,y,1/2-z
-x,y,z
x,-y,1/2+z
1/2+x,1/2+y,z
1/2-x,1/2-y,1/2+z
1/2+x,1/2-y,-z
1/2-x,1/2+y,1/2-z
1/2-x,1/2-y,-z
1/2+x,1/2+y,1/2-z
1/2-x,1/2+y,z
1/2+x,1/2-y,1/2+z
loop_
_atom_site_type_symbol
_atom_site_label
_atom_site_fract_x
_atom_site_fract_y
_atom_site_fract_z
Si Si1 0.500000 0.893599 0.934073
Si Si2 0.643135 0.928578 0.435982
Si Si3 0.000000 0.747717 0.933319
Si Si4 0.393382 0.340330 0.433502
Si Si5 0.000000 0.069453 0.432036
Si Si6 0.748696 0.675979 0.064574
O O1 0.500000 0.898518 0.750000
O O2 0.430729 0.919059 0.000681
O O3 0.500000 0.821942 0.996499
O O4 0.643290 0.927149 0.250000
O O5 0.694045 0.872692 0.499526
O O6 0.661606 0.000000 0.500000
O O7 0.000000 0.749239 0.750000
O O8 0.935873 0.781639 0.999039
O O9 0.391895 0.338319 0.250000
O O10 0.437384 0.396994 0.498031
O O11 0.321844 0.344693 0.502447
O O12 0.000000 0.073031 0.250000
O O13 0.000000 0.000000 0.500000
O O14 0.751501 0.676205 0.250000
O O15 0.750000 0.750000 0.000000
#
# Coordination Sequence:
#
# PCOD9476277 Si02
#       6
#     8  16   8  16   8  16
#     4  12  24  42  66  94 126 166 209 258 312 373
#     4  12  26  46  68  96 129 168 213 264 320 382
#     4  11  21  37  61  93 127 165 208 258 312 370
#     4  11  22  39  61  90 124 162 205 257 312 372
#     4  11  22  39  61  89 121 161 207 256 309 371
#     4  12  25  44  67  96 130 170 214 264 319 380
#
# _framework density 9.0702949999999998
#
# number of rings (size 3 to 8) (size 9 to 14) (size 15 to 20)
#    0.000    0.444    0.000   12.000    0.000    0.889 
#    0.000    4.444    0.000    0.000    0.000    0.000 
#    0.000    0.000    0.000    0.000    0.000    0.000 
#
# Total GULP energy -200478.924137 kJ/mol
# GULP energy per Si atom -5568.859004 kJ/mol
# Density = 0.904965 g / cm^3
# Si number density = 9.070295 Si / 1000 Ang^3
#
#
#
# Elastic Constant Matrix: (Units=GPa)
#
#
# Indices 1 2 3 4 5 6 
#
# 1 178.8782 59.3341 61.9856 0.0000 0.0000 0.0000
# 2 59.3341 151.5700 46.6291 0.0000 0.0000 0.0000
# 3 61.9856 46.6291 240.5194 0.0000 0.0000 0.0000
# 4 0.0000 0.0000 0.0000 40.8655 0.0000 0.0000
# 5 0.0000 0.0000 0.0000 0.0000 50.2318 0.0000
# 6 0.0000 0.0000 0.0000 0.0000 0.0000 24.9590
#
#
#
# Elastic Compliance Matrix: (Units=1/GPa)
#
#
# Indices 1 2 3 4 5 6 
#
# 1 0.006794 -0.002255 -0.001314 0.000000 0.000000 0.000000
# 2 -0.002255 0.007765 -0.000924 0.000000 0.000000 0.000000
# 3 -0.001314 -0.000924 0.004675 0.000000 0.000000 0.000000
# 4 0.000000 0.000000 0.000000 0.024470 0.000000 0.000000
# 5 0.000000 0.000000 0.000000 0.000000 0.019908 0.000000
# 6 0.000000 0.000000 0.000000 0.000000 0.000000 0.040066
#
#
# Mechanical properties :
#
#
# Convention : Reuss Voigt Hill
#
# Bulk Modulus (GPa) = 97.58275 100.76280 99.17278
# Shear Modulus (GPa) = 43.07382 50.07919 46.57650
#
# Velocity S-wave (km/s) = 4.87811 5.25986 5.07258
# Velocity P-wave (km/s) = 9.25404 9.62051 9.43905
#
# Compressibility (1/GPa) = 0.01024771
#
# Stress axis : x y z
#
# Youngs Moduli (GPa) = 147.19529 128.78632 213.88732
#
# Poissons Ratio (x) = 0.29046 0.28096
# Poissons Ratio (y) = 0.33198 0.19765
# Poissons Ratio (z) = 0.19336 0.11901
#
# Static dielectric constant tensor:
#      x y z
#    x 1.645000 0.000000 0.000000 
#    y 0.000000 1.728430 0.000000 
#    z 0.000000 0.000000 1.639270 
# 
# From -- ./inp_files/7911.got.cif
#   From: 2010.05.17/outbox.ucp.g08.bks.cvg/sg63_4_cif.got.tgz:7911.got - 2010.06.11 16:32:19.
