data_PCOD9476609
_publ_section_title
;
Structure prediction by ZEFSAII (Michael W. Deem and Ramdas Pophale) SiO2 
 PCOD9476609
Probable space group: C M C A
;
_chemical_formula_sum "Si O2"
_cell_formula_units_Z 88
_cell_length_a 14.995334
_cell_length_b 17.546293
_cell_length_c 16.983990
_cell_angle_alpha 90.000000
_cell_angle_beta 90.000000
_cell_angle_gamma 90.000000
_cell_volume 4468.700476
_symmetry_space_group_name_H-M "C M C A"
_symmetry_group_IT_number 64
_symmetry_cell_setting 'orthorhombic'
loop_
_space_group_symop_operation_xyz
x,y,z
-x,1/2-y,1/2+z
x,-y,-z
-x,1/2+y,1/2-z
-x,-y,-z
x,1/2+y,1/2-z
-x,y,z
x,1/2-y,1/2+z
1/2+x,1/2+y,z
1/2-x,-y,1/2+z
1/2+x,1/2-y,-z
1/2-x,y,1/2-z
1/2-x,1/2-y,-z
1/2+x,y,1/2-z
1/2-x,1/2+y,z
1/2+x,-y,1/2+z
loop_
_atom_site_type_symbol
_atom_site_label
_atom_site_fract_x
_atom_site_fract_y
_atom_site_fract_z
Si Si1 0.750000 0.798485 0.250000
Si Si2 0.320221 0.586811 0.624021
Si Si3 0.705719 0.828170 0.972269
Si Si4 0.600564 0.807496 0.813955
Si Si5 0.641004 0.526814 0.251210
Si Si6 0.329306 0.033482 0.422466
O O1 0.735908 0.852859 0.175303
O O2 0.665031 0.744943 0.262046
O O3 0.346803 0.631453 0.544842
O O4 0.380850 0.542869 0.689125
O O5 0.256109 0.521261 0.590548
O O6 0.639928 0.809809 0.901334
O O7 0.784897 0.884151 0.939885
O O8 0.750000 0.750000 0.000000
O O9 0.500000 0.779413 0.811290
O O10 0.605899 0.894293 0.784593
O O11 0.750000 0.530249 0.250000
O O12 0.617109 0.524568 0.158896
O O13 0.376115 0.000000 0.500000
#
# Coordination Sequence:
#
# PCOD9476609 Si02
#       6
#     8  16  16  16  16  16
#     4  12  20  40  66  94 128 176 220 266 330 378
#     4  10  19  32  66  90 120 167 217 267 318 393
#     4  11  20  35  59  93 123 168 211 266 328 380
#     4  12  25  40  63  96 134 173 220 268 321 393
#     4  10  17  37  61  89 120 168 214 255 324 385
#     4   9  17  31  60  97 118 157 220 256 315 389
#
# _framework density 19.692526999999998
#
# number of rings (size 3 to 8) (size 9 to 14) (size 15 to 20)
#    0.000    1.455    9.091    0.000    0.000    0.000 
#    0.000    3.636    0.000    0.545    0.000    0.000 
#    0.000    0.000    0.000    0.000    0.000    0.000 
#
# Total GULP energy -245212.317107 kJ/mol
# GULP energy per Si atom -5573.007207 kJ/mol
# Density = 1.964771 g / cm^3
# Si number density = 19.692527 Si / 1000 Ang^3
#
#
#
# Elastic Constant Matrix: (Units=GPa)
#
#
# Indices 1 2 3 4 5 6 
#
# 1 59.5291 30.3183 20.7549 0.0000 0.0000 0.0000
# 2 30.3183 117.0124 39.7825 0.0000 0.0000 0.0000
# 3 20.7549 39.7825 146.3943 0.0000 0.0000 0.0000
# 4 0.0000 0.0000 0.0000 43.1501 0.0000 0.0000
# 5 0.0000 0.0000 0.0000 0.0000 -8.8256 0.0000
# 6 0.0000 0.0000 0.0000 0.0000 0.0000 -7.3487
#
#
#
# Elastic Compliance Matrix: (Units=1/GPa)
#
#
# Indices 1 2 3 4 5 6 
#
# 1 0.019665 -0.004570 -0.001546 0.000000 0.000000 0.000000
# 2 -0.004570 0.010478 -0.002200 0.000000 0.000000 0.000000
# 3 -0.001546 -0.002200 0.007648 0.000000 0.000000 0.000000
# 4 0.000000 0.000000 0.000000 0.023175 0.000000 0.000000
# 5 0.000000 0.000000 0.000000 0.000000 -0.113306 0.000000
# 6 0.000000 0.000000 0.000000 0.000000 0.000000 -0.136078
#
#
# Mechanical properties :
#
#
# Convention : Reuss Voigt Hill
#
# Bulk Modulus (GPa) = 47.25892 56.07191 51.66542
# Shear Modulus (GPa) = -30.35184 20.86715 -4.74235
#
# Velocity S-wave (km/s) = -3.93018 3.25876 -1.55352
# Velocity P-wave (km/s) = 1.85887 6.53413 4.80366
#
# Compressibility (1/GPa) = 0.02116003
#
# Stress axis : x y z
#
# Youngs Moduli (GPa) = 50.85214 95.43906 130.75666
#
# Poissons Ratio (x) = 0.43611 0.20218
# Poissons Ratio (y) = 0.23237 0.28760
# Poissons Ratio (z) = 0.07863 0.20992
#
# Static dielectric constant tensor:
#      x y z
#    x 1.695380 0.000000 0.000000 
#    y 0.000000 1.683270 0.000000 
#    z 0.000000 0.000000 1.797750 
# 
# From -- ./inp_files/33131.got.cif
#   From: 2010.05.17/outbox.cif.g08.bks.cpg/sg64_17_cif.got.tgz:33131.got - 2010.06.03 16:29:19.
