data_PCOD9476151
_publ_section_title
;
Structure prediction by ZEFSAII (Michael W. Deem and Ramdas Pophale) SiO2 
 PCOD9476151
Probable space group: C M C M
;
_chemical_formula_sum "Si O2"
_cell_formula_units_Z 48
_cell_length_a 9.000000
_cell_length_b 24.000000
_cell_length_c 24.000000
_cell_angle_alpha 90.000000
_cell_angle_beta 90.000000
_cell_angle_gamma 90.000000
_cell_volume 5184.000000
_symmetry_space_group_name_H-M "C M C M"
_symmetry_group_IT_number 63
_symmetry_cell_setting 'orthorhombic'
loop_
_space_group_symop_operation_xyz
x,y,z
-x,-y,1/2+z
x,-y,-z
-x,y,1/2-z
-x,-y,-z
x,y,1/2-z
-x,y,z
x,-y,1/2+z
1/2+x,1/2+y,z
1/2-x,1/2-y,1/2+z
1/2+x,1/2-y,-z
1/2-x,1/2+y,1/2-z
1/2-x,1/2-y,-z
1/2+x,1/2+y,1/2-z
1/2-x,1/2+y,z
1/2+x,1/2-y,1/2+z
loop_
_atom_site_type_symbol
_atom_site_label
_atom_site_fract_x
_atom_site_fract_y
_atom_site_fract_z
Si Si1 0.676160 0.610638 0.635194
Si Si2 0.671006 0.325647 0.541996
Si Si3 0.820144 0.055805 0.750000
Si Si4 0.670467 0.196827 0.928869
Si Si5 0.678626 0.065685 0.250000
Si Si6 0.326651 0.094890 0.372407
Si Si7 0.326053 0.019313 0.561135
O O1 0.500000 0.609678 0.634679
O O2 0.728819 0.587733 0.694521
O O3 0.734368 0.671525 0.620657
O O4 0.737144 0.569753 0.587558
O O5 0.500000 0.336023 0.526533
O O6 0.683020 0.262974 0.565196
O O7 0.770893 0.327988 0.487067
O O8 0.726903 0.367323 0.588618
O O9 0.000000 0.052841 0.750000
O O10 0.755502 0.994129 0.750000
O O11 0.500000 0.181437 0.920863
O O12 0.500000 0.057725 0.250000
O O13 0.716901 0.095939 0.192324
O O14 0.500000 0.111529 0.377632
O O15 0.315224 0.032267 0.396218
O O16 0.500000 0.034591 0.555621
O O17 0.274016 0.000000 0.500000
#
# Coordination Sequence:
#
# PCOD9476151 Si02
#       7
#    16  16   8  16   8  16  16
#     4  11  22  36  56  82 111 145 187 230 278 330
#     4  10  21  37  59  85 112 145 183 226 281 335
#     4  10  22  38  55  80 113 149 186 232 282 323
#     4  10  21  38  59  83 112 146 184 227 277 333
#     4  10  20  36  57  80 107 151 196 224 268 331
#     4  10  20  34  54  81 113 147 187 229 272 328
#     4  10  20  33  52  80 112 144 178 223 278 332
#
# _framework density 9.2592590000000001
#
# number of rings (size 3 to 8) (size 9 to 14) (size 15 to 20)
#    0.000    1.833    1.667    2.500    0.000    5.667 
#    0.000    0.833    0.000    5.000    0.000    0.000 
#    0.000    0.000    0.000    0.000    0.000    0.000 
#
# Total GULP energy -267995.542006 kJ/mol
# GULP energy per Si atom -5583.240458 kJ/mol
# Density = 0.923818 g / cm^3
# Si number density = 9.259259 Si / 1000 Ang^3
#
#
#
# Elastic Constant Matrix: (Units=GPa)
#
#
# Indices 1 2 3 4 5 6 
#
# 1 29.0498 24.1592 1.1580 0.0000 0.0000 0.0000
# 2 24.1592 31.1352 24.0256 0.0000 0.0000 0.0000
# 3 1.1580 24.0256 -22.1154 0.0000 0.0000 0.0000
# 4 0.0000 0.0000 0.0000 171.5651 0.0000 0.0000
# 5 0.0000 0.0000 0.0000 0.0000 23.8730 0.0000
# 6 0.0000 0.0000 0.0000 0.0000 0.0000 27.5899
#
#
#
# Elastic Compliance Matrix: (Units=1/GPa)
#
#
# Indices 1 2 3 4 5 6 
#
# 1 0.056107 -0.024916 -0.024130 0.000000 0.000000 0.000000
# 2 -0.024916 0.028536 0.029696 0.000000 0.000000 0.000000
# 3 -0.024130 0.029696 -0.014220 0.000000 0.000000 0.000000
# 4 0.000000 0.000000 0.000000 0.005829 0.000000 0.000000
# 5 0.000000 0.000000 0.000000 0.000000 0.041888 0.000000
# 6 0.000000 0.000000 0.000000 0.000000 0.000000 0.036245
#
#
# Mechanical properties :
#
#
# Convention : Reuss Voigt Hill
#
# Bulk Modulus (GPa) = 31.52191 15.19501 23.35846
# Shear Modulus (GPa) = 24.55088 43.85406 34.20247
#
# Velocity S-wave (km/s) = 3.64503 4.87161 4.30226
# Velocity P-wave (km/s) = 5.89693 6.31400 6.10903
#
# Compressibility (1/GPa) = 0.03172397
#
# Stress axis : x y z
#
# Youngs Moduli (GPa) = 17.82322 35.04344 -70.32482
#
# Poissons Ratio (x) = 0.87313 -1.69694
# Poissons Ratio (y) = 0.44408 2.08838
# Poissons Ratio (z) = 0.43007 -1.04066
#
# Static dielectric constant tensor:
#      x y z
#    x 1.638810 0.000000 0.000000 
#    y 0.000000 1.639570 0.000000 
#    z 0.000000 0.000000 1.626340 
# 
# From -- ./inp_files/59990.got.cif
#   From: 2010.05.17/outbox.ucp.g08.bks.cvg/sg63_30_cif.got.tgz:59990.got - 2010.06.11 16:32:19.
