data_PCOD9476355
_publ_section_title
;
Structure prediction by ZEFSAII (Michael W. Deem and Ramdas Pophale) SiO2 
 PCOD9476355
Probable space group: C M C A
;
_chemical_formula_sum "Si O2"
_cell_formula_units_Z 48
_cell_length_a 5.364042
_cell_length_b 31.206240
_cell_length_c 11.820408
_cell_angle_alpha 90.000000
_cell_angle_beta 90.000000
_cell_angle_gamma 90.000000
_cell_volume 1978.636795
_symmetry_space_group_name_H-M "C M C A"
_symmetry_group_IT_number 64
_symmetry_cell_setting 'orthorhombic'
loop_
_space_group_symop_operation_xyz
x,y,z
-x,1/2-y,1/2+z
x,-y,-z
-x,1/2+y,1/2-z
-x,-y,-z
x,1/2+y,1/2-z
-x,y,z
x,1/2-y,1/2+z
1/2+x,1/2+y,z
1/2-x,-y,1/2+z
1/2+x,1/2-y,-z
1/2-x,y,1/2-z
1/2-x,1/2-y,-z
1/2+x,y,1/2-z
1/2-x,1/2+y,z
1/2+x,-y,1/2+z
loop_
_atom_site_type_symbol
_atom_site_label
_atom_site_fract_x
_atom_site_fract_y
_atom_site_fract_z
Si Si1 0.000000 0.109890 0.823866
Si Si2 0.000000 0.016209 0.826367
Si Si3 0.000000 0.299249 0.443246
Si Si4 0.000000 0.207859 0.406540
Si Si5 0.000000 0.577961 0.395670
Si Si6 0.000000 0.385323 0.858781
O O1 0.250000 0.109067 0.750000
O O2 0.000000 0.063125 0.884966
O O3 0.000000 0.155312 0.884200
O O4 0.750000 0.014211 0.750000
O O5 0.000000 0.973122 0.898961
O O6 0.000000 0.256797 0.362826
O O7 0.249673 0.296239 0.518643
O O8 0.000000 0.165215 0.330730
O O9 0.000000 0.588878 0.258459
O O10 0.743204 0.601044 0.428838
#
# Coordination Sequence:
#
# PCOD9476355 Si02
#       6
#     8   8   8   8   8   8
#     4  10  21  35  58  85 103 136 179 230 267 299
#     4  10  16  30  51  77 102 142 168 208 274 319
#     4  10  21  40  56  77 107 143 185 214 261 333
#     4  10  21  37  59  74 106 154 176 208 270 323
#     4  10  17  30  50  79 111 130 171 226 262 309
#     4  10  18  30  50  80 102 140 176 215 258 316
#
# _framework density 24.259124
#
# number of rings (size 3 to 8) (size 9 to 14) (size 15 to 20)
#    0.000    2.000    3.333    2.000    0.000    0.000 
#    6.000    0.000    0.000    6.000    0.000    0.000 
#    0.000    0.000    0.000    0.000    0.000    0.000 
#
# Total GULP energy -134108.501564 kJ/mol
# GULP energy per Si atom -5587.854232 kJ/mol
# Density = 2.420391 g / cm^3
# Si number density = 24.259124 Si / 1000 Ang^3
#
#
#
# Elastic Constant Matrix: (Units=GPa)
#
#
# Indices 1 2 3 4 5 6 
#
# 1 226.8808 38.7290 16.1488 0.0000 0.0000 0.0000
# 2 38.7290 298.4305 53.6153 0.0000 0.0000 0.0000
# 3 16.1488 53.6153 24.2624 0.0000 0.0000 0.0000
# 4 0.0000 0.0000 0.0000 -176.4961 0.0000 0.0000
# 5 0.0000 0.0000 0.0000 0.0000 22.5155 0.0000
# 6 0.0000 0.0000 0.0000 0.0000 0.0000 38.5596
#
#
#
# Elastic Compliance Matrix: (Units=1/GPa)
#
#
# Indices 1 2 3 4 5 6 
#
# 1 0.004628 -0.000078 -0.002907 0.000000 0.000000 0.000000
# 2 -0.000078 0.005558 -0.012231 0.000000 0.000000 0.000000
# 3 -0.002907 -0.012231 0.070179 0.000000 0.000000 0.000000
# 4 0.000000 0.000000 0.000000 -0.005666 0.000000 0.000000
# 5 0.000000 0.000000 0.000000 0.000000 0.044414 0.000000
# 6 0.000000 0.000000 0.000000 0.000000 0.000000 0.025934
#
#
# Mechanical properties :
#
#
# Convention : Reuss Voigt Hill
#
# Bulk Modulus (GPa) = 20.02713 85.17333 52.60023
# Shear Modulus (GPa) = 26.02484 6.32118 16.17301
#
# Velocity S-wave (km/s) = 3.27889 1.61597 2.58481
# Velocity P-wave (km/s) = 4.75482 6.21835 5.53517
#
# Compressibility (1/GPa) = 0.04993226
#
# Stress axis : x y z
#
# Youngs Moduli (GPa) = 216.08078 179.90826 14.24930
#
# Poissons Ratio (x) = 0.01408 0.04143
# Poissons Ratio (y) = 0.01691 0.17428
# Poissons Ratio (z) = 0.62822 2.20043
#
# Static dielectric constant tensor:
#      x y z
#    x 1.840320 0.000000 0.000000 
#    y 0.000000 1.929760 0.000000 
#    z 0.000000 0.000000 2.022250 
# 
# From -- ./inp_files/20120.got.cif
#   From: 2010.05.17/outbox.cif.g08.bks.cpg/sg64_11_cif.got.tgz:20120.got - 2010.06.03 16:29:19.
