data_PCOD9476155
_publ_section_title
;
Structure prediction by ZEFSAII (Michael W. Deem and Ramdas Pophale) SiO2 
 PCOD9476155
Probable space group: C M C M
;
_chemical_formula_sum "Si O2"
_cell_formula_units_Z 48
_cell_length_a 27.000000
_cell_length_b 9.000000
_cell_length_c 21.000000
_cell_angle_alpha 90.000000
_cell_angle_beta 90.000000
_cell_angle_gamma 90.000000
_cell_volume 5103.000000
_symmetry_space_group_name_H-M "C M C M"
_symmetry_group_IT_number 63
_symmetry_cell_setting 'orthorhombic'
loop_
_space_group_symop_operation_xyz
x,y,z
-x,-y,1/2+z
x,-y,-z
-x,y,1/2-z
-x,-y,-z
x,y,1/2-z
-x,y,z
x,-y,1/2+z
1/2+x,1/2+y,z
1/2-x,1/2-y,1/2+z
1/2+x,1/2-y,-z
1/2-x,1/2+y,1/2-z
1/2-x,1/2-y,-z
1/2+x,1/2+y,1/2-z
1/2-x,1/2+y,z
1/2+x,1/2-y,1/2+z
loop_
_atom_site_type_symbol
_atom_site_label
_atom_site_fract_x
_atom_site_fract_y
_atom_site_fract_z
Si Si1 0.133709 0.551785 0.321151
Si Si2 0.342783 0.397723 0.180142
Si Si3 0.058861 0.421125 0.931505
Si Si4 0.211903 0.162712 0.456637
Si Si5 0.735000 0.078065 0.628245
Si Si6 0.385605 0.385650 0.045073
O O1 0.121966 0.495416 0.250000
O O2 0.136283 0.730639 0.318122
O O3 0.093495 0.510527 0.375386
O O4 0.189674 0.508445 0.340221
O O5 0.353815 0.467082 0.250000
O O6 0.283249 0.392686 0.171331
O O7 0.365557 0.453797 0.112381
O O8 0.081169 0.256327 0.940741
O O9 0.000000 0.421296 0.916010
O O10 0.065338 0.500000 0.000000
O O11 0.250000 0.250000 0.500000
O O12 0.209116 0.270883 0.395750
O O13 0.162057 0.153219 0.499359
O O14 0.240264 0.017936 0.429317
O O15 0.414263 0.500000 0.000000
#
# Coordination Sequence:
#
# PCOD9476155 Si02
#       6
#    16  16  16  16  16  16
#     4  10  21  37  57  84 114 149 190 231 276 335
#     4  10  20  34  50  76 114 151 185 225 269 328
#     4  10  22  41  62  84 110 144 188 246 297 334
#     4  12  20  31  52  80 111 152 193 227 267 327
#     4  12  20  34  52  79 115 155 189 224 267 326
#     4  11  20  36  57  84 112 145 188 237 284 333
#
# _framework density 9.4062319999999993
#
# number of rings (size 3 to 8) (size 9 to 14) (size 15 to 20)
#    0.000    1.167    5.000    3.000    0.000    0.667 
#    0.000    0.000    0.000    0.000    0.000    0.000 
#    0.000    0.000    0.000    0.000    0.000    0.000 
#
# Total GULP energy -267268.854397 kJ/mol
# GULP energy per Si atom -5568.101133 kJ/mol
# Density = 0.938482 g / cm^3
# Si number density = 9.406232 Si / 1000 Ang^3
#
#
#
# Elastic Constant Matrix: (Units=GPa)
#
#
# Indices 1 2 3 4 5 6 
#
# 1 89.8310 3.1188 45.4934 0.0000 0.0000 0.0000
# 2 3.1188 41.9910 18.9367 0.0000 0.0000 0.0000
# 3 45.4934 18.9367 146.4126 0.0000 0.0000 0.0000
# 4 0.0000 0.0000 0.0000 20.7964 0.0000 0.0000
# 5 0.0000 0.0000 0.0000 0.0000 8.5103 0.0000
# 6 0.0000 0.0000 0.0000 0.0000 0.0000 23.1212
#
#
#
# Elastic Compliance Matrix: (Units=1/GPa)
#
#
# Indices 1 2 3 4 5 6 
#
# 1 0.013245 0.000926 -0.004235 0.000000 0.000000 0.000000
# 2 0.000926 0.025354 -0.003567 0.000000 0.000000 0.000000
# 3 -0.004235 -0.003567 0.008607 0.000000 0.000000 0.000000
# 4 0.000000 0.000000 0.000000 0.048085 0.000000 0.000000
# 5 0.000000 0.000000 0.000000 0.000000 0.117505 0.000000
# 6 0.000000 0.000000 0.000000 0.000000 0.000000 0.043250
#
#
# Mechanical properties :
#
#
# Convention : Reuss Voigt Hill
#
# Bulk Modulus (GPa) = 29.89144 45.92582 37.90863
# Shear Modulus (GPa) = 17.79672 24.53129 21.16400
#
# Velocity S-wave (km/s) = 3.07906 3.61500 3.35774
# Velocity P-wave (km/s) = 5.34457 6.47223 5.93524
#
# Compressibility (1/GPa) = 0.03345439
#
# Stress axis : x y z
#
# Youngs Moduli (GPa) = 75.50191 39.44075 116.17999
#
# Poissons Ratio (x) = -0.03653 0.49204
# Poissons Ratio (y) = -0.06993 0.41442
# Poissons Ratio (z) = 0.31977 0.14069
#
# Static dielectric constant tensor:
#      x y z
#    x 1.609240 0.000000 0.000000 
#    y 0.000000 1.773220 0.000000 
#    z 0.000000 0.000000 1.743410 
# 
# From -- ./inp_files/58079.got.cif
#   From: 2010.05.17/outbox.ucp.g08.bks.cvg/sg63_30_cif.got.tgz:58079.got - 2010.06.11 16:32:19.
