data_PCOD9476426
_publ_section_title
;
Structure prediction by ZEFSAII (Michael W. Deem and Ramdas Pophale) SiO2 
 PCOD9476426
Probable space group: C M C A
;
_chemical_formula_sum "Si O2"
_cell_formula_units_Z 96
_cell_length_a 8.775123
_cell_length_b 20.854765
_cell_length_c 30.959910
_cell_angle_alpha 90.000000
_cell_angle_beta 90.000000
_cell_angle_gamma 90.000000
_cell_volume 5665.760373
_symmetry_space_group_name_H-M "C M C A"
_symmetry_group_IT_number 64
_symmetry_cell_setting 'orthorhombic'
loop_
_space_group_symop_operation_xyz
x,y,z
-x,1/2-y,1/2+z
x,-y,-z
-x,1/2+y,1/2-z
-x,-y,-z
x,1/2+y,1/2-z
-x,y,z
x,1/2-y,1/2+z
1/2+x,1/2+y,z
1/2-x,-y,1/2+z
1/2+x,1/2-y,-z
1/2-x,y,1/2-z
1/2-x,1/2-y,-z
1/2+x,y,1/2-z
1/2-x,1/2+y,z
1/2+x,-y,1/2+z
loop_
_atom_site_type_symbol
_atom_site_label
_atom_site_fract_x
_atom_site_fract_y
_atom_site_fract_z
Si Si1 0.681735 0.993926 0.706280
Si Si2 0.316918 0.060540 0.469705
Si Si3 0.181875 0.489045 0.883058
Si Si4 0.182772 0.640040 0.889490
Si Si5 0.182928 0.861675 0.293576
Si Si6 0.682190 0.312330 0.022609
O O1 0.500000 0.995673 0.708532
O O2 0.750000 0.963804 0.750000
O O3 0.738856 0.965799 0.660990
O O4 0.748613 0.066419 0.705356
O O5 0.500000 0.060415 0.463120
O O6 0.273459 0.125007 0.494744
O O7 0.278948 0.000000 0.500000
O O8 0.235010 0.050938 0.424213
O O9 0.225451 0.564162 0.891126
O O10 0.000000 0.487526 0.877571
O O11 0.220769 0.665115 0.841172
O O12 0.259409 0.676905 0.928754
O O13 0.000000 0.643309 0.894251
O O14 0.250000 0.830625 0.250000
O O15 0.000000 0.865814 0.290106
O O16 0.500000 0.308617 0.022983
O O17 0.750000 0.250000 0.000000
#
# Coordination Sequence:
#
# PCOD9476426 Si02
#       6
#    16  16  16  16  16  16
#     4  10  17  26  41  63  97 134 167 206 252 305
#     4  10  20  35  53  76 102 131 172 213 255 303
#     4  10  19  30  48  74 101 132 169 211 257 306
#     4   9  18  31  47  70 101 133 169 208 253 302
#     4   9  16  26  41  66  97 130 165 206 251 303
#     4  11  23  37  54  74 102 137 173 215 259 309
#
# _framework density 16.943885000000002
#
# number of rings (size 3 to 8) (size 9 to 14) (size 15 to 20)
#    0.000    2.167    1.667    5.000    0.000    5.000 
#    0.000    0.000    0.000    0.000    0.000    1.167 
#    0.000    5.333    0.000    0.000    0.000    0.000 
#
# Total GULP energy -267595.439929 kJ/mol
# GULP energy per Si atom -5574.904999 kJ/mol
# Density = 1.690532 g / cm^3
# Si number density = 16.943885 Si / 1000 Ang^3
#
#
#
# Elastic Constant Matrix: (Units=GPa)
#
#
# Indices 1 2 3 4 5 6 
#
# 1 67.1951 26.2798 69.8314 0.0000 0.0000 0.0000
# 2 26.2798 62.2313 49.9750 0.0000 0.0000 0.0000
# 3 69.8314 49.9750 196.8446 0.0000 0.0000 0.0000
# 4 0.0000 0.0000 0.0000 13.3124 0.0000 0.0000
# 5 0.0000 0.0000 0.0000 0.0000 32.6627 0.0000
# 6 0.0000 0.0000 0.0000 0.0000 0.0000 15.8380
#
#
#
# Elastic Compliance Matrix: (Units=1/GPa)
#
#
# Indices 1 2 3 4 5 6 
#
# 1 0.024422 -0.004215 -0.007594 0.000000 0.000000 0.000000
# 2 -0.004215 0.020912 -0.003814 0.000000 0.000000 0.000000
# 3 -0.007594 -0.003814 0.008742 0.000000 0.000000 0.000000
# 4 0.000000 0.000000 0.000000 0.075118 0.000000 0.000000
# 5 0.000000 0.000000 0.000000 0.000000 0.030616 0.000000
# 6 0.000000 0.000000 0.000000 0.000000 0.000000 0.063139
#
#
# Mechanical properties :
#
#
# Convention : Reuss Voigt Hill
#
# Bulk Modulus (GPa) = 43.80007 68.71594 56.25800
# Shear Modulus (GPa) = 19.09819 24.37494 21.73657
#
# Velocity S-wave (km/s) = 3.36094 3.79696 3.58558
# Velocity P-wave (km/s) = 6.40058 7.73729 7.10046
#
# Compressibility (1/GPa) = 0.02283101
#
# Stress axis : x y z
#
# Youngs Moduli (GPa) = 40.94629 47.82003 114.38648
#
# Poissons Ratio (x) = 0.20157 0.86862
# Poissons Ratio (y) = 0.17259 0.43624
# Poissons Ratio (z) = 0.31094 0.18237
#
# Static dielectric constant tensor:
#      x y z
#    x 1.566170 0.000000 0.000000 
#    y 0.000000 1.541270 0.000000 
#    z 0.000000 0.000000 1.623340 
# 
# From -- ./inp_files/48055.got.cif
#   From: 2010.05.17/outbox.cif.g08.bks.cpg/sg64_25_cif.got.tgz:48055.got - 2010.06.03 16:29:19.
