data_PCOD9476367
_publ_section_title
;
Structure prediction by ZEFSAII (Michael W. Deem and Ramdas Pophale) SiO2 
 PCOD9476367
Probable space group: C M C A
;
_chemical_formula_sum "Si O2"
_cell_formula_units_Z 80
_cell_length_a 15.431424
_cell_length_b 28.193959
_cell_length_c 7.877804
_cell_angle_alpha 90.000000
_cell_angle_beta 90.000000
_cell_angle_gamma 90.000000
_cell_volume 3427.419312
_symmetry_space_group_name_H-M "C M C A"
_symmetry_group_IT_number 64
_symmetry_cell_setting 'orthorhombic'
loop_
_space_group_symop_operation_xyz
x,y,z
-x,1/2-y,1/2+z
x,-y,-z
-x,1/2+y,1/2-z
-x,-y,-z
x,1/2+y,1/2-z
-x,y,z
x,1/2-y,1/2+z
1/2+x,1/2+y,z
1/2-x,-y,1/2+z
1/2+x,1/2-y,-z
1/2-x,y,1/2-z
1/2-x,1/2-y,-z
1/2+x,y,1/2-z
1/2-x,1/2+y,z
1/2+x,-y,1/2+z
loop_
_atom_site_type_symbol
_atom_site_label
_atom_site_fract_x
_atom_site_fract_y
_atom_site_fract_z
Si Si1 0.645617 0.376796 0.913455
Si Si2 0.847103 0.020681 0.190737
Si Si3 0.000000 0.305514 0.553950
Si Si4 0.807982 0.847641 0.414020
Si Si5 0.904722 0.925450 0.278490
Si Si6 0.000000 0.804650 0.355940
O O1 0.635704 0.423421 0.797684
O O2 0.580895 0.334627 0.874331
O O3 0.738555 0.351541 0.936334
O O4 0.616641 0.400945 0.095419
O O5 0.750000 0.013355 0.250000
O O6 0.903231 0.981839 0.286991
O O7 0.855223 0.000000 0.000000
O O8 0.000000 0.251005 0.601546
O O9 0.000000 0.309904 0.348867
O O10 0.750000 0.830954 0.250000
O O11 0.830641 0.903206 0.391253
O O12 0.903529 0.823428 0.418912
O O13 0.000000 0.908785 0.327283
#
# Coordination Sequence:
#
# PCOD9476367 Si02
#       6
#    16  16   8  16  16   8
#     4  10  20  37  62  87 129 161 206 247 309 365
#     4  10  21  35  59  94 128 165 205 247 299 368
#     4  12  24  44  64  97 118 159 206 271 311 378
#     4  10  18  38  65  89 122 168 205 246 301 380
#     4  10  16  30  62  91 121 161 213 239 288 365
#     4  12  24  44  67  92 125 151 217 263 316 371
#
# _framework density 23.341176000000001
#
# number of rings (size 3 to 8) (size 9 to 14) (size 15 to 20)
#    0.000    1.600    6.000    3.000    1.400    2.000 
#    3.600    0.000    2.200    1.800    0.000    0.000 
#    0.000    0.000    0.000    0.000    0.000    0.000 
#
# Total GULP energy -222969.862036 kJ/mol
# GULP energy per Si atom -5574.246551 kJ/mol
# Density = 2.328805 g / cm^3
# Si number density = 23.341176 Si / 1000 Ang^3
#
#
#
# Elastic Constant Matrix: (Units=GPa)
#
#
# Indices 1 2 3 4 5 6 
#
# 1 196.1283 89.0993 9.6999 0.0000 0.0000 0.0000
# 2 89.0993 177.1721 12.6138 0.0000 0.0000 0.0000
# 3 9.6999 12.6138 39.9924 0.0000 0.0000 0.0000
# 4 0.0000 0.0000 0.0000 17.3284 0.0000 0.0000
# 5 0.0000 0.0000 0.0000 0.0000 -3.6704 0.0000
# 6 0.0000 0.0000 0.0000 0.0000 0.0000 37.3094
#
#
#
# Elastic Compliance Matrix: (Units=1/GPa)
#
#
# Indices 1 2 3 4 5 6 
#
# 1 0.006621 -0.003289 -0.000568 0.000000 0.000000 0.000000
# 2 -0.003289 0.007408 -0.001539 0.000000 0.000000 0.000000
# 3 -0.000568 -0.001539 0.025628 0.000000 0.000000 0.000000
# 4 0.000000 0.000000 0.000000 0.057709 0.000000 0.000000
# 5 0.000000 0.000000 0.000000 0.000000 -0.272453 0.000000
# 6 0.000000 0.000000 0.000000 0.000000 0.000000 0.026803
#
#
# Mechanical properties :
#
#
# Convention : Reuss Voigt Hill
#
# Bulk Modulus (GPa) = 34.64507 70.67986 52.66246
# Shear Modulus (GPa) = -39.10221 30.31880 -4.39170
#
# Velocity S-wave (km/s) = -4.09742 3.60799 -1.37318
# Velocity P-wave (km/s) = 2.74043 6.90679 4.48295
#
# Compressibility (1/GPa) = 0.02886414
#
# Stress axis : x y z
#
# Youngs Moduli (GPa) = 151.03236 134.99040 39.01989
#
# Poissons Ratio (x) = 0.44402 0.02218
# Poissons Ratio (y) = 0.49678 0.06004
# Poissons Ratio (z) = 0.08586 0.20771
#
# Static dielectric constant tensor:
#      x y z
#    x 1.838140 0.000000 0.000000 
#    y 0.000000 1.861320 0.000000 
#    z 0.000000 0.000000 2.009220 
# 
# From -- ./inp_files/14490.got.cif
#   From: 2010.05.17/outbox.cif.g08.bks.cpg/sg64_8_cif.got.tgz:14490.got - 2010.06.03 16:29:19.
