data_PCOD9476258
_publ_section_title
;
Structure prediction by ZEFSAII (Michael W. Deem and Ramdas Pophale) SiO2 
 PCOD9476258
Probable space group: C M C M
;
_chemical_formula_sum "Si O2"
_cell_formula_units_Z 28
_cell_length_a 18.000000
_cell_length_b 9.000000
_cell_length_c 18.000000
_cell_angle_alpha 90.000000
_cell_angle_beta 90.000000
_cell_angle_gamma 90.000000
_cell_volume 2916.000000
_symmetry_space_group_name_H-M "C M C M"
_symmetry_group_IT_number 63
_symmetry_cell_setting 'orthorhombic'
loop_
_space_group_symop_operation_xyz
x,y,z
-x,-y,1/2+z
x,-y,-z
-x,y,1/2-z
-x,-y,-z
x,y,1/2-z
-x,y,z
x,-y,1/2+z
1/2+x,1/2+y,z
1/2-x,1/2-y,1/2+z
1/2+x,1/2-y,-z
1/2-x,1/2+y,1/2-z
1/2-x,1/2-y,-z
1/2+x,1/2+y,1/2-z
1/2-x,1/2+y,z
1/2+x,1/2-y,1/2+z
loop_
_atom_site_type_symbol
_atom_site_label
_atom_site_fract_x
_atom_site_fract_y
_atom_site_fract_z
Si Si1 0.500000 0.248021 0.522970
Si Si2 0.735342 0.818760 0.581347
Si Si3 0.166400 0.040753 0.834454
Si Si4 0.378918 0.000000 0.500000
Si Si5 0.500000 0.463290 0.119825
O O1 0.429728 0.138410 0.523396
O O2 0.500000 0.369889 0.587065
O O3 0.500000 0.345055 0.447720
O O4 0.750000 0.750000 0.500000
O O5 0.703874 0.689463 0.633163
O O6 0.672839 0.943727 0.566735
O O7 0.805870 0.903788 0.614836
O O8 0.190162 0.015276 0.750000
O O9 0.077615 0.057012 0.838537
#
# Coordination Sequence:
#
# PCOD9476258 Si02
#       5
#     8  16  16   8   8
#     4  10  22  36  65  99 125 165 221 272 318 366
#     4  12  23  41  69  97 126 168 222 269 318 387
#     4  12  26  43  64  96 136 172 210 269 335 386
#     4  11  20  38  64  99 124 158 218 277 314 372
#     4  11  23  40  65  91 129 176 214 265 312 401
#
# _framework density 9.602195
#
# number of rings (size 3 to 8) (size 9 to 14) (size 15 to 20)
#    0.000    0.571    5.714    3.000    4.000    0.000 
#    0.000    0.000    0.000    0.000    0.000    0.000 
#    0.000    0.000    0.000    0.000    0.000    0.000 
#
# Total GULP energy -156502.018090 kJ/mol
# GULP energy per Si atom -5589.357789 kJ/mol
# Density = 0.958034 g / cm^3
# Si number density = 9.602195 Si / 1000 Ang^3
#
#
#
# Elastic Constant Matrix: (Units=GPa)
#
#
# Indices 1 2 3 4 5 6 
#
# 1 104.7176 35.3584 16.6136 0.0000 0.0000 0.0000
# 2 35.3584 111.0208 28.2963 0.0000 0.0000 0.0000
# 3 16.6136 28.2963 80.9084 0.0000 0.0000 0.0000
# 4 0.0000 0.0000 0.0000 14.6979 0.0000 0.0000
# 5 0.0000 0.0000 0.0000 0.0000 -37.1011 0.0000
# 6 0.0000 0.0000 0.0000 0.0000 0.0000 39.8328
#
#
#
# Elastic Compliance Matrix: (Units=1/GPa)
#
#
# Indices 1 2 3 4 5 6 
#
# 1 0.010791 -0.003153 -0.001113 0.000000 0.000000 0.000000
# 2 -0.003153 0.010810 -0.003133 0.000000 0.000000 0.000000
# 3 -0.001113 -0.003133 0.013684 0.000000 0.000000 0.000000
# 4 0.000000 0.000000 0.000000 0.068037 0.000000 0.000000
# 5 0.000000 0.000000 0.000000 0.000000 -0.026953 0.000000
# 6 0.000000 0.000000 0.000000 0.000000 0.000000 0.025105
#
#
# Mechanical properties :
#
#
# Convention : Reuss Voigt Hill
#
# Bulk Modulus (GPa) = 48.81313 50.79816 49.80565
# Shear Modulus (GPa) = 40.61719 17.91115 29.26417
#
# Velocity S-wave (km/s) = 4.60390 3.05726 3.90786
# Velocity P-wave (km/s) = 7.33035 6.24269 6.80828
#
# Compressibility (1/GPa) = 0.02048629
#
# Stress axis : x y z
#
# Youngs Moduli (GPa) = 92.67242 92.50632 73.07811
#
# Poissons Ratio (x) = 0.29167 0.08134
# Poissons Ratio (y) = 0.29219 0.22897
# Poissons Ratio (z) = 0.10315 0.28984
#
# Static dielectric constant tensor:
#      x y z
#    x 1.704300 0.000000 0.000000 
#    y 0.000000 1.659930 0.000000 
#    z 0.000000 0.000000 1.655990 
# 
# From -- ./inp_files/45018.got.cif
#   From: 2010.05.17/outbox.ucp.g08.bks.cvg/sg63_23_cif.got.tgz:45018.got - 2010.06.11 16:32:19.
