data_PCOD9476366
_publ_section_title
;
Structure prediction by ZEFSAII (Michael W. Deem and Ramdas Pophale) SiO2 
 PCOD9476366
Probable space group: C M C A
;
_chemical_formula_sum "Si O2"
_cell_formula_units_Z 120
_cell_length_a 29.575173
_cell_length_b 13.762665
_cell_length_c 17.035536
_cell_angle_alpha 90.000000
_cell_angle_beta 90.000000
_cell_angle_gamma 90.000000
_cell_volume 6934.028703
_symmetry_space_group_name_H-M "C M C A"
_symmetry_group_IT_number 64
_symmetry_cell_setting 'orthorhombic'
loop_
_space_group_symop_operation_xyz
x,y,z
-x,1/2-y,1/2+z
x,-y,-z
-x,1/2+y,1/2-z
-x,-y,-z
x,1/2+y,1/2-z
-x,y,z
x,1/2-y,1/2+z
1/2+x,1/2+y,z
1/2-x,-y,1/2+z
1/2+x,1/2-y,-z
1/2-x,y,1/2-z
1/2-x,1/2-y,-z
1/2+x,y,1/2-z
1/2-x,1/2+y,z
1/2+x,-y,1/2+z
loop_
_atom_site_type_symbol
_atom_site_label
_atom_site_fract_x
_atom_site_fract_y
_atom_site_fract_z
Si Si1 0.554116 0.411620 0.281136
Si Si2 0.701921 0.823521 0.220063
Si Si3 0.250000 0.009672 0.250000
Si Si4 0.118427 0.608360 0.488492
Si Si5 0.618898 0.188267 0.660672
Si Si6 0.093480 0.116048 0.267145
Si Si7 0.321000 0.128117 0.346537
Si Si8 0.051791 0.722390 0.375773
O O1 0.500000 0.414958 0.270621
O O2 0.579723 0.374921 0.202776
O O3 0.574538 0.516333 0.300312
O O4 0.564254 0.330957 0.347579
O O5 0.750000 0.782255 0.250000
O O6 0.715755 0.935256 0.204770
O O7 0.664003 0.824533 0.287310
O O8 0.685076 0.745220 0.157036
O O9 0.277675 0.072859 0.312407
O O10 0.099284 0.500000 0.500000
O O11 0.127255 0.653913 0.573015
O O12 0.162206 0.598422 0.432348
O O13 0.084228 0.676594 0.440356
O O14 0.603980 0.300293 0.670022
O O15 0.138739 0.102503 0.214854
O O16 0.058208 0.159280 0.203643
O O17 0.000000 0.720662 0.401337
#
# Coordination Sequence:
#
# PCOD9476366 Si02
#       8
#    16  16   8  16  16  16  16  16
#     4  10  19  34  58  85 111 144 192 233 266 312
#     4   9  19  33  58  79 100 141 187 227 269 314
#     4  10  16  30  58  76  98 128 182 224 264 320
#     4  11  22  34  54  78 114 147 172 224 289 337
#     4  10  20  36  53  84 113 144 183 228 278 329
#     4   9  18  32  56  76 105 144 187 231 262 310
#     4  10  19  34  53  80 104 137 182 222 271 330
#     4   9  19  34  52  80 112 145 184 224 268 327
#
# _framework density 17.305956999999999
#
# number of rings (size 3 to 8) (size 9 to 14) (size 15 to 20)
#    0.400    1.867    0.667    4.400    0.000    1.333 
#    0.000    1.333    0.000    1.600    0.000    0.000 
#    0.000    0.000    0.000    0.000    0.000    0.000 
#
# Total GULP energy -334207.503018 kJ/mol
# GULP energy per Si atom -5570.125050 kJ/mol
# Density = 1.726657 g / cm^3
# Si number density = 17.305957 Si / 1000 Ang^3
#
#
#
# Elastic Constant Matrix: (Units=GPa)
#
#
# Indices 1 2 3 4 5 6 
#
# 1 81.0431 44.5641 33.6989 0.0000 0.0000 0.0000
# 2 44.5641 131.3726 50.9368 0.0000 0.0000 0.0000
# 3 33.6989 50.9368 67.4153 0.0000 0.0000 0.0000
# 4 0.0000 0.0000 0.0000 13.2927 0.0000 0.0000
# 5 0.0000 0.0000 0.0000 0.0000 15.5483 0.0000
# 6 0.0000 0.0000 0.0000 0.0000 0.0000 19.7468
#
#
#
# Elastic Compliance Matrix: (Units=1/GPa)
#
#
# Indices 1 2 3 4 5 6 
#
# 1 0.016592 -0.003412 -0.005716 0.000000 0.000000 0.000000
# 2 -0.003412 0.011468 -0.006959 0.000000 0.000000 0.000000
# 3 -0.005716 -0.006959 0.022948 0.000000 0.000000 0.000000
# 4 0.000000 0.000000 0.000000 0.075229 0.000000 0.000000
# 5 0.000000 0.000000 0.000000 0.000000 0.064316 0.000000
# 6 0.000000 0.000000 0.000000 0.000000 0.000000 0.050641
#
#
# Mechanical properties :
#
#
# Convention : Reuss Voigt Hill
#
# Bulk Modulus (GPa) = 53.09406 59.80340 56.44873
# Shear Modulus (GPa) = 17.87973 19.75962 18.81968
#
# Velocity S-wave (km/s) = 3.21776 3.38269 3.30126
# Velocity P-wave (km/s) = 6.67469 7.06317 6.87168
#
# Compressibility (1/GPa) = 0.01883450
#
# Stress axis : x y z
#
# Youngs Moduli (GPa) = 60.26957 87.20235 43.57593
#
# Poissons Ratio (x) = 0.29755 0.24907
# Poissons Ratio (y) = 0.20565 0.30324
# Poissons Ratio (z) = 0.34449 0.60683
#
# Static dielectric constant tensor:
#      x y z
#    x 1.610050 0.000000 0.000000 
#    y 0.000000 1.626050 0.000000 
#    z 0.000000 0.000000 1.544130 
# 
# From -- ./inp_files/28505.got.cif
#   From: 2010.05.17/outbox.cif.g08.bks.cpg/sg64_15_cif.got.tgz:28505.got - 2010.06.03 16:29:19.
