data_PCOD9476384
_publ_section_title
;
Structure prediction by ZEFSAII (Michael W. Deem and Ramdas Pophale) SiO2 
 PCOD9476384
Probable space group: C M C A
;
_chemical_formula_sum "Si O2"
_cell_formula_units_Z 108
_cell_length_a 16.365264
_cell_length_b 34.440024
_cell_length_c 7.431826
_cell_angle_alpha 90.000000
_cell_angle_beta 90.000000
_cell_angle_gamma 90.000000
_cell_volume 4188.726401
_symmetry_space_group_name_H-M "C M C A"
_symmetry_group_IT_number 64
_symmetry_cell_setting 'orthorhombic'
loop_
_space_group_symop_operation_xyz
x,y,z
-x,1/2-y,1/2+z
x,-y,-z
-x,1/2+y,1/2-z
-x,-y,-z
x,1/2+y,1/2-z
-x,y,z
x,1/2-y,1/2+z
1/2+x,1/2+y,z
1/2-x,-y,1/2+z
1/2+x,1/2-y,-z
1/2-x,y,1/2-z
1/2-x,1/2-y,-z
1/2+x,y,1/2-z
1/2-x,1/2+y,z
1/2+x,-y,1/2+z
loop_
_atom_site_type_symbol
_atom_site_label
_atom_site_fract_x
_atom_site_fract_y
_atom_site_fract_z
Si Si1 0.906804 0.044783 0.857028
Si Si2 0.906276 0.793986 0.959505
Si Si3 0.371626 0.941427 0.950453
Si Si4 0.838685 0.715071 0.836802
Si Si5 0.000000 0.500000 0.000000
Si Si6 0.598896 0.641926 0.524103
Si Si7 0.598868 0.373832 0.060295
Si Si8 0.232603 0.500000 0.500000
O O1 0.910729 0.059344 0.652545
O O2 0.881611 0.081567 0.980247
O O3 0.832810 0.015165 0.856906
O O4 0.000000 0.034236 0.901774
O O5 0.904542 0.790196 0.176749
O O6 0.875349 0.838207 0.934727
O O7 0.000000 0.789923 0.894334
O O8 0.848842 0.759506 0.895328
O O9 0.374533 0.895724 0.907032
O O10 0.284996 0.962211 0.952877
O O11 0.431038 0.975292 0.882536
O O12 0.750000 0.707828 0.750000
O O13 0.861901 0.684785 0.995765
O O14 0.500000 0.644289 0.512419
O O15 0.626308 0.633643 0.733081
O O16 0.500000 0.372056 0.062263
#
# Coordination Sequence:
#
# PCOD9476384 Si02
#       8
#    16  16  16  16   4  16  16   8
#     4  10  18  35  54  77 106 148 189 237 285 353
#     4  10  19  36  58  85 114 158 199 243 286 359
#     4  10  19  33  54  79 111 139 188 241 293 339
#     4  11  22  34  55  89 126 154 192 250 307 348
#     4  10  16  32  54  82  98 144 178 244 300 340
#     4   9  16  32  54  81 106 142 185 234 284 350
#     4   7  14  28  54  78 100 133 188 232 276 324
#     4  11  23  29  49  84 110 132 177 231 309 339
#
# _framework density 25.783491999999999
#
# number of rings (size 3 to 8) (size 9 to 14) (size 15 to 20)
#    0.000    2.370    1.481    4.222    0.000    3.556 
#    0.000    0.000    0.000    7.111    3.852    0.000 
#    0.000    0.000    0.000    0.000    0.000    0.000 
#
# Total GULP energy -300635.054228 kJ/mol
# GULP energy per Si atom -5567.315819 kJ/mol
# Density = 2.572481 g / cm^3
# Si number density = 25.783492 Si / 1000 Ang^3
#
#
#
# Elastic Constant Matrix: (Units=GPa)
#
#
# Indices 1 2 3 4 5 6 
#
# 1 153.5044 82.3959 10.0781 0.0000 0.0000 0.0000
# 2 82.3959 203.2639 32.8863 0.0000 0.0000 0.0000
# 3 10.0781 32.8863 28.4728 0.0000 0.0000 0.0000
# 4 0.0000 0.0000 0.0000 39.6750 0.0000 0.0000
# 5 0.0000 0.0000 0.0000 0.0000 53.7554 0.0000
# 6 0.0000 0.0000 0.0000 0.0000 0.0000 40.1722
#
#
#
# Elastic Compliance Matrix: (Units=1/GPa)
#
#
# Indices 1 2 3 4 5 6 
#
# 1 0.008358 -0.003578 0.001174 0.000000 0.000000 0.000000
# 2 -0.003578 0.007582 -0.007491 0.000000 0.000000 0.000000
# 3 0.001174 -0.007491 0.043358 0.000000 0.000000 0.000000
# 4 0.000000 0.000000 0.000000 0.025205 0.000000 0.000000
# 5 0.000000 0.000000 0.000000 0.000000 0.018603 0.000000
# 6 0.000000 0.000000 0.000000 0.000000 0.000000 0.024893
#
#
# Mechanical properties :
#
#
# Convention : Reuss Voigt Hill
#
# Bulk Modulus (GPa) = 25.31103 70.66241 47.98672
# Shear Modulus (GPa) = 31.06422 44.04590 37.55506
#
# Velocity S-wave (km/s) = 3.47480 4.13764 3.82062
# Velocity P-wave (km/s) = 5.09285 7.09171 6.17371
#
# Compressibility (1/GPa) = 0.03950846
#
# Stress axis : x y z
#
# Youngs Moduli (GPa) = 119.64707 131.89018 23.06394
#
# Poissons Ratio (x) = 0.47190 -0.02708
# Poissons Ratio (y) = 0.42810 0.17277
# Poissons Ratio (z) = -0.14050 0.98798
#
# Static dielectric constant tensor:
#      x y z
#    x 1.941120 0.000000 0.000000 
#    y 0.000000 2.433530 0.000000 
#    z 0.000000 0.000000 2.306800 
# 
# From -- ./inp_files/15024.got.cif
#   From: 2010.05.17/outbox.cif.g08.bks.cpg/sg64_8_cif.got.tgz:15024.got - 2010.06.03 16:29:19.
