data_PCOD9476813
_publ_section_title
;
Structure prediction by ZEFSAII (Michael W. Deem and Ramdas Pophale) SiO2 
 PCOD9476813
Probable space group: C M C A
;
_chemical_formula_sum "Si O2"
_cell_formula_units_Z 80
_cell_length_a 17.855668
_cell_length_b 8.527218
_cell_length_c 21.416556
_cell_angle_alpha 90.000000
_cell_angle_beta 90.000000
_cell_angle_gamma 90.000000
_cell_volume 3260.867117
_symmetry_space_group_name_H-M "C M C A"
_symmetry_group_IT_number 64
_symmetry_cell_setting 'orthorhombic'
loop_
_space_group_symop_operation_xyz
x,y,z
-x,1/2-y,1/2+z
x,-y,-z
-x,1/2+y,1/2-z
-x,-y,-z
x,1/2+y,1/2-z
-x,y,z
x,1/2-y,1/2+z
1/2+x,1/2+y,z
1/2-x,-y,1/2+z
1/2+x,1/2-y,-z
1/2-x,y,1/2-z
1/2-x,1/2-y,-z
1/2+x,y,1/2-z
1/2-x,1/2+y,z
1/2+x,-y,1/2+z
loop_
_atom_site_type_symbol
_atom_site_label
_atom_site_fract_x
_atom_site_fract_y
_atom_site_fract_z
Si Si1 0.500000 0.600037 0.248877
Si Si2 0.582873 0.672498 0.066713
Si Si3 0.212525 0.672011 0.145602
Si Si4 0.143708 0.979796 0.173180
Si Si5 0.803103 0.596453 0.943774
Si Si6 0.500000 0.366439 0.336146
O O1 0.575974 0.535094 0.216577
O O2 0.500000 0.547481 0.320492
O O3 0.500000 0.781094 0.230606
O O4 0.500000 0.641782 0.041183
O O5 0.617943 0.522577 0.101385
O O6 0.635441 0.784930 0.026769
O O7 0.567757 0.792139 0.125088
O O8 0.280336 0.582401 0.181066
O O9 0.172323 0.537225 0.105720
O O10 0.251844 0.787700 0.095696
O O11 0.162145 0.796346 0.182630
O O12 0.766442 0.500000 0.000000
#
# Coordination Sequence:
#
# PCOD9476813 Si02
#       6
#     8  16  16  16  16   8
#     4  10  18  34  60  79  98 138 180 213 250 330
#     4   8  17  34  50  72 106 135 165 222 266 301
#     4   9  19  32  51  79 107 138 176 219 264 312
#     4   9  17  34  56  76 105 141 175 210 268 308
#     4  10  18  31  52  74 103 142 180 217 259 319
#     4   8  18  32  51  77  99 130 171 211 261 308
#
# _framework density 24.533351
#
# number of rings (size 3 to 8) (size 9 to 14) (size 15 to 20)
#    0.600    2.400    1.000    0.600    0.000    2.000 
#    1.800    0.000    0.000   42.000    0.000    0.000 
#    0.000    0.000    0.000    0.000    0.000    0.000 
#
# Total GULP energy -222835.739852 kJ/mol
# GULP energy per Si atom -5570.893496 kJ/mol
# Density = 2.447751 g / cm^3
# Si number density = 24.533351 Si / 1000 Ang^3
#
#
#
# Elastic Constant Matrix: (Units=GPa)
#
#
# Indices 1 2 3 4 5 6 
#
# 1 83.8609 43.1026 12.7734 0.0000 0.0000 0.0000
# 2 43.1026 128.2066 23.9843 0.0000 0.0000 0.0000
# 3 12.7734 23.9843 35.7987 0.0000 0.0000 0.0000
# 4 0.0000 0.0000 0.0000 36.8755 0.0000 0.0000
# 5 0.0000 0.0000 0.0000 0.0000 11.4278 0.0000
# 6 0.0000 0.0000 0.0000 0.0000 0.0000 21.5223
#
#
#
# Elastic Compliance Matrix: (Units=1/GPa)
#
#
# Indices 1 2 3 4 5 6 
#
# 1 0.014564 -0.004487 -0.002191 0.000000 0.000000 0.000000
# 2 -0.004487 0.010300 -0.005300 0.000000 0.000000 0.000000
# 3 -0.002191 -0.005300 0.032266 0.000000 0.000000 0.000000
# 4 0.000000 0.000000 0.000000 0.027118 0.000000 0.000000
# 5 0.000000 0.000000 0.000000 0.000000 0.087506 0.000000
# 6 0.000000 0.000000 0.000000 0.000000 0.000000 0.046464
#
#
# Mechanical properties :
#
#
# Convention : Reuss Voigt Hill
#
# Bulk Modulus (GPa) = 30.14217 45.28743 37.71480
# Shear Modulus (GPa) = 19.74485 25.16551 22.45518
#
# Velocity S-wave (km/s) = 2.84001 3.20624 3.02866
# Velocity P-wave (km/s) = 4.80282 5.67505 5.25706
#
# Compressibility (1/GPa) = 0.03317611
#
# Stress axis : x y z
#
# Youngs Moduli (GPa) = 68.66147 97.08996 30.99207
#
# Poissons Ratio (x) = 0.43560 0.06790
# Poissons Ratio (y) = 0.30806 0.16425
# Poissons Ratio (z) = 0.15042 0.51455
#
# Static dielectric constant tensor:
#      x y z
#    x 2.020950 0.000000 0.000000 
#    y 0.000000 1.925810 0.000000 
#    z 0.000000 0.000000 1.980990 
# 
# From -- ./inp_files/46159.got.cif
#   From: 2010.05.17/outbox.cif.g08.bks.cpg/sg64_24_cif.got.tgz:46159.got - 2010.06.03 16:29:19.
