data_PCOD9476134
_publ_section_title
;
Structure prediction by ZEFSAII (Michael W. Deem and Ramdas Pophale) SiO2 
 PCOD9476134
Probable space group: C M C M
;
_chemical_formula_sum "Si O2"
_cell_formula_units_Z 44
_cell_length_a 21.000000
_cell_length_b 30.000000
_cell_length_c 9.000000
_cell_angle_alpha 90.000000
_cell_angle_beta 90.000000
_cell_angle_gamma 90.000000
_cell_volume 5670.000000
_symmetry_space_group_name_H-M "C M C M"
_symmetry_group_IT_number 63
_symmetry_cell_setting 'orthorhombic'
loop_
_space_group_symop_operation_xyz
x,y,z
-x,-y,1/2+z
x,-y,-z
-x,y,1/2-z
-x,-y,-z
x,y,1/2-z
-x,y,z
x,-y,1/2+z
1/2+x,1/2+y,z
1/2-x,1/2-y,1/2+z
1/2+x,1/2-y,-z
1/2-x,1/2+y,1/2-z
1/2-x,1/2-y,-z
1/2+x,1/2+y,1/2-z
1/2-x,1/2+y,z
1/2+x,1/2-y,1/2+z
loop_
_atom_site_type_symbol
_atom_site_label
_atom_site_fract_x
_atom_site_fract_y
_atom_site_fract_z
Si Si1 0.359386 0.047985 0.571586
Si Si2 0.286353 0.707607 0.072960
Si Si3 0.929840 0.768688 0.574568
Si Si4 0.301784 0.863584 0.072476
Si Si5 0.571035 0.173596 0.073341
Si Si6 0.000000 0.549243 0.570336
O O1 0.360301 0.043424 0.750000
O O2 0.306471 0.084290 0.532953
O O3 0.429931 0.066199 0.525630
O O4 0.349915 0.000000 0.500000
O O5 0.276844 0.710218 0.250000
O O6 0.362475 0.707518 0.044521
O O7 0.250000 0.750000 0.000000
O O8 0.252799 0.664077 0.007336
O O9 0.927010 0.755056 0.750000
O O10 0.930091 0.725689 0.469450
O O11 0.000000 0.791009 0.555653
O O12 0.296791 0.858637 0.250000
O O13 0.369680 0.844628 0.018511
O O14 0.580291 0.167302 0.250000
O O15 0.500000 0.156216 0.033311
O O16 0.000000 0.500000 0.500000
O O17 0.000000 0.548114 0.750000
#
# Coordination Sequence:
#
# PCOD9476134 Si02
#       6
#    16  16  16  16  16   8
#     4   9  19  33  49  66  88 119 157 200 242 282
#     4  11  21  33  50  71  98 128 159 199 239 282
#     4   9  18  33  51  68  89 123 162 198 239 283
#     4  11  22  33  48  69  94 129 163 196 241 292
#     4  10  20  31  44  66  93 123 163 206 243 279
#     4   8  14  28  46  64  84 112 152 196 240 278
#
# _framework density 7.760141
#
# number of rings (size 3 to 8) (size 9 to 14) (size 15 to 20)
#    0.000    2.182    1.818    1.636    1.273    3.273 
#    0.000    0.000    0.000    0.000    0.000    0.000 
#    0.000    0.727    0.000    1.636    0.000    2.545 
#
# Total GULP energy -245041.546700 kJ/mol
# GULP energy per Si atom -5569.126061 kJ/mol
# Density = 0.774248 g / cm^3
# Si number density = 7.760141 Si / 1000 Ang^3
#
#
#
# Elastic Constant Matrix: (Units=GPa)
#
#
# Indices 1 2 3 4 5 6 
#
# 1 120.4000 58.8360 35.5088 0.0000 0.0000 0.0000
# 2 58.8360 81.9884 25.5853 0.0000 0.0000 0.0000
# 3 35.5088 25.5853 31.6071 0.0000 0.0000 0.0000
# 4 0.0000 0.0000 0.0000 16.2999 0.0000 0.0000
# 5 0.0000 0.0000 0.0000 0.0000 21.8742 0.0000
# 6 0.0000 0.0000 0.0000 0.0000 0.0000 28.5072
#
#
#
# Elastic Compliance Matrix: (Units=1/GPa)
#
#
# Indices 1 2 3 4 5 6 
#
# 1 0.015214 -0.007471 -0.011044 0.000000 0.000000 0.000000
# 2 -0.007471 0.019988 -0.007786 0.000000 0.000000 0.000000
# 3 -0.011044 -0.007786 0.050349 0.000000 0.000000 0.000000
# 4 0.000000 0.000000 0.000000 0.061350 0.000000 0.000000
# 5 0.000000 0.000000 0.000000 0.000000 0.045716 0.000000
# 6 0.000000 0.000000 0.000000 0.000000 0.000000 0.035079
#
#
# Mechanical properties :
#
#
# Convention : Reuss Voigt Hill
#
# Bulk Modulus (GPa) = 30.35157 52.65065 41.50111
# Shear Modulus (GPa) = 17.16554 20.94063 19.05309
#
# Velocity S-wave (km/s) = 3.32928 3.67719 3.50755
# Velocity P-wave (km/s) = 5.86322 7.21293 6.57281
#
# Compressibility (1/GPa) = 0.03294722
#
# Stress axis : x y z
#
# Youngs Moduli (GPa) = 65.72999 50.02973 19.86148
#
# Poissons Ratio (x) = 0.37378 0.21935
# Poissons Ratio (y) = 0.49108 0.15465
# Poissons Ratio (z) = 0.72592 0.38955
#
# Static dielectric constant tensor:
#      x y z
#    x 1.539570 0.000000 0.000000 
#    y 0.000000 1.528040 0.000000 
#    z 0.000000 0.000000 1.513980 
# 
# From -- ./inp_files/8982.got.cif
#   From: 2010.05.17/outbox.ucp.g08.bks.cvg/sg63_5_cif.got.tgz:8982.got - 2010.06.11 16:32:19.
