data_PCOD9476785
_publ_section_title
;
Structure prediction by ZEFSAII (Michael W. Deem and Ramdas Pophale) SiO2 
 PCOD9476785
Probable space group: C M C A
;
_chemical_formula_sum "Si O2"
_cell_formula_units_Z 80
_cell_length_a 17.120545
_cell_length_b 18.229697
_cell_length_c 14.825400
_cell_angle_alpha 90.000000
_cell_angle_beta 90.000000
_cell_angle_gamma 90.000000
_cell_volume 4627.042147
_symmetry_space_group_name_H-M "C M C A"
_symmetry_group_IT_number 64
_symmetry_cell_setting 'orthorhombic'
loop_
_space_group_symop_operation_xyz
x,y,z
-x,1/2-y,1/2+z
x,-y,-z
-x,1/2+y,1/2-z
-x,-y,-z
x,1/2+y,1/2-z
-x,y,z
x,1/2-y,1/2+z
1/2+x,1/2+y,z
1/2-x,-y,1/2+z
1/2+x,1/2-y,-z
1/2-x,y,1/2-z
1/2-x,1/2-y,-z
1/2+x,y,1/2-z
1/2-x,1/2+y,z
1/2+x,-y,1/2+z
loop_
_atom_site_type_symbol
_atom_site_label
_atom_site_fract_x
_atom_site_fract_y
_atom_site_fract_z
Si Si1 0.764875 0.086515 0.504299
Si Si2 0.298900 0.339826 0.167867
Si Si3 0.090602 0.189005 0.503120
Si Si4 0.588632 0.774358 0.791826
Si Si5 0.687745 0.201134 0.377330
O O1 0.705086 0.107277 0.584106
O O2 0.848751 0.124010 0.525943
O O3 0.729631 0.130325 0.418644
O O4 0.772376 0.000000 0.500000
O O5 0.250000 0.372416 0.250000
O O6 0.381287 0.309649 0.201348
O O7 0.252045 0.265190 0.139096
O O8 0.092108 0.196813 0.394361
O O9 0.127393 0.260978 0.551813
O O10 0.000000 0.178603 0.529967
O O11 0.500000 0.779023 0.760535
O O12 0.644056 0.811505 0.717264
#
# Coordination Sequence:
#
# PCOD9476785 Si02
#       5
#    16  16  16  16  16
#     4  11  21  35  52  81 116 149 177 212 276 338
#     4   9  17  34  55  78 103 137 187 231 258 311
#     4  10  19  34  56  80 108 140 186 236 264 305
#     4  10  18  30  57  83 101 133 181 236 272 301
#     4  10  18  34  55  80 106 138 186 225 267 315
#
# _framework density 17.289663000000001
#
# number of rings (size 3 to 8) (size 9 to 14) (size 15 to 20)
#    0.000    2.000    4.000    1.800    0.000    0.400 
#    3.600    0.000    0.000    5.400    0.000    0.000 
#    0.000    0.000    0.000    0.000    0.000    0.000 
#
# Total GULP energy -222820.415287 kJ/mol
# GULP energy per Si atom -5570.510382 kJ/mol
# Density = 1.725031 g / cm^3
# Si number density = 17.289663 Si / 1000 Ang^3
#
#
#
# Elastic Constant Matrix: (Units=GPa)
#
#
# Indices 1 2 3 4 5 6 
#
# 1 86.0145 24.1800 6.3398 0.0000 0.0000 0.0000
# 2 24.1800 71.9599 13.4241 0.0000 0.0000 0.0000
# 3 6.3398 13.4241 62.8311 0.0000 0.0000 0.0000
# 4 0.0000 0.0000 0.0000 8.7131 0.0000 0.0000
# 5 0.0000 0.0000 0.0000 0.0000 23.9531 0.0000
# 6 0.0000 0.0000 0.0000 0.0000 0.0000 13.1218
#
#
#
# Elastic Compliance Matrix: (Units=1/GPa)
#
#
# Indices 1 2 3 4 5 6 
#
# 1 0.012848 -0.004244 -0.000390 0.000000 0.000000 0.000000
# 2 -0.004244 0.015876 -0.002964 0.000000 0.000000 0.000000
# 3 -0.000390 -0.002964 0.016588 0.000000 0.000000 0.000000
# 4 0.000000 0.000000 0.000000 0.114770 0.000000 0.000000
# 5 0.000000 0.000000 0.000000 0.000000 0.041748 0.000000
# 6 0.000000 0.000000 0.000000 0.000000 0.000000 0.076209
#
#
# Mechanical properties :
#
#
# Convention : Reuss Voigt Hill
#
# Bulk Modulus (GPa) = 33.20442 34.29926 33.75184
# Shear Modulus (GPa) = 16.48679 20.94837 18.71758
#
# Velocity S-wave (km/s) = 3.09133 3.48460 3.29384
# Velocity P-wave (km/s) = 5.65582 6.00591 5.83349
#
# Compressibility (1/GPa) = 0.03011648
#
# Stress axis : x y z
#
# Youngs Moduli (GPa) = 77.83401 62.98923 60.28387
#
# Poissons Ratio (x) = 0.26736 0.02348
# Poissons Ratio (y) = 0.33037 0.17866
# Poissons Ratio (z) = 0.03032 0.18668
#
# Static dielectric constant tensor:
#      x y z
#    x 1.627780 0.000000 0.000000 
#    y 0.000000 1.548780 0.000000 
#    z 0.000000 0.000000 1.647480 
# 
# From -- ./inp_files/25261.got.cif
#   From: 2010.05.17/outbox.cif.g08.bks.cpg/sg64_13_cif.got.tgz:25261.got - 2010.06.03 16:29:19.
