data_PCOD9476882
_publ_section_title
;
Structure prediction by ZEFSAII (Michael W. Deem and Ramdas Pophale) SiO2 
 PCOD9476882
Probable space group: C M C A
;
_chemical_formula_sum "Si O2"
_cell_formula_units_Z 128
_cell_length_a 11.913646
_cell_length_b 25.055292
_cell_length_c 24.347612
_cell_angle_alpha 90.000000
_cell_angle_beta 90.000000
_cell_angle_gamma 90.000000
_cell_volume 7267.759244
_symmetry_space_group_name_H-M "C M C A"
_symmetry_group_IT_number 64
_symmetry_cell_setting 'orthorhombic'
loop_
_space_group_symop_operation_xyz
x,y,z
-x,1/2-y,1/2+z
x,-y,-z
-x,1/2+y,1/2-z
-x,-y,-z
x,1/2+y,1/2-z
-x,y,z
x,1/2-y,1/2+z
1/2+x,1/2+y,z
1/2-x,-y,1/2+z
1/2+x,1/2-y,-z
1/2-x,y,1/2-z
1/2-x,1/2-y,-z
1/2+x,y,1/2-z
1/2-x,1/2+y,z
1/2+x,-y,1/2+z
loop_
_atom_site_type_symbol
_atom_site_label
_atom_site_fract_x
_atom_site_fract_y
_atom_site_fract_z
Si Si1 0.372816 0.241884 0.282602
Si Si2 0.777405 0.059711 0.505596
Si Si3 0.279403 0.149535 0.813002
Si Si4 0.632158 0.426919 0.614964
Si Si5 0.366279 0.837346 0.504240
Si Si6 0.867137 0.216965 0.892844
Si Si7 0.730530 0.678050 0.125220
Si Si8 0.631286 0.046820 0.874580
O O1 0.500000 0.237067 0.257083
O O2 0.250000 0.239317 0.250000
O O3 0.366677 0.300740 0.310456
O O4 0.357444 0.196288 0.328572
O O5 0.850832 0.071298 0.451309
O O6 0.682884 0.104402 0.508700
O O7 0.848120 0.059604 0.561318
O O8 0.729885 0.000000 0.500000
O O9 0.250000 0.139195 0.750000
O O10 0.179194 0.174249 0.849273
O O11 0.316213 0.094551 0.840171
O O12 0.500000 0.419300 0.626968
O O13 0.708428 0.378271 0.635829
O O14 0.670505 0.485697 0.635223
O O15 0.500000 0.837681 0.504519
O O16 0.327948 0.799226 0.454261
O O17 0.323321 0.822783 0.564676
O O18 0.821639 0.274664 0.876454
O O19 0.000000 0.216763 0.892421
O O20 0.500000 0.046380 0.863451
#
# Coordination Sequence:
#
# PCOD9476882 Si02
#       8
#    16  16  16  16  16  16  16  16
#     4  10  22  39  60  85 111 144 188 234 281 334
#     4   9  17  30  49  74 105 139 180 223 266 327
#     4  10  21  35  55  80 108 139 183 229 277 331
#     4   9  18  31  51  80 109 143 182 223 271 328
#     4  10  19  32  50  74 108 142 175 219 276 335
#     4  10  20  34  53  76 107 144 180 227 279 333
#     4  10  20  34  54  78 110 141 183 225 271 332
#     4  10  18  32  53  75 105 140 179 225 277 325
#
# _framework density 17.612031000000002
#
# number of rings (size 3 to 8) (size 9 to 14) (size 15 to 20)
#    0.000    2.250    1.250    1.875    0.000    7.250 
#    0.000    0.625    0.000    0.750    0.000    0.000 
#    0.000    0.000    0.000    0.000    0.000    0.000 
#
# Total GULP energy -356415.346570 kJ/mol
# GULP energy per Si atom -5568.989790 kJ/mol
# Density = 1.757194 g / cm^3
# Si number density = 17.612031 Si / 1000 Ang^3
#
#
#
# Elastic Constant Matrix: (Units=GPa)
#
#
# Indices 1 2 3 4 5 6 
#
# 1 76.0711 44.1080 28.8757 0.0000 0.0000 0.0000
# 2 44.1080 145.6306 65.5759 0.0000 0.0000 0.0000
# 3 28.8757 65.5759 123.2964 0.0000 0.0000 0.0000
# 4 0.0000 0.0000 0.0000 30.3358 0.0000 0.0000
# 5 0.0000 0.0000 0.0000 0.0000 16.8028 0.0000
# 6 0.0000 0.0000 0.0000 0.0000 0.0000 14.3269
#
#
#
# Elastic Compliance Matrix: (Units=1/GPa)
#
#
# Indices 1 2 3 4 5 6 
#
# 1 0.016169 -0.004197 -0.001554 0.000000 0.000000 0.000000
# 2 -0.004197 0.010119 -0.004399 0.000000 0.000000 0.000000
# 3 -0.001554 -0.004399 0.010814 0.000000 0.000000 0.000000
# 4 0.000000 0.000000 0.000000 0.032964 0.000000 0.000000
# 5 0.000000 0.000000 0.000000 0.000000 0.059514 0.000000
# 6 0.000000 0.000000 0.000000 0.000000 0.000000 0.069799
#
#
# Mechanical properties :
#
#
# Convention : Reuss Voigt Hill
#
# Bulk Modulus (GPa) = 59.51971 69.12412 64.32191
# Shear Modulus (GPa) = 22.19455 26.05565 24.12510
#
# Velocity S-wave (km/s) = 3.55377 3.85050 3.70511
# Velocity P-wave (km/s) = 7.12091 7.68778 7.40977
#
# Compressibility (1/GPa) = 0.01680116
#
# Stress axis : x y z
#
# Youngs Moduli (GPa) = 61.84531 98.82757 92.47249
#
# Poissons Ratio (x) = 0.41482 0.14374
# Poissons Ratio (y) = 0.25959 0.40675
# Poissons Ratio (z) = 0.09613 0.43471
#
# Static dielectric constant tensor:
#      x y z
#    x 1.594670 0.000000 0.000000 
#    y 0.000000 1.599950 0.000000 
#    z 0.000000 0.000000 1.632680 
# 
# From -- ./inp_files/44566.got.cif
#   From: 2010.05.17/outbox.cif.g08.bks.cpg/sg64_23_cif.got.tgz:44566.got - 2010.06.03 16:29:19.
