data_PCOD9476705
_publ_section_title
;
Structure prediction by ZEFSAII (Michael W. Deem and Ramdas Pophale) SiO2 
 PCOD9476705
Probable space group: C M C A
;
_chemical_formula_sum "Si O2"
_cell_formula_units_Z 104
_cell_length_a 14.373341
_cell_length_b 23.763137
_cell_length_c 16.724349
_cell_angle_alpha 90.000000
_cell_angle_beta 90.000000
_cell_angle_gamma 90.000000
_cell_volume 5712.296250
_symmetry_space_group_name_H-M "C M C A"
_symmetry_group_IT_number 64
_symmetry_cell_setting 'orthorhombic'
loop_
_space_group_symop_operation_xyz
x,y,z
-x,1/2-y,1/2+z
x,-y,-z
-x,1/2+y,1/2-z
-x,-y,-z
x,1/2+y,1/2-z
-x,y,z
x,1/2-y,1/2+z
1/2+x,1/2+y,z
1/2-x,-y,1/2+z
1/2+x,1/2-y,-z
1/2-x,y,1/2-z
1/2-x,1/2-y,-z
1/2+x,y,1/2-z
1/2-x,1/2+y,z
1/2+x,-y,1/2+z
loop_
_atom_site_type_symbol
_atom_site_label
_atom_site_fract_x
_atom_site_fract_y
_atom_site_fract_z
Si Si1 0.000000 0.826126 0.534296
Si Si2 0.325677 0.297692 0.309989
Si Si3 0.610582 0.514445 0.622374
Si Si4 0.890227 0.912881 0.224831
Si Si5 0.691317 0.636528 0.922019
Si Si6 0.333896 0.589761 0.470330
Si Si7 0.500000 0.752694 0.115944
Si Si8 0.000000 0.699304 0.546000
O O1 0.908003 0.862020 0.551138
O O2 0.000000 0.764461 0.574476
O O3 0.000000 0.809543 0.439614
O O4 0.250000 0.272762 0.250000
O O5 0.369394 0.352349 0.265988
O O6 0.269233 0.321642 0.385895
O O7 0.407009 0.256064 0.333572
O O8 0.500000 0.501865 0.619938
O O9 0.632442 0.540695 0.708524
O O10 0.664590 0.458490 0.596349
O O11 0.629407 0.560074 0.552429
O O12 0.829064 0.911573 0.144465
O O13 0.000000 0.916849 0.206879
O O14 0.733768 0.613412 0.003985
O O15 0.593803 0.668541 0.928816
O O16 0.500000 0.704364 0.050236
#
# Coordination Sequence:
#
# PCOD9476705 Si02
#       8
#     8  16  16  16  16  16   8   8
#     4  10  18  31  49  75 116 154 183 239 281 336
#     4  10  19  28  51  78 112 148 182 240 302 328
#     4  10  18  29  52  86 115 146 177 240 305 350
#     4  10  18  31  52  79 121 141 182 234 299 335
#     4  11  20  34  48  80 121 153 189 247 279 345
#     4  11  18  30  53  80 123 143 188 237 297 344
#     4  10  18  33  48  72 118 148 195 241 290 330
#     4  10  24  33  49  74 118 163 205 229 292 336
#
# _framework density 18.206339
#
# number of rings (size 3 to 8) (size 9 to 14) (size 15 to 20)
#    0.462    1.231    6.154    0.462    0.000    2.462 
#    0.000    0.000    0.000    1.846    0.000    0.000 
#  110.769    0.000    0.000    0.000    0.000    0.000 
#
# Total GULP energy -289979.675282 kJ/mol
# GULP energy per Si atom -5576.532217 kJ/mol
# Density = 1.816490 g / cm^3
# Si number density = 18.206339 Si / 1000 Ang^3
#
#
#
# Elastic Constant Matrix: (Units=GPa)
#
#
# Indices 1 2 3 4 5 6 
#
# 1 110.3941 33.4297 28.3780 0.0000 0.0000 0.0000
# 2 33.4297 62.6959 23.3024 0.0000 0.0000 0.0000
# 3 28.3780 23.3024 51.6353 0.0000 0.0000 0.0000
# 4 0.0000 0.0000 0.0000 23.1951 0.0000 0.0000
# 5 0.0000 0.0000 0.0000 0.0000 12.2125 0.0000
# 6 0.0000 0.0000 0.0000 0.0000 0.0000 3.6063
#
#
#
# Elastic Compliance Matrix: (Units=1/GPa)
#
#
# Indices 1 2 3 4 5 6 
#
# 1 0.011541 -0.004561 -0.004284 0.000000 0.000000 0.000000
# 2 -0.004561 0.020967 -0.006955 0.000000 0.000000 0.000000
# 3 -0.004284 -0.006955 0.024860 0.000000 0.000000 0.000000
# 4 0.000000 0.000000 0.000000 0.043113 0.000000 0.000000
# 5 0.000000 0.000000 0.000000 0.000000 0.081883 0.000000
# 6 0.000000 0.000000 0.000000 0.000000 0.000000 0.277293
#
#
# Mechanical properties :
#
#
# Convention : Reuss Voigt Hill
#
# Bulk Modulus (GPa) = 38.81047 43.88282 41.34665
# Shear Modulus (GPa) = 10.00304 17.11046 13.55675
#
# Velocity S-wave (km/s) = 2.34653 3.06895 2.73173
# Velocity P-wave (km/s) = 5.35769 6.05915 5.71919
#
# Compressibility (1/GPa) = 0.02576624
#
# Stress axis : x y z
#
# Youngs Moduli (GPa) = 86.64709 47.69327 40.22515
#
# Poissons Ratio (x) = 0.21755 0.17234
# Poissons Ratio (y) = 0.39523 0.27978
# Poissons Ratio (z) = 0.37122 0.33173
#
# Static dielectric constant tensor:
#      x y z
#    x 1.645650 0.000000 0.000000 
#    y 0.000000 1.617300 0.000000 
#    z 0.000000 0.000000 1.652580 
# 
# From -- ./inp_files/32567.got.cif
#   From: 2010.05.17/outbox.cif.g08.bks.cpg/sg64_17_cif.got.tgz:32567.got - 2010.06.03 16:29:19.
