data_PCOD9476402
_publ_section_title
;
Structure prediction by ZEFSAII (Michael W. Deem and Ramdas Pophale) SiO2 
 PCOD9476402
Probable space group: C M C A
;
_chemical_formula_sum "Si O2"
_cell_formula_units_Z 104
_cell_length_a 8.932238
_cell_length_b 29.101416
_cell_length_c 21.304087
_cell_angle_alpha 90.000000
_cell_angle_beta 90.000000
_cell_angle_gamma 90.000000
_cell_volume 5537.800861
_symmetry_space_group_name_H-M "C M C A"
_symmetry_group_IT_number 64
_symmetry_cell_setting 'orthorhombic'
loop_
_space_group_symop_operation_xyz
x,y,z
-x,1/2-y,1/2+z
x,-y,-z
-x,1/2+y,1/2-z
-x,-y,-z
x,1/2+y,1/2-z
-x,y,z
x,1/2-y,1/2+z
1/2+x,1/2+y,z
1/2-x,-y,1/2+z
1/2+x,1/2-y,-z
1/2-x,y,1/2-z
1/2-x,1/2-y,-z
1/2+x,y,1/2-z
1/2-x,1/2+y,z
1/2+x,-y,1/2+z
loop_
_atom_site_type_symbol
_atom_site_label
_atom_site_fract_x
_atom_site_fract_y
_atom_site_fract_z
Si Si1 0.329817 0.697925 0.856051
Si Si2 0.250000 0.627962 0.750000
Si Si3 0.319943 0.124494 0.549137
Si Si4 0.181715 0.201470 0.317764
Si Si5 0.168592 0.058270 0.643580
Si Si6 0.180671 0.044667 0.317624
Si Si7 0.681052 0.622693 0.096927
O O1 0.500000 0.708427 0.874576
O O2 0.332392 0.662692 0.797451
O O3 0.259247 0.669384 0.913459
O O4 0.265454 0.746752 0.835498
O O5 0.167813 0.593381 0.797540
O O6 0.500000 0.126092 0.552491
O O7 0.267049 0.080923 0.589362
O O8 0.278006 0.122925 0.476615
O O9 0.250000 0.189778 0.250000
O O10 0.245835 0.166107 0.368285
O O11 0.000000 0.199573 0.314839
O O12 0.000000 0.053639 0.619592
O O13 0.219116 0.008266 0.666327
O O14 0.250000 0.056266 0.250000
O O15 0.252219 0.078074 0.368918
O O16 0.000000 0.049267 0.315886
O O17 0.500000 0.623726 0.102547
#
# Coordination Sequence:
#
# PCOD9476402 Si02
#       7
#    16   8  16  16  16  16  16
#     4   9  18  33  57  86 117 149 186 233 287 345
#     4  10  16  34  56  86 122 150 184 226 292 344
#     4   9  21  40  60  84 118 158 196 236 287 348
#     4  11  22  38  60  88 117 151 191 239 293 343
#     4  10  21  35  59  91 120 150 190 238 292 345
#     4  11  23  40  61  89 118 152 194 243 293 344
#     4  11  24  42  60  81 114 159 203 242 286 340
#
# _framework density 18.780017000000001
#
# number of rings (size 3 to 8) (size 9 to 14) (size 15 to 20)
#    0.000    1.846    1.538    2.308    0.000    4.308 
#    0.000    3.846    0.000    0.000    0.000    0.000 
#    0.000    0.000    0.000    0.000    0.000    0.000 
#
# Total GULP energy -290009.287717 kJ/mol
# GULP energy per Si atom -5577.101687 kJ/mol
# Density = 1.873727 g / cm^3
# Si number density = 18.780017 Si / 1000 Ang^3
#
#
#
# Elastic Constant Matrix: (Units=GPa)
#
#
# Indices 1 2 3 4 5 6 
#
# 1 52.5841 28.3065 45.3220 0.0000 0.0000 0.0000
# 2 28.3065 115.2265 64.3455 0.0000 0.0000 0.0000
# 3 45.3220 64.3455 170.5997 0.0000 0.0000 0.0000
# 4 0.0000 0.0000 0.0000 45.0210 0.0000 0.0000
# 5 0.0000 0.0000 0.0000 0.0000 21.8267 0.0000
# 6 0.0000 0.0000 0.0000 0.0000 0.0000 102.0652
#
#
#
# Elastic Compliance Matrix: (Units=1/GPa)
#
#
# Indices 1 2 3 4 5 6 
#
# 1 0.025535 -0.003148 -0.005597 0.000000 0.000000 0.000000
# 2 -0.003148 0.011382 -0.003457 0.000000 0.000000 0.000000
# 3 -0.005597 -0.003457 0.008652 0.000000 0.000000 0.000000
# 4 0.000000 0.000000 0.000000 0.022212 0.000000 0.000000
# 5 0.000000 0.000000 0.000000 0.000000 0.045816 0.000000
# 6 0.000000 0.000000 0.000000 0.000000 0.000000 0.009798
#
#
# Mechanical properties :
#
#
# Convention : Reuss Voigt Hill
#
# Bulk Modulus (GPa) = 47.24210 68.26204 57.75207
# Shear Modulus (GPa) = 32.28875 47.14500 39.71688
#
# Velocity S-wave (km/s) = 4.15096 5.01581 4.60374
# Velocity P-wave (km/s) = 6.94148 8.36490 7.68621
#
# Compressibility (1/GPa) = 0.02116756
#
# Stress axis : x y z
#
# Youngs Moduli (GPa) = 39.16166 87.85648 115.57653
#
# Poissons Ratio (x) = 0.27655 0.64683
# Poissons Ratio (y) = 0.12327 0.39953
# Poissons Ratio (z) = 0.21917 0.30370
#
# Static dielectric constant tensor:
#      x y z
#    x 1.680810 0.000000 0.000000 
#    y 0.000000 1.661930 0.000000 
#    z 0.000000 0.000000 1.629540 
# 
# From -- ./inp_files/37221.got.cif
#   From: 2010.05.17/outbox.cif.g08.bks.cpg/sg64_19_cif.got.tgz:37221.got - 2010.06.03 16:29:19.
