data_PCOD9476972
_publ_section_title
;
Structure prediction by ZEFSAII (Michael W. Deem and Ramdas Pophale) SiO2 
 PCOD9476972
Probable space group: C M C A
;
_chemical_formula_sum "Si O2"
_cell_formula_units_Z 80
_cell_length_a 13.535205
_cell_length_b 18.075705
_cell_length_c 18.669331
_cell_angle_alpha 90.000000
_cell_angle_beta 90.000000
_cell_angle_gamma 90.000000
_cell_volume 4567.608142
_symmetry_space_group_name_H-M "C M C A"
_symmetry_group_IT_number 64
_symmetry_cell_setting 'orthorhombic'
loop_
_space_group_symop_operation_xyz
x,y,z
-x,1/2-y,1/2+z
x,-y,-z
-x,1/2+y,1/2-z
-x,-y,-z
x,1/2+y,1/2-z
-x,y,z
x,1/2-y,1/2+z
1/2+x,1/2+y,z
1/2-x,-y,1/2+z
1/2+x,1/2-y,-z
1/2-x,y,1/2-z
1/2-x,1/2-y,-z
1/2+x,y,1/2-z
1/2-x,1/2+y,z
1/2+x,-y,1/2+z
loop_
_atom_site_type_symbol
_atom_site_label
_atom_site_fract_x
_atom_site_fract_y
_atom_site_fract_z
Si Si1 0.611793 0.240362 0.426356
Si Si2 0.690809 0.402730 0.433392
Si Si3 0.288214 0.808303 0.830376
Si Si4 0.117760 0.940644 0.592349
Si Si5 0.886566 0.678858 0.586760
O O1 0.500000 0.222691 0.405198
O O2 0.634357 0.326947 0.414622
O O3 0.693035 0.195856 0.382355
O O4 0.622194 0.222117 0.510680
O O5 0.668752 0.416877 0.517340
O O6 0.651216 0.475314 0.393745
O O7 0.805582 0.385864 0.417811
O O8 0.250000 0.804172 0.750000
O O9 0.347952 0.882483 0.848360
O O10 0.354489 0.737674 0.852931
O O11 0.000000 0.937830 0.582081
O O12 0.000000 0.655361 0.595237
#
# Coordination Sequence:
#
# PCOD9476972 Si02
#       5
#    16  16  16  16  16
#     4  10  18  34  57  82 108 141 188 237 280 329
#     4  10  18  33  56  86 109 138 185 236 278 323
#     4  11  22  36  54  80 116 149 186 229 282 342
#     4  11  20  33  55  83 114 147 184 230 280 330
#     4  10  19  36  60  83 111 144 185 238 285 328
#
# _framework density 17.514638000000001
#
# number of rings (size 3 to 8) (size 9 to 14) (size 15 to 20)
#    0.000    1.600    4.000    4.200    0.000    1.600 
#    0.000    7.000    0.000    4.800    0.000    0.000 
#    0.000    0.000    0.000    0.000    0.000    0.000 
#
# Total GULP energy -223221.495109 kJ/mol
# GULP energy per Si atom -5580.537378 kJ/mol
# Density = 1.747477 g / cm^3
# Si number density = 17.514638 Si / 1000 Ang^3
#
#
#
# Elastic Constant Matrix: (Units=GPa)
#
#
# Indices 1 2 3 4 5 6 
#
# 1 136.1415 46.9263 32.8717 0.0000 0.0000 0.0000
# 2 46.9263 85.9791 25.9757 0.0000 0.0000 0.0000
# 3 32.8717 25.9757 65.7923 0.0000 0.0000 0.0000
# 4 0.0000 0.0000 0.0000 6.7170 0.0000 0.0000
# 5 0.0000 0.0000 0.0000 0.0000 11.5656 0.0000
# 6 0.0000 0.0000 0.0000 0.0000 0.0000 16.2143
#
#
#
# Elastic Compliance Matrix: (Units=1/GPa)
#
#
# Indices 1 2 3 4 5 6 
#
# 1 0.009570 -0.004290 -0.003087 0.000000 0.000000 0.000000
# 2 -0.004290 0.015129 -0.003830 0.000000 0.000000 0.000000
# 3 -0.003087 -0.003830 0.018254 0.000000 0.000000 0.000000
# 4 0.000000 0.000000 0.000000 0.148877 0.000000 0.000000
# 5 0.000000 0.000000 0.000000 0.000000 0.086463 0.000000
# 6 0.000000 0.000000 0.000000 0.000000 0.000000 0.061674
#
#
# Mechanical properties :
#
#
# Convention : Reuss Voigt Hill
#
# Bulk Modulus (GPa) = 48.68995 55.49558 52.09276
# Shear Modulus (GPa) = 13.54180 19.04199 16.29190
#
# Velocity S-wave (km/s) = 2.78361 3.30086 3.05321
# Velocity P-wave (km/s) = 6.17991 6.80306 6.49895
#
# Compressibility (1/GPa) = 0.02053812
#
# Stress axis : x y z
#
# Youngs Moduli (GPa) = 104.49840 66.09697 54.78266
#
# Poissons Ratio (x) = 0.28357 0.16914
# Poissons Ratio (y) = 0.44832 0.20980
# Poissons Ratio (z) = 0.32263 0.25314
#
# Static dielectric constant tensor:
#      x y z
#    x 1.609620 0.000000 0.000000 
#    y 0.000000 1.601010 0.000000 
#    z 0.000000 0.000000 1.578300 
# 
# From -- ./inp_files/32077.got.cif
#   From: 2010.05.17/outbox.cif.g08.bks.cpg/sg64_17_cif.got.tgz:32077.got - 2010.06.03 16:29:19.
