data_PCOD9476189
_publ_section_title
;
Structure prediction by ZEFSAII (Michael W. Deem and Ramdas Pophale) SiO2 
 PCOD9476189
Probable space group: C M C M
;
_chemical_formula_sum "Si O2"
_cell_formula_units_Z 36
_cell_length_a 24.000000
_cell_length_b 18.000000
_cell_length_c 9.000000
_cell_angle_alpha 90.000000
_cell_angle_beta 90.000000
_cell_angle_gamma 90.000000
_cell_volume 3888.000000
_symmetry_space_group_name_H-M "C M C M"
_symmetry_group_IT_number 63
_symmetry_cell_setting 'orthorhombic'
loop_
_space_group_symop_operation_xyz
x,y,z
-x,-y,1/2+z
x,-y,-z
-x,y,1/2-z
-x,-y,-z
x,y,1/2-z
-x,y,z
x,-y,1/2+z
1/2+x,1/2+y,z
1/2-x,1/2-y,1/2+z
1/2+x,1/2-y,-z
1/2-x,1/2+y,1/2-z
1/2-x,1/2-y,-z
1/2+x,1/2+y,1/2-z
1/2-x,1/2+y,z
1/2+x,1/2-y,1/2+z
loop_
_atom_site_type_symbol
_atom_site_label
_atom_site_fract_x
_atom_site_fract_y
_atom_site_fract_z
Si Si1 0.271117 0.326075 0.429567
Si Si2 0.601266 0.322645 0.069621
Si Si3 0.938403 0.339080 0.930535
Si Si4 0.174893 0.420838 0.571175
Si Si5 0.500000 0.421564 0.070787
O O1 0.268178 0.324647 0.250000
O O2 0.250000 0.250000 0.500000
O O3 0.335401 0.336508 0.475430
O O4 0.228764 0.383981 0.498729
O O5 0.602152 0.320772 0.250000
O O6 0.576094 0.244148 0.021517
O O7 0.556391 0.381867 0.021204
O O8 0.940427 0.340103 0.750000
O O9 0.883795 0.383927 0.972873
O O10 0.000000 0.362373 0.983168
O O11 0.172346 0.500000 0.500000
O O12 0.179262 0.418904 0.750000
O O13 0.500000 0.422075 0.250000
O O14 0.500000 0.500000 0.000000
#
# Coordination Sequence:
#
# PCOD9476189 Si02
#       5
#    16  16  16  16   8
#     4  11  21  36  59  88 116 151 194 237 285 342
#     4   9  17  32  57  84 108 143 189 230 275 335
#     4   9  16  31  58  86 109 143 192 236 280 340
#     4  11  23  39  58  85 118 153 191 239 293 345
#     4  10  20  36  58  82 113 146 182 231 282 333
#
# _framework density 9.2592590000000001
#
# number of rings (size 3 to 8) (size 9 to 14) (size 15 to 20)
#    0.000    2.000    3.333    1.333    0.000    1.333 
#    0.000    4.444    0.000    2.000    0.000    0.000 
#    0.000    0.000    0.000    0.000    0.000    0.000 
#
# Total GULP energy -200470.965267 kJ/mol
# GULP energy per Si atom -5568.637924 kJ/mol
# Density = 0.923818 g / cm^3
# Si number density = 9.259259 Si / 1000 Ang^3
#
#
#
# Elastic Constant Matrix: (Units=GPa)
#
#
# Indices 1 2 3 4 5 6 
#
# 1 158.9655 33.9568 20.8811 0.0000 0.0000 0.0000
# 2 33.9568 74.9971 5.1630 0.0000 0.0000 0.0000
# 3 20.8811 5.1630 21.8703 0.0000 0.0000 0.0000
# 4 0.0000 0.0000 0.0000 22.5909 0.0000 0.0000
# 5 0.0000 0.0000 0.0000 0.0000 22.9707 0.0000
# 6 0.0000 0.0000 0.0000 0.0000 0.0000 33.1122
#
#
#
# Elastic Compliance Matrix: (Units=1/GPa)
#
#
# Indices 1 2 3 4 5 6 
#
# 1 0.007836 -0.003083 -0.006754 0.000000 0.000000 0.000000
# 2 -0.003083 0.014767 -0.000542 0.000000 0.000000 0.000000
# 3 -0.006754 -0.000542 0.052301 0.000000 0.000000 0.000000
# 4 0.000000 0.000000 0.000000 0.044266 0.000000 0.000000
# 5 0.000000 0.000000 0.000000 0.000000 0.043534 0.000000
# 6 0.000000 0.000000 0.000000 0.000000 0.000000 0.030200
#
#
# Mechanical properties :
#
#
# Convention : Reuss Voigt Hill
#
# Bulk Modulus (GPa) = 18.46898 41.75943 30.11420
# Shear Modulus (GPa) = 21.57853 28.79023 25.18438
#
# Velocity S-wave (km/s) = 3.41727 3.94721 3.69176
# Velocity P-wave (km/s) = 5.05620 6.58582 5.87104
#
# Compressibility (1/GPa) = 0.05414485
#
# Stress axis : x y z
#
# Youngs Moduli (GPa) = 127.60841 67.71774 19.12020
#
# Poissons Ratio (x) = 0.20879 0.12914
# Poissons Ratio (y) = 0.39344 0.01037
# Poissons Ratio (z) = 0.86189 0.03673
#
# Static dielectric constant tensor:
#      x y z
#    x 1.605410 0.000000 0.000000 
#    y 0.000000 1.617040 0.000000 
#    z 0.000000 0.000000 1.753320 
# 
# From -- ./inp_files/9856.got.cif
#   From: 2010.05.17/outbox.ucp.g08.bks.cvg/sg63_5_cif.got.tgz:9856.got - 2010.06.11 16:32:19.
