data_PCOD9476462
_publ_section_title
;
Structure prediction by ZEFSAII (Michael W. Deem and Ramdas Pophale) SiO2 
 PCOD9476462
Probable space group: C M C A
;
_chemical_formula_sum "Si O2"
_cell_formula_units_Z 128
_cell_length_a 14.985182
_cell_length_b 23.407757
_cell_length_c 19.762225
_cell_angle_alpha 90.000000
_cell_angle_beta 90.000000
_cell_angle_gamma 90.000000
_cell_volume 6931.985760
_symmetry_space_group_name_H-M "C M C A"
_symmetry_group_IT_number 64
_symmetry_cell_setting 'orthorhombic'
loop_
_space_group_symop_operation_xyz
x,y,z
-x,1/2-y,1/2+z
x,-y,-z
-x,1/2+y,1/2-z
-x,-y,-z
x,1/2+y,1/2-z
-x,y,z
x,1/2-y,1/2+z
1/2+x,1/2+y,z
1/2-x,-y,1/2+z
1/2+x,1/2-y,-z
1/2-x,y,1/2-z
1/2-x,1/2-y,-z
1/2+x,y,1/2-z
1/2-x,1/2+y,z
1/2+x,-y,1/2+z
loop_
_atom_site_type_symbol
_atom_site_label
_atom_site_fract_x
_atom_site_fract_y
_atom_site_fract_z
Si Si1 0.358315 0.192432 0.817440
Si Si2 0.109120 0.351314 0.740059
Si Si3 0.900178 0.301414 0.602185
Si Si4 0.891201 0.383562 0.975208
Si Si5 0.892211 0.071270 0.618672
Si Si6 0.891154 0.947619 0.661596
Si Si7 0.156123 0.762623 0.181099
Si Si8 0.393435 0.752555 0.972004
O O1 0.406715 0.237739 0.865728
O O2 0.365677 0.128332 0.842049
O O3 0.257153 0.215337 0.821035
O O4 0.389766 0.200144 0.740157
O O5 0.140384 0.338552 0.663404
O O6 0.134532 0.411836 0.772081
O O7 0.145322 0.301396 0.789194
O O8 0.000000 0.346105 0.740615
O O9 0.855556 0.289859 0.529625
O O10 0.000000 0.324819 0.591277
O O11 0.863346 0.412149 0.904978
O O12 0.861537 0.317801 0.980909
O O13 0.000000 0.382751 0.974504
O O14 0.863491 0.419859 0.040736
O O15 0.000000 0.069226 0.617909
O O16 0.860113 0.012580 0.652366
O O17 0.000000 0.948489 0.661513
O O18 0.121153 0.765185 0.105219
O O19 0.500000 0.753697 0.983745
#
# Coordination Sequence:
#
# PCOD9476462 Si02
#       8
#    16  16  16  16  16  16  16  16
#     4  10  20  32  44  65  94 129 162 197 235 276
#     4   9  16  29  48  71  96 124 156 194 237 285
#     4   9  17  29  46  66  95 126 156 196 239 281
#     4   9  15  25  41  69 102 121 145 184 230 290
#     4  10  18  29  46  69  97 125 156 190 232 287
#     4   9  16  26  45  72  97 123 152 187 235 289
#     4  10  20  31  46  65  95 127 160 199 233 284
#     4  10  17  28  47  72  98 127 155 189 241 292
#
# _framework density 18.465126999999999
#
# number of rings (size 3 to 8) (size 9 to 14) (size 15 to 20)
#    0.000    2.500    2.500    1.125    0.000    3.500 
#    0.000    0.000    0.000    6.000    0.000    0.875 
#    0.000    5.000    0.000    0.000    0.000    0.250 
#
# Total GULP energy -356631.123873 kJ/mol
# GULP energy per Si atom -5572.361311 kJ/mol
# Density = 1.842310 g / cm^3
# Si number density = 18.465127 Si / 1000 Ang^3
#
#
#
# Elastic Constant Matrix: (Units=GPa)
#
#
# Indices 1 2 3 4 5 6 
#
# 1 28.3368 -1.5536 -6.2484 0.0000 0.0000 0.0000
# 2 -1.5536 81.2923 36.8219 0.0000 0.0000 0.0000
# 3 -6.2484 36.8219 106.0874 0.0000 0.0000 0.0000
# 4 0.0000 0.0000 0.0000 23.7853 0.0000 0.0000
# 5 0.0000 0.0000 0.0000 0.0000 -8.8283 0.0000
# 6 0.0000 0.0000 0.0000 0.0000 0.0000 5.2180
#
#
#
# Elastic Compliance Matrix: (Units=1/GPa)
#
#
# Indices 1 2 3 4 5 6 
#
# 1 0.035761 -0.000321 0.002218 0.000000 0.000000 0.000000
# 2 -0.000321 0.014599 -0.005086 0.000000 0.000000 0.000000
# 3 0.002218 -0.005086 0.011322 0.000000 0.000000 0.000000
# 4 0.000000 0.000000 0.000000 0.042043 0.000000 0.000000
# 5 0.000000 0.000000 0.000000 0.000000 -0.113272 0.000000
# 6 0.000000 0.000000 0.000000 0.000000 0.000000 0.191643
#
#
# Mechanical properties :
#
#
# Convention : Reuss Voigt Hill
#
# Bulk Modulus (GPa) = 18.08207 30.41737 24.24972
# Shear Modulus (GPa) = 24.16522 16.48144 20.32333
#
# Velocity S-wave (km/s) = 3.62151 2.99083 3.32118
# Velocity P-wave (km/s) = 5.22503 5.33249 5.27903
#
# Compressibility (1/GPa) = 0.05530340
#
# Stress axis : x y z
#
# Youngs Moduli (GPa) = 27.96329 68.49821 88.32255
#
# Poissons Ratio (x) = 0.02200 -0.19588
# Poissons Ratio (y) = 0.00898 0.44921
# Poissons Ratio (z) = -0.06202 0.34839
#
# Static dielectric constant tensor:
#      x y z
#    x 1.699030 0.000000 0.000000 
#    y 0.000000 1.621290 0.000000 
#    z 0.000000 0.000000 1.695220 
# 
# From -- ./inp_files/40573.got.cif
#   From: 2010.05.17/outbox.cif.g08.bks.cpg/sg64_21_cif.got.tgz:40573.got - 2010.06.03 16:29:19.
