data_PCOD9476894
_publ_section_title
;
Structure prediction by ZEFSAII (Michael W. Deem and Ramdas Pophale) SiO2 
 PCOD9476894
Probable space group: C M C A
;
_chemical_formula_sum "Si O2"
_cell_formula_units_Z 80
_cell_length_a 14.243708
_cell_length_b 25.515477
_cell_length_c 10.233361
_cell_angle_alpha 90.000000
_cell_angle_beta 90.000000
_cell_angle_gamma 90.000000
_cell_volume 3719.161595
_symmetry_space_group_name_H-M "C M C A"
_symmetry_group_IT_number 64
_symmetry_cell_setting 'orthorhombic'
loop_
_space_group_symop_operation_xyz
x,y,z
-x,1/2-y,1/2+z
x,-y,-z
-x,1/2+y,1/2-z
-x,-y,-z
x,1/2+y,1/2-z
-x,y,z
x,1/2-y,1/2+z
1/2+x,1/2+y,z
1/2-x,-y,1/2+z
1/2+x,1/2-y,-z
1/2-x,y,1/2-z
1/2-x,1/2-y,-z
1/2+x,y,1/2-z
1/2-x,1/2+y,z
1/2+x,-y,1/2+z
loop_
_atom_site_type_symbol
_atom_site_label
_atom_site_fract_x
_atom_site_fract_y
_atom_site_fract_z
Si Si1 0.396761 0.654766 0.539592
Si Si2 0.391699 0.525171 0.145944
Si Si3 0.199398 0.872126 0.938302
Si Si4 0.684135 0.240761 0.375662
Si Si5 0.109830 0.414160 0.297259
O O1 0.500000 0.648064 0.480219
O O2 0.310003 0.641555 0.444744
O O3 0.389169 0.712704 0.603541
O O4 0.385326 0.616636 0.663039
O O5 0.500000 0.538888 0.175951
O O6 0.329436 0.576839 0.142793
O O7 0.361734 0.474496 0.228379
O O8 0.389199 0.500000 0.000000
O O9 0.150536 0.819157 0.885824
O O10 0.166394 0.885835 0.086703
O O11 0.750000 0.248224 0.250000
O O12 0.750000 0.250000 0.500000
O O13 0.000000 0.415553 0.339385
#
# Coordination Sequence:
#
# PCOD9476894 Si02
#       5
#    16  16  16  16  16
#     4  10  20  33  53  81 112 148 187 227 277 341
#     4   8  15  29  51  79 106 139 187 235 277 328
#     4  10  18  32  54  80 113 141 180 234 286 332
#     4  10  21  38  57  80 111 147 190 237 283 336
#     4   9  17  32  56  83 109 143 191 237 278 335
#
# _framework density 21.510224000000001
#
# number of rings (size 3 to 8) (size 9 to 14) (size 15 to 20)
#    0.000    2.600    0.000    4.800    0.000    1.600 
#    0.000   12.000    0.000    5.400    0.000    0.000 
#    0.000    0.000    0.000    0.000    0.000    0.000 
#
# Total GULP energy -223174.532145 kJ/mol
# GULP energy per Si atom -5579.363304 kJ/mol
# Density = 2.146127 g / cm^3
# Si number density = 21.510224 Si / 1000 Ang^3
#
#
#
# Elastic Constant Matrix: (Units=GPa)
#
#
# Indices 1 2 3 4 5 6 
#
# 1 122.4235 61.7429 8.6851 0.0000 0.0000 0.0000
# 2 61.7429 194.4602 17.3390 0.0000 0.0000 0.0000
# 3 8.6851 17.3390 40.3545 0.0000 0.0000 0.0000
# 4 0.0000 0.0000 0.0000 22.6056 0.0000 0.0000
# 5 0.0000 0.0000 0.0000 0.0000 14.9899 0.0000
# 6 0.0000 0.0000 0.0000 0.0000 0.0000 34.5653
#
#
#
# Elastic Compliance Matrix: (Units=1/GPa)
#
#
# Indices 1 2 3 4 5 6 
#
# 1 0.009750 -0.003025 -0.000799 0.000000 0.000000 0.000000
# 2 -0.003025 0.006286 -0.002050 0.000000 0.000000 0.000000
# 3 -0.000799 -0.002050 0.025833 0.000000 0.000000 0.000000
# 4 0.000000 0.000000 0.000000 0.044237 0.000000 0.000000
# 5 0.000000 0.000000 0.000000 0.000000 0.066712 0.000000
# 6 0.000000 0.000000 0.000000 0.000000 0.000000 0.028931
#
#
# Mechanical properties :
#
#
# Convention : Reuss Voigt Hill
#
# Bulk Modulus (GPa) = 33.19777 59.19691 46.19734
# Shear Modulus (GPa) = 24.56571 32.39690 28.48130
#
# Velocity S-wave (km/s) = 3.38309 3.88508 3.64274
# Velocity P-wave (km/s) = 5.54323 6.90690 6.26229
#
# Compressibility (1/GPa) = 0.03012250
#
# Stress axis : x y z
#
# Youngs Moduli (GPa) = 102.55908 159.09501 38.71012
#
# Poissons Ratio (x) = 0.48120 0.03093
# Poissons Ratio (y) = 0.31020 0.07935
# Poissons Ratio (z) = 0.08194 0.32610
#
# Static dielectric constant tensor:
#      x y z
#    x 1.809780 0.000000 0.000000 
#    y 0.000000 1.866320 0.000000 
#    z 0.000000 0.000000 1.776150 
# 
# From -- ./inp_files/14726.got.cif
#   From: 2010.05.17/outbox.cif.g08.bks.cpg/sg64_8_cif.got.tgz:14726.got - 2010.06.03 16:29:19.
