data_PCOD9476249
_publ_section_title
;
Structure prediction by ZEFSAII (Michael W. Deem and Ramdas Pophale) SiO2 
 PCOD9476249
Probable space group: C M C M
;
_chemical_formula_sum "Si O2"
_cell_formula_units_Z 48
_cell_length_a 15.000000
_cell_length_b 21.000000
_cell_length_c 15.000000
_cell_angle_alpha 90.000000
_cell_angle_beta 90.000000
_cell_angle_gamma 90.000000
_cell_volume 4725.000000
_symmetry_space_group_name_H-M "C M C M"
_symmetry_group_IT_number 63
_symmetry_cell_setting 'orthorhombic'
loop_
_space_group_symop_operation_xyz
x,y,z
-x,-y,1/2+z
x,-y,-z
-x,y,1/2-z
-x,-y,-z
x,y,1/2-z
-x,y,z
x,-y,1/2+z
1/2+x,1/2+y,z
1/2-x,1/2-y,1/2+z
1/2+x,1/2-y,-z
1/2-x,1/2+y,1/2-z
1/2-x,1/2-y,-z
1/2+x,1/2+y,1/2-z
1/2-x,1/2+y,z
1/2+x,1/2-y,1/2+z
loop_
_atom_site_type_symbol
_atom_site_label
_atom_site_fract_x
_atom_site_fract_y
_atom_site_fract_z
Si Si1 0.688559 0.586627 0.352880
Si Si2 0.000000 0.937980 0.560165
Si Si3 0.315173 0.027648 0.597081
Si Si4 0.500000 0.092501 0.850916
Si Si5 0.698393 0.351447 0.355931
Si Si6 0.500000 0.673699 0.579701
Si Si7 0.500000 0.773165 0.438901
Si Si8 0.187557 0.770952 0.641983
O O1 0.672473 0.598354 0.250000
O O2 0.594179 0.562251 0.389614
O O3 0.763485 0.532365 0.360176
O O4 0.711629 0.657357 0.390214
O O5 0.000000 0.873241 0.504401
O O6 0.000000 0.000000 0.500000
O O7 0.408672 0.052203 0.637795
O O8 0.245668 0.087414 0.598164
O O9 0.335500 0.000000 0.500000
O O10 0.500000 0.119665 0.750000
O O11 0.500000 0.150976 0.921040
O O12 0.714501 0.360284 0.250000
O O13 0.592549 0.342940 0.371060
O O14 0.746172 0.285928 0.386273
O O15 0.500000 0.745325 0.539607
O O16 0.589182 0.746033 0.392743
O O17 0.188130 0.769186 0.750000
#
# Coordination Sequence:
#
# PCOD9476249 Si02
#       8
#    16   8  16   8  16   8   8  16
#     4  11  22  40  65  95 128 171 220 277 344 406
#     4  12  23  39  56  87 128 169 208 269 328 408
#     4  12  26  43  68  99 137 174 229 288 342 400
#     4  12  25  47  73 101 138 186 238 278 336 421
#     4  11  24  45  69  94 133 186 234 276 339 426
#     4  12  25  39  60 100 134 169 214 279 347 395
#     4  12  22  39  69 102 134 168 226 290 343 386
#     4  10  21  39  67  96 127 170 228 280 334 402
#
# _framework density 10.15873
#
# number of rings (size 3 to 8) (size 9 to 14) (size 15 to 20)
#    0.000    0.667    3.333    5.500    0.000    3.333 
#    0.000    3.333    0.000    2.000    0.000    0.000 
#    0.000    0.000    0.000    0.000    0.000    0.000 
#
# Total GULP energy -268197.327855 kJ/mol
# GULP energy per Si atom -5587.444330 kJ/mol
# Density = 1.013561 g / cm^3
# Si number density = 10.158730 Si / 1000 Ang^3
#
#
#
# Elastic Constant Matrix: (Units=GPa)
#
#
# Indices 1 2 3 4 5 6 
#
# 1 137.5976 74.0008 6.9764 0.0000 0.0000 0.0000
# 2 74.0008 152.8076 15.5899 0.0000 0.0000 0.0000
# 3 6.9764 15.5899 44.0997 0.0000 0.0000 0.0000
# 4 0.0000 0.0000 0.0000 34.4414 0.0000 0.0000
# 5 0.0000 0.0000 0.0000 0.0000 14.7714 0.0000
# 6 0.0000 0.0000 0.0000 0.0000 0.0000 28.6629
#
#
#
# Elastic Compliance Matrix: (Units=1/GPa)
#
#
# Indices 1 2 3 4 5 6 
#
# 1 0.009828 -0.004773 0.000133 0.000000 0.000000 0.000000
# 2 -0.004773 0.009107 -0.002464 0.000000 0.000000 0.000000
# 3 0.000133 -0.002464 0.023526 0.000000 0.000000 0.000000
# 4 0.000000 0.000000 0.000000 0.029035 0.000000 0.000000
# 5 0.000000 0.000000 0.000000 0.000000 0.067698 0.000000
# 6 0.000000 0.000000 0.000000 0.000000 0.000000 0.034888
#
#
# Mechanical properties :
#
#
# Convention : Reuss Voigt Hill
#
# Bulk Modulus (GPa) = 35.39641 58.62654 47.01147
# Shear Modulus (GPa) = 25.28971 31.43765 28.36368
#
# Velocity S-wave (km/s) = 3.53190 3.93787 3.74040
# Velocity P-wave (km/s) = 5.83883 7.04228 6.46860
#
# Compressibility (1/GPa) = 0.02825145
#
# Stress axis : x y z
#
# Youngs Moduli (GPa) = 101.75317 109.80613 42.50596
#
# Poissons Ratio (x) = 0.52409 -0.00563
# Poissons Ratio (y) = 0.48565 0.10475
# Poissons Ratio (z) = -0.01349 0.27061
#
# Static dielectric constant tensor:
#      x y z
#    x 1.719810 0.000000 0.000000 
#    y 0.000000 1.753370 0.000000 
#    z 0.000000 0.000000 1.761010 
# 
# From -- ./inp_files/32022.got.cif
#   From: 2010.05.17/outbox.ucp.g08.bks.cvg/sg63_17_cif.got.tgz:32022.got - 2010.06.11 16:32:19.
