data_PCOD9476045
_publ_section_title
;
Structure prediction by ZEFSAII (Michael W. Deem and Ramdas Pophale) SiO2 
 PCOD9476045
Probable space group: C M C M
;
_chemical_formula_sum "Si O2"
_cell_formula_units_Z 40
_cell_length_a 30.000000
_cell_length_b 18.000000
_cell_length_c 9.000000
_cell_angle_alpha 90.000000
_cell_angle_beta 90.000000
_cell_angle_gamma 90.000000
_cell_volume 4860.000000
_symmetry_space_group_name_H-M "C M C M"
_symmetry_group_IT_number 63
_symmetry_cell_setting 'orthorhombic'
loop_
_space_group_symop_operation_xyz
x,y,z
-x,-y,1/2+z
x,-y,-z
-x,y,1/2-z
-x,-y,-z
x,y,1/2-z
-x,y,z
x,-y,1/2+z
1/2+x,1/2+y,z
1/2-x,1/2-y,1/2+z
1/2+x,1/2-y,-z
1/2-x,1/2+y,1/2-z
1/2-x,1/2-y,-z
1/2+x,1/2+y,1/2-z
1/2-x,1/2+y,z
1/2+x,1/2-y,1/2+z
loop_
_atom_site_type_symbol
_atom_site_label
_atom_site_fract_x
_atom_site_fract_y
_atom_site_fract_z
Si Si1 0.913955 0.365157 0.418581
Si Si2 0.339314 0.746826 0.428188
Si Si3 0.684565 0.420227 0.930121
Si Si4 0.148423 0.500000 0.000000
Si Si5 0.500000 0.080477 0.075735
Si Si6 0.283030 0.872793 0.919478
O O1 0.929381 0.353377 0.250000
O O2 0.883672 0.294736 0.464328
O O3 0.884101 0.440896 0.419335
O O4 0.955634 0.377700 0.523920
O O5 0.334679 0.747748 0.250000
O O6 0.338529 0.659474 0.472367
O O7 0.300870 0.800604 0.493774
O O8 0.681980 0.427210 0.750000
O O9 0.736099 0.404979 0.975091
O O10 0.670330 0.500000 0.000000
O O11 0.181484 0.559193 0.078291
O O12 0.500000 0.069942 0.250000
O O13 0.500000 0.000000 0.000000
O O14 0.276123 0.849135 0.750000
#
# Coordination Sequence:
#
# PCOD9476045 Si02
#       6
#    16  16  16   8   8  16
#     4  10  20  34  52  73 103 136 168 205 251 301
#     4   9  20  35  51  72 100 133 170 213 258 305
#     4  10  20  34  50  72 100 133 174 217 260 300
#     4  10  18  29  48  72 104 138 178 207 244 288
#     4  12  24  36  54  78 105 132 165 204 247 302
#     4  10  19  30  47  71 100 135 177 217 252 293
#
# _framework density 8.2304530000000007
#
# number of rings (size 3 to 8) (size 9 to 14) (size 15 to 20)
#    0.000    2.000    2.000    2.100    0.000    5.600 
#    0.000    0.000    0.000    0.000    0.000    0.700 
#    0.000    0.000    0.000    0.000    0.000    0.000 
#
# Total GULP energy -222766.883866 kJ/mol
# GULP energy per Si atom -5569.172097 kJ/mol
# Density = 0.821172 g / cm^3
# Si number density = 8.230453 Si / 1000 Ang^3
#
#
#
# Elastic Constant Matrix: (Units=GPa)
#
#
# Indices 1 2 3 4 5 6 
#
# 1 71.4673 46.2771 38.8490 0.0000 0.0000 0.0000
# 2 46.2771 168.0214 39.4535 0.0000 0.0000 0.0000
# 3 38.8490 39.4535 47.6989 0.0000 0.0000 0.0000
# 4 0.0000 0.0000 0.0000 27.5586 0.0000 0.0000
# 5 0.0000 0.0000 0.0000 0.0000 18.3078 0.0000
# 6 0.0000 0.0000 0.0000 0.0000 0.0000 19.1460
#
#
#
# Elastic Compliance Matrix: (Units=1/GPa)
#
#
# Indices 1 2 3 4 5 6 
#
# 1 0.026077 -0.002724 -0.018985 0.000000 0.000000 0.000000
# 2 -0.002724 0.007671 -0.004126 0.000000 0.000000 0.000000
# 3 -0.018985 -0.004126 0.039840 0.000000 0.000000 0.000000
# 4 0.000000 0.000000 0.000000 0.036286 0.000000 0.000000
# 5 0.000000 0.000000 0.000000 0.000000 0.054621 0.000000
# 6 0.000000 0.000000 0.000000 0.000000 0.000000 0.052230
#
#
# Mechanical properties :
#
#
# Convention : Reuss Voigt Hill
#
# Bulk Modulus (GPa) = 45.62672 59.59410 52.61041
# Shear Modulus (GPa) = 18.13552 23.84302 20.98927
#
# Velocity S-wave (km/s) = 3.32284 3.81000 3.57473
# Velocity P-wave (km/s) = 6.51921 7.45901 7.00489
#
# Compressibility (1/GPa) = 0.02191698
#
# Stress axis : x y z
#
# Youngs Moduli (GPa) = 38.34868 130.36503 25.10014
#
# Poissons Ratio (x) = 0.35513 0.47653
# Poissons Ratio (y) = 0.10447 0.10357
# Poissons Ratio (z) = 0.72806 0.53790
#
# Static dielectric constant tensor:
#      x y z
#    x 1.572710 0.000000 0.000000 
#    y 0.000000 1.543400 0.000000 
#    z 0.000000 0.000000 1.577540 
# 
# From -- ./inp_files/14070.got.cif
#   From: 2010.05.17/outbox.ucp.g08.bks.cvg/sg63_8_cif.got.tgz:14070.got - 2010.06.11 16:32:19.
