data_PCOD9476810
_publ_section_title
;
Structure prediction by ZEFSAII (Michael W. Deem and Ramdas Pophale) SiO2 
 PCOD9476810
Probable space group: C M C A
;
_chemical_formula_sum "Si O2"
_cell_formula_units_Z 48
_cell_length_a 14.367240
_cell_length_b 24.670767
_cell_length_c 5.062324
_cell_angle_alpha 90.000000
_cell_angle_beta 90.000000
_cell_angle_gamma 90.000000
_cell_volume 1794.344946
_symmetry_space_group_name_H-M "C M C A"
_symmetry_group_IT_number 64
_symmetry_cell_setting 'orthorhombic'
loop_
_space_group_symop_operation_xyz
x,y,z
-x,1/2-y,1/2+z
x,-y,-z
-x,1/2+y,1/2-z
-x,-y,-z
x,1/2+y,1/2-z
-x,y,z
x,1/2-y,1/2+z
1/2+x,1/2+y,z
1/2-x,-y,1/2+z
1/2+x,1/2-y,-z
1/2-x,y,1/2-z
1/2-x,1/2-y,-z
1/2+x,y,1/2-z
1/2-x,1/2+y,z
1/2+x,-y,1/2+z
loop_
_atom_site_type_symbol
_atom_site_label
_atom_site_fract_x
_atom_site_fract_y
_atom_site_fract_z
Si Si1 0.112617 0.719567 0.070056
Si Si2 0.861288 0.448957 0.687613
Si Si3 0.357165 0.395231 0.303861
O O1 0.144627 0.765971 0.863780
O O2 0.139811 0.662639 0.942764
O O3 0.000000 0.720052 0.074666
O O4 0.883518 0.500000 0.500000
O O5 0.750000 0.451164 0.750000
O O6 0.893650 0.400029 0.493967
O O7 0.897843 0.437021 0.981001
O O8 0.250000 0.409645 0.250000
#
# Coordination Sequence:
#
# PCOD9476810 Si02
#       3
#    16  16  16
#     4  10  21  37  55  74 101 140 178 212 259 315
#     4  10  18  31  51  77 108 137 168 208 255 309
#     4  10  20  32  52  80 105 133 172 216 258 298
#
# _framework density 26.750706999999998
#
# number of rings (size 3 to 8) (size 9 to 14) (size 15 to 20)
#    0.000    2.000    0.000    6.000    0.000    1.333 
#    0.000    0.000    0.000    6.000    0.000    0.000 
#    0.000   12.000    0.000    0.000    0.000    0.000 
#
# Total GULP energy -134080.520387 kJ/mol
# GULP energy per Si atom -5586.688349 kJ/mol
# Density = 2.668982 g / cm^3
# Si number density = 26.750707 Si / 1000 Ang^3
#
#
#
# Elastic Constant Matrix: (Units=GPa)
#
#
# Indices 1 2 3 4 5 6 
#
# 1 105.2356 -18.5772 7.5025 0.0000 0.0000 0.0000
# 2 -18.5772 117.9580 35.3432 0.0000 0.0000 0.0000
# 3 7.5025 35.3432 186.6561 0.0000 0.0000 0.0000
# 4 0.0000 0.0000 0.0000 51.6391 0.0000 0.0000
# 5 0.0000 0.0000 0.0000 0.0000 -16.6209 0.0000
# 6 0.0000 0.0000 0.0000 0.0000 0.0000 -29.6615
#
#
#
# Elastic Compliance Matrix: (Units=1/GPa)
#
#
# Indices 1 2 3 4 5 6 
#
# 1 0.009868 0.001774 -0.000732 0.000000 0.000000 0.000000
# 2 0.001774 0.009306 -0.001833 0.000000 0.000000 0.000000
# 3 -0.000732 -0.001833 0.005734 0.000000 0.000000 0.000000
# 4 0.000000 0.000000 0.000000 0.019365 0.000000 0.000000
# 5 0.000000 0.000000 0.000000 0.000000 -0.060165 0.000000
# 6 0.000000 0.000000 0.000000 0.000000 0.000000 -0.033714
#
#
# Mechanical properties :
#
#
# Convention : Reuss Voigt Hill
#
# Bulk Modulus (GPa) = 42.87535 50.93186 46.90361
# Shear Modulus (GPa) = -124.23380 26.77676 -48.72852
#
# Velocity S-wave (km/s) = -6.82218 3.16725 -4.27263
# Velocity P-wave (km/s) = 6.78186 5.69702 2.60169
#
# Compressibility (1/GPa) = 0.02332342
#
# Stress axis : x y z
#
# Youngs Moduli (GPa) = 101.33986 107.45468 174.39704
#
# Poissons Ratio (x) = -0.19058 0.12774
# Poissons Ratio (y) = -0.17973 0.31974
# Poissons Ratio (z) = 0.07423 0.19701
#
# Static dielectric constant tensor:
#      x y z
#    x 2.133700 0.000000 0.000000 
#    y 0.000000 2.165680 0.000000 
#    z 0.000000 0.000000 2.091010 
# 
# From -- ./inp_files/1251.got.cif
#   From: 2010.05.17/outbox.cif.g08.bks.cpg/sg64_1_cif.got.tgz:1251.got - 2010.06.03 16:29:19.
