data_PCOD9476996
_publ_section_title
;
Structure prediction by ZEFSAII (Michael W. Deem and Ramdas Pophale) SiO2 
 PCOD9476996
Probable space group: C M C A
;
_chemical_formula_sum "Si O2"
_cell_formula_units_Z 72
_cell_length_a 9.828929
_cell_length_b 14.979608
_cell_length_c 23.668323
_cell_angle_alpha 90.000000
_cell_angle_beta 90.000000
_cell_angle_gamma 90.000000
_cell_volume 3484.770117
_symmetry_space_group_name_H-M "C M C A"
_symmetry_group_IT_number 64
_symmetry_cell_setting 'orthorhombic'
loop_
_space_group_symop_operation_xyz
x,y,z
-x,1/2-y,1/2+z
x,-y,-z
-x,1/2+y,1/2-z
-x,-y,-z
x,1/2+y,1/2-z
-x,y,z
x,1/2-y,1/2+z
1/2+x,1/2+y,z
1/2-x,-y,1/2+z
1/2+x,1/2-y,-z
1/2-x,y,1/2-z
1/2-x,1/2-y,-z
1/2+x,y,1/2-z
1/2-x,1/2+y,z
1/2+x,-y,1/2+z
loop_
_atom_site_type_symbol
_atom_site_label
_atom_site_fract_x
_atom_site_fract_y
_atom_site_fract_z
Si Si1 0.000000 0.774965 0.320589
Si Si2 0.658082 0.386438 0.535293
Si Si3 0.500000 0.828514 0.793230
Si Si4 0.791659 0.736789 0.622658
Si Si5 0.263260 0.558109 0.586697
Si Si6 0.000000 0.030708 0.676166
O O1 0.000000 0.705051 0.270334
O O2 0.134337 0.765716 0.358622
O O3 0.000000 0.874247 0.292202
O O4 0.500000 0.412066 0.547925
O O5 0.684413 0.293671 0.566011
O O6 0.673366 0.391704 0.468089
O O7 0.762591 0.459592 0.561466
O O8 0.626644 0.787781 0.828231
O O9 0.500000 0.935726 0.794021
O O10 0.834688 0.633748 0.612141
O O11 0.369262 0.536456 0.635948
#
# Coordination Sequence:
#
# PCOD9476996 Si02
#       6
#     8  16   8  16  16   8
#     4  10  26  42  61  91 119 157 208 271 306 352
#     4  11  18  35  64  93 123 168 204 231 298 391
#     4  12  22  45  66  89 110 167 221 250 308 361
#     4  11  22  39  62  90 127 153 204 258 303 356
#     4  10  18  33  59  95 120 158 203 241 287 371
#     4  10  18  40  66  81 120 163 207 242 289 386
#
# _framework density 20.661334
#
# number of rings (size 3 to 8) (size 9 to 14) (size 15 to 20)
#    0.000    1.333    5.556    2.000    0.000    0.000 
#    4.000    2.222    0.000    2.667    0.000    0.000 
#    0.000    0.000    0.000    0.000    0.000    0.000 
#
# Total GULP energy -200586.992553 kJ/mol
# GULP energy per Si atom -5571.860904 kJ/mol
# Density = 2.061431 g / cm^3
# Si number density = 20.661334 Si / 1000 Ang^3
#
#
#
# Elastic Constant Matrix: (Units=GPa)
#
#
# Indices 1 2 3 4 5 6 
#
# 1 71.3603 17.2290 2.8321 0.0000 0.0000 0.0000
# 2 17.2290 139.0558 37.0990 0.0000 0.0000 0.0000
# 3 2.8321 37.0990 61.1017 0.0000 0.0000 0.0000
# 4 0.0000 0.0000 0.0000 38.3739 0.0000 0.0000
# 5 0.0000 0.0000 0.0000 0.0000 13.0290 0.0000
# 6 0.0000 0.0000 0.0000 0.0000 0.0000 24.4275
#
#
#
# Elastic Compliance Matrix: (Units=1/GPa)
#
#
# Indices 1 2 3 4 5 6 
#
# 1 0.014458 -0.001924 0.000498 0.000000 0.000000 0.000000
# 2 -0.001924 0.008838 -0.005277 0.000000 0.000000 0.000000
# 3 0.000498 -0.005277 0.019547 0.000000 0.000000 0.000000
# 4 0.000000 0.000000 0.000000 0.026059 0.000000 0.000000
# 5 0.000000 0.000000 0.000000 0.000000 0.076752 0.000000
# 6 0.000000 0.000000 0.000000 0.000000 0.000000 0.040938
#
#
# Mechanical properties :
#
#
# Convention : Reuss Voigt Hill
#
# Bulk Modulus (GPa) = 33.97068 42.87089 38.42078
# Shear Modulus (GPa) = 23.83113 29.45658 26.64386
#
# Velocity S-wave (km/s) = 3.39988 3.77992 3.59493
# Velocity P-wave (km/s) = 5.64709 6.31227 5.98892
#
# Compressibility (1/GPa) = 0.02943715
#
# Stress axis : x y z
#
# Youngs Moduli (GPa) = 69.16485 113.15350 51.15900
#
# Poissons Ratio (x) = 0.21774 -0.02549
# Poissons Ratio (y) = 0.13309 0.26995
# Poissons Ratio (z) = -0.03446 0.59708
#
# Static dielectric constant tensor:
#      x y z
#    x 1.744670 0.000000 0.000000 
#    y 0.000000 1.793420 0.000000 
#    z 0.000000 0.000000 1.718240 
# 
# From -- ./inp_files/43886.got.cif
#   From: 2010.05.17/outbox.cif.g08.bks.cpg/sg64_22_cif.got.tgz:43886.got - 2010.06.03 16:29:19.
