data_PCOD9476282
_publ_section_title
;
Structure prediction by ZEFSAII (Michael W. Deem and Ramdas Pophale) SiO2 
 PCOD9476282
Probable space group: C M C M
;
_chemical_formula_sum "Si O2"
_cell_formula_units_Z 40
_cell_length_a 27.000000
_cell_length_b 18.000000
_cell_length_c 9.000000
_cell_angle_alpha 90.000000
_cell_angle_beta 90.000000
_cell_angle_gamma 90.000000
_cell_volume 4374.000000
_symmetry_space_group_name_H-M "C M C M"
_symmetry_group_IT_number 63
_symmetry_cell_setting 'orthorhombic'
loop_
_space_group_symop_operation_xyz
x,y,z
-x,-y,1/2+z
x,-y,-z
-x,y,1/2-z
-x,-y,-z
x,y,1/2-z
-x,y,z
x,-y,1/2+z
1/2+x,1/2+y,z
1/2-x,1/2-y,1/2+z
1/2+x,1/2-y,-z
1/2-x,1/2+y,1/2-z
1/2-x,1/2-y,-z
1/2+x,1/2+y,1/2-z
1/2-x,1/2+y,z
1/2+x,1/2-y,1/2+z
loop_
_atom_site_type_symbol
_atom_site_label
_atom_site_fract_x
_atom_site_fract_y
_atom_site_fract_z
Si Si1 0.054154 0.706341 0.572471
Si Si2 0.763142 0.423466 0.572181
Si Si3 0.845682 0.304079 0.572519
Si Si4 0.053615 0.129434 0.570705
Si Si5 0.337564 0.372249 0.427982
O O1 0.058440 0.711772 0.750000
O O2 0.103536 0.670649 0.505732
O O3 0.053098 0.788946 0.502151
O O4 0.000000 0.672284 0.537581
O O5 0.781292 0.500000 0.500000
O O6 0.762522 0.429449 0.750000
O O7 0.799309 0.355291 0.530168
O O8 0.707959 0.408413 0.512642
O O9 0.852421 0.309059 0.750000
O O10 0.836988 0.216679 0.539309
O O11 0.054827 0.137472 0.750000
O O12 0.107571 0.097585 0.529349
O O13 0.000000 0.094096 0.531751
O O14 0.331212 0.381538 0.250000
#
# Coordination Sequence:
#
# PCOD9476282 Si02
#       5
#    16  16  16  16  16
#     4   9  16  25  42  72 104 129 156 195 241 285
#     4  11  23  37  52  71  97 130 167 206 249 295
#     4   9  19  34  52  74  99 130 166 201 242 292
#     4   8  14  26  45  70 101 133 161 193 237 288
#     4   9  17  31  52  77 102 128 161 200 242 290
#
# _framework density 9.1449470000000002
#
# number of rings (size 3 to 8) (size 9 to 14) (size 15 to 20)
#    0.000    2.800    0.000    3.000    0.000    6.000 
#    0.000    0.000    0.000    1.200    0.000    0.000 
#    0.000    0.000    0.000    0.000    0.000    0.000 
#
# Total GULP energy -222809.698446 kJ/mol
# GULP energy per Si atom -5570.242461 kJ/mol
# Density = 0.912413 g / cm^3
# Si number density = 9.144947 Si / 1000 Ang^3
#
#
#
# Elastic Constant Matrix: (Units=GPa)
#
#
# Indices 1 2 3 4 5 6 
#
# 1 125.6581 19.8920 25.0908 0.0000 0.0000 0.0000
# 2 19.8920 39.7356 11.9823 0.0000 0.0000 0.0000
# 3 25.0908 11.9823 9.3795 0.0000 0.0000 0.0000
# 4 0.0000 0.0000 0.0000 16.1499 0.0000 0.0000
# 5 0.0000 0.0000 0.0000 0.0000 31.6021 0.0000
# 6 0.0000 0.0000 0.0000 0.0000 0.0000 -5.4611
#
#
#
# Elastic Compliance Matrix: (Units=1/GPa)
#
#
# Indices 1 2 3 4 5 6 
#
# 1 0.019054 0.009486 -0.063088 0.000000 0.000000 0.000000
# 2 0.009486 0.045659 -0.083705 0.000000 0.000000 0.000000
# 3 -0.063088 -0.083705 0.382314 0.000000 0.000000 0.000000
# 4 0.000000 0.000000 0.000000 0.061920 0.000000 0.000000
# 5 0.000000 0.000000 0.000000 0.000000 0.031643 0.000000
# 6 0.000000 0.000000 0.000000 0.000000 0.000000 -0.183113
#
#
# Mechanical properties :
#
#
# Convention : Reuss Voigt Hill
#
# Bulk Modulus (GPa) = 5.80004 32.07817 18.93911
# Shear Modulus (GPa) = 7.25099 16.31205 11.78152
#
# Velocity S-wave (km/s) = 1.99326 2.98964 2.54077
# Velocity P-wave (km/s) = 2.91127 5.43085 4.35716
#
# Compressibility (1/GPa) = 0.17241248
#
# Stress axis : x y z
#
# Youngs Moduli (GPa) = 52.48354 21.90155 2.61565
#
# Poissons Ratio (x) = -0.20776 0.16502
# Poissons Ratio (y) = -0.49785 0.21894
# Poissons Ratio (z) = 3.31108 1.83326
#
# Static dielectric constant tensor:
#      x y z
#    x 1.690190 0.000000 0.000000 
#    y 0.000000 1.606060 0.000000 
#    z 0.000000 0.000000 1.603190 
# 
# From -- ./inp_files/11963.got.cif
#   From: 2010.05.17/outbox.ucp.g08.bks.cvg/sg63_6_cif.got.tgz:11963.got - 2010.06.11 16:32:19.
