data_PCOD9476578
_publ_section_title
;
Structure prediction by ZEFSAII (Michael W. Deem and Ramdas Pophale) SiO2 
 PCOD9476578
Probable space group: C M C A
;
_chemical_formula_sum "Si O2"
_cell_formula_units_Z 80
_cell_length_a 15.603059
_cell_length_b 15.159518
_cell_length_c 14.258005
_cell_angle_alpha 90.000000
_cell_angle_beta 90.000000
_cell_angle_gamma 90.000000
_cell_volume 3372.515128
_symmetry_space_group_name_H-M "C M C A"
_symmetry_group_IT_number 64
_symmetry_cell_setting 'orthorhombic'
loop_
_space_group_symop_operation_xyz
x,y,z
-x,1/2-y,1/2+z
x,-y,-z
-x,1/2+y,1/2-z
-x,-y,-z
x,1/2+y,1/2-z
-x,y,z
x,1/2-y,1/2+z
1/2+x,1/2+y,z
1/2-x,-y,1/2+z
1/2+x,1/2-y,-z
1/2-x,y,1/2-z
1/2-x,1/2-y,-z
1/2+x,y,1/2-z
1/2-x,1/2+y,z
1/2+x,-y,1/2+z
loop_
_atom_site_type_symbol
_atom_site_label
_atom_site_fract_x
_atom_site_fract_y
_atom_site_fract_z
Si Si1 0.271821 0.229540 0.365976
Si Si2 0.407034 0.736273 0.344237
Si Si3 0.594683 0.636348 0.661376
Si Si4 0.853040 0.043987 0.269440
Si Si5 0.098199 0.926631 0.923725
O O1 0.250000 0.227247 0.250000
O O2 0.177504 0.245248 0.406097
O O3 0.329511 0.312520 0.387520
O O4 0.328656 0.146864 0.401170
O O5 0.500000 0.740237 0.389908
O O6 0.407301 0.811299 0.262516
O O7 0.392459 0.637505 0.301846
O O8 0.500000 0.647181 0.621549
O O9 0.621455 0.535161 0.663668
O O10 0.750000 0.043531 0.250000
O O11 0.900760 0.021041 0.173677
O O12 0.000000 0.893240 0.939909
O O13 0.120394 0.000000 0.000000
#
# Coordination Sequence:
#
# PCOD9476578 Si02
#       5
#    16  16  16  16  16
#     4  10  17  34  52  78 106 143 181 228 271 319
#     4  10  18  31  51  78 106 136 178 234 275 311
#     4  10  19  29  51  81 112 138 174 231 277 324
#     4  12  19  33  55  83 111 143 188 232 274 325
#     4  11  21  33  53  81 116 149 178 223 283 339
#
# _framework density 23.721167999999999
#
# number of rings (size 3 to 8) (size 9 to 14) (size 15 to 20)
#    0.000    1.400    6.000    4.200    0.000    0.000 
#    0.000    0.000    0.000   11.400    0.000    2.800 
#    0.000    0.000    0.000    0.000    0.000    0.000 
#
# Total GULP energy -222871.410853 kJ/mol
# GULP energy per Si atom -5571.785271 kJ/mol
# Density = 2.366718 g / cm^3
# Si number density = 23.721168 Si / 1000 Ang^3
#
#
#
# Elastic Constant Matrix: (Units=GPa)
#
#
# Indices 1 2 3 4 5 6 
#
# 1 217.4204 9.0267 -2.2682 0.0000 0.0000 0.0000
# 2 9.0267 67.9815 2.5103 0.0000 0.0000 0.0000
# 3 -2.2682 2.5103 43.8043 0.0000 0.0000 0.0000
# 4 0.0000 0.0000 0.0000 14.9714 0.0000 0.0000
# 5 0.0000 0.0000 0.0000 0.0000 -6.8758 0.0000
# 6 0.0000 0.0000 0.0000 0.0000 0.0000 75.6602
#
#
#
# Elastic Compliance Matrix: (Units=1/GPa)
#
#
# Indices 1 2 3 4 5 6 
#
# 1 0.004628 -0.000625 0.000275 0.000000 0.000000 0.000000
# 2 -0.000625 0.014825 -0.000882 0.000000 0.000000 0.000000
# 3 0.000275 -0.000882 0.022894 0.000000 0.000000 0.000000
# 4 0.000000 0.000000 0.000000 0.066794 0.000000 0.000000
# 5 0.000000 0.000000 0.000000 0.000000 -0.145438 0.000000
# 6 0.000000 0.000000 0.000000 0.000000 0.000000 0.013217
#
#
# Mechanical properties :
#
#
# Convention : Reuss Voigt Hill
#
# Bulk Modulus (GPa) = 25.07219 38.63817 31.85518
# Shear Modulus (GPa) = -682.79284 38.08033 -322.35626
#
# Velocity S-wave (km/s) = -16.98429 4.01101 -11.67000
# Velocity P-wave (km/s) = 19.33983 6.14611 12.96638
#
# Compressibility (1/GPa) = 0.03988483
#
# Stress axis : x y z
#
# Youngs Moduli (GPa) = 216.06697 67.45176 43.68029
#
# Poissons Ratio (x) = 0.04214 -0.01203
# Poissons Ratio (y) = 0.13498 0.03852
# Poissons Ratio (z) = -0.05952 0.05949
#
# Static dielectric constant tensor:
#      x y z
#    x 1.986510 0.000000 0.000000 
#    y 0.000000 1.906450 0.000000 
#    z 0.000000 0.000000 1.995900 
# 
# From -- ./inp_files/32998.got.cif
#   From: 2010.05.17/outbox.cif.g08.bks.cpg/sg64_17_cif.got.tgz:32998.got - 2010.06.03 16:29:19.
