data_PCOD9476029
_publ_section_title
;
Structure prediction by ZEFSAII (Michael W. Deem and Ramdas Pophale) SiO2 
 PCOD9476029
Probable space group: C M C M
;
_chemical_formula_sum "Si O2"
_cell_formula_units_Z 80
_cell_length_a 30.263898
_cell_length_b 9.089862
_cell_length_c 13.681275
_cell_angle_alpha 90.000000
_cell_angle_beta 90.000000
_cell_angle_gamma 90.000000
_cell_volume 3763.645645
_symmetry_space_group_name_H-M "C M C M"
_symmetry_group_IT_number 63
_symmetry_cell_setting 'orthorhombic'
loop_
_space_group_symop_operation_xyz
x,y,z
-x,-y,1/2+z
x,-y,-z
-x,y,1/2-z
-x,-y,-z
x,y,1/2-z
-x,y,z
x,-y,1/2+z
1/2+x,1/2+y,z
1/2-x,1/2-y,1/2+z
1/2+x,1/2-y,-z
1/2-x,1/2+y,1/2-z
1/2-x,1/2-y,-z
1/2+x,1/2+y,1/2-z
1/2-x,1/2+y,z
1/2+x,1/2-y,1/2+z
loop_
_atom_site_type_symbol
_atom_site_label
_atom_site_fract_x
_atom_site_fract_y
_atom_site_fract_z
Si Si1 0.607727 0.249353 0.633495
Si Si2 0.305633 0.412811 0.869191
Si Si3 0.719610 0.741366 0.869662
Si Si4 0.866461 0.412693 0.633475
Si Si5 0.048465 0.673605 0.026618
O O1 0.600378 0.258530 0.750000
O O2 0.645473 0.363035 0.602276
O O3 0.563328 0.259310 0.570727
O O4 0.626659 0.085094 0.610880
O O5 0.306067 0.410876 0.750000
O O6 0.292057 0.576101 0.899214
O O7 0.267671 0.298486 0.899478
O O8 0.719960 0.742753 0.750000
O O9 0.680063 0.848694 0.901916
O O10 0.865775 0.402664 0.750000
O O11 0.908993 0.321825 0.596751
O O12 0.000000 0.718573 0.063359
O O13 0.045205 0.500000 0.000000
#
# Coordination Sequence:
#
# PCOD9476029 Si02
#       5
#    16  16  16  16  16
#     4   9  17  30  49  72  98 128 161 197 238 284
#     4   9  16  27  46  72 101 131 162 196 235 282
#     4   9  16  27  46  72 101 131 162 196 235 282
#     4   9  17  30  49  72  98 128 161 197 238 284
#     4   9  18  32  50  73  98 123 158 205 248 285
#
# _framework density 21.255987000000001
#
# number of rings (size 3 to 8) (size 9 to 14) (size 15 to 20)
#    0.000    3.000    0.000    1.200    0.000    5.600 
#    0.000    6.000    0.000    2.400    0.000    5.600 
#    0.000    0.000    0.000    0.000    0.000    0.000 
#
# Total GULP energy -223351.407834 kJ/mol
# GULP energy per Si atom -5583.785196 kJ/mol
# Density = 2.120761 g / cm^3
# Si number density = 21.255987 Si / 1000 Ang^3
#
#
#
# Elastic Constant Matrix: (Units=GPa)
#
#
# Indices 1 2 3 4 5 6 
#
# 1 98.6534 10.9645 3.6564 0.0000 0.0000 0.0000
# 2 10.9645 39.7850 7.0859 0.0000 0.0000 0.0000
# 3 3.6564 7.0859 39.1510 0.0000 0.0000 0.0000
# 4 0.0000 0.0000 0.0000 20.4095 0.0000 0.0000
# 5 0.0000 0.0000 0.0000 0.0000 27.1818 0.0000
# 6 0.0000 0.0000 0.0000 0.0000 0.0000 9.6279
#
#
#
# Elastic Compliance Matrix: (Units=1/GPa)
#
#
# Indices 1 2 3 4 5 6 
#
# 1 0.010465 -0.002800 -0.000471 0.000000 0.000000 0.000000
# 2 -0.002800 0.026722 -0.004575 0.000000 0.000000 0.000000
# 3 -0.000471 -0.004575 0.026414 0.000000 0.000000 0.000000
# 4 0.000000 0.000000 0.000000 0.048997 0.000000 0.000000
# 5 0.000000 0.000000 0.000000 0.000000 0.036789 0.000000
# 6 0.000000 0.000000 0.000000 0.000000 0.000000 0.103865
#
#
# Mechanical properties :
#
#
# Convention : Reuss Voigt Hill
#
# Bulk Modulus (GPa) = 20.87265 24.55588 22.71426
# Shear Modulus (GPa) = 17.54921 21.83601 19.69261
#
# Velocity S-wave (km/s) = 2.87646 3.20861 3.04707
# Velocity P-wave (km/s) = 4.56870 5.03035 4.80507
#
# Compressibility (1/GPa) = 0.04790959
#
# Stress axis : x y z
#
# Youngs Moduli (GPa) = 95.55510 37.42280 37.85860
#
# Poissons Ratio (x) = 0.10480 0.01781
# Poissons Ratio (y) = 0.26759 0.17320
# Poissons Ratio (z) = 0.04496 0.17120
#
# Static dielectric constant tensor:
#      x y z
#    x 1.729740 0.000000 0.000000 
#    y 0.000000 1.751230 0.000000 
#    z 0.000000 0.000000 1.843870 
# 
# From -- ./inp_files/40529.got.cif
#   From: 2010.05.17/outbox.cif.g08.bks.cpg/sg63_21_cif.got.tgz:40529.got - 2010.06.03 15:47:04.
