data_PCOD9476701
_publ_section_title
;
Structure prediction by ZEFSAII (Michael W. Deem and Ramdas Pophale) SiO2 
 PCOD9476701
Probable space group: C M C A
;
_chemical_formula_sum "Si O2"
_cell_formula_units_Z 88
_cell_length_a 8.991658
_cell_length_b 20.641867
_cell_length_c 23.972181
_cell_angle_alpha 90.000000
_cell_angle_beta 90.000000
_cell_angle_gamma 90.000000
_cell_volume 4449.347270
_symmetry_space_group_name_H-M "C M C A"
_symmetry_group_IT_number 64
_symmetry_cell_setting 'orthorhombic'
loop_
_space_group_symop_operation_xyz
x,y,z
-x,1/2-y,1/2+z
x,-y,-z
-x,1/2+y,1/2-z
-x,-y,-z
x,1/2+y,1/2-z
-x,y,z
x,1/2-y,1/2+z
1/2+x,1/2+y,z
1/2-x,-y,1/2+z
1/2+x,1/2-y,-z
1/2-x,y,1/2-z
1/2-x,1/2-y,-z
1/2+x,y,1/2-z
1/2-x,1/2+y,z
1/2+x,-y,1/2+z
loop_
_atom_site_type_symbol
_atom_site_label
_atom_site_fract_x
_atom_site_fract_y
_atom_site_fract_z
Si Si1 0.248585 0.000000 0.000000
Si Si2 0.165622 0.020593 0.622618
Si Si3 0.323198 0.762869 0.694074
Si Si4 0.666794 0.856213 0.518151
Si Si5 0.678526 0.339427 0.403315
Si Si6 0.820482 0.621128 0.134919
O O1 0.341713 0.006979 0.943808
O O2 0.159960 0.066529 0.005851
O O3 0.234647 0.092199 0.623483
O O4 0.000000 0.025936 0.646808
O O5 0.233594 0.953298 0.644275
O O6 0.500000 0.770318 0.700693
O O7 0.250000 0.735353 0.750000
O O8 0.296044 0.716461 0.641244
O O9 0.245212 0.830847 0.680413
O O10 0.500000 0.830362 0.526412
O O11 0.744881 0.827683 0.463063
O O12 0.760802 0.853340 0.574978
O O13 0.500000 0.346428 0.412371
O O14 0.000000 0.620792 0.134452
#
# Coordination Sequence:
#
# PCOD9476701 Si02
#       6
#     8  16  16  16  16  16
#     4   8  14  24  42  74 115 150 175 208 259 316
#     4   8  14  28  52  80 108 140 178 217 260 313
#     4  11  24  42  61  78 102 139 182 228 275 324
#     4  10  18  29  50  82 117 147 178 218 265 317
#     4   9  19  36  57  81 110 144 181 220 266 321
#     4  10  20  35  57  83 113 147 181 219 265 319
#
# _framework density 19.778182999999999
#
# number of rings (size 3 to 8) (size 9 to 14) (size 15 to 20)
#    0.000    2.545    0.000    2.182    0.000    6.545 
#    0.000    1.818    0.000    2.182    0.000    0.000 
#    0.000    0.000    0.000    0.000    0.000    0.000 
#
# Total GULP energy -245162.519672 kJ/mol
# GULP energy per Si atom -5571.875447 kJ/mol
# Density = 1.973317 g / cm^3
# Si number density = 19.778183 Si / 1000 Ang^3
#
#
#
# Elastic Constant Matrix: (Units=GPa)
#
#
# Indices 1 2 3 4 5 6 
#
# 1 70.5342 15.9903 21.5475 0.0000 0.0000 0.0000
# 2 15.9903 67.2134 9.4863 0.0000 0.0000 0.0000
# 3 21.5475 9.4863 46.0484 0.0000 0.0000 0.0000
# 4 0.0000 0.0000 0.0000 16.6378 0.0000 0.0000
# 5 0.0000 0.0000 0.0000 0.0000 25.8355 0.0000
# 6 0.0000 0.0000 0.0000 0.0000 0.0000 4.2095
#
#
#
# Elastic Compliance Matrix: (Units=1/GPa)
#
#
# Indices 1 2 3 4 5 6 
#
# 1 0.017121 -0.003031 -0.007387 0.000000 0.000000 0.000000
# 2 -0.003031 0.015860 -0.001849 0.000000 0.000000 0.000000
# 3 -0.007387 -0.001849 0.025554 0.000000 0.000000 0.000000
# 4 0.000000 0.000000 0.000000 0.060104 0.000000 0.000000
# 5 0.000000 0.000000 0.000000 0.000000 0.038706 0.000000
# 6 0.000000 0.000000 0.000000 0.000000 0.000000 0.237558
#
#
# Mechanical properties :
#
#
# Convention : Reuss Voigt Hill
#
# Bulk Modulus (GPa) = 29.41076 30.87159 30.14118
# Shear Modulus (GPa) = 11.60709 18.45468 15.03088
#
# Velocity S-wave (km/s) = 2.42515 3.05795 2.75975
# Velocity P-wave (km/s) = 4.76911 5.30197 5.04258
#
# Compressibility (1/GPa) = 0.03400116
#
# Stress axis : x y z
#
# Youngs Moduli (GPa) = 58.40681 63.05184 39.13293
#
# Poissons Ratio (x) = 0.19109 0.28908
# Poissons Ratio (y) = 0.17701 0.07236
# Poissons Ratio (z) = 0.43147 0.11659
#
# Static dielectric constant tensor:
#      x y z
#    x 1.700980 0.000000 0.000000 
#    y 0.000000 1.767990 0.000000 
#    z 0.000000 0.000000 1.679630 
# 
# From -- ./inp_files/42864.got.cif
#   From: 2010.05.17/outbox.cif.g08.bks.cpg/sg64_22_cif.got.tgz:42864.got - 2010.06.03 16:29:19.
