data_PCOD9477165
_publ_section_title
;
Structure prediction by ZEFSAII (Michael W. Deem and Ramdas Pophale) SiO2 
 PCOD9477165
Probable space group: C M C A
;
_chemical_formula_sum "Si O2"
_cell_formula_units_Z 64
_cell_length_a 11.873664
_cell_length_b 19.221229
_cell_length_c 13.541278
_cell_angle_alpha 90.000000
_cell_angle_beta 90.000000
_cell_angle_gamma 90.000000
_cell_volume 3090.477330
_symmetry_space_group_name_H-M "C M C A"
_symmetry_group_IT_number 64
_symmetry_cell_setting 'orthorhombic'
loop_
_space_group_symop_operation_xyz
x,y,z
-x,1/2-y,1/2+z
x,-y,-z
-x,1/2+y,1/2-z
-x,-y,-z
x,1/2+y,1/2-z
-x,y,z
x,1/2-y,1/2+z
1/2+x,1/2+y,z
1/2-x,-y,1/2+z
1/2+x,1/2-y,-z
1/2-x,y,1/2-z
1/2-x,1/2-y,-z
1/2+x,y,1/2-z
1/2-x,1/2+y,z
1/2+x,-y,1/2+z
loop_
_atom_site_type_symbol
_atom_site_label
_atom_site_fract_x
_atom_site_fract_y
_atom_site_fract_z
Si Si1 0.500000 0.790981 0.256739
Si Si2 0.000000 0.520960 0.290356
Si Si3 0.174582 0.000000 0.500000
Si Si4 0.500000 0.105678 0.557016
Si Si5 0.500000 0.915277 0.109335
Si Si6 0.750000 0.783301 0.750000
Si Si7 0.316691 0.899988 0.613593
O O1 0.500000 0.837395 0.356544
O O2 0.500000 0.841659 0.161303
O O3 0.374807 0.754116 0.253104
O O4 0.000000 0.468968 0.385971
O O5 0.000000 0.472763 0.196076
O O6 0.104064 0.572781 0.298656
O O7 0.244032 0.033045 0.412414
O O8 0.104773 0.064815 0.541589
O O9 0.393381 0.112595 0.483704
O O10 0.744241 0.831966 0.652648
#
# Coordination Sequence:
#
# PCOD9477165 Si02
#       7
#     8   8   8   8   8   8  16
#     4  11  28  48  65  98 139 195 229 272 332 423
#     4  10  18  40  67  99 132 174 217 287 356 408
#     4  11  22  41  66 106 122 171 226 301 348 387
#     4  10  21  41  70  99 135 179 229 280 351 411
#     4  10  25  39  64  95 140 169 228 282 345 401
#     4  12  28  46  68  98 142 188 236 268 342 412
#     4  11  21  40  69  98 132 172 224 288 341 408
#
# _framework density 20.708774999999999
#
# number of rings (size 3 to 8) (size 9 to 14) (size 15 to 20)
#    0.000    1.250    2.500    3.750    3.500    3.000 
#    4.500    0.000    0.000    0.000    0.000    0.000 
#    0.000    0.000    0.000    0.000    0.000    0.000 
#
# Total GULP energy -178377.360996 kJ/mol
# GULP energy per Si atom -5574.292531 kJ/mol
# Density = 2.066164 g / cm^3
# Si number density = 20.708775 Si / 1000 Ang^3
#
#
#
# Elastic Constant Matrix: (Units=GPa)
#
#
# Indices 1 2 3 4 5 6 
#
# 1 120.0287 51.6271 3.3262 0.0000 0.0000 0.0000
# 2 51.6271 86.5507 1.8055 0.0000 0.0000 0.0000
# 3 3.3262 1.8055 36.4020 0.0000 0.0000 0.0000
# 4 0.0000 0.0000 0.0000 46.7302 0.0000 0.0000
# 5 0.0000 0.0000 0.0000 0.0000 -18.9300 0.0000
# 6 0.0000 0.0000 0.0000 0.0000 0.0000 163.7691
#
#
#
# Elastic Compliance Matrix: (Units=1/GPa)
#
#
# Indices 1 2 3 4 5 6 
#
# 1 0.011224 -0.006681 -0.000694 0.000000 0.000000 0.000000
# 2 -0.006681 0.015542 -0.000160 0.000000 0.000000 0.000000
# 3 -0.000694 -0.000160 0.027542 0.000000 0.000000 0.000000
# 4 0.000000 0.000000 0.000000 0.021399 0.000000 0.000000
# 5 0.000000 0.000000 0.000000 0.000000 -0.052826 0.000000
# 6 0.000000 0.000000 0.000000 0.000000 0.000000 0.006106
#
#
# Mechanical properties :
#
#
# Convention : Reuss Voigt Hill
#
# Bulk Modulus (GPa) = 25.48541 39.61099 32.54820
# Shear Modulus (GPa) = 87.50748 50.72871 69.11810
#
# Velocity S-wave (km/s) = 6.50753 4.95474 5.78348
# Velocity P-wave (km/s) = 8.29441 7.20428 7.76849
#
# Compressibility (1/GPa) = 0.03923814
#
# Stress axis : x y z
#
# Youngs Moduli (GPa) = 89.09429 64.34083 36.30762
#
# Poissons Ratio (x) = 0.42984 0.02521
# Poissons Ratio (y) = 0.59521 0.00582
# Poissons Ratio (z) = 0.06185 0.01032
#
# Static dielectric constant tensor:
#      x y z
#    x 1.823390 0.000000 0.000000 
#    y 0.000000 1.710680 0.000000 
#    z 0.000000 0.000000 1.705080 
# 
# From -- ./inp_files/22069.got.cif
#   From: 2010.05.17/outbox.cif.g08.bks.cpg/sg64_12_cif.got.tgz:22069.got - 2010.06.03 16:29:19.
