data_PCOD9477313
_publ_section_title
;
Structure prediction by ZEFSAII (Michael W. Deem and Ramdas Pophale) SiO2 
 PCOD9477313
Probable space group: C M C A
;
_chemical_formula_sum "Si O2"
_cell_formula_units_Z 96
_cell_length_a 8.938954
_cell_length_b 23.813877
_cell_length_c 26.590168
_cell_angle_alpha 90.000000
_cell_angle_beta 90.000000
_cell_angle_gamma 90.000000
_cell_volume 5660.279669
_symmetry_space_group_name_H-M "C M C A"
_symmetry_group_IT_number 64
_symmetry_cell_setting 'orthorhombic'
loop_
_space_group_symop_operation_xyz
x,y,z
-x,1/2-y,1/2+z
x,-y,-z
-x,1/2+y,1/2-z
-x,-y,-z
x,1/2+y,1/2-z
-x,y,z
x,1/2-y,1/2+z
1/2+x,1/2+y,z
1/2-x,-y,1/2+z
1/2+x,1/2-y,-z
1/2-x,y,1/2-z
1/2-x,1/2-y,-z
1/2+x,y,1/2-z
1/2-x,1/2+y,z
1/2+x,-y,1/2+z
loop_
_atom_site_type_symbol
_atom_site_label
_atom_site_fract_x
_atom_site_fract_y
_atom_site_fract_z
Si Si1 0.821531 0.096581 0.566463
Si Si2 0.178840 0.728055 0.947654
Si Si3 0.178605 0.825984 0.606976
Si Si4 0.174107 0.505354 0.628073
Si Si5 0.674666 0.082471 0.462971
Si Si6 0.820838 0.588576 0.195527
O O1 0.786207 0.162870 0.563040
O O2 0.751194 0.070601 0.515849
O O3 0.000000 0.089657 0.566389
O O4 0.751714 0.063734 0.613569
O O5 0.242411 0.767028 0.903160
O O6 0.000000 0.733806 0.951366
O O7 0.250000 0.750000 0.000000
O O8 0.237597 0.866171 0.562499
O O9 0.216105 0.859427 0.658136
O O10 0.000000 0.820195 0.603643
O O11 0.181889 0.467341 0.577471
O O12 0.256076 0.467863 0.669916
O O13 0.000000 0.512875 0.640900
O O14 0.500000 0.096506 0.470691
O O15 0.750000 0.596623 0.250000
O O16 0.000000 0.584709 0.198496
#
# Coordination Sequence:
#
# PCOD9477313 Si02
#       6
#    16  16  16  16  16  16
#     4  11  22  33  48  73 107 146 183 219 264 316
#     4  11  22  34  51  75 108 149 188 224 263 316
#     4  10  20  34  53  79 108 140 180 224 269 317
#     4  10  21  35  52  77 106 138 178 221 268 321
#     4  10  19  31  49  73 104 142 180 218 261 314
#     4  10  21  38  61  85 108 135 172 222 277 328
#
# _framework density 16.960293
#
# number of rings (size 3 to 8) (size 9 to 14) (size 15 to 20)
#    0.000    1.667    1.667    3.500    0.000    8.000 
#    0.000    0.000    0.000    1.000    0.000    2.333 
#    0.000    0.000    0.000    0.000    0.000    0.000 
#
# Total GULP energy -267994.551621 kJ/mol
# GULP energy per Si atom -5583.219825 kJ/mol
# Density = 1.692169 g / cm^3
# Si number density = 16.960293 Si / 1000 Ang^3
#
#
#
# Elastic Constant Matrix: (Units=GPa)
#
#
# Indices 1 2 3 4 5 6 
#
# 1 76.7418 49.0691 46.1875 0.0000 0.0000 0.0000
# 2 49.0691 85.3357 42.3465 0.0000 0.0000 0.0000
# 3 46.1875 42.3465 95.4264 0.0000 0.0000 0.0000
# 4 0.0000 0.0000 0.0000 15.0106 0.0000 0.0000
# 5 0.0000 0.0000 0.0000 0.0000 29.1802 0.0000
# 6 0.0000 0.0000 0.0000 0.0000 0.0000 24.3245
#
#
#
# Elastic Compliance Matrix: (Units=1/GPa)
#
#
# Indices 1 2 3 4 5 6 
#
# 1 0.023743 -0.010195 -0.006968 0.000000 0.000000 0.000000
# 2 -0.010195 0.019405 -0.003677 0.000000 0.000000 0.000000
# 3 -0.006968 -0.003677 0.015483 0.000000 0.000000 0.000000
# 4 0.000000 0.000000 0.000000 0.066619 0.000000 0.000000
# 5 0.000000 0.000000 0.000000 0.000000 0.034270 0.000000
# 6 0.000000 0.000000 0.000000 0.000000 0.000000 0.041111
#
#
# Mechanical properties :
#
#
# Convention : Reuss Voigt Hill
#
# Bulk Modulus (GPa) = 58.98804 59.19001 59.08902
# Shear Modulus (GPa) = 20.16442 21.69644 20.93043
#
# Velocity S-wave (km/s) = 3.45181 3.58054 3.51676
# Velocity P-wave (km/s) = 7.12336 7.21586 7.16976
#
# Compressibility (1/GPa) = 0.01695259
#
# Stress axis : x y z
#
# Youngs Moduli (GPa) = 42.11774 51.53269 64.58527
#
# Poissons Ratio (x) = 0.52537 0.45002
# Poissons Ratio (y) = 0.42938 0.23747
# Poissons Ratio (z) = 0.29347 0.18948
#
# Static dielectric constant tensor:
#      x y z
#    x 1.564740 0.000000 0.000000 
#    y 0.000000 1.624930 0.000000 
#    z 0.000000 0.000000 1.573240 
# 
# From -- ./inp_files/42993.got.cif
#   From: 2010.05.17/outbox.cif.g08.bks.cpg/sg64_22_cif.got.tgz:42993.got - 2010.06.03 16:29:19.
