data_PCOD9477134
_publ_section_title
;
Structure prediction by ZEFSAII (Michael W. Deem and Ramdas Pophale) SiO2 
 PCOD9477134
Probable space group: C M C A
;
_chemical_formula_sum "Si O2"
_cell_formula_units_Z 116
_cell_length_a 17.896406
_cell_length_b 24.794550
_cell_length_c 14.216175
_cell_angle_alpha 90.000000
_cell_angle_beta 90.000000
_cell_angle_gamma 90.000000
_cell_volume 6308.190721
_symmetry_space_group_name_H-M "C M C A"
_symmetry_group_IT_number 64
_symmetry_cell_setting 'orthorhombic'
loop_
_space_group_symop_operation_xyz
x,y,z
-x,1/2-y,1/2+z
x,-y,-z
-x,1/2+y,1/2-z
-x,-y,-z
x,1/2+y,1/2-z
-x,y,z
x,1/2-y,1/2+z
1/2+x,1/2+y,z
1/2-x,-y,1/2+z
1/2+x,1/2-y,-z
1/2-x,y,1/2-z
1/2-x,1/2-y,-z
1/2+x,y,1/2-z
1/2-x,1/2+y,z
1/2+x,-y,1/2+z
loop_
_atom_site_type_symbol
_atom_site_label
_atom_site_fract_x
_atom_site_fract_y
_atom_site_fract_z
Si Si1 0.630879 0.494578 0.648757
Si Si2 0.710688 0.729089 0.351036
Si Si3 0.087584 0.519313 0.636060
Si Si4 0.087079 0.398827 0.591684
Si Si5 0.000000 0.500000 0.000000
Si Si6 0.302244 0.174600 0.519339
Si Si7 0.335433 0.120180 0.212177
Si Si8 0.739875 0.581754 0.859414
O O1 0.600198 0.504724 0.753924
O O2 0.565409 0.508252 0.578947
O O3 0.651615 0.431129 0.645788
O O4 0.703159 0.531771 0.629991
O O5 0.750000 0.740343 0.250000
O O6 0.677998 0.782169 0.399959
O O7 0.767737 0.705450 0.429451
O O8 0.655754 0.678692 0.333810
O O9 0.101725 0.462913 0.581656
O O10 0.155312 0.561025 0.622302
O O11 0.000000 0.535284 0.621059
O O12 0.130725 0.359963 0.522478
O O13 0.112630 0.384711 0.697220
O O14 0.000000 0.390940 0.581364
O O15 0.247242 0.131213 0.569315
O O16 0.250000 0.116879 0.250000
O O17 0.750000 0.599004 0.750000
#
# Coordination Sequence:
#
# PCOD9477134 Si02
#       8
#    16  16  16  16   4  16  16  16
#     4  10  21  34  54  87 123 159 197 240 296 347
#     4  10  21  39  63  86 111 147 194 251 297 345
#     4   9  18  37  58  84 121 160 189 232 305 355
#     4  10  20  35  59  87 120 148 192 247 291 351
#     4  12  24  32  52  88 126 158 200 248 288 358
#     4  11  22  37  59  90 114 148 199 243 296 351
#     4  10  18  37  63  87 112 156 198 245 296 347
#     4  10  22  37  59  88 122 162 199 241 288 362
#
# _framework density 18.38879
#
# number of rings (size 3 to 8) (size 9 to 14) (size 15 to 20)
#    0.000    1.931    3.448    2.483    2.897    1.103 
#    0.000    2.069    0.000    0.000    0.000    0.000 
#    0.000    0.000    0.000    0.000    0.000    0.000 
#
# Total GULP energy -322915.526387 kJ/mol
# GULP energy per Si atom -5567.509076 kJ/mol
# Density = 1.834694 g / cm^3
# Si number density = 18.388790 Si / 1000 Ang^3
#
#
#
# Elastic Constant Matrix: (Units=GPa)
#
#
# Indices 1 2 3 4 5 6 
#
# 1 62.2634 21.9990 25.1046 0.0000 0.0000 0.0000
# 2 21.9990 72.0187 39.2330 0.0000 0.0000 0.0000
# 3 25.1046 39.2330 92.7079 0.0000 0.0000 0.0000
# 4 0.0000 0.0000 0.0000 35.7197 0.0000 0.0000
# 5 0.0000 0.0000 0.0000 0.0000 28.1852 0.0000
# 6 0.0000 0.0000 0.0000 0.0000 0.0000 16.4572
#
#
#
# Elastic Compliance Matrix: (Units=1/GPa)
#
#
# Indices 1 2 3 4 5 6 
#
# 1 0.018822 -0.003863 -0.003462 0.000000 0.000000 0.000000
# 2 -0.003863 0.018838 -0.006926 0.000000 0.000000 0.000000
# 3 -0.003462 -0.006926 0.014655 0.000000 0.000000 0.000000
# 4 0.000000 0.000000 0.000000 0.027996 0.000000 0.000000
# 5 0.000000 0.000000 0.000000 0.000000 0.035480 0.000000
# 6 0.000000 0.000000 0.000000 0.000000 0.000000 0.060764
#
#
# Mechanical properties :
#
#
# Convention : Reuss Voigt Hill
#
# Bulk Modulus (GPa) = 41.99463 44.40701 43.20082
# Shear Modulus (GPa) = 23.47482 25.44931 24.46206
#
# Velocity S-wave (km/s) = 3.57681 3.72419 3.65124
# Velocity P-wave (km/s) = 6.32018 6.53408 6.42802
#
# Compressibility (1/GPa) = 0.02381257
#
# Stress axis : x y z
#
# Youngs Moduli (GPa) = 53.13033 53.08282 68.23590
#
# Poissons Ratio (x) = 0.20508 0.23622
# Poissons Ratio (y) = 0.20527 0.47261
# Poissons Ratio (z) = 0.18393 0.36766
#
# Static dielectric constant tensor:
#      x y z
#    x 1.598610 0.000000 0.000000 
#    y 0.000000 1.660350 0.000000 
#    z 0.000000 0.000000 1.686430 
# 
# From -- ./inp_files/25779.got.cif
#   From: 2010.05.17/outbox.cif.g08.bks.cpg/sg64_13_cif.got.tgz:25779.got - 2010.06.03 16:29:19.
