data_PCOD9477364
_publ_section_title
;
Structure prediction by ZEFSAII (Michael W. Deem and Ramdas Pophale) SiO2 
 PCOD9477364
Probable space group: C M C A
;
_chemical_formula_sum "Si O2"
_cell_formula_units_Z 104
_cell_length_a 30.017904
_cell_length_b 8.347376
_cell_length_c 21.013238
_cell_angle_alpha 90.000000
_cell_angle_beta 90.000000
_cell_angle_gamma 90.000000
_cell_volume 5265.302415
_symmetry_space_group_name_H-M "C M C A"
_symmetry_group_IT_number 64
_symmetry_cell_setting 'orthorhombic'
loop_
_space_group_symop_operation_xyz
x,y,z
-x,1/2-y,1/2+z
x,-y,-z
-x,1/2+y,1/2-z
-x,-y,-z
x,1/2+y,1/2-z
-x,y,z
x,1/2-y,1/2+z
1/2+x,1/2+y,z
1/2-x,-y,1/2+z
1/2+x,1/2-y,-z
1/2-x,y,1/2-z
1/2-x,1/2-y,-z
1/2+x,y,1/2-z
1/2-x,1/2+y,z
1/2+x,-y,1/2+z
loop_
_atom_site_type_symbol
_atom_site_label
_atom_site_fract_x
_atom_site_fract_y
_atom_site_fract_z
Si Si1 0.820357 0.487307 0.423708
Si Si2 0.250000 0.255251 0.750000
Si Si3 0.240632 0.286176 0.073660
Si Si4 0.403537 0.542762 0.162624
Si Si5 0.000000 0.424944 0.192649
Si Si6 0.000000 0.046124 0.164362
Si Si7 0.098289 0.077732 0.694125
Si Si8 0.196125 0.004440 0.665804
O O1 0.827017 0.500000 0.500000
O O2 0.790527 0.640925 0.404586
O O3 0.790480 0.334500 0.405205
O O4 0.865354 0.491624 0.385023
O O5 0.214904 0.150193 0.710044
O O6 0.221450 0.361356 0.798772
O O7 0.212730 0.443909 0.095385
O O8 0.250000 0.250000 0.000000
O O9 0.452545 0.510820 0.133691
O O10 0.399342 0.732998 0.177999
O O11 0.399971 0.451662 0.229969
O O12 0.049238 0.484319 0.171096
O O13 0.000000 0.456419 0.267984
O O14 0.000000 0.235601 0.179688
O O15 0.142871 0.995781 0.667439
#
# Coordination Sequence:
#
# PCOD9477364 Si02
#       8
#    16   8  16  16   8   8  16  16
#     4  10  21  38  54  71 101 138 179 212 247 298
#     4  10  24  30  46  72 110 132 162 200 256 298
#     4  10  21  36  53  69  96 139 178 212 243 297
#     4  10  19  35  51  82 101 139 163 214 254 307
#     4   8  16  30  46  74  96 138 158 202 246 312
#     4   8  16  30  53  70 108 128 169 198 256 306
#     4  10  19  31  53  73 108 128 169 203 261 303
#     4  11  20  34  47  73 102 137 163 206 249 302
#
# _framework density 19.751951999999999
#
# number of rings (size 3 to 8) (size 9 to 14) (size 15 to 20)
#    0.000    2.154    1.538    1.846    4.308    0.000 
#    2.769    0.385    0.000    0.000    0.000    0.000 
#    0.000    0.000    0.000   51.077    0.000    0.000 
#
# Total GULP energy -289747.939370 kJ/mol
# GULP energy per Si atom -5572.075757 kJ/mol
# Density = 1.970700 g / cm^3
# Si number density = 19.751952 Si / 1000 Ang^3
#
#
#
# Elastic Constant Matrix: (Units=GPa)
#
#
# Indices 1 2 3 4 5 6 
#
# 1 212.9643 19.6638 43.4575 0.0000 0.0000 0.0000
# 2 19.6638 31.5103 15.0471 0.0000 0.0000 0.0000
# 3 43.4575 15.0471 59.2769 0.0000 0.0000 0.0000
# 4 0.0000 0.0000 0.0000 25.5635 0.0000 0.0000
# 5 0.0000 0.0000 0.0000 0.0000 29.7509 0.0000
# 6 0.0000 0.0000 0.0000 0.0000 0.0000 18.2388
#
#
#
# Elastic Compliance Matrix: (Units=1/GPa)
#
#
# Indices 1 2 3 4 5 6 
#
# 1 0.005605 -0.001747 -0.003666 0.000000 0.000000 0.000000
# 2 -0.001747 0.036658 -0.008024 0.000000 0.000000 0.000000
# 3 -0.003666 -0.008024 0.021594 0.000000 0.000000 0.000000
# 4 0.000000 0.000000 0.000000 0.039118 0.000000 0.000000
# 5 0.000000 0.000000 0.000000 0.000000 0.033612 0.000000
# 6 0.000000 0.000000 0.000000 0.000000 0.000000 0.054828
#
#
# Mechanical properties :
#
#
# Convention : Reuss Voigt Hill
#
# Bulk Modulus (GPa) = 27.03979 51.12091 39.08035
# Shear Modulus (GPa) = 21.68086 29.74951 25.71518
#
# Velocity S-wave (km/s) = 3.31668 3.88513 3.61211
# Velocity P-wave (km/s) = 5.32791 6.78700 6.10123
#
# Compressibility (1/GPa) = 0.03698253
#
# Stress axis : x y z
#
# Youngs Moduli (GPa) = 178.41335 27.27925 46.30853
#
# Poissons Ratio (x) = 0.04767 0.16975
# Poissons Ratio (y) = 0.31174 0.37160
# Poissons Ratio (z) = 0.65399 0.21890
#
# Static dielectric constant tensor:
#      x y z
#    x 1.741520 0.000000 0.000000 
#    y 0.000000 1.765350 0.000000 
#    z 0.000000 0.000000 1.715110 
# 
# From -- ./inp_files/47146.got.cif
#   From: 2010.05.17/outbox.cif.g08.bks.cpg/sg64_24_cif.got.tgz:47146.got - 2010.06.03 16:29:19.
