data_PCOD9477182
_publ_section_title
;
Structure prediction by ZEFSAII (Michael W. Deem and Ramdas Pophale) SiO2 
 PCOD9477182
Probable space group: C M C A
;
_chemical_formula_sum "Si O2"
_cell_formula_units_Z 128
_cell_length_a 24.628497
_cell_length_b 25.345009
_cell_length_c 11.956013
_cell_angle_alpha 90.000000
_cell_angle_beta 90.000000
_cell_angle_gamma 90.000000
_cell_volume 7463.056635
_symmetry_space_group_name_H-M "C M C A"
_symmetry_group_IT_number 64
_symmetry_cell_setting 'orthorhombic'
loop_
_space_group_symop_operation_xyz
x,y,z
-x,1/2-y,1/2+z
x,-y,-z
-x,1/2+y,1/2-z
-x,-y,-z
x,1/2+y,1/2-z
-x,y,z
x,1/2-y,1/2+z
1/2+x,1/2+y,z
1/2-x,-y,1/2+z
1/2+x,1/2-y,-z
1/2-x,y,1/2-z
1/2-x,1/2-y,-z
1/2+x,y,1/2-z
1/2-x,1/2+y,z
1/2+x,-y,1/2+z
loop_
_atom_site_type_symbol
_atom_site_label
_atom_site_fract_x
_atom_site_fract_y
_atom_site_fract_z
Si Si1 0.385808 0.697338 0.299080
Si Si2 0.218355 0.937085 0.014402
Si Si3 0.812658 0.756939 0.026420
Si Si4 0.612230 0.294131 0.339070
Si Si5 0.192938 0.144889 0.815356
Si Si6 0.337778 0.059604 0.043156
Si Si7 0.060095 0.366083 0.986521
Si Si8 0.688239 0.891632 0.721150
O O1 0.337176 0.718300 0.379227
O O2 0.410051 0.749065 0.242260
O O3 0.429211 0.666636 0.373331
O O4 0.355177 0.655242 0.222000
O O5 0.281807 0.919246 0.011834
O O6 0.190864 0.916196 0.901383
O O7 0.193329 0.912712 0.127239
O O8 0.218217 0.000000 0.000000
O O9 0.815480 0.815057 0.080132
O O10 0.750000 0.750000 0.000000
O O11 0.846988 0.739406 0.918637
O O12 0.646392 0.337736 0.270760
O O13 0.569259 0.324394 0.414264
O O14 0.250000 0.153319 0.750000
O O15 0.390592 0.092523 0.009630
O O16 0.328041 0.068594 0.176795
O O17 0.343715 0.000000 0.000000
O O18 0.000000 0.389198 0.989591
O O19 0.750000 0.873666 0.750000
#
# Coordination Sequence:
#
# PCOD9477182 Si02
#       8
#    16  16  16  16  16  16  16  16
#     4   9  20  31  48  74 101 132 168 198 240 302
#     4  10  21  33  48  73 106 142 168 195 247 309
#     4  10  19  28  46  74 106 134 165 196 244 298
#     4  10  20  33  48  75 103 135 167 204 249 298
#     4  11  20  29  48  72 104 139 171 206 240 301
#     4   9  19  35  53  74 100 126 168 213 251 302
#     4  10  21  37  53  71  96 127 170 220 258 289
#     4   9  18  30  49  72 104 141 165 193 241 301
#
# _framework density 17.151150000000001
#
# number of rings (size 3 to 8) (size 9 to 14) (size 15 to 20)
#    0.000    2.250    1.250    1.500    7.000    4.250 
#    0.000    0.000    0.000    0.000    0.000    0.875 
#    0.000    9.500    0.000    0.000    0.000    0.000 
#
# Total GULP energy -356598.429580 kJ/mol
# GULP energy per Si atom -5571.850462 kJ/mol
# Density = 1.711211 g / cm^3
# Si number density = 17.151150 Si / 1000 Ang^3
#
#
#
# Elastic Constant Matrix: (Units=GPa)
#
#
# Indices 1 2 3 4 5 6 
#
# 1 52.7601 30.2861 21.8994 0.0000 0.0000 0.0000
# 2 30.2861 70.4712 34.8557 0.0000 0.0000 0.0000
# 3 21.8994 34.8557 65.0426 0.0000 0.0000 0.0000
# 4 0.0000 0.0000 0.0000 25.2202 0.0000 0.0000
# 5 0.0000 0.0000 0.0000 0.0000 4.0675 0.0000
# 6 0.0000 0.0000 0.0000 0.0000 0.0000 11.7225
#
#
#
# Elastic Compliance Matrix: (Units=1/GPa)
#
#
# Indices 1 2 3 4 5 6 
#
# 1 0.025811 -0.009245 -0.003736 0.000000 0.000000 0.000000
# 2 -0.009245 0.022619 -0.009009 0.000000 0.000000 0.000000
# 3 -0.003736 -0.009009 0.021460 0.000000 0.000000 0.000000
# 4 0.000000 0.000000 0.000000 0.039651 0.000000 0.000000
# 5 0.000000 0.000000 0.000000 0.000000 0.245851 0.000000
# 6 0.000000 0.000000 0.000000 0.000000 0.000000 0.085306
#
#
# Mechanical properties :
#
#
# Convention : Reuss Voigt Hill
#
# Bulk Modulus (GPa) = 38.59356 40.26180 39.42768
# Shear Modulus (GPa) = 10.13552 14.95090 12.54321
#
# Velocity S-wave (km/s) = 2.43359 2.95568 2.70725
# Velocity P-wave (km/s) = 5.51791 5.93075 5.72805
#
# Compressibility (1/GPa) = 0.02591106
#
# Stress axis : x y z
#
# Youngs Moduli (GPa) = 38.74252 44.21049 46.59792
#
# Poissons Ratio (x) = 0.40872 0.17410
# Poissons Ratio (y) = 0.35817 0.41979
# Poissons Ratio (z) = 0.14475 0.39828
#
# Static dielectric constant tensor:
#      x y z
#    x 1.556610 0.000000 0.000000 
#    y 0.000000 1.620780 0.000000 
#    z 0.000000 0.000000 1.634690 
# 
# From -- ./inp_files/18707.got.cif
#   From: 2010.05.17/outbox.cif.g08.bks.cpg/sg64_10_cif.got.tgz:18707.got - 2010.06.03 16:29:19.
