data_PCOD9477217
_publ_section_title
;
Structure prediction by ZEFSAII (Michael W. Deem and Ramdas Pophale) SiO2 
 PCOD9477217
Probable space group: C M C A
;
_chemical_formula_sum "Si O2"
_cell_formula_units_Z 72
_cell_length_a 25.213181
_cell_length_b 5.293151
_cell_length_c 29.245388
_cell_angle_alpha 90.000000
_cell_angle_beta 90.000000
_cell_angle_gamma 90.000000
_cell_volume 3903.006842
_symmetry_space_group_name_H-M "C M C A"
_symmetry_group_IT_number 64
_symmetry_cell_setting 'orthorhombic'
loop_
_space_group_symop_operation_xyz
x,y,z
-x,1/2-y,1/2+z
x,-y,-z
-x,1/2+y,1/2-z
-x,-y,-z
x,1/2+y,1/2-z
-x,y,z
x,1/2-y,1/2+z
1/2+x,1/2+y,z
1/2-x,-y,1/2+z
1/2+x,1/2-y,-z
1/2-x,y,1/2-z
1/2-x,1/2-y,-z
1/2+x,y,1/2-z
1/2-x,1/2+y,z
1/2+x,-y,1/2+z
loop_
_atom_site_type_symbol
_atom_site_label
_atom_site_fract_x
_atom_site_fract_y
_atom_site_fract_z
Si Si1 0.063767 0.805555 0.380855
Si Si2 0.131400 0.500000 0.000000
Si Si3 0.064748 0.244079 0.222904
Si Si4 0.563169 0.315301 0.063425
Si Si5 0.271801 0.301519 0.448431
O O1 0.083718 0.772654 0.329223
O O2 0.080929 0.576929 0.413835
O O3 0.000000 0.775605 0.378721
O O4 0.072172 0.084344 0.400942
O O5 0.095205 0.276457 0.980720
O O6 0.169561 0.599158 0.959247
O O7 0.080900 0.982692 0.246429
O O8 0.000000 0.245326 0.221786
O O9 0.500000 0.326607 0.053342
O O10 0.250000 0.250000 0.500000
O O11 0.237593 0.527872 0.426526
#
# Coordination Sequence:
#
# PCOD9477217 Si02
#       5
#    16   8  16  16  16
#     4   9  18  30  39  54  81 106 134 179 215 231
#     4  10  19  30  46  60  78 114 153 170 196 242
#     4   9  15  24  41  58  70  93 132 171 209 252
#     4  10  20  30  40  56  83 115 147 177 198 225
#     4   8  16  29  44  62  78  93 130 176 217 250
#
# _framework density 18.447316000000001
#
# number of rings (size 3 to 8) (size 9 to 14) (size 15 to 20)
#    0.000    3.111    0.000    1.667    0.000   13.333 
#    0.000    3.333    0.000    0.000    0.000    0.000 
#    0.000    0.000    0.000    0.000    0.000  700.000 
#
# Total GULP energy -200603.890185 kJ/mol
# GULP energy per Si atom -5572.330283 kJ/mol
# Density = 1.840533 g / cm^3
# Si number density = 18.447316 Si / 1000 Ang^3
#
#
#
# Elastic Constant Matrix: (Units=GPa)
#
#
# Indices 1 2 3 4 5 6 
#
# 1 47.5981 12.7421 10.3605 0.0000 0.0000 0.0000
# 2 12.7421 117.3913 13.2665 0.0000 0.0000 0.0000
# 3 10.3605 13.2665 53.4503 0.0000 0.0000 0.0000
# 4 0.0000 0.0000 0.0000 21.6369 0.0000 0.0000
# 5 0.0000 0.0000 0.0000 0.0000 -0.6022 0.0000
# 6 0.0000 0.0000 0.0000 0.0000 0.0000 2.2976
#
#
#
# Elastic Compliance Matrix: (Units=1/GPa)
#
#
# Indices 1 2 3 4 5 6 
#
# 1 0.022380 -0.001995 -0.003843 0.000000 0.000000 0.000000
# 2 -0.001995 0.008942 -0.001833 0.000000 0.000000 0.000000
# 3 -0.003843 -0.001833 0.019909 0.000000 0.000000 0.000000
# 4 0.000000 0.000000 0.000000 0.046217 0.000000 0.000000
# 5 0.000000 0.000000 0.000000 0.000000 -1.660487 0.000000
# 6 0.000000 0.000000 0.000000 0.000000 0.000000 0.435238
#
#
# Mechanical properties :
#
#
# Convention : Reuss Voigt Hill
#
# Bulk Modulus (GPa) = 27.86321 32.35311 30.10816
# Shear Modulus (GPa) = -4.54340 16.80449 6.13054
#
# Velocity S-wave (km/s) = -1.57107 3.02146 1.82496
# Velocity P-wave (km/s) = 3.44180 5.45422 4.56040
#
# Compressibility (1/GPa) = 0.03588962
#
# Stress axis : x y z
#
# Youngs Moduli (GPa) = 44.68327 111.82951 50.22919
#
# Poissons Ratio (x) = 0.22309 0.19302
# Poissons Ratio (y) = 0.08914 0.09206
# Poissons Ratio (z) = 0.17171 0.20496
#
# Static dielectric constant tensor:
#      x y z
#    x 1.658820 0.000000 0.000000 
#    y 0.000000 2.059860 0.000000 
#    z 0.000000 0.000000 1.856640 
# 
# From -- ./inp_files/46816.got.cif
#   From: 2010.05.17/outbox.cif.g08.bks.cpg/sg64_24_cif.got.tgz:46816.got - 2010.06.03 16:29:19.
