data_PCOD9477773
_publ_section_title
;
Structure prediction by ZEFSAII (Michael W. Deem and Ramdas Pophale) SiO2 
 PCOD9477773
Probable space group: C M C A
;
_chemical_formula_sum "Si O2"
_cell_formula_units_Z 116
_cell_length_a 7.861441
_cell_length_b 23.856894
_cell_length_c 26.945188
_cell_angle_alpha 90.000000
_cell_angle_beta 90.000000
_cell_angle_gamma 90.000000
_cell_volume 5053.558278
_symmetry_space_group_name_H-M "C M C A"
_symmetry_group_IT_number 64
_symmetry_cell_setting 'orthorhombic'
loop_
_space_group_symop_operation_xyz
x,y,z
-x,1/2-y,1/2+z
x,-y,-z
-x,1/2+y,1/2-z
-x,-y,-z
x,1/2+y,1/2-z
-x,y,z
x,1/2-y,1/2+z
1/2+x,1/2+y,z
1/2-x,-y,1/2+z
1/2+x,1/2-y,-z
1/2-x,y,1/2-z
1/2-x,1/2-y,-z
1/2+x,y,1/2-z
1/2-x,1/2+y,z
1/2+x,-y,1/2+z
loop_
_atom_site_type_symbol
_atom_site_label
_atom_site_fract_x
_atom_site_fract_y
_atom_site_fract_z
Si Si1 0.698037 0.182974 0.545877
Si Si2 0.202439 0.892514 0.361571
Si Si3 0.304677 0.410981 0.878355
Si Si4 0.500000 0.000000 0.000000
Si Si5 0.706772 0.920249 0.510279
Si Si6 0.300530 0.282779 0.305514
Si Si7 0.805983 0.999423 0.306838
Si Si8 0.195708 0.786858 0.602243
O O1 0.500000 0.195108 0.539502
O O2 0.716425 0.138275 0.591028
O O3 0.750377 0.145246 0.499354
O O4 0.775396 0.242434 0.562608
O O5 0.227071 0.848440 0.316638
O O6 0.000000 0.895100 0.372448
O O7 0.273893 0.952028 0.343033
O O8 0.500000 0.424836 0.869474
O O9 0.254373 0.434108 0.932339
O O10 0.206636 0.440990 0.834245
O O11 0.286655 0.344613 0.884984
O O12 0.654035 0.043402 0.981655
O O13 0.500000 0.927991 0.501630
O O14 0.500000 0.271192 0.313543
O O15 0.250000 0.268358 0.250000
O O16 0.199472 0.248717 0.346851
O O17 0.750000 0.001721 0.250000
O O18 0.000000 0.981462 0.304348
O O19 0.000000 0.800112 0.589602
#
# Coordination Sequence:
#
# PCOD9477773 Si02
#       8
#    16  16  16   4  16  16  16  16
#     4   9  20  39  62  93 128 162 204 259 315 366
#     4   9  20  35  58  89 123 159 202 251 305 378
#     4  11  25  44  63  88 126 165 207 261 316 370
#     4  12  26  40  72  98 136 176 214 260 314 382
#     4  10  25  44  65 100 136 171 215 260 314 379
#     4  10  19  34  56  86 120 155 200 255 313 370
#     4  11  24  41  62  88 121 161 210 256 312 383
#     4  10  21  39  63  88 118 159 208 260 314 376
#
# _framework density 22.954122000000002
#
# number of rings (size 3 to 8) (size 9 to 14) (size 15 to 20)
#    0.000    1.931    0.000    2.276    4.828    3.310 
#    0.000    2.759    0.000    0.000    0.000    0.000 
#    0.000    0.000    0.000    0.000    0.000    0.000 
#
# Total GULP energy -323199.442692 kJ/mol
# GULP energy per Si atom -5572.404184 kJ/mol
# Density = 2.290188 g / cm^3
# Si number density = 22.954122 Si / 1000 Ang^3
#
#
#
# Elastic Constant Matrix: (Units=GPa)
#
#
# Indices 1 2 3 4 5 6 
#
# 1 49.9494 15.2240 16.3295 0.0000 0.0000 0.0000
# 2 15.2240 118.0297 15.8897 0.0000 0.0000 0.0000
# 3 16.3295 15.8897 60.0245 0.0000 0.0000 0.0000
# 4 0.0000 0.0000 0.0000 19.8051 0.0000 0.0000
# 5 0.0000 0.0000 0.0000 0.0000 12.4024 0.0000
# 6 0.0000 0.0000 0.0000 0.0000 0.0000 69.9348
#
#
#
# Elastic Compliance Matrix: (Units=1/GPa)
#
#
# Indices 1 2 3 4 5 6 
#
# 1 0.022491 -0.002154 -0.005548 0.000000 0.000000 0.000000
# 2 -0.002154 0.008992 -0.001794 0.000000 0.000000 0.000000
# 3 -0.005548 -0.001794 0.018644 0.000000 0.000000 0.000000
# 4 0.000000 0.000000 0.000000 0.050492 0.000000 0.000000
# 5 0.000000 0.000000 0.000000 0.000000 0.080630 0.000000
# 6 0.000000 0.000000 0.000000 0.000000 0.000000 0.014299
#
#
# Mechanical properties :
#
#
# Convention : Reuss Voigt Hill
#
# Bulk Modulus (GPa) = 32.11978 35.87667 33.99823
# Shear Modulus (GPa) = 22.23026 32.46580 27.34803
#
# Velocity S-wave (km/s) = 3.11539 3.76490 3.45544
# Velocity P-wave (km/s) = 5.19272 5.87903 5.54650
#
# Compressibility (1/GPa) = 0.03113346
#
# Stress axis : x y z
#
# Youngs Moduli (GPa) = 44.46293 111.21196 53.63582
#
# Poissons Ratio (x) = 0.23955 0.29759
# Poissons Ratio (y) = 0.09577 0.09624
# Poissons Ratio (z) = 0.24669 0.19955
#
# Static dielectric constant tensor:
#      x y z
#    x 1.836750 0.000000 0.000000 
#    y 0.000000 1.909550 0.000000 
#    z 0.000000 0.000000 1.921770 
# 
# From -- ./inp_files/48548.got.cif
#   From: 2010.05.17/outbox.cif.g08.bks.cpg/sg64_25_cif.got.tgz:48548.got - 2010.06.03 16:29:19.
