data_PCOD9477271
_publ_section_title
;
Structure prediction by ZEFSAII (Michael W. Deem and Ramdas Pophale) SiO2 
 PCOD9477271
Probable space group: C M C A
;
_chemical_formula_sum "Si O2"
_cell_formula_units_Z 88
_cell_length_a 34.978979
_cell_length_b 27.915955
_cell_length_c 5.234218
_cell_angle_alpha 90.000000
_cell_angle_beta 90.000000
_cell_angle_gamma 90.000000
_cell_volume 5111.065245
_symmetry_space_group_name_H-M "C M C A"
_symmetry_group_IT_number 64
_symmetry_cell_setting 'orthorhombic'
loop_
_space_group_symop_operation_xyz
x,y,z
-x,1/2-y,1/2+z
x,-y,-z
-x,1/2+y,1/2-z
-x,-y,-z
x,1/2+y,1/2-z
-x,y,z
x,1/2-y,1/2+z
1/2+x,1/2+y,z
1/2-x,-y,1/2+z
1/2+x,1/2-y,-z
1/2-x,y,1/2-z
1/2-x,1/2-y,-z
1/2+x,y,1/2-z
1/2-x,1/2+y,z
1/2+x,-y,1/2+z
loop_
_atom_site_type_symbol
_atom_site_label
_atom_site_fract_x
_atom_site_fract_y
_atom_site_fract_z
Si Si1 0.043691 0.717352 0.885783
Si Si2 0.859134 0.906764 0.936193
Si Si3 0.957639 0.550549 0.858802
Si Si4 0.599442 0.371205 0.456868
Si Si5 0.599643 0.500000 0.000000
Si Si6 0.724706 0.442906 0.999357
O O1 0.047049 0.745116 0.618084
O O2 0.076606 0.677850 0.913293
O O3 0.000000 0.697097 0.898744
O O4 0.872473 0.874076 0.699390
O O5 0.814206 0.912889 0.984246
O O6 0.873289 0.961268 0.862442
O O7 0.878284 0.887456 0.199266
O O8 0.934736 0.590532 0.012151
O O9 0.929469 0.536031 0.634530
O O10 0.000000 0.566357 0.781767
O O11 0.960991 0.500000 0.000000
O O12 0.750000 0.433595 0.750000
O O13 0.715465 0.500000 0.000000
O O14 0.750000 0.433037 0.250000
#
# Coordination Sequence:
#
# PCOD9477271 Si02
#       6
#    16  16  16  16   8  16
#     4  10  21  39  60  81 109 144 186 238 287 329
#     4  11  21  34  53  76 112 140 184 220 269 319
#     4  10  19  31  45  67 103 146 187 218 251 303
#     4  11  22  35  54  81 106 144 183 228 278 323
#     4  10  19  32  44  68 102 150 180 224 256 302
#     4  10  20  34  52  76 106 150 191 222 260 320
#
# _framework density 17.217544
#
# number of rings (size 3 to 8) (size 9 to 14) (size 15 to 20)
#    0.000    1.636    2.727    3.000    0.000    0.000 
#    0.000    1.818    0.000    0.000    0.000    0.000 
#    0.000   50.909    0.000    0.000    0.000    0.000 
#
# Total GULP energy -245047.483362 kJ/mol
# GULP energy per Si atom -5569.260986 kJ/mol
# Density = 1.717836 g / cm^3
# Si number density = 17.217544 Si / 1000 Ang^3
#
#
#
# Elastic Constant Matrix: (Units=GPa)
#
#
# Indices 1 2 3 4 5 6 
#
# 1 143.7270 40.6678 45.2308 0.0000 0.0000 0.0000
# 2 40.6678 43.3542 9.3029 0.0000 0.0000 0.0000
# 3 45.2308 9.3029 87.4649 0.0000 0.0000 0.0000
# 4 0.0000 0.0000 0.0000 14.1165 0.0000 0.0000
# 5 0.0000 0.0000 0.0000 0.0000 20.1094 0.0000
# 6 0.0000 0.0000 0.0000 0.0000 0.0000 25.6918
#
#
#
# Elastic Compliance Matrix: (Units=1/GPa)
#
#
# Indices 1 2 3 4 5 6 
#
# 1 0.011113 -0.009406 -0.004746 0.000000 0.000000 0.000000
# 2 -0.009406 0.031565 0.001507 0.000000 0.000000 0.000000
# 3 -0.004746 0.001507 0.013727 0.000000 0.000000 0.000000
# 4 0.000000 0.000000 0.000000 0.070839 0.000000 0.000000
# 5 0.000000 0.000000 0.000000 0.000000 0.049728 0.000000
# 6 0.000000 0.000000 0.000000 0.000000 0.000000 0.038923
#
#
# Mechanical properties :
#
#
# Convention : Reuss Voigt Hill
#
# Bulk Modulus (GPa) = 32.13909 51.66100 41.90005
# Shear Modulus (GPa) = 19.87616 23.93984 21.90800
#
# Velocity S-wave (km/s) = 3.40135 3.73290 3.57097
# Velocity P-wave (km/s) = 5.84231 6.97491 6.43358
#
# Compressibility (1/GPa) = 0.03111476
#
# Stress axis : x y z
#
# Youngs Moduli (GPa) = 89.98771 31.68029 72.84724
#
# Poissons Ratio (x) = 0.29797 0.34575
# Poissons Ratio (y) = 0.84639 -0.10975
# Poissons Ratio (z) = 0.42711 -0.04773
#
# Static dielectric constant tensor:
#      x y z
#    x 1.614530 0.000000 0.000000 
#    y 0.000000 1.590510 0.000000 
#    z 0.000000 0.000000 1.595030 
# 
# From -- ./inp_files/3317.got.cif
#   From: 2010.05.17/outbox.cif.g08.bks.cpg/sg64_2_cif.got.tgz:3317.got - 2010.06.03 16:29:19.
