data_PCOD9477982
_publ_section_title
;
Structure prediction by ZEFSAII (Michael W. Deem and Ramdas Pophale) SiO2 
 PCOD9477982
Probable space group: C M C A
;
_chemical_formula_sum "Si O2"
_cell_formula_units_Z 96
_cell_length_a 7.924470
_cell_length_b 24.211989
_cell_length_c 26.360412
_cell_angle_alpha 90.000000
_cell_angle_beta 90.000000
_cell_angle_gamma 90.000000
_cell_volume 5057.697926
_symmetry_space_group_name_H-M "C M C A"
_symmetry_group_IT_number 64
_symmetry_cell_setting 'orthorhombic'
loop_
_space_group_symop_operation_xyz
x,y,z
-x,1/2-y,1/2+z
x,-y,-z
-x,1/2+y,1/2-z
-x,-y,-z
x,1/2+y,1/2-z
-x,y,z
x,1/2-y,1/2+z
1/2+x,1/2+y,z
1/2-x,-y,1/2+z
1/2+x,1/2-y,-z
1/2-x,y,1/2-z
1/2-x,1/2-y,-z
1/2+x,y,1/2-z
1/2-x,1/2+y,z
1/2+x,-y,1/2+z
loop_
_atom_site_type_symbol
_atom_site_label
_atom_site_fract_x
_atom_site_fract_y
_atom_site_fract_z
Si Si1 0.298155 0.813955 0.997432
Si Si2 0.206528 0.118527 0.597553
Si Si3 0.198432 0.614675 0.401063
Si Si4 0.799495 0.997425 0.442503
Si Si5 0.203586 0.814640 0.807114
Si Si6 0.203333 0.188316 0.692979
O O1 0.500000 0.818879 0.994167
O O2 0.224130 0.844255 0.948403
O O3 0.250000 0.750000 0.000000
O O4 0.243921 0.845243 0.048679
O O5 0.265604 0.147591 0.649105
O O6 0.000000 0.118678 0.599350
O O7 0.265315 0.055991 0.587716
O O8 0.273913 0.555500 0.415068
O O9 0.267529 0.644445 0.350658
O O10 0.000000 0.605870 0.393793
O O11 0.000000 0.988450 0.447621
O O12 0.729348 0.000000 0.500000
O O13 0.250000 0.831242 0.750000
O O14 0.264549 0.751467 0.815024
O O15 0.000000 0.813241 0.810832
O O16 0.250000 0.171474 0.750000
O O17 0.000000 0.189877 0.689984
#
# Coordination Sequence:
#
# PCOD9477982 Si02
#       6
#    16  16  16  16  16  16
#     4  11  21  35  54  80 110 142 178 222 272 331
#     4   9  18  34  55  75 104 142 178 215 265 320
#     4  11  22  36  54  81 112 142 178 228 281 326
#     4  10  19  36  57  77 103 146 192 221 258 326
#     4   9  19  35  55  78 107 140 179 222 272 328
#     4   9  17  33  55  77 102 136 173 216 267 320
#
# _framework density 18.980967
#
# number of rings (size 3 to 8) (size 9 to 14) (size 15 to 20)
#    0.000    2.167    1.667    2.000    0.000    4.333 
#    0.000    6.667    0.000    4.000    0.000    0.000 
#    0.000    0.000    0.000    0.000    0.000    0.000 
#
# Total GULP energy -267935.707094 kJ/mol
# GULP energy per Si atom -5581.993898 kJ/mol
# Density = 1.893777 g / cm^3
# Si number density = 18.980967 Si / 1000 Ang^3
#
#
#
# Elastic Constant Matrix: (Units=GPa)
#
#
# Indices 1 2 3 4 5 6 
#
# 1 10.4388 -10.3341 -5.6817 0.0000 0.0000 0.0000
# 2 -10.3341 153.0936 103.7686 0.0000 0.0000 0.0000
# 3 -5.6817 103.7686 175.2388 0.0000 0.0000 0.0000
# 4 0.0000 0.0000 0.0000 20.9942 0.0000 0.0000
# 5 0.0000 0.0000 0.0000 0.0000 22.7181 0.0000
# 6 0.0000 0.0000 0.0000 0.0000 0.0000 16.1824
#
#
#
# Elastic Compliance Matrix: (Units=1/GPa)
#
#
# Indices 1 2 3 4 5 6 
#
# 1 0.102832 0.007820 -0.001297 0.000000 0.000000 0.000000
# 2 0.007820 0.011506 -0.006560 0.000000 0.000000 0.000000
# 3 -0.001297 -0.006560 0.009549 0.000000 0.000000 0.000000
# 4 0.000000 0.000000 0.000000 0.047632 0.000000 0.000000
# 5 0.000000 0.000000 0.000000 0.000000 0.044018 0.000000
# 6 0.000000 0.000000 0.000000 0.000000 0.000000 0.061796
#
#
# Mechanical properties :
#
#
# Convention : Reuss Voigt Hill
#
# Bulk Modulus (GPa) = 8.07661 57.14189 32.60925
# Shear Modulus (GPa) = 15.68986 28.71348 22.20167
#
# Velocity S-wave (km/s) = 2.87820 3.89363 3.42377
# Velocity P-wave (km/s) = 3.91277 7.09817 5.73122
#
# Compressibility (1/GPa) = 0.12381436
#
# Stress axis : x y z
#
# Youngs Moduli (GPa) = 9.72460 86.90950 104.72355
#
# Poissons Ratio (x) = -0.67966 0.13580
# Poissons Ratio (y) = -0.07605 0.68698
# Poissons Ratio (z) = 0.01261 0.57012
#
# Static dielectric constant tensor:
#      x y z
#    x 1.716230 0.000000 0.000000 
#    y 0.000000 1.632880 0.000000 
#    z 0.000000 0.000000 1.643160 
# 
# From -- ./inp_files/43000.got.cif
#   From: 2010.05.17/outbox.cif.g08.bks.cpg/sg64_22_cif.got.tgz:43000.got - 2010.06.03 16:29:19.
