data_PCOD9477604
_publ_section_title
;
Structure prediction by ZEFSAII (Michael W. Deem and Ramdas Pophale) SiO2 
 PCOD9477604
Probable space group: C M C A
;
_chemical_formula_sum "Si O2"
_cell_formula_units_Z 80
_cell_length_a 16.465094
_cell_length_b 29.236295
_cell_length_c 7.221605
_cell_angle_alpha 90.000000
_cell_angle_beta 90.000000
_cell_angle_gamma 90.000000
_cell_volume 3476.324266
_symmetry_space_group_name_H-M "C M C A"
_symmetry_group_IT_number 64
_symmetry_cell_setting 'orthorhombic'
loop_
_space_group_symop_operation_xyz
x,y,z
-x,1/2-y,1/2+z
x,-y,-z
-x,1/2+y,1/2-z
-x,-y,-z
x,1/2+y,1/2-z
-x,y,z
x,1/2-y,1/2+z
1/2+x,1/2+y,z
1/2-x,-y,1/2+z
1/2+x,1/2-y,-z
1/2-x,y,1/2-z
1/2-x,1/2-y,-z
1/2+x,y,1/2-z
1/2-x,1/2+y,z
1/2+x,-y,1/2+z
loop_
_atom_site_type_symbol
_atom_site_label
_atom_site_fract_x
_atom_site_fract_y
_atom_site_fract_z
Si Si1 0.092079 0.050639 0.460620
Si Si2 0.844533 0.350185 0.962710
Si Si3 0.000000 0.295503 0.916552
Si Si4 0.332451 0.855377 0.511589
Si Si5 0.500000 0.188592 0.520680
Si Si6 0.174129 0.952961 0.893515
O O1 0.134781 0.097595 0.522002
O O2 0.095985 0.051902 0.237762
O O3 0.000000 0.051261 0.530526
O O4 0.127806 0.000000 0.500000
O O5 0.919087 0.316837 0.005714
O O6 0.756195 0.335238 0.034592
O O7 0.838701 0.351581 0.736984
O O8 0.000000 0.311082 0.703293
O O9 0.000000 0.241111 0.919104
O O10 0.414520 0.835019 0.427891
O O11 0.325550 0.909404 0.474394
O O12 0.250000 0.949795 0.750000
O O13 0.175359 0.000000 0.000000
#
# Coordination Sequence:
#
# PCOD9477604 Si02
#       6
#    16  16   8  16   8  16
#     4  10  19  33  54  83 117 152 193 228 279 348
#     4   9  16  32  57  82 102 148 189 221 267 346
#     4  10  20  36  59  80 106 134 185 238 283 332
#     4   9  18  34  56  79 107 147 188 218 271 347
#     4  10  22  38  59  80 106 142 185 240 287 334
#     4  11  21  34  56  83 116 151 195 232 276 336
#
# _framework density 23.012813000000001
#
# number of rings (size 3 to 8) (size 9 to 14) (size 15 to 20)
#    0.000    2.200    5.000    0.600    4.200    1.200 
#    0.000    2.000    0.000    0.000    0.000    0.000 
#    0.000    0.000    0.000    0.000    0.000    0.000 
#
# Total GULP energy -223252.416924 kJ/mol
# GULP energy per Si atom -5581.310423 kJ/mol
# Density = 2.296043 g / cm^3
# Si number density = 23.012813 Si / 1000 Ang^3
#
#
#
# Elastic Constant Matrix: (Units=GPa)
#
#
# Indices 1 2 3 4 5 6 
#
# 1 199.9743 99.9662 -0.2135 0.0000 0.0000 0.0000
# 2 99.9662 150.0356 -2.4498 0.0000 0.0000 0.0000
# 3 -0.2135 -2.4498 54.2434 0.0000 0.0000 0.0000
# 4 0.0000 0.0000 0.0000 24.0374 0.0000 0.0000
# 5 0.0000 0.0000 0.0000 0.0000 -10.3414 0.0000
# 6 0.0000 0.0000 0.0000 0.0000 0.0000 11.1345
#
#
#
# Elastic Compliance Matrix: (Units=1/GPa)
#
#
# Indices 1 2 3 4 5 6 
#
# 1 0.007500 -0.005000 -0.000196 0.000000 0.000000 0.000000
# 2 -0.005000 0.010004 0.000432 0.000000 0.000000 0.000000
# 3 -0.000196 0.000432 0.018454 0.000000 0.000000 0.000000
# 4 0.000000 0.000000 0.000000 0.041602 0.000000 0.000000
# 5 0.000000 0.000000 0.000000 0.000000 -0.096698 0.000000
# 6 0.000000 0.000000 0.000000 0.000000 0.000000 0.089811
#
#
# Mechanical properties :
#
#
# Convention : Reuss Voigt Hill
#
# Bulk Modulus (GPa) = 37.83734 66.53989 52.18862
# Shear Modulus (GPa) = 56.17260 25.42945 40.80102
#
# Velocity S-wave (km/s) = 4.94593 3.32778 4.21523
# Velocity P-wave (km/s) = 7.00670 6.61381 6.81309
#
# Compressibility (1/GPa) = 0.02642892
#
# Stress axis : x y z
#
# Youngs Moduli (GPa) = 133.33137 99.96176 54.18827
#
# Poissons Ratio (x) = 0.49985 0.01064
# Poissons Ratio (y) = 0.66671 -0.02342
# Poissons Ratio (z) = 0.02617 -0.04320
#
# Static dielectric constant tensor:
#      x y z
#    x 1.928640 0.000000 0.000000 
#    y 0.000000 1.841870 0.000000 
#    z 0.000000 0.000000 1.896720 
# 
# From -- ./inp_files/7207.got.cif
#   From: 2010.05.17/outbox.cif.g08.bks.cpg/sg64_4_cif.got.tgz:7207.got - 2010.06.03 16:29:19.
