data_PCOD9477520
_publ_section_title
;
Structure prediction by ZEFSAII (Michael W. Deem and Ramdas Pophale) SiO2 
 PCOD9477520
Probable space group: C M C A
;
_chemical_formula_sum "Si O2"
_cell_formula_units_Z 92
_cell_length_a 25.082738
_cell_length_b 17.632080
_cell_length_c 8.692370
_cell_angle_alpha 90.000000
_cell_angle_beta 90.000000
_cell_angle_gamma 90.000000
_cell_volume 3844.294884
_symmetry_space_group_name_H-M "C M C A"
_symmetry_group_IT_number 64
_symmetry_cell_setting 'orthorhombic'
loop_
_space_group_symop_operation_xyz
x,y,z
-x,1/2-y,1/2+z
x,-y,-z
-x,1/2+y,1/2-z
-x,-y,-z
x,1/2+y,1/2-z
-x,y,z
x,1/2-y,1/2+z
1/2+x,1/2+y,z
1/2-x,-y,1/2+z
1/2+x,1/2-y,-z
1/2-x,y,1/2-z
1/2-x,1/2-y,-z
1/2+x,y,1/2-z
1/2-x,1/2+y,z
1/2+x,-y,1/2+z
loop_
_atom_site_type_symbol
_atom_site_label
_atom_site_fract_x
_atom_site_fract_y
_atom_site_fract_z
Si Si1 0.106927 0.713633 0.996023
Si Si2 0.901963 0.074895 0.301261
Si Si3 0.000000 0.245581 0.667302
Si Si4 0.000000 0.138837 0.928243
Si Si5 0.500000 0.000000 0.000000
Si Si6 0.387363 0.893237 0.451419
Si Si7 0.697031 0.131129 0.798934
Si Si8 0.689756 0.500000 0.500000
O O1 0.052977 0.706413 0.898046
O O2 0.115456 0.801847 0.026141
O O3 0.155663 0.680042 0.898408
O O4 0.098458 0.663798 0.148920
O O5 0.952581 0.035630 0.383677
O O6 0.892053 0.069215 0.118882
O O7 0.849791 0.041157 0.382158
O O8 0.000000 0.332803 0.606936
O O9 0.000000 0.220779 0.843969
O O10 0.053133 0.095193 0.883605
O O11 0.338902 0.905783 0.336074
O O12 0.750000 0.175767 0.750000
O O13 0.719851 0.064322 0.907230
#
# Coordination Sequence:
#
# PCOD9477520 Si02
#       8
#    16  16   8   8   4  16  16   8
#     4  10  21  39  63  96 136 168 204 263 343 409
#     4  10  21  38  64  89 128 173 214 268 329 392
#     4  10  19  32  57  86 133 170 199 238 300 392
#     4  10  21  32  55  94 127 165 201 243 301 388
#     4  10  20  40  60  94 134 184 222 260 332 384
#     4  11  22  38  65 101 131 166 220 270 329 406
#     4  11  24  43  67  92 127 171 222 283 334 391
#     4   9  24  45  60  82 116 173 224 267 334 384
#
# _framework density 23.931566
#
# number of rings (size 3 to 8) (size 9 to 14) (size 15 to 20)
#    0.000    1.739    1.739    2.087    7.304    2.783 
#    0.000    2.609    0.000    4.174    0.000    0.000 
#    0.000    0.000    0.000    0.000    0.000    0.000 
#
# Total GULP energy -256622.826334 kJ/mol
# GULP energy per Si atom -5578.757094 kJ/mol
# Density = 2.387710 g / cm^3
# Si number density = 23.931566 Si / 1000 Ang^3
#
#
#
# Elastic Constant Matrix: (Units=GPa)
#
#
# Indices 1 2 3 4 5 6 
#
# 1 146.5050 5.7984 31.7057 0.0000 0.0000 0.0000
# 2 5.7984 65.7672 26.4731 0.0000 0.0000 0.0000
# 3 31.7057 26.4731 109.6768 0.0000 0.0000 0.0000
# 4 0.0000 0.0000 0.0000 38.6082 0.0000 0.0000
# 5 0.0000 0.0000 0.0000 0.0000 18.2762 0.0000
# 6 0.0000 0.0000 0.0000 0.0000 0.0000 13.5693
#
#
#
# Elastic Compliance Matrix: (Units=1/GPa)
#
#
# Indices 1 2 3 4 5 6 
#
# 1 0.007284 0.000228 -0.002161 0.000000 0.000000 0.000000
# 2 0.000228 0.016849 -0.004133 0.000000 0.000000 0.000000
# 3 -0.002161 -0.004133 0.010740 0.000000 0.000000 0.000000
# 4 0.000000 0.000000 0.000000 0.025901 0.000000 0.000000
# 5 0.000000 0.000000 0.000000 0.000000 0.054716 0.000000
# 6 0.000000 0.000000 0.000000 0.000000 0.000000 0.073696
#
#
# Mechanical properties :
#
#
# Convention : Reuss Voigt Hill
#
# Bulk Modulus (GPa) = 43.97309 49.98927 46.98118
# Shear Modulus (GPa) = 23.93517 31.28887 27.61202
#
# Velocity S-wave (km/s) = 3.16595 3.61976 3.40043
# Velocity P-wave (km/s) = 5.63726 6.19710 5.92380
#
# Compressibility (1/GPa) = 0.02274118
#
# Stress axis : x y z
#
# Youngs Moduli (GPa) = 137.28151 59.35225 93.11149
#
# Poissons Ratio (x) = -0.01350 0.20118
# Poissons Ratio (y) = -0.03123 0.38479
# Poissons Ratio (z) = 0.29662 0.24528
#
# Static dielectric constant tensor:
#      x y z
#    x 1.858640 0.000000 0.000000 
#    y 0.000000 1.967540 0.000000 
#    z 0.000000 0.000000 1.968070 
# 
# From -- ./inp_files/9420.got.cif
#   From: 2010.05.17/outbox.cif.g08.bks.cpg/sg64_5_cif.got.tgz:9420.got - 2010.06.03 16:29:19.
