data_PCOD9477482
_publ_section_title
;
Structure prediction by ZEFSAII (Michael W. Deem and Ramdas Pophale) SiO2 
 PCOD9477482
Probable space group: C M C A
;
_chemical_formula_sum "Si O2"
_cell_formula_units_Z 112
_cell_length_a 18.474025
_cell_length_b 13.286671
_cell_length_c 24.244002
_cell_angle_alpha 90.000000
_cell_angle_beta 90.000000
_cell_angle_gamma 90.000000
_cell_volume 5950.891328
_symmetry_space_group_name_H-M "C M C A"
_symmetry_group_IT_number 64
_symmetry_cell_setting 'orthorhombic'
loop_
_space_group_symop_operation_xyz
x,y,z
-x,1/2-y,1/2+z
x,-y,-z
-x,1/2+y,1/2-z
-x,-y,-z
x,1/2+y,1/2-z
-x,y,z
x,1/2-y,1/2+z
1/2+x,1/2+y,z
1/2-x,-y,1/2+z
1/2+x,1/2-y,-z
1/2-x,y,1/2-z
1/2-x,1/2-y,-z
1/2+x,y,1/2-z
1/2-x,1/2+y,z
1/2+x,-y,1/2+z
loop_
_atom_site_type_symbol
_atom_site_label
_atom_site_fract_x
_atom_site_fract_y
_atom_site_fract_z
Si Si1 0.199772 0.850147 0.103839
Si Si2 0.312167 0.441731 0.949666
Si Si3 0.660896 0.165384 0.030308
Si Si4 0.585782 0.076559 0.137267
Si Si5 0.916899 0.127205 0.688569
Si Si6 0.086607 0.787906 0.193970
Si Si7 0.642573 0.766410 0.090298
O O1 0.169398 0.778576 0.054395
O O2 0.140475 0.841886 0.151624
O O3 0.278155 0.799659 0.113401
O O4 0.209140 0.966868 0.089971
O O5 0.239179 0.387871 0.971875
O O6 0.356143 0.352032 0.922084
O O7 0.350080 0.500000 0.000000
O O8 0.618129 0.104890 0.077504
O O9 0.631890 0.175799 0.968136
O O10 0.500000 0.063440 0.128691
O O11 0.596263 0.170373 0.178623
O O12 0.617174 0.976342 0.165627
O O13 0.890609 0.179170 0.744608
O O14 0.912231 0.202488 0.637329
O O15 0.000000 0.101826 0.700997
O O16 0.000000 0.808664 0.185656
#
# Coordination Sequence:
#
# PCOD9477482 Si02
#       7
#    16  16  16  16  16  16  16
#     4  10  19  34  56  81 106 143 182 220 264 321
#     4  11  18  32  54  81 108 143 176 214 265 326
#     4  10  19  32  53  81 111 144 175 216 273 325
#     4   9  19  35  57  79 103 140 184 224 268 325
#     4  10  22  38  55  79 110 142 180 228 273 313
#     4   9  20  39  58  76 105 144 184 223 269 324
#     4  11  21  33  54  84 113 142 179 225 267 319
#
# _framework density 18.820709999999998
#
# number of rings (size 3 to 8) (size 9 to 14) (size 15 to 20)
#    0.000    2.000    2.857    1.714    0.000    2.286 
#    0.000    3.571    0.000    6.000    0.000    0.000 
#    0.000    0.000    0.000    0.000    0.000    0.000 
#
# Total GULP energy -311976.158937 kJ/mol
# GULP energy per Si atom -5571.002838 kJ/mol
# Density = 1.877787 g / cm^3
# Si number density = 18.820710 Si / 1000 Ang^3
#
#
#
# Elastic Constant Matrix: (Units=GPa)
#
#
# Indices 1 2 3 4 5 6 
#
# 1 20.8952 13.8627 34.7004 0.0000 0.0000 0.0000
# 2 13.8627 118.9269 54.5611 0.0000 0.0000 0.0000
# 3 34.7004 54.5611 132.6617 0.0000 0.0000 0.0000
# 4 0.0000 0.0000 0.0000 21.6396 0.0000 0.0000
# 5 0.0000 0.0000 0.0000 0.0000 26.3149 0.0000
# 6 0.0000 0.0000 0.0000 0.0000 0.0000 17.8399
#
#
#
# Elastic Compliance Matrix: (Units=1/GPa)
#
#
# Indices 1 2 3 4 5 6 
#
# 1 0.084625 0.000359 -0.022283 0.000000 0.000000 0.000000
# 2 0.000359 0.010366 -0.004357 0.000000 0.000000 0.000000
# 3 -0.022283 -0.004357 0.015158 0.000000 0.000000 0.000000
# 4 0.000000 0.000000 0.000000 0.046212 0.000000 0.000000
# 5 0.000000 0.000000 0.000000 0.000000 0.038001 0.000000
# 6 0.000000 0.000000 0.000000 0.000000 0.000000 0.056054
#
#
# Mechanical properties :
#
#
# Convention : Reuss Voigt Hill
#
# Bulk Modulus (GPa) = 17.36518 53.19247 35.27883
# Shear Modulus (GPa) = 15.51957 24.44952 19.98455
#
# Velocity S-wave (km/s) = 2.87470 3.60818 3.26212
# Velocity P-wave (km/s) = 4.50169 6.75890 5.74230
#
# Compressibility (1/GPa) = 0.05758650
#
# Stress axis : x y z
#
# Youngs Moduli (GPa) = 11.81686 96.47285 65.96988
#
# Poissons Ratio (x) = -0.03460 1.47000
# Poissons Ratio (y) = -0.00424 0.28743
# Poissons Ratio (z) = 0.26331 0.42033
#
# Static dielectric constant tensor:
#      x y z
#    x 1.657310 0.000000 0.000000 
#    y 0.000000 1.678550 0.000000 
#    z 0.000000 0.000000 1.673900 
# 
# From -- ./inp_files/46329.got.cif
#   From: 2010.05.17/outbox.cif.g08.bks.cpg/sg64_24_cif.got.tgz:46329.got - 2010.06.03 16:29:19.
