data_PCOD9477544
_publ_section_title
;
Structure prediction by ZEFSAII (Michael W. Deem and Ramdas Pophale) SiO2 
 PCOD9477544
Probable space group: C M C A
;
_chemical_formula_sum "Si O2"
_cell_formula_units_Z 96
_cell_length_a 14.272801
_cell_length_b 20.082629
_cell_length_c 12.720363
_cell_angle_alpha 90.000000
_cell_angle_beta 90.000000
_cell_angle_gamma 90.000000
_cell_volume 3646.105920
_symmetry_space_group_name_H-M "C M C A"
_symmetry_group_IT_number 64
_symmetry_cell_setting 'orthorhombic'
loop_
_space_group_symop_operation_xyz
x,y,z
-x,1/2-y,1/2+z
x,-y,-z
-x,1/2+y,1/2-z
-x,-y,-z
x,1/2+y,1/2-z
-x,y,z
x,1/2-y,1/2+z
1/2+x,1/2+y,z
1/2-x,-y,1/2+z
1/2+x,1/2-y,-z
1/2-x,y,1/2-z
1/2-x,1/2-y,-z
1/2+x,y,1/2-z
1/2-x,1/2+y,z
1/2+x,-y,1/2+z
loop_
_atom_site_type_symbol
_atom_site_label
_atom_site_fract_x
_atom_site_fract_y
_atom_site_fract_z
Si Si1 0.603854 0.158179 0.604194
Si Si2 0.893720 0.342881 0.040150
Si Si3 0.860488 0.944723 0.270206
Si Si4 0.886462 0.752634 0.786840
Si Si5 0.302966 0.551977 0.403573
Si Si6 0.612060 0.890536 0.627222
O O1 0.500000 0.185344 0.587415
O O2 0.598379 0.087692 0.665871
O O3 0.649190 0.210804 0.686122
O O4 0.635411 0.140313 0.488292
O O5 0.893044 0.396146 0.135940
O O6 0.854368 0.279187 0.101796
O O7 0.000000 0.331247 0.005314
O O8 0.838486 0.377862 0.946912
O O9 0.750000 0.935759 0.250000
O O10 0.873099 0.017812 0.319840
O O11 0.870871 0.831065 0.790146
O O12 0.000000 0.743055 0.789868
O O13 0.301460 0.500000 0.500000
O O14 0.196164 0.556815 0.364108
O O15 0.500000 0.908802 0.627471
#
# Coordination Sequence:
#
# PCOD9477544 Si02
#       6
#    16  16  16  16  16  16
#     4   9  17  32  57  83 108 149 196 236 290 352
#     4   9  18  34  57  82 106 137 180 234 293 342
#     4  10  19  33  51  74 110 145 184 235 280 333
#     4   8  16  32  54  82 112 142 185 236 285 345
#     4  10  21  34  52  78 110 148 193 242 284 334
#     4  10  20  36  58  83 116 156 194 237 291 350
#
# _framework density 26.329460000000001
#
# number of rings (size 3 to 8) (size 9 to 14) (size 15 to 20)
#    0.000    2.667    0.000    3.500    0.000    4.667 
#    0.000    3.333    0.000    3.000    0.000    0.000 
#    0.000    0.000    0.000    0.000    0.000    0.000 
#
# Total GULP energy -268110.421933 kJ/mol
# GULP energy per Si atom -5585.633790 kJ/mol
# Density = 2.626953 g / cm^3
# Si number density = 26.329460 Si / 1000 Ang^3
#
#
#
# Elastic Constant Matrix: (Units=GPa)
#
#
# Indices 1 2 3 4 5 6 
#
# 1 115.6973 29.0900 21.5428 0.0000 0.0000 0.0000
# 2 29.0900 69.2789 29.7191 0.0000 0.0000 0.0000
# 3 21.5428 29.7191 113.0851 0.0000 0.0000 0.0000
# 4 0.0000 0.0000 0.0000 28.3186 0.0000 0.0000
# 5 0.0000 0.0000 0.0000 0.0000 11.7187 0.0000
# 6 0.0000 0.0000 0.0000 0.0000 0.0000 21.1177
#
#
#
# Elastic Compliance Matrix: (Units=1/GPa)
#
#
# Indices 1 2 3 4 5 6 
#
# 1 0.009741 -0.003713 -0.000880 0.000000 0.000000 0.000000
# 2 -0.003713 0.017683 -0.003940 0.000000 0.000000 0.000000
# 3 -0.000880 -0.003940 0.010046 0.000000 0.000000 0.000000
# 4 0.000000 0.000000 0.000000 0.035312 0.000000 0.000000
# 5 0.000000 0.000000 0.000000 0.000000 0.085333 0.000000
# 6 0.000000 0.000000 0.000000 0.000000 0.000000 0.047354
#
#
# Mechanical properties :
#
#
# Convention : Reuss Voigt Hill
#
# Bulk Modulus (GPa) = 49.00760 50.97391 49.99075
# Shear Modulus (GPa) = 21.80206 26.74497 24.27351
#
# Velocity S-wave (km/s) = 2.88070 3.19059 3.03960
# Velocity P-wave (km/s) = 5.45144 5.74240 5.59881
#
# Compressibility (1/GPa) = 0.02040500
#
# Stress axis : x y z
#
# Youngs Moduli (GPa) = 102.66375 56.54994 99.54239
#
# Poissons Ratio (x) = 0.20995 0.08759
# Poissons Ratio (y) = 0.38115 0.39220
# Poissons Ratio (z) = 0.09033 0.22281
#
# Static dielectric constant tensor:
#      x y z
#    x 2.020910 0.000000 0.000000 
#    y 0.000000 2.120910 0.000000 
#    z 0.000000 0.000000 2.071910 
# 
# From -- ./inp_files/23900.got.cif
#   From: 2010.05.17/outbox.cif.g08.bks.cpg/sg64_12_cif.got.tgz:23900.got - 2010.06.03 16:29:19.
