data_PCOD9477590
_publ_section_title
;
Structure prediction by ZEFSAII (Michael W. Deem and Ramdas Pophale) SiO2 
 PCOD9477590
Probable space group: C M C A
;
_chemical_formula_sum "Si O2"
_cell_formula_units_Z 96
_cell_length_a 21.668793
_cell_length_b 9.244701
_cell_length_c 25.102367
_cell_angle_alpha 90.000000
_cell_angle_beta 90.000000
_cell_angle_gamma 90.000000
_cell_volume 5028.544120
_symmetry_space_group_name_H-M "C M C A"
_symmetry_group_IT_number 64
_symmetry_cell_setting 'orthorhombic'
loop_
_space_group_symop_operation_xyz
x,y,z
-x,1/2-y,1/2+z
x,-y,-z
-x,1/2+y,1/2-z
-x,-y,-z
x,1/2+y,1/2-z
-x,y,z
x,1/2-y,1/2+z
1/2+x,1/2+y,z
1/2-x,-y,1/2+z
1/2+x,1/2-y,-z
1/2-x,y,1/2-z
1/2-x,1/2-y,-z
1/2+x,y,1/2-z
1/2-x,1/2+y,z
1/2+x,-y,1/2+z
loop_
_atom_site_type_symbol
_atom_site_label
_atom_site_fract_x
_atom_site_fract_y
_atom_site_fract_z
Si Si1 0.392992 0.849633 0.480951
Si Si2 0.574777 0.340636 0.814451
Si Si3 0.929224 0.631651 0.108361
Si Si4 0.636101 0.827247 0.088791
Si Si5 0.074696 0.174329 0.794106
Si Si6 0.744760 0.619605 0.960116
O O1 0.427111 0.748763 0.438990
O O2 0.379998 0.751829 0.533023
O O3 0.328265 0.900020 0.452484
O O4 0.423043 0.000000 0.500000
O O5 0.500000 0.336403 0.822541
O O6 0.593014 0.507649 0.803414
O O7 0.609387 0.273075 0.864822
O O8 0.589626 0.240795 0.763345
O O9 0.903452 0.715502 0.160032
O O10 0.000000 0.589397 0.119312
O O11 0.606575 0.986339 0.093286
O O12 0.710190 0.851452 0.088684
O O13 0.000000 0.173737 0.797834
O O14 0.771320 0.500000 0.000000
O O15 0.750000 0.750000 0.000000
#
# Coordination Sequence:
#
# PCOD9477590 Si02
#       6
#    16  16  16  16  16  16
#     4  10  21  36  54  77 107 145 185 228 274 325
#     4  10  19  33  54  79 109 145 186 229 274 326
#     4  11  22  35  53  81 117 150 180 222 280 338
#     4  11  20  32  53  80 108 142 183 229 277 325
#     4   9  19  35  53  76 108 148 187 221 266 331
#     4   9  18  34  53  74 102 139 185 224 262 318
#
# _framework density 19.091013
#
# number of rings (size 3 to 8) (size 9 to 14) (size 15 to 20)
#    0.000    2.000    0.000    5.000    0.000    5.000 
#    0.000    0.000    0.000    1.000    0.000    4.667 
#    0.000    0.000    0.000    0.000    0.000    0.000 
#
# Total GULP energy -267550.078482 kJ/mol
# GULP energy per Si atom -5573.959968 kJ/mol
# Density = 1.904756 g / cm^3
# Si number density = 19.091013 Si / 1000 Ang^3
#
#
#
# Elastic Constant Matrix: (Units=GPa)
#
#
# Indices 1 2 3 4 5 6 
#
# 1 59.4582 35.1499 34.4691 0.0000 0.0000 0.0000
# 2 35.1499 127.1135 35.8280 0.0000 0.0000 0.0000
# 3 34.4691 35.8280 104.8819 0.0000 0.0000 0.0000
# 4 0.0000 0.0000 0.0000 34.6392 0.0000 0.0000
# 5 0.0000 0.0000 0.0000 0.0000 443.1345 0.0000
# 6 0.0000 0.0000 0.0000 0.0000 0.0000 24.1099
#
#
#
# Elastic Compliance Matrix: (Units=1/GPa)
#
#
# Indices 1 2 3 4 5 6 
#
# 1 0.023056 -0.004691 -0.005975 0.000000 0.000000 0.000000
# 2 -0.004691 0.009660 -0.001758 0.000000 0.000000 0.000000
# 3 -0.005975 -0.001758 0.012099 0.000000 0.000000 0.000000
# 4 0.000000 0.000000 0.000000 0.028869 0.000000 0.000000
# 5 0.000000 0.000000 0.000000 0.000000 0.002257 0.000000
# 6 0.000000 0.000000 0.000000 0.000000 0.000000 0.041477
#
#
# Mechanical properties :
#
#
# Convention : Reuss Voigt Hill
#
# Bulk Modulus (GPa) = 50.08511 55.81639 52.95075
# Shear Modulus (GPa) = 33.57520 112.77717 73.17619
#
# Velocity S-wave (km/s) = 4.19823 7.69426 6.19785
# Velocity P-wave (km/s) = 7.05634 10.40366 8.88898
#
# Compressibility (1/GPa) = 0.01996601
#
# Stress axis : x y z
#
# Youngs Moduli (GPa) = 43.37355 103.52203 82.65433
#
# Poissons Ratio (x) = 0.48567 0.49382
# Poissons Ratio (y) = 0.20348 0.14531
# Poissons Ratio (z) = 0.25914 0.18199
#
# Static dielectric constant tensor:
#      x y z
#    x 1.735980 0.000000 0.000000 
#    y 0.000000 1.665510 0.000000 
#    z 0.000000 0.000000 1.654810 
# 
# From -- ./inp_files/46667.got.cif
#   From: 2010.05.17/outbox.cif.g08.bks.cpg/sg64_24_cif.got.tgz:46667.got - 2010.06.03 16:29:19.
