data_PCOD9477981
_publ_section_title
;
Structure prediction by ZEFSAII (Michael W. Deem and Ramdas Pophale) SiO2 
 PCOD9477981
Probable space group: C M C A
;
_chemical_formula_sum "Si O2"
_cell_formula_units_Z 96
_cell_length_a 19.078294
_cell_length_b 22.268137
_cell_length_c 10.924152
_cell_angle_alpha 90.000000
_cell_angle_beta 90.000000
_cell_angle_gamma 90.000000
_cell_volume 4640.995592
_symmetry_space_group_name_H-M "C M C A"
_symmetry_group_IT_number 64
_symmetry_cell_setting 'orthorhombic'
loop_
_space_group_symop_operation_xyz
x,y,z
-x,1/2-y,1/2+z
x,-y,-z
-x,1/2+y,1/2-z
-x,-y,-z
x,1/2+y,1/2-z
-x,y,z
x,1/2-y,1/2+z
1/2+x,1/2+y,z
1/2-x,-y,1/2+z
1/2+x,1/2-y,-z
1/2-x,y,1/2-z
1/2-x,1/2-y,-z
1/2+x,y,1/2-z
1/2-x,1/2+y,z
1/2+x,-y,1/2+z
loop_
_atom_site_type_symbol
_atom_site_label
_atom_site_fract_x
_atom_site_fract_y
_atom_site_fract_z
Si Si1 0.917145 0.207060 0.836446
Si Si2 0.578531 0.099579 0.002510
Si Si3 0.777238 0.940934 0.128373
Si Si4 0.578559 0.065887 0.726605
Si Si5 0.582218 0.738931 0.579518
Si Si6 0.279049 0.574098 0.378040
O O1 0.916562 0.136387 0.809374
O O2 0.886042 0.223465 0.967955
O O3 0.886881 0.240003 0.716322
O O4 0.000000 0.223934 0.842590
O O5 0.500000 0.086930 0.048018
O O6 0.582358 0.169645 0.964697
O O7 0.639753 0.086345 0.096886
O O8 0.588175 0.064182 0.873769
O O9 0.750000 0.906767 0.250000
O O10 0.857093 0.960902 0.151728
O O11 0.733299 0.002413 0.126235
O O12 0.762330 0.907205 0.001958
O O13 0.500000 0.044410 0.698285
O O14 0.500000 0.756562 0.592722
O O15 0.250000 0.598728 0.250000
#
# Coordination Sequence:
#
# PCOD9477981 Si02
#       6
#    16  16  16  16  16  16
#     4   8  14  26  46  74 105 134 167 209 258 307
#     4   9  17  33  57  81 103 136 183 223 254 306
#     4  10  19  36  57  74 100 140 178 210 269 326
#     4   9  17  32  57  83 102 134 186 224 249 307
#     4   8  14  26  47  74 104 134 166 210 260 306
#     4  10  21  36  53  77 107 138 176 217 271 326
#
# _framework density 20.685217000000002
#
# number of rings (size 3 to 8) (size 9 to 14) (size 15 to 20)
#    0.000    3.000    1.667    2.000    0.000    0.000 
#    3.000    7.500    0.000    2.000    0.000    0.000 
#    0.000    0.000    0.000    0.000    0.000    0.000 
#
# Total GULP energy -267322.259626 kJ/mol
# GULP energy per Si atom -5569.213742 kJ/mol
# Density = 2.063814 g / cm^3
# Si number density = 20.685217 Si / 1000 Ang^3
#
#
#
# Elastic Constant Matrix: (Units=GPa)
#
#
# Indices 1 2 3 4 5 6 
#
# 1 108.2528 -6.6064 5.8737 0.0000 0.0000 0.0000
# 2 -6.6064 5.2916 -11.1791 0.0000 0.0000 0.0000
# 3 5.8737 -11.1791 73.5114 0.0000 0.0000 0.0000
# 4 0.0000 0.0000 0.0000 11.0181 0.0000 0.0000
# 5 0.0000 0.0000 0.0000 0.0000 25.9419 0.0000
# 6 0.0000 0.0000 0.0000 0.0000 0.0000 121.9064
#
#
#
# Elastic Compliance Matrix: (Units=1/GPa)
#
#
# Indices 1 2 3 4 5 6 
#
# 1 0.010132 0.016118 0.001641 0.000000 0.000000 0.000000
# 2 0.016118 0.304072 0.044953 0.000000 0.000000 0.000000
# 3 0.001641 0.044953 0.020308 0.000000 0.000000 0.000000
# 4 0.000000 0.000000 0.000000 0.090760 0.000000 0.000000
# 5 0.000000 0.000000 0.000000 0.000000 0.038548 0.000000
# 6 0.000000 0.000000 0.000000 0.000000 0.000000 0.008203
#
#
# Mechanical properties :
#
#
# Convention : Reuss Voigt Hill
#
# Bulk Modulus (GPa) = 2.17421 18.13690 10.15555
# Shear Modulus (GPa) = 10.00179 45.03779 27.51979
#
# Velocity S-wave (km/s) = 2.20130 4.67121 3.65143
# Velocity P-wave (km/s) = 2.74123 6.15473 4.76419
#
# Compressibility (1/GPa) = 0.45993794
#
# Stress axis : x y z
#
# Youngs Moduli (GPa) = 98.69524 3.28869 49.24077
#
# Poissons Ratio (x) = -0.05301 -0.08083
# Poissons Ratio (y) = -1.59074 -2.21354
# Poissons Ratio (z) = -0.16201 -0.14784
#
# Static dielectric constant tensor:
#      x y z
#    x 1.766830 0.000000 0.000000 
#    y 0.000000 1.743930 0.000000 
#    z 0.000000 0.000000 1.856970 
# 
# From -- ./inp_files/16243.got.cif
#   From: 2010.05.17/outbox.cif.g08.bks.cpg/sg64_9_cif.got.tgz:16243.got - 2010.06.03 16:29:19.
