data_PCOD9477875
_publ_section_title
;
Structure prediction by ZEFSAII (Michael W. Deem and Ramdas Pophale) SiO2 
 PCOD9477875
Probable space group: C M C A
;
_chemical_formula_sum "Si O2"
_cell_formula_units_Z 104
_cell_length_a 26.979298
_cell_length_b 15.027443
_cell_length_c 13.183670
_cell_angle_alpha 90.000000
_cell_angle_beta 90.000000
_cell_angle_gamma 90.000000
_cell_volume 5345.053520
_symmetry_space_group_name_H-M "C M C A"
_symmetry_group_IT_number 64
_symmetry_cell_setting 'orthorhombic'
loop_
_space_group_symop_operation_xyz
x,y,z
-x,1/2-y,1/2+z
x,-y,-z
-x,1/2+y,1/2-z
-x,-y,-z
x,1/2+y,1/2-z
-x,y,z
x,1/2-y,1/2+z
1/2+x,1/2+y,z
1/2-x,-y,1/2+z
1/2+x,1/2-y,-z
1/2-x,y,1/2-z
1/2-x,1/2-y,-z
1/2+x,y,1/2-z
1/2-x,1/2+y,z
1/2+x,-y,1/2+z
loop_
_atom_site_type_symbol
_atom_site_label
_atom_site_fract_x
_atom_site_fract_y
_atom_site_fract_z
Si Si1 0.789624 0.139513 0.451143
Si Si2 0.000000 0.647234 0.542696
Si Si3 0.158446 0.148047 0.257408
Si Si4 0.592572 0.983892 0.218058
Si Si5 0.500000 0.543384 0.158725
Si Si6 0.875428 0.000000 0.500000
Si Si7 0.816572 0.333396 0.524692
Si Si8 0.101957 0.813412 0.141745
O O1 0.793592 0.153780 0.329991
O O2 0.836468 0.079146 0.479344
O O3 0.800512 0.232525 0.504082
O O4 0.734417 0.110329 0.481927
O O5 0.000000 0.549743 0.596251
O O6 0.000000 0.623336 0.422891
O O7 0.950279 0.694969 0.582525
O O8 0.139642 0.046764 0.263353
O O9 0.164422 0.164998 0.139166
O O10 0.121646 0.221361 0.309150
O O11 0.547811 0.037472 0.270124
O O12 0.591094 0.977743 0.096917
O O13 0.596309 0.888276 0.271378
O O14 0.858355 0.351258 0.440457
#
# Coordination Sequence:
#
# PCOD9477875 Si02
#       8
#    16   8  16  16   8   8  16  16
#     4   9  20  34  52  77 107 145 180 224 279 330
#     4   9  18  35  56  80 113 140 173 226 276 321
#     4  10  20  34  54  80 109 143 186 229 274 333
#     4  10  21  36  56  80 110 145 185 229 278 332
#     4   9  18  34  56  82 107 140 179 222 274 327
#     4  10  20  37  54  76 112 145 182 230 274 332
#     4  10  19  35  55  77 109 143 182 228 277 331
#     4  10  21  36  56  81 109 146 184 225 279 333
#
# _framework density 19.457241
#
# number of rings (size 3 to 8) (size 9 to 14) (size 15 to 20)
#    0.000    2.308    0.000    2.308    0.000    4.000 
#    0.000    4.615    0.000    4.615    0.000    0.000 
#    0.000    0.000    0.000    0.000    0.000    0.000 
#
# Total GULP energy -289684.391820 kJ/mol
# GULP energy per Si atom -5570.853689 kJ/mol
# Density = 1.941296 g / cm^3
# Si number density = 19.457241 Si / 1000 Ang^3
#
#
#
# Elastic Constant Matrix: (Units=GPa)
#
#
# Indices 1 2 3 4 5 6 
#
# 1 62.7442 -9.8406 21.0649 0.0000 0.0000 0.0000
# 2 -9.8406 41.9155 0.6652 0.0000 0.0000 0.0000
# 3 21.0649 0.6652 126.8642 0.0000 0.0000 0.0000
# 4 0.0000 0.0000 0.0000 14.1077 0.0000 0.0000
# 5 0.0000 0.0000 0.0000 0.0000 25.4958 0.0000
# 6 0.0000 0.0000 0.0000 0.0000 0.0000 3.3547
#
#
#
# Elastic Compliance Matrix: (Units=1/GPa)
#
#
# Indices 1 2 3 4 5 6 
#
# 1 0.017580 0.004174 -0.002941 0.000000 0.000000 0.000000
# 2 0.004174 0.024851 -0.000823 0.000000 0.000000 0.000000
# 3 -0.002941 -0.000823 0.008375 0.000000 0.000000 0.000000
# 4 0.000000 0.000000 0.000000 0.070883 0.000000 0.000000
# 5 0.000000 0.000000 0.000000 0.000000 0.039222 0.000000
# 6 0.000000 0.000000 0.000000 0.000000 0.000000 0.298087
#
#
# Mechanical properties :
#
#
# Convention : Reuss Voigt Hill
#
# Bulk Modulus (GPa) = 19.37059 28.36699 23.86879
# Shear Modulus (GPa) = 10.51775 23.23394 16.87585
#
# Velocity S-wave (km/s) = 2.32751 3.45933 2.94824
# Velocity P-wave (km/s) = 4.14731 5.52872 4.88707
#
# Compressibility (1/GPa) = 0.05162464
#
# Stress axis : x y z
#
# Youngs Moduli (GPa) = 56.88384 40.24062 119.40193
#
# Poissons Ratio (x) = -0.16796 0.35115
# Poissons Ratio (y) = -0.23743 0.09831
# Poissons Ratio (z) = 0.16729 0.03313
#
# Static dielectric constant tensor:
#      x y z
#    x 1.734890 0.000000 0.000000 
#    y 0.000000 1.662970 0.000000 
#    z 0.000000 0.000000 1.709710 
# 
# From -- ./inp_files/19228.got.cif
#   From: 2010.05.17/outbox.cif.g08.bks.cpg/sg64_10_cif.got.tgz:19228.got - 2010.06.03 16:29:19.
