data_PCOD9477452
_publ_section_title
;
Structure prediction by ZEFSAII (Michael W. Deem and Ramdas Pophale) SiO2 
 PCOD9477452
Probable space group: C M C A
;
_chemical_formula_sum "Si O2"
_cell_formula_units_Z 112
_cell_length_a 11.531702
_cell_length_b 15.746051
_cell_length_c 29.287809
_cell_angle_alpha 90.000000
_cell_angle_beta 90.000000
_cell_angle_gamma 90.000000
_cell_volume 5318.044270
_symmetry_space_group_name_H-M "C M C A"
_symmetry_group_IT_number 64
_symmetry_cell_setting 'orthorhombic'
loop_
_space_group_symop_operation_xyz
x,y,z
-x,1/2-y,1/2+z
x,-y,-z
-x,1/2+y,1/2-z
-x,-y,-z
x,1/2+y,1/2-z
-x,y,z
x,1/2-y,1/2+z
1/2+x,1/2+y,z
1/2-x,-y,1/2+z
1/2+x,1/2-y,-z
1/2-x,y,1/2-z
1/2-x,1/2-y,-z
1/2+x,y,1/2-z
1/2-x,1/2+y,z
1/2+x,-y,1/2+z
loop_
_atom_site_type_symbol
_atom_site_label
_atom_site_fract_x
_atom_site_fract_y
_atom_site_fract_z
Si Si1 0.794714 0.984003 0.452053
Si Si2 0.376477 0.589060 0.637224
Si Si3 0.787521 0.745059 0.625450
Si Si4 0.634765 0.146307 0.433278
Si Si5 0.368816 0.677236 0.967101
Si Si6 0.126672 0.992328 0.730869
Si Si7 0.130308 0.288702 0.775190
O O1 0.870835 0.965886 0.408481
O O2 0.718579 0.899630 0.459327
O O3 0.856924 0.000000 0.500000
O O4 0.708970 0.062137 0.442173
O O5 0.500000 0.636311 0.638572
O O6 0.271387 0.654911 0.636800
O O7 0.372219 0.526119 0.679488
O O8 0.684611 0.808589 0.611345
O O9 0.855206 0.737955 0.576898
O O10 0.854677 0.773034 0.670541
O O11 0.500000 0.126429 0.428063
O O12 0.646426 0.204752 0.479608
O O13 0.500000 0.643705 0.965602
O O14 0.250000 0.023636 0.750000
O O15 0.128310 0.890195 0.732711
O O16 0.000000 0.019534 0.751028
O O17 0.250000 0.256975 0.750000
O O18 0.000000 0.256517 0.761063
#
# Coordination Sequence:
#
# PCOD9477452 Si02
#       7
#    16  16  16  16  16  16  16
#     4   9  18  33  53  76 103 140 188 233 272 321
#     4  10  21  36  53  77 110 144 178 222 276 330
#     4  11  21  34  53  80 113 145 179 219 275 338
#     4  10  19  32  52  78 108 144 186 231 278 326
#     4   9  18  33  52  75 107 145 184 227 271 323
#     4   9  19  39  62  82 106 138 179 227 275 325
#     4  10  22  40  62  85 110 142 183 230 278 330
#
# _framework density 21.060375000000001
#
# number of rings (size 3 to 8) (size 9 to 14) (size 15 to 20)
#    0.000    2.286    0.000    2.571    0.000    3.714 
#    0.000    9.286    0.000    0.857    0.000    0.000 
#    0.000    0.000    0.000    0.000    0.000    0.000 
#
# Total GULP energy -311991.134825 kJ/mol
# GULP energy per Si atom -5571.270265 kJ/mol
# Density = 2.101244 g / cm^3
# Si number density = 21.060375 Si / 1000 Ang^3
#
#
#
# Elastic Constant Matrix: (Units=GPa)
#
#
# Indices 1 2 3 4 5 6 
#
# 1 140.6046 5.7133 49.6175 0.0000 0.0000 0.0000
# 2 5.7133 18.1993 1.2559 0.0000 0.0000 0.0000
# 3 49.6175 1.2559 84.2230 0.0000 0.0000 0.0000
# 4 0.0000 0.0000 0.0000 26.9681 0.0000 0.0000
# 5 0.0000 0.0000 0.0000 0.0000 33.8511 0.0000
# 6 0.0000 0.0000 0.0000 0.0000 0.0000 40.9295
#
#
#
# Elastic Compliance Matrix: (Units=1/GPa)
#
#
# Indices 1 2 3 4 5 6 
#
# 1 0.009090 -0.002487 -0.005318 0.000000 0.000000 0.000000
# 2 -0.002487 0.055684 0.000635 0.000000 0.000000 0.000000
# 3 -0.005318 0.000635 0.014997 0.000000 0.000000 0.000000
# 4 0.000000 0.000000 0.000000 0.037081 0.000000 0.000000
# 5 0.000000 0.000000 0.000000 0.000000 0.029541 0.000000
# 6 0.000000 0.000000 0.000000 0.000000 0.000000 0.024432
#
#
# Mechanical properties :
#
#
# Convention : Reuss Voigt Hill
#
# Bulk Modulus (GPa) = 15.28336 39.57781 27.43059
# Shear Modulus (GPa) = 24.15751 32.77907 28.46829
#
# Velocity S-wave (km/s) = 3.39050 3.94945 3.68060
# Velocity P-wave (km/s) = 4.75395 6.29530 5.57812
#
# Compressibility (1/GPa) = 0.06543065
#
# Stress axis : x y z
#
# Youngs Moduli (GPa) = 110.01339 17.95846 66.68153
#
# Poissons Ratio (x) = 0.04466 0.35461
# Poissons Ratio (y) = 0.27356 -0.04231
# Poissons Ratio (z) = 0.58504 -0.01140
#
# Static dielectric constant tensor:
#      x y z
#    x 1.824900 0.000000 0.000000 
#    y 0.000000 1.742290 0.000000 
#    z 0.000000 0.000000 1.769920 
# 
# From -- ./inp_files/52846.got.cif
#   From: 2010.05.17/outbox.cif.g08.bks.cpg/sg64_27_cif.got.tgz:52846.got - 2010.06.03 16:29:19.
