data_PCOD9477545
_publ_section_title
;
Structure prediction by ZEFSAII (Michael W. Deem and Ramdas Pophale) SiO2 
 PCOD9477545
Probable space group: C M C A
;
_chemical_formula_sum "Si O2"
_cell_formula_units_Z 80
_cell_length_a 7.983488
_cell_length_b 30.285493
_cell_length_c 14.809618
_cell_angle_alpha 90.000000
_cell_angle_beta 90.000000
_cell_angle_gamma 90.000000
_cell_volume 3580.726752
_symmetry_space_group_name_H-M "C M C A"
_symmetry_group_IT_number 64
_symmetry_cell_setting 'orthorhombic'
loop_
_space_group_symop_operation_xyz
x,y,z
-x,1/2-y,1/2+z
x,-y,-z
-x,1/2+y,1/2-z
-x,-y,-z
x,1/2+y,1/2-z
-x,y,z
x,1/2-y,1/2+z
1/2+x,1/2+y,z
1/2-x,-y,1/2+z
1/2+x,1/2-y,-z
1/2-x,y,1/2-z
1/2-x,1/2-y,-z
1/2+x,y,1/2-z
1/2-x,1/2+y,z
1/2+x,-y,1/2+z
loop_
_atom_site_type_symbol
_atom_site_label
_atom_site_fract_x
_atom_site_fract_y
_atom_site_fract_z
Si Si1 0.000000 0.549712 0.387370
Si Si2 0.200881 0.796511 0.645042
Si Si3 0.310585 0.605532 0.393404
Si Si4 0.319378 0.105375 0.896828
Si Si5 0.201460 0.798773 0.144414
Si Si6 0.500000 0.947435 0.390496
O O1 0.167271 0.574388 0.354054
O O2 0.000000 0.498372 0.363660
O O3 0.000000 0.553301 0.498300
O O4 0.250000 0.797353 0.750000
O O5 0.254705 0.843800 0.607748
O O6 0.261830 0.749095 0.608388
O O7 0.000000 0.795417 0.636604
O O8 0.500000 0.603919 0.353993
O O9 0.327734 0.592671 0.498032
O O10 0.500000 0.096449 0.854327
O O11 0.284584 0.157699 0.895064
O O12 0.163762 0.078731 0.858185
O O13 0.250000 0.799232 0.250000
O O14 0.000000 0.802004 0.134936
#
# Coordination Sequence:
#
# PCOD9477545 Si02
#       6
#     8  16  16  16  16   8
#     4   9  18  32  56  77 100 136 169 212 266 304
#     4   9  19  33  50  75 105 139 176 211 250 304
#     4   9  19  34  51  78 108 133 171 215 259 307
#     4  10  19  33  53  77 106 137 169 213 263 304
#     4  10  19  33  51  75 106 139 177 212 249 306
#     4   9  18  34  52  79 104 128 173 218 256 312
#
# _framework density 22.341833999999999
#
# number of rings (size 3 to 8) (size 9 to 14) (size 15 to 20)
#    0.000    2.600    1.000    0.600    1.400    2.400 
#    0.000    4.000    0.000    1.200    0.000    0.000 
#    0.000    0.000    0.000    0.000    0.000    0.000 
#
# Total GULP energy -223183.540681 kJ/mol
# GULP energy per Si atom -5579.588517 kJ/mol
# Density = 2.229098 g / cm^3
# Si number density = 22.341834 Si / 1000 Ang^3
#
#
#
# Elastic Constant Matrix: (Units=GPa)
#
#
# Indices 1 2 3 4 5 6 
#
# 1 154.7078 105.8850 4.5691 0.0000 0.0000 0.0000
# 2 105.8850 171.1729 -5.5806 0.0000 0.0000 0.0000
# 3 4.5691 -5.5806 40.1563 0.0000 0.0000 0.0000
# 4 0.0000 0.0000 0.0000 39.7368 0.0000 0.0000
# 5 0.0000 0.0000 0.0000 0.0000 13.1422 0.0000
# 6 0.0000 0.0000 0.0000 0.0000 0.0000 61.8159
#
#
#
# Elastic Compliance Matrix: (Units=1/GPa)
#
#
# Indices 1 2 3 4 5 6 
#
# 1 0.011416 -0.007136 -0.002291 0.000000 0.000000 0.000000
# 2 -0.007136 0.010330 0.002247 0.000000 0.000000 0.000000
# 3 -0.002291 0.002247 0.025476 0.000000 0.000000 0.000000
# 4 0.000000 0.000000 0.000000 0.025166 0.000000 0.000000
# 5 0.000000 0.000000 0.000000 0.000000 0.076091 0.000000
# 6 0.000000 0.000000 0.000000 0.000000 0.000000 0.016177
#
#
# Mechanical properties :
#
#
# Convention : Reuss Voigt Hill
#
# Bulk Modulus (GPa) = 30.43004 63.97600 47.20302
# Shear Modulus (GPa) = 26.32035 40.34988 33.33512
#
# Velocity S-wave (km/s) = 3.43603 4.25434 3.86690
# Velocity P-wave (km/s) = 5.42140 7.26841 6.41176
#
# Compressibility (1/GPa) = 0.03286226
#
# Stress axis : x y z
#
# Youngs Moduli (GPa) = 87.59944 96.80859 39.25319
#
# Poissons Ratio (x) = 0.69084 0.08991
# Poissons Ratio (y) = 0.62513 -0.08822
# Poissons Ratio (z) = 0.20066 -0.21758
#
# Static dielectric constant tensor:
#      x y z
#    x 1.833580 0.000000 0.000000 
#    y 0.000000 1.808370 0.000000 
#    z 0.000000 0.000000 1.855840 
# 
# From -- ./inp_files/29872.got.cif
#   From: 2010.05.17/outbox.cif.g08.bks.cpg/sg64_15_cif.got.tgz:29872.got - 2010.06.03 16:29:19.
