data_PCOD9477312
_publ_section_title
;
Structure prediction by ZEFSAII (Michael W. Deem and Ramdas Pophale) SiO2 
 PCOD9477312
Probable space group: C M C A
;
_chemical_formula_sum "Si O2"
_cell_formula_units_Z 80
_cell_length_a 7.747977
_cell_length_b 20.076314
_cell_length_c 25.559299
_cell_angle_alpha 90.000000
_cell_angle_beta 90.000000
_cell_angle_gamma 90.000000
_cell_volume 3975.769896
_symmetry_space_group_name_H-M "C M C A"
_symmetry_group_IT_number 64
_symmetry_cell_setting 'orthorhombic'
loop_
_space_group_symop_operation_xyz
x,y,z
-x,1/2-y,1/2+z
x,-y,-z
-x,1/2+y,1/2-z
-x,-y,-z
x,1/2+y,1/2-z
-x,y,z
x,1/2-y,1/2+z
1/2+x,1/2+y,z
1/2-x,-y,1/2+z
1/2+x,1/2-y,-z
1/2-x,y,1/2-z
1/2-x,1/2-y,-z
1/2+x,y,1/2-z
1/2-x,1/2+y,z
1/2+x,-y,1/2+z
loop_
_atom_site_type_symbol
_atom_site_label
_atom_site_fract_x
_atom_site_fract_y
_atom_site_fract_z
Si Si1 0.788666 0.737723 0.118218
Si Si2 0.298655 0.974086 0.596172
Si Si3 0.198172 0.621887 0.591912
Si Si4 0.205991 0.882482 0.689495
Si Si5 0.699942 0.854317 0.976399
O O1 0.725505 0.813404 0.120433
O O2 0.736979 0.688408 0.164881
O O3 0.734871 0.701507 0.064193
O O4 0.000000 0.739251 0.117000
O O5 0.500000 0.978085 0.580554
O O6 0.284345 0.939463 0.652651
O O7 0.211857 0.923843 0.555211
O O8 0.223436 0.048489 0.597231
O O9 0.201442 0.640165 0.530567
O O10 0.000000 0.615619 0.610104
O O11 0.250000 0.888503 0.750000
O O12 0.000000 0.886435 0.682883
O O13 0.500000 0.840640 0.988392
#
# Coordination Sequence:
#
# PCOD9477312 Si02
#       5
#    16  16  16  16  16
#     4   8  17  33  51  73 100 131 167 205 245 291
#     4  10  20  33  51  75 102 134 170 206 245 292
#     4  10  19  32  50  73 104 137 168 204 246 292
#     4  10  20  37  59  77  96 125 163 207 252 300
#     4  10  19  31  49  73 104 140 173 205 242 289
#
# _framework density 20.121888999999999
#
# number of rings (size 3 to 8) (size 9 to 14) (size 15 to 20)
#    0.000    2.400    0.000    4.200    0.000    4.000 
#    0.000    6.000    0.000    2.400    0.000    0.000 
#    0.000    0.000    0.000    0.000    0.000    0.000 
#
# Total GULP energy -223266.858877 kJ/mol
# GULP energy per Si atom -5581.671472 kJ/mol
# Density = 2.007609 g / cm^3
# Si number density = 20.121889 Si / 1000 Ang^3
#
#
#
# Elastic Constant Matrix: (Units=GPa)
#
#
# Indices 1 2 3 4 5 6 
#
# 1 42.9444 -4.8628 -14.4232 0.0000 0.0000 0.0000
# 2 -4.8628 119.0020 -5.0435 0.0000 0.0000 0.0000
# 3 -14.4232 -5.0435 46.5329 0.0000 0.0000 0.0000
# 4 0.0000 0.0000 0.0000 4.0448 0.0000 0.0000
# 5 0.0000 0.0000 0.0000 0.0000 19.5251 0.0000
# 6 0.0000 0.0000 0.0000 0.0000 0.0000 8.8522
#
#
#
# Elastic Compliance Matrix: (Units=1/GPa)
#
#
# Indices 1 2 3 4 5 6 
#
# 1 0.026229 0.001423 0.008284 0.000000 0.000000 0.000000
# 2 0.001423 0.008519 0.001364 0.000000 0.000000 0.000000
# 3 0.008284 0.001364 0.024206 0.000000 0.000000 0.000000
# 4 0.000000 0.000000 0.000000 0.247230 0.000000 0.000000
# 5 0.000000 0.000000 0.000000 0.000000 0.051216 0.000000
# 6 0.000000 0.000000 0.000000 0.000000 0.000000 0.112966
#
#
# Mechanical properties :
#
#
# Convention : Reuss Voigt Hill
#
# Bulk Modulus (GPa) = 12.33086 17.75781 15.04433
# Shear Modulus (GPa) = 10.52066 22.00502 16.26284
#
# Velocity S-wave (km/s) = 2.28906 3.31053 2.84600
# Velocity P-wave (km/s) = 3.62323 4.84325 4.27697
#
# Compressibility (1/GPa) = 0.08109737
#
# Stress axis : x y z
#
# Youngs Moduli (GPa) = 38.12522 117.38204 41.31241
#
# Poissons Ratio (x) = -0.16702 -0.34224
# Poissons Ratio (y) = -0.05425 -0.05637
# Poissons Ratio (z) = -0.31584 -0.16016
#
# Static dielectric constant tensor:
#      x y z
#    x 1.767140 0.000000 0.000000 
#    y 0.000000 1.757840 0.000000 
#    z 0.000000 0.000000 1.664510 
# 
# From -- ./inp_files/47790.got.cif
#   From: 2010.05.17/outbox.cif.g08.bks.cpg/sg64_24_cif.got.tgz:47790.got - 2010.06.03 16:29:19.
