data_PCOD9477950
_publ_section_title
;
Structure prediction by ZEFSAII (Michael W. Deem and Ramdas Pophale) SiO2 
 PCOD9477950
Probable space group: C M C A
;
_chemical_formula_sum "Si O2"
_cell_formula_units_Z 112
_cell_length_a 14.187521
_cell_length_b 23.346673
_cell_length_c 14.423650
_cell_angle_alpha 90.000000
_cell_angle_beta 90.000000
_cell_angle_gamma 90.000000
_cell_volume 4777.565977
_symmetry_space_group_name_H-M "C M C A"
_symmetry_group_IT_number 64
_symmetry_cell_setting 'orthorhombic'
loop_
_space_group_symop_operation_xyz
x,y,z
-x,1/2-y,1/2+z
x,-y,-z
-x,1/2+y,1/2-z
-x,-y,-z
x,1/2+y,1/2-z
-x,y,z
x,1/2-y,1/2+z
1/2+x,1/2+y,z
1/2-x,-y,1/2+z
1/2+x,1/2-y,-z
1/2-x,y,1/2-z
1/2-x,1/2-y,-z
1/2+x,y,1/2-z
1/2-x,1/2+y,z
1/2+x,-y,1/2+z
loop_
_atom_site_type_symbol
_atom_site_label
_atom_site_fract_x
_atom_site_fract_y
_atom_site_fract_z
Si Si1 0.613298 0.233553 0.191357
Si Si2 0.706571 0.069329 0.918649
Si Si3 0.104702 0.953042 0.601034
Si Si4 0.890260 0.885431 0.988963
Si Si5 0.885858 0.169020 0.679266
Si Si6 0.614111 0.250553 0.991129
Si Si7 0.145821 0.384630 0.723523
O O1 0.500000 0.232153 0.188494
O O2 0.638436 0.296344 0.227931
O O3 0.649833 0.224219 0.087891
O O4 0.639450 0.183760 0.262528
O O5 0.641850 0.080919 0.010712
O O6 0.813859 0.080411 0.950140
O O7 0.670053 0.111471 0.839486
O O8 0.679312 0.004795 0.890666
O O9 0.095185 0.913724 0.690404
O O10 0.000000 0.977215 0.586675
O O11 0.882810 0.901491 0.879741
O O12 0.000000 0.891802 0.018298
O O13 0.863487 0.817935 0.990996
O O14 0.858828 0.212617 0.596224
O O15 0.000000 0.159766 0.677245
O O16 0.500000 0.248750 0.991246
O O17 0.250000 0.402047 0.750000
#
# Coordination Sequence:
#
# PCOD9477950 Si02
#       7
#    16  16  16  16  16  16  16
#     4  10  20  36  62  98 138 181 222 272 343 407
#     4  11  23  40  66  97 128 170 228 277 335 405
#     4  11  23  43  69  96 131 170 220 286 340 391
#     4  11  23  43  67  95 137 181 221 277 340 408
#     4  10  19  35  61  97 140 177 220 276 337 405
#     4   9  19  35  60  94 136 182 221 265 333 409
#     4  12  23  40  66 101 133 173 232 280 327 408
#
# _framework density 23.442900000000002
#
# number of rings (size 3 to 8) (size 9 to 14) (size 15 to 20)
#    0.000    1.429    2.857    3.857    0.000    2.857 
#    0.000    2.857    0.000    1.714    0.000    0.000 
#    0.000    0.000    0.000    0.000    0.000    0.000 
#
# Total GULP energy -313150.227781 kJ/mol
# GULP energy per Si atom -5591.968353 kJ/mol
# Density = 2.338954 g / cm^3
# Si number density = 23.442900 Si / 1000 Ang^3
#
#
#
# Elastic Constant Matrix: (Units=GPa)
#
#
# Indices 1 2 3 4 5 6 
#
# 1 104.1427 10.9006 -5.5866 0.0000 0.0000 0.0000
# 2 10.9006 62.5769 6.7223 0.0000 0.0000 0.0000
# 3 -5.5866 6.7223 56.1815 0.0000 0.0000 0.0000
# 4 0.0000 0.0000 0.0000 35.5882 0.0000 0.0000
# 5 0.0000 0.0000 0.0000 0.0000 20.9101 0.0000
# 6 0.0000 0.0000 0.0000 0.0000 0.0000 42.7236
#
#
#
# Elastic Compliance Matrix: (Units=1/GPa)
#
#
# Indices 1 2 3 4 5 6 
#
# 1 0.009860 -0.001847 0.001201 0.000000 0.000000 0.000000
# 2 -0.001847 0.016534 -0.002162 0.000000 0.000000 0.000000
# 3 0.001201 -0.002162 0.018178 0.000000 0.000000 0.000000
# 4 0.000000 0.000000 0.000000 0.028099 0.000000 0.000000
# 5 0.000000 0.000000 0.000000 0.000000 0.047824 0.000000
# 6 0.000000 0.000000 0.000000 0.000000 0.000000 0.023406
#
#
# Mechanical properties :
#
#
# Convention : Reuss Voigt Hill
#
# Bulk Modulus (GPa) = 25.66904 27.44151 26.55527
# Shear Modulus (GPa) = 30.76897 33.90203 32.33550
#
# Velocity S-wave (km/s) = 3.62678 3.80696 3.71796
# Velocity P-wave (km/s) = 5.33961 5.57270 5.45740
#
# Compressibility (1/GPa) = 0.03895743
#
# Stress axis : x y z
#
# Youngs Moduli (GPa) = 101.42050 60.48046 55.01269
#
# Poissons Ratio (x) = 0.11168 -0.06609
# Poissons Ratio (y) = 0.18728 0.11894
# Poissons Ratio (z) = -0.12185 0.13076
#
# Static dielectric constant tensor:
#      x y z
#    x 1.931980 0.000000 0.000000 
#    y 0.000000 1.844500 0.000000 
#    z 0.000000 0.000000 1.897290 
# 
# From -- ./inp_files/24260.got.cif
#   From: 2010.05.17/outbox.cif.g08.bks.cpg/sg64_13_cif.got.tgz:24260.got - 2010.06.03 16:29:19.
