data_PCOD9477147
_publ_section_title
;
Structure prediction by ZEFSAII (Michael W. Deem and Ramdas Pophale) SiO2 
 PCOD9477147
Probable space group: C M C A
;
_chemical_formula_sum "Si O2"
_cell_formula_units_Z 80
_cell_length_a 16.057827
_cell_length_b 28.078419
_cell_length_c 8.647511
_cell_angle_alpha 90.000000
_cell_angle_beta 90.000000
_cell_angle_gamma 90.000000
_cell_volume 3898.975878
_symmetry_space_group_name_H-M "C M C A"
_symmetry_group_IT_number 64
_symmetry_cell_setting 'orthorhombic'
loop_
_space_group_symop_operation_xyz
x,y,z
-x,1/2-y,1/2+z
x,-y,-z
-x,1/2+y,1/2-z
-x,-y,-z
x,1/2+y,1/2-z
-x,y,z
x,1/2-y,1/2+z
1/2+x,1/2+y,z
1/2-x,-y,1/2+z
1/2+x,1/2-y,-z
1/2-x,y,1/2-z
1/2-x,1/2-y,-z
1/2+x,y,1/2-z
1/2-x,1/2+y,z
1/2+x,-y,1/2+z
loop_
_atom_site_type_symbol
_atom_site_label
_atom_site_fract_x
_atom_site_fract_y
_atom_site_fract_z
Si Si1 0.179824 0.471033 0.634482
Si Si2 0.000000 0.196675 0.091996
Si Si3 0.500000 0.303244 0.533013
Si Si4 0.151149 0.868977 0.906616
Si Si5 0.093275 0.459560 0.130562
Si Si6 0.839775 0.865895 0.531856
O O1 0.224210 0.500000 0.500000
O O2 0.250000 0.452457 0.750000
O O3 0.134307 0.425092 0.565643
O O4 0.127187 0.510475 0.724563
O O5 0.000000 0.198016 0.279476
O O6 0.919448 0.166866 0.039375
O O7 0.000000 0.249884 0.029602
O O8 0.414471 0.330257 0.482776
O O9 0.149547 0.868024 0.718549
O O10 0.240883 0.855249 0.978896
O O11 0.000000 0.441819 0.163065
O O12 0.087760 0.500000 0.000000
O O13 0.144095 0.415157 0.060222
#
# Coordination Sequence:
#
# PCOD9477147 Si02
#       6
#    16   8   8  16  16  16
#     4  12  23  38  60  92 133 171 209 254 303 375
#     4  10  24  42  64  90 114 163 208 277 323 382
#     4  10  22  42  66  87 120 153 214 268 331 380
#     4  10  20  37  63  89 126 164 213 249 320 387
#     4  11  21  35  63  95 128 168 214 253 304 381
#     4  10  18  38  65  90 120 170 207 257 309 390
#
# _framework density 20.518208999999999
#
# number of rings (size 3 to 8) (size 9 to 14) (size 15 to 20)
#    0.000    1.400    5.000    1.800    1.400    1.200 
#    3.600    0.000    0.000    0.000    0.000    0.000 
#    0.000    0.000    0.000    0.000    0.000    0.000 
#
# Total GULP energy -222999.277555 kJ/mol
# GULP energy per Si atom -5574.981939 kJ/mol
# Density = 2.047151 g / cm^3
# Si number density = 20.518209 Si / 1000 Ang^3
#
#
#
# Elastic Constant Matrix: (Units=GPa)
#
#
# Indices 1 2 3 4 5 6 
#
# 1 170.5834 105.5663 26.5068 0.0000 0.0000 0.0000
# 2 105.5663 177.9068 30.0254 0.0000 0.0000 0.0000
# 3 26.5068 30.0254 12.5466 0.0000 0.0000 0.0000
# 4 0.0000 0.0000 0.0000 35.8517 0.0000 0.0000
# 5 0.0000 0.0000 0.0000 0.0000 -15.1512 0.0000
# 6 0.0000 0.0000 0.0000 0.0000 0.0000 25.4035
#
#
#
# Elastic Compliance Matrix: (Units=1/GPa)
#
#
# Indices 1 2 3 4 5 6 
#
# 1 0.010220 -0.004060 -0.011875 0.000000 0.000000 0.000000
# 2 -0.004060 0.011042 -0.017848 0.000000 0.000000 0.000000
# 3 -0.011875 -0.017848 0.147504 0.000000 0.000000 0.000000
# 4 0.000000 0.000000 0.000000 0.027893 0.000000 0.000000
# 5 0.000000 0.000000 0.000000 0.000000 -0.066002 0.000000
# 6 0.000000 0.000000 0.000000 0.000000 0.000000 0.039365
#
#
# Mechanical properties :
#
#
# Convention : Reuss Voigt Hill
#
# Bulk Modulus (GPa) = 9.88147 76.13709 43.00928
# Shear Modulus (GPa) = 18.42831 22.48336 20.45584
#
# Velocity S-wave (km/s) = 3.00016 3.31384 3.16089
# Velocity P-wave (km/s) = 4.10215 7.19929 5.85907
#
# Compressibility (1/GPa) = 0.10119954
#
# Stress axis : x y z
#
# Youngs Moduli (GPa) = 97.84483 90.56026 6.77950
#
# Poissons Ratio (x) = 0.36770 0.08051
# Poissons Ratio (y) = 0.39728 0.12100
# Poissons Ratio (z) = 1.16194 1.61629
#
# Static dielectric constant tensor:
#      x y z
#    x 1.777420 0.000000 0.000000 
#    y 0.000000 1.697650 0.000000 
#    z 0.000000 0.000000 1.816510 
# 
# From -- ./inp_files/7165.got.cif
#   From: 2010.05.17/outbox.cif.g08.bks.cpg/sg64_4_cif.got.tgz:7165.got - 2010.06.03 16:29:19.
