data_PCOD9477647
_publ_section_title
;
Structure prediction by ZEFSAII (Michael W. Deem and Ramdas Pophale) SiO2 
 PCOD9477647
Probable space group: C M C A
;
_chemical_formula_sum "Si O2"
_cell_formula_units_Z 112
_cell_length_a 14.260687
_cell_length_b 14.732659
_cell_length_c 25.167187
_cell_angle_alpha 90.000000
_cell_angle_beta 90.000000
_cell_angle_gamma 90.000000
_cell_volume 5287.571594
_symmetry_space_group_name_H-M "C M C A"
_symmetry_group_IT_number 64
_symmetry_cell_setting 'orthorhombic'
loop_
_space_group_symop_operation_xyz
x,y,z
-x,1/2-y,1/2+z
x,-y,-z
-x,1/2+y,1/2-z
-x,-y,-z
x,1/2+y,1/2-z
-x,y,z
x,1/2-y,1/2+z
1/2+x,1/2+y,z
1/2-x,-y,1/2+z
1/2+x,1/2-y,-z
1/2-x,y,1/2-z
1/2-x,1/2-y,-z
1/2+x,y,1/2-z
1/2-x,1/2+y,z
1/2+x,-y,1/2+z
loop_
_atom_site_type_symbol
_atom_site_label
_atom_site_fract_x
_atom_site_fract_y
_atom_site_fract_z
Si Si1 0.803994 0.473471 0.872037
Si Si2 0.607899 0.775965 0.508251
Si Si3 0.399384 0.013725 0.666640
Si Si4 0.821334 0.205968 0.798787
Si Si5 0.106090 0.068801 0.541826
Si Si6 0.225016 0.281779 0.912569
Si Si7 0.641005 0.395366 0.734337
O O1 0.692877 0.482895 0.864590
O O2 0.839203 0.559794 0.903817
O O3 0.823430 0.379352 0.902672
O O4 0.856885 0.461086 0.816367
O O5 0.500000 0.810641 0.508271
O O6 0.602684 0.668161 0.518764
O O7 0.678373 0.804012 0.555893
O O8 0.662721 0.781594 0.451891
O O9 0.500000 0.012437 0.638420
O O10 0.377369 0.114782 0.687977
O O11 0.403928 0.944352 0.716076
O O12 0.750000 0.186728 0.750000
O O13 0.769413 0.238738 0.853445
O O14 0.884680 0.292808 0.781697
O O15 0.000000 0.036770 0.552191
O O16 0.150936 0.000000 0.500000
O O17 0.750000 0.385174 0.750000
#
# Coordination Sequence:
#
# PCOD9477647 Si02
#       7
#    16  16  16  16  16  16  16
#     4  10  19  36  59  81 116 152 191 240 295 346
#     4  10  21  37  57  85 119 153 197 245 292 348
#     4  11  23  37  56  86 123 158 193 234 287 357
#     4  10  20  39  63  84 112 154 201 247 299 353
#     4  10  19  33  56  85 108 138 189 248 297 333
#     4  10  21  37  60  85 115 158 196 240 297 349
#     4   8  18  36  57  81 108 149 196 242 288 342
#
# _framework density 21.181746
#
# number of rings (size 3 to 8) (size 9 to 14) (size 15 to 20)
#    0.000    2.143    1.429    3.000    0.000    2.286 
#    0.000    5.000    0.000    0.429    0.000    0.000 
#    0.000    0.000    0.000    0.000    0.000    0.000 
#
# Total GULP energy -312157.313478 kJ/mol
# GULP energy per Si atom -5574.237741 kJ/mol
# Density = 2.113354 g / cm^3
# Si number density = 21.181746 Si / 1000 Ang^3
#
#
#
# Elastic Constant Matrix: (Units=GPa)
#
#
# Indices 1 2 3 4 5 6 
#
# 1 74.1345 -17.2351 18.9734 0.0000 0.0000 0.0000
# 2 -17.2351 53.7503 1.8452 0.0000 0.0000 0.0000
# 3 18.9734 1.8452 89.0355 0.0000 0.0000 0.0000
# 4 0.0000 0.0000 0.0000 19.5898 0.0000 0.0000
# 5 0.0000 0.0000 0.0000 0.0000 -0.4020 0.0000
# 6 0.0000 0.0000 0.0000 0.0000 0.0000 39.8252
#
#
#
# Elastic Compliance Matrix: (Units=1/GPa)
#
#
# Indices 1 2 3 4 5 6 
#
# 1 0.015551 0.005104 -0.003420 0.000000 0.000000 0.000000
# 2 0.005104 0.020293 -0.001508 0.000000 0.000000 0.000000
# 3 -0.003420 -0.001508 0.011991 0.000000 0.000000 0.000000
# 4 0.000000 0.000000 0.000000 0.051047 0.000000 0.000000
# 5 0.000000 0.000000 0.000000 0.000000 -2.487254 0.000000
# 6 0.000000 0.000000 0.000000 0.000000 0.000000 0.025110
#
#
# Mechanical properties :
#
#
# Convention : Reuss Voigt Hill
#
# Bulk Modulus (GPa) = 20.75251 24.89859 22.82555
# Shear Modulus (GPa) = -2.12988 26.02505 11.94759
#
# Velocity S-wave (km/s) = -1.00385 3.50902 2.37755
# Velocity P-wave (km/s) = 2.91119 5.31017 4.28211
#
# Compressibility (1/GPa) = 0.04818695
#
# Stress axis : x y z
#
# Youngs Moduli (GPa) = 64.30569 49.27848 83.39280
#
# Poissons Ratio (x) = -0.25150 0.28517
# Poissons Ratio (y) = -0.32820 0.12577
# Poissons Ratio (z) = 0.21990 0.07432
#
# Static dielectric constant tensor:
#      x y z
#    x 1.370270 0.000000 0.000000 
#    y 0.000000 1.782860 0.000000 
#    z 0.000000 0.000000 1.804160 
# 
# From -- ./inp_files/45241.got.cif
#   From: 2010.05.17/outbox.cif.g08.bks.cpg/sg64_23_cif.got.tgz:45241.got - 2010.06.03 16:29:19.
