data_PCOD9477558
_publ_section_title
;
Structure prediction by ZEFSAII (Michael W. Deem and Ramdas Pophale) SiO2 
 PCOD9477558
Probable space group: C M C A
;
_chemical_formula_sum "Si O2"
_cell_formula_units_Z 96
_cell_length_a 8.596671
_cell_length_b 23.470671
_cell_length_c 26.503485
_cell_angle_alpha 90.000000
_cell_angle_beta 90.000000
_cell_angle_gamma 90.000000
_cell_volume 5347.598541
_symmetry_space_group_name_H-M "C M C A"
_symmetry_group_IT_number 64
_symmetry_cell_setting 'orthorhombic'
loop_
_space_group_symop_operation_xyz
x,y,z
-x,1/2-y,1/2+z
x,-y,-z
-x,1/2+y,1/2-z
-x,-y,-z
x,1/2+y,1/2-z
-x,y,z
x,1/2-y,1/2+z
1/2+x,1/2+y,z
1/2-x,-y,1/2+z
1/2+x,1/2-y,-z
1/2-x,y,1/2-z
1/2-x,1/2-y,-z
1/2+x,y,1/2-z
1/2-x,1/2+y,z
1/2+x,-y,1/2+z
loop_
_atom_site_type_symbol
_atom_site_label
_atom_site_fract_x
_atom_site_fract_y
_atom_site_fract_z
Si Si1 0.689113 0.566625 0.000907
Si Si2 0.678063 0.367119 0.899596
Si Si3 0.177993 0.741486 0.945665
Si Si4 0.818543 0.633070 0.599244
Si Si5 0.315156 0.188968 0.194843
Si Si6 0.184936 0.683105 0.805124
O O1 0.500000 0.573587 0.001368
O O2 0.742911 0.595568 0.053528
O O3 0.725787 0.500000 0.000000
O O4 0.741705 0.595795 0.948309
O O5 0.500000 0.386094 0.889394
O O6 0.672378 0.303057 0.920883
O O7 0.767605 0.357532 0.847227
O O8 0.291612 0.697481 0.919130
O O9 0.000000 0.719046 0.946333
O O10 0.250000 0.750000 0.000000
O O11 0.735690 0.636508 0.653358
O O12 0.000000 0.619924 0.606337
O O13 0.500000 0.194421 0.196723
O O14 0.250000 0.173449 0.250000
O O15 0.247021 0.252507 0.183589
O O16 0.250000 0.668501 0.750000
O O17 0.000000 0.687017 0.804343
#
# Coordination Sequence:
#
# PCOD9477558 Si02
#       6
#    16  16  16  16  16  16
#     4   9  19  36  57  79 104 138 180 223 268 314
#     4  10  19  33  52  77 108 142 177 217 261 318
#     4  11  20  30  47  75 109 142 173 213 264 320
#     4  11  20  33  53  79 108 141 178 217 263 320
#     4  11  21  33  51  77 110 146 178 214 260 315
#     4  11  21  34  51  77 111 146 178 214 261 315
#
# _framework density 17.951982000000001
#
# number of rings (size 3 to 8) (size 9 to 14) (size 15 to 20)
#    0.000    1.500    3.333    5.000    0.000    0.667 
#    0.000    0.000    0.000    5.500    0.000    0.000 
#    0.000    0.000    0.000    0.000    0.000    0.000 
#
# Total GULP energy -267515.881940 kJ/mol
# GULP energy per Si atom -5573.247540 kJ/mol
# Density = 1.791112 g / cm^3
# Si number density = 17.951982 Si / 1000 Ang^3
#
#
#
# Elastic Constant Matrix: (Units=GPa)
#
#
# Indices 1 2 3 4 5 6 
#
# 1 89.3373 13.5069 48.1876 0.0000 0.0000 0.0000
# 2 13.5069 66.0789 55.0119 0.0000 0.0000 0.0000
# 3 48.1876 55.0119 175.4956 0.0000 0.0000 0.0000
# 4 0.0000 0.0000 0.0000 13.7204 0.0000 0.0000
# 5 0.0000 0.0000 0.0000 0.0000 22.0202 0.0000
# 6 0.0000 0.0000 0.0000 0.0000 0.0000 10.6614
#
#
#
# Elastic Compliance Matrix: (Units=1/GPa)
#
#
# Indices 1 2 3 4 5 6 
#
# 1 0.013149 0.000430 -0.003745 0.000000 0.000000 0.000000
# 2 0.000430 0.020491 -0.006542 0.000000 0.000000 0.000000
# 3 -0.003745 -0.006542 0.008777 0.000000 0.000000 0.000000
# 4 0.000000 0.000000 0.000000 0.072884 0.000000 0.000000
# 5 0.000000 0.000000 0.000000 0.000000 0.045413 0.000000
# 6 0.000000 0.000000 0.000000 0.000000 0.000000 0.093796
#
#
# Mechanical properties :
#
#
# Convention : Reuss Voigt Hill
#
# Bulk Modulus (GPa) = 44.04465 62.70273 53.37369
# Shear Modulus (GPa) = 17.74360 23.56074 20.65217
#
# Velocity S-wave (km/s) = 3.14728 3.62668 3.39545
# Velocity P-wave (km/s) = 6.14777 7.24851 6.72072
#
# Compressibility (1/GPa) = 0.02270423
#
# Stress axis : x y z
#
# Youngs Moduli (GPa) = 76.05356 48.80096 113.93327
#
# Poissons Ratio (x) = -0.02100 0.42671
# Poissons Ratio (y) = -0.03273 0.74530
# Poissons Ratio (z) = 0.28484 0.31923
#
# Static dielectric constant tensor:
#      x y z
#    x 1.607780 0.000000 0.000000 
#    y 0.000000 1.588680 0.000000 
#    z 0.000000 0.000000 1.678100 
# 
# From -- ./inp_files/43045.got.cif
#   From: 2010.05.17/outbox.cif.g08.bks.cpg/sg64_22_cif.got.tgz:43045.got - 2010.06.03 16:29:19.
