data_PCOD9477239
_publ_section_title
;
Structure prediction by ZEFSAII (Michael W. Deem and Ramdas Pophale) SiO2 
 PCOD9477239
Probable space group: C M C A
;
_chemical_formula_sum "Si O2"
_cell_formula_units_Z 80
_cell_length_a 7.630343
_cell_length_b 20.024949
_cell_length_c 26.338553
_cell_angle_alpha 90.000000
_cell_angle_beta 90.000000
_cell_angle_gamma 90.000000
_cell_volume 4024.457926
_symmetry_space_group_name_H-M "C M C A"
_symmetry_group_IT_number 64
_symmetry_cell_setting 'orthorhombic'
loop_
_space_group_symop_operation_xyz
x,y,z
-x,1/2-y,1/2+z
x,-y,-z
-x,1/2+y,1/2-z
-x,-y,-z
x,1/2+y,1/2-z
-x,y,z
x,1/2-y,1/2+z
1/2+x,1/2+y,z
1/2-x,-y,1/2+z
1/2+x,1/2-y,-z
1/2-x,y,1/2-z
1/2-x,1/2-y,-z
1/2+x,y,1/2-z
1/2-x,1/2+y,z
1/2+x,-y,1/2+z
loop_
_atom_site_type_symbol
_atom_site_label
_atom_site_fract_x
_atom_site_fract_y
_atom_site_fract_z
Si Si1 0.298209 0.102440 0.029251
Si Si2 0.204083 0.720395 0.398058
Si Si3 0.285140 0.869433 0.083744
Si Si4 0.208544 0.874201 0.690960
Si Si5 0.214424 0.990779 0.618475
O O1 0.500000 0.083058 0.020622
O O2 0.293039 0.170447 0.061944
O O3 0.224036 0.045785 0.066581
O O4 0.223835 0.115190 0.973674
O O5 0.272558 0.795815 0.399864
O O6 0.219428 0.686224 0.343077
O O7 0.000000 0.721692 0.412697
O O8 0.500000 0.868165 0.083927
O O9 0.231198 0.932342 0.117979
O O10 0.250000 0.870488 0.750000
O O11 0.271013 0.943235 0.664623
O O12 0.000000 0.871917 0.684781
O O13 0.000000 0.989621 0.617885
#
# Coordination Sequence:
#
# PCOD9477239 Si02
#       5
#    16  16  16  16  16
#     4   9  16  28  48  71  98 134 170 197 224 269
#     4  10  19  30  47  72 102 131 160 195 234 280
#     4   9  16  27  46  73 102 131 161 195 234 275
#     4  10  20  36  57  73  89 118 157 201 244 290
#     4   8  15  28  48  73  96 122 160 199 234 278
#
# _framework density 19.878454999999999
#
# number of rings (size 3 to 8) (size 9 to 14) (size 15 to 20)
#    0.000    2.800    0.000    3.600    0.000    2.400 
#    0.000    2.000    0.000   25.200    0.000    0.000 
#    0.000    0.000    0.000    0.000    0.000    0.000 
#
# Total GULP energy -223110.692234 kJ/mol
# GULP energy per Si atom -5577.767306 kJ/mol
# Density = 1.983321 g / cm^3
# Si number density = 19.878455 Si / 1000 Ang^3
#
#
#
# Elastic Constant Matrix: (Units=GPa)
#
#
# Indices 1 2 3 4 5 6 
#
# 1 42.0343 -4.9212 -10.5770 0.0000 0.0000 0.0000
# 2 -4.9212 151.6771 35.9833 0.0000 0.0000 0.0000
# 3 -10.5770 35.9833 87.5119 0.0000 0.0000 0.0000
# 4 0.0000 0.0000 0.0000 4.6308 0.0000 0.0000
# 5 0.0000 0.0000 0.0000 0.0000 9.8647 0.0000
# 6 0.0000 0.0000 0.0000 0.0000 0.0000 10.6745
#
#
#
# Elastic Compliance Matrix: (Units=1/GPa)
#
#
# Indices 1 2 3 4 5 6 
#
# 1 0.024538 0.000103 0.002924 0.000000 0.000000 0.000000
# 2 0.000103 0.007306 -0.002992 0.000000 0.000000 0.000000
# 3 0.002924 -0.002992 0.013011 0.000000 0.000000 0.000000
# 4 0.000000 0.000000 0.000000 0.215944 0.000000 0.000000
# 5 0.000000 0.000000 0.000000 0.000000 0.101371 0.000000
# 6 0.000000 0.000000 0.000000 0.000000 0.000000 0.093681
#
#
# Mechanical properties :
#
#
# Convention : Reuss Voigt Hill
#
# Bulk Modulus (GPa) = 22.26028 35.79929 29.02978
# Shear Modulus (GPa) = 10.62121 22.41656 16.51888
#
# Velocity S-wave (km/s) = 2.31402 3.36174 2.88582
# Velocity P-wave (km/s) = 4.28510 5.75470 5.07339
#
# Compressibility (1/GPa) = 0.04492307
#
# Stress axis : x y z
#
# Youngs Moduli (GPa) = 40.75353 136.87332 76.86098
#
# Poissons Ratio (x) = -0.01404 -0.22471
# Poissons Ratio (y) = -0.00418 0.22995
# Poissons Ratio (z) = -0.11915 0.40949
#
# Static dielectric constant tensor:
#      x y z
#    x 1.764500 0.000000 0.000000 
#    y 0.000000 1.712720 0.000000 
#    z 0.000000 0.000000 1.682430 
# 
# From -- ./inp_files/47771.got.cif
#   From: 2010.05.17/outbox.cif.g08.bks.cpg/sg64_24_cif.got.tgz:47771.got - 2010.06.03 16:29:19.
