data_PCOD9477739
_publ_section_title
;
Structure prediction by ZEFSAII (Michael W. Deem and Ramdas Pophale) SiO2 
 PCOD9477739
Probable space group: C M C A
;
_chemical_formula_sum "Si O2"
_cell_formula_units_Z 88
_cell_length_a 14.759476
_cell_length_b 32.462169
_cell_length_c 8.865042
_cell_angle_alpha 90.000000
_cell_angle_beta 90.000000
_cell_angle_gamma 90.000000
_cell_volume 4247.459740
_symmetry_space_group_name_H-M "C M C A"
_symmetry_group_IT_number 64
_symmetry_cell_setting 'orthorhombic'
loop_
_space_group_symop_operation_xyz
x,y,z
-x,1/2-y,1/2+z
x,-y,-z
-x,1/2+y,1/2-z
-x,-y,-z
x,1/2+y,1/2-z
-x,y,z
x,1/2-y,1/2+z
1/2+x,1/2+y,z
1/2-x,-y,1/2+z
1/2+x,1/2-y,-z
1/2-x,y,1/2-z
1/2-x,1/2-y,-z
1/2+x,y,1/2-z
1/2-x,1/2+y,z
1/2+x,-y,1/2+z
loop_
_atom_site_type_symbol
_atom_site_label
_atom_site_fract_x
_atom_site_fract_y
_atom_site_fract_z
Si Si1 0.737412 0.439077 0.511413
Si Si2 0.601505 0.619982 0.016661
Si Si3 0.849106 0.628519 0.817360
Si Si4 0.250000 0.001064 0.750000
Si Si5 0.392136 0.790140 0.997474
Si Si6 0.389308 0.707245 0.156715
O O1 0.820000 0.410920 0.569370
O O2 0.664094 0.409673 0.431725
O O3 0.782776 0.467231 0.378723
O O4 0.698033 0.468819 0.640690
O O5 0.500000 0.611886 0.076962
O O6 0.597192 0.618444 0.834612
O O7 0.630972 0.665948 0.064552
O O8 0.750000 0.636779 0.750000
O O9 0.879592 0.669028 0.904262
O O10 0.500000 0.783895 0.982565
O O11 0.356429 0.749037 0.078086
O O12 0.355943 0.795553 0.828400
O O13 0.500000 0.709084 0.160022
#
# Coordination Sequence:
#
# PCOD9477739 Si02
#       6
#    16  16  16   8  16  16
#     4  10  21  38  62  84 106 149 182 222 282 341
#     4  10  19  36  58  84 115 145 185 232 271 321
#     4  10  20  36  53  83 112 146 189 224 275 330
#     4  10  20  40  62  78 108 142 182 218 278 350
#     4  10  19  34  55  78 110 153 189 226 269 323
#     4   9  19  33  54  82 111 148 188 222 273 323
#
# _framework density 20.718266
#
# number of rings (size 3 to 8) (size 9 to 14) (size 15 to 20)
#    0.000    2.182    2.727    1.636    2.545    2.909 
#    0.000   10.000    0.000    3.273    0.000    0.000 
#    0.000    0.000    0.000    0.000    0.000    0.000 
#
# Total GULP energy -245098.825601 kJ/mol
# GULP energy per Si atom -5570.427855 kJ/mol
# Density = 2.067111 g / cm^3
# Si number density = 20.718266 Si / 1000 Ang^3
#
#
#
# Elastic Constant Matrix: (Units=GPa)
#
#
# Indices 1 2 3 4 5 6 
#
# 1 25.0187 -4.2586 -14.8729 0.0000 0.0000 0.0000
# 2 -4.2586 126.5886 30.5494 0.0000 0.0000 0.0000
# 3 -14.8729 30.5494 56.6159 0.0000 0.0000 0.0000
# 4 0.0000 0.0000 0.0000 -2.3157 0.0000 0.0000
# 5 0.0000 0.0000 0.0000 0.0000 9.5227 0.0000
# 6 0.0000 0.0000 0.0000 0.0000 0.0000 -34.4039
#
#
#
# Elastic Compliance Matrix: (Units=1/GPa)
#
#
# Indices 1 2 3 4 5 6 
#
# 1 0.047658 -0.001630 0.013399 0.000000 0.000000 0.000000
# 2 -0.001630 0.009138 -0.005359 0.000000 0.000000 0.000000
# 3 0.013399 -0.005359 0.024075 0.000000 0.000000 0.000000
# 4 0.000000 0.000000 0.000000 -0.431836 0.000000 0.000000
# 5 0.000000 0.000000 0.000000 0.000000 0.105012 0.000000
# 6 0.000000 0.000000 0.000000 0.000000 0.000000 -0.029066
#
#
# Mechanical properties :
#
#
# Convention : Reuss Voigt Hill
#
# Bulk Modulus (GPa) = 10.67341 25.67322 18.17331
# Shear Modulus (GPa) = -19.48483 7.68099 -5.90192
#
# Velocity S-wave (km/s) = -3.07003 1.92754 -1.68963
# Velocity P-wave (km/s) = 2.72101 4.16802 2.23254
#
# Compressibility (1/GPa) = 0.09369078
#
# Stress axis : x y z
#
# Youngs Moduli (GPa) = 20.98275 109.43242 41.53756
#
# Poissons Ratio (x) = 0.17841 -0.55658
# Poissons Ratio (y) = 0.03421 0.22260
# Poissons Ratio (z) = -0.28116 0.58646
#
# Static dielectric constant tensor:
#      x y z
#    x 1.790940 0.000000 0.000000 
#    y 0.000000 1.732750 0.000000 
#    z 0.000000 0.000000 1.776430 
# 
# From -- ./inp_files/7344.got.cif
#   From: 2010.05.17/outbox.cif.g08.bks.cpg/sg64_4_cif.got.tgz:7344.got - 2010.06.03 16:29:19.
