data_PCOD9477205
_publ_section_title
;
Structure prediction by ZEFSAII (Michael W. Deem and Ramdas Pophale) SiO2 
 PCOD9477205
Probable space group: C M C A
;
_chemical_formula_sum "Si O2"
_cell_formula_units_Z 56
_cell_length_a 16.798761
_cell_length_b 8.049889
_cell_length_c 21.165336
_cell_angle_alpha 90.000000
_cell_angle_beta 90.000000
_cell_angle_gamma 90.000000
_cell_volume 2862.149472
_symmetry_space_group_name_H-M "C M C A"
_symmetry_group_IT_number 64
_symmetry_cell_setting 'orthorhombic'
loop_
_space_group_symop_operation_xyz
x,y,z
-x,1/2-y,1/2+z
x,-y,-z
-x,1/2+y,1/2-z
-x,-y,-z
x,1/2+y,1/2-z
-x,y,z
x,1/2-y,1/2+z
1/2+x,1/2+y,z
1/2-x,-y,1/2+z
1/2+x,1/2-y,-z
1/2-x,y,1/2-z
1/2-x,1/2-y,-z
1/2+x,y,1/2-z
1/2-x,1/2+y,z
1/2+x,-y,1/2+z
loop_
_atom_site_type_symbol
_atom_site_label
_atom_site_fract_x
_atom_site_fract_y
_atom_site_fract_z
Si Si1 0.500000 0.964389 0.288727
Si Si2 0.592266 0.545520 0.430324
Si Si3 0.750000 0.007787 0.250000
Si Si4 0.343445 0.737863 0.824352
Si Si5 0.000000 0.831570 0.345275
O O1 0.576229 0.859818 0.310183
O O2 0.500000 0.960912 0.212729
O O3 0.500000 0.147556 0.318209
O O4 0.620479 0.500000 0.500000
O O5 0.500000 0.612404 0.436267
O O6 0.646142 0.672452 0.391243
O O7 0.575880 0.380321 0.388242
O O8 0.725592 0.895251 0.309665
O O9 0.676851 0.121637 0.227820
#
# Coordination Sequence:
#
# PCOD9477205 Si02
#       5
#     8  16   8  16   8
#     4  12  20  33  64  88 108 147 199 240 289 334
#     4   9  19  38  59  83 118 149 193 243 284 328
#     4  10  24  36  58  86 126 144 186 238 308 336
#     4  11  21  39  57  87 116 154 187 241 288 348
#     4  10  19  29  53  94 115 133 184 246 293 324
#
# _framework density 19.565715999999998
#
# number of rings (size 3 to 8) (size 9 to 14) (size 15 to 20)
#    0.857    0.857    1.429    5.143    0.000    2.286 
#    0.000    4.286    0.000    0.000    0.000    0.000 
#    0.000    0.000    0.000    0.000    0.000    0.000 
#
# Total GULP energy -156056.068211 kJ/mol
# GULP energy per Si atom -5573.431008 kJ/mol
# Density = 1.952118 g / cm^3
# Si number density = 19.565716 Si / 1000 Ang^3
#
#
#
# Elastic Constant Matrix: (Units=GPa)
#
#
# Indices 1 2 3 4 5 6 
#
# 1 59.7354 44.7237 18.4102 0.0000 0.0000 0.0000
# 2 44.7237 133.5956 68.5594 0.0000 0.0000 0.0000
# 3 18.4102 68.5594 138.5270 0.0000 0.0000 0.0000
# 4 0.0000 0.0000 0.0000 11.2716 0.0000 0.0000
# 5 0.0000 0.0000 0.0000 0.0000 24.3072 0.0000
# 6 0.0000 0.0000 0.0000 0.0000 0.0000 9.2802
#
#
#
# Elastic Compliance Matrix: (Units=1/GPa)
#
#
# Indices 1 2 3 4 5 6 
#
# 1 0.022440 -0.008018 0.000986 0.000000 0.000000 0.000000
# 2 -0.008018 0.012899 -0.005318 0.000000 0.000000 0.000000
# 3 0.000986 -0.005318 0.009720 0.000000 0.000000 0.000000
# 4 0.000000 0.000000 0.000000 0.088718 0.000000 0.000000
# 5 0.000000 0.000000 0.000000 0.000000 0.041140 0.000000
# 6 0.000000 0.000000 0.000000 0.000000 0.000000 0.107756
#
#
# Mechanical properties :
#
#
# Convention : Reuss Voigt Hill
#
# Bulk Modulus (GPa) = 49.12130 66.13827 57.62979
# Shear Modulus (GPa) = 15.91550 22.31613 19.11581
#
# Velocity S-wave (km/s) = 2.85518 3.38090 3.12910
# Velocity P-wave (km/s) = 6.00247 7.00837 6.52483
#
# Compressibility (1/GPa) = 0.02035777
#
# Stress axis : x y z
#
# Youngs Moduli (GPa) = 44.56373 77.52695 102.88251
#
# Poissons Ratio (x) = 0.62163 -0.10145
# Poissons Ratio (y) = 0.35732 0.54715
# Poissons Ratio (z) = -0.04394 0.41230
#
# Static dielectric constant tensor:
#      x y z
#    x 1.727090 0.000000 0.000000 
#    y 0.000000 1.711200 0.000000 
#    z 0.000000 0.000000 1.677630 
# 
# From -- ./inp_files/33857.got.cif
#   From: 2010.05.17/outbox.cif.g08.bks.cpg/sg64_17_cif.got.tgz:33857.got - 2010.06.03 16:29:19.
