data_PCOD9477428
_publ_section_title
;
Structure prediction by ZEFSAII (Michael W. Deem and Ramdas Pophale) SiO2 
 PCOD9477428
Probable space group: C M C A
;
_chemical_formula_sum "Si O2"
_cell_formula_units_Z 80
_cell_length_a 8.735437
_cell_length_b 26.266628
_cell_length_c 20.410782
_cell_angle_alpha 90.000000
_cell_angle_beta 90.000000
_cell_angle_gamma 90.000000
_cell_volume 4683.263607
_symmetry_space_group_name_H-M "C M C A"
_symmetry_group_IT_number 64
_symmetry_cell_setting 'orthorhombic'
loop_
_space_group_symop_operation_xyz
x,y,z
-x,1/2-y,1/2+z
x,-y,-z
-x,1/2+y,1/2-z
-x,-y,-z
x,1/2+y,1/2-z
-x,y,z
x,1/2-y,1/2+z
1/2+x,1/2+y,z
1/2-x,-y,1/2+z
1/2+x,1/2-y,-z
1/2-x,y,1/2-z
1/2-x,1/2-y,-z
1/2+x,y,1/2-z
1/2-x,1/2+y,z
1/2+x,-y,1/2+z
loop_
_atom_site_type_symbol
_atom_site_label
_atom_site_fract_x
_atom_site_fract_y
_atom_site_fract_z
Si Si1 0.816440 0.845517 0.398606
Si Si2 0.684359 0.022495 0.430009
Si Si3 0.316399 0.131111 0.050388
Si Si4 0.816054 0.241996 0.426996
Si Si5 0.315981 0.559914 0.821790
O O1 0.772815 0.861371 0.473525
O O2 0.753496 0.788629 0.386520
O O3 0.746509 0.887036 0.350404
O O4 0.000000 0.845285 0.394880
O O5 0.500000 0.023407 0.431327
O O6 0.743464 0.079744 0.423145
O O7 0.737863 0.000000 0.500000
O O8 0.732199 0.984603 0.372159
O O9 0.500000 0.126566 0.051988
O O10 0.275046 0.183349 0.088237
O O11 0.750000 0.250000 0.500000
O O12 0.000000 0.245973 0.428398
O O13 0.500000 0.561503 0.819930
O O14 0.250000 0.550841 0.750000
#
# Coordination Sequence:
#
# PCOD9477428 Si02
#       5
#    16  16  16  16  16
#     4  10  19  32  51  77 106 139 176 217 268 320
#     4  10  20  34  53  78 106 139 179 224 273 321
#     4   9  18  30  49  78 108 138 173 217 266 314
#     4   9  17  29  46  74 107 138 171 211 262 315
#     4  11  23  38  55  77 107 143 180 222 271 326
#
# _framework density 17.082104999999999
#
# number of rings (size 3 to 8) (size 9 to 14) (size 15 to 20)
#    0.000    2.200    2.000    3.000    0.000    6.000 
#    0.000    0.000    0.000    1.200    0.000    2.800 
#    0.000    0.000    0.000    0.000    0.000    0.000 
#
# Total GULP energy -223042.264610 kJ/mol
# GULP energy per Si atom -5576.056615 kJ/mol
# Density = 1.704322 g / cm^3
# Si number density = 17.082105 Si / 1000 Ang^3
#
#
#
# Elastic Constant Matrix: (Units=GPa)
#
#
# Indices 1 2 3 4 5 6 
#
# 1 42.4191 45.6041 32.6449 0.0000 0.0000 0.0000
# 2 45.6041 188.2841 72.4545 0.0000 0.0000 0.0000
# 3 32.6449 72.4545 90.9011 0.0000 0.0000 0.0000
# 4 0.0000 0.0000 0.0000 18.5550 0.0000 0.0000
# 5 0.0000 0.0000 0.0000 0.0000 21.3073 0.0000
# 6 0.0000 0.0000 0.0000 0.0000 0.0000 35.4753
#
#
#
# Elastic Compliance Matrix: (Units=1/GPa)
#
#
# Indices 1 2 3 4 5 6 
#
# 1 0.036027 -0.005405 -0.008630 0.000000 0.000000 0.000000
# 2 -0.005405 0.008472 -0.004812 0.000000 0.000000 0.000000
# 3 -0.008630 -0.004812 0.017935 0.000000 0.000000 0.000000
# 4 0.000000 0.000000 0.000000 0.053894 0.000000 0.000000
# 5 0.000000 0.000000 0.000000 0.000000 0.046932 0.000000
# 6 0.000000 0.000000 0.000000 0.000000 0.000000 0.028189
#
#
# Mechanical properties :
#
#
# Convention : Reuss Voigt Hill
#
# Bulk Modulus (GPa) = 40.41907 69.22347 54.82127
# Shear Modulus (GPa) = 21.06253 26.46090 23.76171
#
# Velocity S-wave (km/s) = 3.51524 3.94006 3.73370
# Velocity P-wave (km/s) = 6.33947 7.83011 7.12389
#
# Compressibility (1/GPa) = 0.02474080
#
# Stress axis : x y z
#
# Youngs Moduli (GPa) = 27.75726 118.03824 55.75590
#
# Poissons Ratio (x) = 0.63800 0.48117
# Poissons Ratio (y) = 0.15003 0.26827
# Poissons Ratio (z) = 0.23954 0.56795
#
# Static dielectric constant tensor:
#      x y z
#    x 1.573410 0.000000 0.000000 
#    y 0.000000 1.601000 0.000000 
#    z 0.000000 0.000000 3.708430 
# 
# From -- ./inp_files/29750.got.cif
#   From: 2010.05.17/outbox.cif.g08.bks.cpg/sg64_15_cif.got.tgz:29750.got - 2010.06.03 16:29:19.
