data_PCOD9477043
_publ_section_title
;
Structure prediction by ZEFSAII (Michael W. Deem and Ramdas Pophale) SiO2 
 PCOD9477043
Probable space group: C M C A
;
_chemical_formula_sum "Si O2"
_cell_formula_units_Z 96
_cell_length_a 8.385586
_cell_length_b 25.323813
_cell_length_c 22.069013
_cell_angle_alpha 90.000000
_cell_angle_beta 90.000000
_cell_angle_gamma 90.000000
_cell_volume 4686.465515
_symmetry_space_group_name_H-M "C M C A"
_symmetry_group_IT_number 64
_symmetry_cell_setting 'orthorhombic'
loop_
_space_group_symop_operation_xyz
x,y,z
-x,1/2-y,1/2+z
x,-y,-z
-x,1/2+y,1/2-z
-x,-y,-z
x,1/2+y,1/2-z
-x,y,z
x,1/2-y,1/2+z
1/2+x,1/2+y,z
1/2-x,-y,1/2+z
1/2+x,1/2-y,-z
1/2-x,y,1/2-z
1/2-x,1/2-y,-z
1/2+x,y,1/2-z
1/2-x,1/2+y,z
1/2+x,-y,1/2+z
loop_
_atom_site_type_symbol
_atom_site_label
_atom_site_fract_x
_atom_site_fract_y
_atom_site_fract_z
Si Si1 0.810727 0.455211 0.312593
Si Si2 0.188450 0.929338 0.840199
Si Si3 0.306604 0.742067 0.569483
Si Si4 0.685961 0.875826 0.087932
Si Si5 0.693602 0.687168 0.184987
Si Si6 0.312943 0.940438 0.516254
O O1 0.750000 0.431565 0.250000
O O2 0.741424 0.514787 0.318530
O O3 0.765585 0.417980 0.367894
O O4 0.000000 0.459814 0.311804
O O5 0.255111 0.873483 0.818417
O O6 0.198592 0.931205 0.912710
O O7 0.000000 0.929059 0.824161
O O8 0.500000 0.743177 0.567446
O O9 0.250000 0.750000 0.500000
O O10 0.252380 0.683771 0.590431
O O11 0.257225 0.782734 0.622908
O O12 0.500000 0.874757 0.102664
O O13 0.714138 0.898061 0.020821
O O14 0.500000 0.687016 0.184728
O O15 0.750000 0.709740 0.250000
O O16 0.500000 0.935760 0.498606
O O17 0.262185 0.000000 0.500000
#
# Coordination Sequence:
#
# PCOD9477043 Si02
#       6
#    16  16  16  16  16  16
#     4  11  22  38  57  82 114 153 194 237 288 352
#     4   9  18  34  58  85 115 149 191 238 291 352
#     4  10  23  42  64  89 120 156 203 254 304 360
#     4  11  23  38  56  86 120 151 189 239 295 355
#     4  10  21  39  61  86 117 155 200 252 302 357
#     4  10  18  34  59  85 114 153 195 233 285 358
#
# _framework density 20.484521000000001
#
# number of rings (size 3 to 8) (size 9 to 14) (size 15 to 20)
#    0.000    1.833    1.667    2.500    0.000    4.333 
#    0.000    3.333    0.000    0.000    0.000    0.000 
#    0.000    0.000    0.000    0.000    0.000    0.000 
#
# Total GULP energy -267909.511399 kJ/mol
# GULP energy per Si atom -5581.448154 kJ/mol
# Density = 2.043790 g / cm^3
# Si number density = 20.484521 Si / 1000 Ang^3
#
#
#
# Elastic Constant Matrix: (Units=GPa)
#
#
# Indices 1 2 3 4 5 6 
#
# 1 15.0108 15.8636 12.4928 0.0000 0.0000 0.0000
# 2 15.8636 115.8672 54.1277 0.0000 0.0000 0.0000
# 3 12.4928 54.1277 106.1156 0.0000 0.0000 0.0000
# 4 0.0000 0.0000 0.0000 -9.7531 0.0000 0.0000
# 5 0.0000 0.0000 0.0000 0.0000 32.5071 0.0000
# 6 0.0000 0.0000 0.0000 0.0000 0.0000 -9.5011
#
#
#
# Elastic Compliance Matrix: (Units=1/GPa)
#
#
# Indices 1 2 3 4 5 6 
#
# 1 0.079877 -0.008590 -0.005022 0.000000 0.000000 0.000000
# 2 -0.008590 0.012254 -0.005239 0.000000 0.000000 0.000000
# 3 -0.005022 -0.005239 0.012687 0.000000 0.000000 0.000000
# 4 0.000000 0.000000 0.000000 -0.102531 0.000000 0.000000
# 5 0.000000 0.000000 0.000000 0.000000 0.030763 0.000000
# 6 0.000000 0.000000 0.000000 0.000000 0.000000 -0.105251
#
#
# Mechanical properties :
#
#
# Convention : Reuss Voigt Hill
#
# Bulk Modulus (GPa) = 14.89974 44.66243 29.78108
# Shear Modulus (GPa) = -412.31894 12.95119 -199.68387
#
# Velocity S-wave (km/s) = -14.20282 2.51717 -9.88393
# Velocity P-wave (km/s) = 16.17624 5.50441 10.75575
#
# Compressibility (1/GPa) = 0.06711527
#
# Stress axis : x y z
#
# Youngs Moduli (GPa) = 12.51931 81.60452 78.81799
#
# Poissons Ratio (x) = 0.70098 0.39584
# Poissons Ratio (y) = 0.10754 0.41296
# Poissons Ratio (z) = 0.06287 0.42756
#
# Static dielectric constant tensor:
#      x y z
#    x 1.730480 0.000000 0.000000 
#    y 0.000000 1.756080 0.000000 
#    z 0.000000 0.000000 1.800850 
# 
# From -- ./inp_files/37011.got.cif
#   From: 2010.05.17/outbox.cif.g08.bks.cpg/sg64_19_cif.got.tgz:37011.got - 2010.06.03 16:29:19.
