data_PCOD9477397
_publ_section_title
;
Structure prediction by ZEFSAII (Michael W. Deem and Ramdas Pophale) SiO2 
 PCOD9477397
Probable space group: C M C A
;
_chemical_formula_sum "Si O2"
_cell_formula_units_Z 96
_cell_length_a 8.505151
_cell_length_b 24.383378
_cell_length_c 26.876001
_cell_angle_alpha 90.000000
_cell_angle_beta 90.000000
_cell_angle_gamma 90.000000
_cell_volume 5573.660971
_symmetry_space_group_name_H-M "C M C A"
_symmetry_group_IT_number 64
_symmetry_cell_setting 'orthorhombic'
loop_
_space_group_symop_operation_xyz
x,y,z
-x,1/2-y,1/2+z
x,-y,-z
-x,1/2+y,1/2-z
-x,-y,-z
x,1/2+y,1/2-z
-x,y,z
x,1/2-y,1/2+z
1/2+x,1/2+y,z
1/2-x,-y,1/2+z
1/2+x,1/2-y,-z
1/2-x,y,1/2-z
1/2-x,1/2-y,-z
1/2+x,y,1/2-z
1/2-x,1/2+y,z
1/2+x,-y,1/2+z
loop_
_atom_site_type_symbol
_atom_site_label
_atom_site_fract_x
_atom_site_fract_y
_atom_site_fract_z
Si Si1 0.311908 0.853283 0.429316
Si Si2 0.688491 0.175650 0.463013
Si Si3 0.689465 0.416665 0.606743
Si Si4 0.811912 0.336524 0.805469
Si Si5 0.310530 0.524836 0.554112
Si Si6 0.811692 0.755425 0.376186
O O1 0.500000 0.849995 0.428205
O O2 0.250951 0.825614 0.480889
O O3 0.262134 0.916489 0.433227
O O4 0.244854 0.817388 0.384085
O O5 0.500000 0.180282 0.464863
O O6 0.735439 0.118720 0.437406
O O7 0.748139 0.221607 0.424869
O O8 0.500000 0.412153 0.602974
O O9 0.738066 0.386443 0.657731
O O10 0.730106 0.479567 0.596001
O O11 0.750000 0.343605 0.750000
O O12 0.750924 0.279961 0.830023
O O13 0.000000 0.335240 0.805014
O O14 0.263046 0.500000 0.500000
O O15 0.500000 0.531014 0.552398
O O16 0.000000 0.753915 0.375210
#
# Coordination Sequence:
#
# PCOD9477397 Si02
#       6
#    16  16  16  16  16  16
#     4  11  21  31  46  72 106 142 176 212 254 304
#     4   9  18  30  46  70 102 137 172 210 253 301
#     4   9  18  32  51  75 102 134 173 214 254 303
#     4  10  20  36  58  81 103 128 164 213 266 314
#     4  10  19  32  50  72 102 142 182 214 251 306
#     4  10  20  34  51  73 101 135 173 213 258 309
#
# _framework density 17.223866999999998
#
# number of rings (size 3 to 8) (size 9 to 14) (size 15 to 20)
#    0.000    2.167    1.667    2.000    0.000    3.000 
#    0.000    0.000    0.000    1.000    0.000    4.667 
#    0.000    0.000    0.000    0.000    0.000    0.000 
#
# Total GULP energy -267639.414180 kJ/mol
# GULP energy per Si atom -5575.821129 kJ/mol
# Density = 1.718466 g / cm^3
# Si number density = 17.223867 Si / 1000 Ang^3
#
#
#
# Elastic Constant Matrix: (Units=GPa)
#
#
# Indices 1 2 3 4 5 6 
#
# 1 23.7397 16.7400 20.3453 0.0000 0.0000 0.0000
# 2 16.7400 71.7675 34.0585 0.0000 0.0000 0.0000
# 3 20.3453 34.0585 93.5747 0.0000 0.0000 0.0000
# 4 0.0000 0.0000 0.0000 13.5874 0.0000 0.0000
# 5 0.0000 0.0000 0.0000 0.0000 21.6378 0.0000
# 6 0.0000 0.0000 0.0000 0.0000 0.0000 26.7375
#
#
#
# Elastic Compliance Matrix: (Units=1/GPa)
#
#
# Indices 1 2 3 4 5 6 
#
# 1 0.056027 -0.008809 -0.008975 0.000000 0.000000 0.000000
# 2 -0.008809 0.018228 -0.004719 0.000000 0.000000 0.000000
# 3 -0.008975 -0.004719 0.014356 0.000000 0.000000 0.000000
# 4 0.000000 0.000000 0.000000 0.073597 0.000000 0.000000
# 5 0.000000 0.000000 0.000000 0.000000 0.046215 0.000000
# 6 0.000000 0.000000 0.000000 0.000000 0.000000 0.037401
#
#
# Mechanical properties :
#
#
# Convention : Reuss Voigt Hill
#
# Bulk Modulus (GPa) = 22.93377 36.81885 29.87631
# Shear Modulus (GPa) = 16.37375 20.25509 18.31442
#
# Velocity S-wave (km/s) = 3.08659 3.43299 3.26439
# Velocity P-wave (km/s) = 5.10360 6.09401 5.62066
#
# Compressibility (1/GPa) = 0.04360383
#
# Stress axis : x y z
#
# Youngs Moduli (GPa) = 17.84844 54.85994 69.65835
#
# Poissons Ratio (x) = 0.48327 0.62521
# Poissons Ratio (y) = 0.15723 0.32874
# Poissons Ratio (z) = 0.16020 0.25890
#
# Static dielectric constant tensor:
#      x y z
#    x 1.578170 0.000000 0.000000 
#    y 0.000000 1.603490 0.000000 
#    z 0.000000 0.000000 1.583000 
# 
# From -- ./inp_files/42950.got.cif
#   From: 2010.05.17/outbox.cif.g08.bks.cpg/sg64_22_cif.got.tgz:42950.got - 2010.06.03 16:29:19.
