data_PCOD9477095
_publ_section_title
;
Structure prediction by ZEFSAII (Michael W. Deem and Ramdas Pophale) SiO2 
 PCOD9477095
Probable space group: C M C A
;
_chemical_formula_sum "Si O2"
_cell_formula_units_Z 88
_cell_length_a 22.731802
_cell_length_b 12.813660
_cell_length_c 11.533762
_cell_angle_alpha 90.000000
_cell_angle_beta 90.000000
_cell_angle_gamma 90.000000
_cell_volume 3359.526307
_symmetry_space_group_name_H-M "C M C A"
_symmetry_group_IT_number 64
_symmetry_cell_setting 'orthorhombic'
loop_
_space_group_symop_operation_xyz
x,y,z
-x,1/2-y,1/2+z
x,-y,-z
-x,1/2+y,1/2-z
-x,-y,-z
x,1/2+y,1/2-z
-x,y,z
x,1/2-y,1/2+z
1/2+x,1/2+y,z
1/2-x,-y,1/2+z
1/2+x,1/2-y,-z
1/2-x,y,1/2-z
1/2-x,1/2-y,-z
1/2+x,y,1/2-z
1/2-x,1/2+y,z
1/2+x,-y,1/2+z
loop_
_atom_site_type_symbol
_atom_site_label
_atom_site_fract_x
_atom_site_fract_y
_atom_site_fract_z
Si Si1 0.128412 0.073020 0.140099
Si Si2 0.804535 0.284888 0.080710
Si Si3 0.631667 0.144260 0.700974
Si Si4 0.124920 0.122564 0.396840
Si Si5 0.000000 0.845153 0.564572
Si Si6 0.500000 0.149942 0.710916
Si Si7 0.500000 0.364661 0.941599
O O1 0.162145 0.174248 0.095954
O O2 0.142590 0.069965 0.278224
O O3 0.059975 0.098549 0.117072
O O4 0.141835 0.952052 0.113416
O O5 0.815159 0.331681 0.210576
O O6 0.750000 0.250000 0.000000
O O7 0.833370 0.377471 0.005673
O O8 0.623045 0.252357 0.632070
O O9 0.565807 0.125042 0.756935
O O10 0.059445 0.093045 0.430373
O O11 0.000000 0.773559 0.681824
O O12 0.000000 0.761832 0.458746
O O13 0.500000 0.103148 0.578277
#
# Coordination Sequence:
#
# PCOD9477095 Si02
#       7
#    16  16  16  16   8   8   8
#     4  11  22  38  67  97 132 173 224 280 341 413
#     4  11  25  45  65  88 130 178 226 282 341 403
#     4  10  22  39  64  99 130 168 225 278 339 414
#     4  10  21  40  60  94 129 171 216 274 342 412
#     4   8  15  33  58  90 126 169 203 256 341 418
#     4   8  17  34  61  98 137 167 208 277 339 407
#     4  10  18  35  64 103 134 172 215 272 355 431
#
# _framework density 26.19417
#
# number of rings (size 3 to 8) (size 9 to 14) (size 15 to 20)
#    0.545    1.455    1.818    1.091    0.000   10.182 
#    0.000    5.455    0.000    3.273    0.000    0.000 
#    0.000    0.000    0.000    0.000    0.000    0.000 
#
# Total GULP energy -245562.162499 kJ/mol
# GULP energy per Si atom -5580.958239 kJ/mol
# Density = 2.613455 g / cm^3
# Si number density = 26.194170 Si / 1000 Ang^3
#
#
#
# Elastic Constant Matrix: (Units=GPa)
#
#
# Indices 1 2 3 4 5 6 
#
# 1 128.0128 17.2444 41.7782 0.0000 0.0000 0.0000
# 2 17.2444 123.3626 19.9145 0.0000 0.0000 0.0000
# 3 41.7782 19.9145 79.1342 0.0000 0.0000 0.0000
# 4 0.0000 0.0000 0.0000 51.3826 0.0000 0.0000
# 5 0.0000 0.0000 0.0000 0.0000 32.2937 0.0000
# 6 0.0000 0.0000 0.0000 0.0000 0.0000 -2.9900
#
#
#
# Elastic Compliance Matrix: (Units=1/GPa)
#
#
# Indices 1 2 3 4 5 6 
#
# 1 0.009472 -0.000539 -0.004865 0.000000 0.000000 0.000000
# 2 -0.000539 0.008480 -0.001850 0.000000 0.000000 0.000000
# 3 -0.004865 -0.001850 0.015671 0.000000 0.000000 0.000000
# 4 0.000000 0.000000 0.000000 0.019462 0.000000 0.000000
# 5 0.000000 0.000000 0.000000 0.000000 0.030966 0.000000
# 6 0.000000 0.000000 0.000000 0.000000 0.000000 -0.334454
#
#
# Mechanical properties :
#
#
# Convention : Reuss Voigt Hill
#
# Bulk Modulus (GPa) = 52.31239 54.26488 53.28863
# Shear Modulus (GPa) = -21.78420 32.90878 5.56229
#
# Velocity S-wave (km/s) = -2.88695 3.54833 1.45880
# Velocity P-wave (km/s) = 2.98357 6.12772 4.81927
#
# Compressibility (1/GPa) = 0.01911593
#
# Stress axis : x y z
#
# Youngs Moduli (GPa) = 105.57355 117.92345 63.81324
#
# Poissons Ratio (x) = 0.06352 0.31046
# Poissons Ratio (y) = 0.05687 0.11803
# Poissons Ratio (z) = 0.51363 0.21812
#
# Static dielectric constant tensor:
#      x y z
#    x 2.104620 0.000000 0.000000 
#    y 0.000000 2.131470 0.000000 
#    z 0.000000 0.000000 2.153710 
# 
# From -- ./inp_files/18255.got.cif
#   From: 2010.05.17/outbox.cif.g08.bks.cpg/sg64_10_cif.got.tgz:18255.got - 2010.06.03 16:29:19.
