data_PCOD9477285
_publ_section_title
;
Structure prediction by ZEFSAII (Michael W. Deem and Ramdas Pophale) SiO2 
 PCOD9477285
Probable space group: C M C A
;
_chemical_formula_sum "Si O2"
_cell_formula_units_Z 96
_cell_length_a 24.607827
_cell_length_b 8.271153
_cell_length_c 24.072275
_cell_angle_alpha 90.000000
_cell_angle_beta 90.000000
_cell_angle_gamma 90.000000
_cell_volume 4899.552950
_symmetry_space_group_name_H-M "C M C A"
_symmetry_group_IT_number 64
_symmetry_cell_setting 'orthorhombic'
loop_
_space_group_symop_operation_xyz
x,y,z
-x,1/2-y,1/2+z
x,-y,-z
-x,1/2+y,1/2-z
-x,-y,-z
x,1/2+y,1/2-z
-x,y,z
x,1/2-y,1/2+z
1/2+x,1/2+y,z
1/2-x,-y,1/2+z
1/2+x,1/2-y,-z
1/2-x,y,1/2-z
1/2-x,1/2-y,-z
1/2+x,y,1/2-z
1/2-x,1/2+y,z
1/2+x,-y,1/2+z
loop_
_atom_site_type_symbol
_atom_site_label
_atom_site_fract_x
_atom_site_fract_y
_atom_site_fract_z
Si Si1 0.642178 0.126049 0.090645
Si Si2 0.838819 0.684102 0.478897
Si Si3 0.061652 0.874817 0.447407
Si Si4 0.341141 0.133429 0.667949
Si Si5 0.223029 0.861532 0.378840
Si Si6 0.192148 0.341924 0.728402
O O1 0.620023 0.279185 0.124788
O O2 0.597055 0.986877 0.092908
O O3 0.694674 0.035566 0.115370
O O4 0.661074 0.191349 0.030765
O O5 0.829231 0.500000 0.500000
O O6 0.900652 0.717405 0.457428
O O7 0.797941 0.753357 0.431307
O O8 0.000000 0.837048 0.431942
O O9 0.059380 0.000000 0.500000
O O10 0.287058 0.113265 0.629703
O O11 0.331528 0.257343 0.717946
O O12 0.348264 0.967572 0.699730
O O13 0.205174 0.781563 0.320972
O O14 0.250000 0.416229 0.750000
#
# Coordination Sequence:
#
# PCOD9477285 Si02
#       6
#    16  16  16  16  16  16
#     4  10  20  33  51  75 102 137 174 207 255 313
#     4  10  20  33  49  74 105 135 173 212 258 319
#     4   8  16  33  54  74  99 130 166 211 256 299
#     4  11  20  32  49  71  99 131 171 214 253 298
#     4  10  19  32  47  67 100 136 170 209 249 295
#     4  10  19  31  48  69  95 131 175 215 249 289
#
# _framework density 19.593623999999998
#
# number of rings (size 3 to 8) (size 9 to 14) (size 15 to 20)
#    0.000    2.167    0.000    7.000    0.000    1.000 
#    0.000    4.167    0.000    0.000    0.000   10.500 
#    0.000    0.000    0.000    0.000    0.000    0.000 
#
# Total GULP energy -267404.499742 kJ/mol
# GULP energy per Si atom -5570.927078 kJ/mol
# Density = 1.954903 g / cm^3
# Si number density = 19.593624 Si / 1000 Ang^3
#
#
#
# Elastic Constant Matrix: (Units=GPa)
#
#
# Indices 1 2 3 4 5 6 
#
# 1 36.2644 1.0275 6.1180 0.0000 0.0000 0.0000
# 2 1.0275 74.7018 18.5127 0.0000 0.0000 0.0000
# 3 6.1180 18.5127 89.0011 0.0000 0.0000 0.0000
# 4 0.0000 0.0000 0.0000 40.0052 0.0000 0.0000
# 5 0.0000 0.0000 0.0000 0.0000 2.5491 0.0000
# 6 0.0000 0.0000 0.0000 0.0000 0.0000 14.7330
#
#
#
# Elastic Compliance Matrix: (Units=1/GPa)
#
#
# Indices 1 2 3 4 5 6 
#
# 1 0.027899 0.000097 -0.001938 0.000000 0.000000 0.000000
# 2 0.000097 0.014114 -0.002943 0.000000 0.000000 0.000000
# 3 -0.001938 -0.002943 0.011981 0.000000 0.000000 0.000000
# 4 0.000000 0.000000 0.000000 0.024997 0.000000 0.000000
# 5 0.000000 0.000000 0.000000 0.000000 0.392292 0.000000
# 6 0.000000 0.000000 0.000000 0.000000 0.000000 0.067875
#
#
# Mechanical properties :
#
#
# Convention : Reuss Voigt Hill
#
# Bulk Modulus (GPa) = 22.50873 27.92041 25.21457
# Shear Modulus (GPa) = 8.87256 23.07807 15.97531
#
# Velocity S-wave (km/s) = 2.13029 3.43568 2.85850
# Velocity P-wave (km/s) = 4.19089 5.47898 4.87764
#
# Compressibility (1/GPa) = 0.04442720
#
# Stress axis : x y z
#
# Youngs Moduli (GPa) = 35.84295 70.84937 83.46488
#
# Poissons Ratio (x) = -0.00684 0.16175
# Poissons Ratio (y) = -0.00346 0.24560
# Poissons Ratio (z) = 0.06946 0.20848
#
# Static dielectric constant tensor:
#      x y z
#    x 1.721300 0.000000 0.000000 
#    y 0.000000 1.768440 0.000000 
#    z 0.000000 0.000000 1.736980 
# 
# From -- ./inp_files/46844.got.cif
#   From: 2010.05.17/outbox.cif.g08.bks.cpg/sg64_24_cif.got.tgz:46844.got - 2010.06.03 16:29:19.
