data_PCOD9477695
_publ_section_title
;
Structure prediction by ZEFSAII (Michael W. Deem and Ramdas Pophale) SiO2 
 PCOD9477695
Probable space group: C M C A
;
_chemical_formula_sum "Si O2"
_cell_formula_units_Z 80
_cell_length_a 15.349628
_cell_length_b 16.964266
_cell_length_c 14.598173
_cell_angle_alpha 90.000000
_cell_angle_beta 90.000000
_cell_angle_gamma 90.000000
_cell_volume 3801.293775
_symmetry_space_group_name_H-M "C M C A"
_symmetry_group_IT_number 64
_symmetry_cell_setting 'orthorhombic'
loop_
_space_group_symop_operation_xyz
x,y,z
-x,1/2-y,1/2+z
x,-y,-z
-x,1/2+y,1/2-z
-x,-y,-z
x,1/2+y,1/2-z
-x,y,z
x,1/2-y,1/2+z
1/2+x,1/2+y,z
1/2-x,-y,1/2+z
1/2+x,1/2-y,-z
1/2-x,y,1/2-z
1/2-x,1/2-y,-z
1/2+x,y,1/2-z
1/2-x,1/2+y,z
1/2+x,-y,1/2+z
loop_
_atom_site_type_symbol
_atom_site_label
_atom_site_fract_x
_atom_site_fract_y
_atom_site_fract_z
Si Si1 0.402125 0.139579 0.214407
Si Si2 0.185584 0.792469 0.897558
Si Si3 0.363207 0.783723 0.411211
Si Si4 0.272308 0.954489 0.906915
Si Si5 0.596573 0.465517 0.104076
O O1 0.500000 0.115240 0.234162
O O2 0.356831 0.175677 0.305079
O O3 0.404832 0.213753 0.145839
O O4 0.346613 0.070679 0.165015
O O5 0.260302 0.727314 0.886207
O O6 0.235027 0.869460 0.937227
O O7 0.123536 0.768470 0.980333
O O8 0.395077 0.871365 0.391690
O O9 0.188655 0.998665 0.862099
O O10 0.299612 0.000000 0.000000
O O11 0.500000 0.485600 0.141228
O O12 0.595628 0.500000 0.000000
#
# Coordination Sequence:
#
# PCOD9477695 Si02
#       5
#    16  16  16  16  16
#     4  11  25  41  64  98 136 180 226 276 334 400
#     4  10  21  40  66  93 127 173 225 278 334 392
#     4  10  19  39  69  92 122 172 221 278 333 389
#     4  10  19  39  63  91 125 168 219 274 336 396
#     4  10  19  33  61  97 124 161 217 271 332 402
#
# _framework density 21.045466999999999
#
# number of rings (size 3 to 8) (size 9 to 14) (size 15 to 20)
#    0.000    1.800    4.000    3.000    0.000    2.800 
#    0.000    4.000    0.000    2.400    0.000    0.000 
#    0.000    0.000    0.000    0.000    0.000    0.000 
#
# Total GULP energy -222926.975288 kJ/mol
# GULP energy per Si atom -5573.174382 kJ/mol
# Density = 2.099757 g / cm^3
# Si number density = 21.045467 Si / 1000 Ang^3
#
#
#
# Elastic Constant Matrix: (Units=GPa)
#
#
# Indices 1 2 3 4 5 6 
#
# 1 154.6547 59.9576 66.3277 0.0000 0.0000 0.0000
# 2 59.9576 121.5576 53.0942 0.0000 0.0000 0.0000
# 3 66.3277 53.0942 147.9726 0.0000 0.0000 0.0000
# 4 0.0000 0.0000 0.0000 48.0417 0.0000 0.0000
# 5 0.0000 0.0000 0.0000 0.0000 -56.3855 0.0000
# 6 0.0000 0.0000 0.0000 0.0000 0.0000 -4.1468
#
#
#
# Elastic Compliance Matrix: (Units=1/GPa)
#
#
# Indices 1 2 3 4 5 6 
#
# 1 0.008915 -0.003145 -0.002868 0.000000 0.000000 0.000000
# 2 -0.003145 0.010865 -0.002489 0.000000 0.000000 0.000000
# 3 -0.002868 -0.002489 0.008936 0.000000 0.000000 0.000000
# 4 0.000000 0.000000 0.000000 0.020815 0.000000 0.000000
# 5 0.000000 0.000000 0.000000 0.000000 -0.017735 0.000000
# 6 0.000000 0.000000 0.000000 0.000000 0.000000 -0.241149
#
#
# Mechanical properties :
#
#
# Convention : Reuss Voigt Hill
#
# Bulk Modulus (GPa) = 85.36987 86.99377 86.18182
# Shear Modulus (GPa) = -26.53282 13.82225 -6.35529
#
# Velocity S-wave (km/s) = -3.55454 2.56555 -1.73964
# Velocity P-wave (km/s) = 4.87916 7.08533 6.08310
#
# Compressibility (1/GPa) = 0.01171374
#
# Stress axis : x y z
#
# Youngs Moduli (GPa) = 112.16913 92.04099 111.90109
#
# Poissons Ratio (x) = 0.28944 0.32091
# Poissons Ratio (y) = 0.35274 0.27850
# Poissons Ratio (z) = 0.32168 0.22907
#
# Static dielectric constant tensor:
#      x y z
#    x 1.816340 0.000000 0.000000 
#    y 0.000000 1.754790 0.000000 
#    z 0.000000 0.000000 1.794480 
# 
# From -- ./inp_files/25266.got.cif
#   From: 2010.05.17/outbox.cif.g08.bks.cpg/sg64_13_cif.got.tgz:25266.got - 2010.06.03 16:29:19.
