data_PCOD9477922
_publ_section_title
;
Structure prediction by ZEFSAII (Michael W. Deem and Ramdas Pophale) SiO2 
 PCOD9477922
Probable space group: C M C A
;
_chemical_formula_sum "Si O2"
_cell_formula_units_Z 112
_cell_length_a 14.450096
_cell_length_b 28.409837
_cell_length_c 14.943405
_cell_angle_alpha 90.000000
_cell_angle_beta 90.000000
_cell_angle_gamma 90.000000
_cell_volume 6134.639425
_symmetry_space_group_name_H-M "C M C A"
_symmetry_group_IT_number 64
_symmetry_cell_setting 'orthorhombic'
loop_
_space_group_symop_operation_xyz
x,y,z
-x,1/2-y,1/2+z
x,-y,-z
-x,1/2+y,1/2-z
-x,-y,-z
x,1/2+y,1/2-z
-x,y,z
x,1/2-y,1/2+z
1/2+x,1/2+y,z
1/2-x,-y,1/2+z
1/2+x,1/2-y,-z
1/2-x,y,1/2-z
1/2-x,1/2-y,-z
1/2+x,y,1/2-z
1/2-x,1/2+y,z
1/2+x,-y,1/2+z
loop_
_atom_site_type_symbol
_atom_site_label
_atom_site_fract_x
_atom_site_fract_y
_atom_site_fract_z
Si Si1 0.278676 0.894870 0.150928
Si Si2 0.889806 0.052993 0.505626
Si Si3 0.103332 0.812919 0.279121
Si Si4 0.897957 0.638838 0.585523
Si Si5 0.891297 0.143223 0.398931
Si Si6 0.108258 0.296881 0.718889
Si Si7 0.277611 0.800174 0.538889
O O1 0.250000 0.911641 0.250000
O O2 0.319272 0.841524 0.165476
O O3 0.186249 0.897383 0.091207
O O4 0.354581 0.923367 0.097026
O O5 0.870954 0.088413 0.421925
O O6 0.000000 0.049998 0.510457
O O7 0.851904 0.000000 0.500000
O O8 0.098464 0.840289 0.185448
O O9 0.121417 0.758371 0.256092
O O10 0.000000 0.815575 0.321455
O O11 0.859435 0.678872 0.521208
O O12 0.000000 0.622230 0.560320
O O13 0.878962 0.165993 0.299890
O O14 0.817189 0.170424 0.459278
O O15 0.000000 0.151440 0.421537
O O16 0.179598 0.302525 0.638170
O O17 0.000000 0.301453 0.690727
O O18 0.250000 0.750000 0.500000
#
# Coordination Sequence:
#
# PCOD9477922 Si02
#       7
#    16  16  16  16  16  16  16
#     4  10  19  35  59  86 114 149 196 249 304 361
#     4  10  21  40  67  94 118 150 202 263 317 364
#     4   9  18  33  52  78 114 152 193 241 295 353
#     4  10  20  33  49  73 108 149 190 239 289 347
#     4  10  22  39  57  81 115 153 195 249 305 356
#     4  10  21  35  52  80 119 159 198 240 296 366
#     4  12  22  33  52  80 114 160 205 237 286 360
#
# _framework density 18.256982000000001
#
# number of rings (size 3 to 8) (size 9 to 14) (size 15 to 20)
#    0.000    1.857    1.429    3.000    0.000    5.143 
#    0.000    1.429    0.000    0.429    0.000    0.000 
#    0.000    0.000    0.000    0.000    0.000    0.000 
#
# Total GULP energy -311871.074985 kJ/mol
# GULP energy per Si atom -5569.126339 kJ/mol
# Density = 1.821543 g / cm^3
# Si number density = 18.256982 Si / 1000 Ang^3
#
#
#
# Elastic Constant Matrix: (Units=GPa)
#
#
# Indices 1 2 3 4 5 6 
#
# 1 81.0031 30.4300 23.0913 0.0000 0.0000 0.0000
# 2 30.4300 102.9655 34.8124 0.0000 0.0000 0.0000
# 3 23.0913 34.8124 66.7220 0.0000 0.0000 0.0000
# 4 0.0000 0.0000 0.0000 15.7200 0.0000 0.0000
# 5 0.0000 0.0000 0.0000 0.0000 27.0270 0.0000
# 6 0.0000 0.0000 0.0000 0.0000 0.0000 10.2926
#
#
#
# Elastic Compliance Matrix: (Units=1/GPa)
#
#
# Indices 1 2 3 4 5 6 
#
# 1 0.014487 -0.003140 -0.003375 0.000000 0.000000 0.000000
# 2 -0.003140 0.012473 -0.005421 0.000000 0.000000 0.000000
# 3 -0.003375 -0.005421 0.018984 0.000000 0.000000 0.000000
# 4 0.000000 0.000000 0.000000 0.063613 0.000000 0.000000
# 5 0.000000 0.000000 0.000000 0.000000 0.037000 0.000000
# 6 0.000000 0.000000 0.000000 0.000000 0.000000 0.097157
#
#
# Mechanical properties :
#
#
# Convention : Reuss Voigt Hill
#
# Bulk Modulus (GPa) = 45.30831 47.48421 46.39626
# Shear Modulus (GPa) = 18.18549 21.43171 19.80860
#
# Velocity S-wave (km/s) = 3.15950 3.42993 3.29749
# Velocity P-wave (km/s) = 6.17906 6.46151 6.32186
#
# Compressibility (1/GPa) = 0.02207101
#
# Stress axis : x y z
#
# Youngs Moduli (GPa) = 69.02704 80.17399 52.67572
#
# Poissons Ratio (x) = 0.25177 0.17780
# Poissons Ratio (y) = 0.21676 0.28555
# Poissons Ratio (z) = 0.23299 0.43462
#
# Static dielectric constant tensor:
#      x y z
#    x 1.693440 0.000000 0.000000 
#    y 0.000000 1.628130 0.000000 
#    z 0.000000 0.000000 1.632520 
# 
# From -- ./inp_files/24409.got.cif
#   From: 2010.05.17/outbox.cif.g08.bks.cpg/sg64_13_cif.got.tgz:24409.got - 2010.06.03 16:29:19.
