data_PCOD9477718
_publ_section_title
;
Structure prediction by ZEFSAII (Michael W. Deem and Ramdas Pophale) SiO2 
 PCOD9477718
Probable space group: C M C A
;
_chemical_formula_sum "Si O2"
_cell_formula_units_Z 112
_cell_length_a 26.101707
_cell_length_b 12.603586
_cell_length_c 16.909485
_cell_angle_alpha 90.000000
_cell_angle_beta 90.000000
_cell_angle_gamma 90.000000
_cell_volume 5562.799670
_symmetry_space_group_name_H-M "C M C A"
_symmetry_group_IT_number 64
_symmetry_cell_setting 'orthorhombic'
loop_
_space_group_symop_operation_xyz
x,y,z
-x,1/2-y,1/2+z
x,-y,-z
-x,1/2+y,1/2-z
-x,-y,-z
x,1/2+y,1/2-z
-x,y,z
x,1/2-y,1/2+z
1/2+x,1/2+y,z
1/2-x,-y,1/2+z
1/2+x,1/2-y,-z
1/2-x,y,1/2-z
1/2-x,1/2-y,-z
1/2+x,y,1/2-z
1/2-x,1/2+y,z
1/2+x,-y,1/2+z
loop_
_atom_site_type_symbol
_atom_site_label
_atom_site_fract_x
_atom_site_fract_y
_atom_site_fract_z
Si Si1 0.840295 0.999532 0.300353
Si Si2 0.304737 0.093300 0.055842
Si Si3 0.695581 0.064297 0.367182
Si Si4 0.665541 0.702460 0.591198
Si Si5 0.086234 0.499085 0.410402
Si Si6 0.942225 0.265999 0.631340
Si Si7 0.942205 0.898787 0.237646
O O1 0.822959 0.895248 0.349842
O O2 0.897830 0.973693 0.272901
O O3 0.836177 0.095591 0.362841
O O4 0.806822 0.022443 0.222681
O O5 0.248448 0.058578 0.085363
O O6 0.308264 0.189916 0.994710
O O7 0.326710 0.000000 0.000000
O O8 0.682620 0.189109 0.367825
O O9 0.647980 0.004858 0.408285
O O10 0.603967 0.713264 0.581816
O O11 0.068225 0.500000 0.500000
O O12 0.066624 0.608377 0.370918
O O13 0.067074 0.403306 0.356138
O O14 0.936560 0.213720 0.718243
O O15 0.000000 0.242844 0.603951
O O16 0.000000 0.935843 0.253823
#
# Coordination Sequence:
#
# PCOD9477718 Si02
#       7
#    16  16  16  16  16  16  16
#     4   9  19  35  54  77 104 135 175 216 256 315
#     4  10  19  34  54  76 106 140 173 216 265 311
#     4  10  19  35  55  79 108 140 176 214 265 324
#     4   9  19  35  54  78 108 140 175 219 268 316
#     4  10  20  34  55  84 113 140 178 229 276 322
#     4   9  18  34  54  77 107 142 179 220 268 325
#     4   9  18  34  55  77 106 142 175 214 269 326
#
# _framework density 20.133747
#
# number of rings (size 3 to 8) (size 9 to 14) (size 15 to 20)
#    0.000    2.571    0.000    1.714    0.000    1.143 
#    0.000   22.143    0.000    4.286    0.000    0.000 
#    0.000    0.000    0.000    0.000    0.000    0.000 
#
# Total GULP energy -311912.276355 kJ/mol
# GULP energy per Si atom -5569.862078 kJ/mol
# Density = 2.008792 g / cm^3
# Si number density = 20.133747 Si / 1000 Ang^3
#
#
#
# Elastic Constant Matrix: (Units=GPa)
#
#
# Indices 1 2 3 4 5 6 
#
# 1 82.1952 7.3816 27.7568 0.0000 0.0000 0.0000
# 2 7.3816 42.4634 25.1119 0.0000 0.0000 0.0000
# 3 27.7568 25.1119 127.4997 0.0000 0.0000 0.0000
# 4 0.0000 0.0000 0.0000 10.9572 0.0000 0.0000
# 5 0.0000 0.0000 0.0000 0.0000 19.8412 0.0000
# 6 0.0000 0.0000 0.0000 0.0000 0.0000 16.2302
#
#
#
# Elastic Compliance Matrix: (Units=1/GPa)
#
#
# Indices 1 2 3 4 5 6 
#
# 1 0.013148 -0.000671 -0.002730 0.000000 0.000000 0.000000
# 2 -0.000671 0.026689 -0.005110 0.000000 0.000000 0.000000
# 3 -0.002730 -0.005110 0.009444 0.000000 0.000000 0.000000
# 4 0.000000 0.000000 0.000000 0.091264 0.000000 0.000000
# 5 0.000000 0.000000 0.000000 0.000000 0.050400 0.000000
# 6 0.000000 0.000000 0.000000 0.000000 0.000000 0.061613
#
#
# Mechanical properties :
#
#
# Convention : Reuss Voigt Hill
#
# Bulk Modulus (GPa) = 31.00040 41.40654 36.20347
# Shear Modulus (GPa) = 17.83582 22.19958 20.01770
#
# Velocity S-wave (km/s) = 2.97958 3.32415 3.15657
# Velocity P-wave (km/s) = 5.22186 5.94506 5.59516
#
# Compressibility (1/GPa) = 0.03225765
#
# Stress axis : x y z
#
# Youngs Moduli (GPa) = 76.05477 37.46926 105.88655
#
# Poissons Ratio (x) = 0.02514 0.28910
# Poissons Ratio (y) = 0.05103 0.54112
# Poissons Ratio (z) = 0.20765 0.19148
#
# Static dielectric constant tensor:
#      x y z
#    x 1.760180 0.000000 0.000000 
#    y 0.000000 1.743190 0.000000 
#    z 0.000000 0.000000 1.746960 
# 
# From -- ./inp_files/28072.got.cif
#   From: 2010.05.17/outbox.cif.g08.bks.cpg/sg64_15_cif.got.tgz:28072.got - 2010.06.03 16:29:19.
