data_PCOD9477380
_publ_section_title
;
Structure prediction by ZEFSAII (Michael W. Deem and Ramdas Pophale) SiO2 
 PCOD9477380
Probable space group: C M C A
;
_chemical_formula_sum "Si O2"
_cell_formula_units_Z 64
_cell_length_a 15.249608
_cell_length_b 19.656693
_cell_length_c 9.452914
_cell_angle_alpha 90.000000
_cell_angle_beta 90.000000
_cell_angle_gamma 90.000000
_cell_volume 2833.575845
_symmetry_space_group_name_H-M "C M C A"
_symmetry_group_IT_number 64
_symmetry_cell_setting 'orthorhombic'
loop_
_space_group_symop_operation_xyz
x,y,z
-x,1/2-y,1/2+z
x,-y,-z
-x,1/2+y,1/2-z
-x,-y,-z
x,1/2+y,1/2-z
-x,y,z
x,1/2-y,1/2+z
1/2+x,1/2+y,z
1/2-x,-y,1/2+z
1/2+x,1/2-y,-z
1/2-x,y,1/2-z
1/2-x,1/2-y,-z
1/2+x,y,1/2-z
1/2-x,1/2+y,z
1/2+x,-y,1/2+z
loop_
_atom_site_type_symbol
_atom_site_label
_atom_site_fract_x
_atom_site_fract_y
_atom_site_fract_z
Si Si1 0.856368 0.934738 0.413786
Si Si2 0.000000 0.239109 0.423022
Si Si3 0.334626 0.850766 0.824204
Si Si4 0.000000 0.169015 0.688746
Si Si5 0.604755 0.518564 0.161137
O O1 0.803661 0.895225 0.537534
O O2 0.919728 0.875420 0.362336
O O3 0.894921 0.000000 0.500000
O O4 0.839129 0.970377 0.264217
O O5 0.912329 0.199827 0.370120
O O6 0.000000 0.236726 0.592367
O O7 0.000000 0.312382 0.351526
O O8 0.250000 0.817907 0.750000
O O9 0.374492 0.905506 0.713984
O O10 0.500000 0.506037 0.181967
O O11 0.625740 0.500000 0.000000
#
# Coordination Sequence:
#
# PCOD9477380 Si02
#       5
#    16   8  16   8  16
#     4   9  18  34  60  87 114 150 196 245 301 371
#     4  10  22  38  57  83 112 151 203 246 290 370
#     4  10  21  38  59  82 115 161 200 241 296 360
#     4  10  19  34  59  85 108 157 198 240 312 350
#     4  10  19  31  56  92 123 145 192 253 302 358
#
# _framework density 22.586303000000001
#
# number of rings (size 3 to 8) (size 9 to 14) (size 15 to 20)
#    0.000    2.250    2.500    0.375    3.500    5.000 
#    0.000    5.000    0.000    6.000    0.000    0.000 
#    0.000    0.000    0.000    0.000    0.000    0.000 
#
# Total GULP energy -178171.065629 kJ/mol
# GULP energy per Si atom -5567.845801 kJ/mol
# Density = 2.253490 g / cm^3
# Si number density = 22.586303 Si / 1000 Ang^3
#
#
#
# Elastic Constant Matrix: (Units=GPa)
#
#
# Indices 1 2 3 4 5 6 
#
# 1 93.0860 -4.5335 15.6116 0.0000 0.0000 0.0000
# 2 -4.5335 27.8238 1.8992 0.0000 0.0000 0.0000
# 3 15.6116 1.8992 114.6131 0.0000 0.0000 0.0000
# 4 0.0000 0.0000 0.0000 24.4962 0.0000 0.0000
# 5 0.0000 0.0000 0.0000 0.0000 13.7098 0.0000
# 6 0.0000 0.0000 0.0000 0.0000 0.0000 -5.0488
#
#
#
# Elastic Compliance Matrix: (Units=1/GPa)
#
#
# Indices 1 2 3 4 5 6 
#
# 1 0.011095 0.001913 -0.001543 0.000000 0.000000 0.000000
# 2 0.001913 0.036311 -0.000862 0.000000 0.000000 0.000000
# 3 -0.001543 -0.000862 0.008949 0.000000 0.000000 0.000000
# 4 0.000000 0.000000 0.000000 0.040823 0.000000 0.000000
# 5 0.000000 0.000000 0.000000 0.000000 0.072940 0.000000
# 6 0.000000 0.000000 0.000000 0.000000 0.000000 -0.198068
#
#
# Mechanical properties :
#
#
# Convention : Reuss Voigt Hill
#
# Bulk Modulus (GPa) = 18.06004 29.05304 23.55654
# Shear Modulus (GPa) = -587.62479 21.46784 -283.07848
#
# Velocity S-wave (km/s) = -16.14724 3.08633 -11.20732
# Velocity P-wave (km/s) = 18.42909 5.05882 12.53075
#
# Compressibility (1/GPa) = 0.05537085
#
# Stress axis : x y z
#
# Youngs Moduli (GPa) = 90.13323 27.53987 111.73861
#
# Poissons Ratio (x) = -0.05268 0.17240
# Poissons Ratio (y) = -0.17243 0.09635
# Poissons Ratio (z) = 0.13907 0.02375
#
# Static dielectric constant tensor:
#      x y z
#    x 1.864500 0.000000 0.000000 
#    y 0.000000 1.827840 0.000000 
#    z 0.000000 0.000000 1.880960 
# 
# From -- ./inp_files/6627.got.cif
#   From: 2010.05.17/outbox.cif.g08.bks.cpg/sg64_4_cif.got.tgz:6627.got - 2010.06.03 16:29:19.
