data_PCOD9477183
_publ_section_title
;
Structure prediction by ZEFSAII (Michael W. Deem and Ramdas Pophale) SiO2 
 PCOD9477183
Probable space group: C M C A
;
_chemical_formula_sum "Si O2"
_cell_formula_units_Z 96
_cell_length_a 9.138648
_cell_length_b 23.189842
_cell_length_c 26.726388
_cell_angle_alpha 90.000000
_cell_angle_beta 90.000000
_cell_angle_gamma 90.000000
_cell_volume 5663.957791
_symmetry_space_group_name_H-M "C M C A"
_symmetry_group_IT_number 64
_symmetry_cell_setting 'orthorhombic'
loop_
_space_group_symop_operation_xyz
x,y,z
-x,1/2-y,1/2+z
x,-y,-z
-x,1/2+y,1/2-z
-x,-y,-z
x,1/2+y,1/2-z
-x,y,z
x,1/2-y,1/2+z
1/2+x,1/2+y,z
1/2-x,-y,1/2+z
1/2+x,1/2-y,-z
1/2-x,y,1/2-z
1/2-x,1/2-y,-z
1/2+x,y,1/2-z
1/2-x,1/2+y,z
1/2+x,-y,1/2+z
loop_
_atom_site_type_symbol
_atom_site_label
_atom_site_fract_x
_atom_site_fract_y
_atom_site_fract_z
Si Si1 0.175404 0.484787 0.556952
Si Si2 0.828796 0.826632 0.303032
Si Si3 0.834641 0.891803 0.619640
Si Si4 0.325459 0.077811 0.642117
Si Si5 0.171401 0.188730 0.196720
Si Si6 0.163289 0.513080 0.205481
O O1 0.212578 0.500000 0.500000
O O2 0.252152 0.425863 0.575337
O O3 0.212418 0.539432 0.593050
O O4 0.000000 0.476960 0.561154
O O5 0.750000 0.839580 0.250000
O O6 0.751801 0.861253 0.348079
O O7 0.818721 0.757790 0.310331
O O8 0.000000 0.842371 0.300043
O O9 0.746368 0.842735 0.649507
O O10 0.000000 0.873460 0.606106
O O11 0.846634 0.942242 0.660780
O O12 0.500000 0.083546 0.644218
O O13 0.262163 0.039558 0.687427
O O14 0.250000 0.176270 0.250000
O O15 0.000000 0.172286 0.200088
O O16 0.250000 0.542396 0.250000
O O17 0.000000 0.495045 0.219723
#
# Coordination Sequence:
#
# PCOD9477183 Si02
#       6
#    16  16  16  16  16  16
#     4   9  19  36  56  76  98 126 161 204 256 307
#     4  10  20  33  49  71 101 136 170 202 238 283
#     4  10  20  32  49  73  99 128 162 202 246 293
#     4  10  19  31  49  71  95 125 160 199 243 291
#     4  10  20  33  50  72 101 137 171 203 239 284
#     4  10  19  29  42  64  95 127 157 191 234 284
#
# _framework density 16.949278
#
# number of rings (size 3 to 8) (size 9 to 14) (size 15 to 20)
#    0.000    2.167    0.000    3.500    0.000    6.333 
#    0.000    0.000    0.000    1.000    0.000    0.000 
#    0.000    0.000    0.000    0.000    0.000    0.000 
#
# Total GULP energy -267508.354810 kJ/mol
# GULP energy per Si atom -5573.090725 kJ/mol
# Density = 1.691070 g / cm^3
# Si number density = 16.949278 Si / 1000 Ang^3
#
#
#
# Elastic Constant Matrix: (Units=GPa)
#
#
# Indices 1 2 3 4 5 6 
#
# 1 114.2481 48.7368 54.4646 0.0000 0.0000 0.0000
# 2 48.7368 72.1692 32.5976 0.0000 0.0000 0.0000
# 3 54.4646 32.5976 78.7932 0.0000 0.0000 0.0000
# 4 0.0000 0.0000 0.0000 22.6790 0.0000 0.0000
# 5 0.0000 0.0000 0.0000 0.0000 20.8615 0.0000
# 6 0.0000 0.0000 0.0000 0.0000 0.0000 23.5254
#
#
#
# Elastic Compliance Matrix: (Units=1/GPa)
#
#
# Indices 1 2 3 4 5 6 
#
# 1 0.015409 -0.006880 -0.007804 0.000000 0.000000 0.000000
# 2 -0.006880 0.020113 -0.003565 0.000000 0.000000 0.000000
# 3 -0.007804 -0.003565 0.019561 0.000000 0.000000 0.000000
# 4 0.000000 0.000000 0.000000 0.044094 0.000000 0.000000
# 5 0.000000 0.000000 0.000000 0.000000 0.047935 0.000000
# 6 0.000000 0.000000 0.000000 0.000000 0.000000 0.042507
#
#
# Mechanical properties :
#
#
# Convention : Reuss Voigt Hill
#
# Bulk Modulus (GPa) = 53.81287 59.64538 56.72913
# Shear Modulus (GPa) = 21.52272 22.04060 21.78166
#
# Velocity S-wave (km/s) = 3.56733 3.61000 3.58873
# Velocity P-wave (km/s) = 6.98471 7.25555 7.12142
#
# Compressibility (1/GPa) = 0.01858291
#
# Stress axis : x y z
#
# Youngs Moduli (GPa) = 64.89907 49.71902 51.12211
#
# Poissons Ratio (x) = 0.34209 0.39898
# Poissons Ratio (y) = 0.44654 0.18225
# Poissons Ratio (z) = 0.50650 0.17725
#
# Static dielectric constant tensor:
#      x y z
#    x 1.602880 0.000000 0.000000 
#    y 0.000000 1.594910 0.000000 
#    z 0.000000 0.000000 1.604560 
# 
# From -- ./inp_files/43051.got.cif
#   From: 2010.05.17/outbox.cif.g08.bks.cpg/sg64_22_cif.got.tgz:43051.got - 2010.06.03 16:29:19.
