data_PCOD9477657
_publ_section_title
;
Structure prediction by ZEFSAII (Michael W. Deem and Ramdas Pophale) SiO2 
 PCOD9477657
Probable space group: C M C A
;
_chemical_formula_sum "Si O2"
_cell_formula_units_Z 88
_cell_length_a 15.203516
_cell_length_b 18.258643
_cell_length_c 12.704521
_cell_angle_alpha 90.000000
_cell_angle_beta 90.000000
_cell_angle_gamma 90.000000
_cell_volume 3526.718761
_symmetry_space_group_name_H-M "C M C A"
_symmetry_group_IT_number 64
_symmetry_cell_setting 'orthorhombic'
loop_
_space_group_symop_operation_xyz
x,y,z
-x,1/2-y,1/2+z
x,-y,-z
-x,1/2+y,1/2-z
-x,-y,-z
x,1/2+y,1/2-z
-x,y,z
x,1/2-y,1/2+z
1/2+x,1/2+y,z
1/2-x,-y,1/2+z
1/2+x,1/2-y,-z
1/2-x,y,1/2-z
1/2-x,1/2-y,-z
1/2+x,y,1/2-z
1/2-x,1/2+y,z
1/2+x,-y,1/2+z
loop_
_atom_site_type_symbol
_atom_site_label
_atom_site_fract_x
_atom_site_fract_y
_atom_site_fract_z
Si Si1 0.659247 0.330930 0.930284
Si Si2 0.601368 0.636478 0.854677
Si Si3 0.096072 0.021751 0.620676
Si Si4 0.599034 0.302935 0.711779
Si Si5 0.356213 0.336284 0.486373
Si Si6 0.250000 0.465560 0.250000
O O1 0.651799 0.341858 0.805612
O O2 0.635473 0.245232 0.942533
O O3 0.600299 0.369783 0.018059
O O4 0.755532 0.344726 0.977793
O O5 0.500000 0.624472 0.820012
O O6 0.627969 0.719787 0.819660
O O7 0.677744 0.582909 0.813119
O O8 0.112027 0.109070 0.604046
O O9 0.183683 0.991654 0.674485
O O10 0.000000 0.004594 0.666829
O O11 0.095296 0.000000 0.500000
O O12 0.500000 0.297807 0.752978
O O13 0.596126 0.342869 0.598818
#
# Coordination Sequence:
#
# PCOD9477657 Si02
#       6
#    16  16  16  16  16   8
#     4  10  19  33  56  88 128 162 198 248 307 372
#     4  10  21  34  56  89 122 160 203 246 302 368
#     4  11  25  46  69  92 121 163 215 261 303 361
#     4  10  20  31  51  86 126 166 201 241 303 373
#     4  10  20  36  59  87 121 163 206 249 307 368
#     4  12  22  42  66  90 120 156 206 258 304 352
#
# _framework density 24.952372
#
# number of rings (size 3 to 8) (size 9 to 14) (size 15 to 20)
#    0.000    1.636    1.818    3.273    5.091    3.636 
#    3.273    0.000    0.000    2.182    0.000    0.000 
#    0.000    0.000    0.000    0.000    0.000    0.000 
#
# Total GULP energy -245797.049633 kJ/mol
# GULP energy per Si atom -5586.296583 kJ/mol
# Density = 2.489558 g / cm^3
# Si number density = 24.952372 Si / 1000 Ang^3
#
#
#
# Elastic Constant Matrix: (Units=GPa)
#
#
# Indices 1 2 3 4 5 6 
#
# 1 155.0054 12.6188 46.1534 0.0000 0.0000 0.0000
# 2 12.6188 38.3494 2.5351 0.0000 0.0000 0.0000
# 3 46.1534 2.5351 130.3597 0.0000 0.0000 0.0000
# 4 0.0000 0.0000 0.0000 35.0958 0.0000 0.0000
# 5 0.0000 0.0000 0.0000 0.0000 45.2802 0.0000
# 6 0.0000 0.0000 0.0000 0.0000 0.0000 -98.3076
#
#
#
# Elastic Compliance Matrix: (Units=1/GPa)
#
#
# Indices 1 2 3 4 5 6 
#
# 1 0.007403 -0.002266 -0.002577 0.000000 0.000000 0.000000
# 2 -0.002266 0.026803 0.000281 0.000000 0.000000 0.000000
# 3 -0.002577 0.000281 0.008578 0.000000 0.000000 0.000000
# 4 0.000000 0.000000 0.000000 0.028493 0.000000 0.000000
# 5 0.000000 0.000000 0.000000 0.000000 0.022085 0.000000
# 6 0.000000 0.000000 0.000000 0.000000 0.000000 -0.010172
#
#
# Mechanical properties :
#
#
# Convention : Reuss Voigt Hill
#
# Bulk Modulus (GPa) = 29.70829 49.59212 39.65020
# Shear Modulus (GPa) = 48.29344 13.90749 31.10046
#
# Velocity S-wave (km/s) = 4.40412 2.36341 3.53426
# Velocity P-wave (km/s) = 6.14764 5.23120 5.70785
#
# Compressibility (1/GPa) = 0.03366064
#
# Stress axis : x y z
#
# Youngs Moduli (GPa) = 135.07791 37.30933 116.57740
#
# Poissons Ratio (x) = 0.08453 0.30042
# Poissons Ratio (y) = 0.30604 -0.03275
# Poissons Ratio (z) = 0.34809 -0.01048
#
# Static dielectric constant tensor:
#      x y z
#    x 1.995680 0.000000 0.000000 
#    y 0.000000 2.047580 0.000000 
#    z 0.000000 0.000000 2.055520 
# 
# From -- ./inp_files/23731.got.cif
#   From: 2010.05.17/outbox.cif.g08.bks.cpg/sg64_12_cif.got.tgz:23731.got - 2010.06.03 16:29:19.
