data_PCOD9477844
_publ_section_title
;
Structure prediction by ZEFSAII (Michael W. Deem and Ramdas Pophale) SiO2 
 PCOD9477844
Probable space group: C M C A
;
_chemical_formula_sum "Si O2"
_cell_formula_units_Z 112
_cell_length_a 15.466468
_cell_length_b 21.868196
_cell_length_c 14.417071
_cell_angle_alpha 90.000000
_cell_angle_beta 90.000000
_cell_angle_gamma 90.000000
_cell_volume 4876.195870
_symmetry_space_group_name_H-M "C M C A"
_symmetry_group_IT_number 64
_symmetry_cell_setting 'orthorhombic'
loop_
_space_group_symop_operation_xyz
x,y,z
-x,1/2-y,1/2+z
x,-y,-z
-x,1/2+y,1/2-z
-x,-y,-z
x,1/2+y,1/2-z
-x,y,z
x,1/2-y,1/2+z
1/2+x,1/2+y,z
1/2-x,-y,1/2+z
1/2+x,1/2-y,-z
1/2-x,y,1/2-z
1/2-x,1/2-y,-z
1/2+x,y,1/2-z
1/2-x,1/2+y,z
1/2+x,-y,1/2+z
loop_
_atom_site_type_symbol
_atom_site_label
_atom_site_fract_x
_atom_site_fract_y
_atom_site_fract_z
Si Si1 0.097508 0.214014 0.678808
Si Si2 0.897717 0.762791 0.616331
Si Si3 0.153129 0.912631 0.263081
Si Si4 0.094156 0.341040 0.622713
Si Si5 0.723876 0.621740 0.406265
Si Si6 0.349043 0.128885 0.562790
Si Si7 0.905675 0.517884 0.108264
O O1 0.103852 0.254320 0.772177
O O2 0.122149 0.096724 0.842910
O O3 0.107073 0.267820 0.604612
O O4 0.000000 0.188992 0.672398
O O5 0.841926 0.821494 0.590128
O O6 0.850183 0.700854 0.585183
O O7 0.000000 0.764698 0.589413
O O8 0.250000 0.935576 0.250000
O O9 0.156046 0.845194 0.310327
O O10 0.101833 0.958829 0.326852
O O11 0.189376 0.363322 0.653546
O O12 0.088367 0.375921 0.524783
O O13 0.000000 0.348845 0.669812
O O14 0.759795 0.610164 0.511693
O O15 0.671189 0.564180 0.371185
O O16 0.000000 0.547256 0.122977
O O17 0.900307 0.500000 0.000000
#
# Coordination Sequence:
#
# PCOD9477844 Si02
#       7
#    16  16  16  16  16  16  16
#     4   9  20  37  61  98 138 177 220 272 339 407
#     4  10  19  34  60  99 145 181 219 275 339 410
#     4  11  23  40  68  97 131 177 231 283 338 403
#     4   9  20  37  63  98 139 177 219 277 345 415
#     4  10  22  39  66  95 138 178 230 276 341 409
#     4   9  21  37  61  99 135 175 221 276 342 408
#     4  11  25  46  68  94 133 180 230 286 342 403
#
# _framework density 22.968724000000002
#
# number of rings (size 3 to 8) (size 9 to 14) (size 15 to 20)
#    0.857    1.286    0.000    2.571    4.000    2.857 
#    2.571    1.429    0.000    1.286    0.000    0.000 
#    0.000    0.000    0.000    0.000    0.000    0.000 
#
# Total GULP energy -312077.001101 kJ/mol
# GULP energy per Si atom -5572.803591 kJ/mol
# Density = 2.291645 g / cm^3
# Si number density = 22.968724 Si / 1000 Ang^3
#
#
#
# Elastic Constant Matrix: (Units=GPa)
#
#
# Indices 1 2 3 4 5 6 
#
# 1 137.0199 64.6608 20.4077 0.0000 0.0000 0.0000
# 2 64.6608 78.8685 30.2126 0.0000 0.0000 0.0000
# 3 20.4077 30.2126 76.2095 0.0000 0.0000 0.0000
# 4 0.0000 0.0000 0.0000 32.1477 0.0000 0.0000
# 5 0.0000 0.0000 0.0000 0.0000 11.7663 0.0000
# 6 0.0000 0.0000 0.0000 0.0000 0.0000 32.9305
#
#
#
# Elastic Compliance Matrix: (Units=1/GPa)
#
#
# Indices 1 2 3 4 5 6 
#
# 1 0.011946 -0.010102 0.000806 0.000000 0.000000 0.000000
# 2 -0.010102 0.023493 -0.006608 0.000000 0.000000 0.000000
# 3 0.000806 -0.006608 0.015526 0.000000 0.000000 0.000000
# 4 0.000000 0.000000 0.000000 0.031106 0.000000 0.000000
# 5 0.000000 0.000000 0.000000 0.000000 0.084988 0.000000
# 6 0.000000 0.000000 0.000000 0.000000 0.000000 0.030367
#
#
# Mechanical properties :
#
#
# Convention : Reuss Voigt Hill
#
# Bulk Modulus (GPa) = 52.20516 58.07338 55.13927
# Shear Modulus (GPa) = 21.22052 27.15670 24.18861
#
# Velocity S-wave (km/s) = 3.04285 3.44224 3.24869
# Velocity P-wave (km/s) = 5.92650 6.41383 6.17497
#
# Compressibility (1/GPa) = 0.01915520
#
# Stress axis : x y z
#
# Youngs Moduli (GPa) = 83.71295 42.56501 64.40929
#
# Poissons Ratio (x) = 0.43001 -0.05193
# Poissons Ratio (y) = 0.84571 0.42565
# Poissons Ratio (z) = -0.06749 0.28129
#
# Static dielectric constant tensor:
#      x y z
#    x 1.865740 0.000000 0.000000 
#    y 0.000000 1.827640 0.000000 
#    z 0.000000 0.000000 2.012850 
# 
# From -- ./inp_files/24202.got.cif
#   From: 2010.05.17/outbox.cif.g08.bks.cpg/sg64_13_cif.got.tgz:24202.got - 2010.06.03 16:29:19.
