data_PCOD9477186
_publ_section_title
;
Structure prediction by ZEFSAII (Michael W. Deem and Ramdas Pophale) SiO2 
 PCOD9477186
Probable space group: C M C A
;
_chemical_formula_sum "Si O2"
_cell_formula_units_Z 96
_cell_length_a 8.984297
_cell_length_b 23.533200
_cell_length_c 27.135249
_cell_angle_alpha 90.000000
_cell_angle_beta 90.000000
_cell_angle_gamma 90.000000
_cell_volume 5737.185566
_symmetry_space_group_name_H-M "C M C A"
_symmetry_group_IT_number 64
_symmetry_cell_setting 'orthorhombic'
loop_
_space_group_symop_operation_xyz
x,y,z
-x,1/2-y,1/2+z
x,-y,-z
-x,1/2+y,1/2-z
-x,-y,-z
x,1/2+y,1/2-z
-x,y,z
x,1/2-y,1/2+z
1/2+x,1/2+y,z
1/2-x,-y,1/2+z
1/2+x,1/2-y,-z
1/2-x,y,1/2-z
1/2-x,1/2-y,-z
1/2+x,y,1/2-z
1/2-x,1/2+y,z
1/2+x,-y,1/2+z
loop_
_atom_site_type_symbol
_atom_site_label
_atom_site_fract_x
_atom_site_fract_y
_atom_site_fract_z
Si Si1 0.331916 0.336023 0.378479
Si Si2 0.676367 0.349599 0.623054
Si Si3 0.832734 0.230280 0.048017
Si Si4 0.178642 0.926029 0.049823
Si Si5 0.320690 0.248378 0.696122
Si Si6 0.178053 0.559567 0.437760
O O1 0.500000 0.351736 0.362605
O O2 0.344496 0.284707 0.417208
O O3 0.254732 0.386244 0.409455
O O4 0.240026 0.306102 0.334428
O O5 0.500000 0.356229 0.625471
O O6 0.729502 0.313801 0.576007
O O7 0.721823 0.307795 0.668121
O O8 0.750837 0.409623 0.609552
O O9 0.000000 0.207949 0.038951
O O10 0.750000 0.250000 0.000000
O O11 0.000000 0.917495 0.051648
O O12 0.209304 0.992261 0.061164
O O13 0.225487 0.917082 0.992304
O O14 0.500000 0.246166 0.697661
O O15 0.250000 0.248294 0.750000
O O16 0.000000 0.566554 0.435318
#
# Coordination Sequence:
#
# PCOD9477186 Si02
#       6
#    16  16  16  16  16  16
#     4  10  20  32  48  72  99 129 165 204 247 295
#     4  10  20  32  48  72  99 127 161 202 248 296
#     4  10  19  29  43  66  97 130 162 197 240 291
#     4   9  18  32  49  72 103 139 175 207 243 287
#     4  10  21  37  56  76  98 125 159 204 256 306
#     4   9  18  32  50  72 102 140 175 206 242 287
#
# _framework density 16.732944
#
# number of rings (size 3 to 8) (size 9 to 14) (size 15 to 20)
#    0.000    2.333    0.000    4.000    0.000    8.000 
#    0.000    1.667    0.000    1.000    0.000    2.333 
#    0.000    0.000    0.000    0.000    0.000    0.000 
#
# Total GULP energy -267343.125659 kJ/mol
# GULP energy per Si atom -5569.648451 kJ/mol
# Density = 1.669486 g / cm^3
# Si number density = 16.732944 Si / 1000 Ang^3
#
#
#
# Elastic Constant Matrix: (Units=GPa)
#
#
# Indices 1 2 3 4 5 6 
#
# 1 51.6429 38.9676 49.0531 0.0000 0.0000 0.0000
# 2 38.9676 90.2967 49.6225 0.0000 0.0000 0.0000
# 3 49.0531 49.6225 104.5229 0.0000 0.0000 0.0000
# 4 0.0000 0.0000 0.0000 25.9007 0.0000 0.0000
# 5 0.0000 0.0000 0.0000 0.0000 25.7525 0.0000
# 6 0.0000 0.0000 0.0000 0.0000 0.0000 28.3021
#
#
#
# Elastic Compliance Matrix: (Units=1/GPa)
#
#
# Indices 1 2 3 4 5 6 
#
# 1 0.040099 -0.009421 -0.014346 0.000000 0.000000 0.000000
# 2 -0.009421 0.017197 -0.003743 0.000000 0.000000 0.000000
# 3 -0.014346 -0.003743 0.018077 0.000000 0.000000 0.000000
# 4 0.000000 0.000000 0.000000 0.038609 0.000000 0.000000
# 5 0.000000 0.000000 0.000000 0.000000 0.038831 0.000000
# 6 0.000000 0.000000 0.000000 0.000000 0.000000 0.035333
#
#
# Mechanical properties :
#
#
# Convention : Reuss Voigt Hill
#
# Bulk Modulus (GPa) = 49.13270 57.97212 53.55241
# Shear Modulus (GPa) = 20.00390 23.24567 21.62479
#
# Velocity S-wave (km/s) = 3.46132 3.73126 3.59882
# Velocity P-wave (km/s) = 6.73802 7.29957 7.02441
#
# Compressibility (1/GPa) = 0.02035304
#
# Stress axis : x y z
#
# Youngs Moduli (GPa) = 24.93828 58.14885 55.31881
#
# Poissons Ratio (x) = 0.54781 0.79361
# Poissons Ratio (y) = 0.23494 0.20707
# Poissons Ratio (z) = 0.35777 0.21766
#
# Static dielectric constant tensor:
#      x y z
#    x 1.584130 0.000000 0.000000 
#    y 0.000000 1.594590 0.000000 
#    z 0.000000 0.000000 2.292400 
# 
# From -- ./inp_files/42983.got.cif
#   From: 2010.05.17/outbox.cif.g08.bks.cpg/sg64_22_cif.got.tgz:42983.got - 2010.06.03 16:29:19.
