data_PCOD9477754
_publ_section_title
;
Structure prediction by ZEFSAII (Michael W. Deem and Ramdas Pophale) SiO2 
 PCOD9477754
Probable space group: C M C A
;
_chemical_formula_sum "Si O2"
_cell_formula_units_Z 116
_cell_length_a 7.820915
_cell_length_b 29.409438
_cell_length_c 22.104889
_cell_angle_alpha 90.000000
_cell_angle_beta 90.000000
_cell_angle_gamma 90.000000
_cell_volume 5084.317110
_symmetry_space_group_name_H-M "C M C A"
_symmetry_group_IT_number 64
_symmetry_cell_setting 'orthorhombic'
loop_
_space_group_symop_operation_xyz
x,y,z
-x,1/2-y,1/2+z
x,-y,-z
-x,1/2+y,1/2-z
-x,-y,-z
x,1/2+y,1/2-z
-x,y,z
x,1/2-y,1/2+z
1/2+x,1/2+y,z
1/2-x,-y,1/2+z
1/2+x,1/2-y,-z
1/2-x,y,1/2-z
1/2-x,1/2-y,-z
1/2+x,y,1/2-z
1/2-x,1/2+y,z
1/2+x,-y,1/2+z
loop_
_atom_site_type_symbol
_atom_site_label
_atom_site_fract_x
_atom_site_fract_y
_atom_site_fract_z
Si Si1 0.000000 0.500000 0.000000
Si Si2 0.702575 0.851731 0.500625
Si Si3 0.799934 0.975427 0.080267
Si Si4 0.800947 0.706709 0.682212
Si Si5 0.803857 0.384733 0.130057
Si Si6 0.294671 0.922251 0.605259
Si Si7 0.703787 0.157143 0.317745
Si Si8 0.193439 0.772680 0.583563
O O1 0.845566 0.468112 0.029772
O O2 0.500000 0.858131 0.492102
O O3 0.786781 0.863020 0.437086
O O4 0.761291 0.888734 0.550907
O O5 0.729592 0.800894 0.527197
O O6 0.785577 0.933718 0.126321
O O7 0.000000 0.976968 0.060243
O O8 0.742052 0.025385 0.103759
O O9 0.750000 0.721104 0.750000
O O10 0.771944 0.653202 0.674099
O O11 0.721863 0.731851 0.622756
O O12 0.000000 0.716945 0.677376
O O13 0.000000 0.391652 0.145745
O O14 0.500000 0.923670 0.600912
O O15 0.249958 0.894676 0.665506
O O16 0.500000 0.163203 0.328479
O O17 0.750000 0.167998 0.250000
O O18 0.802149 0.189190 0.363754
O O19 0.000000 0.760643 0.566071
#
# Coordination Sequence:
#
# PCOD9477754 Si02
#       8
#     4  16  16  16  16  16  16  16
#     4  12  22  36  60  98 120 164 210 252 312 384
#     4  10  20  37  61  92 129 167 200 248 321 382
#     4  11  22  40  61  89 132 172 215 267 317 376
#     4  11  25  45  68  91 119 162 215 272 328 377
#     4  12  25  42  63  93 127 166 220 264 320 392
#     4   8  18  35  57  82 120 167 204 248 309 373
#     4  10  19  34  55  85 119 157 202 251 314 375
#     4  10  21  38  61  92 124 159 205 258 319 389
#
# _framework density 22.815258
#
# number of rings (size 3 to 8) (size 9 to 14) (size 15 to 20)
#    0.000    1.655    0.690    5.172    0.000    4.966 
#    6.207    0.690    0.000    1.655    0.000    0.000 
#    0.000    0.000    0.000    0.000    0.000    0.000 
#
# Total GULP energy -323260.416817 kJ/mol
# GULP energy per Si atom -5573.455462 kJ/mol
# Density = 2.276333 g / cm^3
# Si number density = 22.815258 Si / 1000 Ang^3
#
#
#
# Elastic Constant Matrix: (Units=GPa)
#
#
# Indices 1 2 3 4 5 6 
#
# 1 88.9225 6.6486 -0.4496 0.0000 0.0000 0.0000
# 2 6.6486 151.5973 16.7547 0.0000 0.0000 0.0000
# 3 -0.4496 16.7547 41.7941 0.0000 0.0000 0.0000
# 4 0.0000 0.0000 0.0000 19.1483 0.0000 0.0000
# 5 0.0000 0.0000 0.0000 0.0000 20.1872 0.0000
# 6 0.0000 0.0000 0.0000 0.0000 0.0000 22.5705
#
#
#
# Elastic Compliance Matrix: (Units=1/GPa)
#
#
# Indices 1 2 3 4 5 6 
#
# 1 0.011287 -0.000532 0.000335 0.000000 0.000000 0.000000
# 2 -0.000532 0.006927 -0.002783 0.000000 0.000000 0.000000
# 3 0.000335 -0.002783 0.025046 0.000000 0.000000 0.000000
# 4 0.000000 0.000000 0.000000 0.052224 0.000000 0.000000
# 5 0.000000 0.000000 0.000000 0.000000 0.049536 0.000000
# 6 0.000000 0.000000 0.000000 0.000000 0.000000 0.044306
#
#
# Mechanical properties :
#
#
# Convention : Reuss Voigt Hill
#
# Bulk Modulus (GPa) = 26.80941 36.46904 31.63922
# Shear Modulus (GPa) = 24.07086 29.67189 26.87137
#
# Velocity S-wave (km/s) = 3.25165 3.61020 3.43560
# Velocity P-wave (km/s) = 5.08663 5.77903 5.44385
#
# Compressibility (1/GPa) = 0.03730034
#
# Stress axis : x y z
#
# Youngs Moduli (GPa) = 88.59582 144.35607 39.92650
#
# Poissons Ratio (x) = 0.07680 -0.01336
# Poissons Ratio (y) = 0.04713 0.11111
# Poissons Ratio (z) = -0.02965 0.40171
#
# Static dielectric constant tensor:
#      x y z
#    x 1.870210 0.000000 0.000000 
#    y 0.000000 1.937510 0.000000 
#    z 0.000000 0.000000 1.877370 
# 
# From -- ./inp_files/43376.got.cif
#   From: 2010.05.17/outbox.cif.g08.bks.cpg/sg64_22_cif.got.tgz:43376.got - 2010.06.03 16:29:19.
