data_PCOD9477032
_publ_section_title
;
Structure prediction by ZEFSAII (Michael W. Deem and Ramdas Pophale) SiO2 
 PCOD9477032
Probable space group: C M C A
;
_chemical_formula_sum "Si O2"
_cell_formula_units_Z 64
_cell_length_a 14.816324
_cell_length_b 8.835071
_cell_length_c 22.868672
_cell_angle_alpha 90.000000
_cell_angle_beta 90.000000
_cell_angle_gamma 90.000000
_cell_volume 2993.584048
_symmetry_space_group_name_H-M "C M C A"
_symmetry_group_IT_number 64
_symmetry_cell_setting 'orthorhombic'
loop_
_space_group_symop_operation_xyz
x,y,z
-x,1/2-y,1/2+z
x,-y,-z
-x,1/2+y,1/2-z
-x,-y,-z
x,1/2+y,1/2-z
-x,y,z
x,1/2-y,1/2+z
1/2+x,1/2+y,z
1/2-x,-y,1/2+z
1/2+x,1/2-y,-z
1/2-x,y,1/2-z
1/2-x,1/2-y,-z
1/2+x,y,1/2-z
1/2-x,1/2+y,z
1/2+x,-y,1/2+z
loop_
_atom_site_type_symbol
_atom_site_label
_atom_site_fract_x
_atom_site_fract_y
_atom_site_fract_z
Si Si1 0.295744 0.879671 0.118303
Si Si2 0.096054 0.646168 0.665239
Si Si3 0.786589 0.119715 0.042492
Si Si4 0.649085 0.443386 0.730185
O O1 0.187951 0.857447 0.128437
O O2 0.332939 0.721961 0.092645
O O3 0.293024 0.021205 0.073363
O O4 0.338506 0.931107 0.179193
O O5 0.101232 0.801588 0.701549
O O6 0.103534 0.514380 0.713350
O O7 0.000000 0.636846 0.633568
O O8 0.750000 0.250000 0.000000
O O9 0.836088 0.000000 0.000000
O O10 0.750000 0.396114 0.750000
#
# Coordination Sequence:
#
# PCOD9477032 Si02
#       4
#    16  16  16  16
#     4  10  18  34  57  82 104 142 176 221 264 311
#     4  11  22  34  51  81 116 144 172 212 263 322
#     4   9  18  32  56  86 101 125 183 237 262 302
#     4  10  20  34  54  78 109 144 183 213 251 315
#
# _framework density 21.379055999999999
#
# number of rings (size 3 to 8) (size 9 to 14) (size 15 to 20)
#    0.000    2.000    2.500    3.000    3.500    0.000 
#    0.000    0.000    0.000    7.500    0.000    0.000 
#    0.000    0.000    0.000    0.000    0.000    0.000 
#
# Total GULP energy -178411.882291 kJ/mol
# GULP energy per Si atom -5575.371322 kJ/mol
# Density = 2.133040 g / cm^3
# Si number density = 21.379056 Si / 1000 Ang^3
#
#
#
# Elastic Constant Matrix: (Units=GPa)
#
#
# Indices 1 2 3 4 5 6 
#
# 1 68.0978 4.9158 1.6072 0.0000 0.0000 0.0000
# 2 4.9158 102.6024 19.5509 0.0000 0.0000 0.0000
# 3 1.6072 19.5509 69.8534 0.0000 0.0000 0.0000
# 4 0.0000 0.0000 0.0000 47.8257 0.0000 0.0000
# 5 0.0000 0.0000 0.0000 0.0000 -2.4880 0.0000
# 6 0.0000 0.0000 0.0000 0.0000 0.0000 -23.6016
#
#
#
# Elastic Compliance Matrix: (Units=1/GPa)
#
#
# Indices 1 2 3 4 5 6 
#
# 1 0.014737 -0.000678 -0.000149 0.000000 0.000000 0.000000
# 2 -0.000678 0.010327 -0.002875 0.000000 0.000000 0.000000
# 3 -0.000149 -0.002875 0.015124 0.000000 0.000000 0.000000
# 4 0.000000 0.000000 0.000000 0.020909 0.000000 0.000000
# 5 0.000000 0.000000 0.000000 0.000000 -0.401922 0.000000
# 6 0.000000 0.000000 0.000000 0.000000 0.000000 -0.042370
#
#
# Mechanical properties :
#
#
# Convention : Reuss Voigt Hill
#
# Bulk Modulus (GPa) = 30.50257 32.52237 31.51247
# Shear Modulus (GPa) = -13.70373 18.64587 2.47107
#
# Velocity S-wave (km/s) = -2.53452 2.95643 1.07627
# Velocity P-wave (km/s) = 2.39445 5.18645 4.03935
#
# Compressibility (1/GPa) = 0.03278412
#
# Stress axis : x y z
#
# Youngs Moduli (GPa) = 67.85547 96.83742 66.12138
#
# Poissons Ratio (x) = 0.06562 0.00988
# Poissons Ratio (y) = 0.04598 0.19008
# Poissons Ratio (z) = 0.01014 0.27837
#
# Static dielectric constant tensor:
#      x y z
#    x 1.843690 0.000000 0.000000 
#    y 0.000000 1.832810 0.000000 
#    z 0.000000 0.000000 1.852800 
# 
# From -- ./inp_files/44776.got.cif
#   From: 2010.05.17/outbox.cif.g08.bks.cpg/sg64_23_cif.got.tgz:44776.got - 2010.06.03 16:29:19.
