data_PCOD9477436
_publ_section_title
;
Structure prediction by ZEFSAII (Michael W. Deem and Ramdas Pophale) SiO2 
 PCOD9477436
Probable space group: C M C A
;
_chemical_formula_sum "Si O2"
_cell_formula_units_Z 64
_cell_length_a 13.124262
_cell_length_b 13.202014
_cell_length_c 18.852396
_cell_angle_alpha 90.000000
_cell_angle_beta 90.000000
_cell_angle_gamma 90.000000
_cell_volume 3266.492266
_symmetry_space_group_name_H-M "C M C A"
_symmetry_group_IT_number 64
_symmetry_cell_setting 'orthorhombic'
loop_
_space_group_symop_operation_xyz
x,y,z
-x,1/2-y,1/2+z
x,-y,-z
-x,1/2+y,1/2-z
-x,-y,-z
x,1/2+y,1/2-z
-x,y,z
x,1/2-y,1/2+z
1/2+x,1/2+y,z
1/2-x,-y,1/2+z
1/2+x,1/2-y,-z
1/2-x,y,1/2-z
1/2-x,1/2-y,-z
1/2+x,y,1/2-z
1/2-x,1/2+y,z
1/2+x,-y,1/2+z
loop_
_atom_site_type_symbol
_atom_site_label
_atom_site_fract_x
_atom_site_fract_y
_atom_site_fract_z
Si Si1 0.796381 0.953109 0.326181
Si Si2 0.114017 0.329028 0.804650
Si Si3 0.614052 0.539733 0.079716
Si Si4 0.672986 0.262710 0.854082
O O1 0.750000 0.921928 0.250000
O O2 0.701589 0.989094 0.373478
O O3 0.850054 0.855567 0.359727
O O4 0.866526 0.051034 0.314180
O O5 0.204327 0.274814 0.847832
O O6 0.131083 0.302932 0.721734
O O7 0.000000 0.300672 0.825602
O O8 0.500000 0.516638 0.106332
O O9 0.631534 0.660570 0.087319
O O10 0.622139 0.500000 0.000000
#
# Coordination Sequence:
#
# PCOD9477436 Si02
#       4
#    16  16  16  16
#     4  11  20  36  55  85 114 144 186 235 287 328
#     4  10  19  32  51  80 112 140 176 226 279 327
#     4  10  22  40  60  82 114 154 192 231 278 340
#     4  10  20  35  53  81 114 144 183 231 281 330
#
# _framework density 19.592883
#
# number of rings (size 3 to 8) (size 9 to 14) (size 15 to 20)
#    0.000    1.750    7.500    0.750    0.000    4.000 
#    0.000    0.000    0.000   12.000    0.000    0.000 
#    0.000    0.000    0.000    0.000    0.000    0.000 
#
# Total GULP energy -178645.650675 kJ/mol
# GULP energy per Si atom -5582.676584 kJ/mol
# Density = 1.954829 g / cm^3
# Si number density = 19.592883 Si / 1000 Ang^3
#
#
#
# Elastic Constant Matrix: (Units=GPa)
#
#
# Indices 1 2 3 4 5 6 
#
# 1 100.7275 2.9820 20.2043 0.0000 0.0000 0.0000
# 2 2.9820 110.6655 -0.7694 0.0000 0.0000 0.0000
# 3 20.2043 -0.7694 21.2482 0.0000 0.0000 0.0000
# 4 0.0000 0.0000 0.0000 -2.8464 0.0000 0.0000
# 5 0.0000 0.0000 0.0000 0.0000 7.1242 0.0000
# 6 0.0000 0.0000 0.0000 0.0000 0.0000 -2.5761
#
#
#
# Elastic Compliance Matrix: (Units=1/GPa)
#
#
# Indices 1 2 3 4 5 6 
#
# 1 0.012286 -0.000412 -0.011698 0.000000 0.000000 0.000000
# 2 -0.000412 0.009052 0.000720 0.000000 0.000000 0.000000
# 3 -0.011698 0.000720 0.058212 0.000000 0.000000 0.000000
# 4 0.000000 0.000000 0.000000 -0.351316 0.000000 0.000000
# 5 0.000000 0.000000 0.000000 0.000000 0.140367 0.000000
# 6 0.000000 0.000000 0.000000 0.000000 0.000000 -0.388185
#
#
# Mechanical properties :
#
#
# Convention : Reuss Voigt Hill
#
# Bulk Modulus (GPa) = 17.61483 30.83056 24.22269
# Shear Modulus (GPa) = -10.46290 14.35528 1.94619
#
# Velocity S-wave (km/s) = -2.31338 2.70974 0.99773
# Velocity P-wave (km/s) = 1.36904 5.05569 3.70367
#
# Compressibility (1/GPa) = 0.05677034
#
# Stress axis : x y z
#
# Youngs Moduli (GPa) = 81.39103 110.46845 17.17859
#
# Poissons Ratio (x) = 0.04556 0.20095
# Poissons Ratio (y) = 0.03357 -0.01237
# Poissons Ratio (z) = 0.95209 -0.07953
#
# Static dielectric constant tensor:
#      x y z
#    x 1.683840 0.000000 0.000000 
#    y 0.000000 1.726320 0.000000 
#    z 0.000000 0.000000 1.658280 
# 
# From -- ./inp_files/31784.got.cif
#   From: 2010.05.17/outbox.cif.g08.bks.cpg/sg64_16_cif.got.tgz:31784.got - 2010.06.03 16:29:19.
