data_PCOD9477777
_publ_section_title
;
Structure prediction by ZEFSAII (Michael W. Deem and Ramdas Pophale) SiO2 
 PCOD9477777
Probable space group: C M C A
;
_chemical_formula_sum "Si O2"
_cell_formula_units_Z 112
_cell_length_a 15.194021
_cell_length_b 19.245796
_cell_length_c 20.163823
_cell_angle_alpha 90.000000
_cell_angle_beta 90.000000
_cell_angle_gamma 90.000000
_cell_volume 5896.325862
_symmetry_space_group_name_H-M "C M C A"
_symmetry_group_IT_number 64
_symmetry_cell_setting 'orthorhombic'
loop_
_space_group_symop_operation_xyz
x,y,z
-x,1/2-y,1/2+z
x,-y,-z
-x,1/2+y,1/2-z
-x,-y,-z
x,1/2+y,1/2-z
-x,y,z
x,1/2-y,1/2+z
1/2+x,1/2+y,z
1/2-x,-y,1/2+z
1/2+x,1/2-y,-z
1/2-x,y,1/2-z
1/2-x,1/2-y,-z
1/2+x,y,1/2-z
1/2-x,1/2+y,z
1/2+x,-y,1/2+z
loop_
_atom_site_type_symbol
_atom_site_label
_atom_site_fract_x
_atom_site_fract_y
_atom_site_fract_z
Si Si1 0.643493 0.351039 0.254178
Si Si2 0.845958 0.265464 0.850592
Si Si3 0.893996 0.067125 0.954064
Si Si4 0.865022 0.252860 0.637629
Si Si5 0.150361 0.777346 0.008647
Si Si6 0.398165 0.487114 0.186732
Si Si7 0.101262 0.128396 0.243342
O O1 0.750000 0.355180 0.250000
O O2 0.617977 0.296819 0.195762
O O3 0.612682 0.317132 0.322817
O O4 0.606137 0.426192 0.239977
O O5 0.741402 0.255508 0.858799
O O6 0.885103 0.258735 0.924203
O O7 0.857512 0.334838 0.807466
O O8 0.853005 0.139568 0.978828
O O9 0.860699 0.045484 0.880967
O O10 0.000000 0.078903 0.952283
O O11 0.877909 0.000000 0.000000
O O12 0.893720 0.260139 0.561840
O O13 0.896162 0.316573 0.683145
O O14 0.250000 0.750000 0.000000
O O15 0.500000 0.504072 0.170081
O O16 0.357662 0.557310 0.215832
O O17 0.000000 0.114602 0.261258
#
# Coordination Sequence:
#
# PCOD9477777 Si02
#       7
#    16  16  16  16  16  16  16
#     4   9  17  31  50  74 100 131 172 214 255 311
#     4   9  18  34  53  75 104 136 174 214 264 316
#     4  10  20  34  54  82 115 142 173 224 286 337
#     4   9  19  33  52  75 106 133 170 217 265 312
#     4  10  19  34  57  79 112 143 180 224 270 327
#     4  10  20  33  50  74 104 136 174 217 264 316
#     4  10  20  33  51  77 106 137 176 220 264 319
#
# _framework density 18.994879999999998
#
# number of rings (size 3 to 8) (size 9 to 14) (size 15 to 20)
#    0.000    2.429    1.429    2.143    0.000    5.714 
#    0.000    0.000    0.000    0.000    0.000    2.000 
#    0.000    0.000    0.000    0.000    0.000    0.000 
#
# Total GULP energy -312175.959496 kJ/mol
# GULP energy per Si atom -5574.570705 kJ/mol
# Density = 1.895165 g / cm^3
# Si number density = 18.994880 Si / 1000 Ang^3
#
#
#
# Elastic Constant Matrix: (Units=GPa)
#
#
# Indices 1 2 3 4 5 6 
#
# 1 33.9610 8.9089 8.8976 0.0000 0.0000 0.0000
# 2 8.9089 127.7710 57.9609 0.0000 0.0000 0.0000
# 3 8.8976 57.9609 157.4763 0.0000 0.0000 0.0000
# 4 0.0000 0.0000 0.0000 27.5949 0.0000 0.0000
# 5 0.0000 0.0000 0.0000 0.0000 10.6483 0.0000
# 6 0.0000 0.0000 0.0000 0.0000 0.0000 22.9355
#
#
#
# Elastic Compliance Matrix: (Units=1/GPa)
#
#
# Indices 1 2 3 4 5 6 
#
# 1 0.030157 -0.001596 -0.001116 0.000000 0.000000 0.000000
# 2 -0.001596 0.009480 -0.003399 0.000000 0.000000 0.000000
# 3 -0.001116 -0.003399 0.007664 0.000000 0.000000 0.000000
# 4 0.000000 0.000000 0.000000 0.036239 0.000000 0.000000
# 5 0.000000 0.000000 0.000000 0.000000 0.093911 0.000000
# 6 0.000000 0.000000 0.000000 0.000000 0.000000 0.043600
#
#
# Mechanical properties :
#
#
# Convention : Reuss Voigt Hill
#
# Bulk Modulus (GPa) = 28.50821 52.30478 40.40649
# Shear Modulus (GPa) = 20.41093 28.46515 24.43804
#
# Velocity S-wave (km/s) = 3.28159 3.87534 3.59076
# Velocity P-wave (km/s) = 5.42212 6.90075 6.20563
#
# Compressibility (1/GPa) = 0.03507761
#
# Stress axis : x y z
#
# Youngs Moduli (GPa) = 33.16001 105.48911 130.47608
#
# Poissons Ratio (x) = 0.16839 0.14566
# Poissons Ratio (y) = 0.05293 0.44348
# Poissons Ratio (z) = 0.03702 0.35855
#
# Static dielectric constant tensor:
#      x y z
#    x 1.713260 0.000000 0.000000 
#    y 0.000000 1.654670 0.000000 
#    z 0.000000 0.000000 1.702430 
# 
# From -- ./inp_files/40379.got.cif
#   From: 2010.05.17/outbox.cif.g08.bks.cpg/sg64_21_cif.got.tgz:40379.got - 2010.06.03 16:29:19.
