data_PCOD9477571
_publ_section_title
;
Structure prediction by ZEFSAII (Michael W. Deem and Ramdas Pophale) SiO2 
 PCOD9477571
Probable space group: C M C A
;
_chemical_formula_sum "Si O2"
_cell_formula_units_Z 80
_cell_length_a 8.672000
_cell_length_b 19.746829
_cell_length_c 26.158727
_cell_angle_alpha 90.000000
_cell_angle_beta 90.000000
_cell_angle_gamma 90.000000
_cell_volume 4479.538154
_symmetry_space_group_name_H-M "C M C A"
_symmetry_group_IT_number 64
_symmetry_cell_setting 'orthorhombic'
loop_
_space_group_symop_operation_xyz
x,y,z
-x,1/2-y,1/2+z
x,-y,-z
-x,1/2+y,1/2-z
-x,-y,-z
x,1/2+y,1/2-z
-x,y,z
x,1/2-y,1/2+z
1/2+x,1/2+y,z
1/2-x,-y,1/2+z
1/2+x,1/2-y,-z
1/2-x,y,1/2-z
1/2-x,1/2-y,-z
1/2+x,y,1/2-z
1/2-x,1/2+y,z
1/2+x,-y,1/2+z
loop_
_atom_site_type_symbol
_atom_site_label
_atom_site_fract_x
_atom_site_fract_y
_atom_site_fract_z
Si Si1 0.814692 0.226583 0.608712
Si Si2 0.314880 0.383029 0.033756
Si Si3 0.315809 0.371887 0.193135
Si Si4 0.183130 0.518802 0.882263
Si Si5 0.314661 0.119587 0.414094
O O1 0.746504 0.184995 0.560786
O O2 0.749346 0.189527 0.658721
O O3 0.774328 0.305468 0.605219
O O4 0.000000 0.220188 0.607727
O O5 0.500000 0.385687 0.038597
O O6 0.243514 0.444550 0.066119
O O7 0.274490 0.385210 0.974228
O O8 0.500000 0.369557 0.193538
O O9 0.250000 0.369408 0.250000
O O10 0.259856 0.439480 0.163850
O O11 0.233224 0.441090 0.884512
O O12 0.000000 0.525988 0.879227
O O13 0.500000 0.111370 0.410015
#
# Coordination Sequence:
#
# PCOD9477571 Si02
#       5
#    16  16  16  16  16
#     4  10  20  35  55  81 111 142 181 223 265 316
#     4  10  19  33  53  77 110 151 188 220 262 314
#     4  11  22  40  63  82 104 135 175 221 270 324
#     4  11  22  35  54  81 110 142 183 225 266 317
#     4  10  21  35  52  78 114 150 181 221 268 314
#
# _framework density 17.858982999999998
#
# number of rings (size 3 to 8) (size 9 to 14) (size 15 to 20)
#    0.000    1.600    0.000    8.400    0.000    5.600 
#    0.000    1.000    0.000    4.800    0.000    0.000 
#    0.000    0.000    0.000    0.000    0.000    0.000 
#
# Total GULP energy -223566.500712 kJ/mol
# GULP energy per Si atom -5589.162518 kJ/mol
# Density = 1.781834 g / cm^3
# Si number density = 17.858983 Si / 1000 Ang^3
#
#
#
# Elastic Constant Matrix: (Units=GPa)
#
#
# Indices 1 2 3 4 5 6 
#
# 1 60.2063 6.9517 2.7592 0.0000 0.0000 0.0000
# 2 6.9517 80.2152 -2.2010 0.0000 0.0000 0.0000
# 3 2.7592 -2.2010 64.3168 0.0000 0.0000 0.0000
# 4 0.0000 0.0000 0.0000 2.6035 0.0000 0.0000
# 5 0.0000 0.0000 0.0000 0.0000 25.6314 0.0000
# 6 0.0000 0.0000 0.0000 0.0000 0.0000 33.3788
#
#
#
# Elastic Compliance Matrix: (Units=1/GPa)
#
#
# Indices 1 2 3 4 5 6 
#
# 1 0.016816 -0.001478 -0.000772 0.000000 0.000000 0.000000
# 2 -0.001478 0.012608 0.000495 0.000000 0.000000 0.000000
# 3 -0.000772 0.000495 0.015598 0.000000 0.000000 0.000000
# 4 0.000000 0.000000 0.000000 0.384092 0.000000 0.000000
# 5 0.000000 0.000000 0.000000 0.000000 0.039015 0.000000
# 6 0.000000 0.000000 0.000000 0.000000 0.000000 0.029959
#
#
# Mechanical properties :
#
#
# Convention : Reuss Voigt Hill
#
# Bulk Modulus (GPa) = 24.09016 24.41759 24.25387
# Shear Modulus (GPa) = 9.70053 25.47131 17.58592
#
# Velocity S-wave (km/s) = 2.33314 3.78066 3.14141
# Velocity P-wave (km/s) = 4.55812 5.72364 5.17380
#
# Compressibility (1/GPa) = 0.04151073
#
# Stress axis : x y z
#
# Youngs Moduli (GPa) = 59.46845 79.31367 64.11043
#
# Poissons Ratio (x) = 0.11726 0.04949
# Poissons Ratio (y) = 0.08792 -0.03173
# Poissons Ratio (z) = 0.04591 -0.03925
#
# Static dielectric constant tensor:
#      x y z
#    x 1.598090 0.000000 0.000000 
#    y 0.000000 1.607630 0.000000 
#    z 0.000000 0.000000 1.581560 
# 
# From -- ./inp_files/47848.got.cif
#   From: 2010.05.17/outbox.cif.g08.bks.cpg/sg64_24_cif.got.tgz:47848.got - 2010.06.03 16:29:19.
