data_PCOD9477609
_publ_section_title
;
Structure prediction by ZEFSAII (Michael W. Deem and Ramdas Pophale) SiO2 
 PCOD9477609
Probable space group: C M C A
;
_chemical_formula_sum "Si O2"
_cell_formula_units_Z 96
_cell_length_a 16.565906
_cell_length_b 12.690487
_cell_length_c 18.232756
_cell_angle_alpha 90.000000
_cell_angle_beta 90.000000
_cell_angle_gamma 90.000000
_cell_volume 3833.061623
_symmetry_space_group_name_H-M "C M C A"
_symmetry_group_IT_number 64
_symmetry_cell_setting 'orthorhombic'
loop_
_space_group_symop_operation_xyz
x,y,z
-x,1/2-y,1/2+z
x,-y,-z
-x,1/2+y,1/2-z
-x,-y,-z
x,1/2+y,1/2-z
-x,y,z
x,1/2-y,1/2+z
1/2+x,1/2+y,z
1/2-x,-y,1/2+z
1/2+x,1/2-y,-z
1/2-x,y,1/2-z
1/2-x,1/2-y,-z
1/2+x,y,1/2-z
1/2-x,1/2+y,z
1/2+x,-y,1/2+z
loop_
_atom_site_type_symbol
_atom_site_label
_atom_site_fract_x
_atom_site_fract_y
_atom_site_fract_z
Si Si1 0.818477 0.299748 0.806134
Si Si2 0.844338 0.002653 0.227149
Si Si3 0.331534 0.065770 0.063130
Si Si4 0.343669 0.242361 0.476915
Si Si5 0.904050 0.115749 0.899351
Si Si6 0.092376 0.628636 0.855149
O O1 0.750000 0.260997 0.750000
O O2 0.870427 0.382666 0.757702
O O3 0.784845 0.375810 0.871659
O O4 0.865250 0.211783 0.851509
O O5 0.750000 0.993885 0.250000
O O6 0.864333 0.982969 0.142515
O O7 0.887265 0.909681 0.273554
O O8 0.380646 0.156888 0.021379
O O9 0.386835 0.978723 0.101048
O O10 0.285400 0.000000 0.000000
O O11 0.250000 0.250000 0.500000
O O12 0.380660 0.141028 0.516374
O O13 0.357166 0.277671 0.393440
O O14 0.000000 0.111707 0.892696
O O15 0.000000 0.658128 0.861225
#
# Coordination Sequence:
#
# PCOD9477609 Si02
#       6
#    16  16  16  16  16  16
#     4   9  19  34  54  78 105 141 183 225 269 321
#     4  10  20  35  54  77 108 143 181 222 269 325
#     4   8  17  31  50  74 100 129 169 215 264 308
#     4  10  20  33  50  76 108 139 168 207 266 329
#     4  11  22  35  54  80 111 144 179 223 271 319
#     4  10  19  33  55  79 103 134 178 230 274 311
#
# _framework density 25.045254
#
# number of rings (size 3 to 8) (size 9 to 14) (size 15 to 20)
#    0.000    2.333    0.000    2.500    0.000   12.333 
#    0.000    0.000    0.000    0.000    0.000    0.000 
#    0.000   50.000    0.000    0.000    0.000    0.000 
#
# Total GULP energy -267826.117246 kJ/mol
# GULP energy per Si atom -5579.710776 kJ/mol
# Density = 2.498825 g / cm^3
# Si number density = 25.045254 Si / 1000 Ang^3
#
#
#
# Elastic Constant Matrix: (Units=GPa)
#
#
# Indices 1 2 3 4 5 6 
#
# 1 95.6511 -17.2079 -13.3357 0.0000 0.0000 0.0000
# 2 -17.2079 30.9580 6.5701 0.0000 0.0000 0.0000
# 3 -13.3357 6.5701 81.3426 0.0000 0.0000 0.0000
# 4 0.0000 0.0000 0.0000 49.7304 0.0000 0.0000
# 5 0.0000 0.0000 0.0000 0.0000 28.3741 0.0000
# 6 0.0000 0.0000 0.0000 0.0000 0.0000 7.9641
#
#
#
# Elastic Compliance Matrix: (Units=1/GPa)
#
#
# Indices 1 2 3 4 5 6 
#
# 1 0.011777 0.006243 0.001426 0.000000 0.000000 0.000000
# 2 0.006243 0.036175 -0.001898 0.000000 0.000000 0.000000
# 3 0.001426 -0.001898 0.012681 0.000000 0.000000 0.000000
# 4 0.000000 0.000000 0.000000 0.020108 0.000000 0.000000
# 5 0.000000 0.000000 0.000000 0.000000 0.035243 0.000000
# 6 0.000000 0.000000 0.000000 0.000000 0.000000 0.125563
#
#
# Mechanical properties :
#
#
# Convention : Reuss Voigt Hill
#
# Bulk Modulus (GPa) = 13.85509 17.77830 15.81669
# Shear Modulus (GPa) = 19.68015 32.67541 26.17778
#
# Velocity S-wave (km/s) = 2.80622 3.61592 3.23649
# Velocity P-wave (km/s) = 4.00548 4.95450 4.50505
#
# Compressibility (1/GPa) = 0.07217565
#
# Stress axis : x y z
#
# Youngs Moduli (GPa) = 84.91316 27.64332 78.85896
#
# Poissons Ratio (x) = -0.17259 -0.11249
# Poissons Ratio (y) = -0.53014 0.14970
# Poissons Ratio (z) = -0.12112 0.05248
#
# Static dielectric constant tensor:
#      x y z
#    x 1.916740 0.000000 0.000000 
#    y 0.000000 2.088630 0.000000 
#    z 0.000000 0.000000 2.093260 
# 
# From -- ./inp_files/39249.got.cif
#   From: 2010.05.17/outbox.cif.g08.bks.cpg/sg64_20_cif.got.tgz:39249.got - 2010.06.03 16:29:19.
