data_PCOD9477521
_publ_section_title
;
Structure prediction by ZEFSAII (Michael W. Deem and Ramdas Pophale) SiO2 
 PCOD9477521
Probable space group: C M C A
;
_chemical_formula_sum "Si O2"
_cell_formula_units_Z 80
_cell_length_a 9.013343
_cell_length_b 15.799905
_cell_length_c 29.350609
_cell_angle_alpha 90.000000
_cell_angle_beta 90.000000
_cell_angle_gamma 90.000000
_cell_volume 4179.819146
_symmetry_space_group_name_H-M "C M C A"
_symmetry_group_IT_number 64
_symmetry_cell_setting 'orthorhombic'
loop_
_space_group_symop_operation_xyz
x,y,z
-x,1/2-y,1/2+z
x,-y,-z
-x,1/2+y,1/2-z
-x,-y,-z
x,1/2+y,1/2-z
-x,y,z
x,1/2-y,1/2+z
1/2+x,1/2+y,z
1/2-x,-y,1/2+z
1/2+x,1/2-y,-z
1/2-x,y,1/2-z
1/2-x,1/2-y,-z
1/2+x,y,1/2-z
1/2-x,1/2+y,z
1/2+x,-y,1/2+z
loop_
_atom_site_type_symbol
_atom_site_label
_atom_site_fract_x
_atom_site_fract_y
_atom_site_fract_z
Si Si1 0.822700 0.911788 0.350430
Si Si2 0.823109 0.169593 0.552809
Si Si3 0.676101 0.146530 0.048499
Si Si4 0.822955 0.416810 0.637259
Si Si5 0.821170 0.259368 0.700973
O O1 0.791427 0.885144 0.402720
O O2 0.778692 0.831935 0.319523
O O3 0.000000 0.923883 0.346251
O O4 0.739416 0.998331 0.340125
O O5 0.732636 0.256925 0.554370
O O6 0.792477 0.125187 0.504411
O O7 0.000000 0.190421 0.553682
O O8 0.500000 0.141222 0.055501
O O9 0.757013 0.092058 0.086640
O O10 0.778190 0.333758 0.665992
O O11 0.000000 0.419080 0.635040
O O12 0.750000 0.272752 0.750000
O O13 0.000000 0.260832 0.704438
#
# Coordination Sequence:
#
# PCOD9477521 Si02
#       5
#    16  16  16  16  16
#     4  10  21  40  62  86 118 156 194 237 291 350
#     4   9  18  35  57  83 121 159 195 239 291 345
#     4  10  19  32  57  88 117 158 201 238 284 345
#     4  11  23  40  60  87 122 157 194 242 292 345
#     4  10  23  43  65  85 115 152 190 242 301 351
#
# _framework density 19.139583999999999
#
# number of rings (size 3 to 8) (size 9 to 14) (size 15 to 20)
#    0.000    2.000    2.000    1.200    0.000    5.600 
#    0.000    8.000    0.000    0.000    0.000    0.000 
#    0.000    0.000    0.000    0.000    0.000    0.000 
#
# Total GULP energy -223405.857117 kJ/mol
# GULP energy per Si atom -5585.146428 kJ/mol
# Density = 1.909602 g / cm^3
# Si number density = 19.139584 Si / 1000 Ang^3
#
#
#
# Elastic Constant Matrix: (Units=GPa)
#
#
# Indices 1 2 3 4 5 6 
#
# 1 22.5923 16.4735 19.0360 0.0000 0.0000 0.0000
# 2 16.4735 47.8589 -1.8541 0.0000 0.0000 0.0000
# 3 19.0360 -1.8541 64.7617 0.0000 0.0000 0.0000
# 4 0.0000 0.0000 0.0000 4.6442 0.0000 0.0000
# 5 0.0000 0.0000 0.0000 0.0000 28.3905 0.0000
# 6 0.0000 0.0000 0.0000 0.0000 0.0000 31.4506
#
#
#
# Elastic Compliance Matrix: (Units=1/GPa)
#
#
# Indices 1 2 3 4 5 6 
#
# 1 0.091420 -0.032545 -0.027804 0.000000 0.000000 0.000000
# 2 -0.032545 0.032504 0.010497 0.000000 0.000000 0.000000
# 3 -0.027804 0.010497 0.023914 0.000000 0.000000 0.000000
# 4 0.000000 0.000000 0.000000 0.215321 0.000000 0.000000
# 5 0.000000 0.000000 0.000000 0.000000 0.035223 0.000000
# 6 0.000000 0.000000 0.000000 0.000000 0.000000 0.031796
#
#
# Mechanical properties :
#
#
# Convention : Reuss Voigt Hill
#
# Bulk Modulus (GPa) = 20.77503 22.50262 21.63882
# Shear Modulus (GPa) = 9.15874 19.66756 14.41315
#
# Velocity S-wave (km/s) = 2.18989 3.20908 2.74716
# Velocity P-wave (km/s) = 4.15598 5.05109 4.62524
#
# Compressibility (1/GPa) = 0.04813471
#
# Stress axis : x y z
#
# Youngs Moduli (GPa) = 10.93847 30.76582 41.81590
#
# Poissons Ratio (x) = 1.00127 1.16264
# Poissons Ratio (y) = 0.35599 -0.43893
# Poissons Ratio (z) = 0.30413 -0.32294
#
# Static dielectric constant tensor:
#      x y z
#    x 1.636640 0.000000 0.000000 
#    y 0.000000 1.667390 0.000000 
#    z 0.000000 0.000000 1.664380 
# 
# From -- ./inp_files/47894.got.cif
#   From: 2010.05.17/outbox.cif.g08.bks.cpg/sg64_24_cif.got.tgz:47894.got - 2010.06.03 16:29:19.
