data_PCOD9477860
_publ_section_title
;
Structure prediction by ZEFSAII (Michael W. Deem and Ramdas Pophale) SiO2 
 PCOD9477860
Probable space group: C M C A
;
_chemical_formula_sum "Si O2"
_cell_formula_units_Z 88
_cell_length_a 18.531685
_cell_length_b 10.478272
_cell_length_c 18.359438
_cell_angle_alpha 90.000000
_cell_angle_beta 90.000000
_cell_angle_gamma 90.000000
_cell_volume 3565.036333
_symmetry_space_group_name_H-M "C M C A"
_symmetry_group_IT_number 64
_symmetry_cell_setting 'orthorhombic'
loop_
_space_group_symop_operation_xyz
x,y,z
-x,1/2-y,1/2+z
x,-y,-z
-x,1/2+y,1/2-z
-x,-y,-z
x,1/2+y,1/2-z
-x,y,z
x,1/2-y,1/2+z
1/2+x,1/2+y,z
1/2-x,-y,1/2+z
1/2+x,1/2-y,-z
1/2-x,y,1/2-z
1/2-x,1/2-y,-z
1/2+x,y,1/2-z
1/2-x,1/2+y,z
1/2+x,-y,1/2+z
loop_
_atom_site_type_symbol
_atom_site_label
_atom_site_fract_x
_atom_site_fract_y
_atom_site_fract_z
Si Si1 0.893628 0.000000 0.000000
Si Si2 0.820264 0.421481 0.716110
Si Si3 0.670400 0.630101 0.478270
Si Si4 0.081423 0.725978 0.398608
Si Si5 0.584158 0.876487 0.839492
Si Si6 0.817251 0.660860 0.623735
O O1 0.851947 0.086856 0.943216
O O2 0.930542 0.898179 0.948552
O O3 0.750000 0.353069 0.750000
O O4 0.869448 0.328153 0.667226
O O5 0.872514 0.461903 0.782265
O O6 0.789603 0.545757 0.673506
O O7 0.709578 0.500000 0.500000
O O8 0.631211 0.686271 0.549354
O O9 0.605700 0.593175 0.422398
O O10 0.782173 0.777997 0.575917
O O11 0.000000 0.775277 0.379440
O O12 0.500000 0.877359 0.827162
O O13 0.620145 0.735546 0.832212
#
# Coordination Sequence:
#
# PCOD9477860 Si02
#       6
#     8  16  16  16  16  16
#     4   8  15  32  62  96 128 162 217 294 351 404
#     4  11  24  43  66  95 143 193 236 284 347 421
#     4   9  20  40  68 104 140 175 228 302 362 410
#     4  10  19  34  64 100 134 181 239 291 352 416
#     4  10  22  39  63 100 138 177 227 284 350 419
#     4   8  20  38  64  96 129 175 224 278 349 414
#
# _framework density 24.684179
#
# number of rings (size 3 to 8) (size 9 to 14) (size 15 to 20)
#    1.091    1.455    0.000    1.364    0.000    7.273 
#    0.000    0.909   12.000    1.091    0.000    0.000 
#    0.000    0.000    0.000    0.000    0.000    0.545 
#
# Total GULP energy -245098.211525 kJ/mol
# GULP energy per Si atom -5570.413898 kJ/mol
# Density = 2.462800 g / cm^3
# Si number density = 24.684179 Si / 1000 Ang^3
#
#
#
# Elastic Constant Matrix: (Units=GPa)
#
#
# Indices 1 2 3 4 5 6 
#
# 1 160.4106 23.6909 62.3206 0.0000 0.0000 0.0000
# 2 23.6909 100.0745 38.2775 0.0000 0.0000 0.0000
# 3 62.3206 38.2775 105.0236 0.0000 0.0000 0.0000
# 4 0.0000 0.0000 0.0000 30.7298 0.0000 0.0000
# 5 0.0000 0.0000 0.0000 0.0000 -7.3145 0.0000
# 6 0.0000 0.0000 0.0000 0.0000 0.0000**********
#
#
#
# Elastic Compliance Matrix: (Units=1/GPa)
#
#
# Indices 1 2 3 4 5 6 
#
# 1 0.008102 -0.000092 -0.004774 0.000000 0.000000 0.000000
# 2 -0.000092 0.011612 -0.004178 0.000000 0.000000 0.000000
# 3 -0.004774 -0.004178 0.013877 0.000000 0.000000 0.000000
# 4 0.000000 0.000000 0.000000 0.032542 0.000000 0.000000
# 5 0.000000 0.000000 0.000000 0.000000 -0.136715 0.000000
# 6 0.000000 0.000000 0.000000 0.000000 0.000000 -0.000098
#
#
# Mechanical properties :
#
#
# Convention : Reuss Voigt Hill
#
# Bulk Modulus (GPa) = 64.49969 68.23186 66.36577
# Shear Modulus (GPa) = -105.43391 -2021.51621 -1063.47506
#
# Velocity S-wave (km/s) = -6.54262 -28.64839 -20.77903
# Velocity P-wave (km/s) = 5.55768 32.65892 23.42533
#
# Compressibility (1/GPa) = 0.01550395
#
# Stress axis : x y z
#
# Youngs Moduli (GPa) = 123.41873 86.11589 72.05925
#
# Poissons Ratio (x) = 0.00792 0.34405
# Poissons Ratio (y) = 0.01135 0.30104
# Poissons Ratio (z) = 0.58926 0.35977
#
# Static dielectric constant tensor:
#      x y z
#    x 1.861750 0.000000 0.000000 
#    y 0.000000 2.062450 0.000000 
#    z 0.000000 0.000000 1.969180 
# 
# From -- ./inp_files/40057.got.cif
#   From: 2010.05.17/outbox.cif.g08.bks.cpg/sg64_21_cif.got.tgz:40057.got - 2010.06.03 16:29:19.
