data_PCOD9477168
_publ_section_title
;
Structure prediction by ZEFSAII (Michael W. Deem and Ramdas Pophale) SiO2 
 PCOD9477168
Probable space group: C M C A
;
_chemical_formula_sum "Si O2"
_cell_formula_units_Z 72
_cell_length_a 25.980482
_cell_length_b 10.829417
_cell_length_c 13.154582
_cell_angle_alpha 90.000000
_cell_angle_beta 90.000000
_cell_angle_gamma 90.000000
_cell_volume 3701.087337
_symmetry_space_group_name_H-M "C M C A"
_symmetry_group_IT_number 64
_symmetry_cell_setting 'orthorhombic'
loop_
_space_group_symop_operation_xyz
x,y,z
-x,1/2-y,1/2+z
x,-y,-z
-x,1/2+y,1/2-z
-x,-y,-z
x,1/2+y,1/2-z
-x,y,z
x,1/2-y,1/2+z
1/2+x,1/2+y,z
1/2-x,-y,1/2+z
1/2+x,1/2-y,-z
1/2-x,y,1/2-z
1/2-x,1/2-y,-z
1/2+x,y,1/2-z
1/2-x,1/2+y,z
1/2+x,-y,1/2+z
loop_
_atom_site_type_symbol
_atom_site_label
_atom_site_fract_x
_atom_site_fract_y
_atom_site_fract_z
Si Si1 0.500000 0.834379 0.192152
Si Si2 0.761918 0.685315 0.134031
Si Si3 0.672369 0.644586 0.984352
Si Si4 0.914951 0.683152 0.974168
Si Si5 0.500000 0.379698 0.640390
Si Si6 0.827349 0.500000 0.000000
O O1 0.500000 0.742401 0.288458
O O2 0.500000 0.986347 0.197737
O O3 0.450701 0.801077 0.123015
O O4 0.750000 0.662304 0.250000
O O5 0.798290 0.804410 0.115266
O O6 0.792534 0.573515 0.079810
O O7 0.708587 0.700245 0.073484
O O8 0.614537 0.694580 0.989144
O O9 0.673565 0.500000 0.000000
O O10 0.950670 0.629290 0.064799
O O11 0.867289 0.594138 0.949123
#
# Coordination Sequence:
#
# PCOD9477168 Si02
#       6
#     8  16  16  16   8   8
#     4  11  23  43  68  96 124 163 227 271 332 404
#     4  10  22  40  63  93 130 176 220 270 325 386
#     4  10  22  41  59  94 134 170 222 271 324 392
#     4  10  21  42  67  87 128 177 207 266 334 391
#     4  11  23  43  68 100 126 169 219 277 340 403
#     4  10  18  41  68  90 124 175 220 260 326 400
#
# _framework density 19.453741999999998
#
# number of rings (size 3 to 8) (size 9 to 14) (size 15 to 20)
#    0.000    1.778    3.333    0.667    0.000    6.222 
#    4.000    2.222    0.000    0.000    0.000    0.000 
#    0.000    0.000    0.000    0.000    0.000    0.000 
#
# Total GULP energy -200757.845611 kJ/mol
# GULP energy per Si atom -5576.606823 kJ/mol
# Density = 1.940946 g / cm^3
# Si number density = 19.453742 Si / 1000 Ang^3
#
#
#
# Elastic Constant Matrix: (Units=GPa)
#
#
# Indices 1 2 3 4 5 6 
#
# 1 128.1440 55.0230 45.0965 0.0000 0.0000 0.0000
# 2 55.0230 139.0242 34.3979 0.0000 0.0000 0.0000
# 3 45.0965 34.3979 95.4383 0.0000 0.0000 0.0000
# 4 0.0000 0.0000 0.0000 15.3316 0.0000 0.0000
# 5 0.0000 0.0000 0.0000 0.0000 126.4752 0.0000
# 6 0.0000 0.0000 0.0000 0.0000 0.0000 30.5552
#
#
#
# Elastic Compliance Matrix: (Units=1/GPa)
#
#
# Indices 1 2 3 4 5 6 
#
# 1 0.010530 -0.003224 -0.003814 0.000000 0.000000 0.000000
# 2 -0.003224 0.008884 -0.001679 0.000000 0.000000 0.000000
# 3 -0.003814 -0.001679 0.012885 0.000000 0.000000 0.000000
# 4 0.000000 0.000000 0.000000 0.065225 0.000000 0.000000
# 5 0.000000 0.000000 0.000000 0.000000 0.007907 0.000000
# 6 0.000000 0.000000 0.000000 0.000000 0.000000 0.032728
#
#
# Mechanical properties :
#
#
# Convention : Reuss Voigt Hill
#
# Bulk Modulus (GPa) = 67.26425 70.18237 68.72331
# Shear Modulus (GPa) = 31.14354 49.67835 40.41094
#
# Velocity S-wave (km/s) = 4.00547 5.05886 4.56267
# Velocity P-wave (km/s) = 7.48621 8.38318 7.94736
#
# Compressibility (1/GPa) = 0.01486674
#
# Stress axis : x y z
#
# Youngs Moduli (GPa) = 94.96500 112.55750 77.60923
#
# Poissons Ratio (x) = 0.36289 0.29598
# Poissons Ratio (y) = 0.30617 0.13028
# Poissons Ratio (z) = 0.36217 0.18895
#
# Static dielectric constant tensor:
#      x y z
#    x 1.681700 0.000000 0.000000 
#    y 0.000000 1.777040 0.000000 
#    z 0.000000 0.000000 1.656810 
# 
# From -- ./inp_files/18937.got.cif
#   From: 2010.05.17/outbox.cif.g08.bks.cpg/sg64_10_cif.got.tgz:18937.got - 2010.06.03 16:29:19.
