data_PCOD9477011
_publ_section_title
;
Structure prediction by ZEFSAII (Michael W. Deem and Ramdas Pophale) SiO2 
 PCOD9477011
Probable space group: C M C A
;
_chemical_formula_sum "Si O2"
_cell_formula_units_Z 104
_cell_length_a 22.540293
_cell_length_b 28.419464
_cell_length_c 8.809844
_cell_angle_alpha 90.000000
_cell_angle_beta 90.000000
_cell_angle_gamma 90.000000
_cell_volume 5643.436700
_symmetry_space_group_name_H-M "C M C A"
_symmetry_group_IT_number 64
_symmetry_cell_setting 'orthorhombic'
loop_
_space_group_symop_operation_xyz
x,y,z
-x,1/2-y,1/2+z
x,-y,-z
-x,1/2+y,1/2-z
-x,-y,-z
x,1/2+y,1/2-z
-x,y,z
x,1/2-y,1/2+z
1/2+x,1/2+y,z
1/2-x,-y,1/2+z
1/2+x,1/2-y,-z
1/2-x,y,1/2-z
1/2-x,1/2-y,-z
1/2+x,y,1/2-z
1/2-x,1/2+y,z
1/2+x,-y,1/2+z
loop_
_atom_site_type_symbol
_atom_site_label
_atom_site_fract_x
_atom_site_fract_y
_atom_site_fract_z
Si Si1 0.268411 0.051016 0.926743
Si Si2 0.800672 0.375621 0.638638
Si Si3 0.500000 0.207726 0.918203
Si Si4 0.500000 0.867852 0.847036
Si Si5 0.500000 0.316676 0.959087
Si Si6 0.367956 0.697677 0.604898
Si Si7 0.131981 0.798900 0.055919
Si Si8 0.369791 0.103786 0.071586
O O1 0.250000 0.051785 0.750000
O O2 0.228546 0.088076 0.021167
O O3 0.336616 0.066444 0.963592
O O4 0.258922 0.000000 0.000000
O O5 0.750000 0.356330 0.750000
O O6 0.832381 0.334218 0.550279
O O7 0.844586 0.400862 0.757953
O O8 0.500000 0.263255 0.894758
O O9 0.562265 0.189795 0.859942
O O10 0.500000 0.186006 0.087758
O O11 0.500000 0.857524 0.667554
O O12 0.440814 0.893180 0.908459
O O13 0.563214 0.316098 0.044031
O O14 0.364030 0.746271 0.512501
O O15 0.349944 0.654087 0.500530
O O16 0.342029 0.700306 0.773629
#
# Coordination Sequence:
#
# PCOD9477011 Si02
#       8
#    16  16   8   8   8  16  16  16
#     4  11  23  43  69  92 111 143 193 247 298 356
#     4  10  21  37  57  81 111 144 190 238 286 343
#     4   8  19  26  46  73 109 149 203 227 271 320
#     4  10  18  34  53  84 121 160 189 246 291 347
#     4  10  19  26  52  73 113 151 196 235 281 328
#     4  10  20  31  50  76 116 154 196 237 278 334
#     4  11  20  32  49  78 111 156 196 236 282 337
#     4  10  20  38  58  88 120 155 194 242 297 351
#
# _framework density 18.428488000000002
#
# number of rings (size 3 to 8) (size 9 to 14) (size 15 to 20)
#    0.000    1.846    1.538    3.692   10.769    0.000 
#    0.000    8.077    0.000    0.000    0.000    3.769 
#    0.000    0.000    0.000    0.000    0.000    0.000 
#
# Total GULP energy -289595.660110 kJ/mol
# GULP energy per Si atom -5569.147310 kJ/mol
# Density = 1.838654 g / cm^3
# Si number density = 18.428488 Si / 1000 Ang^3
#
#
#
# Elastic Constant Matrix: (Units=GPa)
#
#
# Indices 1 2 3 4 5 6 
#
# 1 67.6246 21.5849 40.9201 0.0000 0.0000 0.0000
# 2 21.5849 61.9739 36.7954 0.0000 0.0000 0.0000
# 3 40.9201 36.7954 137.5630 0.0000 0.0000 0.0000
# 4 0.0000 0.0000 0.0000 28.0255 0.0000 0.0000
# 5 0.0000 0.0000 0.0000 0.0000 18.5038 0.0000
# 6 0.0000 0.0000 0.0000 0.0000 0.0000 10.4184
#
#
#
# Elastic Compliance Matrix: (Units=1/GPa)
#
#
# Indices 1 2 3 4 5 6 
#
# 1 0.018768 -0.003830 -0.004558 0.000000 0.000000 0.000000
# 2 -0.003830 0.019964 -0.004201 0.000000 0.000000 0.000000
# 3 -0.004558 -0.004201 0.009749 0.000000 0.000000 0.000000
# 4 0.000000 0.000000 0.000000 0.035682 0.000000 0.000000
# 5 0.000000 0.000000 0.000000 0.000000 0.054043 0.000000
# 6 0.000000 0.000000 0.000000 0.000000 0.000000 0.095984
#
#
# Mechanical properties :
#
#
# Convention : Reuss Voigt Hill
#
# Bulk Modulus (GPa) = 42.91378 51.75136 47.33257
# Shear Modulus (GPa) = 18.71704 22.58028 20.64866
#
# Velocity S-wave (km/s) = 3.19040 3.50422 3.35098
# Velocity P-wave (km/s) = 6.07525 6.67203 6.38062
#
# Compressibility (1/GPa) = 0.02330254
#
# Stress axis : x y z
#
# Youngs Moduli (GPa) = 53.28092 50.09050 102.57561
#
# Poissons Ratio (x) = 0.19187 0.46758
# Poissons Ratio (y) = 0.20409 0.43087
# Poissons Ratio (z) = 0.24287 0.21041
#
# Static dielectric constant tensor:
#      x y z
#    x 1.688680 0.000000 0.000000 
#    y 0.000000 1.595600 0.000000 
#    z 0.000000 0.000000 1.657930 
# 
# From -- ./inp_files/9712.got.cif
#   From: 2010.05.17/outbox.cif.g08.bks.cpg/sg64_5_cif.got.tgz:9712.got - 2010.06.03 16:29:19.
