data_PCOD9477359
_publ_section_title
;
Structure prediction by ZEFSAII (Michael W. Deem and Ramdas Pophale) SiO2 
 PCOD9477359
Probable space group: C M C A
;
_chemical_formula_sum "Si O2"
_cell_formula_units_Z 104
_cell_length_a 27.891630
_cell_length_b 7.796240
_cell_length_c 23.153815
_cell_angle_alpha 90.000000
_cell_angle_beta 90.000000
_cell_angle_gamma 90.000000
_cell_volume 5034.793401
_symmetry_space_group_name_H-M "C M C A"
_symmetry_group_IT_number 64
_symmetry_cell_setting 'orthorhombic'
loop_
_space_group_symop_operation_xyz
x,y,z
-x,1/2-y,1/2+z
x,-y,-z
-x,1/2+y,1/2-z
-x,-y,-z
x,1/2+y,1/2-z
-x,y,z
x,1/2-y,1/2+z
1/2+x,1/2+y,z
1/2-x,-y,1/2+z
1/2+x,1/2-y,-z
1/2-x,y,1/2-z
1/2-x,1/2-y,-z
1/2+x,y,1/2-z
1/2-x,1/2+y,z
1/2+x,-y,1/2+z
loop_
_atom_site_type_symbol
_atom_site_label
_atom_site_fract_x
_atom_site_fract_y
_atom_site_fract_z
Si Si1 0.605533 0.975381 0.227927
Si Si2 0.500000 0.008331 0.231854
Si Si3 0.812832 0.775039 0.562886
Si Si4 0.000000 0.352022 0.344395
Si Si5 0.798105 0.677807 0.932860
Si Si6 0.187210 0.772378 0.814236
Si Si7 0.393129 0.175359 0.652694
Si Si8 0.750000 0.029528 0.750000
O O1 0.641854 0.836008 0.204292
O O2 0.611386 0.972387 0.298049
O O3 0.550383 0.921541 0.216887
O O4 0.611122 0.151749 0.192297
O O5 0.500000 0.189609 0.199650
O O6 0.500000 0.015038 0.301509
O O7 0.821658 0.772363 0.493892
O O8 0.759512 0.696015 0.566078
O O9 0.852191 0.689577 0.604400
O O10 0.810002 0.978045 0.578937
O O11 0.052626 0.339480 0.372887
O O12 0.815202 0.801417 0.881821
O O13 0.232447 0.642818 0.803216
O O14 0.204975 0.921353 0.772056
#
# Coordination Sequence:
#
# PCOD9477359 Si02
#       8
#    16   8  16   8  16  16  16   8
#     4  10  19  31  52  74 105 134 164 212 259 310
#     4   8  16  30  46  73  98 133 167 196 255 314
#     4  10  21  38  53  73  99 139 182 215 250 303
#     4   8  16  30  54  72 105 131 165 213 254 314
#     4  10  21  36  55  69 102 141 178 216 246 300
#     4  11  20  34  47  76 101 138 161 205 257 303
#     4  10  19  35  52  81 104 136 172 211 265 311
#     4  10  24  30  48  76 112 128 164 206 256 314
#
# _framework density 20.65626
#
# number of rings (size 3 to 8) (size 9 to 14) (size 15 to 20)
#    0.000    2.154    1.538    1.846    4.308    0.000 
#    2.769    0.000    0.000    2.769    0.000    0.000 
#    0.000    9.846    0.000    0.000    0.000    0.000 
#
# Total GULP energy -289991.847815 kJ/mol
# GULP energy per Si atom -5576.766304 kJ/mol
# Density = 2.060925 g / cm^3
# Si number density = 20.656260 Si / 1000 Ang^3
#
#
#
# Elastic Constant Matrix: (Units=GPa)
#
#
# Indices 1 2 3 4 5 6 
#
# 1 111.7437 12.1430 43.8063 0.0000 0.0000 0.0000
# 2 12.1430 54.0037 17.7214 0.0000 0.0000 0.0000
# 3 43.8063 17.7214 108.2721 0.0000 0.0000 0.0000
# 4 0.0000 0.0000 0.0000 11.3536 0.0000 0.0000
# 5 0.0000 0.0000 0.0000 0.0000 31.3821 0.0000
# 6 0.0000 0.0000 0.0000 0.0000 0.0000 23.2721
#
#
#
# Elastic Compliance Matrix: (Units=1/GPa)
#
#
# Indices 1 2 3 4 5 6 
#
# 1 0.010691 -0.001040 -0.004155 0.000000 0.000000 0.000000
# 2 -0.001040 0.019670 -0.002798 0.000000 0.000000 0.000000
# 3 -0.004155 -0.002798 0.011375 0.000000 0.000000 0.000000
# 4 0.000000 0.000000 0.000000 0.088078 0.000000 0.000000
# 5 0.000000 0.000000 0.000000 0.000000 0.031865 0.000000
# 6 0.000000 0.000000 0.000000 0.000000 0.000000 0.042970
#
#
# Mechanical properties :
#
#
# Convention : Reuss Voigt Hill
#
# Bulk Modulus (GPa) = 38.83860 46.81788 42.82824
# Shear Modulus (GPa) = 21.81312 26.55814 24.18563
#
# Velocity S-wave (km/s) = 3.25315 3.58958 3.42550
# Velocity P-wave (km/s) = 5.74054 6.31621 6.03524
#
# Compressibility (1/GPa) = 0.02574758
#
# Stress axis : x y z
#
# Youngs Moduli (GPa) = 93.53595 50.84011 87.91032
#
# Poissons Ratio (x) = 0.05289 0.36529
# Poissons Ratio (y) = 0.09731 0.24601
# Poissons Ratio (z) = 0.38867 0.14227
#
# Static dielectric constant tensor:
#      x y z
#    x 1.791450 0.000000 0.000000 
#    y 0.000000 1.850720 0.000000 
#    z 0.000000 0.000000 1.756110 
# 
# From -- ./inp_files/46916.got.cif
#   From: 2010.05.17/outbox.cif.g08.bks.cpg/sg64_24_cif.got.tgz:46916.got - 2010.06.03 16:29:19.
