data_PCOD9477060
_publ_section_title
;
Structure prediction by ZEFSAII (Michael W. Deem and Ramdas Pophale) SiO2 
 PCOD9477060
Probable space group: C M C A
;
_chemical_formula_sum "Si O2"
_cell_formula_units_Z 56
_cell_length_a 14.717652
_cell_length_b 12.500542
_cell_length_c 14.283918
_cell_angle_alpha 90.000000
_cell_angle_beta 90.000000
_cell_angle_gamma 90.000000
_cell_volume 2627.935621
_symmetry_space_group_name_H-M "C M C A"
_symmetry_group_IT_number 64
_symmetry_cell_setting 'orthorhombic'
loop_
_space_group_symop_operation_xyz
x,y,z
-x,1/2-y,1/2+z
x,-y,-z
-x,1/2+y,1/2-z
-x,-y,-z
x,1/2+y,1/2-z
-x,y,z
x,1/2-y,1/2+z
1/2+x,1/2+y,z
1/2-x,-y,1/2+z
1/2+x,1/2-y,-z
1/2-x,y,1/2-z
1/2-x,1/2-y,-z
1/2+x,y,1/2-z
1/2-x,1/2+y,z
1/2+x,-y,1/2+z
loop_
_atom_site_type_symbol
_atom_site_label
_atom_site_fract_x
_atom_site_fract_y
_atom_site_fract_z
Si Si1 0.647008 0.982246 0.743656
Si Si2 0.500000 0.217214 0.046857
Si Si3 0.105735 0.910080 0.067604
Si Si4 0.500000 0.812341 0.729137
Si Si5 0.500000 0.416429 0.372531
O O1 0.750000 0.946422 0.750000
O O2 0.649170 0.079597 0.668937
O O3 0.589584 0.022313 0.833699
O O4 0.587167 0.884278 0.704395
O O5 0.589030 0.291870 0.027494
O O6 0.500000 0.201510 0.158206
O O7 0.500000 0.115134 0.981295
O O8 0.000000 0.942521 0.084873
O O9 0.146374 0.000000 0.000000
O O10 0.500000 0.698929 0.679357
#
# Coordination Sequence:
#
# PCOD9477060 Si02
#       5
#    16   8  16   8   8
#     4  11  23  39  59  89 123 157 193 244 301 354
#     4  10  18  34  66  89 109 158 200 245 295 346
#     4   9  16  37  62  83 110 157 208 233 281 360
#     4  11  20  41  62  83 122 157 197 244 294 353
#     4  11  21  42  66  82 120 158 197 249 299 341
#
# _framework density 21.309501999999998
#
# number of rings (size 3 to 8) (size 9 to 14) (size 15 to 20)
#    0.857    0.857    5.714    1.714    0.000    3.429 
#    5.143    1.429    0.000    0.000    0.000    0.000 
#    0.000    0.000    0.000    0.000    0.000    0.000 
#
# Total GULP energy -155924.997885 kJ/mol
# GULP energy per Si atom -5568.749924 kJ/mol
# Density = 2.126100 g / cm^3
# Si number density = 21.309502 Si / 1000 Ang^3
#
#
#
# Elastic Constant Matrix: (Units=GPa)
#
#
# Indices 1 2 3 4 5 6 
#
# 1 114.7968 14.6647 -13.4383 0.0000 0.0000 0.0000
# 2 14.6647 87.5858 -9.1865 0.0000 0.0000 0.0000
# 3 -13.4383 -9.1865 62.4575 0.0000 0.0000 0.0000
# 4 0.0000 0.0000 0.0000 38.1181 0.0000 0.0000
# 5 0.0000 0.0000 0.0000 0.0000 17.5621 0.0000
# 6 0.0000 0.0000 0.0000 0.0000 0.0000 4.4132
#
#
#
# Elastic Compliance Matrix: (Units=1/GPa)
#
#
# Indices 1 2 3 4 5 6 
#
# 1 0.009088 -0.001337 0.001759 0.000000 0.000000 0.000000
# 2 -0.001337 0.011793 0.001447 0.000000 0.000000 0.000000
# 3 0.001759 0.001447 0.016602 0.000000 0.000000 0.000000
# 4 0.000000 0.000000 0.000000 0.026234 0.000000 0.000000
# 5 0.000000 0.000000 0.000000 0.000000 0.056941 0.000000
# 6 0.000000 0.000000 0.000000 0.000000 0.000000 0.226594
#
#
# Mechanical properties :
#
#
# Convention : Reuss Voigt Hill
#
# Bulk Modulus (GPa) = 24.26032 27.65778 25.95905
# Shear Modulus (GPa) = 13.99562 30.20534 22.10048
#
# Velocity S-wave (km/s) = 2.56555 3.76900 3.22393
# Velocity P-wave (km/s) = 4.49283 5.65223 5.10555
#
# Compressibility (1/GPa) = 0.04121958
#
# Stress axis : x y z
#
# Youngs Moduli (GPa) = 110.03856 84.79598 60.23339
#
# Poissons Ratio (x) = 0.11338 -0.10593
# Poissons Ratio (y) = 0.14714 -0.08715
# Poissons Ratio (z) = -0.19352 -0.12269
#
# Static dielectric constant tensor:
#      x y z
#    x 1.757940 0.000000 0.000000 
#    y 0.000000 1.836500 0.000000 
#    z 0.000000 0.000000 1.860000 
# 
# From -- ./inp_files/23075.got.cif
#   From: 2010.05.17/outbox.cif.g08.bks.cpg/sg64_12_cif.got.tgz:23075.got - 2010.06.03 16:29:19.
