data_PCOD9477307
_publ_section_title
;
Structure prediction by ZEFSAII (Michael W. Deem and Ramdas Pophale) SiO2 
 PCOD9477307
Probable space group: C M C A
;
_chemical_formula_sum "Si O2"
_cell_formula_units_Z 96
_cell_length_a 7.817068
_cell_length_b 34.032350
_cell_length_c 19.062200
_cell_angle_alpha 90.000000
_cell_angle_beta 90.000000
_cell_angle_gamma 90.000000
_cell_volume 5071.177954
_symmetry_space_group_name_H-M "C M C A"
_symmetry_group_IT_number 64
_symmetry_cell_setting 'orthorhombic'
loop_
_space_group_symop_operation_xyz
x,y,z
-x,1/2-y,1/2+z
x,-y,-z
-x,1/2+y,1/2-z
-x,-y,-z
x,1/2+y,1/2-z
-x,y,z
x,1/2-y,1/2+z
1/2+x,1/2+y,z
1/2-x,-y,1/2+z
1/2+x,1/2-y,-z
1/2-x,y,1/2-z
1/2-x,1/2-y,-z
1/2+x,y,1/2-z
1/2-x,1/2+y,z
1/2+x,-y,1/2+z
loop_
_atom_site_type_symbol
_atom_site_label
_atom_site_fract_x
_atom_site_fract_y
_atom_site_fract_z
Si Si1 0.705109 0.541532 0.028283
Si Si2 0.707148 0.838462 0.901786
Si Si3 0.703361 0.418341 0.670088
Si Si4 0.704547 0.120505 0.543185
Si Si5 0.294101 0.759408 0.831241
Si Si6 0.206343 0.828519 0.169248
O O1 0.500000 0.541028 0.019652
O O2 0.737531 0.551481 0.109889
O O3 0.771973 0.500000 0.000000
O O4 0.773692 0.578577 0.983407
O O5 0.500000 0.838079 0.899015
O O6 0.768047 0.874836 0.852906
O O7 0.770584 0.796226 0.875897
O O8 0.761704 0.849249 0.980079
O O9 0.500000 0.417087 0.665819
O O10 0.750000 0.427614 0.750000
O O11 0.500000 0.116039 0.550499
O O12 0.772018 0.139016 0.615025
O O13 0.500000 0.758716 0.837728
O O14 0.250000 0.766371 0.750000
O O15 0.230695 0.715581 0.849230
O O16 0.250000 0.836349 0.250000
O O17 0.000000 0.827735 0.163921
#
# Coordination Sequence:
#
# PCOD9477307 Si02
#       6
#    16  16  16  16  16  16
#     4   9  18  34  54  72  94 125 157 192 237 286
#     4   9  18  30  45  68  96 124 154 189 228 272
#     4  10  19  31  49  73 100 127 156 191 231 277
#     4   9  18  32  49  69  92 119 153 191 233 281
#     4   9  17  29  44  64  92 124 157 191 226 266
#     4   9  18  32  48  66  90 121 156 193 230 269
#
# _framework density 18.930513000000001
#
# number of rings (size 3 to 8) (size 9 to 14) (size 15 to 20)
#    0.000    2.833    0.000    1.000    0.000    3.000 
#    0.000    0.833    0.000    2.000    0.000    0.000 
#    0.000    0.000    0.000    0.000    0.000    0.000 
#
# Total GULP energy -267596.326637 kJ/mol
# GULP energy per Si atom -5574.923472 kJ/mol
# Density = 1.888743 g / cm^3
# Si number density = 18.930513 Si / 1000 Ang^3
#
#
#
# Elastic Constant Matrix: (Units=GPa)
#
#
# Indices 1 2 3 4 5 6 
#
# 1 21.2788 10.6083 -1.3130 0.0000 0.0000 0.0000
# 2 10.6083 135.2880 112.9609 0.0000 0.0000 0.0000
# 3 -1.3130 112.9609 135.4145 0.0000 0.0000 0.0000
# 4 0.0000 0.0000 0.0000 12.4373 0.0000 0.0000
# 5 0.0000 0.0000 0.0000 0.0000 21.6570 0.0000
# 6 0.0000 0.0000 0.0000 0.0000 0.0000 1.2836
#
#
#
# Elastic Compliance Matrix: (Units=1/GPa)
#
#
# Indices 1 2 3 4 5 6 
#
# 1 0.055772 -0.015898 0.013803 0.000000 0.000000 0.000000
# 2 -0.015898 0.028888 -0.024252 0.000000 0.000000 0.000000
# 3 0.013803 -0.024252 0.027749 0.000000 0.000000 0.000000
# 4 0.000000 0.000000 0.000000 0.080404 0.000000 0.000000
# 5 0.000000 0.000000 0.000000 0.000000 0.046174 0.000000
# 6 0.000000 0.000000 0.000000 0.000000 0.000000 0.779080
#
#
# Mechanical properties :
#
#
# Convention : Reuss Voigt Hill
#
# Bulk Modulus (GPa) = 16.74624 59.61041 38.17832
# Shear Modulus (GPa) = 4.58435 18.39057 11.48746
#
# Velocity S-wave (km/s) = 1.55786 3.12024 2.46605
# Velocity P-wave (km/s) = 3.47869 6.67372 5.32165
#
# Compressibility (1/GPa) = 0.05971490
#
# Stress axis : x y z
#
# Youngs Moduli (GPa) = 17.92998 34.61674 36.03713
#
# Poissons Ratio (x) = 0.55034 -0.49741
# Poissons Ratio (y) = 0.28505 0.87397
# Poissons Ratio (z) = -0.24748 0.83952
#
# Static dielectric constant tensor:
#      x y z
#    x 1.672100 0.000000 0.000000 
#    y 0.000000 1.683600 0.000000 
#    z 0.000000 0.000000 1.649920 
# 
# From -- ./inp_files/37058.got.cif
#   From: 2010.05.17/outbox.cif.g08.bks.cpg/sg64_19_cif.got.tgz:37058.got - 2010.06.03 16:29:19.
