data_PCOD9477576
_publ_section_title
;
Structure prediction by ZEFSAII (Michael W. Deem and Ramdas Pophale) SiO2 
 PCOD9477576
Probable space group: C M C A
;
_chemical_formula_sum "Si O2"
_cell_formula_units_Z 80
_cell_length_a 7.633982
_cell_length_b 16.306725
_cell_length_c 29.653095
_cell_angle_alpha 90.000000
_cell_angle_beta 90.000000
_cell_angle_gamma 90.000000
_cell_volume 3691.372800
_symmetry_space_group_name_H-M "C M C A"
_symmetry_group_IT_number 64
_symmetry_cell_setting 'orthorhombic'
loop_
_space_group_symop_operation_xyz
x,y,z
-x,1/2-y,1/2+z
x,-y,-z
-x,1/2+y,1/2-z
-x,-y,-z
x,1/2+y,1/2-z
-x,y,z
x,1/2-y,1/2+z
1/2+x,1/2+y,z
1/2-x,-y,1/2+z
1/2+x,1/2-y,-z
1/2-x,y,1/2-z
1/2-x,1/2-y,-z
1/2+x,y,1/2-z
1/2-x,1/2+y,z
1/2+x,-y,1/2+z
loop_
_atom_site_type_symbol
_atom_site_label
_atom_site_fract_x
_atom_site_fract_y
_atom_site_fract_z
Si Si1 0.209611 0.968160 0.856731
Si Si2 0.290218 0.781073 0.450118
Si Si3 0.785728 0.468564 0.451346
Si Si4 0.210535 0.213818 0.356886
Si Si5 0.289423 0.626971 0.802705
O O1 0.246912 0.876887 0.839929
O O2 0.000000 0.976355 0.858181
O O3 0.273535 0.979334 0.908268
O O4 0.276622 0.043954 0.826809
O O5 0.500000 0.782777 0.446544
O O6 0.250000 0.750000 0.500000
O O7 0.230044 0.874663 0.444554
O O8 0.224004 0.726900 0.408339
O O9 0.726075 0.500000 0.500000
O O10 0.000000 0.470195 0.452088
O O11 0.275529 0.290206 0.327099
O O12 0.000000 0.218911 0.357549
O O13 0.500000 0.627027 0.807874
O O14 0.250000 0.627169 0.750000
#
# Coordination Sequence:
#
# PCOD9477576 Si02
#       5
#    16  16  16  16  16
#     4  10  20  37  60  85 112 148 194 236 278 340
#     4  10  19  33  53  80 114 151 189 232 280 335
#     4   9  16  29  52  79 108 145 187 225 267 327
#     4  10  21  38  58  83 118 152 185 236 293 338
#     4  10  22  41  62  84 114 151 192 238 289 341
#
# _framework density 21.672153999999999
#
# number of rings (size 3 to 8) (size 9 to 14) (size 15 to 20)
#    0.000    2.200    2.000    1.200    0.000    4.800 
#    0.000    5.000    0.000    3.600    0.000    0.000 
#    0.000    0.000    0.000    0.000    0.000    0.000 
#
# Total GULP energy -223414.437243 kJ/mol
# GULP energy per Si atom -5585.360931 kJ/mol
# Density = 2.162283 g / cm^3
# Si number density = 21.672154 Si / 1000 Ang^3
#
#
#
# Elastic Constant Matrix: (Units=GPa)
#
#
# Indices 1 2 3 4 5 6 
#
# 1 40.5514 4.8995 3.6964 0.0000 0.0000 0.0000
# 2 4.8995 198.5250 89.2349 0.0000 0.0000 0.0000
# 3 3.6964 89.2349 151.7665 0.0000 0.0000 0.0000
# 4 0.0000 0.0000 0.0000 30.1320 0.0000 0.0000
# 5 0.0000 0.0000 0.0000 0.0000 21.2148 0.0000
# 6 0.0000 0.0000 0.0000 0.0000 0.0000 14.3648
#
#
#
# Elastic Compliance Matrix: (Units=1/GPa)
#
#
# Indices 1 2 3 4 5 6 
#
# 1 0.024746 -0.000462 -0.000331 0.000000 0.000000 0.000000
# 2 -0.000462 0.006855 -0.004019 0.000000 0.000000 0.000000
# 3 -0.000331 -0.004019 0.008960 0.000000 0.000000 0.000000
# 4 0.000000 0.000000 0.000000 0.033187 0.000000 0.000000
# 5 0.000000 0.000000 0.000000 0.000000 0.047137 0.000000
# 6 0.000000 0.000000 0.000000 0.000000 0.000000 0.069615
#
#
# Mechanical properties :
#
#
# Convention : Reuss Voigt Hill
#
# Bulk Modulus (GPa) = 32.32396 65.16717 48.74557
# Shear Modulus (GPa) = 23.75997 32.67645 28.21821
#
# Velocity S-wave (km/s) = 3.31469 3.88720 3.61231
# Velocity P-wave (km/s) = 5.44030 7.09098 6.31976
#
# Compressibility (1/GPa) = 0.03093680
#
# Stress axis : x y z
#
# Youngs Moduli (GPa) = 40.41052 145.87339 111.60110
#
# Poissons Ratio (x) = 0.06738 0.03695
# Poissons Ratio (y) = 0.01867 0.44858
# Poissons Ratio (z) = 0.01338 0.58633
#
# Static dielectric constant tensor:
#      x y z
#    x 1.824860 0.000000 0.000000 
#    y 0.000000 1.783320 0.000000 
#    z 0.000000 0.000000 1.773800 
# 
# From -- ./inp_files/47843.got.cif
#   From: 2010.05.17/outbox.cif.g08.bks.cpg/sg64_24_cif.got.tgz:47843.got - 2010.06.03 16:29:19.
