data_PCOD9477650
_publ_section_title
;
Structure prediction by ZEFSAII (Michael W. Deem and Ramdas Pophale) SiO2 
 PCOD9477650
Probable space group: C M C A
;
_chemical_formula_sum "Si O2"
_cell_formula_units_Z 80
_cell_length_a 9.409072
_cell_length_b 15.391070
_cell_length_c 29.298628
_cell_angle_alpha 90.000000
_cell_angle_beta 90.000000
_cell_angle_gamma 90.000000
_cell_volume 4242.900906
_symmetry_space_group_name_H-M "C M C A"
_symmetry_group_IT_number 64
_symmetry_cell_setting 'orthorhombic'
loop_
_space_group_symop_operation_xyz
x,y,z
-x,1/2-y,1/2+z
x,-y,-z
-x,1/2+y,1/2-z
-x,-y,-z
x,1/2+y,1/2-z
-x,y,z
x,1/2-y,1/2+z
1/2+x,1/2+y,z
1/2-x,-y,1/2+z
1/2+x,1/2-y,-z
1/2-x,y,1/2-z
1/2-x,1/2-y,-z
1/2+x,y,1/2-z
1/2-x,1/2+y,z
1/2+x,-y,1/2+z
loop_
_atom_site_type_symbol
_atom_site_label
_atom_site_fract_x
_atom_site_fract_y
_atom_site_fract_z
Si Si1 0.665302 0.608737 0.384432
Si Si2 0.335605 0.864619 0.205482
Si Si3 0.330942 0.230940 0.546868
Si Si4 0.335241 0.654025 0.205132
Si Si5 0.669057 0.586344 0.603370
O O1 0.500000 0.612167 0.369348
O O2 0.689143 0.687121 0.419317
O O3 0.763826 0.618719 0.340521
O O4 0.687033 0.515101 0.407359
O O5 0.500000 0.889086 0.211271
O O6 0.250000 0.893419 0.250000
O O7 0.326752 0.759531 0.202931
O O8 0.287826 0.899970 0.156405
O O9 0.500000 0.219374 0.539800
O O10 0.250000 0.250000 0.500000
O O11 0.260469 0.148355 0.571502
O O12 0.500000 0.629845 0.208366
O O13 0.250000 0.625967 0.250000
O O14 0.500000 0.608178 0.600020
#
# Coordination Sequence:
#
# PCOD9477650 Si02
#       5
#    16  16  16  16  16
#     4  10  22  39  61  88 119 154 194 240 293 349
#     4   9  18  32  54  82 114 154 192 231 277 331
#     4  11  24  42  64  88 115 151 192 242 299 354
#     4  10  19  33  56  85 119 159 198 238 284 339
#     4  10  21  40  62  87 119 154 194 240 291 347
#
# _framework density 18.855024
#
# number of rings (size 3 to 8) (size 9 to 14) (size 15 to 20)
#    0.000    2.000    2.000    1.200    0.000    4.800 
#    0.000    6.000    0.000    0.000    0.000    0.000 
#    0.000    0.000    0.000    0.000    0.000    0.000 
#
# Total GULP energy -223455.479284 kJ/mol
# GULP energy per Si atom -5586.386982 kJ/mol
# Density = 1.881211 g / cm^3
# Si number density = 18.855024 Si / 1000 Ang^3
#
#
#
# Elastic Constant Matrix: (Units=GPa)
#
#
# Indices 1 2 3 4 5 6 
#
# 1 115.4945 62.2243 75.3309 0.0000 0.0000 0.0000
# 2 62.2243 69.5027 31.9727 0.0000 0.0000 0.0000
# 3 75.3309 31.9727 82.1425 0.0000 0.0000 0.0000
# 4 0.0000 0.0000 0.0000 -8.8007 0.0000 0.0000
# 5 0.0000 0.0000 0.0000 0.0000 41.0401 0.0000
# 6 0.0000 0.0000 0.0000 0.0000 0.0000 22.1075
#
#
#
# Elastic Compliance Matrix: (Units=1/GPa)
#
#
# Indices 1 2 3 4 5 6 
#
# 1 0.036448 -0.021018 -0.025244 0.000000 0.000000 0.000000
# 2 -0.021018 0.029646 0.007736 0.000000 0.000000 0.000000
# 3 -0.025244 0.007736 0.032314 0.000000 0.000000 0.000000
# 4 0.000000 0.000000 0.000000 -0.113628 0.000000 0.000000
# 5 0.000000 0.000000 0.000000 0.000000 0.024366 0.000000
# 6 0.000000 0.000000 0.000000 0.000000 0.000000 0.045234
#
#
# Mechanical properties :
#
#
# Convention : Reuss Voigt Hill
#
# Bulk Modulus (GPa) = 46.82819 67.35506 57.09162
# Shear Modulus (GPa) = 36.08763 17.37684 26.73223
#
# Velocity S-wave (km/s) = 4.37962 3.03908 3.76942
# Velocity P-wave (km/s) = 7.10384 6.93649 7.02067
#
# Compressibility (1/GPa) = 0.02135466
#
# Stress axis : x y z
#
# Youngs Moduli (GPa) = 27.43662 33.73106 30.94639
#
# Poissons Ratio (x) = 0.70896 0.78122
# Poissons Ratio (y) = 0.57666 -0.23939
# Poissons Ratio (z) = 0.69262 -0.26093
#
# Static dielectric constant tensor:
#      x y z
#    x 1.635930 0.000000 0.000000 
#    y 0.000000 1.670980 0.000000 
#    z 0.000000 0.000000 1.615860 
# 
# From -- ./inp_files/47815.got.cif
#   From: 2010.05.17/outbox.cif.g08.bks.cpg/sg64_24_cif.got.tgz:47815.got - 2010.06.03 16:29:19.
