data_PCOD9477335
_publ_section_title
;
Structure prediction by ZEFSAII (Michael W. Deem and Ramdas Pophale) SiO2 
 PCOD9477335
Probable space group: C M C A
;
_chemical_formula_sum "Si O2"
_cell_formula_units_Z 96
_cell_length_a 8.828669
_cell_length_b 23.359953
_cell_length_c 27.359907
_cell_angle_alpha 90.000000
_cell_angle_beta 90.000000
_cell_angle_gamma 90.000000
_cell_volume 5642.633153
_symmetry_space_group_name_H-M "C M C A"
_symmetry_group_IT_number 64
_symmetry_cell_setting 'orthorhombic'
loop_
_space_group_symop_operation_xyz
x,y,z
-x,1/2-y,1/2+z
x,-y,-z
-x,1/2+y,1/2-z
-x,-y,-z
x,1/2+y,1/2-z
-x,y,z
x,1/2-y,1/2+z
1/2+x,1/2+y,z
1/2-x,-y,1/2+z
1/2+x,1/2-y,-z
1/2-x,y,1/2-z
1/2-x,1/2-y,-z
1/2+x,y,1/2-z
1/2-x,1/2+y,z
1/2+x,-y,1/2+z
loop_
_atom_site_type_symbol
_atom_site_label
_atom_site_fract_x
_atom_site_fract_y
_atom_site_fract_z
Si Si1 0.333680 0.514295 0.444163
Si Si2 0.317507 0.502642 0.803942
Si Si3 0.318776 0.180483 0.551233
Si Si4 0.172688 0.593917 0.874232
Si Si5 0.674716 0.904314 0.620791
Si Si6 0.319767 0.684991 0.446645
O O1 0.319681 0.500000 0.500000
O O2 0.500000 0.542410 0.435403
O O3 0.334448 0.455656 0.414877
O O4 0.199172 0.552830 0.424662
O O5 0.500000 0.503534 0.803604
O O6 0.250000 0.499570 0.750000
O O7 0.257773 0.560392 0.830571
O O8 0.270286 0.445301 0.834700
O O9 0.500000 0.173892 0.549420
O O10 0.253760 0.145523 0.597325
O O11 0.280448 0.247754 0.557112
O O12 0.251020 0.162907 0.498120
O O13 0.000000 0.608956 0.860030
O O14 0.500000 0.890249 0.629155
O O15 0.762287 0.848835 0.601189
O O16 0.500000 0.680326 0.450641
#
# Coordination Sequence:
#
# PCOD9477335 Si02
#       6
#    16  16  16  16  16  16
#     4   9  17  28  43  66  97 130 162 196 239 295
#     4  10  21  37  56  78 102 129 165 210 261 311
#     4  10  20  33  50  74 105 140 176 212 247 291
#     4  10  19  31  50  75 102 133 167 206 253 303
#     4  10  20  32  49  73  99 128 164 208 253 299
#     4  10  20  33  50  73 104 142 177 208 246 295
#
# _framework density 17.013334
#
# number of rings (size 3 to 8) (size 9 to 14) (size 15 to 20)
#    0.000    2.167    0.000    3.500    0.000    6.333 
#    0.000    0.000    0.000    1.000    0.000    2.333 
#    0.000    0.000    0.000    0.000    0.000    0.000 
#
# Total GULP energy -267399.237734 kJ/mol
# GULP energy per Si atom -5570.817453 kJ/mol
# Density = 1.697461 g / cm^3
# Si number density = 17.013334 Si / 1000 Ang^3
#
#
#
# Elastic Constant Matrix: (Units=GPa)
#
#
# Indices 1 2 3 4 5 6 
#
# 1 59.0146 28.0132 43.5020 0.0000 0.0000 0.0000
# 2 28.0132 78.7038 48.6936 0.0000 0.0000 0.0000
# 3 43.5020 48.6936 118.1167 0.0000 0.0000 0.0000
# 4 0.0000 0.0000 0.0000 25.0762 0.0000 0.0000
# 5 0.0000 0.0000 0.0000 0.0000 14.7236 0.0000
# 6 0.0000 0.0000 0.0000 0.0000 0.0000 25.5358
#
#
#
# Elastic Compliance Matrix: (Units=1/GPa)
#
#
# Indices 1 2 3 4 5 6 
#
# 1 0.024236 -0.004167 -0.007208 0.000000 0.000000 0.000000
# 2 -0.004167 0.017772 -0.005792 0.000000 0.000000 0.000000
# 3 -0.007208 -0.005792 0.013509 0.000000 0.000000 0.000000
# 4 0.000000 0.000000 0.000000 0.039878 0.000000 0.000000
# 5 0.000000 0.000000 0.000000 0.000000 0.067918 0.000000
# 6 0.000000 0.000000 0.000000 0.000000 0.000000 0.039161
#
#
# Mechanical properties :
#
#
# Convention : Reuss Voigt Hill
#
# Bulk Modulus (GPa) = 47.20721 55.13919 51.17320
# Shear Modulus (GPa) = 20.50267 22.10887 21.30577
#
# Velocity S-wave (km/s) = 3.47521 3.60877 3.54262
# Velocity P-wave (km/s) = 6.62648 7.06003 6.84669
#
# Compressibility (1/GPa) = 0.02118320
#
# Stress axis : x y z
#
# Youngs Moduli (GPa) = 41.26014 56.26679 74.02543
#
# Poissons Ratio (x) = 0.23445 0.53361
# Poissons Ratio (y) = 0.17192 0.42876
# Poissons Ratio (z) = 0.29742 0.32590
#
# Static dielectric constant tensor:
#      x y z
#    x 1.617360 0.000000 0.000000 
#    y 0.000000 1.666290 0.000000 
#    z 0.000000 0.000000 1.612420 
# 
# From -- ./inp_files/48142.got.cif
#   From: 2010.05.17/outbox.cif.g08.bks.cpg/sg64_25_cif.got.tgz:48142.got - 2010.06.03 16:29:19.
