data_PCOD9477771
_publ_section_title
;
Structure prediction by ZEFSAII (Michael W. Deem and Ramdas Pophale) SiO2 
 PCOD9477771
Probable space group: C M C A
;
_chemical_formula_sum "Si O2"
_cell_formula_units_Z 116
_cell_length_a 7.845994
_cell_length_b 26.863572
_cell_length_c 28.946390
_cell_angle_alpha 90.000000
_cell_angle_beta 90.000000
_cell_angle_gamma 90.000000
_cell_volume 6101.071861
_symmetry_space_group_name_H-M "C M C A"
_symmetry_group_IT_number 64
_symmetry_cell_setting 'orthorhombic'
loop_
_space_group_symop_operation_xyz
x,y,z
-x,1/2-y,1/2+z
x,-y,-z
-x,1/2+y,1/2-z
-x,-y,-z
x,1/2+y,1/2-z
-x,y,z
x,1/2-y,1/2+z
1/2+x,1/2+y,z
1/2-x,-y,1/2+z
1/2+x,1/2-y,-z
1/2-x,y,1/2-z
1/2-x,1/2-y,-z
1/2+x,y,1/2-z
1/2-x,1/2+y,z
1/2+x,-y,1/2+z
loop_
_atom_site_type_symbol
_atom_site_label
_atom_site_fract_x
_atom_site_fract_y
_atom_site_fract_z
Si Si1 0.296702 0.208256 0.801434
Si Si2 0.312745 0.546115 0.048992
Si Si3 0.294471 0.149934 0.549395
Si Si4 0.701987 0.150271 0.058207
Si Si5 0.000000 0.000000 0.500000
Si Si6 0.703565 0.549208 0.602984
Si Si7 0.201987 0.248111 0.897548
Si Si8 0.204263 0.405605 0.198684
O O1 0.500000 0.206505 0.805213
O O2 0.250000 0.225241 0.750000
O O3 0.228961 0.241073 0.843175
O O4 0.229476 0.151189 0.806391
O O5 0.500000 0.547516 0.026489
O O6 0.286555 0.598711 0.074041
O O7 0.152469 0.539253 0.015015
O O8 0.297682 0.498221 0.081923
O O9 0.500000 0.149158 0.550210
O O10 0.235645 0.153472 0.496641
O O11 0.233782 0.099841 0.574666
O O12 0.230257 0.198548 0.577130
O O13 0.500000 0.147041 0.066703
O O14 0.770565 0.200225 0.082323
O O15 0.500000 0.537541 0.598852
O O16 0.757217 0.561036 0.655423
O O17 0.000000 0.248553 0.906922
O O18 0.250000 0.423292 0.250000
O O19 0.000000 0.403086 0.195680
#
# Coordination Sequence:
#
# PCOD9477771 Si02
#       8
#    16  16  16  16   4  16  16  16
#     4  10  19  34  56  84 115 147 189 239 293 356
#     4  12  25  41  62  87 115 161 205 248 305 352
#     4  11  22  35  54  86 116 154 202 245 288 357
#     4  11  23  41  58  80 119 163 203 251 297 348
#     4  12  22  44  60  86 120 148 198 264 288 344
#     4  11  21  38  58  85 122 157 197 250 305 353
#     4  10  22  38  58  83 118 159 197 242 299 351
#     4   9  19  33  55  84 118 154 187 238 305 361
#
# _framework density 19.013051000000001
#
# number of rings (size 3 to 8) (size 9 to 14) (size 15 to 20)
#    0.000    1.379    2.759    3.103    0.000    3.310 
#    0.000    0.000    0.000    0.828    0.000    3.862 
#    0.000    0.000    0.000    0.000    0.000    0.000 
#
# Total GULP energy -323549.181116 kJ/mol
# GULP energy per Si atom -5578.434157 kJ/mol
# Density = 1.896978 g / cm^3
# Si number density = 19.013051 Si / 1000 Ang^3
#
#
#
# Elastic Constant Matrix: (Units=GPa)
#
#
# Indices 1 2 3 4 5 6 
#
# 1 79.6591 16.1418 1.7898 0.0000 0.0000 0.0000
# 2 16.1418 153.7864 69.7464 0.0000 0.0000 0.0000
# 3 1.7898 69.7464 95.7330 0.0000 0.0000 0.0000
# 4 0.0000 0.0000 0.0000 9.4136 0.0000 0.0000
# 5 0.0000 0.0000 0.0000 0.0000 22.2003 0.0000
# 6 0.0000 0.0000 0.0000 0.0000 0.0000 19.0915
#
#
#
# Elastic Compliance Matrix: (Units=1/GPa)
#
#
# Indices 1 2 3 4 5 6 
#
# 1 0.012905 -0.001860 0.001114 0.000000 0.000000 0.000000
# 2 -0.001860 0.009979 -0.007236 0.000000 0.000000 0.000000
# 3 0.001114 -0.007236 0.015696 0.000000 0.000000 0.000000
# 4 0.000000 0.000000 0.000000 0.106229 0.000000 0.000000
# 5 0.000000 0.000000 0.000000 0.000000 0.045044 0.000000
# 6 0.000000 0.000000 0.000000 0.000000 0.000000 0.052379
#
#
# Mechanical properties :
#
#
# Convention : Reuss Voigt Hill
#
# Bulk Modulus (GPa) = 44.21335 56.05940 50.13638
# Shear Modulus (GPa) = 18.81560 26.24111 22.52835
#
# Velocity S-wave (km/s) = 3.14923 3.71908 3.44596
# Velocity P-wave (km/s) = 6.04386 6.92754 6.50073
#
# Compressibility (1/GPa) = 0.02261760
#
# Stress axis : x y z
#
# Youngs Moduli (GPa) = 77.48757 100.20758 63.70871
#
# Poissons Ratio (x) = 0.18635 -0.07094
# Poissons Ratio (y) = 0.14410 0.46097
# Poissons Ratio (z) = -0.08629 0.72507
#
# Static dielectric constant tensor:
#      x y z
#    x 1.684180 0.000000 0.000000 
#    y 0.000000 1.687890 0.000000 
#    z 0.000000 0.000000 1.647060 
# 
# From -- ./inp_files/52278.got.cif
#   From: 2010.05.17/outbox.cif.g08.bks.cpg/sg64_27_cif.got.tgz:52278.got - 2010.06.03 16:29:19.
