data_PCOD9477055
_publ_section_title
;
Structure prediction by ZEFSAII (Michael W. Deem and Ramdas Pophale) SiO2 
 PCOD9477055
Probable space group: C M C A
;
_chemical_formula_sum "Si O2"
_cell_formula_units_Z 64
_cell_length_a 23.277396
_cell_length_b 18.957523
_cell_length_c 7.437791
_cell_angle_alpha 90.000000
_cell_angle_beta 90.000000
_cell_angle_gamma 90.000000
_cell_volume 3282.161578
_symmetry_space_group_name_H-M "C M C A"
_symmetry_group_IT_number 64
_symmetry_cell_setting 'orthorhombic'
loop_
_space_group_symop_operation_xyz
x,y,z
-x,1/2-y,1/2+z
x,-y,-z
-x,1/2+y,1/2-z
-x,-y,-z
x,1/2+y,1/2-z
-x,y,z
x,1/2-y,1/2+z
1/2+x,1/2+y,z
1/2-x,-y,1/2+z
1/2+x,1/2-y,-z
1/2-x,y,1/2-z
1/2-x,1/2-y,-z
1/2+x,y,1/2-z
1/2-x,1/2+y,z
1/2+x,-y,1/2+z
loop_
_atom_site_type_symbol
_atom_site_label
_atom_site_fract_x
_atom_site_fract_y
_atom_site_fract_z
Si Si1 0.123544 0.081216 0.481944
Si Si2 0.125124 0.830094 0.872938
Si Si3 0.500000 0.288286 0.839646
Si Si4 0.500000 0.863440 0.048363
Si Si5 0.817796 0.185540 0.756190
O O1 0.125803 0.109050 0.276918
O O2 0.058434 0.092619 0.555317
O O3 0.163381 0.131448 0.601911
O O4 0.139588 0.000000 0.500000
O O5 0.149559 0.759208 0.779503
O O6 0.059453 0.813139 0.927429
O O7 0.162221 0.843018 0.050237
O O8 0.500000 0.324236 0.644621
O O9 0.500000 0.203849 0.821419
O O10 0.750000 0.197943 0.750000
#
# Coordination Sequence:
#
# PCOD9477055 Si02
#       5
#    16  16   8   8  16
#     4  11  25  42  61  96 132 167 209 267 332 384
#     4  11  22  40  69  96 125 162 218 267 318 384
#     4  10  18  34  63 100 115 156 209 268 315 374
#     4  10  19  36  65  91 128 160 206 267 332 383
#     4  12  24  41  66  94 122 173 221 266 314 382
#
# _framework density 19.499344000000001
#
# number of rings (size 3 to 8) (size 9 to 14) (size 15 to 20)
#    0.000    1.000    5.000    2.625    0.000    1.000 
#    4.500    0.000    0.000    6.000    0.000    0.000 
#    0.000    0.000    0.000    0.000    0.000    0.000 
#
# Total GULP energy -178906.468248 kJ/mol
# GULP energy per Si atom -5590.827133 kJ/mol
# Density = 1.945496 g / cm^3
# Si number density = 19.499344 Si / 1000 Ang^3
#
#
#
# Elastic Constant Matrix: (Units=GPa)
#
#
# Indices 1 2 3 4 5 6 
#
# 1 113.4527 9.9997 21.8210 0.0000 0.0000 0.0000
# 2 9.9997 76.2747 14.3265 0.0000 0.0000 0.0000
# 3 21.8210 14.3265 82.8737 0.0000 0.0000 0.0000
# 4 0.0000 0.0000 0.0000 20.8257 0.0000 0.0000
# 5 0.0000 0.0000 0.0000 0.0000 -115.6326 0.0000
# 6 0.0000 0.0000 0.0000 0.0000 0.0000 3.0179
#
#
#
# Elastic Compliance Matrix: (Units=1/GPa)
#
#
# Indices 1 2 3 4 5 6 
#
# 1 0.009330 -0.000787 -0.002321 0.000000 0.000000 0.000000
# 2 -0.000787 0.013617 -0.002147 0.000000 0.000000 0.000000
# 3 -0.002321 -0.002147 0.013049 0.000000 0.000000 0.000000
# 4 0.000000 0.000000 0.000000 0.048017 0.000000 0.000000
# 5 0.000000 0.000000 0.000000 0.000000 -0.008648 0.000000
# 6 0.000000 0.000000 0.000000 0.000000 0.000000 0.331356
#
#
# Mechanical properties :
#
#
# Convention : Reuss Voigt Hill
#
# Bulk Modulus (GPa) = 39.23640 40.54395 39.89017
# Shear Modulus (GPa) = 11.74465 -3.26085 4.24190
#
# Velocity S-wave (km/s) = 2.45686 -1.29457 1.47653
# Velocity P-wave (km/s) = 5.31167 4.31312 4.83823
#
# Compressibility (1/GPa) = 0.02548654
#
# Stress axis : x y z
#
# Youngs Moduli (GPa) = 107.18158 73.43802 76.63627
#
# Poissons Ratio (x) = 0.05782 0.17784
# Poissons Ratio (y) = 0.08439 0.16451
# Poissons Ratio (z) = 0.24872 0.15765
#
# Static dielectric constant tensor:
#      x y z
#    x 1.683960 0.000000 0.000000 
#    y 0.000000 1.649140 0.000000 
#    z 0.000000 0.000000 1.713310 
# 
# From -- ./inp_files/7788.got.cif
#   From: 2010.05.17/outbox.cif.g08.bks.cpg/sg64_4_cif.got.tgz:7788.got - 2010.06.03 16:29:19.
