data_PCOD9477176
_publ_section_title
;
Structure prediction by ZEFSAII (Michael W. Deem and Ramdas Pophale) SiO2 
 PCOD9477176
Probable space group: C M C A
;
_chemical_formula_sum "Si O2"
_cell_formula_units_Z 96
_cell_length_a 8.481688
_cell_length_b 27.786319
_cell_length_c 23.542469
_cell_angle_alpha 90.000000
_cell_angle_beta 90.000000
_cell_angle_gamma 90.000000
_cell_volume 5548.368755
_symmetry_space_group_name_H-M "C M C A"
_symmetry_group_IT_number 64
_symmetry_cell_setting 'orthorhombic'
loop_
_space_group_symop_operation_xyz
x,y,z
-x,1/2-y,1/2+z
x,-y,-z
-x,1/2+y,1/2-z
-x,-y,-z
x,1/2+y,1/2-z
-x,y,z
x,1/2-y,1/2+z
1/2+x,1/2+y,z
1/2-x,-y,1/2+z
1/2+x,1/2-y,-z
1/2-x,y,1/2-z
1/2-x,1/2-y,-z
1/2+x,y,1/2-z
1/2-x,1/2+y,z
1/2+x,-y,1/2+z
loop_
_atom_site_type_symbol
_atom_site_label
_atom_site_fract_x
_atom_site_fract_y
_atom_site_fract_z
Si Si1 0.678615 0.127200 0.094334
Si Si2 0.190848 0.555673 0.498458
Si Si3 0.182268 0.626257 0.594507
Si Si4 0.812926 0.302300 0.685713
Si Si5 0.189991 0.198322 0.814259
Si Si6 0.320476 0.698604 0.510891
O O1 0.500000 0.114610 0.110885
O O2 0.765229 0.152068 0.147260
O O3 0.753068 0.083162 0.058475
O O4 0.673563 0.169261 0.047382
O O5 0.237539 0.500000 0.500000
O O6 0.250734 0.583018 0.555814
O O7 0.000000 0.558632 0.499253
O O8 0.248989 0.651213 0.651254
O O9 0.201126 0.670595 0.551405
O O10 0.000000 0.614099 0.605824
O O11 0.750000 0.308099 0.750000
O O12 0.745680 0.250832 0.663288
O O13 0.000000 0.297868 0.687186
O O14 0.250000 0.195729 0.750000
O O15 0.000000 0.198298 0.816048
O O16 0.500000 0.699853 0.534132
O O17 0.250000 0.750000 0.500000
#
# Coordination Sequence:
#
# PCOD9477176 Si02
#       6
#    16  16  16  16  16  16
#     4  10  20  33  48  70  99 128 161 200 244 293
#     4   9  18  34  55  76  96 123 162 207 256 304
#     4   9  18  31  47  68  94 123 157 199 243 288
#     4  11  21  33  50  72 100 134 169 201 236 281
#     4  10  19  31  47  69  99 133 166 198 234 280
#     4  10  19  28  42  65  94 126 156 191 234 284
#
# _framework density 17.302382999999999
#
# number of rings (size 3 to 8) (size 9 to 14) (size 15 to 20)
#    0.000    2.167    0.000    5.000    0.000    7.667 
#    0.000    0.000    0.000    1.000    0.000    2.333 
#    0.000    0.000    0.000    0.000    0.000    0.000 
#
# Total GULP energy -267297.391474 kJ/mol
# GULP energy per Si atom -5568.695656 kJ/mol
# Density = 1.726300 g / cm^3
# Si number density = 17.302383 Si / 1000 Ang^3
#
#
#
# Elastic Constant Matrix: (Units=GPa)
#
#
# Indices 1 2 3 4 5 6 
#
# 1 59.9759 20.5780 16.0140 0.0000 0.0000 0.0000
# 2 20.5780 134.5606 46.6294 0.0000 0.0000 0.0000
# 3 16.0140 46.6294 72.5013 0.0000 0.0000 0.0000
# 4 0.0000 0.0000 0.0000 23.2831 0.0000 0.0000
# 5 0.0000 0.0000 0.0000 0.0000 12.9242 0.0000
# 6 0.0000 0.0000 0.0000 0.0000 0.0000 11.4474
#
#
#
# Elastic Compliance Matrix: (Units=1/GPa)
#
#
# Indices 1 2 3 4 5 6 
#
# 1 0.018041 -0.001773 -0.002844 0.000000 0.000000 0.000000
# 2 -0.001773 0.009737 -0.005871 0.000000 0.000000 0.000000
# 3 -0.002844 -0.005871 0.018197 0.000000 0.000000 0.000000
# 4 0.000000 0.000000 0.000000 0.042950 0.000000 0.000000
# 5 0.000000 0.000000 0.000000 0.000000 0.077375 0.000000
# 6 0.000000 0.000000 0.000000 0.000000 0.000000 0.087356
#
#
# Mechanical properties :
#
#
# Convention : Reuss Voigt Hill
#
# Bulk Modulus (GPa) = 40.00267 48.16449 44.08358
# Shear Modulus (GPa) = 17.67000 21.78536 19.72768
#
# Velocity S-wave (km/s) = 3.19916 3.55222 3.38031
# Velocity P-wave (km/s) = 6.06763 6.68743 6.38505
#
# Compressibility (1/GPa) = 0.02499833
#
# Stress axis : x y z
#
# Youngs Moduli (GPa) = 55.42845 102.69882 54.95422
#
# Poissons Ratio (x) = 0.18212 0.15631
# Poissons Ratio (y) = 0.09829 0.32263
# Poissons Ratio (z) = 0.15766 0.60293
#
# Static dielectric constant tensor:
#      x y z
#    x 1.596780 0.000000 0.000000 
#    y 0.000000 1.576300 0.000000 
#    z 0.000000 0.000000 1.608370 
# 
# From -- ./inp_files/43163.got.cif
#   From: 2010.05.17/outbox.cif.g08.bks.cpg/sg64_22_cif.got.tgz:43163.got - 2010.06.03 16:29:19.
