data_PCOD9477829
_publ_section_title
;
Structure prediction by ZEFSAII (Michael W. Deem and Ramdas Pophale) SiO2 
 PCOD9477829
Probable space group: C M C A
;
_chemical_formula_sum "Si O2"
_cell_formula_units_Z 80
_cell_length_a 9.902960
_cell_length_b 23.960509
_cell_length_c 17.645328
_cell_angle_alpha 90.000000
_cell_angle_beta 90.000000
_cell_angle_gamma 90.000000
_cell_volume 4186.882761
_symmetry_space_group_name_H-M "C M C A"
_symmetry_group_IT_number 64
_symmetry_cell_setting 'orthorhombic'
loop_
_space_group_symop_operation_xyz
x,y,z
-x,1/2-y,1/2+z
x,-y,-z
-x,1/2+y,1/2-z
-x,-y,-z
x,1/2+y,1/2-z
-x,y,z
x,1/2-y,1/2+z
1/2+x,1/2+y,z
1/2-x,-y,1/2+z
1/2+x,1/2-y,-z
1/2-x,y,1/2-z
1/2-x,1/2-y,-z
1/2+x,y,1/2-z
1/2-x,1/2+y,z
1/2+x,-y,1/2+z
loop_
_atom_site_type_symbol
_atom_site_label
_atom_site_fract_x
_atom_site_fract_y
_atom_site_fract_z
Si Si1 0.500000 0.948625 0.164483
Si Si2 0.280420 0.971943 0.417255
Si Si3 0.000000 0.027103 0.188352
Si Si4 0.500000 0.182240 0.798883
Si Si5 0.000000 0.859923 0.872495
Si Si6 0.000000 0.885272 0.041623
Si Si7 0.280058 0.770005 0.662210
Si Si8 0.000000 0.727050 0.625337
O O1 0.366017 0.959831 0.115900
O O2 0.500000 0.883967 0.191235
O O3 0.500000 0.991012 0.235427
O O4 0.368967 0.915835 0.425077
O O5 0.274416 0.000000 0.500000
O O6 0.367699 0.009743 0.359790
O O7 0.000000 0.094087 0.193856
O O8 0.630426 0.213155 0.835218
O O9 0.500000 0.198582 0.709551
O O10 0.128622 0.819526 0.869016
O O11 0.000000 0.892099 0.951676
O O12 0.000000 0.821109 0.063634
O O13 0.250000 0.782959 0.750000
O O14 0.138032 0.761561 0.621164
#
# Coordination Sequence:
#
# PCOD9477829 Si02
#       8
#     8  16   8   8   8   8  16   8
#     4  12  24  36  66 100 119 147 219 280 290 352
#     4  11  22  42  60  87 126 168 197 249 328 373
#     4  11  23  42  63  89 120 167 214 242 302 397
#     4   9  18  37  56  86 120 146 188 256 324 353
#     4  11  22  41  59  82 122 173 201 237 313 390
#     4  11  21  39  67  79 122 174 200 240 317 405
#     4   9  20  37  60  84 120 154 196 258 311 363
#     4  10  19  34  59  91 111 149 203 256 307 355
#
# _framework density 19.107294
#
# number of rings (size 3 to 8) (size 9 to 14) (size 15 to 20)
#    0.000    1.600    2.000    4.500    0.000    5.600 
#    0.000    2.000    0.000    0.000    0.000    0.000 
#    0.000    0.000    0.000    0.000    0.000    0.000 
#
# Total GULP energy -223442.615442 kJ/mol
# GULP energy per Si atom -5586.065386 kJ/mol
# Density = 1.906380 g / cm^3
# Si number density = 19.107294 Si / 1000 Ang^3
#
#
#
# Elastic Constant Matrix: (Units=GPa)
#
#
# Indices 1 2 3 4 5 6 
#
# 1 177.2680 54.7991 41.9285 0.0000 0.0000 0.0000
# 2 54.7991 96.0590 20.1054 0.0000 0.0000 0.0000
# 3 41.9285 20.1054 55.3527 0.0000 0.0000 0.0000
# 4 0.0000 0.0000 0.0000 11.6163 0.0000 0.0000
# 5 0.0000 0.0000 0.0000 0.0000 29.2386 0.0000
# 6 0.0000 0.0000 0.0000 0.0000 0.0000 -0.9226
#
#
#
# Elastic Compliance Matrix: (Units=1/GPa)
#
#
# Indices 1 2 3 4 5 6 
#
# 1 0.007821 -0.003487 -0.004658 0.000000 0.000000 0.000000
# 2 -0.003487 0.012821 -0.002016 0.000000 0.000000 0.000000
# 3 -0.004658 -0.002016 0.022326 0.000000 0.000000 0.000000
# 4 0.000000 0.000000 0.000000 0.086086 0.000000 0.000000
# 5 0.000000 0.000000 0.000000 0.000000 0.034201 0.000000
# 6 0.000000 0.000000 0.000000 0.000000 0.000000 -1.083892
#
#
# Mechanical properties :
#
#
# Convention : Reuss Voigt Hill
#
# Bulk Modulus (GPa) = 44.15428 62.48287 53.31857
# Shear Modulus (GPa) = -5.60057 22.10957 8.25450
#
# Velocity S-wave (km/s) = -1.71391 3.40535 2.08073
# Velocity P-wave (km/s) = 4.38659 6.94506 5.80844
#
# Compressibility (1/GPa) = 0.02264786
#
# Stress axis : x y z
#
# Youngs Moduli (GPa) = 127.86692 77.99564 44.79045
#
# Poissons Ratio (x) = 0.27194 0.20861
# Poissons Ratio (y) = 0.44582 0.09029
# Poissons Ratio (z) = 0.59555 0.15723
#
# Static dielectric constant tensor:
#      x y z
#    x 1.651690 0.000000 0.000000 
#    y 0.000000 1.652250 0.000000 
#    z 0.000000 0.000000 1.659430 
# 
# From -- ./inp_files/36750.got.cif
#   From: 2010.05.17/outbox.cif.g08.bks.cpg/sg64_19_cif.got.tgz:36750.got - 2010.06.03 16:29:19.
