data_PCOD9477605
_publ_section_title
;
Structure prediction by ZEFSAII (Michael W. Deem and Ramdas Pophale) SiO2 
 PCOD9477605
Probable space group: C M C A
;
_chemical_formula_sum "Si O2"
_cell_formula_units_Z 96
_cell_length_a 25.457466
_cell_length_b 21.684203
_cell_length_c 9.867144
_cell_angle_alpha 90.000000
_cell_angle_beta 90.000000
_cell_angle_gamma 90.000000
_cell_volume 5446.908791
_symmetry_space_group_name_H-M "C M C A"
_symmetry_group_IT_number 64
_symmetry_cell_setting 'orthorhombic'
loop_
_space_group_symop_operation_xyz
x,y,z
-x,1/2-y,1/2+z
x,-y,-z
-x,1/2+y,1/2-z
-x,-y,-z
x,1/2+y,1/2-z
-x,y,z
x,1/2-y,1/2+z
1/2+x,1/2+y,z
1/2-x,-y,1/2+z
1/2+x,1/2-y,-z
1/2-x,y,1/2-z
1/2-x,1/2-y,-z
1/2+x,y,1/2-z
1/2-x,1/2+y,z
1/2+x,-y,1/2+z
loop_
_atom_site_type_symbol
_atom_site_label
_atom_site_fract_x
_atom_site_fract_y
_atom_site_fract_z
Si Si1 0.121995 0.318943 0.493112
Si Si2 0.561744 0.611471 0.764207
Si Si3 0.868084 0.638947 0.207274
Si Si4 0.439369 0.976768 0.844880
Si Si5 0.937830 0.696465 0.989454
Si Si6 0.212094 0.735916 0.123177
O O1 0.091907 0.365301 0.395339
O O2 0.140630 0.349355 0.633346
O O3 0.083994 0.263785 0.541595
O O4 0.166023 0.285734 0.400783
O O5 0.500000 0.625729 0.779869
O O6 0.566914 0.538622 0.742430
O O7 0.579265 0.648195 0.627810
O O8 0.892267 0.570926 0.183736
O O9 0.816524 0.668855 0.134633
O O10 0.914202 0.678245 0.134748
O O11 0.500000 0.952367 0.824386
O O12 0.437382 0.000000 0.000000
O O13 0.000000 0.695604 0.995050
O O14 0.250000 0.744411 0.250000
O O15 0.250000 0.750000 0.000000
#
# Coordination Sequence:
#
# PCOD9477605 Si02
#       6
#    16  16  16  16  16  16
#     4  11  23  35  56  92 120 150 193 251 312 356
#     4  10  21  36  56  87 127 165 201 238 289 358
#     4  11  22  36  59  86 115 156 201 246 294 355
#     4  10  20  37  60  85 121 171 210 235 279 357
#     4  10  19  33  54  83 122 160 194 235 292 359
#     4  11  23  42  64  90 116 149 197 256 316 367
#
# _framework density 17.624676000000001
#
# number of rings (size 3 to 8) (size 9 to 14) (size 15 to 20)
#    0.000    1.500    3.333    3.000    2.333    4.667 
#    0.000    1.667    0.000    3.000    0.000    0.000 
#    0.000    0.000    0.000    0.000    0.000    0.000 
#
# Total GULP energy -267382.123825 kJ/mol
# GULP energy per Si atom -5570.460913 kJ/mol
# Density = 1.758456 g / cm^3
# Si number density = 17.624676 Si / 1000 Ang^3
#
#
#
# Elastic Constant Matrix: (Units=GPa)
#
#
# Indices 1 2 3 4 5 6 
#
# 1 82.7506 46.6429 51.6230 0.0000 0.0000 0.0000
# 2 46.6429 82.7522 40.1485 0.0000 0.0000 0.0000
# 3 51.6230 40.1485 80.0960 0.0000 0.0000 0.0000
# 4 0.0000 0.0000 0.0000 -0.0878 0.0000 0.0000
# 5 0.0000 0.0000 0.0000 0.0000 34.9426 0.0000
# 6 0.0000 0.0000 0.0000 0.0000 0.0000 33.0072
#
#
#
# Elastic Compliance Matrix: (Units=1/GPa)
#
#
# Indices 1 2 3 4 5 6 
#
# 1 0.023478 -0.007785 -0.011230 0.000000 0.000000 0.000000
# 2 -0.007785 0.018549 -0.004280 0.000000 0.000000 0.000000
# 3 -0.011230 -0.004280 0.021868 0.000000 0.000000 0.000000
# 4 0.000000 0.000000 0.000000-11.392345 0.000000 0.000000
# 5 0.000000 0.000000 0.000000 0.000000 0.028618 0.000000
# 6 0.000000 0.000000 0.000000 0.000000 0.000000 0.030296
#
#
# Mechanical properties :
#
#
# Convention : Reuss Voigt Hill
#
# Bulk Modulus (GPa) = 57.78552 58.04753 57.91652
# Shear Modulus (GPa) = -0.44574 20.71803 10.13614
#
# Velocity S-wave (km/s) = -0.50345 3.43229 2.40075
# Velocity P-wave (km/s) = 5.70263 6.97957 6.37316
#
# Compressibility (1/GPa) = 0.01730537
#
# Stress axis : x y z
#
# Youngs Moduli (GPa) = 42.59282 53.91169 45.72860
#
# Poissons Ratio (x) = 0.41971 0.51352
# Poissons Ratio (y) = 0.33159 0.19572
# Poissons Ratio (z) = 0.47830 0.23075
#
# Static dielectric constant tensor:
#      x y z
#    x 1.630110 0.000000 0.000000 
#    y 0.000000 1.639050 0.000000 
#    z 0.000000 0.000000 1.602190 
# 
# From -- ./inp_files/9481.got.cif
#   From: 2010.05.17/outbox.cif.g08.bks.cpg/sg64_5_cif.got.tgz:9481.got - 2010.06.03 16:29:19.
