data_PCOD9477255
_publ_section_title
;
Structure prediction by ZEFSAII (Michael W. Deem and Ramdas Pophale) SiO2 
 PCOD9477255
Probable space group: C M C A
;
_chemical_formula_sum "Si O2"
_cell_formula_units_Z 100
_cell_length_a 7.920544
_cell_length_b 33.764154
_cell_length_c 21.780835
_cell_angle_alpha 90.000000
_cell_angle_beta 90.000000
_cell_angle_gamma 90.000000
_cell_volume 5824.858884
_symmetry_space_group_name_H-M "C M C A"
_symmetry_group_IT_number 64
_symmetry_cell_setting 'orthorhombic'
loop_
_space_group_symop_operation_xyz
x,y,z
-x,1/2-y,1/2+z
x,-y,-z
-x,1/2+y,1/2-z
-x,-y,-z
x,1/2+y,1/2-z
-x,y,z
x,1/2-y,1/2+z
1/2+x,1/2+y,z
1/2-x,-y,1/2+z
1/2+x,1/2-y,-z
1/2-x,y,1/2-z
1/2-x,1/2-y,-z
1/2+x,y,1/2-z
1/2-x,1/2+y,z
1/2+x,-y,1/2+z
loop_
_atom_site_type_symbol
_atom_site_label
_atom_site_fract_x
_atom_site_fract_y
_atom_site_fract_z
Si Si1 0.696246 0.851123 0.970265
Si Si2 0.307059 0.669071 0.160416
Si Si3 0.702853 0.919407 0.683493
Si Si4 0.202437 0.717803 0.551964
Si Si5 0.000000 0.000000 0.000000
Si Si6 0.303396 0.943070 0.949514
Si Si7 0.807056 0.744608 0.683016
O O1 0.500000 0.845229 0.953843
O O2 0.801329 0.834022 0.913336
O O3 0.724318 0.898075 0.974201
O O4 0.736371 0.825035 0.029366
O O5 0.500000 0.673255 0.181411
O O6 0.238200 0.626587 0.181755
O O7 0.209712 0.707820 0.180805
O O8 0.500000 0.919304 0.675830
O O9 0.750000 0.936176 0.750000
O O10 0.783296 0.940261 0.624554
O O11 0.250000 0.750000 0.500000
O O12 0.273323 0.729185 0.619293
O O13 0.000000 0.717822 0.554030
O O14 0.847682 0.969987 0.974602
O O15 0.500000 0.954066 0.963629
O O16 0.750000 0.730834 0.750000
O O17 0.000000 0.733133 0.679107
#
# Coordination Sequence:
#
# PCOD9477255 Si02
#       7
#    16  16  16  16   4  16  16
#     4  10  20  34  54  80 113 145 189 234 280 336
#     4  10  19  30  49  72 106 152 187 227 272 331
#     4  10  19  32  50  79 116 155 193 224 275 343
#     4  11  22  34  53  77 107 147 194 239 284 330
#     4  12  22  40  64  86 124 148 190 226 292 354
#     4  10  22  38  59  89 120 152 187 237 287 350
#     4  11  23  35  47  70 104 144 194 241 289 334
#
# _framework density 17.167797
#
# number of rings (size 3 to 8) (size 9 to 14) (size 15 to 20)
#    0.000    1.600    2.400    3.120    2.240    5.120 
#    0.000    0.000    0.000    0.000    0.000    1.120 
#    4.800    0.000    0.000    0.000    0.000    0.000 
#
# Total GULP energy -278357.406087 kJ/mol
# GULP energy per Si atom -5567.148122 kJ/mol
# Density = 1.712872 g / cm^3
# Si number density = 17.167797 Si / 1000 Ang^3
#
#
#
# Elastic Constant Matrix: (Units=GPa)
#
#
# Indices 1 2 3 4 5 6 
#
# 1 84.5530 35.5281 36.5943 0.0000 0.0000 0.0000
# 2 35.5281 63.2719 56.3922 0.0000 0.0000 0.0000
# 3 36.5943 56.3922 111.5019 0.0000 0.0000 0.0000
# 4 0.0000 0.0000 0.0000 11.4288 0.0000 0.0000
# 5 0.0000 0.0000 0.0000 0.0000 26.5858 0.0000
# 6 0.0000 0.0000 0.0000 0.0000 0.0000 21.9950
#
#
#
# Elastic Compliance Matrix: (Units=1/GPa)
#
#
# Indices 1 2 3 4 5 6 
#
# 1 0.015575 -0.007628 -0.001254 0.000000 0.000000 0.000000
# 2 -0.007628 0.032512 -0.013939 0.000000 0.000000 0.000000
# 3 -0.001254 -0.013939 0.016430 0.000000 0.000000 0.000000
# 4 0.000000 0.000000 0.000000 0.087498 0.000000 0.000000
# 5 0.000000 0.000000 0.000000 0.000000 0.037614 0.000000
# 6 0.000000 0.000000 0.000000 0.000000 0.000000 0.045465
#
#
# Mechanical properties :
#
#
# Convention : Reuss Voigt Hill
#
# Bulk Modulus (GPa) = 52.98280 57.37288 55.17784
# Shear Modulus (GPa) = 17.41996 20.72273 19.07135
#
# Velocity S-wave (km/s) = 3.18887 3.47806 3.33660
# Velocity P-wave (km/s) = 6.66988 7.04419 6.85959
#
# Compressibility (1/GPa) = 0.01887405
#
# Stress axis : x y z
#
# Youngs Moduli (GPa) = 64.20664 30.75804 60.86529
#
# Poissons Ratio (x) = 0.23463 0.07630
# Poissons Ratio (y) = 0.48978 0.84842
# Poissons Ratio (z) = 0.08049 0.42875
#
# Static dielectric constant tensor:
#      x y z
#    x 1.641830 0.000000 0.000000 
#    y 0.000000 1.564720 0.000000 
#    z 0.000000 0.000000 1.650160 
# 
# From -- ./inp_files/37458.got.cif
#   From: 2010.05.17/outbox.cif.g08.bks.cpg/sg64_19_cif.got.tgz:37458.got - 2010.06.03 16:29:19.
