data_PCOD9477373
_publ_section_title
;
Structure prediction by ZEFSAII (Michael W. Deem and Ramdas Pophale) SiO2 
 PCOD9477373
Probable space group: C M C A
;
_chemical_formula_sum "Si O2"
_cell_formula_units_Z 120
_cell_length_a 16.713158
_cell_length_b 21.923840
_cell_length_c 15.784841
_cell_angle_alpha 90.000000
_cell_angle_beta 90.000000
_cell_angle_gamma 90.000000
_cell_volume 5783.827801
_symmetry_space_group_name_H-M "C M C A"
_symmetry_group_IT_number 64
_symmetry_cell_setting 'orthorhombic'
loop_
_space_group_symop_operation_xyz
x,y,z
-x,1/2-y,1/2+z
x,-y,-z
-x,1/2+y,1/2-z
-x,-y,-z
x,1/2+y,1/2-z
-x,y,z
x,1/2-y,1/2+z
1/2+x,1/2+y,z
1/2-x,-y,1/2+z
1/2+x,1/2-y,-z
1/2-x,y,1/2-z
1/2-x,1/2-y,-z
1/2+x,y,1/2-z
1/2-x,1/2+y,z
1/2+x,-y,1/2+z
loop_
_atom_site_type_symbol
_atom_site_label
_atom_site_fract_x
_atom_site_fract_y
_atom_site_fract_z
Si Si1 0.658240 0.346809 0.743643
Si Si2 0.178979 0.169267 0.074422
Si Si3 0.862628 0.375624 0.934555
Si Si4 0.334881 0.000000 0.000000
Si Si5 0.409108 0.878559 0.410257
Si Si6 0.244544 0.068698 0.851990
Si Si7 0.155881 0.809821 0.405637
Si Si8 0.412509 0.276120 0.232852
O O1 0.750000 0.368106 0.750000
O O2 0.631646 0.350741 0.840580
O O3 0.613287 0.374258 0.663419
O O4 0.654909 0.274770 0.721800
O O5 0.265494 0.136436 0.068214
O O6 0.192748 0.242281 0.081792
O O7 0.126878 0.151636 0.994229
O O8 0.882479 0.440557 0.973324
O O9 0.886901 0.326808 0.005740
O O10 0.285840 0.979684 0.084487
O O11 0.500000 0.898714 0.422246
O O12 0.347901 0.929587 0.378769
O O13 0.407013 0.827622 0.337009
O O14 0.250000 0.059757 0.750000
O O15 0.283666 0.135132 0.878023
O O16 0.097695 0.803908 0.325800
O O17 0.500000 0.246249 0.226069
#
# Coordination Sequence:
#
# PCOD9477373 Si02
#       8
#    16  16  16   8  16  16  16  16
#     4   9  20  32  54  82 112 157 188 228 285 347
#     4  10  19  31  54  81 117 150 184 229 291 358
#     4  10  19  34  55  84 108 146 195 251 282 337
#     4  10  22  38  57  90 113 140 212 258 298 328
#     4  11  22  35  54  85 123 157 190 234 295 360
#     4  11  22  38  63  87 116 157 198 260 302 349
#     4  10  19  31  58  84 115 152 191 233 294 354
#     4  10  21  33  51  86 124 150 183 226 286 365
#
# _framework density 20.747506000000001
#
# number of rings (size 3 to 8) (size 9 to 14) (size 15 to 20)
#    0.000    1.867    4.000    1.200    5.600    3.733 
#    0.000    1.000    0.000    0.000    0.000   15.867 
#    0.000    0.000    0.000    0.000    0.000    0.000 
#
# Total GULP energy -334316.319423 kJ/mol
# GULP energy per Si atom -5571.938657 kJ/mol
# Density = 2.070028 g / cm^3
# Si number density = 20.747506 Si / 1000 Ang^3
#
#
#
# Elastic Constant Matrix: (Units=GPa)
#
#
# Indices 1 2 3 4 5 6 
#
# 1 30.6201 -6.0378 -1.2368 0.0000 0.0000 0.0000
# 2 -6.0378 36.4346 10.4155 0.0000 0.0000 0.0000
# 3 -1.2368 10.4155 177.9399 0.0000 0.0000 0.0000
# 4 0.0000 0.0000 0.0000 26.0607 0.0000 0.0000
# 5 0.0000 0.0000 0.0000 0.0000 -3.4010 0.0000
# 6 0.0000 0.0000 0.0000 0.0000 0.0000 2.0543
#
#
#
# Elastic Compliance Matrix: (Units=1/GPa)
#
#
# Indices 1 2 3 4 5 6 
#
# 1 0.033763 0.005622 -0.000094 0.000000 0.000000 0.000000
# 2 0.005622 0.028850 -0.001650 0.000000 0.000000 0.000000
# 3 -0.000094 -0.001650 0.005716 0.000000 0.000000 0.000000
# 4 0.000000 0.000000 0.000000 0.038372 0.000000 0.000000
# 5 0.000000 0.000000 0.000000 0.000000 -0.294033 0.000000
# 6 0.000000 0.000000 0.000000 0.000000 0.000000 0.486791
#
#
# Mechanical properties :
#
#
# Convention : Reuss Voigt Hill
#
# Bulk Modulus (GPa) = 13.14326 27.91960 20.53143
# Shear Modulus (GPa) = 15.76966 21.06638 18.41802
#
# Velocity S-wave (km/s) = 2.75994 3.18994 2.98270
# Velocity P-wave (km/s) = 4.06263 5.20132 4.66683
#
# Compressibility (1/GPa) = 0.07608465
#
# Stress axis : x y z
#
# Youngs Moduli (GPa) = 29.61816 34.66243 174.95438
#
# Poissons Ratio (x) = -0.19487 0.01652
# Poissons Ratio (y) = -0.16652 0.28860
# Poissons Ratio (z) = 0.00280 0.05718
#
# Static dielectric constant tensor:
#      x y z
#    x 1.762780 0.000000 0.000000 
#    y 0.000000 1.731810 0.000000 
#    z 0.000000 0.000000 1.803220 
# 
# From -- ./inp_files/26727.got.cif
#   From: 2010.05.17/outbox.cif.g08.bks.cpg/sg64_14_cif.got.tgz:26727.got - 2010.06.03 16:29:19.
