data_PCOD9477968
_publ_section_title
;
Structure prediction by ZEFSAII (Michael W. Deem and Ramdas Pophale) SiO2 
 PCOD9477968
Probable space group: C M C A
;
_chemical_formula_sum "Si O2"
_cell_formula_units_Z 80
_cell_length_a 12.116494
_cell_length_b 13.908430
_cell_length_c 22.867130
_cell_angle_alpha 90.000000
_cell_angle_beta 90.000000
_cell_angle_gamma 90.000000
_cell_volume 3853.600959
_symmetry_space_group_name_H-M "C M C A"
_symmetry_group_IT_number 64
_symmetry_cell_setting 'orthorhombic'
loop_
_space_group_symop_operation_xyz
x,y,z
-x,1/2-y,1/2+z
x,-y,-z
-x,1/2+y,1/2-z
-x,-y,-z
x,1/2+y,1/2-z
-x,y,z
x,1/2-y,1/2+z
1/2+x,1/2+y,z
1/2-x,-y,1/2+z
1/2+x,1/2-y,-z
1/2-x,y,1/2-z
1/2-x,1/2-y,-z
1/2+x,y,1/2-z
1/2-x,1/2+y,z
1/2+x,-y,1/2+z
loop_
_atom_site_type_symbol
_atom_site_label
_atom_site_fract_x
_atom_site_fract_y
_atom_site_fract_z
Si Si1 0.373931 0.810524 0.272345
Si Si2 0.632827 0.609802 0.485350
Si Si3 0.628826 0.014358 0.801707
Si Si4 0.369316 0.683290 0.607457
Si Si5 0.207549 0.172031 0.357480
O O1 0.500000 0.786391 0.248804
O O2 0.250000 0.777178 0.250000
O O3 0.367274 0.924914 0.258757
O O4 0.368811 0.760516 0.335331
O O5 0.661605 0.500000 0.500000
O O6 0.500000 0.616142 0.483555
O O7 0.673346 0.670022 0.541519
O O8 0.674325 0.637753 0.421807
O O9 0.500000 0.989402 0.811796
O O10 0.661819 0.093818 0.850634
O O11 0.693721 0.916895 0.813496
O O12 0.500000 0.681524 0.604913
O O13 0.327190 0.780981 0.635840
#
# Coordination Sequence:
#
# PCOD9477968 Si02
#       5
#    16  16  16  16  16
#     4  11  24  42  63  94 130 170 220 276 326 389
#     4  10  19  35  64  98 127 165 214 265 322 393
#     4  10  21  41  62  87 125 167 212 263 319 387
#     4  10  21  39  63  96 133 165 211 266 324 391
#     4  12  22  39  68  94 125 171 222 266 324 389
#
# _framework density 20.759803999999999
#
# number of rings (size 3 to 8) (size 9 to 14) (size 15 to 20)
#    0.000    1.400    4.000    2.400    0.000    0.800 
#    0.000    1.000    0.000    0.600    0.000    0.000 
#    0.000    0.000    0.000    0.000    0.000    0.000 
#
# Total GULP energy -222687.390494 kJ/mol
# GULP energy per Si atom -5567.184762 kJ/mol
# Density = 2.071255 g / cm^3
# Si number density = 20.759804 Si / 1000 Ang^3
#
#
#
# Elastic Constant Matrix: (Units=GPa)
#
#
# Indices 1 2 3 4 5 6 
#
# 1 69.7120 13.7113 -2.3614 0.0000 0.0000 0.0000
# 2 13.7113 114.3647 34.6935 0.0000 0.0000 0.0000
# 3 -2.3614 34.6935 80.9135 0.0000 0.0000 0.0000
# 4 0.0000 0.0000 0.0000 43.0609 0.0000 0.0000
# 5 0.0000 0.0000 0.0000 0.0000 26.4521 0.0000
# 6 0.0000 0.0000 0.0000 0.0000 0.0000 25.9353
#
#
#
# Elastic Compliance Matrix: (Units=1/GPa)
#
#
# Indices 1 2 3 4 5 6 
#
# 1 0.014823 -0.002194 0.001373 0.000000 0.000000 0.000000
# 2 -0.002194 0.010376 -0.004513 0.000000 0.000000 0.000000
# 3 0.001373 -0.004513 0.014334 0.000000 0.000000 0.000000
# 4 0.000000 0.000000 0.000000 0.023223 0.000000 0.000000
# 5 0.000000 0.000000 0.000000 0.000000 0.037804 0.000000
# 6 0.000000 0.000000 0.000000 0.000000 0.000000 0.038558
#
#
# Mechanical properties :
#
#
# Convention : Reuss Voigt Hill
#
# Bulk Modulus (GPa) = 34.64310 39.67521 37.15915
# Shear Modulus (GPa) = 31.36640 33.68611 32.52626
#
# Velocity S-wave (km/s) = 3.89127 4.03260 3.96256
# Velocity P-wave (km/s) = 6.07562 6.39026 6.23493
#
# Compressibility (1/GPa) = 0.02886578
#
# Stress axis : x y z
#
# Youngs Moduli (GPa) = 67.46402 96.37623 69.76425
#
# Poissons Ratio (x) = 0.21142 -0.09580
# Poissons Ratio (y) = 0.14799 0.31484
# Poissons Ratio (z) = -0.09264 0.43494
#
# Static dielectric constant tensor:
#      x y z
#    x 1.806710 0.000000 0.000000 
#    y 0.000000 1.738750 0.000000 
#    z 0.000000 0.000000 1.856090 
# 
# From -- ./inp_files/49156.got.cif
#   From: 2010.05.17/outbox.cif.g08.bks.cpg/sg64_25_cif.got.tgz:49156.got - 2010.06.03 16:29:19.
