data_PCOD9477649
_publ_section_title
;
Structure prediction by ZEFSAII (Michael W. Deem and Ramdas Pophale) SiO2 
 PCOD9477649
Probable space group: C M C A
;
_chemical_formula_sum "Si O2"
_cell_formula_units_Z 80
_cell_length_a 15.147914
_cell_length_b 8.218995
_cell_length_c 24.140348
_cell_angle_alpha 90.000000
_cell_angle_beta 90.000000
_cell_angle_gamma 90.000000
_cell_volume 3005.488521
_symmetry_space_group_name_H-M "C M C A"
_symmetry_group_IT_number 64
_symmetry_cell_setting 'orthorhombic'
loop_
_space_group_symop_operation_xyz
x,y,z
-x,1/2-y,1/2+z
x,-y,-z
-x,1/2+y,1/2-z
-x,-y,-z
x,1/2+y,1/2-z
-x,y,z
x,1/2-y,1/2+z
1/2+x,1/2+y,z
1/2-x,-y,1/2+z
1/2+x,1/2-y,-z
1/2-x,y,1/2-z
1/2-x,1/2-y,-z
1/2+x,y,1/2-z
1/2-x,1/2+y,z
1/2+x,-y,1/2+z
loop_
_atom_site_type_symbol
_atom_site_label
_atom_site_fract_x
_atom_site_fract_y
_atom_site_fract_z
Si Si1 0.391985 0.163447 0.770044
Si Si2 0.393423 0.982325 0.665363
Si Si3 0.128173 0.154962 0.535722
Si Si4 0.666176 0.655430 0.938266
Si Si5 0.900484 0.950704 0.633227
O O1 0.500000 0.166373 0.770747
O O2 0.366659 0.129641 0.706860
O O3 0.361695 0.322900 0.802193
O O4 0.365670 0.009690 0.808006
O O5 0.500000 0.978160 0.662819
O O6 0.359511 0.012342 0.603546
O O7 0.233051 0.140097 0.544307
O O8 0.113218 0.307898 0.495255
O O9 0.092957 0.116935 0.596542
O O10 0.097351 0.000000 0.500000
O O11 0.653219 0.818697 0.901326
O O12 0.000000 0.884802 0.639559
#
# Coordination Sequence:
#
# PCOD9477649 Si02
#       5
#    16  16  16  16  16
#     4   9  19  34  54  85 121 155 191 240 298 349
#     4  10  19  33  56  85 119 157 197 240 292 357
#     4   9  21  38  57  82 117 157 196 242 303 359
#     4  10  20  35  58  84 113 153 197 245 299 351
#     4  10  20  37  61  86 115 154 201 246 291 352
#
# _framework density 26.617968000000001
#
# number of rings (size 3 to 8) (size 9 to 14) (size 15 to 20)
#    0.000    2.400    0.000    1.800    0.000   12.400 
#    0.000    1.000    0.000   13.200    0.000    0.000 
#    0.000    0.000    0.000    0.000    0.000    0.000 
#
# Total GULP energy -223804.549292 kJ/mol
# GULP energy per Si atom -5595.113732 kJ/mol
# Density = 2.655738 g / cm^3
# Si number density = 26.617968 Si / 1000 Ang^3
#
#
#
# Elastic Constant Matrix: (Units=GPa)
#
#
# Indices 1 2 3 4 5 6 
#
# 1 70.5348 19.8092 13.6840 0.0000 0.0000 0.0000
# 2 19.8092 106.1107 35.2831 0.0000 0.0000 0.0000
# 3 13.6840 35.2831 177.7210 0.0000 0.0000 0.0000
# 4 0.0000 0.0000 0.0000 61.6238 0.0000 0.0000
# 5 0.0000 0.0000 0.0000 0.0000 26.0832 0.0000
# 6 0.0000 0.0000 0.0000 0.0000 0.0000 -9.3137
#
#
#
# Elastic Compliance Matrix: (Units=1/GPa)
#
#
# Indices 1 2 3 4 5 6 
#
# 1 0.015030 -0.002592 -0.000643 0.000000 0.000000 0.000000
# 2 -0.002592 0.010537 -0.001892 0.000000 0.000000 0.000000
# 3 -0.000643 -0.001892 0.006052 0.000000 0.000000 0.000000
# 4 0.000000 0.000000 0.000000 0.016228 0.000000 0.000000
# 5 0.000000 0.000000 0.000000 0.000000 0.038339 0.000000
# 6 0.000000 0.000000 0.000000 0.000000 0.000000 -0.107368
#
#
# Mechanical properties :
#
#
# Convention : Reuss Voigt Hill
#
# Bulk Modulus (GPa) = 46.80579 54.65770 50.73175
# Shear Modulus (GPa) = -1313.52893 34.71800 -639.40546
#
# Velocity S-wave (km/s) = -22.23839 3.61544 -15.51571
# Velocity P-wave (km/s) = 25.33322 6.16500 17.37476
#
# Compressibility (1/GPa) = 0.02136488
#
# Stress axis : x y z
#
# Youngs Moduli (GPa) = 66.53332 94.90115 165.23534
#
# Poissons Ratio (x) = 0.24600 0.10619
# Poissons Ratio (y) = 0.17247 0.31269
# Poissons Ratio (z) = 0.04276 0.17959
#
# Static dielectric constant tensor:
#      x y z
#    x 2.015880 0.000000 0.000000 
#    y 0.000000 2.187400 0.000000 
#    z 0.000000 0.000000 2.038790 
# 
# From -- ./inp_files/50317.got.cif
#   From: 2010.05.17/outbox.cif.g08.bks.cpg/sg64_26_cif.got.tgz:50317.got - 2010.06.03 16:29:19.
