data_PCOD9477598
_publ_section_title
;
Structure prediction by ZEFSAII (Michael W. Deem and Ramdas Pophale) SiO2 
 PCOD9477598
Probable space group: C M C A
;
_chemical_formula_sum "Si O2"
_cell_formula_units_Z 104
_cell_length_a 16.763953
_cell_length_b 21.715055
_cell_length_c 15.482814
_cell_angle_alpha 90.000000
_cell_angle_beta 90.000000
_cell_angle_gamma 90.000000
_cell_volume 5636.211280
_symmetry_space_group_name_H-M "C M C A"
_symmetry_group_IT_number 64
_symmetry_cell_setting 'orthorhombic'
loop_
_space_group_symop_operation_xyz
x,y,z
-x,1/2-y,1/2+z
x,-y,-z
-x,1/2+y,1/2-z
-x,-y,-z
x,1/2+y,1/2-z
-x,y,z
x,1/2-y,1/2+z
1/2+x,1/2+y,z
1/2-x,-y,1/2+z
1/2+x,1/2-y,-z
1/2-x,y,1/2-z
1/2-x,1/2-y,-z
1/2+x,y,1/2-z
1/2-x,1/2+y,z
1/2+x,-y,1/2+z
loop_
_atom_site_type_symbol
_atom_site_label
_atom_site_fract_x
_atom_site_fract_y
_atom_site_fract_z
Si Si1 0.909038 0.910565 0.576374
Si Si2 0.905440 0.682980 0.416835
Si Si3 0.404097 0.810239 0.781394
Si Si4 0.156430 0.823994 0.227832
Si Si5 0.366055 0.175113 0.921472
Si Si6 0.214561 0.500000 0.000000
Si Si7 0.805464 0.617930 0.560796
O O1 0.883177 0.863286 0.651271
O O2 0.907457 0.871324 0.487506
O O3 0.000000 0.931650 0.592404
O O4 0.845001 0.964361 0.564783
O O5 0.879707 0.675105 0.316951
O O6 0.888142 0.754358 0.439865
O O7 0.858610 0.638723 0.480720
O O8 0.000000 0.672628 0.422491
O O9 0.500000 0.804525 0.782552
O O10 0.369118 0.743567 0.804031
O O11 0.250000 0.822249 0.250000
O O12 0.114940 0.836661 0.320143
O O13 0.147335 0.872020 0.150235
O O14 0.271848 0.162873 0.935173
O O15 0.268888 0.449444 0.047043
#
# Coordination Sequence:
#
# PCOD9477598 Si02
#       7
#    16  16  16  16  16   8  16
#     4  10  19  35  55  76 103 136 170 213 262 304
#     4  10  19  33  54  82 109 134 165 208 261 319
#     4   9  19  33  53  82 109 129 160 206 264 322
#     4   9  18  32  52  77 108 137 164 204 258 317
#     4   9  18  32  53  82 109 131 163 210 264 321
#     4  10  23  38  53  72 100 140 186 222 243 288
#     4  10  20  36  52  73 105 143 179 213 253 295
#
# _framework density 18.452112
#
# number of rings (size 3 to 8) (size 9 to 14) (size 15 to 20)
#    0.000    2.462    0.000    2.077    0.000    8.615 
#    0.000    8.077    0.000    0.000    0.000    0.000 
#    0.000    0.000    0.000    0.000    0.000    0.000 
#
# Total GULP energy -290079.637854 kJ/mol
# GULP energy per Si atom -5578.454574 kJ/mol
# Density = 1.841011 g / cm^3
# Si number density = 18.452112 Si / 1000 Ang^3
#
#
#
# Elastic Constant Matrix: (Units=GPa)
#
#
# Indices 1 2 3 4 5 6 
#
# 1 32.1704 38.9776 40.9834 0.0000 0.0000 0.0000
# 2 38.9776 107.3842 74.0522 0.0000 0.0000 0.0000
# 3 40.9834 74.0522 89.0087 0.0000 0.0000 0.0000
# 4 0.0000 0.0000 0.0000 -2.9640 0.0000 0.0000
# 5 0.0000 0.0000 0.0000 0.0000 103.0173 0.0000
# 6 0.0000 0.0000 0.0000 0.0000 0.0000 -4.4164
#
#
#
# Elastic Compliance Matrix: (Units=1/GPa)
#
#
# Indices 1 2 3 4 5 6 
#
# 1 0.078251 -0.008344 -0.029088 0.000000 0.000000 0.000000
# 2 -0.008344 0.022735 -0.015073 0.000000 0.000000 0.000000
# 3 -0.029088 -0.015073 0.037169 0.000000 0.000000 0.000000
# 4 0.000000 0.000000 0.000000 -0.337386 0.000000 0.000000
# 5 0.000000 0.000000 0.000000 0.000000 0.009707 0.000000
# 6 0.000000 0.000000 0.000000 0.000000 0.000000 -0.226428
#
#
# Mechanical properties :
#
#
# Convention : Reuss Voigt Hill
#
# Bulk Modulus (GPa) = 30.17098 59.62110 44.89604
# Shear Modulus (GPa) = -16.67261 24.09738 3.71238
#
# Velocity S-wave (km/s) = -3.00919 3.61770 1.41995
# Velocity P-wave (km/s) = 2.07673 7.05916 5.20310
#
# Compressibility (1/GPa) = 0.03314443
#
# Stress axis : x y z
#
# Youngs Moduli (GPa) = 12.77941 43.98411 26.90414
#
# Poissons Ratio (x) = 0.36698 0.78260
# Poissons Ratio (y) = 0.10663 0.40554
# Poissons Ratio (z) = 0.37173 0.66299
#
# Static dielectric constant tensor:
#      x y z
#    x 1.652870 0.000000 0.000000 
#    y 0.000000 1.607180 0.000000 
#    z 0.000000 0.000000 1.672010 
# 
# From -- ./inp_files/25621.got.cif
#   From: 2010.05.17/outbox.cif.g08.bks.cpg/sg64_13_cif.got.tgz:25621.got - 2010.06.03 16:29:19.
