data_PCOD9477614
_publ_section_title
;
Structure prediction by ZEFSAII (Michael W. Deem and Ramdas Pophale) SiO2 
 PCOD9477614
Probable space group: C M C A
;
_chemical_formula_sum "Si O2"
_cell_formula_units_Z 112
_cell_length_a 15.499250
_cell_length_b 19.951963
_cell_length_c 18.742752
_cell_angle_alpha 90.000000
_cell_angle_beta 90.000000
_cell_angle_gamma 90.000000
_cell_volume 5796.017298
_symmetry_space_group_name_H-M "C M C A"
_symmetry_group_IT_number 64
_symmetry_cell_setting 'orthorhombic'
loop_
_space_group_symop_operation_xyz
x,y,z
-x,1/2-y,1/2+z
x,-y,-z
-x,1/2+y,1/2-z
-x,-y,-z
x,1/2+y,1/2-z
-x,y,z
x,1/2-y,1/2+z
1/2+x,1/2+y,z
1/2-x,-y,1/2+z
1/2+x,1/2-y,-z
1/2-x,y,1/2-z
1/2-x,1/2-y,-z
1/2+x,y,1/2-z
1/2-x,1/2+y,z
1/2+x,-y,1/2+z
loop_
_atom_site_type_symbol
_atom_site_label
_atom_site_fract_x
_atom_site_fract_y
_atom_site_fract_z
Si Si1 0.898206 0.569400 0.153598
Si Si2 0.398727 0.431388 0.955185
Si Si3 0.895772 0.337353 0.968241
Si Si4 0.195485 0.386275 0.319552
Si Si5 0.604103 0.977620 0.696942
Si Si6 0.604941 0.186671 0.558223
Si Si7 0.820744 0.452519 0.064892
O O1 0.864016 0.630345 0.106244
O O2 0.861799 0.558559 0.232326
O O3 0.884617 0.502332 0.106974
O O4 0.000000 0.580432 0.162269
O O5 0.500000 0.414760 0.944666
O O6 0.361670 0.445730 0.876843
O O7 0.397405 0.500000 0.000000
O O8 0.363831 0.370875 0.003056
O O9 0.871314 0.259726 0.971075
O O10 0.000000 0.339981 0.969274
O O11 0.862980 0.387401 0.028975
O O12 0.250000 0.365107 0.250000
O O13 0.128648 0.444452 0.297616
O O14 0.147135 0.329527 0.365253
O O15 0.256006 0.424993 0.376100
O O16 0.500000 0.973831 0.694686
O O17 0.500000 0.182461 0.564734
O O18 0.786492 0.500000 0.000000
#
# Coordination Sequence:
#
# PCOD9477614 Si02
#       7
#    16  16  16  16  16  16  16
#     4   9  17  34  59  83 109 142 184 236 280 327
#     4   9  16  29  53  82 105 134 181 231 273 316
#     4   9  19  38  61  82 108 147 193 233 278 334
#     4  12  23  35  53  81 118 147 185 226 282 345
#     4  10  19  33  55  81 109 142 186 234 279 328
#     4  10  21  38  60  82 112 151 191 233 278 331
#     4  10  21  35  56  84 112 143 186 234 283 332
#
# _framework density 19.323613000000002
#
# number of rings (size 3 to 8) (size 9 to 14) (size 15 to 20)
#    0.000    2.143    2.857    0.857    2.000    2.286 
#    0.000    1.429    6.286    3.429    0.000    0.000 
#    0.000    0.000    0.000    0.000    0.000    0.000 
#
# Total GULP energy -312345.065912 kJ/mol
# GULP energy per Si atom -5577.590463 kJ/mol
# Density = 1.927963 g / cm^3
# Si number density = 19.323613 Si / 1000 Ang^3
#
#
#
# Elastic Constant Matrix: (Units=GPa)
#
#
# Indices 1 2 3 4 5 6 
#
# 1 22.0796 13.4867 15.6300 0.0000 0.0000 0.0000
# 2 13.4867 125.0673 44.7751 0.0000 0.0000 0.0000
# 3 15.6300 44.7751 134.5088 0.0000 0.0000 0.0000
# 4 0.0000 0.0000 0.0000 23.3003 0.0000 0.0000
# 5 0.0000 0.0000 0.0000 0.0000 23.8570 0.0000
# 6 0.0000 0.0000 0.0000 0.0000 0.0000 2.9113
#
#
#
# Elastic Compliance Matrix: (Units=1/GPa)
#
#
# Indices 1 2 3 4 5 6 
#
# 1 0.050915 -0.003829 -0.004642 0.000000 0.000000 0.000000
# 2 -0.003829 0.009365 -0.002673 0.000000 0.000000 0.000000
# 3 -0.004642 -0.002673 0.008864 0.000000 0.000000 0.000000
# 4 0.000000 0.000000 0.000000 0.042918 0.000000 0.000000
# 5 0.000000 0.000000 0.000000 0.000000 0.041916 0.000000
# 6 0.000000 0.000000 0.000000 0.000000 0.000000 0.343494
#
#
# Mechanical properties :
#
#
# Convention : Reuss Voigt Hill
#
# Bulk Modulus (GPa) = 21.34121 47.71548 34.52834
# Shear Modulus (GPa) = 9.33920 23.86464 16.60192
#
# Velocity S-wave (km/s) = 2.20081 3.51807 2.93431
# Velocity P-wave (km/s) = 4.18642 6.42253 5.42102
#
# Compressibility (1/GPa) = 0.04685771
#
# Stress axis : x y z
#
# Youngs Moduli (GPa) = 19.64053 106.77619 112.82211
#
# Poissons Ratio (x) = 0.40881 0.52371
# Poissons Ratio (y) = 0.07520 0.30153
# Poissons Ratio (z) = 0.09117 0.28538
#
# Static dielectric constant tensor:
#      x y z
#    x 1.719530 0.000000 0.000000 
#    y 0.000000 1.648900 0.000000 
#    z 0.000000 0.000000 1.701350 
# 
# From -- ./inp_files/34489.got.cif
#   From: 2010.05.17/outbox.cif.g08.bks.cpg/sg64_18_cif.got.tgz:34489.got - 2010.06.03 16:29:19.
