data_PCOD9477061
_publ_section_title
;
Structure prediction by ZEFSAII (Michael W. Deem and Ramdas Pophale) SiO2 
 PCOD9477061
Probable space group: C M C A
;
_chemical_formula_sum "Si O2"
_cell_formula_units_Z 88
_cell_length_a 20.824198
_cell_length_b 11.410382
_cell_length_c 14.760114
_cell_angle_alpha 90.000000
_cell_angle_beta 90.000000
_cell_angle_gamma 90.000000
_cell_volume 3507.181005
_symmetry_space_group_name_H-M "C M C A"
_symmetry_group_IT_number 64
_symmetry_cell_setting 'orthorhombic'
loop_
_space_group_symop_operation_xyz
x,y,z
-x,1/2-y,1/2+z
x,-y,-z
-x,1/2+y,1/2-z
-x,-y,-z
x,1/2+y,1/2-z
-x,y,z
x,1/2-y,1/2+z
1/2+x,1/2+y,z
1/2-x,-y,1/2+z
1/2+x,1/2-y,-z
1/2-x,y,1/2-z
1/2-x,1/2-y,-z
1/2+x,y,1/2-z
1/2-x,1/2+y,z
1/2+x,-y,1/2+z
loop_
_atom_site_type_symbol
_atom_site_label
_atom_site_fract_x
_atom_site_fract_y
_atom_site_fract_z
Si Si1 0.500000 0.040852 0.395340
Si Si2 0.230834 0.775191 0.349668
Si Si3 0.873147 0.627052 0.453215
Si Si4 0.000000 0.516221 0.107337
Si Si5 0.639635 0.985646 0.109375
Si Si6 0.500000 0.783974 0.313954
Si Si7 0.369166 0.250850 0.129948
O O1 0.433397 0.110057 0.384405
O O2 0.500000 0.079717 0.657078
O O3 0.500000 0.000000 0.500000
O O4 0.250000 0.734046 0.250000
O O5 0.190028 0.680099 0.405986
O O6 0.186844 0.889871 0.352205
O O7 0.301060 0.814398 0.383192
O O8 0.862698 0.500000 0.500000
O O9 0.898700 0.717012 0.531101
O O10 0.933713 0.458677 0.136540
O O11 0.000000 0.653313 0.135929
O O12 0.000000 0.500000 0.000000
O O13 0.650691 0.117048 0.141805
O O14 0.645273 0.000000 0.000000
O O15 0.577793 0.779273 0.294987
#
# Coordination Sequence:
#
# PCOD9477061 Si02
#       7
#     8  16  16   8  16   8  16
#     4  10  18  34  69 108 135 171 234 305 357 418
#     4  12  29  45  63 100 150 191 230 296 362 435
#     4  11  22  40  72 107 137 182 239 299 356 429
#     4   8  18  32  63 101 134 170 230 304 345 419
#     4  10  21  40  69  98 133 184 238 286 357 422
#     4  10  18  38  60 100 134 174 235 308 345 412
#     4  11  22  40  68  95 136 182 242 291 351 420
#
# _framework density 25.091374999999999
#
# number of rings (size 3 to 8) (size 9 to 14) (size 15 to 20)
#    0.000    1.455    5.455    0.545    2.545    1.455 
#    0.000    1.818    0.000    2.182    0.000    0.000 
#    0.000    0.000    0.000    0.000    0.000    0.000 
#
# Total GULP energy -245221.043434 kJ/mol
# GULP energy per Si atom -5573.205533 kJ/mol
# Density = 2.503427 g / cm^3
# Si number density = 25.091375 Si / 1000 Ang^3
#
#
#
# Elastic Constant Matrix: (Units=GPa)
#
#
# Indices 1 2 3 4 5 6 
#
# 1 217.1032 72.0992 23.9697 0.0000 0.0000 0.0000
# 2 72.0992 120.3785 31.0397 0.0000 0.0000 0.0000
# 3 23.9697 31.0397 79.0922 0.0000 0.0000 0.0000
# 4 0.0000 0.0000 0.0000 22.7535 0.0000 0.0000
# 5 0.0000 0.0000 0.0000 0.0000 -93.6452 0.0000
# 6 0.0000 0.0000 0.0000 0.0000 0.0000 35.1262
#
#
#
# Elastic Compliance Matrix: (Units=1/GPa)
#
#
# Indices 1 2 3 4 5 6 
#
# 1 0.005763 -0.003339 -0.000436 0.000000 0.000000 0.000000
# 2 -0.003339 0.011177 -0.003375 0.000000 0.000000 0.000000
# 3 -0.000436 -0.003375 0.014100 0.000000 0.000000 0.000000
# 4 0.000000 0.000000 0.000000 0.043949 0.000000 0.000000
# 5 0.000000 0.000000 0.000000 0.000000 -0.010679 0.000000
# 6 0.000000 0.000000 0.000000 0.000000 0.000000 0.028469
#
#
# Mechanical properties :
#
#
# Convention : Reuss Voigt Hill
#
# Bulk Modulus (GPa) = 59.73497 74.53233 67.13365
# Shear Modulus (GPa) = 44.38125 12.14458 28.26291
#
# Velocity S-wave (km/s) = 4.21026 2.20242 3.35983
# Velocity P-wave (km/s) = 6.89156 6.01967 6.47032
#
# Compressibility (1/GPa) = 0.01674061
#
# Stress axis : x y z
#
# Youngs Moduli (GPa) = 173.51324 89.46676 70.92227
#
# Poissons Ratio (x) = 0.29876 0.03093
# Poissons Ratio (y) = 0.57943 0.23933
# Poissons Ratio (z) = 0.07566 0.30191
#
# Static dielectric constant tensor:
#      x y z
#    x 2.179490 0.000000 0.000000 
#    y 0.000000 1.924440 0.000000 
#    z 0.000000 0.000000 2.308420 
# 
# From -- ./inp_files/34176.got.cif
#   From: 2010.05.17/outbox.cif.g08.bks.cpg/sg64_18_cif.got.tgz:34176.got - 2010.06.03 16:29:19.
