data_PCOD9477472
_publ_section_title
;
Structure prediction by ZEFSAII (Michael W. Deem and Ramdas Pophale) SiO2 
 PCOD9477472
Probable space group: C M C A
;
_chemical_formula_sum "Si O2"
_cell_formula_units_Z 96
_cell_length_a 7.466204
_cell_length_b 22.426097
_cell_length_c 23.973301
_cell_angle_alpha 90.000000
_cell_angle_beta 90.000000
_cell_angle_gamma 90.000000
_cell_volume 4014.037141
_symmetry_space_group_name_H-M "C M C A"
_symmetry_group_IT_number 64
_symmetry_cell_setting 'orthorhombic'
loop_
_space_group_symop_operation_xyz
x,y,z
-x,1/2-y,1/2+z
x,-y,-z
-x,1/2+y,1/2-z
-x,-y,-z
x,1/2+y,1/2-z
-x,y,z
x,1/2-y,1/2+z
1/2+x,1/2+y,z
1/2-x,-y,1/2+z
1/2+x,1/2-y,-z
1/2-x,y,1/2-z
1/2-x,1/2-y,-z
1/2+x,y,1/2-z
1/2-x,1/2+y,z
1/2+x,-y,1/2+z
loop_
_atom_site_type_symbol
_atom_site_label
_atom_site_fract_x
_atom_site_fract_y
_atom_site_fract_z
Si Si1 0.786597 0.607575 0.185371
Si Si2 0.719332 0.727841 0.376539
Si Si3 0.287919 0.153350 0.684615
Si Si4 0.784729 0.837048 0.517055
Si Si5 0.782547 0.460279 0.918080
Si Si6 0.290381 0.590001 0.579127
O O1 0.750000 0.600211 0.250000
O O2 0.724036 0.670794 0.160545
O O3 0.721396 0.555606 0.144495
O O4 0.000000 0.608689 0.178644
O O5 0.500000 0.728961 0.377159
O O6 0.783856 0.786371 0.344557
O O7 0.781434 0.713781 0.440167
O O8 0.500000 0.154465 0.678853
O O9 0.250000 0.149577 0.750000
O O10 0.222239 0.100466 0.644958
O O11 0.743908 0.900869 0.546820
O O12 0.716402 0.852761 0.455023
O O13 0.000000 0.828205 0.515867
O O14 0.714672 0.525101 0.935828
O O15 0.000000 0.464690 0.919433
O O16 0.500000 0.588399 0.564177
#
# Coordination Sequence:
#
# PCOD9477472 Si02
#       6
#    16  16  16  16  16  16
#     4   9  16  28  47  70  95 123 161 208 253 292
#     4   8  16  31  51  74  98 125 160 207 255 293
#     4  11  23  38  53  70  98 135 172 207 246 293
#     4   8  14  28  53  81 103 126 162 206 249 294
#     4   8  15  28  48  75 103 131 165 204 243 289
#     4  10  19  32  53  79 104 132 166 201 241 295
#
# _framework density 23.916072
#
# number of rings (size 3 to 8) (size 9 to 14) (size 15 to 20)
#    0.000    3.000    0.000    3.500    0.000    3.333 
#    0.000    3.333    0.000    7.000    0.000    0.000 
#    0.000    0.000    0.000    0.000    0.000    0.000 
#
# Total GULP energy -267850.745664 kJ/mol
# GULP energy per Si atom -5580.223868 kJ/mol
# Density = 2.386164 g / cm^3
# Si number density = 23.916072 Si / 1000 Ang^3
#
#
#
# Elastic Constant Matrix: (Units=GPa)
#
#
# Indices 1 2 3 4 5 6 
#
# 1 69.3800 -3.4249 -12.2107 0.0000 0.0000 0.0000
# 2 -3.4249 76.3844 8.5667 0.0000 0.0000 0.0000
# 3 -12.2107 8.5667 128.8880 0.0000 0.0000 0.0000
# 4 0.0000 0.0000 0.0000 -286.5094 0.0000 0.0000
# 5 0.0000 0.0000 0.0000 0.0000 8.0404 0.0000
# 6 0.0000 0.0000 0.0000 0.0000 0.0000 0.3424
#
#
#
# Elastic Compliance Matrix: (Units=1/GPa)
#
#
# Indices 1 2 3 4 5 6 
#
# 1 0.014677 0.000506 0.001357 0.000000 0.000000 0.000000
# 2 0.000506 0.013207 -0.000830 0.000000 0.000000 0.000000
# 3 0.001357 -0.000830 0.007942 0.000000 0.000000 0.000000
# 4 0.000000 0.000000 0.000000 -0.003490 0.000000 0.000000
# 5 0.000000 0.000000 0.000000 0.000000 0.124373 0.000000
# 6 0.000000 0.000000 0.000000 0.000000 0.000000 2.920715
#
#
# Mechanical properties :
#
#
# Convention : Reuss Voigt Hill
#
# Bulk Modulus (GPa) = 26.39031 28.94608 27.66819
# Shear Modulus (GPa) = 1.61918 -36.84392 -17.61237
#
# Velocity S-wave (km/s) = 0.82371 -3.92924 -2.71666
# Velocity P-wave (km/s) = 3.45878 2.90789 1.32427
#
# Compressibility (1/GPa) = 0.03789269
#
# Stress axis : x y z
#
# Youngs Moduli (GPa) = 68.13311 75.71489 125.90678
#
# Poissons Ratio (x) = -0.03830 -0.17084
# Poissons Ratio (y) = -0.03447 0.10449
# Poissons Ratio (z) = -0.09245 0.06284
#
# Static dielectric constant tensor:
#      x y z
#    x 1.921020 0.000000 0.000000 
#    y 0.000000 1.928070 0.000000 
#    z 0.000000 0.000000 2.055240 
# 
# From -- ./inp_files/38395.got.cif
#   From: 2010.05.17/outbox.cif.g08.bks.cpg/sg64_20_cif.got.tgz:38395.got - 2010.06.03 16:29:19.
