data_PCOD9477518
_publ_section_title
;
Structure prediction by ZEFSAII (Michael W. Deem and Ramdas Pophale) SiO2 
 PCOD9477518
Probable space group: C M C A
;
_chemical_formula_sum "Si O2"
_cell_formula_units_Z 128
_cell_length_a 23.387661
_cell_length_b 22.326857
_cell_length_c 12.470657
_cell_angle_alpha 90.000000
_cell_angle_beta 90.000000
_cell_angle_gamma 90.000000
_cell_volume 6511.839913
_symmetry_space_group_name_H-M "C M C A"
_symmetry_group_IT_number 64
_symmetry_cell_setting 'orthorhombic'
loop_
_space_group_symop_operation_xyz
x,y,z
-x,1/2-y,1/2+z
x,-y,-z
-x,1/2+y,1/2-z
-x,-y,-z
x,1/2+y,1/2-z
-x,y,z
x,1/2-y,1/2+z
1/2+x,1/2+y,z
1/2-x,-y,1/2+z
1/2+x,1/2-y,-z
1/2-x,y,1/2-z
1/2-x,1/2-y,-z
1/2+x,y,1/2-z
1/2-x,1/2+y,z
1/2+x,-y,1/2+z
loop_
_atom_site_type_symbol
_atom_site_label
_atom_site_fract_x
_atom_site_fract_y
_atom_site_fract_z
Si Si1 0.436369 0.080542 0.308697
Si Si2 0.618835 0.066257 0.949574
Si Si3 0.351268 0.642535 0.352382
Si Si4 0.436407 0.437046 0.225757
Si Si5 0.683484 0.244965 0.282151
Si Si6 0.625578 0.570964 0.983869
Si Si7 0.272091 0.851118 0.558809
Si Si8 0.790060 0.637030 0.848499
O O1 0.500000 0.102448 0.278694
O O2 0.384608 0.108040 0.240889
O O3 0.423226 0.092293 0.433322
O O4 0.435577 0.009285 0.288084
O O5 0.576472 0.074542 0.850173
O O6 0.680436 0.078027 0.895039
O O7 0.618052 0.117700 0.040788
O O8 0.613349 0.000000 0.000000
O O9 0.349818 0.711677 0.313632
O O10 0.283102 0.630085 0.369379
O O11 0.500000 0.416077 0.197385
O O12 0.390847 0.414025 0.138312
O O13 0.750000 0.253403 0.250000
O O14 0.690286 0.198673 0.380607
O O15 0.664839 0.311700 0.312490
O O16 0.627617 0.500000 0.000000
O O17 0.685228 0.597000 0.023983
O O18 0.243876 0.831526 0.446473
O O19 0.750000 0.620994 0.750000
#
# Coordination Sequence:
#
# PCOD9477518 Si02
#       8
#    16  16  16  16  16  16  16  16
#     4  10  19  34  57  83 117 159 209 257 299 360
#     4  11  22  37  56  85 123 156 199 249 309 377
#     4  10  20  35  56  88 119 160 202 244 307 363
#     4  10  21  37  57  81 116 161 210 257 300 366
#     4   9  18  35  57  82 112 154 206 249 286 356
#     4  10  20  34  54  88 123 159 203 251 318 370
#     4  10  19  32  57  82 120 157 195 246 304 368
#     4  10  21  36  55  83 119 159 200 241 295 360
#
# _framework density 19.656504000000002
#
# number of rings (size 3 to 8) (size 9 to 14) (size 15 to 20)
#    0.000    2.000    2.500    1.500    0.000    5.250 
#    0.000    3.125    0.000    0.750    0.000    0.000 
#    0.000    0.000    0.000    0.000    0.000    0.000 
#
# Total GULP energy -356388.323095 kJ/mol
# GULP energy per Si atom -5568.567548 kJ/mol
# Density = 1.961176 g / cm^3
# Si number density = 19.656504 Si / 1000 Ang^3
#
#
#
# Elastic Constant Matrix: (Units=GPa)
#
#
# Indices 1 2 3 4 5 6 
#
# 1 65.4015 24.0782 30.0238 0.0000 0.0000 0.0000
# 2 24.0782 25.5446 25.9824 0.0000 0.0000 0.0000
# 3 30.0238 25.9824 107.1532 0.0000 0.0000 0.0000
# 4 0.0000 0.0000 0.0000 29.1542 0.0000 0.0000
# 5 0.0000 0.0000 0.0000 0.0000 29.6817 0.0000
# 6 0.0000 0.0000 0.0000 0.0000 0.0000 5.3366
#
#
#
# Elastic Compliance Matrix: (Units=1/GPa)
#
#
# Indices 1 2 3 4 5 6 
#
# 1 0.023626 -0.020623 -0.001619 0.000000 0.000000 0.000000
# 2 -0.020623 0.069964 -0.011186 0.000000 0.000000 0.000000
# 3 -0.001619 -0.011186 0.012499 0.000000 0.000000 0.000000
# 4 0.000000 0.000000 0.000000 0.034300 0.000000 0.000000
# 5 0.000000 0.000000 0.000000 0.000000 0.033691 0.000000
# 6 0.000000 0.000000 0.000000 0.000000 0.000000 0.187386
#
#
# Mechanical properties :
#
#
# Convention : Reuss Voigt Hill
#
# Bulk Modulus (GPa) = 25.48942 39.80756 32.64849
# Shear Modulus (GPa) = 11.32759 20.70215 16.01487
#
# Velocity S-wave (km/s) = 2.40318 3.24882 2.85746
# Velocity P-wave (km/s) = 4.54928 5.86248 5.24712
#
# Compressibility (1/GPa) = 0.03923196
#
# Stress axis : x y z
#
# Youngs Moduli (GPa) = 42.32627 14.29301 80.00862
#
# Poissons Ratio (x) = 0.29476 0.12956
# Poissons Ratio (y) = 0.87288 0.89502
# Poissons Ratio (z) = 0.06854 0.15989
#
# Static dielectric constant tensor:
#      x y z
#    x 1.700800 0.000000 0.000000 
#    y 0.000000 1.714480 0.000000 
#    z 0.000000 0.000000 1.762960 
# 
# From -- ./inp_files/18681.got.cif
#   From: 2010.05.17/outbox.cif.g08.bks.cpg/sg64_10_cif.got.tgz:18681.got - 2010.06.03 16:29:19.
