data_PCOD9477443
_publ_section_title
;
Structure prediction by ZEFSAII (Michael W. Deem and Ramdas Pophale) SiO2 
 PCOD9477443
Probable space group: C M C A
;
_chemical_formula_sum "Si O2"
_cell_formula_units_Z 80
_cell_length_a 25.316663
_cell_length_b 5.145204
_cell_length_c 27.596250
_cell_angle_alpha 90.000000
_cell_angle_beta 90.000000
_cell_angle_gamma 90.000000
_cell_volume 3594.670850
_symmetry_space_group_name_H-M "C M C A"
_symmetry_group_IT_number 64
_symmetry_cell_setting 'orthorhombic'
loop_
_space_group_symop_operation_xyz
x,y,z
-x,1/2-y,1/2+z
x,-y,-z
-x,1/2+y,1/2-z
-x,-y,-z
x,1/2+y,1/2-z
-x,y,z
x,1/2-y,1/2+z
1/2+x,1/2+y,z
1/2-x,-y,1/2+z
1/2+x,1/2-y,-z
1/2-x,y,1/2-z
1/2-x,1/2-y,-z
1/2+x,y,1/2-z
1/2-x,1/2+y,z
1/2+x,-y,1/2+z
loop_
_atom_site_type_symbol
_atom_site_label
_atom_site_fract_x
_atom_site_fract_y
_atom_site_fract_z
Si Si1 0.216453 0.484264 0.442144
Si Si2 0.227102 0.164296 0.302919
Si Si3 0.610678 0.006829 0.181997
Si Si4 0.610949 0.007292 0.382487
Si Si5 0.500000 0.370154 0.879396
Si Si6 0.000000 0.870235 0.687215
O O1 0.207503 0.500000 0.500000
O O2 0.239467 0.200497 0.430750
O O3 0.161618 0.539252 0.415531
O O4 0.250000 0.221268 0.250000
O O5 0.238151 0.440246 0.327759
O O6 0.167026 0.079269 0.295851
O O7 0.608155 0.214277 0.137746
O O8 0.556627 0.065459 0.211445
O O9 0.613296 0.714055 0.162082
O O10 0.554592 0.075463 0.406433
O O11 0.500000 0.579918 0.834551
O O12 0.500000 0.081837 0.856882
#
# Coordination Sequence:
#
# PCOD9477443 Si02
#       6
#    16  16  16  16   8   8
#     4  10  21  35  49  69 102 138 168 203 247 294
#     4  10  21  35  50  70 102 133 157 195 250 298
#     4  10  19  32  53  76  98 127 164 208 247 292
#     4  10  19  32  52  76 100 127 167 208 248 293
#     4   8  16  30  47  72 101 124 154 209 254 283
#     4   8  16  30  48  72  98 124 158 201 250 289
#
# _framework density 22.255165000000002
#
# number of rings (size 3 to 8) (size 9 to 14) (size 15 to 20)
#    0.000    2.400    0.000    2.400    0.000    4.800 
#    0.000    0.500    0.000    4.800    0.000   12.600 
#    0.000    0.000    0.000    0.000    0.000    0.000 
#
# Total GULP energy -223362.986046 kJ/mol
# GULP energy per Si atom -5584.074651 kJ/mol
# Density = 2.220451 g / cm^3
# Si number density = 22.255165 Si / 1000 Ang^3
#
#
#
# Elastic Constant Matrix: (Units=GPa)
#
#
# Indices 1 2 3 4 5 6 
#
# 1 204.3693 3.5695 20.8955 0.0000 0.0000 0.0000
# 2 3.5695 123.9496 3.7888 0.0000 0.0000 0.0000
# 3 20.8955 3.7888 36.5836 0.0000 0.0000 0.0000
# 4 0.0000 0.0000 0.0000 18.1053 0.0000 0.0000
# 5 0.0000 0.0000 0.0000 0.0000 688.0096 0.0000
# 6 0.0000 0.0000 0.0000 0.0000 0.0000 36.0057
#
#
#
# Elastic Compliance Matrix: (Units=1/GPa)
#
#
# Indices 1 2 3 4 5 6 
#
# 1 0.005197 -0.000059 -0.002962 0.000000 0.000000 0.000000
# 2 -0.000059 0.008094 -0.000804 0.000000 0.000000 0.000000
# 3 -0.002962 -0.000804 0.029110 0.000000 0.000000 0.000000
# 4 0.000000 0.000000 0.000000 0.055233 0.000000 0.000000
# 5 0.000000 0.000000 0.000000 0.000000 0.001453 0.000000
# 6 0.000000 0.000000 0.000000 0.000000 0.000000 0.027773
#
#
# Mechanical properties :
#
#
# Convention : Reuss Voigt Hill
#
# Bulk Modulus (GPa) = 28.77760 46.82335 37.80047
# Shear Modulus (GPa) = 34.22426 170.86736 102.54581
#
# Velocity S-wave (km/s) = 3.92575 8.77173 6.79539
# Velocity P-wave (km/s) = 5.78857 11.12097 8.86520
#
# Compressibility (1/GPa) = 0.03474925
#
# Stress axis : x y z
#
# Youngs Moduli (GPa) = 192.41840 123.54700 34.35259
#
# Poissons Ratio (x) = 0.00730 0.10176
# Poissons Ratio (y) = 0.01137 0.02764
# Poissons Ratio (z) = 0.56999 0.09939
#
# Static dielectric constant tensor:
#      x y z
#    x 1.913840 0.000000 0.000000 
#    y 0.000000 1.897270 0.000000 
#    z 0.000000 0.000000 1.949070 
# 
# From -- ./inp_files/2397.got.cif
#   From: 2010.05.17/outbox.cif.g08.bks.cpg/sg64_2_cif.got.tgz:2397.got - 2010.06.03 16:29:19.
