data_PCOD9477743
_publ_section_title
;
Structure prediction by ZEFSAII (Michael W. Deem and Ramdas Pophale) SiO2 
 PCOD9477743
Probable space group: C M C A
;
_chemical_formula_sum "Si O2"
_cell_formula_units_Z 96
_cell_length_a 7.795034
_cell_length_b 21.231041
_cell_length_c 29.416097
_cell_angle_alpha 90.000000
_cell_angle_beta 90.000000
_cell_angle_gamma 90.000000
_cell_volume 4868.266582
_symmetry_space_group_name_H-M "C M C A"
_symmetry_group_IT_number 64
_symmetry_cell_setting 'orthorhombic'
loop_
_space_group_symop_operation_xyz
x,y,z
-x,1/2-y,1/2+z
x,-y,-z
-x,1/2+y,1/2-z
-x,-y,-z
x,1/2+y,1/2-z
-x,y,z
x,1/2-y,1/2+z
1/2+x,1/2+y,z
1/2-x,-y,1/2+z
1/2+x,1/2-y,-z
1/2-x,y,1/2-z
1/2-x,1/2-y,-z
1/2+x,y,1/2-z
1/2-x,1/2+y,z
1/2+x,-y,1/2+z
loop_
_atom_site_type_symbol
_atom_site_label
_atom_site_fract_x
_atom_site_fract_y
_atom_site_fract_z
Si Si1 0.790427 0.497776 0.052047
Si Si2 0.293984 0.429361 0.699327
Si Si3 0.206929 0.126484 0.605388
Si Si4 0.206193 0.425644 0.199301
Si Si5 0.789691 0.376537 0.894447
Si Si6 0.297356 0.753759 0.946972
O O1 0.733059 0.434422 0.077063
O O2 0.738841 0.560446 0.078652
O O3 0.000000 0.496900 0.052239
O O4 0.734103 0.500000 0.000000
O O5 0.500000 0.432349 0.696160
O O6 0.250000 0.407553 0.750000
O O7 0.230530 0.501848 0.694217
O O8 0.233513 0.386291 0.657703
O O9 0.267693 0.116727 0.657304
O O10 0.254668 0.190376 0.580199
O O11 0.000000 0.124364 0.605981
O O12 0.250000 0.403700 0.250000
O O13 0.000000 0.428325 0.196417
O O14 0.725252 0.314735 0.920492
O O15 0.000000 0.374866 0.894391
O O16 0.500000 0.761269 0.946285
O O17 0.250000 0.750000 0.000000
#
# Coordination Sequence:
#
# PCOD9477743 Si02
#       6
#    16  16  16  16  16  16
#     4   9  15  26  50  78  98 124 172 224 259 300
#     4   9  16  30  52  79 106 132 170 216 263 310
#     4  10  19  34  55  80 106 136 176 221 266 312
#     4   9  17  30  52  80 108 136 170 216 265 313
#     4   9  17  32  53  77 102 135 179 218 254 307
#     4  11  23  38  56  77 106 144 179 217 266 321
#
# _framework density 19.719545
#
# number of rings (size 3 to 8) (size 9 to 14) (size 15 to 20)
#    0.000    2.500    1.667    1.500    0.000    3.333 
#    0.000    2.500    0.000    9.500    0.000    0.000 
#    0.000    0.000    0.000    0.000    0.000    0.000 
#
# Total GULP energy -267811.181579 kJ/mol
# GULP energy per Si atom -5579.399616 kJ/mol
# Density = 1.967466 g / cm^3
# Si number density = 19.719545 Si / 1000 Ang^3
#
#
#
# Elastic Constant Matrix: (Units=GPa)
#
#
# Indices 1 2 3 4 5 6 
#
# 1 24.3201 5.2514 10.3042 0.0000 0.0000 0.0000
# 2 5.2514 156.3641 114.6965 0.0000 0.0000 0.0000
# 3 10.3042 114.6965 234.6478 0.0000 0.0000 0.0000
# 4 0.0000 0.0000 0.0000 32.5961 0.0000 0.0000
# 5 0.0000 0.0000 0.0000 0.0000 24.3734 0.0000
# 6 0.0000 0.0000 0.0000 0.0000 0.0000 10.0523
#
#
#
# Elastic Compliance Matrix: (Units=1/GPa)
#
#
# Indices 1 2 3 4 5 6 
#
# 1 0.041899 -0.000090 -0.001796 0.000000 0.000000 0.000000
# 2 -0.000090 0.009970 -0.004870 0.000000 0.000000 0.000000
# 3 -0.001796 -0.004870 0.006721 0.000000 0.000000 0.000000
# 4 0.000000 0.000000 0.000000 0.030679 0.000000 0.000000
# 5 0.000000 0.000000 0.000000 0.000000 0.041028 0.000000
# 6 0.000000 0.000000 0.000000 0.000000 0.000000 0.099480
#
#
# Mechanical properties :
#
#
# Convention : Reuss Voigt Hill
#
# Bulk Modulus (GPa) = 22.18329 75.09291 48.63810
# Shear Modulus (GPa) = 19.35635 32.40969 25.88302
#
# Velocity S-wave (km/s) = 3.13642 4.05845 3.62685
# Velocity P-wave (km/s) = 4.93862 7.75399 6.50055
#
# Compressibility (1/GPa) = 0.04507898
#
# Stress axis : x y z
#
# Youngs Moduli (GPa) = 23.86720 100.29821 148.79116
#
# Poissons Ratio (x) = 0.00900 0.26724
# Poissons Ratio (y) = 0.00214 0.72455
# Poissons Ratio (z) = 0.04287 0.48841
#
# Static dielectric constant tensor:
#      x y z
#    x 1.742060 0.000000 0.000000 
#    y 0.000000 1.652540 0.000000 
#    z 0.000000 0.000000 1.659640 
# 
# From -- ./inp_files/44223.got.cif
#   From: 2010.05.17/outbox.cif.g08.bks.cpg/sg64_23_cif.got.tgz:44223.got - 2010.06.03 16:29:19.
