data_PCOD9477492
_publ_section_title
;
Structure prediction by ZEFSAII (Michael W. Deem and Ramdas Pophale) SiO2 
 PCOD9477492
Probable space group: C M C A
;
_chemical_formula_sum "Si O2"
_cell_formula_units_Z 72
_cell_length_a 16.545768
_cell_length_b 14.721115
_cell_length_c 18.268233
_cell_angle_alpha 90.000000
_cell_angle_beta 90.000000
_cell_angle_gamma 90.000000
_cell_volume 4449.632852
_symmetry_space_group_name_H-M "C M C A"
_symmetry_group_IT_number 64
_symmetry_cell_setting 'orthorhombic'
loop_
_space_group_symop_operation_xyz
x,y,z
-x,1/2-y,1/2+z
x,-y,-z
-x,1/2+y,1/2-z
-x,-y,-z
x,1/2+y,1/2-z
-x,y,z
x,1/2-y,1/2+z
1/2+x,1/2+y,z
1/2-x,-y,1/2+z
1/2+x,1/2-y,-z
1/2-x,y,1/2-z
1/2-x,1/2-y,-z
1/2+x,y,1/2-z
1/2-x,1/2+y,z
1/2+x,-y,1/2+z
loop_
_atom_site_type_symbol
_atom_site_label
_atom_site_fract_x
_atom_site_fract_y
_atom_site_fract_z
Si Si1 0.595108 0.542999 0.365276
Si Si2 0.831315 0.634012 0.795743
Si Si3 0.789401 0.500000 0.000000
Si Si4 0.406026 0.249102 0.169865
Si Si5 0.267291 0.318295 0.065982
O O1 0.500000 0.535709 0.384031
O O2 0.621190 0.457574 0.315774
O O3 0.651845 0.538448 0.436747
O O4 0.608192 0.640697 0.327658
O O5 0.750000 0.611127 0.750000
O O6 0.881877 0.701805 0.745122
O O7 0.801624 0.681155 0.870868
O O8 0.736019 0.580261 0.966213
O O9 0.500000 0.263922 0.153805
O O10 0.349313 0.290871 0.106896
O O11 0.250000 0.250000 0.000000
#
# Coordination Sequence:
#
# PCOD9477492 Si02
#       5
#    16  16   8  16  16
#     4  10  19  32  54  79 104 135 175 224 267 307
#     4   9  20  34  52  76 103 140 177 213 261 318
#     4  10  19  34  55  80 104 136 180 218 263 316
#     4  10  20  36  54  78 109 140 174 219 268 313
#     4  10  19  36  55  80 105 140 176 216 261 314
#
# _framework density 16.181111000000001
#
# number of rings (size 3 to 8) (size 9 to 14) (size 15 to 20)
#    0.000    2.222    2.222    1.000    0.000    2.667 
#    4.000    1.667    0.000    0.000    0.000    0.000 
#    0.000    0.000    0.000    0.000    0.000    0.000 
#
# Total GULP energy -200699.035544 kJ/mol
# GULP energy per Si atom -5574.973210 kJ/mol
# Density = 1.614428 g / cm^3
# Si number density = 16.181111 Si / 1000 Ang^3
#
#
#
# Elastic Constant Matrix: (Units=GPa)
#
#
# Indices 1 2 3 4 5 6 
#
# 1 92.3646 76.8865 44.9114 0.0000 0.0000 0.0000
# 2 76.8865 131.1602 75.1292 0.0000 0.0000 0.0000
# 3 44.9114 75.1292 113.0380 0.0000 0.0000 0.0000
# 4 0.0000 0.0000 0.0000 34.5779 0.0000 0.0000
# 5 0.0000 0.0000 0.0000 0.0000 8.8276 0.0000
# 6 0.0000 0.0000 0.0000 0.0000 0.0000 28.2565
#
#
#
# Elastic Compliance Matrix: (Units=1/GPa)
#
#
# Indices 1 2 3 4 5 6 
#
# 1 0.021149 -0.012247 -0.000263 0.000000 0.000000 0.000000
# 2 -0.012247 0.019403 -0.008030 0.000000 0.000000 0.000000
# 3 -0.000263 -0.008030 0.014288 0.000000 0.000000 0.000000
# 4 0.000000 0.000000 0.000000 0.028920 0.000000 0.000000
# 5 0.000000 0.000000 0.000000 0.000000 0.113281 0.000000
# 6 0.000000 0.000000 0.000000 0.000000 0.000000 0.035390
#
#
# Mechanical properties :
#
#
# Convention : Reuss Voigt Hill
#
# Bulk Modulus (GPa) = 72.67338 81.15743 76.91540
# Shear Modulus (GPa) = 17.97916 23.64144 20.81030
#
# Velocity S-wave (km/s) = 3.33696 3.82652 3.59009
# Velocity P-wave (km/s) = 7.73674 8.35389 8.05123
#
# Compressibility (1/GPa) = 0.01376020
#
# Stress axis : x y z
#
# Youngs Moduli (GPa) = 47.28271 51.53749 69.98760
#
# Poissons Ratio (x) = 0.63119 0.01841
# Poissons Ratio (y) = 0.57908 0.56202
# Poissons Ratio (z) = 0.01243 0.41386
#
# Static dielectric constant tensor:
#      x y z
#    x 1.523720 0.000000 0.000000 
#    y 0.000000 1.528840 0.000000 
#    z 0.000000 0.000000 1.534300 
# 
# From -- ./inp_files/31875.got.cif
#   From: 2010.05.17/outbox.cif.g08.bks.cpg/sg64_16_cif.got.tgz:31875.got - 2010.06.03 16:29:19.
