data_PCOD9477791
_publ_section_title
;
Structure prediction by ZEFSAII (Michael W. Deem and Ramdas Pophale) SiO2 
 PCOD9477791
Probable space group: C M C A
;
_chemical_formula_sum "Si O2"
_cell_formula_units_Z 116
_cell_length_a 7.855428
_cell_length_b 26.713341
_cell_length_c 29.401907
_cell_angle_alpha 90.000000
_cell_angle_beta 90.000000
_cell_angle_gamma 90.000000
_cell_volume 6169.835144
_symmetry_space_group_name_H-M "C M C A"
_symmetry_group_IT_number 64
_symmetry_cell_setting 'orthorhombic'
loop_
_space_group_symop_operation_xyz
x,y,z
-x,1/2-y,1/2+z
x,-y,-z
-x,1/2+y,1/2-z
-x,-y,-z
x,1/2+y,1/2-z
-x,y,z
x,1/2-y,1/2+z
1/2+x,1/2+y,z
1/2-x,-y,1/2+z
1/2+x,1/2-y,-z
1/2-x,y,1/2-z
1/2-x,1/2-y,-z
1/2+x,y,1/2-z
1/2-x,1/2+y,z
1/2+x,-y,1/2+z
loop_
_atom_site_type_symbol
_atom_site_label
_atom_site_fract_x
_atom_site_fract_y
_atom_site_fract_z
Si Si1 0.796891 0.595227 0.300207
Si Si2 0.704518 0.210359 0.299883
Si Si3 0.796694 0.147007 0.943430
Si Si4 0.705775 0.749724 0.604994
Si Si5 0.300799 0.041779 0.947285
Si Si6 0.801246 0.559988 0.102898
Si Si7 0.500000 0.500000 0.000000
Si Si8 0.200387 0.843575 0.953645
O O1 0.750000 0.576223 0.250000
O O2 0.732080 0.652772 0.303319
O O3 0.729639 0.565365 0.343492
O O4 0.000000 0.596275 0.303976
O O5 0.500000 0.207955 0.302129
O O6 0.750000 0.229907 0.250000
O O7 0.766005 0.241102 0.343370
O O8 0.753681 0.196814 0.916003
O O9 0.718738 0.095684 0.924176
O O10 0.000000 0.142086 0.943741
O O11 0.728690 0.151664 0.995457
O O12 0.500000 0.752677 0.605671
O O13 0.770231 0.795930 0.574032
O O14 0.500000 0.036427 0.961126
O O15 0.154406 0.039765 0.985862
O O16 0.248640 0.994213 0.916222
O O17 0.717754 0.606398 0.076478
O O18 0.000000 0.564630 0.093455
O O19 0.000000 0.834208 0.959427
#
# Coordination Sequence:
#
# PCOD9477791 Si02
#       8
#    16  16  16  16  16  16   4  16
#     4  10  19  34  57  84 119 151 186 237 299 362
#     4   9  18  33  54  82 112 148 187 236 297 353
#     4  11  23  38  58  83 114 161 209 246 293 354
#     4  10  20  37  56  80 116 157 193 240 300 352
#     4  11  25  41  59  88 120 158 203 253 299 348
#     4  11  23  36  57  86 118 153 198 245 300 354
#     4  12  22  40  64  86 116 152 206 248 296 348
#     4  10  21  36  55  80 115 156 196 242 293 348
#
# _framework density 18.80115
#
# number of rings (size 3 to 8) (size 9 to 14) (size 15 to 20)
#    0.000    1.655    2.069    2.690    3.862    3.862 
#    0.000    0.000    0.000    0.828    0.000    3.862 
#    0.000    0.000    0.000    0.000    0.000    0.000 
#
# Total GULP energy -323242.310443 kJ/mol
# GULP energy per Si atom -5573.143284 kJ/mol
# Density = 1.875836 g / cm^3
# Si number density = 18.801150 Si / 1000 Ang^3
#
#
#
# Elastic Constant Matrix: (Units=GPa)
#
#
# Indices 1 2 3 4 5 6 
#
# 1 53.2938 9.5084 1.8862 0.0000 0.0000 0.0000
# 2 9.5084 142.4703 67.4182 0.0000 0.0000 0.0000
# 3 1.8862 67.4182 114.4521 0.0000 0.0000 0.0000
# 4 0.0000 0.0000 0.0000 21.0592 0.0000 0.0000
# 5 0.0000 0.0000 0.0000 0.0000 19.2497 0.0000
# 6 0.0000 0.0000 0.0000 0.0000 0.0000 14.8793
#
#
#
# Elastic Compliance Matrix: (Units=1/GPa)
#
#
# Indices 1 2 3 4 5 6 
#
# 1 0.019020 -0.001554 0.000602 0.000000 0.000000 0.000000
# 2 -0.001554 0.009859 -0.005782 0.000000 0.000000 0.000000
# 3 0.000602 -0.005782 0.012133 0.000000 0.000000 0.000000
# 4 0.000000 0.000000 0.000000 0.047485 0.000000 0.000000
# 5 0.000000 0.000000 0.000000 0.000000 0.051949 0.000000
# 6 0.000000 0.000000 0.000000 0.000000 0.000000 0.067208
#
#
# Mechanical properties :
#
#
# Convention : Reuss Voigt Hill
#
# Bulk Modulus (GPa) = 36.30564 51.98243 44.14403
# Shear Modulus (GPa) = 21.71061 26.46454 24.08757
#
# Velocity S-wave (km/s) = 3.40185 3.75587 3.58323
# Velocity P-wave (km/s) = 5.89765 6.82036 6.37572
#
# Compressibility (1/GPa) = 0.02754393
#
# Stress axis : x y z
#
# Youngs Moduli (GPa) = 52.57652 101.43357 82.41947
#
# Poissons Ratio (x) = 0.15766 -0.04962
# Poissons Ratio (y) = 0.08172 0.47652
# Poissons Ratio (z) = -0.03166 0.58645
#
# Static dielectric constant tensor:
#      x y z
#    x 1.686830 0.000000 0.000000 
#    y 0.000000 1.674900 0.000000 
#    z 0.000000 0.000000 1.684840 
# 
# From -- ./inp_files/52385.got.cif
#   From: 2010.05.17/outbox.cif.g08.bks.cpg/sg64_27_cif.got.tgz:52385.got - 2010.06.03 16:29:19.
