data_PCOD9477884
_publ_section_title
;
Structure prediction by ZEFSAII (Michael W. Deem and Ramdas Pophale) SiO2 
 PCOD9477884
Probable space group: C M C A
;
_chemical_formula_sum "Si O2"
_cell_formula_units_Z 112
_cell_length_a 14.022420
_cell_length_b 13.413698
_cell_length_c 32.377332
_cell_angle_alpha 90.000000
_cell_angle_beta 90.000000
_cell_angle_gamma 90.000000
_cell_volume 6089.933549
_symmetry_space_group_name_H-M "C M C A"
_symmetry_group_IT_number 64
_symmetry_cell_setting 'orthorhombic'
loop_
_space_group_symop_operation_xyz
x,y,z
-x,1/2-y,1/2+z
x,-y,-z
-x,1/2+y,1/2-z
-x,-y,-z
x,1/2+y,1/2-z
-x,y,z
x,1/2-y,1/2+z
1/2+x,1/2+y,z
1/2-x,-y,1/2+z
1/2+x,1/2-y,-z
1/2-x,y,1/2-z
1/2-x,1/2-y,-z
1/2+x,y,1/2-z
1/2-x,1/2+y,z
1/2+x,-y,1/2+z
loop_
_atom_site_type_symbol
_atom_site_label
_atom_site_fract_x
_atom_site_fract_y
_atom_site_fract_z
Si Si1 0.891814 0.118759 0.000650
Si Si2 0.391977 0.373233 0.177294
Si Si3 0.763440 0.006856 0.349313
Si Si4 0.891646 0.719684 0.586131
Si Si5 0.230029 0.695458 0.203650
Si Si6 0.207049 0.655442 0.414942
Si Si7 0.114378 0.194536 0.648204
O O1 0.824455 0.150427 0.037875
O O2 0.000000 0.152530 0.010174
O O3 0.868682 0.156980 0.954914
O O4 0.891578 0.000000 0.000000
O O5 0.500000 0.397456 0.187808
O O6 0.319277 0.463721 0.180268
O O7 0.386334 0.341420 0.128794
O O8 0.351183 0.279933 0.202266
O O9 0.801563 0.103809 0.325303
O O10 0.711869 0.050623 0.390410
O O11 0.837601 0.915950 0.356498
O O12 0.814219 0.804984 0.588119
O O13 0.000000 0.756354 0.582520
O O14 0.250000 0.663296 0.250000
O O15 0.324115 0.748822 0.183848
O O16 0.140324 0.735218 0.391046
O O17 0.000000 0.189802 0.654509
#
# Coordination Sequence:
#
# PCOD9477884 Si02
#       7
#    16  16  16  16  16  16  16
#     4  10  21  33  54  85 116 151 197 245 288 335
#     4  10  20  38  61  83 112 151 194 235 280 340
#     4  10  20  36  58  87 113 148 191 231 285 340
#     4  10  19  35  56  82 112 150 195 235 280 338
#     4  10  22  40  59  83 117 149 185 232 290 349
#     4  11  20  37  59  83 118 156 192 238 294 339
#     4  10  22  39  60  86 117 150 191 237 287 344
#
# _framework density 18.391003999999999
#
# number of rings (size 3 to 8) (size 9 to 14) (size 15 to 20)
#    0.000    1.857    4.286    1.714    0.000    8.000 
#    0.000    0.000    0.000    0.429    0.000    0.000 
#    0.000    0.000    0.000    0.000    0.000    0.000 
#
# Total GULP energy -312127.368657 kJ/mol
# GULP energy per Si atom -5573.703012 kJ/mol
# Density = 1.834915 g / cm^3
# Si number density = 18.391004 Si / 1000 Ang^3
#
#
#
# Elastic Constant Matrix: (Units=GPa)
#
#
# Indices 1 2 3 4 5 6 
#
# 1 77.1133 25.6823 -3.9998 0.0000 0.0000 0.0000
# 2 25.6823 67.3572 -1.9006 0.0000 0.0000 0.0000
# 3 -3.9998 -1.9006 69.8368 0.0000 0.0000 0.0000
# 4 0.0000 0.0000 0.0000 17.0345 0.0000 0.0000
# 5 0.0000 0.0000 0.0000 0.0000 13.8051 0.0000
# 6 0.0000 0.0000 0.0000 0.0000 0.0000 12.7937
#
#
#
# Elastic Compliance Matrix: (Units=1/GPa)
#
#
# Indices 1 2 3 4 5 6 
#
# 1 0.014888 -0.005657 0.000699 0.000000 0.000000 0.000000
# 2 -0.005657 0.017007 0.000139 0.000000 0.000000 0.000000
# 3 0.000699 0.000139 0.014363 0.000000 0.000000 0.000000
# 4 0.000000 0.000000 0.000000 0.058704 0.000000 0.000000
# 5 0.000000 0.000000 0.000000 0.000000 0.072437 0.000000
# 6 0.000000 0.000000 0.000000 0.000000 0.000000 0.078164
#
#
# Mechanical properties :
#
#
# Convention : Reuss Voigt Hill
#
# Bulk Modulus (GPa) = 27.30788 28.20791 27.75789
# Shear Modulus (GPa) = 18.02399 21.69503 19.85951
#
# Velocity S-wave (km/s) = 3.13396 3.43834 3.28967
# Velocity P-wave (km/s) = 5.28927 5.57979 5.43647
#
# Compressibility (1/GPa) = 0.03661946
#
# Stress axis : x y z
#
# Youngs Moduli (GPa) = 67.16732 58.79918 69.62380
#
# Poissons Ratio (x) = 0.33262 -0.04865
# Poissons Ratio (y) = 0.37996 -0.00967
# Poissons Ratio (z) = -0.04693 -0.00816
#
# Static dielectric constant tensor:
#      x y z
#    x 1.640280 0.000000 0.000000 
#    y 0.000000 1.644010 0.000000 
#    z 0.000000 0.000000 1.681200 
# 
# From -- ./inp_files/53288.got.cif
#   From: 2010.05.17/outbox.cif.g08.bks.cpg/sg64_27_cif.got.tgz:53288.got - 2010.06.03 16:29:19.
