data_PCOD9477277
_publ_section_title
;
Structure prediction by ZEFSAII (Michael W. Deem and Ramdas Pophale) SiO2 
 PCOD9477277
Probable space group: C M C A
;
_chemical_formula_sum "Si O2"
_cell_formula_units_Z 112
_cell_length_a 19.915652
_cell_length_b 26.958657
_cell_length_c 11.753419
_cell_angle_alpha 90.000000
_cell_angle_beta 90.000000
_cell_angle_gamma 90.000000
_cell_volume 6310.401625
_symmetry_space_group_name_H-M "C M C A"
_symmetry_group_IT_number 64
_symmetry_cell_setting 'orthorhombic'
loop_
_space_group_symop_operation_xyz
x,y,z
-x,1/2-y,1/2+z
x,-y,-z
-x,1/2+y,1/2-z
-x,-y,-z
x,1/2+y,1/2-z
-x,y,z
x,1/2-y,1/2+z
1/2+x,1/2+y,z
1/2-x,-y,1/2+z
1/2+x,1/2-y,-z
1/2-x,y,1/2-z
1/2-x,1/2-y,-z
1/2+x,y,1/2-z
1/2-x,1/2+y,z
1/2+x,-y,1/2+z
loop_
_atom_site_type_symbol
_atom_site_label
_atom_site_fract_x
_atom_site_fract_y
_atom_site_fract_z
Si Si1 0.827776 0.436354 0.791892
Si Si2 0.425077 0.980248 0.129671
Si Si3 0.574243 0.706175 0.384802
Si Si4 0.783197 0.303805 0.128904
Si Si5 0.870223 0.384157 0.027128
Si Si6 0.844842 0.715422 0.488341
Si Si7 0.078393 0.641347 0.339340
O O1 0.750000 0.439392 0.750000
O O2 0.867323 0.488780 0.805698
O O3 0.872542 0.402197 0.706433
O O4 0.834555 0.411260 0.918474
O O5 0.500000 0.988154 0.178556
O O6 0.409287 0.923037 0.105377
O O7 0.426600 0.000000 0.000000
O O8 0.500000 0.726014 0.403857
O O9 0.586269 0.659347 0.468514
O O10 0.624303 0.750480 0.412416
O O11 0.579529 0.682347 0.261077
O O12 0.750000 0.300647 0.250000
O O13 0.820767 0.354905 0.109095
O O14 0.830594 0.256171 0.109414
O O15 0.726958 0.302878 0.030618
O O16 0.890843 0.670411 0.446795
O O17 0.000000 0.626113 0.353519
#
# Coordination Sequence:
#
# PCOD9477277 Si02
#       7
#    16  16  16  16  16  16  16
#     4  10  19  31  49  75 102 128 160 200 251 307
#     4   9  17  31  51  73  96 122 157 204 252 291
#     4   9  17  29  46  69  95 126 165 203 241 287
#     4  10  20  32  47  69  96 130 166 201 242 289
#     4   9  18  31  48  70  96 125 159 204 251 292
#     4  10  19  31  47  68  98 131 164 202 242 286
#     4  10  19  31  49  72 100 134 167 203 247 296
#
# _framework density 17.748474999999999
#
# number of rings (size 3 to 8) (size 9 to 14) (size 15 to 20)
#    0.000    2.429    0.000    3.000    0.000    6.857 
#    0.000    0.000    0.000    2.571    0.000    0.000 
#    0.000   14.857    0.000    0.000    0.000    0.000 
#
# Total GULP energy -311783.241362 kJ/mol
# GULP energy per Si atom -5567.557881 kJ/mol
# Density = 1.770808 g / cm^3
# Si number density = 17.748475 Si / 1000 Ang^3
#
#
#
# Elastic Constant Matrix: (Units=GPa)
#
#
# Indices 1 2 3 4 5 6 
#
# 1 109.3569 31.9554 4.7081 0.0000 0.0000 0.0000
# 2 31.9554 62.6972 2.1465 0.0000 0.0000 0.0000
# 3 4.7081 2.1465 22.6204 0.0000 0.0000 0.0000
# 4 0.0000 0.0000 0.0000 13.5814 0.0000 0.0000
# 5 0.0000 0.0000 0.0000 0.0000 16.9163 0.0000
# 6 0.0000 0.0000 0.0000 0.0000 0.0000 20.9912
#
#
#
# Elastic Compliance Matrix: (Units=1/GPa)
#
#
# Indices 1 2 3 4 5 6 
#
# 1 0.010812 -0.005451 -0.001733 0.000000 0.000000 0.000000
# 2 -0.005451 0.018750 -0.000645 0.000000 0.000000 0.000000
# 3 -0.001733 -0.000645 0.044630 0.000000 0.000000 0.000000
# 4 0.000000 0.000000 0.000000 0.073630 0.000000 0.000000
# 5 0.000000 0.000000 0.000000 0.000000 0.059114 0.000000
# 6 0.000000 0.000000 0.000000 0.000000 0.000000 0.047639
#
#
# Mechanical properties :
#
#
# Convention : Reuss Voigt Hill
#
# Bulk Modulus (GPa) = 17.08411 30.25493 23.66952
# Shear Modulus (GPa) = 17.25657 20.68875 18.97266
#
# Velocity S-wave (km/s) = 3.12153 3.41789 3.27306
# Velocity P-wave (km/s) = 4.75799 5.71484 5.25823
#
# Compressibility (1/GPa) = 0.05853391
#
# Stress axis : x y z
#
# Youngs Moduli (GPa) = 92.49070 53.33299 22.40656
#
# Poissons Ratio (x) = 0.29073 0.03883
# Poissons Ratio (y) = 0.50419 0.01444
# Poissons Ratio (z) = 0.16029 0.03438
#
# Static dielectric constant tensor:
#      x y z
#    x 1.635240 0.000000 0.000000 
#    y 0.000000 1.606900 0.000000 
#    z 0.000000 0.000000 1.599620 
# 
# From -- ./inp_files/17531.got.cif
#   From: 2010.05.17/outbox.cif.g08.bks.cpg/sg64_9_cif.got.tgz:17531.got - 2010.06.03 16:29:19.
