data_PCOD9477014
_publ_section_title
;
Structure prediction by ZEFSAII (Michael W. Deem and Ramdas Pophale) SiO2 
 PCOD9477014
Probable space group: C M C A
;
_chemical_formula_sum "Si O2"
_cell_formula_units_Z 48
_cell_length_a 11.150181
_cell_length_b 23.895105
_cell_length_c 8.539249
_cell_angle_alpha 90.000000
_cell_angle_beta 90.000000
_cell_angle_gamma 90.000000
_cell_volume 2275.152636
_symmetry_space_group_name_H-M "C M C A"
_symmetry_group_IT_number 64
_symmetry_cell_setting 'orthorhombic'
loop_
_space_group_symop_operation_xyz
x,y,z
-x,1/2-y,1/2+z
x,-y,-z
-x,1/2+y,1/2-z
-x,-y,-z
x,1/2+y,1/2-z
-x,y,z
x,1/2-y,1/2+z
1/2+x,1/2+y,z
1/2-x,-y,1/2+z
1/2+x,1/2-y,-z
1/2-x,y,1/2-z
1/2-x,1/2-y,-z
1/2+x,y,1/2-z
1/2-x,1/2+y,z
1/2+x,-y,1/2+z
loop_
_atom_site_type_symbol
_atom_site_label
_atom_site_fract_x
_atom_site_fract_y
_atom_site_fract_z
Si Si1 0.861906 0.174710 0.959752
Si Si2 0.750000 0.915124 0.250000
Si Si3 0.250000 0.229978 0.250000
Si Si4 0.631822 0.481131 0.817828
O O1 0.780430 0.124776 0.893968
O O2 0.833813 0.228790 0.851947
O O3 0.000000 0.158591 0.945781
O O4 0.826956 0.192703 0.132974
O O5 0.642234 0.959213 0.226618
O O6 0.500000 0.455618 0.798729
O O7 0.750000 0.450239 0.750000
O O8 0.645583 0.500000 0.000000
#
# Coordination Sequence:
#
# PCOD9477014 Si02
#       4
#    16   8   8  16
#     4  10  18  34  54  76 112 143 181 232 272 321
#     4   9  20  34  55  80 104 144 183 222 280 321
#     4   9  20  32  51  82 104 146 191 212 278 329
#     4   9  19  37  58  81 110 142 179 224 278 333
#
# _framework density 21.097484000000001
#
# number of rings (size 3 to 8) (size 9 to 14) (size 15 to 20)
#    1.000    1.667    0.000    2.000    0.000    0.667 
#    3.000    5.000    0.000    0.000    0.000    0.000 
#    0.000    0.000    0.000    0.000    0.000    0.000 
#
# Total GULP energy -133688.771555 kJ/mol
# GULP energy per Si atom -5570.365481 kJ/mol
# Density = 2.104946 g / cm^3
# Si number density = 21.097484 Si / 1000 Ang^3
#
#
#
# Elastic Constant Matrix: (Units=GPa)
#
#
# Indices 1 2 3 4 5 6 
#
# 1 136.7604 0.2279 47.0027 0.0000 0.0000 0.0000
# 2 0.2279 55.7332 12.2455 0.0000 0.0000 0.0000
# 3 47.0027 12.2455 85.0312 0.0000 0.0000 0.0000
# 4 0.0000 0.0000 0.0000 20.1048 0.0000 0.0000
# 5 0.0000 0.0000 0.0000 0.0000 14.9305 0.0000
# 6 0.0000 0.0000 0.0000 0.0000 0.0000 7.0544
#
#
#
# Elastic Compliance Matrix: (Units=1/GPa)
#
#
# Indices 1 2 3 4 5 6 
#
# 1 0.009092 0.001102 -0.005185 0.000000 0.000000 0.000000
# 2 0.001102 0.018662 -0.003297 0.000000 0.000000 0.000000
# 3 -0.005185 -0.003297 0.015101 0.000000 0.000000 0.000000
# 4 0.000000 0.000000 0.000000 0.049739 0.000000 0.000000
# 5 0.000000 0.000000 0.000000 0.000000 0.066977 0.000000
# 6 0.000000 0.000000 0.000000 0.000000 0.000000 0.141755
#
#
# Mechanical properties :
#
#
# Convention : Reuss Voigt Hill
#
# Bulk Modulus (GPa) = 35.59110 44.05300 39.82205
# Shear Modulus (GPa) = 15.36325 22.95450 19.15887
#
# Velocity S-wave (km/s) = 2.70145 3.30209 3.01676
# Velocity P-wave (km/s) = 5.16110 5.95520 5.57231
#
# Compressibility (1/GPa) = 0.02809692
#
# Stress axis : x y z
#
# Youngs Moduli (GPa) = 109.98590 53.58349 66.22070
#
# Poissons Ratio (x) = -0.05905 0.34332
# Poissons Ratio (y) = -0.12120 0.21831
# Poissons Ratio (z) = 0.57022 0.17665
#
# Static dielectric constant tensor:
#      x y z
#    x 1.789290 0.000000 0.000000 
#    y 0.000000 1.763320 0.000000 
#    z 0.000000 0.000000 1.765490 
# 
# From -- ./inp_files/4401.got.cif
#   From: 2010.05.17/outbox.cif.g08.bks.cpg/sg64_3_cif.got.tgz:4401.got - 2010.06.03 16:29:19.
