data_PCOD9477623
_publ_section_title
;
Structure prediction by ZEFSAII (Michael W. Deem and Ramdas Pophale) SiO2 
 PCOD9477623
Probable space group: C M C A
;
_chemical_formula_sum "Si O2"
_cell_formula_units_Z 80
_cell_length_a 12.522289
_cell_length_b 19.730747
_cell_length_c 19.339302
_cell_angle_alpha 90.000000
_cell_angle_beta 90.000000
_cell_angle_gamma 90.000000
_cell_volume 4778.240948
_symmetry_space_group_name_H-M "C M C A"
_symmetry_group_IT_number 64
_symmetry_cell_setting 'orthorhombic'
loop_
_space_group_symop_operation_xyz
x,y,z
-x,1/2-y,1/2+z
x,-y,-z
-x,1/2+y,1/2-z
-x,-y,-z
x,1/2+y,1/2-z
-x,y,z
x,1/2-y,1/2+z
1/2+x,1/2+y,z
1/2-x,-y,1/2+z
1/2+x,1/2-y,-z
1/2-x,y,1/2-z
1/2-x,1/2-y,-z
1/2+x,y,1/2-z
1/2-x,1/2+y,z
1/2+x,-y,1/2+z
loop_
_atom_site_type_symbol
_atom_site_label
_atom_site_fract_x
_atom_site_fract_y
_atom_site_fract_z
Si Si1 0.873602 0.024480 0.922263
Si Si2 0.500000 0.389933 0.496235
Si Si3 0.212940 0.058112 0.328111
Si Si4 0.373257 0.675938 0.956553
Si Si5 0.304896 0.820329 0.932170
Si Si6 0.500000 0.002526 0.881585
O O1 0.850845 0.104630 0.919409
O O2 0.000000 0.013596 0.912313
O O3 0.804182 0.981782 0.869729
O O4 0.846321 0.000000 0.000000
O O5 0.605464 0.346642 0.513237
O O6 0.500000 0.425595 0.421489
O O7 0.500000 0.448617 0.554848
O O8 0.250000 0.067374 0.250000
O O9 0.194022 0.129387 0.367416
O O10 0.105177 0.013993 0.337525
O O11 0.500000 0.679100 0.968540
O O12 0.334799 0.742824 0.916408
O O13 0.307708 0.676391 0.028235
#
# Coordination Sequence:
#
# PCOD9477623 Si02
#       6
#    16   8  16  16  16   8
#     4  10  20  36  59  84 112 145 188 238 280 332
#     4   9  16  32  56  80 111 136 186 236 286 326
#     4  11  23  37  56  83 117 153 192 230 288 349
#     4  10  19  33  56  86 111 140 183 237 283 326
#     4  10  19  33  55  85 114 141 185 235 286 335
#     4   9  20  32  54  80 107 150 184 240 279 333
#
# _framework density 16.742563000000001
#
# number of rings (size 3 to 8) (size 9 to 14) (size 15 to 20)
#    0.000    2.000    3.000    1.200    4.200    0.000 
#    0.000    1.000    0.000    0.000    0.000    0.000 
#    0.000    0.000    0.000    0.000    0.000    0.000 
#
# Total GULP energy -223106.177447 kJ/mol
# GULP energy per Si atom -5577.654436 kJ/mol
# Density = 1.670446 g / cm^3
# Si number density = 16.742563 Si / 1000 Ang^3
#
#
#
# Elastic Constant Matrix: (Units=GPa)
#
#
# Indices 1 2 3 4 5 6 
#
# 1 68.5769 42.6458 56.5372 0.0000 0.0000 0.0000
# 2 42.6458 127.2047 53.1359 0.0000 0.0000 0.0000
# 3 56.5372 53.1359 96.5658 0.0000 0.0000 0.0000
# 4 0.0000 0.0000 0.0000 16.9034 0.0000 0.0000
# 5 0.0000 0.0000 0.0000 0.0000 19.4577 0.0000
# 6 0.0000 0.0000 0.0000 0.0000 0.0000 22.3972
#
#
#
# Elastic Compliance Matrix: (Units=1/GPa)
#
#
# Indices 1 2 3 4 5 6 
#
# 1 0.029311 -0.003451 -0.015262 0.000000 0.000000 0.000000
# 2 -0.003451 0.010614 -0.003820 0.000000 0.000000 0.000000
# 3 -0.015262 -0.003820 0.021393 0.000000 0.000000 0.000000
# 4 0.000000 0.000000 0.000000 0.059160 0.000000 0.000000
# 5 0.000000 0.000000 0.000000 0.000000 0.051394 0.000000
# 6 0.000000 0.000000 0.000000 0.000000 0.000000 0.044648
#
#
# Mechanical properties :
#
#
# Convention : Reuss Voigt Hill
#
# Bulk Modulus (GPa) = 61.53072 66.33168 63.93120
# Shear Modulus (GPa) = 18.72645 21.08689 19.90667
#
# Velocity S-wave (km/s) = 3.34802 3.55276 3.45191
# Velocity P-wave (km/s) = 7.19559 7.51892 7.35903
#
# Compressibility (1/GPa) = 0.01625204
#
# Stress axis : x y z
#
# Youngs Moduli (GPa) = 34.11720 94.21508 46.74477
#
# Poissons Ratio (x) = 0.32518 0.71340
# Poissons Ratio (y) = 0.11775 0.17855
# Poissons Ratio (z) = 0.52068 0.35987
#
# Static dielectric constant tensor:
#      x y z
#    x 1.579770 0.000000 0.000000 
#    y 0.000000 1.592440 0.000000 
#    z 0.000000 0.000000 1.523230 
# 
# From -- ./inp_files/30852.got.cif
#   From: 2010.05.17/outbox.cif.g08.bks.cpg/sg64_16_cif.got.tgz:30852.got - 2010.06.03 16:29:19.
