data_PCOD9477524
_publ_section_title
;
Structure prediction by ZEFSAII (Michael W. Deem and Ramdas Pophale) SiO2 
 PCOD9477524
Probable space group: C M C A
;
_chemical_formula_sum "Si O2"
_cell_formula_units_Z 112
_cell_length_a 19.617068
_cell_length_b 12.180188
_cell_length_c 24.478151
_cell_angle_alpha 90.000000
_cell_angle_beta 90.000000
_cell_angle_gamma 90.000000
_cell_volume 5848.799027
_symmetry_space_group_name_H-M "C M C A"
_symmetry_group_IT_number 64
_symmetry_cell_setting 'orthorhombic'
loop_
_space_group_symop_operation_xyz
x,y,z
-x,1/2-y,1/2+z
x,-y,-z
-x,1/2+y,1/2-z
-x,-y,-z
x,1/2+y,1/2-z
-x,y,z
x,1/2-y,1/2+z
1/2+x,1/2+y,z
1/2-x,-y,1/2+z
1/2+x,1/2-y,-z
1/2-x,y,1/2-z
1/2-x,1/2-y,-z
1/2+x,y,1/2-z
1/2-x,1/2+y,z
1/2+x,-y,1/2+z
loop_
_atom_site_type_symbol
_atom_site_label
_atom_site_fract_x
_atom_site_fract_y
_atom_site_fract_z
Si Si1 0.581456 0.989209 0.833827
Si Si2 0.803857 0.563526 0.638934
Si Si3 0.154902 0.710517 0.545220
Si Si4 0.290194 0.146860 0.435106
Si Si5 0.167244 0.299358 0.160112
Si Si6 0.580270 0.419005 0.545860
Si Si7 0.329219 0.589122 0.234501
O O1 0.500000 0.979019 0.827604
O O2 0.604342 0.943188 0.892790
O O3 0.622297 0.928212 0.785954
O O4 0.606303 0.115076 0.834063
O O5 0.849234 0.641991 0.600821
O O6 0.780639 0.464419 0.598830
O O7 0.738184 0.631691 0.659798
O O8 0.841661 0.505057 0.689051
O O9 0.218538 0.794030 0.553222
O O10 0.172631 0.636232 0.493088
O O11 0.093641 0.792415 0.532885
O O12 0.331660 0.231410 0.396484
O O13 0.164386 0.208316 0.207197
O O14 0.611165 0.500000 0.500000
O O15 0.500000 0.440956 0.547558
O O16 0.250000 0.576238 0.250000
#
# Coordination Sequence:
#
# PCOD9477524 Si02
#       7
#    16  16  16  16  16  16  16
#     4  11  24  41  62  88 121 161 209 261 308 372
#     4  10  20  36  56  87 119 155 199 250 305 367
#     4  10  19  32  59  86 120 151 194 246 309 361
#     4   9  19  33  54  90 119 152 187 252 307 363
#     4  10  21  36  59  84 118 159 203 247 313 368
#     4  10  22  40  62  88 121 161 203 250 307 379
#     4  11  24  38  60  86 121 160 210 258 308 371
#
# _framework density 19.149229999999999
#
# number of rings (size 3 to 8) (size 9 to 14) (size 15 to 20)
#    0.000    1.857    1.429    2.143    6.000    2.857 
#    0.000    2.143    0.000    3.429    0.000    0.000 
#    0.000    0.000    0.000    0.000    0.000    0.000 
#
# Total GULP energy -312599.182093 kJ/mol
# GULP energy per Si atom -5582.128252 kJ/mol
# Density = 1.910565 g / cm^3
# Si number density = 19.149230 Si / 1000 Ang^3
#
#
#
# Elastic Constant Matrix: (Units=GPa)
#
#
# Indices 1 2 3 4 5 6 
#
# 1 44.4763 17.7977 45.6470 0.0000 0.0000 0.0000
# 2 17.7977 88.2900 45.3474 0.0000 0.0000 0.0000
# 3 45.6470 45.3474 133.2049 0.0000 0.0000 0.0000
# 4 0.0000 0.0000 0.0000 30.7628 0.0000 0.0000
# 5 0.0000 0.0000 0.0000 0.0000 23.2682 0.0000
# 6 0.0000 0.0000 0.0000 0.0000 0.0000 20.0413
#
#
#
# Elastic Compliance Matrix: (Units=1/GPa)
#
#
# Indices 1 2 3 4 5 6 
#
# 1 0.034766 -0.001078 -0.011547 0.000000 0.000000 0.000000
# 2 -0.001078 0.013760 -0.004315 0.000000 0.000000 0.000000
# 3 -0.011547 -0.004315 0.012933 0.000000 0.000000 0.000000
# 4 0.000000 0.000000 0.000000 0.032507 0.000000 0.000000
# 5 0.000000 0.000000 0.000000 0.000000 0.042977 0.000000
# 6 0.000000 0.000000 0.000000 0.000000 0.000000 0.049897
#
#
# Mechanical properties :
#
#
# Convention : Reuss Voigt Hill
#
# Bulk Modulus (GPa) = 36.25820 53.72840 44.99330
# Shear Modulus (GPa) = 21.74747 25.29306 23.52027
#
# Velocity S-wave (km/s) = 3.37365 3.63828 3.50846
# Velocity P-wave (km/s) = 5.84388 6.76521 6.32135
#
# Compressibility (1/GPa) = 0.02757997
#
# Stress axis : x y z
#
# Youngs Moduli (GPa) = 28.76388 72.67544 77.32086
#
# Poissons Ratio (x) = 0.07831 0.89281
# Poissons Ratio (y) = 0.03099 0.33364
# Poissons Ratio (z) = 0.33213 0.31360
#
# Static dielectric constant tensor:
#      x y z
#    x 1.655560 0.000000 0.000000 
#    y 0.000000 1.675270 0.000000 
#    z 0.000000 0.000000 1.699940 
# 
# From -- ./inp_files/46343.got.cif
#   From: 2010.05.17/outbox.cif.g08.bks.cpg/sg64_24_cif.got.tgz:46343.got - 2010.06.03 16:29:19.
