data_PCOD9477332
_publ_section_title
;
Structure prediction by ZEFSAII (Michael W. Deem and Ramdas Pophale) SiO2 
 PCOD9477332
Probable space group: C M C A
;
_chemical_formula_sum "Si O2"
_cell_formula_units_Z 96
_cell_length_a 8.916068
_cell_length_b 24.084239
_cell_length_c 26.332516
_cell_angle_alpha 90.000000
_cell_angle_beta 90.000000
_cell_angle_gamma 90.000000
_cell_volume 5654.557922
_symmetry_space_group_name_H-M "C M C A"
_symmetry_group_IT_number 64
_symmetry_cell_setting 'orthorhombic'
loop_
_space_group_symop_operation_xyz
x,y,z
-x,1/2-y,1/2+z
x,-y,-z
-x,1/2+y,1/2-z
-x,-y,-z
x,1/2+y,1/2-z
-x,y,z
x,1/2-y,1/2+z
1/2+x,1/2+y,z
1/2-x,-y,1/2+z
1/2+x,1/2-y,-z
1/2-x,y,1/2-z
1/2-x,1/2-y,-z
1/2+x,y,1/2-z
1/2-x,1/2+y,z
1/2+x,-y,1/2+z
loop_
_atom_site_type_symbol
_atom_site_label
_atom_site_fract_x
_atom_site_fract_y
_atom_site_fract_z
Si Si1 0.676580 0.664315 0.896812
Si Si2 0.821527 0.415401 0.304917
Si Si3 0.177793 0.275936 0.948962
Si Si4 0.676226 0.507297 0.375507
Si Si5 0.326429 0.077609 0.968127
Si Si6 0.822683 0.895276 0.929872
O O1 0.500000 0.652214 0.908451
O O2 0.708539 0.636944 0.842327
O O3 0.697726 0.729532 0.905114
O O4 0.780242 0.632465 0.937066
O O5 0.750000 0.407855 0.250000
O O6 0.753862 0.469532 0.332811
O O7 0.000000 0.421506 0.300663
O O8 0.252140 0.334041 0.934177
O O9 0.000000 0.283692 0.957319
O O10 0.250000 0.250000 0.000000
O O11 0.500000 0.513212 0.364811
O O12 0.690957 0.471613 0.427632
O O13 0.751678 0.566366 0.386186
O O14 0.500000 0.079148 0.984763
O O15 0.221092 0.075767 0.016726
O O16 0.000000 0.891918 0.924362
#
# Coordination Sequence:
#
# PCOD9477332 Si02
#       6
#    16  16  16  16  16  16
#     4   9  19  34  53  77 107 140 179 221 267 317
#     4  10  20  37  60  85 108 135 171 219 274 328
#     4  11  21  34  52  76 107 147 187 225 265 316
#     4  10  21  36  53  77 105 137 178 225 272 320
#     4  10  19  31  50  74 104 140 179 221 264 314
#     4  12  23  33  48  73 108 149 184 218 263 319
#
# _framework density 16.977454999999999
#
# number of rings (size 3 to 8) (size 9 to 14) (size 15 to 20)
#    0.000    1.667    1.667    4.000    0.000    5.333 
#    0.000    0.000    0.000    1.000    0.000    4.667 
#    0.000    0.000    0.000    0.000    0.000    0.000 
#
# Total GULP energy -267991.319141 kJ/mol
# GULP energy per Si atom -5583.152482 kJ/mol
# Density = 1.693881 g / cm^3
# Si number density = 16.977455 Si / 1000 Ang^3
#
#
#
# Elastic Constant Matrix: (Units=GPa)
#
#
# Indices 1 2 3 4 5 6 
#
# 1 107.1483 52.8291 46.3055 0.0000 0.0000 0.0000
# 2 52.8291 92.9571 38.5051 0.0000 0.0000 0.0000
# 3 46.3055 38.5051 86.1507 0.0000 0.0000 0.0000
# 4 0.0000 0.0000 0.0000 11.2876 0.0000 0.0000
# 5 0.0000 0.0000 0.0000 0.0000 28.7342 0.0000
# 6 0.0000 0.0000 0.0000 0.0000 0.0000 25.1836
#
#
#
# Elastic Compliance Matrix: (Units=1/GPa)
#
#
# Indices 1 2 3 4 5 6 
#
# 1 0.014571 -0.006181 -0.005069 0.000000 0.000000 0.000000
# 2 -0.006181 0.015824 -0.003750 0.000000 0.000000 0.000000
# 3 -0.005069 -0.003750 0.016008 0.000000 0.000000 0.000000
# 4 0.000000 0.000000 0.000000 0.088593 0.000000 0.000000
# 5 0.000000 0.000000 0.000000 0.000000 0.034802 0.000000
# 6 0.000000 0.000000 0.000000 0.000000 0.000000 0.039708
#
#
# Mechanical properties :
#
#
# Convention : Reuss Voigt Hill
#
# Bulk Modulus (GPa) = 60.96705 62.39283 61.67994
# Shear Modulus (GPa) = 20.41020 22.94884 21.67952
#
# Velocity S-wave (km/s) = 3.47103 3.68057 3.57733
# Velocity P-wave (km/s) = 7.21475 7.40893 7.31249
#
# Compressibility (1/GPa) = 0.01640230
#
# Stress axis : x y z
#
# Youngs Moduli (GPa) = 68.62833 63.19528 62.46733
#
# Poissons Ratio (x) = 0.39063 0.31666
# Poissons Ratio (y) = 0.42421 0.23426
# Poissons Ratio (z) = 0.34789 0.23699
#
# Static dielectric constant tensor:
#      x y z
#    x 1.566140 0.000000 0.000000 
#    y 0.000000 1.591410 0.000000 
#    z 0.000000 0.000000 1.556140 
# 
# From -- ./inp_files/43039.got.cif
#   From: 2010.05.17/outbox.cif.g08.bks.cpg/sg64_22_cif.got.tgz:43039.got - 2010.06.03 16:29:19.
