data_PCOD9477056
_publ_section_title
;
Structure prediction by ZEFSAII (Michael W. Deem and Ramdas Pophale) SiO2 
 PCOD9477056
Probable space group: C M C A
;
_chemical_formula_sum "Si O2"
_cell_formula_units_Z 64
_cell_length_a 21.848691
_cell_length_b 7.160863
_cell_length_c 17.116554
_cell_angle_alpha 90.000000
_cell_angle_beta 90.000000
_cell_angle_gamma 90.000000
_cell_volume 2677.978723
_symmetry_space_group_name_H-M "C M C A"
_symmetry_group_IT_number 64
_symmetry_cell_setting 'orthorhombic'
loop_
_space_group_symop_operation_xyz
x,y,z
-x,1/2-y,1/2+z
x,-y,-z
-x,1/2+y,1/2-z
-x,-y,-z
x,1/2+y,1/2-z
-x,y,z
x,1/2-y,1/2+z
1/2+x,1/2+y,z
1/2-x,-y,1/2+z
1/2+x,1/2-y,-z
1/2-x,y,1/2-z
1/2-x,1/2-y,-z
1/2+x,y,1/2-z
1/2-x,1/2+y,z
1/2+x,-y,1/2+z
loop_
_atom_site_type_symbol
_atom_site_label
_atom_site_fract_x
_atom_site_fract_y
_atom_site_fract_z
Si Si1 0.129434 0.013883 0.645486
Si Si2 0.686213 0.343223 0.205019
Si Si3 0.865480 0.098461 0.079213
Si Si4 0.500000 0.004904 0.178642
Si Si5 0.000000 0.928125 0.860963
O O1 0.135129 0.130135 0.727154
O O2 0.137300 0.175381 0.581336
O O3 0.063062 0.916369 0.645206
O O4 0.176504 0.845562 0.656003
O O5 0.750000 0.343243 0.250000
O O6 0.676803 0.516052 0.147585
O O7 0.935528 0.033487 0.097229
O O8 0.846180 0.000000 0.000000
O O9 0.500000 0.794480 0.148667
O O10 0.500000 0.999930 0.272175
#
# Coordination Sequence:
#
# PCOD9477056 Si02
#       5
#    16  16  16   8   8
#     4  11  22  40  69  99 131 174 232 286 335 408
#     4  12  24  41  71  97 127 182 240 278 331 410
#     4  11  25  43  67 106 148 181 223 292 366 418
#     4  10  18  34  63 104 121 170 231 282 331 402
#     4  10  19  36  67 103 142 178 224 285 356 419
#
# _framework density 23.898620999999999
#
# number of rings (size 3 to 8) (size 9 to 14) (size 15 to 20)
#    0.000    1.000    5.000    2.625    0.000    2.000 
#    0.000    1.250    0.000    6.000    0.000    0.000 
#    0.000    0.000    0.000    0.000    0.000    0.000 
#
# Total GULP energy -178985.302725 kJ/mol
# GULP energy per Si atom -5593.290710 kJ/mol
# Density = 2.384423 g / cm^3
# Si number density = 23.898621 Si / 1000 Ang^3
#
#
#
# Elastic Constant Matrix: (Units=GPa)
#
#
# Indices 1 2 3 4 5 6 
#
# 1 141.9121 31.9791 8.5387 0.0000 0.0000 0.0000
# 2 31.9791 105.1870 0.7906 0.0000 0.0000 0.0000
# 3 8.5387 0.7906 19.1106 0.0000 0.0000 0.0000
# 4 0.0000 0.0000 0.0000 16.0035 0.0000 0.0000
# 5 0.0000 0.0000 0.0000 0.0000 8.8578 0.0000
# 6 0.0000 0.0000 0.0000 0.0000 0.0000 27.6941
#
#
#
# Elastic Compliance Matrix: (Units=1/GPa)
#
#
# Indices 1 2 3 4 5 6 
#
# 1 0.007777 -0.002339 -0.003378 0.000000 0.000000 0.000000
# 2 -0.002339 0.010213 0.000623 0.000000 0.000000 0.000000
# 3 -0.003378 0.000623 0.053810 0.000000 0.000000 0.000000
# 4 0.000000 0.000000 0.000000 0.062486 0.000000 0.000000
# 5 0.000000 0.000000 0.000000 0.000000 0.112895 0.000000
# 6 0.000000 0.000000 0.000000 0.000000 0.000000 0.036109
#
#
# Mechanical properties :
#
#
# Convention : Reuss Voigt Hill
#
# Bulk Modulus (GPa) = 16.23066 38.75850 27.49458
# Shear Modulus (GPa) = 15.92271 25.50451 20.71361
#
# Velocity S-wave (km/s) = 2.58400 3.27034 2.94722
# Velocity P-wave (km/s) = 3.96345 5.52388 4.80740
#
# Compressibility (1/GPa) = 0.06161179
#
# Stress axis : x y z
#
# Youngs Moduli (GPa) = 128.58537 97.91166 18.58376
#
# Poissons Ratio (x) = 0.22901 0.06278
# Poissons Ratio (y) = 0.30076 -0.01157
# Poissons Ratio (z) = 0.43436 -0.06095
#
# Static dielectric constant tensor:
#      x y z
#    x 2.017080 0.000000 0.000000 
#    y 0.000000 1.936640 0.000000 
#    z 0.000000 0.000000 1.899540 
# 
# From -- ./inp_files/33907.got.cif
#   From: 2010.05.17/outbox.cif.g08.bks.cpg/sg64_17_cif.got.tgz:33907.got - 2010.06.03 16:29:19.
