data_PCOD9477589
_publ_section_title
;
Structure prediction by ZEFSAII (Michael W. Deem and Ramdas Pophale) SiO2 
 PCOD9477589
Probable space group: C M C A
;
_chemical_formula_sum "Si O2"
_cell_formula_units_Z 120
_cell_length_a 16.015828
_cell_length_b 18.640278
_cell_length_c 20.564908
_cell_angle_alpha 90.000000
_cell_angle_beta 90.000000
_cell_angle_gamma 90.000000
_cell_volume 6139.437071
_symmetry_space_group_name_H-M "C M C A"
_symmetry_group_IT_number 64
_symmetry_cell_setting 'orthorhombic'
loop_
_space_group_symop_operation_xyz
x,y,z
-x,1/2-y,1/2+z
x,-y,-z
-x,1/2+y,1/2-z
-x,-y,-z
x,1/2+y,1/2-z
-x,y,z
x,1/2-y,1/2+z
1/2+x,1/2+y,z
1/2-x,-y,1/2+z
1/2+x,1/2-y,-z
1/2-x,y,1/2-z
1/2-x,1/2-y,-z
1/2+x,y,1/2-z
1/2-x,1/2+y,z
1/2+x,-y,1/2+z
loop_
_atom_site_type_symbol
_atom_site_label
_atom_site_fract_x
_atom_site_fract_y
_atom_site_fract_z
Si Si1 0.897743 0.346943 0.529986
Si Si2 0.404045 0.516795 0.268188
Si Si3 0.400147 0.757211 0.151445
Si Si4 0.876666 0.500000 0.500000
Si Si5 0.119690 0.437748 0.364804
Si Si6 0.708517 0.107719 0.820723
Si Si7 0.905730 0.781102 0.105305
Si Si8 0.398052 0.822059 0.786211
O O1 0.885071 0.298617 0.593210
O O2 0.848036 0.422427 0.529324
O O3 0.871755 0.303314 0.465050
O O4 0.000000 0.361760 0.526872
O O5 0.500000 0.516390 0.288627
O O6 0.400759 0.491842 0.192947
O O7 0.353884 0.456548 0.305545
O O8 0.369323 0.596187 0.279815
O O9 0.500000 0.775324 0.150905
O O10 0.341355 0.826556 0.148622
O O11 0.380100 0.719731 0.220019
O O12 0.912347 0.532739 0.567004
O O13 0.218883 0.424520 0.365574
O O14 0.089221 0.356094 0.354781
O O15 0.750000 0.126944 0.750000
O O16 0.864931 0.721867 0.151522
O O17 0.000000 0.756385 0.091785
O O18 0.500000 0.823141 0.790358
#
# Coordination Sequence:
#
# PCOD9477589 Si02
#       8
#    16  16  16   8  16  16  16  16
#     4   9  18  31  53  81 106 131 166 211 260 307
#     4  10  19  33  54  79 103 132 169 216 265 307
#     4  10  19  34  55  79 102 130 171 219 258 299
#     4  10  19  34  52  76 109 138 164 206 262 316
#     4  10  20  34  51  75 105 137 172 208 254 312
#     4  10  21  36  51  72 104 139 174 211 252 304
#     4   9  17  32  52  76 105 136 165 206 260 312
#     4   9  17  29  50  77 102 127 165 210 256 306
#
# _framework density 19.545766
#
# number of rings (size 3 to 8) (size 9 to 14) (size 15 to 20)
#    0.000    2.400    0.000    3.400    0.000    3.733 
#    0.000   12.667    0.000    0.000    0.000    5.600 
#    0.000    0.000    0.000    0.000    0.000    0.000 
#
# Total GULP energy -334067.274744 kJ/mol
# GULP energy per Si atom -5567.787912 kJ/mol
# Density = 1.950128 g / cm^3
# Si number density = 19.545766 Si / 1000 Ang^3
#
#
#
# Elastic Constant Matrix: (Units=GPa)
#
#
# Indices 1 2 3 4 5 6 
#
# 1 54.3545 37.2979 27.7140 0.0000 0.0000 0.0000
# 2 37.2979 127.4652 49.6686 0.0000 0.0000 0.0000
# 3 27.7140 49.6686 71.0351 0.0000 0.0000 0.0000
# 4 0.0000 0.0000 0.0000 36.7923 0.0000 0.0000
# 5 0.0000 0.0000 0.0000 0.0000 -0.1104 0.0000
# 6 0.0000 0.0000 0.0000 0.0000 0.0000 -11.6571
#
#
#
# Elastic Compliance Matrix: (Units=1/GPa)
#
#
# Indices 1 2 3 4 5 6 
#
# 1 0.024951 -0.004821 -0.006363 0.000000 0.000000 0.000000
# 2 -0.004821 0.011715 -0.006310 0.000000 0.000000 0.000000
# 3 -0.006363 -0.006310 0.020972 0.000000 0.000000 0.000000
# 4 0.000000 0.000000 0.000000 0.027180 0.000000 0.000000
# 5 0.000000 0.000000 0.000000 0.000000 -9.061167 0.000000
# 6 0.000000 0.000000 0.000000 0.000000 0.000000 -0.085784
#
#
# Mechanical properties :
#
#
# Convention : Reuss Voigt Hill
#
# Bulk Modulus (GPa) = 44.15343 53.57954 48.86649
# Shear Modulus (GPa) = -0.55435 14.21659 6.83112
#
# Velocity S-wave (km/s) = -0.53313 2.69987 1.87150
# Velocity P-wave (km/s) = 4.71803 6.09843 5.45210
#
# Compressibility (1/GPa) = 0.02264830
#
# Stress axis : x y z
#
# Youngs Moduli (GPa) = 40.07928 85.36132 47.68199
#
# Poissons Ratio (x) = 0.41155 0.30341
# Poissons Ratio (y) = 0.19323 0.30088
# Poissons Ratio (z) = 0.25503 0.53865
#
# Static dielectric constant tensor:
#      x y z
#    x 1.737240 0.000000 0.000000 
#    y 0.000000 1.692610 0.000000 
#    z 0.000000 0.000000 1.687170 
# 
# From -- ./inp_files/40461.got.cif
#   From: 2010.05.17/outbox.cif.g08.bks.cpg/sg64_21_cif.got.tgz:40461.got - 2010.06.03 16:29:19.
