data_PCOD9477832
_publ_section_title
;
Structure prediction by ZEFSAII (Michael W. Deem and Ramdas Pophale) SiO2 
 PCOD9477832
Probable space group: C M C A
;
_chemical_formula_sum "Si O2"
_cell_formula_units_Z 72
_cell_length_a 15.181955
_cell_length_b 8.932686
_cell_length_c 22.321528
_cell_angle_alpha 90.000000
_cell_angle_beta 90.000000
_cell_angle_gamma 90.000000
_cell_volume 3027.148236
_symmetry_space_group_name_H-M "C M C A"
_symmetry_group_IT_number 64
_symmetry_cell_setting 'orthorhombic'
loop_
_space_group_symop_operation_xyz
x,y,z
-x,1/2-y,1/2+z
x,-y,-z
-x,1/2+y,1/2-z
-x,-y,-z
x,1/2+y,1/2-z
-x,y,z
x,1/2-y,1/2+z
1/2+x,1/2+y,z
1/2-x,-y,1/2+z
1/2+x,1/2-y,-z
1/2-x,y,1/2-z
1/2-x,1/2-y,-z
1/2+x,y,1/2-z
1/2-x,1/2+y,z
1/2+x,-y,1/2+z
loop_
_atom_site_type_symbol
_atom_site_label
_atom_site_fract_x
_atom_site_fract_y
_atom_site_fract_z
Si Si1 0.750000 0.277953 0.250000
Si Si2 0.784792 0.434084 0.123852
Si Si3 0.345266 0.679753 0.512676
Si Si4 0.902361 0.671325 0.182172
Si Si5 0.406172 0.589270 0.917099
O O1 0.763218 0.369267 0.189095
O O2 0.839764 0.186092 0.260494
O O3 0.844495 0.320936 0.084903
O O4 0.845206 0.575947 0.135668
O O5 0.693791 0.474040 0.088606
O O6 0.354699 0.500000 0.500000
O O7 0.250000 0.750000 0.500000
O O8 0.403501 0.787055 0.470884
O O9 0.912230 0.826135 0.146650
O O10 0.000000 0.611052 0.194348
O O11 0.500000 0.504724 0.924165
#
# Coordination Sequence:
#
# PCOD9477832 Si02
#       5
#     8  16  16  16  16
#     4  10  22  38  54  84 116 158 204 260 318 366
#     4  10  20  36  58  85 120 163 200 261 320 378
#     4  10  19  34  59  93 125 164 208 260 324 386
#     4  10  20  36  58  82 112 152 203 252 304 376
#     4   9  19  35  58  89 120 154 200 252 313 381
#
# _framework density 23.784761
#
# number of rings (size 3 to 8) (size 9 to 14) (size 15 to 20)
#    0.000    2.222    2.222    0.667    0.000    2.222 
#    0.000    5.556    0.000   12.000    0.000    0.000 
#    0.000    0.000    0.000    0.000    0.000    0.000 
#
# Total GULP energy -200420.976515 kJ/mol
# GULP energy per Si atom -5567.249348 kJ/mol
# Density = 2.373063 g / cm^3
# Si number density = 23.784761 Si / 1000 Ang^3
#
#
#
# Elastic Constant Matrix: (Units=GPa)
#
#
# Indices 1 2 3 4 5 6 
#
# 1 201.1557 27.1233 28.1694 0.0000 0.0000 0.0000
# 2 27.1233 41.9072 11.4311 0.0000 0.0000 0.0000
# 3 28.1694 11.4311 114.1417 0.0000 0.0000 0.0000
# 4 0.0000 0.0000 0.0000 16.8716 0.0000 0.0000
# 5 0.0000 0.0000 0.0000 0.0000 -3.3159 0.0000
# 6 0.0000 0.0000 0.0000 0.0000 0.0000 24.4446
#
#
#
# Elastic Compliance Matrix: (Units=1/GPa)
#
#
# Indices 1 2 3 4 5 6 
#
# 1 0.005564 -0.003317 -0.001041 0.000000 0.000000 0.000000
# 2 -0.003317 0.026510 -0.001836 0.000000 0.000000 0.000000
# 3 -0.001041 -0.001836 0.009202 0.000000 0.000000 0.000000
# 4 0.000000 0.000000 0.000000 0.059271 0.000000 0.000000
# 5 0.000000 0.000000 0.000000 0.000000 -0.301576 0.000000
# 6 0.000000 0.000000 0.000000 0.000000 0.000000 0.040909
#
#
# Mechanical properties :
#
#
# Convention : Reuss Voigt Hill
#
# Bulk Modulus (GPa) = 34.61752 54.51693 44.56723
# Shear Modulus (GPa) = -36.20550 26.96543 -4.62003
#
# Velocity S-wave (km/s) = -3.90579 3.37074 -1.39522
# Velocity P-wave (km/s) = 2.39878 6.17413 4.02279
#
# Compressibility (1/GPa) = 0.02888710
#
# Stress axis : x y z
#
# Youngs Moduli (GPa) = 179.71491 37.72125 108.67379
#
# Poissons Ratio (x) = 0.12514 0.11313
# Poissons Ratio (y) = 0.59619 0.19955
# Poissons Ratio (z) = 0.18709 0.06927
#
# Static dielectric constant tensor:
#      x y z
#    x 1.990100 0.000000 0.000000 
#    y 0.000000 2.068610 0.000000 
#    z 0.000000 0.000000 1.946310 
# 
# From -- ./inp_files/44892.got.cif
#   From: 2010.05.17/outbox.cif.g08.bks.cpg/sg64_23_cif.got.tgz:44892.got - 2010.06.03 16:29:19.
