data_PCOD9477227
_publ_section_title
;
Structure prediction by ZEFSAII (Michael W. Deem and Ramdas Pophale) SiO2 
 PCOD9477227
Probable space group: C M C A
;
_chemical_formula_sum "Si O2"
_cell_formula_units_Z 80
_cell_length_a 7.459524
_cell_length_b 27.326131
_cell_length_c 16.474056
_cell_angle_alpha 90.000000
_cell_angle_beta 90.000000
_cell_angle_gamma 90.000000
_cell_volume 3358.070422
_symmetry_space_group_name_H-M "C M C A"
_symmetry_group_IT_number 64
_symmetry_cell_setting 'orthorhombic'
loop_
_space_group_symop_operation_xyz
x,y,z
-x,1/2-y,1/2+z
x,-y,-z
-x,1/2+y,1/2-z
-x,-y,-z
x,1/2+y,1/2-z
-x,y,z
x,1/2-y,1/2+z
1/2+x,1/2+y,z
1/2-x,-y,1/2+z
1/2+x,1/2-y,-z
1/2-x,y,1/2-z
1/2-x,1/2-y,-z
1/2+x,y,1/2-z
1/2-x,1/2+y,z
1/2+x,-y,1/2+z
loop_
_atom_site_type_symbol
_atom_site_label
_atom_site_fract_x
_atom_site_fract_y
_atom_site_fract_z
Si Si1 0.784494 0.440416 0.582690
Si Si2 0.791182 0.663135 0.046225
Si Si3 0.797179 0.352750 0.363542
Si Si4 0.718484 0.544352 0.892546
Si Si5 0.785543 0.746551 0.162000
O O1 0.721437 0.385754 0.601319
O O2 0.734139 0.448866 0.487852
O O3 0.723097 0.489346 0.629839
O O4 0.000000 0.439861 0.586431
O O5 0.718739 0.710623 0.092105
O O6 0.000000 0.670732 0.026913
O O7 0.695617 0.652763 0.961391
O O8 0.715480 0.406442 0.348496
O O9 0.710175 0.301685 0.337837
O O10 0.000000 0.353805 0.330862
O O11 0.500000 0.545539 0.888526
O O12 0.750000 0.724408 0.250000
O O13 0.000000 0.750367 0.150249
#
# Coordination Sequence:
#
# PCOD9477227 Si02
#       5
#    16  16  16  16  16
#     4   8  13  24  43  67  93 124 154 182 221 273
#     4  10  19  30  46  73 101 123 151 192 234 274
#     4   9  17  32  52  72  93 122 157 193 230 276
#     4   7  11  22  43  68  92 117 151 187 222 269
#     4  10  22  36  50  68  93 124 159 196 236 278
#
# _framework density 23.823205000000002
#
# number of rings (size 3 to 8) (size 9 to 14) (size 15 to 20)
#    0.000    3.200    0.000    3.600    0.000    2.400 
#    0.000    8.000    0.000    1.200    0.000    5.600 
#    0.000    0.000    0.000    0.000    0.000    0.000 
#
# Total GULP energy -222961.980576 kJ/mol
# GULP energy per Si atom -5574.049514 kJ/mol
# Density = 2.376898 g / cm^3
# Si number density = 23.823205 Si / 1000 Ang^3
#
#
#
# Elastic Constant Matrix: (Units=GPa)
#
#
# Indices 1 2 3 4 5 6 
#
# 1 80.9252 6.2775 -3.9762 0.0000 0.0000 0.0000
# 2 6.2775 151.4302 36.3186 0.0000 0.0000 0.0000
# 3 -3.9762 36.3186 45.0860 0.0000 0.0000 0.0000
# 4 0.0000 0.0000 0.0000 -1.2870 0.0000 0.0000
# 5 0.0000 0.0000 0.0000 0.0000 2.3810 0.0000
# 6 0.0000 0.0000 0.0000 0.0000 0.0000 14.4786
#
#
#
# Elastic Compliance Matrix: (Units=1/GPa)
#
#
# Indices 1 2 3 4 5 6 
#
# 1 0.012525 -0.000972 0.001888 0.000000 0.000000 0.000000
# 2 -0.000972 0.008260 -0.006740 0.000000 0.000000 0.000000
# 3 0.001888 -0.006740 0.027775 0.000000 0.000000 0.000000
# 4 0.000000 0.000000 0.000000 -0.776987 0.000000 0.000000
# 5 0.000000 0.000000 0.000000 0.000000 0.419989 0.000000
# 6 0.000000 0.000000 0.000000 0.000000 0.000000 0.069068
#
#
# Mechanical properties :
#
#
# Convention : Reuss Voigt Hill
#
# Bulk Modulus (GPa) = 27.09093 39.40900 33.24997
# Shear Modulus (GPa) = -23.21087 19.03595 -2.08746
#
# Velocity S-wave (km/s) = -3.12476 2.82982 -0.93709
# Velocity P-wave (km/s) = 1.27377 5.22066 3.58000
#
# Compressibility (1/GPa) = 0.03691272
#
# Stress axis : x y z
#
# Youngs Moduli (GPa) = 79.83889 121.05867 36.00297
#
# Poissons Ratio (x) = 0.11766 -0.06796
# Poissons Ratio (y) = 0.07760 0.24265
# Poissons Ratio (z) = -0.15070 0.81592
#
# Static dielectric constant tensor:
#      x y z
#    x 1.814690 0.000000 0.000000 
#    y 0.000000 2.002480 0.000000 
#    z 0.000000 0.000000 1.931630 
# 
# From -- ./inp_files/29763.got.cif
#   From: 2010.05.17/outbox.cif.g08.bks.cpg/sg64_15_cif.got.tgz:29763.got - 2010.06.03 16:29:19.
