data_PCOD9477509
_publ_section_title
;
Structure prediction by ZEFSAII (Michael W. Deem and Ramdas Pophale) SiO2 
 PCOD9477509
Probable space group: C M C A
;
_chemical_formula_sum "Si O2"
_cell_formula_units_Z 96
_cell_length_a 19.282706
_cell_length_b 19.891730
_cell_length_c 11.757456
_cell_angle_alpha 90.000000
_cell_angle_beta 90.000000
_cell_angle_gamma 90.000000
_cell_volume 4509.764853
_symmetry_space_group_name_H-M "C M C A"
_symmetry_group_IT_number 64
_symmetry_cell_setting 'orthorhombic'
loop_
_space_group_symop_operation_xyz
x,y,z
-x,1/2-y,1/2+z
x,-y,-z
-x,1/2+y,1/2-z
-x,-y,-z
x,1/2+y,1/2-z
-x,y,z
x,1/2-y,1/2+z
1/2+x,1/2+y,z
1/2-x,-y,1/2+z
1/2+x,1/2-y,-z
1/2-x,y,1/2-z
1/2-x,1/2-y,-z
1/2+x,y,1/2-z
1/2-x,1/2+y,z
1/2+x,-y,1/2+z
loop_
_atom_site_type_symbol
_atom_site_label
_atom_site_fract_x
_atom_site_fract_y
_atom_site_fract_z
Si Si1 0.178202 0.308110 0.552908
Si Si2 0.420901 0.646695 0.722017
Si Si3 0.582656 0.387422 0.775079
Si Si4 0.218087 0.169028 0.629311
Si Si5 0.578832 0.228734 0.116689
Si Si6 0.416849 0.024181 0.623070
O O1 0.128648 0.353886 0.627220
O O2 0.216252 0.250753 0.626325
O O3 0.233837 0.348289 0.477393
O O4 0.130751 0.263457 0.469159
O O5 0.500000 0.630872 0.686655
O O6 0.360933 0.643318 0.628766
O O7 0.420749 0.721941 0.773155
O O8 0.399744 0.596558 0.825008
O O9 0.500000 0.378510 0.798479
O O10 0.596815 0.345430 0.660960
O O11 0.597590 0.466488 0.783690
O O12 0.250000 0.148060 0.750000
O O13 0.500000 0.229307 0.071197
O O14 0.500000 0.027462 0.609070
O O15 0.389078 0.000000 0.500000
#
# Coordination Sequence:
#
# PCOD9477509 Si02
#       6
#    16  16  16  16  16  16
#     4  11  20  33  55  82 115 152 187 240 286 348
#     4  10  19  35  55  79 113 147 186 237 291 340
#     4  10  19  33  55  88 118 145 191 241 288 341
#     4  11  22  35  53  82 111 148 191 231 290 341
#     4  10  19  32  55  86 113 142 186 237 284 338
#     4   9  18  31  53  83 111 144 184 233 292 342
#
# _framework density 21.287141999999999
#
# number of rings (size 3 to 8) (size 9 to 14) (size 15 to 20)
#    0.000    1.833    3.333    1.500    0.000    3.333 
#    0.000    0.000    0.000    8.000    0.000    4.667 
#    0.000    0.000    0.000    0.000    0.000    0.000 
#
# Total GULP energy -267881.522949 kJ/mol
# GULP energy per Si atom -5580.865061 kJ/mol
# Density = 2.123869 g / cm^3
# Si number density = 21.287142 Si / 1000 Ang^3
#
#
#
# Elastic Constant Matrix: (Units=GPa)
#
#
# Indices 1 2 3 4 5 6 
#
# 1 86.4123 -5.0502 37.5729 0.0000 0.0000 0.0000
# 2 -5.0502 62.7064 1.4217 0.0000 0.0000 0.0000
# 3 37.5729 1.4217 47.6513 0.0000 0.0000 0.0000
# 4 0.0000 0.0000 0.0000 25.1529 0.0000 0.0000
# 5 0.0000 0.0000 0.0000 0.0000 27.8158 0.0000
# 6 0.0000 0.0000 0.0000 0.0000 0.0000 11.2214
#
#
#
# Elastic Compliance Matrix: (Units=1/GPa)
#
#
# Indices 1 2 3 4 5 6 
#
# 1 0.017800 0.001753 -0.014088 0.000000 0.000000 0.000000
# 2 0.001753 0.016131 -0.001864 0.000000 0.000000 0.000000
# 3 -0.014088 -0.001864 0.032150 0.000000 0.000000 0.000000
# 4 0.000000 0.000000 0.000000 0.039757 0.000000 0.000000
# 5 0.000000 0.000000 0.000000 0.000000 0.035951 0.000000
# 6 0.000000 0.000000 0.000000 0.000000 0.000000 0.089115
#
#
# Mechanical properties :
#
#
# Convention : Reuss Voigt Hill
#
# Bulk Modulus (GPa) = 26.53643 29.40653 27.97148
# Shear Modulus (GPa) = 18.39170 23.69307 21.04239
#
# Velocity S-wave (km/s) = 2.94255 3.33982 3.14746
# Velocity P-wave (km/s) = 4.90283 5.35880 5.13588
#
# Compressibility (1/GPa) = 0.03768405
#
# Stress axis : x y z
#
# Youngs Moduli (GPa) = 56.17843 61.99336 31.10458
#
# Poissons Ratio (x) = -0.10867 0.43820
# Poissons Ratio (y) = -0.09848 0.05796
# Poissons Ratio (z) = 0.79143 0.11553
#
# Static dielectric constant tensor:
#      x y z
#    x 1.813510 0.000000 0.000000 
#    y 0.000000 1.768320 0.000000 
#    z 0.000000 0.000000 1.822780 
# 
# From -- ./inp_files/17366.got.cif
#   From: 2010.05.17/outbox.cif.g08.bks.cpg/sg64_9_cif.got.tgz:17366.got - 2010.06.03 16:29:19.
