data_PCOD9477382
_publ_section_title
;
Structure prediction by ZEFSAII (Michael W. Deem and Ramdas Pophale) SiO2 
 PCOD9477382
Probable space group: C M C A
;
_chemical_formula_sum "Si O2"
_cell_formula_units_Z 112
_cell_length_a 23.320666
_cell_length_b 12.521759
_cell_length_c 18.615035
_cell_angle_alpha 90.000000
_cell_angle_beta 90.000000
_cell_angle_gamma 90.000000
_cell_volume 5435.883581
_symmetry_space_group_name_H-M "C M C A"
_symmetry_group_IT_number 64
_symmetry_cell_setting 'orthorhombic'
loop_
_space_group_symop_operation_xyz
x,y,z
-x,1/2-y,1/2+z
x,-y,-z
-x,1/2+y,1/2-z
-x,-y,-z
x,1/2+y,1/2-z
-x,y,z
x,1/2-y,1/2+z
1/2+x,1/2+y,z
1/2-x,-y,1/2+z
1/2+x,1/2-y,-z
1/2-x,y,1/2-z
1/2-x,1/2-y,-z
1/2+x,y,1/2-z
1/2-x,1/2+y,z
1/2+x,-y,1/2+z
loop_
_atom_site_type_symbol
_atom_site_label
_atom_site_fract_x
_atom_site_fract_y
_atom_site_fract_z
Si Si1 0.934031 0.279135 0.782334
Si Si2 0.835159 0.864504 0.190905
Si Si3 0.178164 0.740834 0.439773
Si Si4 0.735579 0.147101 0.172470
Si Si5 0.134040 0.990418 0.674385
Si Si6 0.728278 0.905556 0.444191
Si Si7 0.565668 0.815078 0.120598
O O1 0.897453 0.187997 0.823295
O O2 0.902771 0.392914 0.791643
O O3 0.932533 0.240821 0.699289
O O4 0.000000 0.285316 0.805074
O O5 0.794661 0.759940 0.192729
O O6 0.806556 0.931883 0.127504
O O7 0.841071 0.931344 0.263660
O O8 0.210927 0.673171 0.378021
O O9 0.209312 0.855271 0.431992
O O10 0.193880 0.690902 0.516317
O O11 0.111154 0.751556 0.427344
O O12 0.750000 0.099384 0.250000
O O13 0.687659 0.070465 0.137542
O O14 0.091611 0.065763 0.629453
O O15 0.729520 0.000000 0.500000
O O16 0.500000 0.816256 0.096191
#
# Coordination Sequence:
#
# PCOD9477382 Si02
#       7
#    16  16  16  16  16  16  16
#     4   9  18  34  56  82 114 151 187 236 293 349
#     4   9  20  36  51  82 117 149 188 239 287 351
#     4  10  22  40  56  84 116 154 196 240 292 345
#     4  10  20  32  54  86 119 147 185 244 307 349
#     4  10  19  31  58  87 116 148 187 238 300 357
#     4  10  23  38  60  82 115 156 195 241 289 342
#     4  10  21  37  58  84 117 151 191 239 288 350
#
# _framework density 20.603826000000002
#
# number of rings (size 3 to 8) (size 9 to 14) (size 15 to 20)
#    0.000    2.286    0.000    3.000    6.000    2.286 
#    0.000    0.714    0.000    1.286    0.000    0.000 
#    0.000    0.000    0.000    0.000    0.000    0.000 
#
# Total GULP energy -312709.006543 kJ/mol
# GULP energy per Si atom -5584.089403 kJ/mol
# Density = 2.055693 g / cm^3
# Si number density = 20.603826 Si / 1000 Ang^3
#
#
#
# Elastic Constant Matrix: (Units=GPa)
#
#
# Indices 1 2 3 4 5 6 
#
# 1 149.1645 36.6705 27.2599 0.0000 0.0000 0.0000
# 2 36.6705 94.8186 -3.7368 0.0000 0.0000 0.0000
# 3 27.2599 -3.7368 32.1757 0.0000 0.0000 0.0000
# 4 0.0000 0.0000 0.0000 33.7885 0.0000 0.0000
# 5 0.0000 0.0000 0.0000 0.0000 23.1867 0.0000
# 6 0.0000 0.0000 0.0000 0.0000 0.0000 22.8762
#
#
#
# Elastic Compliance Matrix: (Units=1/GPa)
#
#
# Indices 1 2 3 4 5 6 
#
# 1 0.009153 -0.003863 -0.008203 0.000000 0.000000 0.000000
# 2 -0.003863 0.012225 0.004693 0.000000 0.000000 0.000000
# 3 -0.008203 0.004693 0.038574 0.000000 0.000000 0.000000
# 4 0.000000 0.000000 0.000000 0.029596 0.000000 0.000000
# 5 0.000000 0.000000 0.000000 0.000000 0.043128 0.000000
# 6 0.000000 0.000000 0.000000 0.000000 0.000000 0.043713
#
#
# Mechanical properties :
#
#
# Convention : Reuss Voigt Hill
#
# Bulk Modulus (GPa) = 22.12125 44.06067 33.09096
# Shear Modulus (GPa) = 24.24768 30.36796 27.30782
#
# Velocity S-wave (km/s) = 3.43425 3.84330 3.64452
# Velocity P-wave (km/s) = 5.14638 6.41294 5.81425
#
# Compressibility (1/GPa) = 0.04520540
#
# Stress axis : x y z
#
# Youngs Moduli (GPa) = 109.25590 81.79687 25.92411
#
# Poissons Ratio (x) = 0.31599 0.21266
# Poissons Ratio (y) = 0.42206 -0.12165
# Poissons Ratio (z) = 0.89624 -0.38385
#
# Static dielectric constant tensor:
#      x y z
#    x 1.737720 0.000000 0.000000 
#    y 0.000000 1.779270 0.000000 
#    z 0.000000 0.000000 1.746360 
# 
# From -- ./inp_files/41535.got.cif
#   From: 2010.05.17/outbox.cif.g08.bks.cpg/sg64_21_cif.got.tgz:41535.got - 2010.06.03 16:29:19.
