data_PCOD9477845
_publ_section_title
;
Structure prediction by ZEFSAII (Michael W. Deem and Ramdas Pophale) SiO2 
 PCOD9477845
Probable space group: C M C A
;
_chemical_formula_sum "Si O2"
_cell_formula_units_Z 112
_cell_length_a 14.759122
_cell_length_b 31.123626
_cell_length_c 12.383185
_cell_angle_alpha 90.000000
_cell_angle_beta 90.000000
_cell_angle_gamma 90.000000
_cell_volume 5688.307581
_symmetry_space_group_name_H-M "C M C A"
_symmetry_group_IT_number 64
_symmetry_cell_setting 'orthorhombic'
loop_
_space_group_symop_operation_xyz
x,y,z
-x,1/2-y,1/2+z
x,-y,-z
-x,1/2+y,1/2-z
-x,-y,-z
x,1/2+y,1/2-z
-x,y,z
x,1/2-y,1/2+z
1/2+x,1/2+y,z
1/2-x,-y,1/2+z
1/2+x,1/2-y,-z
1/2-x,y,1/2-z
1/2-x,1/2-y,-z
1/2+x,y,1/2-z
1/2-x,1/2+y,z
1/2+x,-y,1/2+z
loop_
_atom_site_type_symbol
_atom_site_label
_atom_site_fract_x
_atom_site_fract_y
_atom_site_fract_z
Si Si1 0.653660 0.815661 0.146425
Si Si2 0.271417 0.389362 0.629315
Si Si3 0.900728 0.687531 0.090798
Si Si4 0.891865 0.096396 0.738880
Si Si5 0.897649 0.623315 0.525882
Si Si6 0.107585 0.049681 0.524411
Si Si7 0.858710 0.786104 0.129819
O O1 0.662819 0.863344 0.192702
O O2 0.750631 0.794188 0.124507
O O3 0.610725 0.790354 0.245750
O O4 0.600250 0.820688 0.037080
O O5 0.250000 0.405441 0.750000
O O6 0.324634 0.343779 0.638696
O O7 0.178323 0.382676 0.563902
O O8 0.334397 0.420142 0.555389
O O9 0.881012 0.738148 0.096908
O O10 0.000000 0.678120 0.137009
O O11 0.873942 0.094980 0.866925
O O12 0.874093 0.059389 0.651560
O O13 0.000000 0.106266 0.732526
O O14 0.897137 0.673351 0.564235
O O15 0.000000 0.612468 0.491385
O O16 0.000000 0.058232 0.506781
O O17 0.125451 0.000000 0.500000
#
# Coordination Sequence:
#
# PCOD9477845 Si02
#       7
#    16  16  16  16  16  16  16
#     4  10  19  34  61  82 117 158 204 262 310 368
#     4  12  27  43  62  89 130 174 210 257 313 389
#     4  12  24  38  59  84 122 168 214 263 310 368
#     4   9  17  35  65  98 122 153 205 261 318 369
#     4  10  21  39  63  93 127 168 214 261 314 367
#     4  10  21  43  74 103 128 158 204 260 318 382
#     4  10  21  35  57  89 121 161 212 265 315 363
#
# _framework density 19.689512000000001
#
# number of rings (size 3 to 8) (size 9 to 14) (size 15 to 20)
#    0.000    1.571    2.857    1.714    2.000    3.429 
#    2.571    0.000    0.000    0.429    0.000    0.000 
#    0.000    0.000    0.000    0.000    0.000    0.000 
#
# Total GULP energy -312472.872766 kJ/mol
# GULP energy per Si atom -5579.872728 kJ/mol
# Density = 1.964470 g / cm^3
# Si number density = 19.689512 Si / 1000 Ang^3
#
#
#
# Elastic Constant Matrix: (Units=GPa)
#
#
# Indices 1 2 3 4 5 6 
#
# 1 114.4148 31.8430 45.1833 0.0000 0.0000 0.0000
# 2 31.8430 59.7254 35.0776 0.0000 0.0000 0.0000
# 3 45.1833 35.0776 88.5720 0.0000 0.0000 0.0000
# 4 0.0000 0.0000 0.0000 12.4320 0.0000 0.0000
# 5 0.0000 0.0000 0.0000 0.0000 -4.6578 0.0000
# 6 0.0000 0.0000 0.0000 0.0000 0.0000 31.2499
#
#
#
# Elastic Compliance Matrix: (Units=1/GPa)
#
#
# Indices 1 2 3 4 5 6 
#
# 1 0.011478 -0.003493 -0.004472 0.000000 0.000000 0.000000
# 2 -0.003493 0.022881 -0.007280 0.000000 0.000000 0.000000
# 3 -0.004472 -0.007280 0.016455 0.000000 0.000000 0.000000
# 4 0.000000 0.000000 0.000000 0.080438 0.000000 0.000000
# 5 0.000000 0.000000 0.000000 0.000000 -0.214693 0.000000
# 6 0.000000 0.000000 0.000000 0.000000 0.000000 0.032000
#
#
# Mechanical properties :
#
#
# Convention : Reuss Voigt Hill
#
# Bulk Modulus (GPa) = 49.20257 54.10223 51.65240
# Shear Modulus (GPa) = -352.71853 17.84537 -167.43658
#
# Velocity S-wave (km/s) = -13.39885 3.01381 -9.23163
# Velocity P-wave (km/s) = 14.63997 6.29667 9.34561
#
# Compressibility (1/GPa) = 0.02032414
#
# Stress axis : x y z
#
# Youngs Moduli (GPa) = 87.12029 43.70388 60.77341
#
# Poissons Ratio (x) = 0.15267 0.27178
# Poissons Ratio (y) = 0.30434 0.44241
# Poissons Ratio (z) = 0.38960 0.31815
#
# Static dielectric constant tensor:
#      x y z
#    x 1.752640 0.000000 0.000000 
#    y 0.000000 1.675480 0.000000 
#    z 0.000000 0.000000 1.745960 
# 
# From -- ./inp_files/14968.got.cif
#   From: 2010.05.17/outbox.cif.g08.bks.cpg/sg64_8_cif.got.tgz:14968.got - 2010.06.03 16:29:19.
